=
 OpenBabel11122412593D

 32 38  0  0  1  0  0  0  0  0999 V2000
  161.5060  202.7970  147.5650 C   0  0  1  0  0  3  0  0  0  0  0  0
  161.3040  206.6330  150.9160 C   0  0  0  0  0  0  0  0  0  0  0  0
  162.1690  210.7880  148.5370 C   0  0  0  0  0  3  0  0  0  0  0  0
  162.0510  211.4920  149.7330 C   0  0  0  0  0  3  0  0  0  0  0  0
  160.9330  206.6350  153.3120 C   0  0  0  0  0  0  0  0  0  0  0  0
  160.8330  207.3690  154.4840 C   0  0  0  0  0  0  0  0  0  0  0  0
  160.9500  204.5950  149.6350 N   0  0  1  0  0  0  0  0  0  0  0  0
  161.7260  206.5390  148.4200 C   0  0  0  0  0  2  0  0  0  0  0  0
  160.8290  209.1290  155.7930 C   0  0  0  0  0  0  0  0  0  0  0  0
  162.0810  204.2260  147.4240 C   0  0  2  0  0  3  0  0  0  0  0  0
  162.0180  209.4010  148.5290 C   0  0  0  0  0  3  0  0  0  0  0  0
  161.5970  207.3150  149.7130 C   0  0  0  0  0  0  0  0  0  0  0  0
  161.7450  208.7020  149.7180 C   0  0  0  0  0  0  0  0  0  0  0  0
  161.3580  208.7050  152.1240 C   0  0  0  0  0  0  0  0  0  0  0  0
  160.5850  208.0180  156.5300 N   0  0  0  0  0  0  0  0  0  0  0  0
  160.7130  202.4980  148.7030 O   0  0  0  0  0  0  0  0  0  0  0  0
  161.9700  205.0660  148.7080 C   0  0  2  0  0  3  0  0  0  0  0  0
  160.5870  206.9470  155.7380 N   0  0  0  0  0  0  0  0  0  0  0  0
  161.1960  203.1810  149.8280 C   0  0  0  0  0  2  0  0  0  0  0  0
  160.7640  203.8680  146.7700 C   0  0  1  0  0  3  0  0  0  0  0  0
  161.7830  210.8090  150.9200 C   0  0  0  0  0  3  0  0  0  0  0  0
  161.6270  209.4080  150.9290 C   0  0  0  0  0  0  0  0  0  0  0  0
  161.2550  209.4530  153.3220 C   0  0  0  0  0  3  0  0  0  0  0  0
  161.1540  205.2380  150.8410 O   0  0  0  0  0  0  0  0  0  0  0  0
  160.7070  204.8870  153.4730 Cl  0  0  0  0  0  0  0  0  0  0  0  0
  160.8990  210.5070  156.3520 C   0  0  0  0  0  1  0  0  0  0  0  0
  161.1990  207.3100  152.1180 N   0  0  0  0  0  0  0  0  0  0  0  0
  160.9940  208.7680  154.4810 C   0  0  0  0  0  0  0  0  0  0  0  0
  160.9890  203.6390  145.2880 C   0  0  0  0  0  2  0  0  0  0  0  0
  160.5020  204.8350  144.4900 C   0  0  2  0  0  3  0  0  0  0  0  0
  161.6680  205.4500  143.7480 C   0  0  0  0  0  1  0  0  0  0  0  0
  159.9470  205.7850  145.3470 O   0  0  0  0  0  1  0  0  0  0  0  0
  1 16  1  1  0  0  0
  2 27  1  0  0  0  0
  3  4  1  0  0  0  0
  4 21  2  0  0  0  0
  5 25  1  0  0  0  0
  5  6  2  0  0  0  0
  6 18  1  0  0  0  0
  7 19  1  1  0  0  0
  7 24  1  0  0  0  0
  8 17  1  0  0  0  0
  8 12  1  0  0  0  0
  9 26  1  0  0  0  0
  9 15  1  0  0  0  0
 10  1  1  0  0  0  0
 10 17  1  0  0  0  0
 11  3  2  0  0  0  0
 11 13  1  0  0  0  0
 12 13  1  0  0  0  0
 12  2  2  0  0  0  0
 13 22  2  0  0  0  0
 14 23  2  0  0  0  0
 16 19  1  0  0  0  0
 17  7  1  0  0  0  0
 18 15  2  0  0  0  0
 20 10  1  0  0  0  0
 20  1  1  0  0  0  0
 21 22  1  0  0  0  0
 22 14  1  0  0  0  0
 23 28  1  0  0  0  0
 24  2  1  0  0  0  0
 27 14  1  0  0  0  0
 27  5  1  0  0  0  0
 28  6  1  0  0  0  0
 28  9  2  0  0  0  0
 29 20  1  0  0  0  0
 30 29  1  0  0  0  0
 30 32  1  0  0  0  0
 31 30  1  0  0  0  0
M  END
>  <MODEL>
1

>  <REMARK>
 VINA RESULT:      -8.9      0.000      0.000
  Name = 
  2 active torsions:
  status: ('A' for Active; 'I' for Inactive)
    1  A    between atoms: C_20  and  C_29
    2  A    between atoms: C_29  and  C_30
                            x       y       z     vdW  Elec       q    Type
                         _______ _______ _______ _____ _____    ______ ____

>  <TORSDO>
F 2

$$$$
=
 OpenBabel11122412593D

 32 38  0  0  1  0  0  0  0  0999 V2000
  160.3500  208.6870  156.8310 C   0  0  1  0  0  3  0  0  0  0  0  0
  161.1200  207.2420  152.0040 C   0  0  0  0  0  0  0  0  0  0  0  0
  162.0280  211.2140  149.3460 C   0  0  0  0  0  3  0  0  0  0  0  0
  162.1400  210.4200  148.2070 C   0  0  0  0  0  3  0  0  0  0  0  0
  161.0350  205.0530  150.9660 C   0  0  0  0  0  0  0  0  0  0  0  0
  161.1440  204.2970  149.8080 C   0  0  0  0  0  0  0  0  0  0  0  0
  161.0510  207.4390  154.4290 N   0  0  1  0  0  0  0  0  0  0  0  0
  161.1480  209.4970  153.1590 C   0  0  0  0  0  2  0  0  0  0  0  0
  161.4560  203.8590  147.6820 C   0  0  0  0  0  0  0  0  0  0  0  0
  160.2800  209.5480  155.5490 C   0  0  2  0  0  3  0  0  0  0  0  0
  161.7410  210.6250  150.5780 C   0  0  0  0  0  3  0  0  0  0  0  0
  161.2750  208.6440  151.9150 C   0  0  0  0  0  0  0  0  0  0  0  0
  161.5650  209.2350  150.6850 C   0  0  0  0  0  0  0  0  0  0  0  0
  161.4930  207.0320  149.6440 C   0  0  0  0  0  0  0  0  0  0  0  0
  161.2070  202.7050  148.3480 N   0  0  0  0  0  0  0  0  0  0  0  0
  160.7920  207.3430  156.7190 O   0  0  0  0  0  0  0  0  0  0  0  0
  160.4120  208.7340  154.2510 C   0  0  2  0  0  3  0  0  0  0  0  0
  161.0160  202.9680  149.6400 N   0  0  0  0  0  0  0  0  0  0  0  0
  160.3490  206.7830  155.5130 C   0  0  0  0  0  2  0  0  0  0  0  0
  161.5170  209.5800  156.4210 C   0  0  1  0  0  3  0  0  0  0  0  0
  161.9650  209.0390  148.3000 C   0  0  0  0  0  3  0  0  0  0  0  0
  161.6750  208.4280  149.5370 C   0  0  0  0  0  0  0  0  0  0  0  0
  161.6050  206.2590  148.4630 C   0  0  0  0  0  3  0  0  0  0  0  0
  160.8420  206.7080  153.2740 O   0  0  0  0  0  0  0  0  0  0  0  0
  160.6760  204.1520  152.4470 Cl  0  0  0  0  0  0  0  0  0  0  0  0
  161.7160  203.9420  146.2190 C   0  0  0  0  0  1  0  0  0  0  0  0
  161.2110  206.4360  150.8840 N   0  0  0  0  0  0  0  0  0  0  0  0
  161.4270  204.9030  148.5700 C   0  0  0  0  0  0  0  0  0  0  0  0
  161.5030  210.8420  157.2610 C   0  0  0  0  0  2  0  0  0  0  0  0
  160.4770  211.8220  156.7220 C   0  0  2  0  0  3  0  0  0  0  0  0
  160.8670  213.2280  157.1260 C   0  0  0  0  0  1  0  0  0  0  0  0
  159.2170  211.5260  157.2420 O   0  0  0  0  0  1  0  0  0  0  0  0
  1 16  1  6  0  0  0
  2 24  1  0  0  0  0
  3 11  1  0  0  0  0
  4 21  1  0  0  0  0
  4  3  2  0  0  0  0
  5 25  1  0  0  0  0
  6  5  2  0  0  0  0
  7 19  1  1  0  0  0
  8 17  1  0  0  0  0
  9 15  1  0  0  0  0
  9 28  2  0  0  0  0
 10 20  1  0  0  0  0
 10  1  1  0  0  0  0
 11 13  2  0  0  0  0
 12  2  2  0  0  0  0
 12  8  1  0  0  0  0
 13 12  1  0  0  0  0
 14 27  1  0  0  0  0
 15 18  2  0  0  0  0
 17  7  1  0  0  0  0
 17 10  1  0  0  0  0
 18  6  1  0  0  0  0
 19 16  1  0  0  0  0
 20  1  1  0  0  0  0
 20 29  1  0  0  0  0
 21 22  2  0  0  0  0
 22 14  1  0  0  0  0
 22 13  1  0  0  0  0
 23 28  1  0  0  0  0
 23 14  2  0  0  0  0
 24  7  1  0  0  0  0
 26  9  1  0  0  0  0
 27  5  1  0  0  0  0
 27  2  1  0  0  0  0
 28  6  1  0  0  0  0
 30 31  1  0  0  0  0
 30 32  1  0  0  0  0
 30 29  1  0  0  0  0
M  END
>  <MODEL>
2

>  <REMARK>
 VINA RESULT:      -8.6      2.311      7.834
  Name = 
  2 active torsions:
  status: ('A' for Active; 'I' for Inactive)
    1  A    between atoms: C_20  and  C_29
    2  A    between atoms: C_29  and  C_30
                            x       y       z     vdW  Elec       q    Type
                         _______ _______ _______ _____ _____    ______ ____

>  <TORSDO>
F 2

$$$$
=
 OpenBabel11122412593D

 32 38  0  0  1  0  0  0  0  0999 V2000
  161.8180  212.7030  148.4100 C   0  0  1  0  0  3  0  0  0  0  0  0
  161.3760  207.8190  149.8000 C   0  0  0  0  0  0  0  0  0  0  0  0
  161.0940  207.6300  154.6530 C   0  0  0  0  0  3  0  0  0  0  0  0
  161.0170  206.2400  154.5900 C   0  0  0  0  0  3  0  0  0  0  0  0
  161.3550  205.7850  148.4810 C   0  0  0  0  0  0  0  0  0  0  0  0
  161.2860  204.4000  148.4590 C   0  0  0  0  0  0  0  0  0  0  0  0
  161.2340  209.9830  148.6960 N   0  0  1  0  0  0  0  0  0  0  0  0
  161.4480  209.9880  151.1070 C   0  0  0  0  0  2  0  0  0  0  0  0
  161.1370  202.3530  149.2350 C   0  0  0  0  0  0  0  0  0  0  0  0
  162.0880  212.0710  149.7960 C   0  0  2  0  0  3  0  0  0  0  0  0
  161.2080  208.3740  153.4780 C   0  0  0  0  0  3  0  0  0  0  0  0
  161.3610  208.4780  151.0500 C   0  0  0  0  0  0  0  0  0  0  0  0
  161.2440  207.7360  152.2260 C   0  0  0  0  0  0  0  0  0  0  0  0
  161.2090  205.6930  150.8990 C   0  0  0  0  0  0  0  0  0  0  0  0
  161.2150  202.3190  147.8820 N   0  0  0  0  0  0  0  0  0  0  0  0
  161.2660  211.8850  147.3910 O   0  0  0  0  0  0  0  0  0  0  0  0
  162.0040  210.5350  149.8010 C   0  0  2  0  0  3  0  0  0  0  0  0
  161.3060  203.5600  147.4080 N   0  0  0  0  0  0  0  0  0  0  0  0
  161.7670  210.5790  147.4880 C   0  0  0  0  0  2  0  0  0  0  0  0
  160.7820  212.7890  149.5270 C   0  0  1  0  0  3  0  0  0  0  0  0
  161.0540  205.5960  153.3520 C   0  0  0  0  0  3  0  0  0  0  0  0
  161.1680  206.3330  152.1560 C   0  0  0  0  0  0  0  0  0  0  0  0
  161.1380  204.2790  150.8750 C   0  0  0  0  0  3  0  0  0  0  0  0
  161.4820  208.6230  148.6530 O   0  0  0  0  0  0  0  0  0  0  0  0
  161.4890  206.5770  146.9040 Cl  0  0  0  0  0  0  0  0  0  0  0  0
  161.0250  201.1470  150.1000 C   0  0  0  0  0  1  0  0  0  0  0  0
  161.3160  206.4390  149.7140 N   0  0  0  0  0  0  0  0  0  0  0  0
  161.1790  203.6590  149.6510 C   0  0  0  0  0  0  0  0  0  0  0  0
  160.8340  214.1680  150.1550 C   0  0  0  0  0  2  0  0  0  0  0  0
  159.5550  214.4460  150.9240 C   0  0  2  0  0  3  0  0  0  0  0  0
  159.3630  213.3780  151.9790 C   0  0  0  0  0  1  0  0  0  0  0  0
  158.4640  214.4360  150.0540 O   0  0  0  0  0  1  0  0  0  0  0  0
  1 16  1  6  0  0  0
  1 20  1  0  0  0  0
  1 10  1  0  0  0  0
  2 12  2  0  0  0  0
  4  3  1  0  0  0  0
  5 27  1  0  0  0  0
  6  5  2  0  0  0  0
  6 28  1  0  0  0  0
  7 19  1  6  0  0  0
  7 17  1  0  0  0  0
  9 28  2  0  0  0  0
  9 26  1  0  0  0  0
 10 17  1  0  0  0  0
 11  3  2  0  0  0  0
 12  8  1  0  0  0  0
 12 13  1  0  0  0  0
 13 11  1  0  0  0  0
 14 22  1  0  0  0  0
 15  9  1  0  0  0  0
 16 19  1  0  0  0  0
 17  8  1  0  0  0  0
 18 15  2  0  0  0  0
 18  6  1  0  0  0  0
 20 10  1  0  0  0  0
 20 29  1  0  0  0  0
 21  4  2  0  0  0  0
 22 13  2  0  0  0  0
 22 21  1  0  0  0  0
 23 14  2  0  0  0  0
 24  7  1  0  0  0  0
 24  2  1  0  0  0  0
 25  5  1  0  0  0  0
 27  2  1  0  0  0  0
 27 14  1  0  0  0  0
 28 23  1  0  0  0  0
 29 30  1  0  0  0  0
 30 31  1  0  0  0  0
 32 30  1  0  0  0  0
M  END
>  <MODEL>
3

>  <REMARK>
 VINA RESULT:      -7.8      3.093      7.522
  Name = 
  2 active torsions:
  status: ('A' for Active; 'I' for Inactive)
    1  A    between atoms: C_20  and  C_29
    2  A    between atoms: C_29  and  C_30
                            x       y       z     vdW  Elec       q    Type
                         _______ _______ _______ _____ _____    ______ ____

>  <TORSDO>
F 2

$$$$
=
 OpenBabel11122412593D

 32 38  0  0  1  0  0  0  0  0999 V2000
  161.5130  210.6910  153.5510 C   0  0  1  0  0  3  0  0  0  0  0  0
  161.2280  206.8240  150.2430 C   0  0  0  0  0  0  0  0  0  0  0  0
  160.8310  202.6810  152.7640 C   0  0  0  0  0  3  0  0  0  0  0  0
  160.8100  201.9630  151.5700 C   0  0  0  0  0  3  0  0  0  0  0  0
  161.3210  206.7920  147.8210 C   0  0  0  0  0  0  0  0  0  0  0  0
  161.3070  206.0420  146.6540 C   0  0  0  0  0  0  0  0  0  0  0  0
  161.0290  208.9420  151.4220 N   0  0  1  0  0  0  0  0  0  0  0  0
  161.1810  206.9410  152.7730 C   0  0  0  0  0  2  0  0  0  0  0  0
  161.2180  204.2600  145.3770 C   0  0  0  0  0  0  0  0  0  0  0  0
  161.7720  209.1880  153.8070 C   0  0  2  0  0  3  0  0  0  0  0  0
  160.9450  204.0720  152.7360 C   0  0  0  0  0  3  0  0  0  0  0  0
  161.1550  206.1490  151.4840 C   0  0  0  0  0  0  0  0  0  0  0  0
  161.0380  204.7600  151.5130 C   0  0  0  0  0  0  0  0  0  0  0  0
  161.1170  204.7300  149.0780 C   0  0  0  0  0  0  0  0  0  0  0  0
  161.3310  205.3660  144.6020 N   0  0  0  0  0  0  0  0  0  0  0  0
  161.0190  211.0840  152.2810 O   0  0  0  0  0  0  0  0  0  0  0  0
  161.7490  208.3310  152.5300 C   0  0  2  0  0  3  0  0  0  0  0  0
  161.3860  206.4500  145.3750 N   0  0  0  0  0  0  0  0  0  0  0  0
  161.5690  210.2790  151.2730 C   0  0  0  0  0  2  0  0  0  0  0  0
  160.4460  209.8080  154.1940 C   0  0  1  0  0  3  0  0  0  0  0  0
  160.9030  202.6350  150.3510 C   0  0  0  0  0  3  0  0  0  0  0  0
  161.0190  204.0390  150.3050 C   0  0  0  0  0  0  0  0  0  0  0  0
  161.1020  203.9650  147.8860 C   0  0  0  0  0  3  0  0  0  0  0  0
  161.3320  208.2240  150.2810 O   0  0  0  0  0  0  0  0  0  0  0  0
  161.4630  208.5440  147.6110 Cl  0  0  0  0  0  0  0  0  0  0  0  0
  161.1310  202.8710  144.8490 C   0  0  0  0  0  1  0  0  0  0  0  0
  161.2250  206.1290  149.0470 N   0  0  0  0  0  0  0  0  0  0  0  0
  161.1980  204.6390  146.6950 C   0  0  0  0  0  0  0  0  0  0  0  0
  160.4280  210.0520  155.6900 C   0  0  0  0  0  2  0  0  0  0  0  0
  161.4170  209.1350  156.3860 C   0  0  2  0  0  3  0  0  0  0  0  0
  160.6600  208.0820  157.1670 C   0  0  0  0  0  1  0  0  0  0  0  0
  162.2160  209.8720  157.2610 O   0  0  0  0  0  1  0  0  0  0  0  0
  1 16  1  6  0  0  0
  1 10  1  0  0  0  0
  1 20  1  0  0  0  0
  2 24  1  0  0  0  0
  2 12  2  0  0  0  0
  4  3  2  0  0  0  0
  5 27  1  0  0  0  0
  6 28  1  0  0  0  0
  6  5  2  0  0  0  0
  7 19  1  6  0  0  0
  7 17  1  0  0  0  0
  9 28  2  0  0  0  0
 10 20  1  0  0  0  0
 11  3  1  0  0  0  0
 12 13  1  0  0  0  0
 12  8  1  0  0  0  0
 13 11  2  0  0  0  0
 14 22  1  0  0  0  0
 15 18  2  0  0  0  0
 15  9  1  0  0  0  0
 17  8  1  0  0  0  0
 17 10  1  0  0  0  0
 18  6  1  0  0  0  0
 19 16  1  0  0  0  0
 20 29  1  0  0  0  0
 21  4  1  0  0  0  0
 22 21  2  0  0  0  0
 22 13  1  0  0  0  0
 23 14  2  0  0  0  0
 24  7  1  0  0  0  0
 25  5  1  0  0  0  0
 26  9  1  0  0  0  0
 27 14  1  0  0  0  0
 27  2  1  0  0  0  0
 28 23  1  0  0  0  0
 29 30  1  0  0  0  0
 30 31  1  0  0  0  0
 30 32  1  0  0  0  0
M  END
>  <MODEL>
4

>  <REMARK>
 VINA RESULT:      -7.8      2.832      8.621
  Name = 
  2 active torsions:
  status: ('A' for Active; 'I' for Inactive)
    1  A    between atoms: C_20  and  C_29
    2  A    between atoms: C_29  and  C_30
                            x       y       z     vdW  Elec       q    Type
                         _______ _______ _______ _____ _____    ______ ____

>  <TORSDO>
F 2

$$$$
=
 OpenBabel11122412593D

 32 38  0  0  1  0  0  0  0  0999 V2000
  161.3070  202.3360  150.8590 C   0  0  1  0  0  3  0  0  0  0  0  0
  160.9970  207.1800  152.4130 C   0  0  0  0  0  0  0  0  0  0  0  0
  162.1470  210.0640  148.6680 C   0  0  0  0  0  3  0  0  0  0  0  0
  161.9700  211.1820  149.4810 C   0  0  0  0  0  3  0  0  0  0  0  0
  160.4650  208.1240  154.5820 C   0  0  0  0  0  0  0  0  0  0  0  0
  160.3080  209.2600  155.3630 C   0  0  0  0  0  0  0  0  0  0  0  0
  160.6680  204.8030  152.0110 N   0  0  1  0  0  0  0  0  0  0  0  0
  161.5830  206.1110  150.1920 C   0  0  0  0  0  2  0  0  0  0  0  0
  160.2700  211.3930  155.8730 C   0  0  0  0  0  0  0  0  0  0  0  0
  161.9340  203.5930  150.2120 C   0  0  2  0  0  3  0  0  0  0  0  0
  161.9540  208.7860  149.1930 C   0  0  0  0  0  3  0  0  0  0  0  0
  161.3910  207.3330  151.0650 C   0  0  0  0  0  0  0  0  0  0  0  0
  161.5810  208.6100  150.5370 C   0  0  0  0  0  0  0  0  0  0  0  0
  161.0320  209.5600  152.7130 C   0  0  0  0  0  0  0  0  0  0  0  0
  159.9430  210.6610  156.9660 N   0  0  0  0  0  0  0  0  0  0  0  0
  160.4300  202.5080  151.9600 O   0  0  0  0  0  0  0  0  0  0  0  0
  161.7620  204.8700  151.0530 C   0  0  2  0  0  3  0  0  0  0  0  0
  159.9660  209.3650  156.6590 N   0  0  0  0  0  0  0  0  0  0  0  0
  160.8570  203.5780  152.7610 C   0  0  0  0  0  2  0  0  0  0  0  0
  160.6530  203.0080  149.6550 C   0  0  1  0  0  3  0  0  0  0  0  0
  161.6010  211.0200  150.8170 C   0  0  0  0  0  3  0  0  0  0  0  0
  161.4030  209.7360  151.3620 C   0  0  0  0  0  0  0  0  0  0  0  0
  160.8720  210.7190  153.5110 C   0  0  0  0  0  3  0  0  0  0  0  0
  160.8100  205.8680  152.8800 O   0  0  0  0  0  0  0  0  0  0  0  0
  160.1760  206.5800  155.3980 Cl  0  0  0  0  0  0  0  0  0  0  0  0
  160.3440  212.8790  155.8500 C   0  0  0  0  0  1  0  0  0  0  0  0
  160.8310  208.2740  153.2430 N   0  0  0  0  0  0  0  0  0  0  0  0
  160.5120  210.5440  154.8230 C   0  0  0  0  0  0  0  0  0  0  0  0
  160.9710  202.2150  148.4020 C   0  0  0  0  0  2  0  0  0  0  0  0
  160.8840  203.1070  147.1770 C   0  0  2  0  0  3  0  0  0  0  0  0
  160.8310  202.2460  145.9340 C   0  0  0  0  0  1  0  0  0  0  0  0
  162.0010  203.9410  147.1140 O   0  0  0  0  0  1  0  0  0  0  0  0
  1 16  1  1  0  0  0
  2 24  1  0  0  0  0
  2 27  1  0  0  0  0
  3 11  2  0  0  0  0
  3  4  1  0  0  0  0
  4 21  2  0  0  0  0
  5  6  2  0  0  0  0
  5 25  1  0  0  0  0
  6 18  1  0  0  0  0
  7 19  1  1  0  0  0
  7 24  1  0  0  0  0
  8 17  1  0  0  0  0
  8 12  1  0  0  0  0
  9 15  1  0  0  0  0
 10  1  1  0  0  0  0
 10 17  1  0  0  0  0
 11 13  1  0  0  0  0
 12  2  2  0  0  0  0
 13 12  1  0  0  0  0
 13 22  2  0  0  0  0
 14 27  1  0  0  0  0
 14 23  2  0  0  0  0
 16 19  1  0  0  0  0
 17  7  1  0  0  0  0
 18 15  2  0  0  0  0
 20 10  1  0  0  0  0
 20  1  1  0  0  0  0
 21 22  1  0  0  0  0
 22 14  1  0  0  0  0
 23 28  1  0  0  0  0
 26  9  1  0  0  0  0
 27  5  1  0  0  0  0
 28  6  1  0  0  0  0
 28  9  2  0  0  0  0
 29 20  1  0  0  0  0
 30 29  1  0  0  0  0
 31 30  1  0  0  0  0
 32 30  1  0  0  0  0
M  END
>  <MODEL>
5

>  <REMARK>
 VINA RESULT:      -7.5      1.718      2.330
  Name = 
  2 active torsions:
  status: ('A' for Active; 'I' for Inactive)
    1  A    between atoms: C_20  and  C_29
    2  A    between atoms: C_29  and  C_30
                            x       y       z     vdW  Elec       q    Type
                         _______ _______ _______ _____ _____    ______ ____

>  <TORSDO>
F 2

$$$$
=
 OpenBabel11122412593D

 32 38  0  0  1  0  0  0  0  0999 V2000
  162.1460  210.9580  151.0630 C   0  0  1  0  0  3  0  0  0  0  0  0
  161.3420  206.2890  149.1830 C   0  0  0  0  0  0  0  0  0  0  0  0
  160.9950  203.1800  152.9090 C   0  0  0  0  0  3  0  0  0  0  0  0
  160.8200  202.1300  152.0100 C   0  0  0  0  0  3  0  0  0  0  0  0
  161.1910  205.4990  146.8960 C   0  0  0  0  0  0  0  0  0  0  0  0
  161.0240  204.4270  146.0320 C   0  0  0  0  0  0  0  0  0  0  0  0
  161.3660  208.6780  149.6430 N   0  0  1  0  0  0  0  0  0  0  0  0
  161.5540  207.1900  151.5410 C   0  0  0  0  0  2  0  0  0  0  0  0
  160.7210  202.3490  145.3970 C   0  0  0  0  0  0  0  0  0  0  0  0
  162.3550  209.5940  151.7600 C   0  0  2  0  0  3  0  0  0  0  0  0
  161.1740  204.4800  152.4330 C   0  0  0  0  0  3  0  0  0  0  0  0
  161.3600  206.0420  150.5750 C   0  0  0  0  0  0  0  0  0  0  0  0
  161.1780  204.7440  151.0530 C   0  0  0  0  0  0  0  0  0  0  0  0
  161.0120  203.9520  148.7540 C   0  0  0  0  0  0  0  0  0  0  0  0
  160.8100  203.1470  144.3050 N   0  0  0  0  0  0  0  0  0  0  0  0
  161.5470  210.9750  149.7770 O   0  0  0  0  0  0  0  0  0  0  0  0
  162.1620  208.3870  150.8260 C   0  0  2  0  0  3  0  0  0  0  0  0
  160.9950  204.4100  144.6880 N   0  0  0  0  0  0  0  0  0  0  0  0
  161.9540  209.8560  149.0360 C   0  0  0  0  0  2  0  0  0  0  0  0
  161.1060  210.4060  152.0340 C   0  0  1  0  0  3  0  0  0  0  0  0
  160.8250  202.3800  150.6370 C   0  0  0  0  0  3  0  0  0  0  0  0
  161.0040  203.6870  150.1410 C   0  0  0  0  0  0  0  0  0  0  0  0
  160.8420  202.8580  147.8710 C   0  0  0  0  0  3  0  0  0  0  0  0
  161.5180  207.6200  148.7670 O   0  0  0  0  0  0  0  0  0  0  0  0
  161.3970  207.0820  146.1320 Cl  0  0  0  0  0  0  0  0  0  0  0  0
  160.5140  200.8760  145.3440 C   0  0  0  0  0  1  0  0  0  0  0  0
  161.1860  205.2600  148.2720 N   0  0  0  0  0  0  0  0  0  0  0  0
  160.8510  203.1190  146.5240 C   0  0  0  0  0  0  0  0  0  0  0  0
  161.2490  211.1030  153.3730 C   0  0  0  0  0  2  0  0  0  0  0  0
  161.5820  210.0970  154.4590 C   0  0  2  0  0  3  0  0  0  0  0  0
  160.3230  209.3620  154.8650 C   0  0  0  0  0  1  0  0  0  0  0  0
  162.1120  210.7530  155.5710 O   0  0  0  0  0  1  0  0  0  0  0  0
  1 16  1  6  0  0  0
  1 10  1  0  0  0  0
  1 20  1  0  0  0  0
  2 12  2  0  0  0  0
  4  3  2  0  0  0  0
  5 27  1  0  0  0  0
  6 28  1  0  0  0  0
  6  5  2  0  0  0  0
  7 19  1  6  0  0  0
  7 17  1  0  0  0  0
  9 28  2  0  0  0  0
 10 20  1  0  0  0  0
 11  3  1  0  0  0  0
 12 13  1  0  0  0  0
 12  8  1  0  0  0  0
 13 11  2  0  0  0  0
 14 22  1  0  0  0  0
 15 18  2  0  0  0  0
 15  9  1  0  0  0  0
 17  8  1  0  0  0  0
 17 10  1  0  0  0  0
 18  6  1  0  0  0  0
 19 16  1  0  0  0  0
 20 29  1  0  0  0  0
 21  4  1  0  0  0  0
 22 21  2  0  0  0  0
 22 13  1  0  0  0  0
 23 14  2  0  0  0  0
 24  2  1  0  0  0  0
 24  7  1  0  0  0  0
 25  5  1  0  0  0  0
 26  9  1  0  0  0  0
 27 14  1  0  0  0  0
 27  2  1  0  0  0  0
 28 23  1  0  0  0  0
 29 30  1  0  0  0  0
 30 31  1  0  0  0  0
 30 32  1  0  0  0  0
M  END
>  <MODEL>
6

>  <REMARK>
 VINA RESULT:      -7.0      2.947      8.495
  Name = 
  2 active torsions:
  status: ('A' for Active; 'I' for Inactive)
    1  A    between atoms: C_20  and  C_29
    2  A    between atoms: C_29  and  C_30
                            x       y       z     vdW  Elec       q    Type
                         _______ _______ _______ _____ _____    ______ ____

>  <TORSDO>
F 2

$$$$
