=
 OpenBabel11122414123D

 28 32  0  0  1  0  0  0  0  0999 V2000
  160.8450  209.3570  155.0900 C   0  0  0  0  0  0  0  0  0  0  0  0
  157.6850  210.7100  155.2080 F   0  0  0  0  0  0  0  0  0  0  0  0
  160.9150  212.6780  150.0910 O   0  0  0  0  0  0  0  0  0  0  0  0
  162.4290  210.4350  157.1440 C   0  0  0  0  0  3  0  0  0  0  0  0
  158.9870  213.1550  151.4790 C   0  0  2  0  0  3  0  0  0  0  0  0
  160.0830  208.6990  153.9830 C   0  0  0  0  0  2  0  0  0  0  0  0
  158.6140  211.4170  157.2570 C   0  0  0  0  0  1  0  0  0  0  0  0
  158.0640  211.8420  155.9090 C   0  0  1  0  0  0  0  0  0  0  0  0
  156.4220  213.6020  155.1750 C   0  0  0  0  0  0  0  0  0  0  0  0
  159.1290  212.6540  155.1260 C   0  0  2  0  0  3  0  0  0  0  0  0
  161.6310  208.3810  150.6060 O   0  0  0  0  0  1  0  0  0  0  0  0
  159.5710  211.3670  153.0950 C   0  0  1  0  0  3  0  0  0  0  0  0
  157.1770  213.9460  154.1800 N   0  0  0  0  0  0  0  0  0  0  0  0
  156.8830  212.6600  156.1430 N   0  0  0  0  0  2  0  0  0  0  0  0
  160.9600  209.0440  151.6330 C   0  0  2  0  0  3  0  0  0  0  0  0
  160.9170  210.7670  155.2620 C   0  0  0  0  0  0  0  0  0  0  0  0
  160.2220  212.4250  151.1130 C   0  0  0  0  0  0  0  0  0  0  0  0
  155.1530  214.2200  155.3450 N   0  0  0  0  0  1  0  0  0  0  0  0
  161.5970  210.4120  151.8410 C   0  0  0  0  0  2  0  0  0  0  0  0
  161.7240  211.2810  156.2870 C   0  0  0  0  0  3  0  0  0  0  0  0
  161.5550  208.5200  155.9620 C   0  0  0  0  0  3  0  0  0  0  0  0
  162.3390  209.0530  156.9850 C   0  0  0  0  0  3  0  0  0  0  0  0
  161.0390  208.2040  152.9020 C   0  0  0  0  0  2  0  0  0  0  0  0
  158.5240  212.4420  152.7560 C   0  0  1  0  0  3  0  0  0  0  0  0
  160.5640  211.4190  152.0420 N   0  0  0  0  0  0  0  0  0  0  0  0
  158.5160  213.4040  153.9360 C   0  0  2  0  0  3  0  0  0  0  0  0
  157.9380  212.9780  150.3990 C   0  0  0  0  0  1  0  0  0  0  0  0
  160.1800  211.7920  154.4230 C   0  0  2  0  0  3  0  0  0  0  0  0
  1 16  2  0  0  0  0
  1 21  1  0  0  0  0
  2  8  1  0  0  0  0
  3 17  2  0  0  0  0
  5 27  1  6  0  0  0
  5 24  1  0  0  0  0
  6  1  1  0  0  0  0
  8 14  1  0  0  0  0
  8  7  1  1  0  0  0
  9 18  1  0  0  0  0
  9 14  1  0  0  0  0
 10  8  1  0  0  0  0
 11 15  1  0  0  0  0
 12 28  1  0  0  0  0
 13  9  2  0  0  0  0
 15 19  1  0  0  0  0
 15 23  1  0  0  0  0
 16 20  1  0  0  0  0
 17  5  1  0  0  0  0
 17 25  1  0  0  0  0
 19 25  1  0  0  0  0
 20  4  2  0  0  0  0
 21 22  2  0  0  0  0
 22  4  1  0  0  0  0
 23  6  1  0  0  0  0
 24 12  1  0  0  0  0
 24 26  1  0  0  0  0
 25 12  1  0  0  0  0
 26 13  1  0  0  0  0
 26 10  1  0  0  0  0
 28 10  1  0  0  0  0
 28 16  1  0  0  0  0
M  END
>  <MODEL>
1

>  <REMARK>
 VINA RESULT:      -5.6      0.000      0.000
  Name = 
  0 active torsions:
  status: ('A' for Active; 'I' for Inactive)
                            x       y       z     vdW  Elec       q    Type
                         _______ _______ _______ _____ _____    ______ ____

>  <TORSDO>
F 0

$$$$
=
 OpenBabel11122414123D

 28 32  0  0  1  0  0  0  0  0999 V2000
  160.5050  210.9450  151.5140 C   0  0  0  0  0  0  0  0  0  0  0  0
  159.6640  207.6110  151.6110 F   0  0  0  0  0  0  0  0  0  0  0  0
  162.0350  209.6180  157.1640 O   0  0  0  0  0  0  0  0  0  0  0  0
  162.7260  211.3280  149.8380 C   0  0  0  0  0  3  0  0  0  0  0  0
  161.5350  207.6370  155.8630 C   0  0  2  0  0  3  0  0  0  0  0  0
  159.3040  210.8570  152.4030 C   0  0  0  0  0  2  0  0  0  0  0  0
  161.2050  207.6920  149.8260 C   0  0  0  0  0  1  0  0  0  0  0  0
  160.9120  207.1610  151.2160 C   0  0  1  0  0  0  0  0  0  0  0  0
  161.1190  204.8950  152.2920 C   0  0  0  0  0  0  0  0  0  0  0  0
  162.0120  207.6190  152.2090 C   0  0  2  0  0  3  0  0  0  0  0  0
  159.2740  212.6750  155.6580 O   0  0  0  0  0  1  0  0  0  0  0  0
  160.8570  208.9730  153.8870 C   0  0  1  0  0  3  0  0  0  0  0  0
  161.6260  205.4090  153.3680 N   0  0  0  0  0  0  0  0  0  0  0  0
  160.8780  205.7070  151.1440 N   0  0  0  0  0  2  0  0  0  0  0  0
  159.5970  211.6270  154.7960 C   0  0  2  0  0  3  0  0  0  0  0  0
  161.6690  210.1460  151.6880 C   0  0  0  0  0  0  0  0  0  0  0  0
  161.6400  209.0970  156.0870 C   0  0  0  0  0  0  0  0  0  0  0  0
  160.8640  203.4970  152.2300 N   0  0  0  0  0  1  0  0  0  0  0  0
  161.0770  211.2990  154.9460 C   0  0  0  0  0  2  0  0  0  0  0  0
  162.7690  210.3650  150.8470 C   0  0  0  0  0  3  0  0  0  0  0  0
  160.4760  211.9050  150.4930 C   0  0  0  0  0  3  0  0  0  0  0  0
  161.5760  212.0940  149.6570 C   0  0  0  0  0  3  0  0  0  0  0  0
  159.2690  212.0390  153.3660 C   0  0  0  0  0  2  0  0  0  0  0  0
  160.9790  207.5410  154.4360 C   0  0  1  0  0  3  0  0  0  0  0  0
  161.2710  209.8560  154.9560 N   0  0  0  0  0  0  0  0  0  0  0  0
  161.9650  206.8260  153.5220 C   0  0  2  0  0  3  0  0  0  0  0  0
  160.5350  207.0320  156.8300 C   0  0  0  0  0  1  0  0  0  0  0  0
  161.8330  209.0500  152.7220 C   0  0  2  0  0  3  0  0  0  0  0  0
  1 16  1  0  0  0  0
  1  6  1  0  0  0  0
  4 20  1  0  0  0  0
  5 17  1  0  0  0  0
  5 27  1  1  0  0  0
  6 23  1  0  0  0  0
  8  7  1  6  0  0  0
  8  2  1  0  0  0  0
  8 10  1  0  0  0  0
  9 13  2  0  0  0  0
 10 28  1  0  0  0  0
 10 26  1  0  0  0  0
 12 24  1  0  0  0  0
 12 25  1  0  0  0  0
 13 26  1  0  0  0  0
 14  8  1  0  0  0  0
 14  9  1  0  0  0  0
 15 19  1  0  0  0  0
 15 11  1  0  0  0  0
 16 28  1  0  0  0  0
 17  3  2  0  0  0  0
 18  9  1  0  0  0  0
 19 25  1  0  0  0  0
 20 16  2  0  0  0  0
 21  1  2  0  0  0  0
 22  4  2  0  0  0  0
 22 21  1  0  0  0  0
 23 15  1  0  0  0  0
 24  5  1  0  0  0  0
 25 17  1  0  0  0  0
 26 24  1  0  0  0  0
 28 12  1  0  0  0  0
M  END
>  <MODEL>
2

>  <REMARK>
 VINA RESULT:      -2.9      3.293      6.885
  Name = 
  0 active torsions:
  status: ('A' for Active; 'I' for Inactive)
                            x       y       z     vdW  Elec       q    Type
                         _______ _______ _______ _____ _____    ______ ____

>  <TORSDO>
F 0

$$$$
=
 OpenBabel11122414123D

 28 32  0  0  1  0  0  0  0  0999 V2000
  160.7520  208.6610  155.0690 C   0  0  0  0  0  0  0  0  0  0  0  0
  159.1830  210.6010  152.7010 F   0  0  0  0  0  0  0  0  0  0  0  0
  163.4560  206.6730  150.0920 O   0  0  0  0  0  0  0  0  0  0  0  0
  162.4260  210.2560  156.6630 C   0  0  0  0  0  3  0  0  0  0  0  0
  162.1350  208.6630  149.6830 C   0  0  2  0  0  3  0  0  0  0  0  0
  159.8710  207.7260  154.3000 C   0  0  0  0  0  2  0  0  0  0  0  0
  160.1210  212.2190  154.1390 C   0  0  0  0  0  1  0  0  0  0  0  0
  160.1170  211.6230  152.7440 C   0  0  1  0  0  0  0  0  0  0  0  0
  160.0590  212.6100  150.4300 C   0  0  0  0  0  0  0  0  0  0  0  0
  161.5320  211.1030  152.3770 C   0  0  2  0  0  3  0  0  0  0  0  0
  161.2170  204.4490  153.1390 O   0  0  0  0  0  1  0  0  0  0  0  0
  161.2710  208.7000  152.0070 C   0  0  1  0  0  3  0  0  0  0  0  0
  160.9620  211.7790  150.0120 N   0  0  0  0  0  0  0  0  0  0  0  0
  159.7080  212.6630  151.8120 N   0  0  0  0  0  2  0  0  0  0  0  0
  161.0140  205.8280  153.0770 C   0  0  2  0  0  3  0  0  0  0  0  0
  161.6840  209.5420  154.4540 C   0  0  0  0  0  0  0  0  0  0  0  0
  162.6550  207.5510  150.5120 C   0  0  0  0  0  0  0  0  0  0  0  0
  159.4630  213.5230  149.5170 N   0  0  0  0  0  1  0  0  0  0  0  0
  162.3480  206.5150  152.8150 C   0  0  0  0  0  2  0  0  0  0  0  0
  162.5180  210.3190  155.2720 C   0  0  0  0  0  3  0  0  0  0  0  0
  160.6690  208.6130  156.4670 C   0  0  0  0  0  3  0  0  0  0  0  0
  161.4960  209.4070  157.2610 C   0  0  0  0  0  3  0  0  0  0  0  0
  160.4030  206.3000  154.3910 C   0  0  0  0  0  2  0  0  0  0  0  0
  161.1890  209.4010  150.6400 C   0  0  1  0  0  3  0  0  0  0  0  0
  162.1760  207.5830  151.8390 N   0  0  0  0  0  0  0  0  0  0  0  0
  161.6680  210.8280  150.8730 C   0  0  2  0  0  3  0  0  0  0  0  0
  161.3370  208.1140  148.5170 C   0  0  0  0  0  1  0  0  0  0  0  0
  161.8630  209.7280  152.9600 C   0  0  2  0  0  3  0  0  0  0  0  0
  1 21  1  0  0  0  0
  2  8  1  0  0  0  0
  3 17  2  0  0  0  0
  4 22  1  0  0  0  0
  5 27  1  6  0  0  0
  5 17  1  0  0  0  0
  5 24  1  0  0  0  0
  6 23  1  0  0  0  0
  6  1  1  0  0  0  0
  8  7  1  1  0  0  0
  9 14  1  0  0  0  0
 10  8  1  0  0  0  0
 10 28  1  0  0  0  0
 12 28  1  0  0  0  0
 13  9  2  0  0  0  0
 13 26  1  0  0  0  0
 14  8  1  0  0  0  0
 15 11  1  0  0  0  0
 15 23  1  0  0  0  0
 16  1  2  0  0  0  0
 16 20  1  0  0  0  0
 17 25  1  0  0  0  0
 18  9  1  0  0  0  0
 19 15  1  0  0  0  0
 20  4  2  0  0  0  0
 21 22  2  0  0  0  0
 24 26  1  0  0  0  0
 24 12  1  0  0  0  0
 25 12  1  0  0  0  0
 25 19  1  0  0  0  0
 26 10  1  0  0  0  0
 28 16  1  0  0  0  0
M  END
>  <MODEL>
3

>  <REMARK>
 VINA RESULT:      -2.9      2.678      4.225
  Name = 
  0 active torsions:
  status: ('A' for Active; 'I' for Inactive)
                            x       y       z     vdW  Elec       q    Type
                         _______ _______ _______ _____ _____    ______ ____

>  <TORSDO>
F 0

$$$$
=
 OpenBabel11122414123D

 28 32  0  0  1  0  0  0  0  0999 V2000
  160.9340  205.5110  150.6410 C   0  0  0  0  0  0  0  0  0  0  0  0
  159.7020  208.1870  152.4160 F   0  0  0  0  0  0  0  0  0  0  0  0
  163.4280  210.0480  147.6050 O   0  0  0  0  0  0  0  0  0  0  0  0
  162.7850  204.0900  152.2040 C   0  0  0  0  0  3  0  0  0  0  0  0
  162.4100  210.7840  149.6770 C   0  0  2  0  0  3  0  0  0  0  0  0
  159.9440  206.1750  149.7350 C   0  0  0  0  0  2  0  0  0  0  0  0
  160.8310  206.9540  154.0800 C   0  0  0  0  0  1  0  0  0  0  0  0
  160.7700  208.2500  153.2960 C   0  0  1  0  0  0  0  0  0  0  0  0
  160.8990  210.6800  153.9370 C   0  0  0  0  0  0  0  0  0  0  0  0
  162.1040  208.4840  152.5400 C   0  0  2  0  0  3  0  0  0  0  0  0
  160.8360  206.8120  146.1720 O   0  0  0  0  0  1  0  0  0  0  0  0
  161.5140  208.5240  150.1670 C   0  0  1  0  0  3  0  0  0  0  0  0
  161.6830  210.9420  152.9400 N   0  0  0  0  0  0  0  0  0  0  0  0
  160.5310  209.3340  154.2370 N   0  0  0  0  0  2  0  0  0  0  0  0
  160.8320  207.0740  147.5410 C   0  0  2  0  0  3  0  0  0  0  0  0
  161.9930  206.2050  151.2880 C   0  0  0  0  0  0  0  0  0  0  0  0
  162.7510  209.7880  148.6360 C   0  0  0  0  0  0  0  0  0  0  0  0
  160.4560  211.7340  154.7830 N   0  0  0  0  0  1  0  0  0  0  0  0
  162.2540  207.3770  147.9940 C   0  0  0  0  0  2  0  0  0  0  0  0
  162.9110  205.4710  152.0530 C   0  0  0  0  0  3  0  0  0  0  0  0
  160.8170  204.1240  150.8070 C   0  0  0  0  0  3  0  0  0  0  0  0
  161.7320  203.4160  151.5860 C   0  0  0  0  0  3  0  0  0  0  0  0
  160.2680  205.8640  148.2770 C   0  0  0  0  0  2  0  0  0  0  0  0
  161.5590  209.9780  150.6680 C   0  0  1  0  0  3  0  0  0  0  0  0
  162.2550  208.4980  148.9240 N   0  0  0  0  0  0  0  0  0  0  0  0
  162.2300  209.9280  152.0340 C   0  0  2  0  0  3  0  0  0  0  0  0
  161.5650  211.8930  149.0810 C   0  0  0  0  0  1  0  0  0  0  0  0
  162.2260  207.7010  151.2300 C   0  0  2  0  0  3  0  0  0  0  0  0
  1 21  2  0  0  0  0
  1 16  1  0  0  0  0
  2  8  1  0  0  0  0
  3 17  2  0  0  0  0
  5 27  1  6  0  0  0
  5 24  1  0  0  0  0
  6  1  1  0  0  0  0
  8  7  1  1  0  0  0
  8 14  1  0  0  0  0
  9 14  1  0  0  0  0
  9 18  1  0  0  0  0
 10  8  1  0  0  0  0
 11 15  1  0  0  0  0
 12 24  1  0  0  0  0
 12 28  1  0  0  0  0
 13  9  2  0  0  0  0
 15 19  1  0  0  0  0
 15 23  1  0  0  0  0
 16 20  2  0  0  0  0
 17 25  1  0  0  0  0
 17  5  1  0  0  0  0
 19 25  1  0  0  0  0
 20  4  1  0  0  0  0
 21 22  1  0  0  0  0
 22  4  2  0  0  0  0
 23  6  1  0  0  0  0
 24 26  1  0  0  0  0
 25 12  1  0  0  0  0
 26 10  1  0  0  0  0
 26 13  1  0  0  0  0
 28 16  1  0  0  0  0
 28 10  1  0  0  0  0
M  END
>  <MODEL>
4

>  <REMARK>
 VINA RESULT:      -2.7      3.306      5.516
  Name = 
  0 active torsions:
  status: ('A' for Active; 'I' for Inactive)
                            x       y       z     vdW  Elec       q    Type
                         _______ _______ _______ _____ _____    ______ ____

>  <TORSDO>
F 0

$$$$
