=
 OpenBabel11122414053D

 28 31  0  0  1  0  0  0  0  0999 V2000
  158.2040  212.1100  153.2060 C   0  0  0  0  0  0  0  0  0  0  0  0
  160.4080  209.2630  151.2820 O   0  0  0  0  0  0  0  0  0  0  0  0
  159.2180  214.3500  151.8660 C   0  0  0  0  0  3  0  0  0  0  0  0
  157.7050  210.9940  153.8780 O   0  0  0  0  0  0  0  0  0  0  0  0
  162.5000  210.2480  152.1230 O   0  0  0  0  0  0  0  0  0  0  0  0
  161.3140  209.3930  152.4730 S   0  0  0  0  0  0  0  0  0  0  0  0
  160.8630  207.2720  153.9270 C   0  0  1  0  0  3  0  0  0  0  0  0
  160.4240  210.0750  153.8460 C   0  0  1  0  0  3  0  0  0  0  0  0
  156.5500  213.1470  155.8150 O   0  0  0  0  0  1  0  0  0  0  0  0
  160.4800  211.7080  155.5850 C   0  0  2  0  0  3  0  0  0  0  0  0
  160.7970  208.0500  155.2640 C   0  0  0  0  0  2  0  0  0  0  0  0
  161.8540  207.8200  152.9910 N   0  0  0  0  0  2  0  0  0  0  0  0
  156.7500  211.7740  155.9760 C   0  0  2  0  0  3  0  0  0  0  0  0
  159.5870  212.3810  153.2360 C   0  0  0  0  0  0  0  0  0  0  0  0
  161.1680  205.8160  154.2000 C   0  0  0  0  0  1  0  0  0  0  0  0
  158.1170  211.4640  156.6040 C   0  0  0  0  0  2  0  0  0  0  0  0
  160.0820  213.5040  152.5670 C   0  0  0  0  0  3  0  0  0  0  0  0
  157.3400  212.9690  152.5130 C   0  0  0  0  0  3  0  0  0  0  0  0
  157.8470  214.0850  151.8430 C   0  0  0  0  0  3  0  0  0  0  0  0
  156.5180  211.0330  154.6580 C   0  0  0  0  0  2  0  0  0  0  0  0
  160.6820  210.3820  156.1900 N   0  0  0  0  0  0  0  0  0  0  0  0
  159.2250  212.4190  156.1350 C   0  0  1  0  0  3  0  0  0  0  0  0
  161.0900  209.5390  155.0750 C   0  0  2  0  0  3  0  0  0  0  0  0
  160.5540  211.5560  154.0490 C   0  0  2  0  0  3  0  0  0  0  0  0
  159.9790  214.4530  156.5680 C   0  0  0  0  0  1  0  0  0  0  0  0
  159.5850  213.2640  157.1850 O   0  0  0  0  0  0  0  0  0  0  0  0
  161.8240  210.4870  157.0830 C   0  0  0  0  0  2  0  0  0  0  0  0
  163.0920  210.6870  156.2760 C   0  0  0  0  0  1  0  0  0  0  0  0
  1 14  1  0  0  0  0
  1  4  1  0  0  0  0
  2  6  2  0  0  0  0
  3 17  1  0  0  0  0
  4 20  1  0  0  0  0
  5  6  2  0  0  0  0
  6 12  1  0  0  0  0
  7 15  1  1  0  0  0
  7 11  1  0  0  0  0
  8  6  1  6  0  0  0
  8 24  1  0  0  0  0
  8 23  1  0  0  0  0
 10 22  1  0  0  0  0
 10 21  1  1  0  0  0
 12  7  1  0  0  0  0
 13  9  1  6  0  0  0
 13 16  1  0  0  0  0
 17 14  2  0  0  0  0
 18  1  2  0  0  0  0
 19  3  2  0  0  0  0
 19 18  1  0  0  0  0
 20 13  1  0  0  0  0
 21 27  1  0  0  0  0
 22 16  1  0  0  0  0
 22 26  1  1  0  0  0
 23 11  1  1  0  0  0
 23 21  1  0  0  0  0
 24 14  1  6  0  0  0
 24 10  1  0  0  0  0
 25 26  1  0  0  0  0
 28 27  1  0  0  0  0
M  END
>  <MODEL>
1

>  <REMARK>
 VINA RESULT:      -3.4      0.000      0.000
  Name = 
  2 active torsions:
  status: ('A' for Active; 'I' for Inactive)
    1  A    between atoms: C_5  and  N_24
    2  A    between atoms: O_17  and  C_25
                            x       y       z     vdW  Elec       q    Type
                         _______ _______ _______ _____ _____    ______ ____

>  <TORSDO>
F 2

$$$$
=
 OpenBabel11122414053D

 28 31  0  0  1  0  0  0  0  0999 V2000
  161.1670  209.3050  155.7750 C   0  0  0  0  0  0  0  0  0  0  0  0
  158.4880  212.0380  157.1980 O   0  0  0  0  0  0  0  0  0  0  0  0
  163.4540  210.3230  157.0280 C   0  0  0  0  0  3  0  0  0  0  0  0
  160.0270  208.8040  155.1460 O   0  0  0  0  0  0  0  0  0  0  0  0
  159.6880  213.8690  156.0730 O   0  0  0  0  0  0  0  0  0  0  0  0
  158.7350  212.7220  155.8830 S   0  0  0  0  0  0  0  0  0  0  0  0
  156.6220  212.2280  154.4310 C   0  0  1  0  0  3  0  0  0  0  0  0
  159.3680  211.5620  154.7000 C   0  0  1  0  0  3  0  0  0  0  0  0
  162.1130  207.1610  153.5130 O   0  0  0  0  0  1  0  0  0  0  0  0
  161.0460  211.1870  153.0460 C   0  0  2  0  0  3  0  0  0  0  0  0
  157.4260  211.8750  153.1560 C   0  0  0  0  0  2  0  0  0  0  0  0
  157.2350  213.3060  155.2180 N   0  0  0  0  0  2  0  0  0  0  0  0
  160.7710  207.4530  153.2630 C   0  0  2  0  0  3  0  0  0  0  0  0
  161.5670  210.6350  155.5350 C   0  0  0  0  0  0  0  0  0  0  0  0
  155.2090  212.6110  154.0510 C   0  0  0  0  0  1  0  0  0  0  0  0
  160.6080  208.7190  152.4110 C   0  0  0  0  0  2  0  0  0  0  0  0
  162.7130  211.1320  156.1620 C   0  0  0  0  0  3  0  0  0  0  0  0
  161.9210  208.4940  156.6340 C   0  0  0  0  0  3  0  0  0  0  0  0
  163.0610  209.0040  157.2610 C   0  0  0  0  0  3  0  0  0  0  0  0
  159.9760  207.5060  154.5690 C   0  0  0  0  0  2  0  0  0  0  0  0
  159.7610  211.4030  152.3610 N   0  0  0  0  0  0  0  0  0  0  0  0
  161.6500  209.8010  152.7360 C   0  0  1  0  0  3  0  0  0  0  0  0
  158.9310  212.0620  153.3590 C   0  0  2  0  0  3  0  0  0  0  0  0
  160.8590  211.5250  154.5430 C   0  0  2  0  0  3  0  0  0  0  0  0
  161.9580  209.2120  150.6250 C   0  0  0  0  0  1  0  0  0  0  0  0
  162.5540  209.9080  151.6780 O   0  0  0  0  0  0  0  0  0  0  0  0
  159.9990  212.3700  151.3010 C   0  0  0  0  0  2  0  0  0  0  0  0
  159.6300  213.7600  151.7800 C   0  0  0  0  0  1  0  0  0  0  0  0
  1 18  1  0  0  0  0
  3 19  1  0  0  0  0
  4  1  1  0  0  0  0
  6  5  2  0  0  0  0
  6  2  2  0  0  0  0
  7 15  1  6  0  0  0
  7 12  1  0  0  0  0
  8  6  1  1  0  0  0
 10 21  1  6  0  0  0
 10 24  1  0  0  0  0
 11  7  1  0  0  0  0
 12  6  1  0  0  0  0
 13  9  1  1  0  0  0
 13 20  1  0  0  0  0
 14  1  2  0  0  0  0
 14 17  1  0  0  0  0
 16 22  1  0  0  0  0
 16 13  1  0  0  0  0
 17  3  2  0  0  0  0
 18 19  2  0  0  0  0
 20  4  1  0  0  0  0
 21 23  1  0  0  0  0
 22 26  1  6  0  0  0
 22 10  1  0  0  0  0
 23 11  1  6  0  0  0
 23  8  1  0  0  0  0
 24  8  1  0  0  0  0
 24 14  1  1  0  0  0
 25 26  1  0  0  0  0
 27 28  1  0  0  0  0
 27 21  1  0  0  0  0
M  END
>  <MODEL>
2

>  <REMARK>
 VINA RESULT:      -2.9      2.252      6.074
  Name = 
  2 active torsions:
  status: ('A' for Active; 'I' for Inactive)
    1  A    between atoms: C_5  and  N_24
    2  A    between atoms: O_17  and  C_25
                            x       y       z     vdW  Elec       q    Type
                         _______ _______ _______ _____ _____    ______ ____

>  <TORSDO>
F 2

$$$$
=
 OpenBabel11122414053D

 28 31  0  0  1  0  0  0  0  0999 V2000
  161.5040  209.1280  155.2390 C   0  0  0  0  0  0  0  0  0  0  0  0
  162.7110  207.7790  151.5800 O   0  0  0  0  0  0  0  0  0  0  0  0
  160.1060  206.8410  156.0490 C   0  0  0  0  0  3  0  0  0  0  0  0
  162.1950  210.2690  154.8310 O   0  0  0  0  0  0  0  0  0  0  0  0
  160.3740  207.5470  150.8430 O   0  0  0  0  0  0  0  0  0  0  0  0
  161.4970  208.5160  151.0890 S   0  0  0  0  0  0  0  0  0  0  0  0
  162.4070  210.6940  149.9730 C   0  0  1  0  0  3  0  0  0  0  0  0
  161.0190  209.7560  152.2640 C   0  0  1  0  0  3  0  0  0  0  0  0
  160.7320  211.5630  157.2610 O   0  0  0  0  0  1  0  0  0  0  0  0
  159.1840  210.6970  153.4630 C   0  0  2  0  0  3  0  0  0  0  0  0
  161.3580  211.6210  150.6330 C   0  0  0  0  0  2  0  0  0  0  0  0
  161.8680  209.3740  149.6190 N   0  0  0  0  0  2  0  0  0  0  0  0
  161.3650  212.1350  156.1550 C   0  0  2  0  0  3  0  0  0  0  0  0
  160.4350  208.6450  154.4580 C   0  0  0  0  0  0  0  0  0  0  0  0
  162.9720  211.3630  148.7400 C   0  0  0  0  0  1  0  0  0  0  0  0
  160.3830  212.3920  155.0030 C   0  0  0  0  0  2  0  0  0  0  0  0
  159.7410  207.5040  154.8740 C   0  0  0  0  0  3  0  0  0  0  0  0
  161.8580  208.4670  156.4230 C   0  0  0  0  0  3  0  0  0  0  0  0
  161.1610  207.3240  156.8250 C   0  0  0  0  0  3  0  0  0  0  0  0
  162.5750  211.3010  155.7320 C   0  0  0  0  0  2  0  0  0  0  0  0
  159.5830  211.6440  152.4100 N   0  0  0  0  0  0  0  0  0  0  0  0
  159.3050  211.3060  154.8760 C   0  0  1  0  0  3  0  0  0  0  0  0
  160.3490  210.8350  151.4730 C   0  0  2  0  0  3  0  0  0  0  0  0
  159.9390  209.3690  153.2310 C   0  0  2  0  0  3  0  0  0  0  0  0
  157.2500  210.7110  155.4410 C   0  0  0  0  0  1  0  0  0  0  0  0
  158.0710  211.8270  155.2710 O   0  0  0  0  0  0  0  0  0  0  0  0
  158.3690  212.0560  151.7220 C   0  0  0  0  0  2  0  0  0  0  0  0
  158.0340  213.4900  152.0850 C   0  0  0  0  0  1  0  0  0  0  0  0
  1 18  1  0  0  0  0
  3 19  1  0  0  0  0
  4  1  1  0  0  0  0
  4 20  1  0  0  0  0
  5  6  2  0  0  0  0
  6  2  2  0  0  0  0
  7 15  1  6  0  0  0
  7 11  1  0  0  0  0
  8  6  1  6  0  0  0
  8 24  1  0  0  0  0
 10 21  1  6  0  0  0
 10 22  1  0  0  0  0
 12  7  1  0  0  0  0
 12  6  1  0  0  0  0
 13  9  1  1  0  0  0
 14 17  1  0  0  0  0
 14  1  2  0  0  0  0
 16 13  1  0  0  0  0
 17  3  2  0  0  0  0
 18 19  2  0  0  0  0
 20 13  1  0  0  0  0
 22 16  1  0  0  0  0
 22 26  1  6  0  0  0
 23 11  1  1  0  0  0
 23  8  1  0  0  0  0
 23 21  1  0  0  0  0
 24 10  1  0  0  0  0
 24 14  1  1  0  0  0
 26 25  1  0  0  0  0
 27 28  1  0  0  0  0
 27 21  1  0  0  0  0
M  END
>  <MODEL>
3

>  <REMARK>
 VINA RESULT:      -1.1      2.284      5.165
  Name = 
  2 active torsions:
  status: ('A' for Active; 'I' for Inactive)
    1  A    between atoms: C_5  and  N_24
    2  A    between atoms: O_17  and  C_25
                            x       y       z     vdW  Elec       q    Type
                         _______ _______ _______ _____ _____    ______ ____

>  <TORSDO>
F 2

$$$$
