=
 OpenBabel11122412593D

 32 38  0  0  1  0  0  0  0  0999 V2000
  161.2340  201.4940  148.9400 C   0  0  1  0  0  3  0  0  0  0  0  0
  161.1680  206.0310  151.6660 C   0  0  0  0  0  0  0  0  0  0  0  0
  161.9950  209.4530  148.2780 C   0  0  0  0  0  3  0  0  0  0  0  0
  162.0230  210.4330  149.2680 C   0  0  0  0  0  3  0  0  0  0  0  0
  160.9740  206.6930  154.1350 C   0  0  0  0  0  0  0  0  0  0  0  0
  161.0320  207.8020  155.0800 C   0  0  0  0  0  0  0  0  0  0  0  0
  160.5670  203.6970  150.8900 C   0  0  1  0  0  3  0  0  0  0  0  0
  161.2650  205.3700  149.2000 C   0  0  0  0  0  2  0  0  0  0  0  0
  161.2370  209.8910  155.8680 C   0  0  0  0  0  0  0  0  0  0  0  0
  161.2980  202.9590  148.5080 C   0  0  2  0  0  3  0  0  0  0  0  0
  161.7790  208.1190  148.6260 C   0  0  0  0  0  3  0  0  0  0  0  0
  161.3750  206.3950  150.3090 C   0  0  0  0  0  0  0  0  0  0  0  0
  161.5880  207.7440  149.9680 C   0  0  0  0  0  0  0  0  0  0  0  0
  161.4150  208.3910  152.3190 C   0  0  0  0  0  0  0  0  0  0  0  0
  161.0120  209.0800  156.8550 N   0  0  0  0  0  0  0  0  0  0  0  0
  161.3560  201.2890  150.4660 C   0  0  0  0  0  2  0  0  0  0  0  0
  161.4740  203.9440  149.6820 C   0  0  2  0  0  3  0  0  0  0  0  0
  160.8820  207.7660  156.3630 N   0  0  0  0  0  2  0  0  0  0  0  0
  160.5120  202.2310  151.3340 C   0  0  0  0  0  2  0  0  0  0  0  0
  159.9660  202.2190  148.5050 C   0  0  1  0  0  3  0  0  0  0  0  0
  161.8330  210.0800  150.6040 C   0  0  0  0  0  3  0  0  0  0  0  0
  161.6140  208.7400  150.9710 C   0  0  0  0  0  0  0  0  0  0  0  0
  161.4500  209.4640  153.3640 C   0  0  0  0  0  2  0  0  0  0  0  0
  161.0430  204.5690  152.0390 C   0  0  0  0  0  2  0  0  0  0  0  0
  160.7420  205.5260  154.5470 O   0  0  0  0  0  0  0  0  0  0  0  0
  161.4250  211.3580  156.0230 C   0  0  0  0  0  1  0  0  0  0  0  0
  161.1880  207.0230  152.6810 C   0  0  0  0  0  0  0  0  0  0  0  0
  161.2680  209.1340  154.6350 C   0  0  0  0  0  0  0  0  0  0  0  0
  159.6220  201.8160  147.0840 C   0  0  0  0  0  2  0  0  0  0  0  0
  160.8880  201.6480  146.2640 C   0  0  2  0  0  3  0  0  0  0  0  0
  160.9270  202.6040  145.2490 O   0  0  0  0  0  1  0  0  0  0  0  0
  160.9060  200.2650  145.6480 C   0  0  0  0  0  1  0  0  0  0  0  0
  1 16  1  1  0  0  0
  2 24  1  0  0  0  0
  2 27  1  0  0  0  0
  3 11  2  0  0  0  0
  3  4  1  0  0  0  0
  4 21  2  0  0  0  0
  5 25  2  0  0  0  0
  5  6  1  0  0  0  0
  6 18  1  0  0  0  0
  7 19  1  1  0  0  0
  7 24  1  0  0  0  0
  8 17  1  0  0  0  0
  8 12  1  0  0  0  0
  9 26  1  0  0  0  0
  9 15  2  0  0  0  0
 10  1  1  0  0  0  0
 10 17  1  0  0  0  0
 11 13  1  0  0  0  0
 12  2  2  0  0  0  0
 13 12  1  0  0  0  0
 13 22  2  0  0  0  0
 14 27  2  0  0  0  0
 14 23  1  0  0  0  0
 16 19  1  0  0  0  0
 17  7  1  0  0  0  0
 18 15  1  0  0  0  0
 20 10  1  0  0  0  0
 20  1  1  0  0  0  0
 21 22  1  0  0  0  0
 22 14  1  0  0  0  0
 23 28  1  0  0  0  0
 27  5  1  0  0  0  0
 28  6  2  0  0  0  0
 28  9  1  0  0  0  0
 29 20  1  0  0  0  0
 30 29  1  0  0  0  0
 31 30  1  0  0  0  0
 32 30  1  0  0  0  0
M  END
>  <MODEL>
1

>  <REMARK>
 VINA RESULT:      -9.6      0.000      0.000
  Name = 
  2 active torsions:
  status: ('A' for Active; 'I' for Inactive)
    1  A    between atoms: C_20  and  C_29
    2  A    between atoms: C_29  and  C_30
                            x       y       z     vdW  Elec       q    Type
                         _______ _______ _______ _____ _____    ______ ____

>  <TORSDO>
F 2

$$$$
=
 OpenBabel11122412593D

 32 38  0  0  1  0  0  0  0  0999 V2000
  160.4640  208.3860  156.7580 C   0  0  1  0  0  3  0  0  0  0  0  0
  161.1600  206.5320  151.8490 C   0  0  0  0  0  0  0  0  0  0  0  0
  162.2050  210.5170  149.2220 C   0  0  0  0  0  3  0  0  0  0  0  0
  162.2180  209.7520  148.0570 C   0  0  0  0  0  3  0  0  0  0  0  0
  160.9240  204.2590  150.6890 C   0  0  0  0  0  0  0  0  0  0  0  0
  160.9570  203.5650  149.4070 C   0  0  0  0  0  0  0  0  0  0  0  0
  161.2360  206.7070  154.3740 C   0  0  1  0  0  3  0  0  0  0  0  0
  161.4840  208.7750  153.0300 C   0  0  0  0  0  2  0  0  0  0  0  0
  161.1740  203.2210  147.2020 C   0  0  0  0  0  0  0  0  0  0  0  0
  160.9310  209.0480  155.4610 C   0  0  2  0  0  3  0  0  0  0  0  0
  161.9370  209.9110  150.4500 C   0  0  0  0  0  3  0  0  0  0  0  0
  161.4040  207.9290  151.7750 C   0  0  0  0  0  0  0  0  0  0  0  0
  161.6780  208.5310  150.5330 C   0  0  0  0  0  0  0  0  0  0  0  0
  161.4470  206.3710  149.4100 C   0  0  0  0  0  0  0  0  0  0  0  0
  160.9070  202.0950  147.7880 N   0  0  0  0  0  0  0  0  0  0  0  0
  159.9190  206.9550  156.5660 C   0  0  0  0  0  2  0  0  0  0  0  0
  160.7630  208.1540  154.2150 C   0  0  2  0  0  3  0  0  0  0  0  0
  160.7710  202.3080  149.1740 N   0  0  0  0  0  2  0  0  0  0  0  0
  160.7580  206.0380  155.6660 C   0  0  0  0  0  2  0  0  0  0  0  0
  161.9530  208.5340  156.4680 C   0  0  1  0  0  3  0  0  0  0  0  0
  161.9650  208.3810  148.1220 C   0  0  0  0  0  3  0  0  0  0  0  0
  161.6940  207.7550  149.3510 C   0  0  0  0  0  0  0  0  0  0  0  0
  161.4670  205.5710  148.1440 C   0  0  0  0  0  2  0  0  0  0  0  0
  160.7640  205.9090  153.1710 C   0  0  0  0  0  2  0  0  0  0  0  0
  160.7030  203.6140  151.7480 O   0  0  0  0  0  0  0  0  0  0  0  0
  161.3820  203.3680  145.7370 C   0  0  0  0  0  1  0  0  0  0  0  0
  161.1770  205.7430  150.6700 C   0  0  0  0  0  0  0  0  0  0  0  0
  161.2290  204.2680  148.1990 C   0  0  0  0  0  0  0  0  0  0  0  0
  162.5040  209.7030  157.2610 C   0  0  0  0  0  2  0  0  0  0  0  0
  162.4680  210.9700  156.4250 C   0  0  2  0  0  3  0  0  0  0  0  0
  163.7690  211.3850  156.1360 O   0  0  0  0  0  1  0  0  0  0  0  0
  161.7560  212.0590  157.1980 C   0  0  0  0  0  1  0  0  0  0  0  0
  1 16  1  6  0  0  0
  2 24  1  0  0  0  0
  3 11  2  0  0  0  0
  4 21  2  0  0  0  0
  4  3  1  0  0  0  0
  5 25  2  0  0  0  0
  6  5  1  0  0  0  0
  7 24  1  6  0  0  0
  7 19  1  0  0  0  0
  8 17  1  0  0  0  0
  9 15  2  0  0  0  0
  9 28  1  0  0  0  0
 10 20  1  0  0  0  0
 10  1  1  0  0  0  0
 11 13  1  0  0  0  0
 12  2  1  0  0  0  0
 12  8  1  0  0  0  0
 13 12  2  0  0  0  0
 14 27  1  0  0  0  0
 15 18  1  0  0  0  0
 17  7  1  0  0  0  0
 17 10  1  0  0  0  0
 18  6  1  0  0  0  0
 19 16  1  0  0  0  0
 20  1  1  0  0  0  0
 20 29  1  0  0  0  0
 21 22  1  0  0  0  0
 22 14  2  0  0  0  0
 22 13  1  0  0  0  0
 23 28  1  0  0  0  0
 23 14  1  0  0  0  0
 26  9  1  0  0  0  0
 27  5  1  0  0  0  0
 27  2  2  0  0  0  0
 28  6  2  0  0  0  0
 30 32  1  0  0  0  0
 30 29  1  0  0  0  0
 31 30  1  0  0  0  0
M  END
>  <MODEL>
2

>  <REMARK>
 VINA RESULT:      -9.5      3.020      8.055
  Name = 
  2 active torsions:
  status: ('A' for Active; 'I' for Inactive)
    1  A    between atoms: C_20  and  C_29
    2  A    between atoms: C_29  and  C_30
                            x       y       z     vdW  Elec       q    Type
                         _______ _______ _______ _____ _____    ______ ____

>  <TORSDO>
F 2

$$$$
=
 OpenBabel11122412593D

 32 38  0  0  1  0  0  0  0  0999 V2000
  161.5920  201.5780  147.4330 C   0  0  1  0  0  3  0  0  0  0  0  0
  161.2410  205.6190  150.8340 C   0  0  0  0  0  0  0  0  0  0  0  0
  162.3290  209.5360  148.1240 C   0  0  0  0  0  3  0  0  0  0  0  0
  162.2600  210.3450  149.2580 C   0  0  0  0  0  3  0  0  0  0  0  0
  160.8230  205.8770  153.3490 C   0  0  0  0  0  0  0  0  0  0  0  0
  160.7870  206.8190  154.4620 C   0  0  0  0  0  0  0  0  0  0  0  0
  160.7350  203.4420  149.6440 C   0  0  1  0  0  3  0  0  0  0  0  0
  161.5620  205.3620  148.3120 C   0  0  0  0  0  2  0  0  0  0  0  0
  160.9000  208.7540  155.5900 C   0  0  0  0  0  0  0  0  0  0  0  0
  161.6800  203.0940  147.2480 C   0  0  2  0  0  3  0  0  0  0  0  0
  162.0970  208.1650  148.2340 C   0  0  0  0  0  3  0  0  0  0  0  0
  161.5630  206.1950  149.5770 C   0  0  0  0  0  0  0  0  0  0  0  0
  161.7920  207.5800  149.4760 C   0  0  0  0  0  0  0  0  0  0  0  0
  161.4060  207.8430  151.8760 C   0  0  0  0  0  0  0  0  0  0  0  0
  160.5980  207.7950  156.4100 N   0  0  0  0  0  0  0  0  0  0  0  0
  161.5810  201.1300  148.9100 C   0  0  0  0  0  2  0  0  0  0  0  0
  161.7420  203.8760  148.5760 C   0  0  2  0  0  3  0  0  0  0  0  0
  160.5250  206.5780  155.7040 N   0  0  0  0  0  2  0  0  0  0  0  0
  160.6550  201.9250  149.8400 C   0  0  0  0  0  2  0  0  0  0  0  0
  160.3600  202.3690  147.0090 C   0  0  1  0  0  3  0  0  0  0  0  0
  161.9560  209.7830  150.4980 C   0  0  0  0  0  3  0  0  0  0  0  0
  161.7190  208.4020  150.6250 C   0  0  0  0  0  0  0  0  0  0  0  0
  161.3380  208.7330  153.0790 C   0  0  0  0  0  2  0  0  0  0  0  0
  161.0980  204.1160  150.9550 C   0  0  0  0  0  2  0  0  0  0  0  0
  160.5680  204.6590  153.5470 O   0  0  0  0  0  0  0  0  0  0  0  0
  161.0600  210.1760  155.9940 C   0  0  0  0  0  1  0  0  0  0  0  0
  161.1610  206.4350  151.9920 C   0  0  0  0  0  0  0  0  0  0  0  0
  161.0480  208.2040  154.2590 C   0  0  0  0  0  0  0  0  0  0  0  0
  160.1480  202.2010  145.5170 C   0  0  0  0  0  2  0  0  0  0  0  0
  159.6940  203.5110  144.8980 C   0  0  2  0  0  3  0  0  0  0  0  0
  158.9270  203.2590  143.7610 O   0  0  0  0  0  1  0  0  0  0  0  0
  160.9080  204.3280  144.5110 C   0  0  0  0  0  1  0  0  0  0  0  0
  1 16  1  1  0  0  0
  2 24  1  0  0  0  0
  2 27  1  0  0  0  0
  3 11  2  0  0  0  0
  3  4  1  0  0  0  0
  4 21  2  0  0  0  0
  5 25  2  0  0  0  0
  5  6  1  0  0  0  0
  6 18  1  0  0  0  0
  7 19  1  1  0  0  0
  7 24  1  0  0  0  0
  8 17  1  0  0  0  0
  8 12  1  0  0  0  0
  9 26  1  0  0  0  0
  9 15  2  0  0  0  0
 10  1  1  0  0  0  0
 10 17  1  0  0  0  0
 11 13  1  0  0  0  0
 12  2  2  0  0  0  0
 13 12  1  0  0  0  0
 13 22  2  0  0  0  0
 14 27  2  0  0  0  0
 14 23  1  0  0  0  0
 16 19  1  0  0  0  0
 17  7  1  0  0  0  0
 18 15  1  0  0  0  0
 20 10  1  0  0  0  0
 20  1  1  0  0  0  0
 21 22  1  0  0  0  0
 22 14  1  0  0  0  0
 23 28  1  0  0  0  0
 27  5  1  0  0  0  0
 28  6  2  0  0  0  0
 28  9  1  0  0  0  0
 29 20  1  0  0  0  0
 30 29  1  0  0  0  0
 31 30  1  0  0  0  0
 32 30  1  0  0  0  0
M  END
>  <MODEL>
3

>  <REMARK>
 VINA RESULT:      -8.6      1.195      1.456
  Name = 
  2 active torsions:
  status: ('A' for Active; 'I' for Inactive)
    1  A    between atoms: C_20  and  C_29
    2  A    between atoms: C_29  and  C_30
                            x       y       z     vdW  Elec       q    Type
                         _______ _______ _______ _____ _____    ______ ____

>  <TORSDO>
F 2

$$$$
=
 OpenBabel11122412593D

 32 38  0  0  1  0  0  0  0  0999 V2000
  161.8560  202.6940  146.9110 C   0  0  1  0  0  3  0  0  0  0  0  0
  161.2670  206.2800  150.7580 C   0  0  0  0  0  0  0  0  0  0  0  0
  162.3130  210.5270  148.5800 C   0  0  0  0  0  3  0  0  0  0  0  0
  162.1820  211.1900  149.7990 C   0  0  0  0  0  3  0  0  0  0  0  0
  160.7620  206.2200  153.2700 C   0  0  0  0  0  0  0  0  0  0  0  0
  160.6600  207.0190  154.4860 C   0  0  0  0  0  0  0  0  0  0  0  0
  160.8690  204.2500  149.2980 C   0  0  1  0  0  3  0  0  0  0  0  0
  161.6760  206.3410  148.2360 C   0  0  0  0  0  2  0  0  0  0  0  0
  160.6760  208.8040  155.8420 C   0  0  0  0  0  0  0  0  0  0  0  0
  161.9000  204.2220  146.9130 C   0  0  2  0  0  3  0  0  0  0  0  0
  162.1220  209.1470  148.5150 C   0  0  0  0  0  3  0  0  0  0  0  0
  161.6100  207.0140  149.5920 C   0  0  0  0  0  0  0  0  0  0  0  0
  161.7970  208.4070  149.6670 C   0  0  0  0  0  0  0  0  0  0  0  0
  161.3270  208.3650  152.0660 C   0  0  0  0  0  0  0  0  0  0  0  0
  160.3780  207.7460  156.5290 N   0  0  0  0  0  0  0  0  0  0  0  0
  161.8130  202.0700  148.3220 C   0  0  0  0  0  2  0  0  0  0  0  0
  161.8950  204.8390  148.3260 C   0  0  2  0  0  3  0  0  0  0  0  0
  160.3670  206.6220  155.6800 N   0  0  0  0  0  2  0  0  0  0  0  0
  160.8320  202.7190  149.3070 C   0  0  0  0  0  2  0  0  0  0  0  0
  160.6130  203.4950  146.5410 C   0  0  1  0  0  3  0  0  0  0  0  0
  161.8580  210.4730  150.9500 C   0  0  0  0  0  3  0  0  0  0  0  0
  161.6620  209.0810  150.9020 C   0  0  0  0  0  0  0  0  0  0  0  0
  161.1930  209.1010  153.3630 C   0  0  0  0  0  2  0  0  0  0  0  0
  161.1690  204.7710  150.6930 C   0  0  0  0  0  2  0  0  0  0  0  0
  160.5400  204.9810  153.3110 O   0  0  0  0  0  0  0  0  0  0  0  0
  160.7760  210.1720  156.4190 C   0  0  0  0  0  1  0  0  0  0  0  0
  161.1250  206.9480  152.0030 C   0  0  0  0  0  0  0  0  0  0  0  0
  160.8830  208.4250  154.4610 C   0  0  0  0  0  0  0  0  0  0  0  0
  160.4530  203.5030  145.0340 C   0  0  0  0  0  2  0  0  0  0  0  0
  160.5790  204.9180  144.4980 C   0  0  2  0  0  3  0  0  0  0  0  0
  161.9210  205.2990  144.4720 O   0  0  0  0  0  1  0  0  0  0  0  0
  159.8090  205.8630  145.3950 C   0  0  0  0  0  1  0  0  0  0  0  0
  1 10  1  0  0  0  0
  1 16  1  1  0  0  0
  2 27  1  0  0  0  0
  3  4  1  0  0  0  0
  4 21  2  0  0  0  0
  5 25  2  0  0  0  0
  5  6  1  0  0  0  0
  6 18  1  0  0  0  0
  7 19  1  1  0  0  0
  7 24  1  0  0  0  0
  8 17  1  0  0  0  0
  8 12  1  0  0  0  0
  9 26  1  0  0  0  0
  9 15  2  0  0  0  0
 10 17  1  0  0  0  0
 11  3  2  0  0  0  0
 11 13  1  0  0  0  0
 12 13  1  0  0  0  0
 12  2  2  0  0  0  0
 13 22  2  0  0  0  0
 14 23  1  0  0  0  0
 16 19  1  0  0  0  0
 17  7  1  0  0  0  0
 18 15  1  0  0  0  0
 20  1  1  0  0  0  0
 20 10  1  0  0  0  0
 22 21  1  0  0  0  0
 22 14  1  0  0  0  0
 23 28  1  0  0  0  0
 24  2  1  0  0  0  0
 27 14  2  0  0  0  0
 27  5  1  0  0  0  0
 28  6  2  0  0  0  0
 28  9  1  0  0  0  0
 29 20  1  0  0  0  0
 30 29  1  0  0  0  0
 30 32  1  0  0  0  0
 31 30  1  0  0  0  0
M  END
>  <MODEL>
4

>  <REMARK>
 VINA RESULT:      -8.6      1.535      1.924
  Name = 
  2 active torsions:
  status: ('A' for Active; 'I' for Inactive)
    1  A    between atoms: C_20  and  C_29
    2  A    between atoms: C_29  and  C_30
                            x       y       z     vdW  Elec       q    Type
                         _______ _______ _______ _____ _____    ______ ____

>  <TORSDO>
F 2

$$$$
=
 OpenBabel11122412593D

 32 38  0  0  1  0  0  0  0  0999 V2000
  161.5870  209.9470  154.6520 C   0  0  1  0  0  3  0  0  0  0  0  0
  161.1170  206.7360  150.4710 C   0  0  0  0  0  0  0  0  0  0  0  0
  160.8320  202.2730  152.4400 C   0  0  0  0  0  3  0  0  0  0  0  0
  160.8300  201.7060  151.1660 C   0  0  0  0  0  3  0  0  0  0  0  0
  161.1670  207.0110  147.9230 C   0  0  0  0  0  0  0  0  0  0  0  0
  161.1650  206.3050  146.6470 C   0  0  0  0  0  0  0  0  0  0  0  0
  160.8310  208.7380  151.9940 C   0  0  1  0  0  3  0  0  0  0  0  0
  160.9730  206.4810  153.0090 C   0  0  0  0  0  2  0  0  0  0  0  0
  161.1110  204.6170  145.1720 C   0  0  0  0  0  0  0  0  0  0  0  0
  161.3290  208.4450  154.5280 C   0  0  2  0  0  3  0  0  0  0  0  0
  160.9070  203.6590  152.5840 C   0  0  0  0  0  3  0  0  0  0  0  0
  161.0600  205.8960  151.6140 C   0  0  0  0  0  0  0  0  0  0  0  0
  160.9800  204.5000  151.4590 C   0  0  0  0  0  0  0  0  0  0  0  0
  161.0370  204.7440  149.0260 C   0  0  0  0  0  0  0  0  0  0  0  0
  161.1770  205.7440  144.5330 N   0  0  0  0  0  0  0  0  0  0  0  0
  161.9610  210.6280  153.3180 C   0  0  0  0  0  2  0  0  0  0  0  0
  161.4960  207.9060  153.0930 C   0  0  2  0  0  3  0  0  0  0  0  0
  161.2110  206.8070  145.4570 N   0  0  0  0  0  0  0  0  0  0  0  0
  161.0990  210.2420  152.1090 C   0  0  0  0  0  2  0  0  0  0  0  0
  160.1610  209.4090  154.7030 C   0  0  1  0  0  3  0  0  0  0  0  0
  160.8990  202.5250  150.0390 C   0  0  0  0  0  3  0  0  0  0  0  0
  160.9750  203.9240  150.1670 C   0  0  0  0  0  0  0  0  0  0  0  0
  161.0330  204.1110  147.6690 C   0  0  0  0  0  3  0  0  0  0  0  0
  161.3060  208.2280  150.6450 C   0  0  0  0  0  2  0  0  0  0  0  0
  161.2060  208.2700  147.9460 O   0  0  0  0  0  0  0  0  0  0  0  0
  161.0580  203.2860  144.5110 C   0  0  0  0  0  1  0  0  0  0  0  0
  161.1080  206.1690  149.1700 C   0  0  0  0  0  0  0  0  0  0  0  0
  161.0970  204.8840  146.5950 C   0  0  0  0  0  0  0  0  0  0  0  0
  159.6930  209.3690  156.1440 C   0  0  0  0  0  2  0  0  0  0  0  0
  158.8550  210.5940  156.4600 C   0  0  2  0  0  3  0  0  0  0  0  0
  158.3830  211.1650  155.2780 O   0  0  0  0  0  1  0  0  0  0  0  0
  159.7050  211.6060  157.1990 C   0  0  0  0  0  1  0  0  0  0  0  0
  1 16  1  6  0  0  0
  1 20  1  0  0  0  0
  2 24  1  0  0  0  0
  2 12  1  0  0  0  0
  3 11  2  0  0  0  0
  4  3  1  0  0  0  0
  5 25  2  0  0  0  0
  5 27  1  0  0  0  0
  6  5  1  0  0  0  0
  7 24  1  6  0  0  0
  7 19  1  0  0  0  0
  7 17  1  0  0  0  0
  8 17  1  0  0  0  0
  9 28  1  0  0  0  0
 10  1  1  0  0  0  0
 10 20  1  0  0  0  0
 12  8  1  0  0  0  0
 13 12  2  0  0  0  0
 13 11  1  0  0  0  0
 14 27  1  0  0  0  0
 14 22  2  0  0  0  0
 15  9  2  0  0  0  0
 15 18  1  0  0  0  0
 17 10  1  0  0  0  0
 18  6  2  0  0  0  0
 19 16  1  0  0  0  0
 20 29  1  0  0  0  0
 21 22  1  0  0  0  0
 21  4  2  0  0  0  0
 22 13  1  0  0  0  0
 23 14  1  0  0  0  0
 26  9  1  0  0  0  0
 27  2  2  0  0  0  0
 28  6  1  0  0  0  0
 28 23  2  0  0  0  0
 29 30  1  0  0  0  0
 30 32  1  0  0  0  0
 31 30  1  0  0  0  0
M  END
>  <MODEL>
5

>  <REMARK>
 VINA RESULT:      -8.4      3.559      8.897
  Name = 
  2 active torsions:
  status: ('A' for Active; 'I' for Inactive)
    1  A    between atoms: C_20  and  C_29
    2  A    between atoms: C_29  and  C_30
                            x       y       z     vdW  Elec       q    Type
                         _______ _______ _______ _____ _____    ______ ____

>  <TORSDO>
F 2

$$$$
=
 OpenBabel11122412593D

 32 38  0  0  1  0  0  0  0  0999 V2000
  162.1330  213.0800  148.9740 C   0  0  1  0  0  3  0  0  0  0  0  0
  161.4440  207.8470  149.3750 C   0  0  0  0  0  0  0  0  0  0  0  0
  161.1140  207.0680  154.1870 C   0  0  0  0  0  3  0  0  0  0  0  0
  161.0550  205.6930  153.9650 C   0  0  0  0  0  3  0  0  0  0  0  0
  161.4160  205.8640  147.7510 C   0  0  0  0  0  0  0  0  0  0  0  0
  161.3530  204.4110  147.6440 C   0  0  0  0  0  0  0  0  0  0  0  0
  161.2590  210.2280  148.5310 C   0  0  1  0  0  3  0  0  0  0  0  0
  161.3780  209.8380  150.9760 C   0  0  0  0  0  2  0  0  0  0  0  0
  161.2080  202.2580  148.2500 C   0  0  0  0  0  0  0  0  0  0  0  0
  161.8340  212.1660  150.1630 C   0  0  2  0  0  3  0  0  0  0  0  0
  161.2280  207.9420  153.1060 C   0  0  0  0  0  3  0  0  0  0  0  0
  161.4040  208.3480  150.7030 C   0  0  0  0  0  0  0  0  0  0  0  0
  161.2850  207.4580  151.7860 C   0  0  0  0  0  0  0  0  0  0  0  0
  161.2660  205.5540  150.2520 C   0  0  0  0  0  0  0  0  0  0  0  0
  161.2810  202.3360  146.9580 N   0  0  0  0  0  0  0  0  0  0  0  0
  162.4790  212.3200  147.6760 C   0  0  0  0  0  2  0  0  0  0  0  0
  161.9400  210.6640  149.8300 C   0  0  2  0  0  3  0  0  0  0  0  0
  161.3720  203.6880  146.5730 N   0  0  0  0  0  0  0  0  0  0  0  0
  161.5680  211.1340  147.3350 C   0  0  0  0  0  2  0  0  0  0  0  0
  160.6970  212.8880  149.4490 C   0  0  1  0  0  3  0  0  0  0  0  0
  161.1070  205.1950  152.6630 C   0  0  0  0  0  3  0  0  0  0  0  0
  161.2210  206.0630  151.5620 C   0  0  0  0  0  0  0  0  0  0  0  0
  161.2010  204.0730  150.0400 C   0  0  0  0  0  3  0  0  0  0  0  0
  161.6760  208.8010  148.2210 C   0  0  0  0  0  2  0  0  0  0  0  0
  161.4870  206.5700  146.7100 O   0  0  0  0  0  0  0  0  0  0  0  0
  161.1000  200.9790  149.0030 C   0  0  0  0  0  1  0  0  0  0  0  0
  161.3780  206.4500  149.1380 C   0  0  0  0  0  0  0  0  0  0  0  0
  161.2480  203.5940  148.8050 C   0  0  0  0  0  0  0  0  0  0  0  0
  160.2770  214.0910  150.2700 C   0  0  0  0  0  2  0  0  0  0  0  0
  158.8190  213.9680  150.6760 C   0  0  2  0  0  3  0  0  0  0  0  0
  158.6690  212.9330  151.6000 O   0  0  0  0  0  1  0  0  0  0  0  0
  157.9810  213.6710  149.4510 C   0  0  0  0  0  1  0  0  0  0  0  0
  1 16  1  6  0  0  0
  1 20  1  0  0  0  0
  1 10  1  0  0  0  0
  2 12  1  0  0  0  0
  4  3  1  0  0  0  0
  5 27  1  0  0  0  0
  6  5  1  0  0  0  0
  6 28  1  0  0  0  0
  7 19  1  6  0  0  0
  7 17  1  0  0  0  0
  9 28  1  0  0  0  0
  9 26  1  0  0  0  0
 11  3  2  0  0  0  0
 12  8  1  0  0  0  0
 12 13  2  0  0  0  0
 13 11  1  0  0  0  0
 14 22  2  0  0  0  0
 15  9  2  0  0  0  0
 17 10  1  0  0  0  0
 17  8  1  0  0  0  0
 18 15  1  0  0  0  0
 18  6  2  0  0  0  0
 19 16  1  0  0  0  0
 20 10  1  0  0  0  0
 20 29  1  0  0  0  0
 21  4  2  0  0  0  0
 22 13  1  0  0  0  0
 22 21  1  0  0  0  0
 23 14  1  0  0  0  0
 24  7  1  0  0  0  0
 24  2  1  0  0  0  0
 25  5  2  0  0  0  0
 27  2  2  0  0  0  0
 27 14  1  0  0  0  0
 28 23  2  0  0  0  0
 29 30  1  0  0  0  0
 30 31  1  0  0  0  0
 32 30  1  0  0  0  0
M  END
>  <MODEL>
6

>  <REMARK>
 VINA RESULT:      -8.4      3.666      8.656
  Name = 
  2 active torsions:
  status: ('A' for Active; 'I' for Inactive)
    1  A    between atoms: C_20  and  C_29
    2  A    between atoms: C_29  and  C_30
                            x       y       z     vdW  Elec       q    Type
                         _______ _______ _______ _____ _____    ______ ____

>  <TORSDO>
F 2

$$$$
=
 OpenBabel11122412593D

 32 38  0  0  1  0  0  0  0  0999 V2000
  162.4850  210.8150  151.2780 C   0  0  1  0  0  3  0  0  0  0  0  0
  161.2880  206.1820  149.0160 C   0  0  0  0  0  0  0  0  0  0  0  0
  161.1740  203.0410  152.7570 C   0  0  0  0  0  3  0  0  0  0  0  0
  160.9610  201.9860  151.8710 C   0  0  0  0  0  3  0  0  0  0  0  0
  160.9580  205.3340  146.6200 C   0  0  0  0  0  0  0  0  0  0  0  0
  160.7400  204.1530  145.7920 C   0  0  0  0  0  0  0  0  0  0  0  0
  161.2980  208.6610  149.5330 C   0  0  1  0  0  3  0  0  0  0  0  0
  161.5250  207.0540  151.4070 C   0  0  0  0  0  2  0  0  0  0  0  0
  160.4110  202.0090  145.2240 C   0  0  0  0  0  0  0  0  0  0  0  0
  162.1670  209.4360  151.8560 C   0  0  2  0  0  3  0  0  0  0  0  0
  161.3110  204.3410  152.2700 C   0  0  0  0  0  3  0  0  0  0  0  0
  161.3810  205.9220  150.4090 C   0  0  0  0  0  0  0  0  0  0  0  0
  161.2370  204.6080  150.8910 C   0  0  0  0  0  0  0  0  0  0  0  0
  160.9290  203.7810  148.6100 C   0  0  0  0  0  0  0  0  0  0  0  0
  160.4130  202.7420  144.1540 N   0  0  0  0  0  0  0  0  0  0  0  0
  162.6720  210.8210  149.7450 C   0  0  0  0  0  2  0  0  0  0  0  0
  162.0970  208.3210  150.7930 C   0  0  2  0  0  3  0  0  0  0  0  0
  160.6190  204.0900  144.5080 N   0  0  0  0  0  0  0  0  0  0  0  0
  161.6240  210.0370  148.9440 C   0  0  0  0  0  2  0  0  0  0  0  0
  161.0690  210.4860  151.7350 C   0  0  1  0  0  3  0  0  0  0  0  0
  160.8820  202.2330  150.5000 C   0  0  0  0  0  3  0  0  0  0  0  0
  161.0170  203.5380  149.9930 C   0  0  0  0  0  0  0  0  0  0  0  0
  160.7000  202.6300  147.6800 C   0  0  0  0  0  3  0  0  0  0  0  0
  161.5460  207.5800  148.4950 C   0  0  0  0  0  2  0  0  0  0  0  0
  161.0370  206.4710  146.0860 O   0  0  0  0  0  0  0  0  0  0  0  0
  160.2190  200.5340  145.2230 C   0  0  0  0  0  1  0  0  0  0  0  0
  161.0650  205.1160  148.1070 C   0  0  0  0  0  0  0  0  0  0  0  0
  160.6230  202.8590  146.3760 C   0  0  0  0  0  0  0  0  0  0  0  0
  160.8250  211.1110  153.0950 C   0  0  0  0  0  2  0  0  0  0  0  0
  161.0980  210.1020  154.1950 C   0  0  2  0  0  3  0  0  0  0  0  0
  159.9040  209.7520  154.8270 O   0  0  0  0  0  1  0  0  0  0  0  0
  162.0410  210.7110  155.2110 C   0  0  0  0  0  1  0  0  0  0  0  0
  1 16  1  6  0  0  0
  1 20  1  0  0  0  0
  1 10  1  0  0  0  0
  2 12  1  0  0  0  0
  4  3  1  0  0  0  0
  5 27  1  0  0  0  0
  6 28  1  0  0  0  0
  6  5  1  0  0  0  0
  7 24  1  6  0  0  0
  7 17  1  0  0  0  0
  9 28  1  0  0  0  0
 11  3  2  0  0  0  0
 12 13  2  0  0  0  0
 12  8  1  0  0  0  0
 13 11  1  0  0  0  0
 14 22  2  0  0  0  0
 15 18  1  0  0  0  0
 15  9  2  0  0  0  0
 17  8  1  0  0  0  0
 17 10  1  0  0  0  0
 18  6  2  0  0  0  0
 19  7  1  0  0  0  0
 19 16  1  0  0  0  0
 20 10  1  0  0  0  0
 20 29  1  0  0  0  0
 21  4  2  0  0  0  0
 22 21  1  0  0  0  0
 22 13  1  0  0  0  0
 23 14  1  0  0  0  0
 24  2  1  0  0  0  0
 25  5  2  0  0  0  0
 26  9  1  0  0  0  0
 27 14  1  0  0  0  0
 27  2  2  0  0  0  0
 28 23  2  0  0  0  0
 29 30  1  0  0  0  0
 30 31  1  0  0  0  0
 30 32  1  0  0  0  0
M  END
>  <MODEL>
7

>  <REMARK>
 VINA RESULT:      -6.9      3.575      9.003
  Name = 
  2 active torsions:
  status: ('A' for Active; 'I' for Inactive)
    1  A    between atoms: C_20  and  C_29
    2  A    between atoms: C_29  and  C_30
                            x       y       z     vdW  Elec       q    Type
                         _______ _______ _______ _____ _____    ______ ____

>  <TORSDO>
F 2

$$$$
