=
 OpenBabel11122414333D

 34 42  0  0  1  0  0  0  0  0999 V2000
  161.0050  207.3410  154.1140 C   0  0  1  0  0  3  0  0  0  0  0  0
  161.4680  205.1620  153.1540 C   0  0  0  0  0  2  0  0  0  0  0  0
  159.0280  213.8040  153.6530 C   0  0  2  0  0  0  0  0  0  0  0  0
  160.4540  209.6550  154.9700 C   0  0  2  0  0  3  0  0  0  0  0  0
  160.0540  211.4930  153.2280 C   0  0  2  0  0  3  0  0  0  0  0  0
  159.2100  213.4450  151.7380 C   0  0  2  0  0  3  0  0  0  0  0  0
  158.5750  214.4530  152.4630 O   0  0  0  0  0  0  0  0  0  0  0  0
  159.7310  213.2850  155.8900 C   0  0  0  0  0  3  0  0  0  0  0  0
  161.6950  207.0300  151.8980 C   0  0  2  0  0  3  0  0  0  0  0  0
  161.2030  206.9430  148.7190 C   0  0  0  0  0  3  0  0  0  0  0  0
  160.4750  210.5810  152.2090 N   0  0  0  0  0  2  0  0  0  0  0  0
  160.1160  212.0020  155.7590 C   0  0  0  0  0  3  0  0  0  0  0  0
  161.0940  208.3400  151.3800 C   0  0  1  0  0  3  0  0  0  0  0  0
  161.8980  204.6730  151.7750 C   0  0  0  0  0  2  0  0  0  0  0  0
  159.8110  211.0160  154.6490 C   0  0  2  0  0  3  0  0  0  0  0  0
  159.0450  214.0890  154.9120 N   0  0  0  0  0  2  0  0  0  0  0  0
  160.9290  205.9060  149.7820 C   0  0  2  0  0  3  0  0  0  0  0  0
  160.3870  208.7070  153.7670 C   0  0  1  0  0  3  0  0  0  0  0  0
  159.5550  212.6640  152.8800 C   0  0  1  0  0  3  0  0  0  0  0  0
  161.1070  209.3200  152.5610 C   0  0  2  0  0  3  0  0  0  0  0  0
  160.4110  207.7930  156.4790 C   0  0  0  0  0  2  0  0  0  0  0  0
  161.5960  208.2160  148.9150 C   0  0  0  0  0  3  0  0  0  0  0  0
  159.7550  209.0480  156.1080 N   0  0  0  0  0  2  0  0  0  0  0  0
  161.9450  208.8580  150.2320 C   0  0  0  0  0  2  0  0  0  0  0  0
  161.9820  205.9200  150.9000 C   0  0  1  0  0  3  0  0  0  0  0  0
  160.2940  206.7790  155.3430 C   0  0  0  0  0  2  0  0  0  0  0  0
  160.8600  206.4670  152.9470 N   0  0  2  0  0  0  0  0  0  0  0  0
  160.8610  204.6480  149.1770 O   0  0  0  0  0  0  0  0  0  0  0  0
  161.1990  204.8760  147.8400 C   0  0  0  0  0  2  0  0  0  0  0  0
  160.3320  201.8760  146.9540 O   0  0  0  0  0  0  0  0  0  0  0  0
  161.5570  203.5300  145.7990 C   0  0  0  0  0  2  0  0  0  0  0  0
  161.8760  203.6450  147.2610 C   0  0  2  0  0  3  0  0  0  0  0  0
  160.8270  202.2140  145.6870 C   0  0  0  0  0  2  0  0  0  0  0  0
  161.2600  202.4040  147.8640 C   0  0  0  0  0  2  0  0  0  0  0  0
  1 26  1  1  0  0  0
  3  7  1  1  0  0  0
  3 16  1  0  0  0  0
  4 23  1  1  0  0  0
  5 11  1  6  0  0  0
  5 15  1  0  0  0  0
  6  7  1  6  0  0  0
  6 19  1  0  0  0  0
  6  3  1  0  0  0  0
  9 27  1  0  0  0  0
 10 22  2  0  0  0  0
 10 17  1  0  0  0  0
 11 20  1  0  0  0  0
 12  8  2  0  0  0  0
 13  9  1  0  0  0  0
 13 20  1  0  0  0  0
 14  2  1  0  0  0  0
 15  4  1  0  0  0  0
 15 12  1  0  0  0  0
 16  8  1  0  0  0  0
 17 25  1  0  0  0  0
 18  1  1  0  0  0  0
 18  4  1  0  0  0  0
 19  5  1  0  0  0  0
 19  3  1  0  0  0  0
 20 18  1  0  0  0  0
 22 24  1  0  0  0  0
 23 21  1  0  0  0  0
 24 13  1  0  0  0  0
 25 14  1  0  0  0  0
 25  9  1  0  0  0  0
 26 21  1  0  0  0  0
 27  2  1  0  0  0  0
 27  1  1  0  0  0  0
 28 17  1  0  0  0  0
 29 28  1  0  0  0  0
 30 34  1  0  0  0  0
 31 32  1  0  0  0  0
 32 29  1  0  0  0  0
 32 34  1  0  0  0  0
 33 31  1  0  0  0  0
 33 30  1  0  0  0  0
M  END
>  <MODEL>
1

>  <REMARK>
 VINA RESULT:     -10.1      0.000      0.000
  Name = 
  3 active torsions:
  status: ('A' for Active; 'I' for Inactive)
    1  A    between atoms: C_17  and  O_28
    2  A    between atoms: O_28  and  C_29
    3  A    between atoms: C_29  and  C_32
                            x       y       z     vdW  Elec       q    Type
                         _______ _______ _______ _____ _____    ______ ____

>  <TORSDO>
F 3

$$$$
=
 OpenBabel11122414333D

 34 42  0  0  1  0  0  0  0  0999 V2000
  161.7540  209.4720  151.1370 C   0  0  1  0  0  3  0  0  0  0  0  0
  161.4160  211.1300  152.8760 C   0  0  0  0  0  2  0  0  0  0  0  0
  160.9330  203.2830  148.5070 C   0  0  2  0  0  0  0  0  0  0  0  0
  161.9960  207.6490  149.4030 C   0  0  2  0  0  3  0  0  0  0  0  0
  161.2880  205.2780  150.0790 C   0  0  2  0  0  3  0  0  0  0  0  0
  160.2950  202.8900  150.3140 C   0  0  2  0  0  3  0  0  0  0  0  0
  160.1790  202.2220  149.0960 O   0  0  0  0  0  0  0  0  0  0  0  0
  162.3390  204.6280  147.0990 C   0  0  0  0  0  3  0  0  0  0  0  0
  161.4690  208.9290  153.3970 C   0  0  2  0  0  3  0  0  0  0  0  0
  159.7830  207.7900  155.8900 C   0  0  0  0  0  3  0  0  0  0  0  0
  161.1140  205.7410  151.4210 N   0  0  0  0  0  2  0  0  0  0  0  0
  162.4100  205.7720  147.8060 C   0  0  0  0  0  3  0  0  0  0  0  0
  160.9580  207.5090  153.1360 C   0  0  1  0  0  3  0  0  0  0  0  0
  161.1880  211.0650  154.3810 C   0  0  0  0  0  2  0  0  0  0  0  0
  161.5310  206.2560  148.9420 C   0  0  2  0  0  3  0  0  0  0  0  0
  161.4840  203.5000  147.3590 N   0  0  0  0  0  2  0  0  0  0  0  0
  159.7610  209.1480  155.2300 C   0  0  2  0  0  3  0  0  0  0  0  0
  161.3030  208.0660  150.7060 C   0  0  1  0  0  3  0  0  0  0  0  0
  160.9100  204.0540  149.7640 C   0  0  1  0  0  3  0  0  0  0  0  0
  161.5980  207.0530  151.8180 C   0  0  2  0  0  3  0  0  0  0  0  0
  162.2090  209.9430  148.7450 C   0  0  0  0  0  2  0  0  0  0  0  0
  160.4410  206.6960  155.4630 C   0  0  0  0  0  3  0  0  0  0  0  0
  161.6940  208.6290  148.3550 N   0  0  0  0  0  2  0  0  0  0  0  0
  161.3780  206.6100  154.2870 C   0  0  0  0  0  2  0  0  0  0  0  0
  161.1480  209.5810  154.7320 C   0  0  1  0  0  3  0  0  0  0  0  0
  161.4840  210.4460  149.9920 C   0  0  0  0  0  2  0  0  0  0  0  0
  161.0180  209.8340  152.3510 N   0  0  2  0  0  0  0  0  0  0  0  0
  159.2430  210.0790  156.1350 O   0  0  0  0  0  0  0  0  0  0  0  0
  158.0210  210.4720  155.5840 C   0  0  0  0  0  2  0  0  0  0  0  0
  156.5440  212.8920  154.0010 O   0  0  0  0  0  0  0  0  0  0  0  0
  156.4450  212.2480  156.2700 C   0  0  0  0  0  2  0  0  0  0  0  0
  157.8290  211.9690  155.7630 C   0  0  2  0  0  3  0  0  0  0  0  0
  155.8230  213.0940  155.1860 C   0  0  0  0  0  2  0  0  0  0  0  0
  157.8620  212.6440  154.4120 C   0  0  0  0  0  2  0  0  0  0  0  0
  1 26  1  6  0  0  0
  1 27  1  0  0  0  0
  2 14  1  0  0  0  0
  3 16  1  1  0  0  0
  3  7  1  0  0  0  0
  3 19  1  0  0  0  0
  3  6  1  0  0  0  0
  4 23  1  6  0  0  0
  4 18  1  0  0  0  0
  5 11  1  1  0  0  0
  6  7  1  6  0  0  0
  8 16  1  0  0  0  0
  8 12  2  0  0  0  0
  9 25  1  0  0  0  0
 11 20  1  0  0  0  0
 12 15  1  0  0  0  0
 13  9  1  0  0  0  0
 13 24  1  0  0  0  0
 14 25  1  0  0  0  0
 15  4  1  0  0  0  0
 15  5  1  0  0  0  0
 17 10  1  0  0  0  0
 17 28  1  0  0  0  0
 18  1  1  0  0  0  0
 18 20  1  0  0  0  0
 19  5  1  0  0  0  0
 19  6  1  0  0  0  0
 20 13  1  0  0  0  0
 21 26  1  0  0  0  0
 22 10  2  0  0  0  0
 23 21  1  0  0  0  0
 24 22  1  0  0  0  0
 25 17  1  0  0  0  0
 27  2  1  0  0  0  0
 27  9  1  0  0  0  0
 29 32  1  0  0  0  0
 29 28  1  0  0  0  0
 30 34  1  0  0  0  0
 30 33  1  0  0  0  0
 32 31  1  0  0  0  0
 33 31  1  0  0  0  0
 34 32  1  0  0  0  0
M  END
>  <MODEL>
2

>  <REMARK>
 VINA RESULT:      -8.6      2.322      8.993
  Name = 
  3 active torsions:
  status: ('A' for Active; 'I' for Inactive)
    1  A    between atoms: C_17  and  O_28
    2  A    between atoms: O_28  and  C_29
    3  A    between atoms: C_29  and  C_32
                            x       y       z     vdW  Elec       q    Type
                         _______ _______ _______ _____ _____    ______ ____

>  <TORSDO>
F 3

$$$$
=
 OpenBabel11122414333D

 34 42  0  0  1  0  0  0  0  0999 V2000
  161.7410  209.4010  151.1380 C   0  0  1  0  0  3  0  0  0  0  0  0
  161.4150  211.0750  152.8620 C   0  0  0  0  0  2  0  0  0  0  0  0
  160.9010  203.1870  148.5720 C   0  0  2  0  0  0  0  0  0  0  0  0
  161.9710  207.5600  149.4200 C   0  0  2  0  0  3  0  0  0  0  0  0
  161.2670  205.1960  150.1230 C   0  0  2  0  0  3  0  0  0  0  0  0
  160.2740  202.8120  150.3870 C   0  0  2  0  0  3  0  0  0  0  0  0
  160.1500  202.1320  149.1760 O   0  0  0  0  0  0  0  0  0  0  0  0
  162.2990  204.5170  147.1430 C   0  0  0  0  0  3  0  0  0  0  0  0
  161.4700  208.8790  153.4040 C   0  0  2  0  0  3  0  0  0  0  0  0
  159.7980  207.7650  155.9190 C   0  0  0  0  0  3  0  0  0  0  0  0
  161.1010  205.6730  151.4610 N   0  0  0  0  0  2  0  0  0  0  0  0
  162.3750  205.6680  147.8380 C   0  0  0  0  0  3  0  0  0  0  0  0
  160.9560  207.4570  153.1600 C   0  0  1  0  0  3  0  0  0  0  0  0
  161.1950  211.0250  154.3700 C   0  0  0  0  0  2  0  0  0  0  0  0
  161.5030  206.1630  148.9750 C   0  0  2  0  0  3  0  0  0  0  0  0
  161.4450  203.3920  147.4190 N   0  0  0  0  0  2  0  0  0  0  0  0
  159.7730  209.1170  155.2460 C   0  0  2  0  0  3  0  0  0  0  0  0
  161.2870  207.9900  150.7230 C   0  0  1  0  0  3  0  0  0  0  0  0
  160.8860  203.9690  149.8220 C   0  0  1  0  0  3  0  0  0  0  0  0
  161.5880  206.9880  151.8430 C   0  0  2  0  0  3  0  0  0  0  0  0
  162.1820  209.8480  148.7380 C   0  0  0  0  0  2  0  0  0  0  0  0
  160.4530  206.6670  155.4980 C   0  0  0  0  0  3  0  0  0  0  0  0
  161.6630  208.5310  148.3650 N   0  0  0  0  0  2  0  0  0  0  0  0
  161.3830  206.5690  154.3170 C   0  0  0  0  0  2  0  0  0  0  0  0
  161.1570  209.5440  154.7350 C   0  0  1  0  0  3  0  0  0  0  0  0
  161.4650  210.3630  149.9850 C   0  0  0  0  0  2  0  0  0  0  0  0
  161.0130  209.7740  152.3530 N   0  0  2  0  0  0  0  0  0  0  0  0
  159.2610  210.0570  156.1440 O   0  0  0  0  0  0  0  0  0  0  0  0
  158.1450  210.5980  155.5000 C   0  0  0  0  0  2  0  0  0  0  0  0
  159.7340  213.2710  156.4340 O   0  0  0  0  0  0  0  0  0  0  0  0
  157.8390  213.0090  155.0510 C   0  0  0  0  0  2  0  0  0  0  0  0
  157.7980  211.9450  156.1100 C   0  0  2  0  0  3  0  0  0  0  0  0
  158.9150  213.9550  155.5260 C   0  0  0  0  0  2  0  0  0  0  0  0
  158.8870  212.3540  157.0740 C   0  0  0  0  0  2  0  0  0  0  0  0
  1 26  1  6  0  0  0
  1 27  1  0  0  0  0
  2 14  1  0  0  0  0
  3 16  1  1  0  0  0
  3  7  1  0  0  0  0
  3 19  1  0  0  0  0
  3  6  1  0  0  0  0
  4 23  1  6  0  0  0
  4 18  1  0  0  0  0
  5 11  1  1  0  0  0
  6  7  1  6  0  0  0
  8 16  1  0  0  0  0
  8 12  2  0  0  0  0
  9 25  1  0  0  0  0
 11 20  1  0  0  0  0
 12 15  1  0  0  0  0
 13  9  1  0  0  0  0
 13 24  1  0  0  0  0
 14 25  1  0  0  0  0
 15  4  1  0  0  0  0
 15  5  1  0  0  0  0
 17 10  1  0  0  0  0
 17 28  1  0  0  0  0
 18  1  1  0  0  0  0
 18 20  1  0  0  0  0
 19  5  1  0  0  0  0
 19  6  1  0  0  0  0
 20 13  1  0  0  0  0
 21 26  1  0  0  0  0
 22 10  2  0  0  0  0
 23 21  1  0  0  0  0
 24 22  1  0  0  0  0
 25 17  1  0  0  0  0
 27  2  1  0  0  0  0
 27  9  1  0  0  0  0
 29 32  1  0  0  0  0
 29 28  1  0  0  0  0
 30 34  1  0  0  0  0
 31 33  1  0  0  0  0
 31 32  1  0  0  0  0
 32 34  1  0  0  0  0
 33 30  1  0  0  0  0
M  END
>  <MODEL>
3

>  <REMARK>
 VINA RESULT:      -8.5      2.256      9.091
  Name = 
  3 active torsions:
  status: ('A' for Active; 'I' for Inactive)
    1  A    between atoms: C_17  and  O_28
    2  A    between atoms: O_28  and  C_29
    3  A    between atoms: C_29  and  C_32
                            x       y       z     vdW  Elec       q    Type
                         _______ _______ _______ _____ _____    ______ ____

>  <TORSDO>
F 3

$$$$
=
 OpenBabel11122414333D

 34 42  0  0  1  0  0  0  0  0999 V2000
  161.8720  208.2120  150.0370 C   0  0  1  0  0  3  0  0  0  0  0  0
  161.8130  210.1600  151.4810 C   0  0  0  0  0  2  0  0  0  0  0  0
  160.3720  201.7640  148.5970 C   0  0  2  0  0  0  0  0  0  0  0  0
  161.8240  206.1090  148.6340 C   0  0  2  0  0  3  0  0  0  0  0  0
  161.0110  203.9550  149.7650 C   0  0  2  0  0  3  0  0  0  0  0  0
  159.8750  201.7360  150.4890 C   0  0  2  0  0  3  0  0  0  0  0  0
  159.6010  200.8860  149.4180 O   0  0  0  0  0  0  0  0  0  0  0  0
  161.7390  202.7270  146.8720 C   0  0  0  0  0  3  0  0  0  0  0  0
  161.7550  208.0820  152.3720 C   0  0  2  0  0  3  0  0  0  0  0  0
  160.2240  207.5270  155.1480 C   0  0  0  0  0  3  0  0  0  0  0  0
  160.9940  204.6510  151.0150 N   0  0  0  0  0  2  0  0  0  0  0  0
  161.9550  203.9620  147.3610 C   0  0  0  0  0  3  0  0  0  0  0  0
  161.1210  206.6880  152.4030 C   0  0  1  0  0  3  0  0  0  0  0  0
  161.7180  210.3690  152.9880 C   0  0  0  0  0  2  0  0  0  0  0  0
  161.2200  204.7040  148.4600 C   0  0  2  0  0  3  0  0  0  0  0  0
  160.8310  201.7360  147.3900 N   0  0  0  0  0  2  0  0  0  0  0  0
  160.2400  208.7520  154.2650 C   0  0  2  0  0  3  0  0  0  0  0  0
  161.2840  206.7970  149.8940 C   0  0  1  0  0  3  0  0  0  0  0  0
  160.5190  202.7330  149.6990 C   0  0  1  0  0  3  0  0  0  0  0  0
  161.6050  205.9640  151.1390 C   0  0  2  0  0  3  0  0  0  0  0  0
  162.1410  208.2340  147.5720 C   0  0  0  0  0  2  0  0  0  0  0  0
  160.7600  206.3240  154.8690 C   0  0  0  0  0  3  0  0  0  0  0  0
  161.4990  206.9230  147.4580 N   0  0  0  0  0  2  0  0  0  0  0  0
  161.5780  205.9620  153.6570 C   0  0  0  0  0  2  0  0  0  0  0  0
  161.6030  208.9730  153.5940 C   0  0  1  0  0  3  0  0  0  0  0  0
  161.5700  208.9990  148.7640 C   0  0  0  0  0  2  0  0  0  0  0  0
  161.2770  208.8340  151.2230 N   0  0  2  0  0  0  0  0  0  0  0  0
  159.8750  209.8630  155.0300 O   0  0  0  0  0  0  0  0  0  0  0  0
  160.2170  209.5220  156.3410 C   0  0  0  0  0  2  0  0  0  0  0  0
  160.4010  212.7570  156.1430 O   0  0  0  0  0  0  0  0  0  0  0  0
  158.6750  211.3580  156.9410 C   0  0  0  0  0  2  0  0  0  0  0  0
  159.9910  210.7100  157.2610 C   0  0  2  0  0  3  0  0  0  0  0  0
  159.0510  212.7580  156.5200 C   0  0  0  0  0  2  0  0  0  0  0  0
  161.0070  211.7840  156.9510 C   0  0  0  0  0  2  0  0  0  0  0  0
  1 26  1  6  0  0  0
  1 27  1  0  0  0  0
  2 14  1  0  0  0  0
  3 16  1  1  0  0  0
  3  7  1  0  0  0  0
  3 19  1  0  0  0  0
  3  6  1  0  0  0  0
  4 23  1  6  0  0  0
  4 18  1  0  0  0  0
  5 11  1  1  0  0  0
  6  7  1  6  0  0  0
  8 12  2  0  0  0  0
  8 16  1  0  0  0  0
  9 13  1  0  0  0  0
  9 25  1  0  0  0  0
 11 20  1  0  0  0  0
 12 15  1  0  0  0  0
 13 24  1  0  0  0  0
 14 25  1  0  0  0  0
 15  4  1  0  0  0  0
 15  5  1  0  0  0  0
 17 28  1  0  0  0  0
 17 10  1  0  0  0  0
 18  1  1  0  0  0  0
 18 20  1  0  0  0  0
 19  5  1  0  0  0  0
 19  6  1  0  0  0  0
 20 13  1  0  0  0  0
 21 26  1  0  0  0  0
 22 10  2  0  0  0  0
 23 21  1  0  0  0  0
 24 22  1  0  0  0  0
 25 17  1  0  0  0  0
 27  2  1  0  0  0  0
 27  9  1  0  0  0  0
 28 29  1  0  0  0  0
 29 32  1  0  0  0  0
 30 33  1  0  0  0  0
 30 34  1  0  0  0  0
 31 32  1  0  0  0  0
 33 31  1  0  0  0  0
 34 32  1  0  0  0  0
M  END
>  <MODEL>
4

>  <REMARK>
 VINA RESULT:      -8.2      2.433      9.399
  Name = 
  3 active torsions:
  status: ('A' for Active; 'I' for Inactive)
    1  A    between atoms: C_17  and  O_28
    2  A    between atoms: O_28  and  C_29
    3  A    between atoms: C_29  and  C_32
                            x       y       z     vdW  Elec       q    Type
                         _______ _______ _______ _____ _____    ______ ____

>  <TORSDO>
F 3

$$$$
=
 OpenBabel11122414333D

 34 42  0  0  1  0  0  0  0  0999 V2000
  161.4540  208.5590  149.3450 C   0  0  1  0  0  3  0  0  0  0  0  0
  161.6370  207.3280  147.2630 C   0  0  0  0  0  2  0  0  0  0  0  0
  161.3900  208.9290  156.1090 C   0  0  2  0  0  0  0  0  0  0  0  0
  161.3130  209.7030  151.5950 C   0  0  2  0  0  3  0  0  0  0  0  0
  161.0910  208.2090  153.6670 C   0  0  2  0  0  3  0  0  0  0  0  0
  161.2670  206.9830  155.9490 C   0  0  2  0  0  3  0  0  0  0  0  0
  161.5920  207.8340  157.0050 O   0  0  0  0  0  0  0  0  0  0  0  0
  160.9430  211.0780  155.1340 C   0  0  0  0  0  3  0  0  0  0  0  0
  160.8230  206.3160  149.1150 C   0  0  2  0  0  3  0  0  0  0  0  0
  161.2220  203.1550  149.5690 C   0  0  0  0  0  3  0  0  0  0  0  0
  160.9320  207.0800  152.8020 N   0  0  0  0  0  2  0  0  0  0  0  0
  160.9560  210.7830  153.8200 C   0  0  0  0  0  3  0  0  0  0  0  0
  160.9880  205.9710  150.5980 C   0  0  1  0  0  3  0  0  0  0  0  0
  161.3310  205.8960  146.8390 C   0  0  0  0  0  2  0  0  0  0  0  0
  161.5090  209.5610  153.1150 C   0  0  2  0  0  3  0  0  0  0  0  0
  161.3270  210.2140  156.2200 N   0  0  0  0  0  2  0  0  0  0  0  0
  161.8260  204.0820  148.5410 C   0  0  2  0  0  3  0  0  0  0  0  0
  161.6240  208.3910  150.8650 C   0  0  1  0  0  3  0  0  0  0  0  0
  161.2060  208.0150  154.9670 C   0  0  1  0  0  3  0  0  0  0  0  0
  160.7180  207.2660  151.3760 C   0  0  2  0  0  3  0  0  0  0  0  0
  161.9560  210.9670  149.6630 C   0  0  0  0  0  2  0  0  0  0  0  0
  160.4720  203.5060  150.6300 C   0  0  0  0  0  3  0  0  0  0  0  0
  162.1950  210.7620  151.0920 N   0  0  0  0  0  2  0  0  0  0  0  0
  159.9870  204.8910  150.9710 C   0  0  0  0  0  2  0  0  0  0  0  0
  160.8510  205.1840  148.1010 C   0  0  1  0  0  3  0  0  0  0  0  0
  162.3380  209.7130  148.8780 C   0  0  0  0  0  2  0  0  0  0  0  0
  161.8190  207.2920  148.7050 N   0  0  2  0  0  0  0  0  0  0  0  0
  162.2490  203.3240  147.4450 O   0  0  0  0  0  0  0  0  0  0  0  0
  161.1560  202.5130  147.1280 C   0  0  0  0  0  2  0  0  0  0  0  0
  158.9560  201.6990  144.8840 O   0  0  0  0  0  0  0  0  0  0  0  0
  160.5810  203.4110  144.8990 C   0  0  0  0  0  2  0  0  0  0  0  0
  161.1380  202.2290  145.6360 C   0  0  2  0  0  3  0  0  0  0  0  0
  159.3470  202.8690  144.2190 C   0  0  0  0  0  2  0  0  0  0  0  0
  160.1480  201.1240  145.3480 C   0  0  0  0  0  2  0  0  0  0  0  0
  1 26  1  6  0  0  0
  1 18  1  0  0  0  0
  2 27  1  0  0  0  0
  3 16  1  1  0  0  0
  3  7  1  0  0  0  0
  4 23  1  6  0  0  0
  4 15  1  0  0  0  0
  5 11  1  6  0  0  0
  5 19  1  0  0  0  0
  6  3  1  0  0  0  0
  6  7  1  6  0  0  0
  8 16  1  0  0  0  0
  9 13  1  0  0  0  0
 10 22  2  0  0  0  0
 12  8  2  0  0  0  0
 13 24  1  0  0  0  0
 13 20  1  0  0  0  0
 14  2  1  0  0  0  0
 14 25  1  0  0  0  0
 15  5  1  0  0  0  0
 15 12  1  0  0  0  0
 17 10  1  0  0  0  0
 18 20  1  0  0  0  0
 18  4  1  0  0  0  0
 19  6  1  0  0  0  0
 19  3  1  0  0  0  0
 20 11  1  0  0  0  0
 21 23  1  0  0  0  0
 22 24  1  0  0  0  0
 25 17  1  0  0  0  0
 25  9  1  0  0  0  0
 26 21  1  0  0  0  0
 27  9  1  0  0  0  0
 27  1  1  0  0  0  0
 28 17  1  0  0  0  0
 29 28  1  0  0  0  0
 30 34  1  0  0  0  0
 31 32  1  0  0  0  0
 32 29  1  0  0  0  0
 33 30  1  0  0  0  0
 33 31  1  0  0  0  0
 34 32  1  0  0  0  0
M  END
>  <MODEL>
5

>  <REMARK>
 VINA RESULT:      -7.3      2.368      4.491
  Name = 
  3 active torsions:
  status: ('A' for Active; 'I' for Inactive)
    1  A    between atoms: C_17  and  O_28
    2  A    between atoms: O_28  and  C_29
    3  A    between atoms: C_29  and  C_32
                            x       y       z     vdW  Elec       q    Type
                         _______ _______ _______ _____ _____    ______ ____

>  <TORSDO>
F 3

$$$$
