=
 OpenBabel11122414243D

 34 41  0  0  1  0  0  0  0  0999 V2000
  160.9470  207.9320  154.2030 C   0  0  0  0  0  0  0  0  0  0  0  0
  162.1010  206.1820  152.8320 C   0  0  0  0  0  2  0  0  0  0  0  0
  157.8330  213.8770  154.4160 C   0  0  2  0  0  3  0  0  0  0  0  0
  159.2890  209.4510  155.0640 C   0  0  0  0  0  0  0  0  0  0  0  0
  158.5160  211.4780  153.6940 C   0  0  1  0  0  3  0  0  0  0  0  0
  159.8650  213.3080  154.5920 O   0  0  0  0  0  0  0  0  0  0  0  0
  159.0140  214.1740  155.3070 C   0  0  0  0  0  2  0  0  0  0  0  0
  157.0330  212.2660  156.3050 C   0  0  0  0  0  2  0  0  0  0  0  0
  162.3110  208.5040  152.1300 N   0  0  2  0  0  0  0  0  0  0  0  0
  161.6900  208.7560  148.9350 C   0  0  0  0  0  2  0  0  0  0  0  0
  159.2590  210.7750  152.5530 C   0  0  0  0  0  2  0  0  0  0  0  0
  157.3340  210.8590  155.8150 C   0  0  0  0  0  2  0  0  0  0  0  0
  161.1860  209.4080  151.7840 C   0  0  1  0  0  3  0  0  0  0  0  0
  162.9470  206.2140  151.5930 C   0  0  0  0  0  2  0  0  0  0  0  0
  158.6670  210.8260  155.0840 C   0  0  1  0  0  3  0  0  0  0  0  0
  156.6560  213.1960  155.1500 C   0  0  0  0  0  2  0  0  0  0  0  0
  161.7260  207.5000  149.8210 C   0  0  1  0  0  3  0  0  0  0  0  0
  160.2490  209.1350  154.0900 C   0  0  0  0  0  0  0  0  0  0  0  0
  158.8270  212.9820  153.7000 C   0  0  2  0  0  3  0  0  0  0  0  0
  160.5640  210.1090  152.9980 C   0  0  2  0  0  3  0  0  0  0  0  0
  159.7080  207.3910  156.1490 C   0  0  0  0  0  3  0  0  0  0  0  0
  162.3740  209.9700  149.5590 C   0  0  0  0  0  2  0  0  0  0  0  0
  159.0440  208.5720  156.0730 N   0  0  0  0  0  0  0  0  0  0  0  0
  161.6320  210.4940  150.7870 C   0  0  0  0  0  2  0  0  0  0  0  0
  162.7080  207.5950  151.0190 C   0  0  1  0  0  3  0  0  0  0  0  0
  160.6580  207.0870  155.2290 N   0  0  0  0  0  0  0  0  0  0  0  0
  162.1040  207.6190  153.2980 C   0  0  1  0  0  3  0  0  0  0  0  0
  160.4330  207.1610  150.2360 O   0  0  0  0  0  0  0  0  0  0  0  0
  159.9910  206.2070  149.3160 C   0  0  0  0  0  2  0  0  0  0  0  0
  160.8420  202.6460  149.1840 C   0  0  0  0  0  2  0  0  0  0  0  0
  161.1160  204.6010  147.7950 C   0  0  0  0  0  2  0  0  0  0  0  0
  160.9980  205.0760  149.2230 C   0  0  0  0  0  3  0  0  0  0  0  0
  161.4800  203.1390  147.9000 C   0  0  0  0  0  2  0  0  0  0  0  0
  160.5380  203.8730  150.0250 C   0  0  0  0  0  2  0  0  0  0  0  0
  1 26  1  0  0  0  0
  2 27  1  0  0  0  0
  3 16  1  1  0  0  0
  3  7  1  0  0  0  0
  4 15  1  0  0  0  0
  4 23  2  0  0  0  0
  5 11  1  6  0  0  0
  5 19  1  0  0  0  0
  5 15  1  0  0  0  0
  6  7  1  0  0  0  0
  9 27  1  0  0  0  0
 10 22  1  0  0  0  0
 10 17  1  0  0  0  0
 11 20  1  0  0  0  0
 12  8  1  0  0  0  0
 13  9  1  0  0  0  0
 13 20  1  0  0  0  0
 14  2  1  0  0  0  0
 15 12  1  0  0  0  0
 16  8  1  0  0  0  0
 17 28  1  0  0  0  0
 17 25  1  0  0  0  0
 18  1  2  0  0  0  0
 18  4  1  0  0  0  0
 19  3  1  0  0  0  0
 19  6  1  0  0  0  0
 20 18  1  0  0  0  0
 22 24  1  0  0  0  0
 23 21  1  0  0  0  0
 24 13  1  0  0  0  0
 25 14  1  0  0  0  0
 25  9  1  0  0  0  0
 26 21  2  0  0  0  0
 27  1  1  0  0  0  0
 29 28  1  0  0  0  0
 30 34  1  0  0  0  0
 31 33  1  0  0  0  0
 31 32  1  0  0  0  0
 32 29  1  0  0  0  0
 32 34  1  0  0  0  0
 33 30  1  0  0  0  0
M  END
>  <MODEL>
1

>  <REMARK>
 VINA RESULT:      -6.7      0.000      0.000
  Name = 
  3 active torsions:
  status: ('A' for Active; 'I' for Inactive)
    1  A    between atoms: C_17  and  O_28
    2  A    between atoms: O_28  and  C_29
    3  A    between atoms: C_29  and  C_32
                            x       y       z     vdW  Elec       q    Type
                         _______ _______ _______ _____ _____    ______ ____

>  <TORSDO>
F 3

$$$$
=
 OpenBabel11122414243D

 34 41  0  0  1  0  0  0  0  0999 V2000
  161.9540  209.1800  152.2730 C   0  0  0  0  0  0  0  0  0  0  0  0
  161.6850  211.1470  153.8020 C   0  0  0  0  0  2  0  0  0  0  0  0
  160.8340  202.6630  151.1130 C   0  0  2  0  0  3  0  0  0  0  0  0
  161.4800  207.3140  150.8290 C   0  0  0  0  0  0  0  0  0  0  0  0
  160.4590  205.1510  151.7560 C   0  0  1  0  0  3  0  0  0  0  0  0
  162.4050  203.7050  152.0760 O   0  0  0  0  0  0  0  0  0  0  0  0
  162.3420  202.6650  151.1280 C   0  0  0  0  0  2  0  0  0  0  0  0
  161.0250  204.0470  148.9110 C   0  0  0  0  0  2  0  0  0  0  0  0
  161.8860  208.9390  154.8080 N   0  0  2  0  0  0  0  0  0  0  0  0
  159.5410  208.5230  157.0420 C   0  0  0  0  0  2  0  0  0  0  0  0
  160.2150  206.0030  153.0060 C   0  0  0  0  0  2  0  0  0  0  0  0
  160.6880  205.4820  149.2830 C   0  0  0  0  0  2  0  0  0  0  0  0
  160.9830  207.7890  154.5550 C   0  0  1  0  0  3  0  0  0  0  0  0
  161.6070  211.3100  155.2910 C   0  0  0  0  0  2  0  0  0  0  0  0
  161.2800  205.8300  150.6410 C   0  0  1  0  0  3  0  0  0  0  0  0
  160.2230  203.0460  149.7450 C   0  0  0  0  0  2  0  0  0  0  0  0
  159.8520  209.7560  156.1790 C   0  0  1  0  0  3  0  0  0  0  0  0
  161.5810  207.8440  152.1250 C   0  0  0  0  0  0  0  0  0  0  0  0
  161.0010  203.7660  152.1410 C   0  0  2  0  0  3  0  0  0  0  0  0
  161.3640  206.9670  153.3170 C   0  0  2  0  0  3  0  0  0  0  0  0
  162.0490  209.4210  149.9180 C   0  0  0  0  0  3  0  0  0  0  0  0
  160.6850  207.5130  157.1070 C   0  0  0  0  0  2  0  0  0  0  0  0
  161.7200  208.1150  149.7550 N   0  0  0  0  0  0  0  0  0  0  0  0
  160.9470  206.8350  155.7640 C   0  0  0  0  0  2  0  0  0  0  0  0
  161.3510  209.9090  155.8030 C   0  0  1  0  0  3  0  0  0  0  0  0
  162.1770  209.9390  151.1660 N   0  0  0  0  0  0  0  0  0  0  0  0
  162.2490  209.7570  153.6290 C   0  0  1  0  0  3  0  0  0  0  0  0
  159.0300  209.7770  155.0470 O   0  0  0  0  0  0  0  0  0  0  0  0
  157.9900  210.6560  155.3640 C   0  0  0  0  0  2  0  0  0  0  0  0
  158.7850  213.5420  153.2520 C   0  0  0  0  0  2  0  0  0  0  0  0
  158.5470  211.1530  152.9980 C   0  0  0  0  0  2  0  0  0  0  0  0
  157.7080  211.5660  154.1830 C   0  0  0  0  0  3  0  0  0  0  0  0
  158.7790  212.4280  152.2220 C   0  0  0  0  0  2  0  0  0  0  0  0
  158.1040  212.9970  154.4940 C   0  0  0  0  0  2  0  0  0  0  0  0
  1 27  1  0  0  0  0
  2 14  1  0  0  0  0
  3 16  1  6  0  0  0
  3  7  1  0  0  0  0
  3 19  1  0  0  0  0
  4 18  2  0  0  0  0
  5 19  1  0  0  0  0
  5 11  1  1  0  0  0
  6 19  1  0  0  0  0
  7  6  1  0  0  0  0
  8 12  1  0  0  0  0
  8 16  1  0  0  0  0
  9 25  1  0  0  0  0
 10 22  1  0  0  0  0
 11 20  1  0  0  0  0
 12 15  1  0  0  0  0
 13  9  1  0  0  0  0
 13 24  1  0  0  0  0
 14 25  1  0  0  0  0
 15  4  1  0  0  0  0
 15  5  1  0  0  0  0
 17 10  1  0  0  0  0
 18  1  1  0  0  0  0
 18 20  1  0  0  0  0
 20 13  1  0  0  0  0
 21 26  1  0  0  0  0
 23 21  2  0  0  0  0
 23  4  1  0  0  0  0
 24 22  1  0  0  0  0
 25 17  1  0  0  0  0
 26  1  2  0  0  0  0
 27  2  1  0  0  0  0
 27  9  1  0  0  0  0
 28 29  1  0  0  0  0
 28 17  1  0  0  0  0
 30 34  1  0  0  0  0
 31 32  1  0  0  0  0
 32 34  1  0  0  0  0
 32 29  1  0  0  0  0
 33 31  1  0  0  0  0
 33 30  1  0  0  0  0
M  END
>  <MODEL>
2

>  <REMARK>
 VINA RESULT:      -5.8      1.809      7.893
  Name = 
  3 active torsions:
  status: ('A' for Active; 'I' for Inactive)
    1  A    between atoms: C_17  and  O_28
    2  A    between atoms: O_28  and  C_29
    3  A    between atoms: C_29  and  C_32
                            x       y       z     vdW  Elec       q    Type
                         _______ _______ _______ _____ _____    ______ ____

>  <TORSDO>
F 3

$$$$
=
 OpenBabel11122414243D

 34 41  0  0  1  0  0  0  0  0999 V2000
  161.9220  208.6770  151.0320 C   0  0  0  0  0  0  0  0  0  0  0  0
  161.6300  210.8770  152.1950 C   0  0  0  0  0  2  0  0  0  0  0  0
  160.8640  202.0470  151.0200 C   0  0  2  0  0  3  0  0  0  0  0  0
  161.4700  206.5830  149.9340 C   0  0  0  0  0  0  0  0  0  0  0  0
  160.4650  204.6050  151.2210 C   0  0  1  0  0  3  0  0  0  0  0  0
  162.4220  203.2550  151.7910 O   0  0  0  0  0  0  0  0  0  0  0  0
  162.3720  202.0650  151.0380 C   0  0  0  0  0  2  0  0  0  0  0  0
  161.0510  203.0290  148.6120 C   0  0  0  0  0  2  0  0  0  0  0  0
  161.8470  208.8790  153.5700 N   0  0  2  0  0  0  0  0  0  0  0  0
  159.4980  208.8350  155.8370 C   0  0  0  0  0  2  0  0  0  0  0  0
  160.2090  205.6590  152.3030 C   0  0  0  0  0  2  0  0  0  0  0  0
  160.7000  204.5040  148.7290 C   0  0  0  0  0  2  0  0  0  0  0  0
  160.9550  207.6940  153.5190 C   0  0  1  0  0  3  0  0  0  0  0  0
  161.5450  211.2960  153.6330 C   0  0  0  0  0  2  0  0  0  0  0  0
  161.2840  205.0880  150.0060 C   0  0  1  0  0  3  0  0  0  0  0  0
  160.2560  202.1800  149.6060 C   0  0  0  0  0  2  0  0  0  0  0  0
  159.8010  209.9030  154.7740 C   0  0  1  0  0  3  0  0  0  0  0  0
  161.5610  207.3320  151.1180 C   0  0  0  0  0  0  0  0  0  0  0  0
  161.0170  203.3130  151.8420 C   0  0  2  0  0  3  0  0  0  0  0  0
  161.3480  206.6730  152.4440 C   0  0  2  0  0  3  0  0  0  0  0  0
  162.0230  208.5050  148.6710 C   0  0  0  0  0  3  0  0  0  0  0  0
  160.6510  207.8630  156.0800 C   0  0  0  0  0  2  0  0  0  0  0  0
  161.7070  207.1880  148.7380 N   0  0  0  0  0  0  0  0  0  0  0  0
  160.9230  206.9640  154.8750 C   0  0  0  0  0  2  0  0  0  0  0  0
  161.2990  210.0020  154.3800 C   0  0  1  0  0  3  0  0  0  0  0  0
  162.1420  209.2340  149.8100 N   0  0  0  0  0  0  0  0  0  0  0  0
  162.2070  209.4830  152.2680 C   0  0  1  0  0  3  0  0  0  0  0  0
  158.9820  209.7190  153.6540 O   0  0  0  0  0  0  0  0  0  0  0  0
  158.4080  210.9690  153.4100 C   0  0  0  0  0  2  0  0  0  0  0  0
  156.7420  213.6210  155.3130 C   0  0  0  0  0  2  0  0  0  0  0  0
  156.4150  211.2730  154.8570 C   0  0  0  0  0  2  0  0  0  0  0  0
  157.8900  211.5590  154.7080 C   0  0  0  0  0  3  0  0  0  0  0  0
  155.8740  212.4280  155.6650 C   0  0  0  0  0  2  0  0  0  0  0  0
  158.0220  213.0710  154.7090 C   0  0  0  0  0  2  0  0  0  0  0  0
  1 18  1  0  0  0  0
  1 27  1  0  0  0  0
  2 27  1  0  0  0  0
  2 14  1  0  0  0  0
  3 16  1  6  0  0  0
  3  7  1  0  0  0  0
  3 19  1  0  0  0  0
  4 15  1  0  0  0  0
  4 18  2  0  0  0  0
  5 19  1  0  0  0  0
  5 11  1  1  0  0  0
  6 19  1  0  0  0  0
  7  6  1  0  0  0  0
  8 12  1  0  0  0  0
  8 16  1  0  0  0  0
  9 25  1  0  0  0  0
 10 22  1  0  0  0  0
 11 20  1  0  0  0  0
 12 15  1  0  0  0  0
 13  9  1  0  0  0  0
 13 24  1  0  0  0  0
 14 25  1  0  0  0  0
 15  5  1  0  0  0  0
 17 10  1  0  0  0  0
 18 20  1  0  0  0  0
 20 13  1  0  0  0  0
 21 23  2  0  0  0  0
 21 26  1  0  0  0  0
 23  4  1  0  0  0  0
 24 22  1  0  0  0  0
 25 17  1  0  0  0  0
 26  1  2  0  0  0  0
 27  9  1  0  0  0  0
 28 17  1  0  0  0  0
 29 28  1  0  0  0  0
 29 32  1  0  0  0  0
 30 33  1  0  0  0  0
 31 33  1  0  0  0  0
 32 34  1  0  0  0  0
 32 31  1  0  0  0  0
 34 30  1  0  0  0  0
M  END
>  <MODEL>
3

>  <REMARK>
 VINA RESULT:      -5.6      1.753      8.313
  Name = 
  3 active torsions:
  status: ('A' for Active; 'I' for Inactive)
    1  A    between atoms: C_17  and  O_28
    2  A    between atoms: O_28  and  C_29
    3  A    between atoms: C_29  and  C_32
                            x       y       z     vdW  Elec       q    Type
                         _______ _______ _______ _____ _____    ______ ____

>  <TORSDO>
F 3

$$$$
