=
 OpenBabel11122414183D

 34 41  0  0  1  0  0  0  0  0999 V2000
  159.0770  210.8170  152.9460 C   0  0  0  0  0  0  0  0  0  0  0  0
  158.5760  209.6220  155.0690 C   0  0  0  0  0  3  0  0  0  0  0  0
  157.8170  214.0750  148.1620 C   0  0  2  0  0  3  0  0  0  0  0  0
  159.9860  212.3400  151.2860 C   0  0  0  0  0  0  0  0  0  0  0  0
  158.6820  214.4530  150.6490 C   0  0  1  0  0  3  0  0  0  0  0  0
  157.3570  212.4870  149.5470 C   0  0  0  0  0  2  0  0  0  0  0  0
  157.5290  212.5850  148.0400 C   0  0  0  0  0  2  0  0  0  0  0  0
  160.3050  213.4420  148.1440 C   0  0  0  0  0  2  0  0  0  0  0  0
  157.3130  211.6180  154.6490 C   0  0  2  0  0  3  0  0  0  0  0  0
  157.5020  213.8760  157.0030 C   0  0  0  0  0  2  0  0  0  0  0  0
  158.1630  214.4530  152.0850 C   0  0  0  0  0  2  0  0  0  0  0  0
  160.9310  213.9120  149.4380 C   0  0  0  0  0  2  0  0  0  0  0  0
  157.6660  213.0250  154.1180 C   0  0  1  0  0  3  0  0  0  0  0  0
  158.3400  210.1590  156.2560 C   0  0  0  0  0  3  0  0  0  0  0  0
  160.0200  213.7040  150.6460 C   0  0  2  0  0  3  0  0  0  0  0  0
  159.2360  214.4310  147.6960 C   0  0  0  0  0  2  0  0  0  0  0  0
  158.3450  212.5950  156.8490 C   0  0  1  0  0  3  0  0  0  0  0  0
  159.0290  212.0610  152.2870 C   0  0  0  0  0  0  0  0  0  0  0  0
  157.5750  213.9870  149.6690 C   0  0  2  0  0  3  0  0  0  0  0  0
  157.9020  213.0270  152.6080 C   0  0  2  0  0  3  0  0  0  0  0  0
  160.9760  210.1720  151.6620 C   0  0  0  0  0  3  0  0  0  0  0  0
  156.2890  213.9780  156.0660 C   0  0  0  0  0  2  0  0  0  0  0  0
  160.9750  211.3950  150.9970 C   0  0  0  0  0  3  0  0  0  0  0  0
  156.6550  214.0830  154.5810 C   0  0  0  0  0  2  0  0  0  0  0  0
  157.5820  211.4360  156.1590 C   0  0  1  0  0  3  0  0  0  0  0  0
  160.0320  209.9080  152.6040 N   0  0  0  0  0  0  0  0  0  0  0  0
  158.0140  210.4350  153.9490 C   0  0  1  0  0  3  0  0  0  0  0  0
  159.5380  212.9000  156.1780 O   0  0  0  0  0  0  0  0  0  0  0  0
  160.5660  212.6850  157.1000 C   0  0  0  0  0  2  0  0  0  0  0  0
  163.0970  210.2110  156.3480 N   0  0  0  0  0  0  0  0  0  0  0  0
  161.6210  211.3710  155.2460 N   0  0  0  0  0  0  0  0  0  0  0  0
  161.5140  211.6780  156.5480 C   0  0  0  0  0  0  0  0  0  0  0  0
  162.5770  210.4910  155.1880 O   0  0  0  0  0  0  0  0  0  0  0  0
  162.4440  210.9560  157.2610 C   0  0  0  0  0  3  0  0  0  0  0  0
  1 27  1  0  0  0  0
  2 14  2  0  0  0  0
  3 16  1  1  0  0  0
  3 19  1  0  0  0  0
  4 18  1  0  0  0  0
  5 11  1  1  0  0  0
  6 19  1  0  0  0  0
  7  3  1  0  0  0  0
  7  6  1  0  0  0  0
  8 12  1  0  0  0  0
  9 25  1  0  0  0  0
 11 20  1  0  0  0  0
 12 15  1  0  0  0  0
 13 24  1  0  0  0  0
 13  9  1  0  0  0  0
 15  5  1  0  0  0  0
 15  4  1  0  0  0  0
 16  8  1  0  0  0  0
 17 10  1  0  0  0  0
 18 20  1  0  0  0  0
 18  1  2  0  0  0  0
 19  5  1  0  0  0  0
 20 13  1  0  0  0  0
 21 26  2  0  0  0  0
 22 10  1  0  0  0  0
 23  4  2  0  0  0  0
 23 21  1  0  0  0  0
 24 22  1  0  0  0  0
 25 14  1  0  0  0  0
 25 17  1  0  0  0  0
 26  1  1  0  0  0  0
 27  9  1  0  0  0  0
 27  2  1  0  0  0  0
 28 17  1  0  0  0  0
 28 29  1  0  0  0  0
 30 34  2  0  0  0  0
 31 32  2  0  0  0  0
 32 29  1  0  0  0  0
 32 34  1  0  0  0  0
 33 31  1  0  0  0  0
 33 30  1  0  0  0  0
M  END
>  <MODEL>
1

>  <REMARK>
 VINA RESULT:      -1.9      0.000      0.000
  Name = 
  3 active torsions:
  status: ('A' for Active; 'I' for Inactive)
    1  A    between atoms: C_17  and  O_28
    2  A    between atoms: O_28  and  C_29
    3  A    between atoms: C_29  and  C_32
                            x       y       z     vdW  Elec       q    Type
                         _______ _______ _______ _____ _____    ______ ____

>  <TORSDO>
F 3

$$$$
=
 OpenBabel11122414183D

 34 41  0  0  1  0  0  0  0  0999 V2000
  161.0510  208.0160  154.0850 C   0  0  0  0  0  0  0  0  0  0  0  0
  162.5970  206.3640  153.0540 C   0  0  0  0  0  3  0  0  0  0  0  0
  159.2040  213.4140  155.6770 C   0  0  2  0  0  3  0  0  0  0  0  0
  159.1070  209.3690  154.6240 C   0  0  0  0  0  0  0  0  0  0  0  0
  158.8880  211.7280  153.6440 C   0  0  1  0  0  3  0  0  0  0  0  0
  160.7520  211.9270  155.4660 C   0  0  0  0  0  2  0  0  0  0  0  0
  160.2030  212.7550  156.6180 C   0  0  0  0  0  2  0  0  0  0  0  0
  157.5170  211.6540  156.4800 C   0  0  0  0  0  2  0  0  0  0  0  0
  162.4590  208.5050  151.9800 C   0  0  2  0  0  3  0  0  0  0  0  0
  161.6590  208.3960  148.8140 C   0  0  0  0  0  2  0  0  0  0  0  0
  159.6500  211.1950  152.4330 C   0  0  0  0  0  2  0  0  0  0  0  0
  157.0640  210.8410  155.2870 C   0  0  0  0  0  2  0  0  0  0  0  0
  161.2960  209.4530  151.6120 C   0  0  1  0  0  3  0  0  0  0  0  0
  162.7840  206.1350  151.7630 C   0  0  0  0  0  3  0  0  0  0  0  0
  158.2010  210.5330  154.3150 C   0  0  2  0  0  3  0  0  0  0  0  0
  157.7510  213.1000  156.0630 C   0  0  0  0  0  2  0  0  0  0  0  0
  161.6200  207.2480  149.8410 C   0  0  1  0  0  3  0  0  0  0  0  0
  160.2700  209.1640  153.8490 C   0  0  0  0  0  0  0  0  0  0  0  0
  159.8040  212.6320  154.5090 C   0  0  2  0  0  3  0  0  0  0  0  0
  160.7460  210.1880  152.8330 C   0  0  2  0  0  3  0  0  0  0  0  0
  159.5490  207.3040  155.7900 C   0  0  0  0  0  3  0  0  0  0  0  0
  162.3670  209.6750  149.2880 C   0  0  0  0  0  2  0  0  0  0  0  0
  158.7390  208.4170  155.5790 C   0  0  0  0  0  3  0  0  0  0  0  0
  161.6630  210.3850  150.4490 C   0  0  0  0  0  2  0  0  0  0  0  0
  162.6950  207.3780  150.9500 C   0  0  1  0  0  3  0  0  0  0  0  0
  160.6780  207.1340  155.0550 N   0  0  0  0  0  0  0  0  0  0  0  0
  162.3550  207.8070  153.3520 C   0  0  1  0  0  3  0  0  0  0  0  0
  160.3310  207.1470  150.3810 O   0  0  0  0  0  0  0  0  0  0  0  0
  159.6700  206.1760  149.6250 C   0  0  0  0  0  2  0  0  0  0  0  0
  161.2820  202.9360  149.6560 N   0  0  0  0  0  0  0  0  0  0  0  0
  160.2430  204.2160  151.0780 N   0  0  0  0  0  0  0  0  0  0  0  0
  160.2850  204.8460  149.8940 C   0  0  0  0  0  0  0  0  0  0  0  0
  160.8540  203.0860  150.8770 O   0  0  0  0  0  0  0  0  0  0  0  0
  160.9350  204.0490  148.9800 C   0  0  0  0  0  3  0  0  0  0  0  0
  1 26  1  0  0  0  0
  2 27  1  0  0  0  0
  3 16  1  1  0  0  0
  3  7  1  0  0  0  0
  4 23  2  0  0  0  0
  5 11  1  6  0  0  0
  5 15  1  0  0  0  0
  5 19  1  0  0  0  0
  6  7  1  0  0  0  0
  9 27  1  0  0  0  0
 10 22  1  0  0  0  0
 10 17  1  0  0  0  0
 11 20  1  0  0  0  0
 12  8  1  0  0  0  0
 13  9  1  0  0  0  0
 13 20  1  0  0  0  0
 14  2  2  0  0  0  0
 15  4  1  0  0  0  0
 15 12  1  0  0  0  0
 16  8  1  0  0  0  0
 17 28  1  0  0  0  0
 17 25  1  0  0  0  0
 18  1  2  0  0  0  0
 18  4  1  0  0  0  0
 19  6  1  0  0  0  0
 19  3  1  0  0  0  0
 20 18  1  0  0  0  0
 22 24  1  0  0  0  0
 23 21  1  0  0  0  0
 24 13  1  0  0  0  0
 25 14  1  0  0  0  0
 25  9  1  0  0  0  0
 26 21  2  0  0  0  0
 27  1  1  0  0  0  0
 29 32  1  0  0  0  0
 29 28  1  0  0  0  0
 30 33  1  0  0  0  0
 32 31  2  0  0  0  0
 33 31  1  0  0  0  0
 34 30  2  0  0  0  0
 34 32  1  0  0  0  0
M  END
>  <MODEL>
2

>  <REMARK>
 VINA RESULT:      -1.6      3.682      7.413
  Name = 
  3 active torsions:
  status: ('A' for Active; 'I' for Inactive)
    1  A    between atoms: C_17  and  O_28
    2  A    between atoms: O_28  and  C_29
    3  A    between atoms: C_29  and  C_32
                            x       y       z     vdW  Elec       q    Type
                         _______ _______ _______ _____ _____    ______ ____

>  <TORSDO>
F 3

$$$$
=
 OpenBabel11122414183D

 34 41  0  0  1  0  0  0  0  0999 V2000
  160.2600  210.0460  152.4140 C   0  0  0  0  0  0  0  0  0  0  0  0
  160.2020  208.5840  154.4250 C   0  0  0  0  0  3  0  0  0  0  0  0
  158.2470  214.2070  148.7100 C   0  0  2  0  0  3  0  0  0  0  0  0
  160.8960  211.6960  150.7490 C   0  0  0  0  0  0  0  0  0  0  0  0
  159.8590  214.0400  150.8200 C   0  0  1  0  0  3  0  0  0  0  0  0
  157.9410  212.4810  149.9670 C   0  0  0  0  0  2  0  0  0  0  0  0
  157.6760  212.8110  148.5060 C   0  0  0  0  0  2  0  0  0  0  0  0
  160.4650  213.2660  147.8260 C   0  0  0  0  0  2  0  0  0  0  0  0
  159.2470  210.7700  154.6730 C   0  0  2  0  0  3  0  0  0  0  0  0
  160.5190  212.5500  157.1010 C   0  0  0  0  0  2  0  0  0  0  0  0
  159.7940  213.8640  152.3350 C   0  0  0  0  0  2  0  0  0  0  0  0
  161.5180  213.4220  148.9010 C   0  0  0  0  0  2  0  0  0  0  0  0
  159.6720  212.1880  154.2320 C   0  0  1  0  0  3  0  0  0  0  0  0
  160.4250  208.9370  155.6820 C   0  0  0  0  0  3  0  0  0  0  0  0
  160.9810  213.1330  150.3010 C   0  0  2  0  0  3  0  0  0  0  0  0
  159.5060  214.4480  147.8640 C   0  0  0  0  0  2  0  0  0  0  0  0
  161.0380  211.2150  156.5320 C   0  0  1  0  0  3  0  0  0  0  0  0
  160.2420  211.3790  151.9600 C   0  0  0  0  0  0  0  0  0  0  0  0
  158.4480  213.8970  150.1930 C   0  0  2  0  0  3  0  0  0  0  0  0
  159.4500  212.4170  152.7370 C   0  0  2  0  0  3  0  0  0  0  0  0
  161.5500  209.3850  150.5260 C   0  0  0  0  0  3  0  0  0  0  0  0
  159.1220  212.9680  156.6160 C   0  0  0  0  0  2  0  0  0  0  0  0
  161.5720  210.6930  150.0480 C   0  0  0  0  0  3  0  0  0  0  0  0
  159.0470  213.2760  155.1170 C   0  0  0  0  0  2  0  0  0  0  0  0
  159.9120  210.3000  155.9860 C   0  0  1  0  0  3  0  0  0  0  0  0
  160.8950  209.0910  151.6790 N   0  0  0  0  0  0  0  0  0  0  0  0
  159.4890  209.6420  153.6490 C   0  0  1  0  0  3  0  0  0  0  0  0
  162.0140  211.4690  155.5590 O   0  0  0  0  0  0  0  0  0  0  0  0
  163.0440  210.5550  155.7960 C   0  0  0  0  0  2  0  0  0  0  0  0
  165.9930  212.4250  156.7470 N   0  0  0  0  0  0  0  0  0  0  0  0
  165.1440  211.6010  154.9180 N   0  0  0  0  0  0  0  0  0  0  0  0
  164.3290  211.2940  155.9390 C   0  0  0  0  0  0  0  0  0  0  0  0
  166.1190  212.2720  155.4590 O   0  0  0  0  0  0  0  0  0  0  0  0
  164.8480  211.8110  157.1040 C   0  0  0  0  0  3  0  0  0  0  0  0
  1 27  1  0  0  0  0
  2 14  2  0  0  0  0
  3 16  1  6  0  0  0
  3 19  1  0  0  0  0
  4 18  2  0  0  0  0
  5 11  1  1  0  0  0
  6 19  1  0  0  0  0
  7  3  1  0  0  0  0
  7  6  1  0  0  0  0
  8 16  1  0  0  0  0
  8 12  1  0  0  0  0
  9 25  1  0  0  0  0
 11 20  1  0  0  0  0
 12 15  1  0  0  0  0
 13  9  1  0  0  0  0
 13 24  1  0  0  0  0
 14 25  1  0  0  0  0
 15  4  1  0  0  0  0
 15  5  1  0  0  0  0
 17 10  1  0  0  0  0
 18  1  1  0  0  0  0
 18 20  1  0  0  0  0
 19  5  1  0  0  0  0
 20 13  1  0  0  0  0
 21 26  1  0  0  0  0
 22 10  1  0  0  0  0
 23 21  2  0  0  0  0
 23  4  1  0  0  0  0
 24 22  1  0  0  0  0
 25 17  1  0  0  0  0
 26  1  2  0  0  0  0
 27  2  1  0  0  0  0
 27  9  1  0  0  0  0
 28 29  1  0  0  0  0
 28 17  1  0  0  0  0
 29 32  1  0  0  0  0
 30 34  2  0  0  0  0
 31 33  1  0  0  0  0
 31 32  2  0  0  0  0
 32 34  1  0  0  0  0
 33 30  1  0  0  0  0
M  END
>  <MODEL>
3

>  <REMARK>
 VINA RESULT:      -0.4      1.658      2.219
  Name = 
  3 active torsions:
  status: ('A' for Active; 'I' for Inactive)
    1  A    between atoms: C_17  and  O_28
    2  A    between atoms: O_28  and  C_29
    3  A    between atoms: C_29  and  C_32
                            x       y       z     vdW  Elec       q    Type
                         _______ _______ _______ _____ _____    ______ ____

>  <TORSDO>
F 3

$$$$
=
 OpenBabel11122414183D

 34 41  0  0  1  0  0  0  0  0999 V2000
  162.2870  208.9350  150.0750 C   0  0  0  0  0  0  0  0  0  0  0  0
  162.8900  210.3340  152.0400 C   0  0  0  0  0  3  0  0  0  0  0  0
  162.0220  203.9580  146.8730 C   0  0  2  0  0  3  0  0  0  0  0  0
  161.0620  207.7530  148.3420 C   0  0  0  0  0  0  0  0  0  0  0  0
  160.5210  205.2640  148.6390 C   0  0  1  0  0  3  0  0  0  0  0  0
  163.0870  205.3400  148.1420 C   0  0  0  0  0  2  0  0  0  0  0  0
  163.3200  204.7460  146.7610 C   0  0  0  0  0  2  0  0  0  0  0  0
  160.9210  205.8790  145.5740 C   0  0  0  0  0  2  0  0  0  0  0  0
  162.3490  208.0410  152.4930 C   0  0  2  0  0  3  0  0  0  0  0  0
  159.9430  207.6080  154.6620 C   0  0  0  0  0  2  0  0  0  0  0  0
  160.4550  205.5530  150.1370 C   0  0  0  0  0  2  0  0  0  0  0  0
  159.8300  206.4790  146.4340 C   0  0  0  0  0  2  0  0  0  0  0  0
  161.2490  207.0760  151.9990 C   0  0  1  0  0  3  0  0  0  0  0  0
  162.3230  210.3250  153.2370 C   0  0  0  0  0  3  0  0  0  0  0  0
  160.2250  206.5780  147.9060 C   0  0  2  0  0  3  0  0  0  0  0  0
  160.9970  204.3750  145.8080 C   0  0  0  0  0  2  0  0  0  0  0  0
  160.3860  208.9210  153.9880 C   0  0  1  0  0  3  0  0  0  0  0  0
  161.5940  207.7850  149.6500 C   0  0  0  0  0  0  0  0  0  0  0  0
  161.8260  204.5030  148.2880 C   0  0  2  0  0  3  0  0  0  0  0  0
  161.5120  206.5840  150.5770 C   0  0  2  0  0  3  0  0  0  0  0  0
  161.9130  209.9790  147.9680 C   0  0  0  0  0  3  0  0  0  0  0  0
  160.8890  206.4150  154.4550 C   0  0  0  0  0  2  0  0  0  0  0  0
  161.2060  208.8690  147.5130 C   0  0  0  0  0  3  0  0  0  0  0  0
  160.9900  205.9420  153.0010 C   0  0  0  0  0  2  0  0  0  0  0  0
  161.8980  208.9600  153.6510 C   0  0  1  0  0  3  0  0  0  0  0  0
  162.4410  209.9840  149.2200 N   0  0  0  0  0  0  0  0  0  0  0  0
  162.9590  208.9740  151.4270 C   0  0  1  0  0  3  0  0  0  0  0  0
  159.5980  209.1520  152.8520 O   0  0  0  0  0  0  0  0  0  0  0  0
  159.4810  210.5390  152.7370 C   0  0  0  0  0  2  0  0  0  0  0  0
  157.3590  211.7000  155.4290 N   0  0  0  0  0  0  0  0  0  0  0  0
  159.4860  211.6910  154.9620 N   0  0  0  0  0  0  0  0  0  0  0  0
  158.8310  211.0780  153.9640 C   0  0  0  0  0  0  0  0  0  0  0  0
  158.5590  212.0370  155.8070 O   0  0  0  0  0  0  0  0  0  0  0  0
  157.4830  211.0790  154.2400 C   0  0  0  0  0  3  0  0  0  0  0  0
  1 27  1  0  0  0  0
  2 14  2  0  0  0  0
  3 16  1  6  0  0  0
  3 19  1  0  0  0  0
  4 18  2  0  0  0  0
  5 11  1  1  0  0  0
  6 19  1  0  0  0  0
  7  3  1  0  0  0  0
  7  6  1  0  0  0  0
  8 16  1  0  0  0  0
  8 12  1  0  0  0  0
  9 25  1  0  0  0  0
 11 20  1  0  0  0  0
 12 15  1  0  0  0  0
 13  9  1  0  0  0  0
 13 24  1  0  0  0  0
 14 25  1  0  0  0  0
 15  4  1  0  0  0  0
 15  5  1  0  0  0  0
 17 10  1  0  0  0  0
 18  1  1  0  0  0  0
 18 20  1  0  0  0  0
 19  5  1  0  0  0  0
 20 13  1  0  0  0  0
 21 26  1  0  0  0  0
 22 10  1  0  0  0  0
 23 21  2  0  0  0  0
 23  4  1  0  0  0  0
 24 22  1  0  0  0  0
 25 17  1  0  0  0  0
 26  1  2  0  0  0  0
 27  2  1  0  0  0  0
 27  9  1  0  0  0  0
 28 17  1  0  0  0  0
 29 28  1  0  0  0  0
 29 32  1  0  0  0  0
 30 33  1  0  0  0  0
 31 33  1  0  0  0  0
 32 34  1  0  0  0  0
 32 31  2  0  0  0  0
 34 30  2  0  0  0  0
M  END
>  <MODEL>
4

>  <REMARK>
 VINA RESULT:       0.5      4.465      7.070
  Name = 
  3 active torsions:
  status: ('A' for Active; 'I' for Inactive)
    1  A    between atoms: C_17  and  O_28
    2  A    between atoms: O_28  and  C_29
    3  A    between atoms: C_29  and  C_32
                            x       y       z     vdW  Elec       q    Type
                         _______ _______ _______ _____ _____    ______ ____

>  <TORSDO>
F 3

$$$$
