=
 OpenBabel11122414043D

 28 32  0  0  1  0  0  0  0  0999 V2000
  158.6350  212.5780  145.2380 C   0  0  0  0  0  0  0  0  0  0  0  0
  156.8570  213.0500  140.8800 O   0  0  0  0  0  0  0  0  0  0  0  0
  164.0830  214.1360  142.9650 O   0  0  0  0  0  0  0  0  0  0  0  0
  156.5500  214.3550  144.6390 C   0  0  0  0  0  3  0  0  0  0  0  0
  162.8870  212.3100  142.0240 C   0  0  1  0  0  3  0  0  0  0  0  0
  159.7560  211.6870  145.6770 C   0  0  0  0  0  2  0  0  0  0  0  0
  158.7850  214.4520  140.2230 O   0  0  0  0  0  0  0  0  0  0  0  0
  158.3160  213.0560  140.5190 S   0  0  0  0  0  0  0  0  0  0  0  0
  159.5910  210.9650  139.2180 C   0  0  0  0  0  0  0  0  0  0  0  0
  159.2770  212.3140  141.8070 C   0  0  1  0  0  3  0  0  0  0  0  0
  161.6490  214.4520  147.2400 C   0  0  0  0  0  1  0  0  0  0  0  0
  160.9780  212.5690  143.3990 N   0  0  1  0  0  0  0  0  0  0  0  0
  160.5070  210.9130  140.2000 C   0  0  0  0  0  2  0  0  0  0  0  0
  158.6030  212.0150  139.1560 N   0  0  0  0  0  0  0  0  0  0  0  0
  161.1560  213.6840  146.1120 N   0  0  0  0  0  0  0  0  0  0  0  0
  158.6590  213.3070  144.0170 C   0  0  0  0  0  0  0  0  0  0  0  0
  163.0810  213.4400  142.9320 C   0  0  0  0  0  0  0  0  0  0  0  0
  159.5760  209.8940  138.1890 C   0  0  0  0  0  1  0  0  0  0  0  0
  162.3020  213.4330  145.2500 C   0  0  0  0  0  2  0  0  0  0  0  0
  157.6080  214.1930  143.7450 C   0  0  0  0  0  3  0  0  0  0  0  0
  157.5670  212.7520  146.1290 C   0  0  0  0  0  3  0  0  0  0  0  0
  156.5270  213.6310  145.8300 C   0  0  0  0  0  3  0  0  0  0  0  0
  160.6950  212.4070  146.6500 C   0  0  0  0  0  2  0  0  0  0  0  0
  161.5200  211.8170  142.3050 N   0  0  1  0  0  0  0  0  0  0  0  0
  161.9100  213.6270  143.7890 C   0  0  2  0  0  3  0  0  0  0  0  0
  160.5960  212.0310  141.1930 C   0  0  2  0  0  3  0  0  0  0  0  0
  163.0620  212.7230  140.6950 O   0  0  0  0  0  1  0  0  0  0  0  0
  159.7230  213.1840  142.9410 C   0  0  2  0  0  3  0  0  0  0  0  0
  1  6  1  0  0  0  0
  1 21  1  0  0  0  0
  4 22  1  0  0  0  0
  5 27  1  6  0  0  0
  5 24  1  0  0  0  0
  5 17  1  0  0  0  0
  6 23  1  0  0  0  0
  7  8  2  0  0  0  0
  8  2  2  0  0  0  0
  9 13  1  0  0  0  0
 10  8  1  6  0  0  0
 10 28  1  0  0  0  0
 12 25  1  0  0  0  0
 13 26  1  0  0  0  0
 14  9  2  0  0  0  0
 14  8  1  0  0  0  0
 15 23  1  0  0  0  0
 15 11  1  0  0  0  0
 16  1  2  0  0  0  0
 17  3  2  0  0  0  0
 17 25  1  0  0  0  0
 18  9  1  0  0  0  0
 19 15  1  0  0  0  0
 20 16  1  0  0  0  0
 20  4  2  0  0  0  0
 22 21  2  0  0  0  0
 24 12  1  0  0  0  0
 25 19  1  0  0  0  0
 26 10  1  0  0  0  0
 26 24  1  0  0  0  0
 28 12  1  0  0  0  0
 28 16  1  0  0  0  0
M  END
>  <MODEL>
1

>  <REMARK>
 VINA RESULT:      -3.4      0.000      0.000
  Name = 
  0 active torsions:
  status: ('A' for Active; 'I' for Inactive)
                            x       y       z     vdW  Elec       q    Type
                         _______ _______ _______ _____ _____    ______ ____

>  <TORSDO>
F 0

$$$$
=
 OpenBabel11122414043D

 28 32  0  0  1  0  0  0  0  0999 V2000
  161.2770  210.4640  155.7160 C   0  0  0  0  0  0  0  0  0  0  0  0
  162.3860  207.9960  151.8360 O   0  0  0  0  0  0  0  0  0  0  0  0
  156.6400  212.9110  152.5880 O   0  0  0  0  0  0  0  0  0  0  0  0
  161.3790  207.6620  155.6840 C   0  0  0  0  0  3  0  0  0  0  0  0
  158.8540  213.0690  151.7380 C   0  0  1  0  0  3  0  0  0  0  0  0
  161.1670  211.9520  155.8540 C   0  0  0  0  0  2  0  0  0  0  0  0
  160.1030  208.3280  150.9480 O   0  0  0  0  0  0  0  0  0  0  0  0
  161.4350  208.9730  151.2050 S   0  0  0  0  0  0  0  0  0  0  0  0
  162.2250  211.0180  149.5070 C   0  0  0  0  0  0  0  0  0  0  0  0
  161.2650  210.4170  152.2160 C   0  0  1  0  0  3  0  0  0  0  0  0
  157.7520  211.8000  157.2610 C   0  0  0  0  0  1  0  0  0  0  0  0
  159.8430  211.7940  153.4690 N   0  0  1  0  0  0  0  0  0  0  0  0
  161.5930  211.9110  150.2880 C   0  0  0  0  0  2  0  0  0  0  0  0
  162.1050  209.5970  149.7270 N   0  0  0  0  0  0  0  0  0  0  0  0
  158.7220  211.7270  156.1860 N   0  0  0  0  0  0  0  0  0  0  0  0
  160.7970  209.7550  154.5810 C   0  0  0  0  0  0  0  0  0  0  0  0
  157.8260  212.6420  152.6870 C   0  0  0  0  0  0  0  0  0  0  0  0
  163.0980  211.5110  148.4110 C   0  0  0  0  0  1  0  0  0  0  0  0
  158.2020  212.5480  155.1010 C   0  0  0  0  0  2  0  0  0  0  0  0
  160.8540  208.3540  154.5930 C   0  0  0  0  0  3  0  0  0  0  0  0
  161.8020  209.7570  156.8060 C   0  0  0  0  0  3  0  0  0  0  0  0
  161.8580  208.3640  156.7890 C   0  0  0  0  0  3  0  0  0  0  0  0
  159.9450  212.3480  156.6880 C   0  0  0  0  0  2  0  0  0  0  0  0
  160.1120  212.4640  152.2310 N   0  0  1  0  0  0  0  0  0  0  0  0
  158.4110  211.8440  153.7650 C   0  0  2  0  0  3  0  0  0  0  0  0
  160.6380  211.4340  151.3390 C   0  0  2  0  0  3  0  0  0  0  0  0
  158.5150  212.6560  150.4410 O   0  0  0  0  0  1  0  0  0  0  0  0
  160.2490  210.3890  153.3150 C   0  0  2  0  0  3  0  0  0  0  0  0
  1  6  1  0  0  0  0
  1 21  1  0  0  0  0
  3 17  2  0  0  0  0
  4 22  1  0  0  0  0
  5 27  1  6  0  0  0
  5 24  1  0  0  0  0
  5 17  1  0  0  0  0
  6 23  1  0  0  0  0
  7  8  2  0  0  0  0
  8  2  2  0  0  0  0
  9 14  2  0  0  0  0
  9 13  1  0  0  0  0
 10  8  1  6  0  0  0
 10 28  1  0  0  0  0
 12 25  1  0  0  0  0
 13 26  1  0  0  0  0
 14  8  1  0  0  0  0
 15 23  1  0  0  0  0
 15 11  1  0  0  0  0
 16 20  1  0  0  0  0
 16  1  2  0  0  0  0
 17 25  1  0  0  0  0
 18  9  1  0  0  0  0
 19 15  1  0  0  0  0
 20  4  2  0  0  0  0
 22 21  2  0  0  0  0
 24 12  1  0  0  0  0
 25 19  1  0  0  0  0
 26 10  1  0  0  0  0
 26 24  1  0  0  0  0
 28 12  1  0  0  0  0
 28 16  1  0  0  0  0
M  END
>  <MODEL>
2

>  <REMARK>
 VINA RESULT:      -1.9      8.581     11.285
  Name = 
  0 active torsions:
  status: ('A' for Active; 'I' for Inactive)
                            x       y       z     vdW  Elec       q    Type
                         _______ _______ _______ _____ _____    ______ ____

>  <TORSDO>
F 0

$$$$
=
 OpenBabel11122414043D

 28 32  0  0  1  0  0  0  0  0999 V2000
  161.0520  207.2650  149.7430 C   0  0  0  0  0  0  0  0  0  0  0  0
  162.4370  205.7020  145.4990 O   0  0  0  0  0  0  0  0  0  0  0  0
  162.5070  201.7860  152.0110 O   0  0  0  0  0  0  0  0  0  0  0  0
  163.0810  208.5100  148.2610 C   0  0  0  0  0  3  0  0  0  0  0  0
  160.9860  201.9470  150.1910 C   0  0  1  0  0  3  0  0  0  0  0  0
  160.0030  206.6780  150.6370 C   0  0  0  0  0  2  0  0  0  0  0  0
  163.7590  203.9080  146.5680 O   0  0  0  0  0  0  0  0  0  0  0  0
  162.3790  204.3780  146.2070 S   0  0  0  0  0  0  0  0  0  0  0  0
  160.4470  202.4490  145.7180 C   0  0  0  0  0  0  0  0  0  0  0  0
  161.3410  204.4830  147.6380 C   0  0  1  0  0  3  0  0  0  0  0  0
  162.2750  206.4650  153.5460 C   0  0  0  0  0  1  0  0  0  0  0  0
  161.1630  204.2970  149.9670 N   0  0  1  0  0  0  0  0  0  0  0  0
  160.1430  202.4220  147.0270 C   0  0  0  0  0  2  0  0  0  0  0  0
  161.5730  203.1990  145.2150 N   0  0  0  0  0  0  0  0  0  0  0  0
  161.7630  206.0370  152.2590 N   0  0  0  0  0  0  0  0  0  0  0  0
  161.9790  206.4720  149.0130 C   0  0  0  0  0  0  0  0  0  0  0  0
  161.9170  202.4700  151.1900 C   0  0  0  0  0  0  0  0  0  0  0  0
  159.5790  201.7160  144.7610 C   0  0  0  0  0  1  0  0  0  0  0  0
  161.5690  204.5960  152.3480 C   0  0  0  0  0  2  0  0  0  0  0  0
  162.9870  207.1190  148.2850 C   0  0  0  0  0  3  0  0  0  0  0  0
  161.1580  208.6620  149.7110 C   0  0  0  0  0  3  0  0  0  0  0  0
  162.1630  209.2830  148.9700 C   0  0  0  0  0  3  0  0  0  0  0  0
  160.4560  206.6680  152.1000 C   0  0  0  0  0  2  0  0  0  0  0  0
  160.5720  203.1240  149.3930 N   0  0  1  0  0  0  0  0  0  0  0  0
  162.0510  203.9220  151.0680 C   0  0  2  0  0  3  0  0  0  0  0  0
  161.0570  203.0790  148.0160 C   0  0  2  0  0  3  0  0  0  0  0  0
  161.6090  200.9530  149.4240 O   0  0  0  0  0  1  0  0  0  0  0  0
  161.9560  204.9570  148.9180 C   0  0  2  0  0  3  0  0  0  0  0  0
  1  6  1  0  0  0  0
  2  8  2  0  0  0  0
  4 20  2  0  0  0  0
  4 22  1  0  0  0  0
  5 27  1  6  0  0  0
  5 17  1  0  0  0  0
  6 23  1  0  0  0  0
  8  7  2  0  0  0  0
  9 13  1  0  0  0  0
 10  8  1  6  0  0  0
 10 26  1  0  0  0  0
 10 28  1  0  0  0  0
 12 25  1  0  0  0  0
 13 26  1  0  0  0  0
 14  9  2  0  0  0  0
 14  8  1  0  0  0  0
 15 19  1  0  0  0  0
 15 11  1  0  0  0  0
 16  1  2  0  0  0  0
 17  3  2  0  0  0  0
 18  9  1  0  0  0  0
 20 16  1  0  0  0  0
 21  1  1  0  0  0  0
 22 21  2  0  0  0  0
 23 15  1  0  0  0  0
 24 12  1  0  0  0  0
 24  5  1  0  0  0  0
 25 17  1  0  0  0  0
 25 19  1  0  0  0  0
 26 24  1  0  0  0  0
 28 16  1  0  0  0  0
 28 12  1  0  0  0  0
M  END
>  <MODEL>
3

>  <REMARK>
 VINA RESULT:      -1.8      9.340     10.836
  Name = 
  0 active torsions:
  status: ('A' for Active; 'I' for Inactive)
                            x       y       z     vdW  Elec       q    Type
                         _______ _______ _______ _____ _____    ______ ____

>  <TORSDO>
F 0

$$$$
=
 OpenBabel11122414043D

 28 32  0  0  1  0  0  0  0  0999 V2000
  160.1940  212.6090  155.9440 C   0  0  0  0  0  0  0  0  0  0  0  0
  162.1050  210.1370  152.3930 O   0  0  0  0  0  0  0  0  0  0  0  0
  155.2290  213.3730  152.4720 O   0  0  0  0  0  0  0  0  0  0  0  0
  161.0380  209.9510  156.2350 C   0  0  0  0  0  3  0  0  0  0  0  0
  157.3610  214.0310  151.6500 C   0  0  1  0  0  3  0  0  0  0  0  0
  159.6850  214.0180  155.9080 C   0  0  0  0  0  2  0  0  0  0  0  0
  159.8610  209.7460  151.4300 O   0  0  0  0  0  0  0  0  0  0  0  0
  160.9600  210.7500  151.6370 S   0  0  0  0  0  0  0  0  0  0  0  0
  161.2600  212.7420  149.7300 C   0  0  0  0  0  0  0  0  0  0  0  0
  160.3640  212.1920  152.4720 C   0  0  1  0  0  3  0  0  0  0  0  0
  156.3690  213.1000  157.2600 C   0  0  0  0  0  1  0  0  0  0  0  0
  158.5680  213.2590  153.5340 N   0  0  1  0  0  0  0  0  0  0  0  0
  160.3750  213.5080  150.3920 C   0  0  0  0  0  2  0  0  0  0  0  0
  161.5110  211.3720  150.1090 N   0  0  0  0  0  0  0  0  0  0  0  0
  157.3750  213.1790  156.2190 N   0  0  0  0  0  0  0  0  0  0  0  0
  159.9740  211.6810  154.8890 C   0  0  0  0  0  0  0  0  0  0  0  0
  156.4390  213.4460  152.6220 C   0  0  0  0  0  0  0  0  0  0  0  0
  162.0220  213.3330  148.6010 C   0  0  0  0  0  1  0  0  0  0  0  0
  156.7080  213.7110  155.0380 C   0  0  0  0  0  2  0  0  0  0  0  0
  160.4010  210.3570  155.0620 C   0  0  0  0  0  3  0  0  0  0  0  0
  160.8330  212.1880  157.1170 C   0  0  0  0  0  3  0  0  0  0  0  0
  161.2590  210.8680  157.2610 C   0  0  0  0  0  3  0  0  0  0  0  0
  158.3630  214.1560  156.6690 C   0  0  0  0  0  2  0  0  0  0  0  0
  158.7090  213.8430  152.2320 N   0  0  1  0  0  0  0  0  0  0  0  0
  157.1620  212.9530  153.7950 C   0  0  2  0  0  3  0  0  0  0  0  0
  159.5320  212.9040  151.4740 C   0  0  2  0  0  3  0  0  0  0  0  0
  157.2070  213.4080  150.4030 O   0  0  0  0  0  1  0  0  0  0  0  0
  159.3400  212.0070  153.5490 C   0  0  2  0  0  3  0  0  0  0  0  0
  1 21  1  0  0  0  0
  3 17  2  0  0  0  0
  4 22  1  0  0  0  0
  5 27  1  6  0  0  0
  5 24  1  0  0  0  0
  5 17  1  0  0  0  0
  6  1  1  0  0  0  0
  6 23  1  0  0  0  0
  7  8  2  0  0  0  0
  8  2  2  0  0  0  0
  9 14  2  0  0  0  0
  9 13  1  0  0  0  0
 10  8  1  6  0  0  0
 10 28  1  0  0  0  0
 12 28  1  0  0  0  0
 12 25  1  0  0  0  0
 13 26  1  0  0  0  0
 14  8  1  0  0  0  0
 15 23  1  0  0  0  0
 15 11  1  0  0  0  0
 16 20  1  0  0  0  0
 16  1  2  0  0  0  0
 17 25  1  0  0  0  0
 18  9  1  0  0  0  0
 19 15  1  0  0  0  0
 20  4  2  0  0  0  0
 21 22  2  0  0  0  0
 24 12  1  0  0  0  0
 25 19  1  0  0  0  0
 26 24  1  0  0  0  0
 26 10  1  0  0  0  0
 28 16  1  0  0  0  0
M  END
>  <MODEL>
4

>  <REMARK>
 VINA RESULT:      -1.7      8.492     11.381
  Name = 
  0 active torsions:
  status: ('A' for Active; 'I' for Inactive)
                            x       y       z     vdW  Elec       q    Type
                         _______ _______ _______ _____ _____    ______ ____

>  <TORSDO>
F 0

$$$$
=
 OpenBabel11122414043D

 28 32  0  0  1  0  0  0  0  0999 V2000
  160.5710  205.8290  150.9210 C   0  0  0  0  0  0  0  0  0  0  0  0
  160.6000  206.9290  155.5220 O   0  0  0  0  0  0  0  0  0  0  0  0
  162.8950  211.3600  149.7910 O   0  0  0  0  0  0  0  0  0  0  0  0
  161.9720  204.3220  152.8280 C   0  0  0  0  0  3  0  0  0  0  0  0
  160.8700  211.1560  151.0190 C   0  0  1  0  0  3  0  0  0  0  0  0
  159.8860  206.5620  149.8090 C   0  0  0  0  0  2  0  0  0  0  0  0
  162.2670  208.7070  155.1070 O   0  0  0  0  0  0  0  0  0  0  0  0
  160.8250  208.3080  154.9690 S   0  0  0  0  0  0  0  0  0  0  0  0
  158.9190  210.3220  155.0250 C   0  0  0  0  0  0  0  0  0  0  0  0
  160.2910  208.3970  153.2830 C   0  0  1  0  0  3  0  0  0  0  0  0
  162.9690  206.8550  147.7920 C   0  0  0  0  0  1  0  0  0  0  0  0
  160.8700  208.7900  151.0470 N   0  0  1  0  0  0  0  0  0  0  0  0
  159.0480  210.4810  153.6960 C   0  0  0  0  0  3  0  0  0  0  0  0
  159.7950  209.4550  155.7750 N   0  0  0  0  0  2  0  0  0  0  0  0
  162.0940  207.2090  148.8920 N   0  0  0  0  0  0  0  0  0  0  0  0
  161.2500  206.4900  151.9810 C   0  0  0  0  0  0  0  0  0  0  0  0
  162.0470  210.6540  150.3130 C   0  0  0  0  0  0  0  0  0  0  0  0
  157.8240  211.0330  155.7320 C   0  0  0  0  0  1  0  0  0  0  0  0
  161.9980  208.6630  148.8940 C   0  0  0  0  0  2  0  0  0  0  0  0
  161.9480  205.7140  152.9170 C   0  0  0  0  0  3  0  0  0  0  0  0
  160.6040  204.4300  150.8420 C   0  0  0  0  0  3  0  0  0  0  0  0
  161.2950  203.6790  151.7930 C   0  0  0  0  0  3  0  0  0  0  0  0
  160.7790  206.6610  148.5700 C   0  0  0  0  0  2  0  0  0  0  0  0
  160.1760  209.9500  151.5230 N   0  0  1  0  0  0  0  0  0  0  0  0
  162.0760  209.1910  150.3220 C   0  0  2  0  0  3  0  0  0  0  0  0
  160.2000  209.8450  152.9800 C   0  0  2  0  0  3  0  0  0  0  0  0
  161.2580  212.0360  152.0390 O   0  0  0  0  0  1  0  0  0  0  0  0
  161.2610  207.9900  152.2170 C   0  0  2  0  0  3  0  0  0  0  0  0
  1 16  1  0  0  0  0
  3 17  2  0  0  0  0
  4 20  1  0  0  0  0
  5 24  1  0  0  0  0
  5 27  1  1  0  0  0
  6  1  1  0  0  0  0
  8  7  2  0  0  0  0
  8  2  2  0  0  0  0
  8 14  1  0  0  0  0
  9 18  1  0  0  0  0
  9 14  1  0  0  0  0
 10  8  1  1  0  0  0
 11 15  1  0  0  0  0
 12 24  1  0  0  0  0
 12 28  1  0  0  0  0
 13  9  2  0  0  0  0
 15 19  1  0  0  0  0
 16 28  1  0  0  0  0
 16 20  2  0  0  0  0
 17 25  1  0  0  0  0
 17  5  1  0  0  0  0
 19 25  1  0  0  0  0
 21  1  2  0  0  0  0
 21 22  1  0  0  0  0
 22  4  2  0  0  0  0
 23 15  1  0  0  0  0
 23  6  1  0  0  0  0
 24 26  1  0  0  0  0
 25 12  1  0  0  0  0
 26 10  1  0  0  0  0
 26 13  1  0  0  0  0
 28 10  1  0  0  0  0
M  END
>  <MODEL>
5

>  <REMARK>
 VINA RESULT:      -1.6      8.723     11.691
  Name = 
  0 active torsions:
  status: ('A' for Active; 'I' for Inactive)
                            x       y       z     vdW  Elec       q    Type
                         _______ _______ _______ _____ _____    ______ ____

>  <TORSDO>
F 0

$$$$
=
 OpenBabel11122414043D

 28 32  0  0  1  0  0  0  0  0999 V2000
  159.9710  212.1900  153.8820 C   0  0  0  0  0  0  0  0  0  0  0  0
  162.7970  210.5070  150.4810 O   0  0  0  0  0  0  0  0  0  0  0  0
  155.9360  213.6320  149.5330 O   0  0  0  0  0  0  0  0  0  0  0  0
  160.8640  209.5310  153.8340 C   0  0  0  0  0  3  0  0  0  0  0  0
  158.1630  214.4530  149.3990 C   0  0  1  0  0  3  0  0  0  0  0  0
  159.4110  213.5730  154.0050 C   0  0  0  0  0  2  0  0  0  0  0  0
  160.8700  210.3150  148.9460 O   0  0  0  0  0  0  0  0  0  0  0  0
  161.8330  211.2590  149.6080 S   0  0  0  0  0  0  0  0  0  0  0  0
  162.4680  213.6010  148.2660 C   0  0  0  0  0  0  0  0  0  0  0  0
  160.9800  212.4960  150.5430 C   0  0  1  0  0  3  0  0  0  0  0  0
  155.9230  212.3850  154.3020 C   0  0  0  0  0  1  0  0  0  0  0  0
  158.9300  213.3150  151.3280 N   0  0  1  0  0  0  0  0  0  0  0  0
  161.4130  214.2120  148.8320 C   0  0  0  0  0  2  0  0  0  0  0  0
  162.6960  212.1840  148.4150 N   0  0  0  0  0  0  0  0  0  0  0  0
  157.1410  212.6800  153.5730 N   0  0  0  0  0  0  0  0  0  0  0  0
  160.0580  211.4980  152.6420 C   0  0  0  0  0  0  0  0  0  0  0  0
  157.0700  213.6770  149.9830 C   0  0  0  0  0  0  0  0  0  0  0  0
  163.4440  214.4150  147.4960 C   0  0  0  0  0  1  0  0  0  0  0  0
  156.7460  213.4410  152.3950 C   0  0  0  0  0  2  0  0  0  0  0  0
  160.5010  210.1680  152.6470 C   0  0  0  0  0  3  0  0  0  0  0  0
  160.3370  211.5380  155.0670 C   0  0  0  0  0  3  0  0  0  0  0  0
  160.7860  210.2190  155.0440 C   0  0  0  0  0  3  0  0  0  0  0  0
  157.9420  213.5470  154.4330 C   0  0  0  0  0  2  0  0  0  0  0  0
  159.3430  214.1550  150.2420 N   0  0  1  0  0  0  0  0  0  0  0  0
  157.5200  212.9560  151.1740 C   0  0  2  0  0  3  0  0  0  0  0  0
  160.3710  213.3950  149.5350 C   0  0  2  0  0  3  0  0  0  0  0  0
  158.3420  214.0990  148.0550 O   0  0  0  0  0  1  0  0  0  0  0  0
  159.7420  212.0900  151.2810 C   0  0  2  0  0  3  0  0  0  0  0  0
  1  6  1  0  0  0  0
  1 21  1  0  0  0  0
  3 17  2  0  0  0  0
  4 22  1  0  0  0  0
  5 27  1  6  0  0  0
  5 17  1  0  0  0  0
  5 24  1  0  0  0  0
  6 23  1  0  0  0  0
  7  8  2  0  0  0  0
  8  2  2  0  0  0  0
  9 14  2  0  0  0  0
  9 13  1  0  0  0  0
 10  8  1  6  0  0  0
 10 28  1  0  0  0  0
 13 26  1  0  0  0  0
 14  8  1  0  0  0  0
 15 11  1  0  0  0  0
 15 23  1  0  0  0  0
 16 20  1  0  0  0  0
 16  1  2  0  0  0  0
 17 25  1  0  0  0  0
 18  9  1  0  0  0  0
 19 15  1  0  0  0  0
 20  4  2  0  0  0  0
 22 21  2  0  0  0  0
 24 12  1  0  0  0  0
 25 12  1  0  0  0  0
 25 19  1  0  0  0  0
 26 24  1  0  0  0  0
 26 10  1  0  0  0  0
 28 12  1  0  0  0  0
 28 16  1  0  0  0  0
M  END
>  <MODEL>
6

>  <REMARK>
 VINA RESULT:      -1.6      6.582      9.456
  Name = 
  0 active torsions:
  status: ('A' for Active; 'I' for Inactive)
                            x       y       z     vdW  Elec       q    Type
                         _______ _______ _______ _____ _____    ______ ____

>  <TORSDO>
F 0

$$$$
=
 OpenBabel11122414043D

 28 32  0  0  1  0  0  0  0  0999 V2000
  160.7790  212.5170  149.8980 C   0  0  0  0  0  0  0  0  0  0  0  0
  157.5800  214.3330  152.8720 O   0  0  0  0  0  0  0  0  0  0  0  0
  160.8280  207.4800  153.3480 O   0  0  0  0  0  0  0  0  0  0  0  0
  158.2370  213.3530  149.0590 C   0  0  0  0  0  3  0  0  0  0  0  0
  161.2710  209.5950  154.3370 C   0  0  1  0  0  3  0  0  0  0  0  0
  162.1520  212.0160  150.2260 C   0  0  0  0  0  2  0  0  0  0  0  0
  157.0140  212.0660  153.6800 O   0  0  0  0  0  0  0  0  0  0  0  0
  158.0270  213.1750  153.7180 S   0  0  0  0  0  0  0  0  0  0  0  0
  159.5590  213.4430  156.0150 C   0  0  0  0  0  0  0  0  0  0  0  0
  159.6220  212.6060  153.2010 C   0  0  1  0  0  3  0  0  0  0  0  0
  161.5820  208.7260  148.6380 C   0  0  0  0  0  1  0  0  0  0  0  0
  160.9110  210.8410  152.3570 N   0  0  1  0  0  0  0  0  0  0  0  0
  160.4590  212.5780  155.5150 C   0  0  0  0  0  2  0  0  0  0  0  0
  158.3010  213.6950  155.3550 N   0  0  0  0  0  0  0  0  0  0  0  0
  161.4240  209.7080  149.6930 N   0  0  0  0  0  0  0  0  0  0  0  0
  159.6480  212.2690  150.7230 C   0  0  0  0  0  0  0  0  0  0  0  0
  160.9190  208.6920  153.2430 C   0  0  0  0  0  0  0  0  0  0  0  0
  159.8850  214.1830  157.2600 C   0  0  0  0  0  1  0  0  0  0  0  0
  161.6960  209.0180  150.9470 C   0  0  0  0  0  2  0  0  0  0  0  0
  158.3880  212.6920  150.2780 C   0  0  0  0  0  3  0  0  0  0  0  0
  160.6140  213.1810  148.6750 C   0  0  0  0  0  3  0  0  0  0  0  0
  159.3510  213.6020  148.2590 C   0  0  0  0  0  3  0  0  0  0  0  0
  162.4640  210.7120  149.4850 C   0  0  0  0  0  2  0  0  0  0  0  0
  161.1990  210.9550  153.7570 N   0  0  1  0  0  0  0  0  0  0  0  0
  160.6830  209.4390  152.0060 C   0  0  2  0  0  3  0  0  0  0  0  0
  160.1110  211.7560  154.3120 C   0  0  2  0  0  3  0  0  0  0  0  0
  160.3960  209.4100  155.4170 O   0  0  0  0  0  1  0  0  0  0  0  0
  159.6840  211.6050  152.0880 C   0  0  2  0  0  3  0  0  0  0  0  0
  1  6  1  0  0  0  0
  1 16  1  0  0  0  0
  2  8  2  0  0  0  0
  4 20  1  0  0  0  0
  5 27  1  1  0  0  0
  7  8  2  0  0  0  0
  8 14  1  0  0  0  0
  9 18  1  0  0  0  0
 10  8  1  1  0  0  0
 10 26  1  0  0  0  0
 11 15  1  0  0  0  0
 12 24  1  0  0  0  0
 13  9  1  0  0  0  0
 14  9  2  0  0  0  0
 15 19  1  0  0  0  0
 16 28  1  0  0  0  0
 17  3  2  0  0  0  0
 17  5  1  0  0  0  0
 19 25  1  0  0  0  0
 20 16  2  0  0  0  0
 21  1  2  0  0  0  0
 22 21  1  0  0  0  0
 22  4  2  0  0  0  0
 23 15  1  0  0  0  0
 23  6  1  0  0  0  0
 24 26  1  0  0  0  0
 24  5  1  0  0  0  0
 25 12  1  0  0  0  0
 25 17  1  0  0  0  0
 26 13  1  0  0  0  0
 28 12  1  0  0  0  0
 28 10  1  0  0  0  0
M  END
>  <MODEL>
7

>  <REMARK>
 VINA RESULT:      -1.6      7.947     11.011
  Name = 
  0 active torsions:
  status: ('A' for Active; 'I' for Inactive)
                            x       y       z     vdW  Elec       q    Type
                         _______ _______ _______ _____ _____    ______ ____

>  <TORSDO>
F 0

$$$$
=
 OpenBabel11122414043D

 28 32  0  0  1  0  0  0  0  0999 V2000
  162.3610  205.7220  150.7200 C   0  0  0  0  0  0  0  0  0  0  0  0
  160.2580  201.4860  150.8210 O   0  0  0  0  0  0  0  0  0  0  0  0
  159.9190  206.5760  145.1890 O   0  0  0  0  0  0  0  0  0  0  0  0
  160.5370  204.9860  152.7190 C   0  0  0  0  0  3  0  0  0  0  0  0
  161.2560  204.6560  145.6080 C   0  0  1  0  0  3  0  0  0  0  0  0
  163.3280  206.2390  149.7000 C   0  0  0  0  0  2  0  0  0  0  0  0
  158.6700  202.2090  149.0700 O   0  0  0  0  0  0  0  0  0  0  0  0
  160.0800  201.7790  149.3580 S   0  0  0  0  0  0  0  0  0  0  0  0
  161.4660  200.4730  147.3420 C   0  0  0  0  0  0  0  0  0  0  0  0
  161.2460  202.9990  148.8230 C   0  0  1  0  0  3  0  0  0  0  0  0
  161.3560  209.2960  149.0410 C   0  0  0  0  0  1  0  0  0  0  0  0
  161.5980  205.1250  147.9030 N   0  0  1  0  0  0  0  0  0  0  0  0
  161.8790  201.6570  146.8590 C   0  0  0  0  0  3  0  0  0  0  0  0
  160.4970  200.3840  148.4090 N   0  0  0  0  0  2  0  0  0  0  0  0
  161.6320  207.8760  148.9390 N   0  0  0  0  0  0  0  0  0  0  0  0
  161.2120  204.9560  150.3780 C   0  0  0  0  0  0  0  0  0  0  0  0
  160.5680  205.8950  145.9670 C   0  0  0  0  0  0  0  0  0  0  0  0
  162.0480  199.2250  146.7860 C   0  0  0  0  0  1  0  0  0  0  0  0
  161.5000  207.5290  147.5300 C   0  0  0  0  0  2  0  0  0  0  0  0
  160.3130  204.6070  151.3950 C   0  0  0  0  0  3  0  0  0  0  0  0
  162.5730  206.0970  152.0530 C   0  0  0  0  0  3  0  0  0  0  0  0
  161.6700  205.7270  153.0490 C   0  0  0  0  0  3  0  0  0  0  0  0
  163.0270  207.6940  149.3290 C   0  0  0  0  0  2  0  0  0  0  0  0
  161.8490  204.1620  146.8710 N   0  0  1  0  0  0  0  0  0  0  0  0
  160.7570  206.2050  147.3850 C   0  0  2  0  0  3  0  0  0  0  0  0
  161.2370  202.9220  147.3430 C   0  0  2  0  0  3  0  0  0  0  0  0
  160.3520  203.7510  145.0330 O   0  0  0  0  0  1  0  0  0  0  0  0
  160.8800  204.4410  148.9890 C   0  0  2  0  0  3  0  0  0  0  0  0
  1 21  1  0  0  0  0
  3 17  2  0  0  0  0
  4 22  1  0  0  0  0
  5 27  1  1  0  0  0
  5 17  1  0  0  0  0
  5 24  1  0  0  0  0
  6  1  1  0  0  0  0
  7  8  2  0  0  0  0
  8  2  2  0  0  0  0
  9 14  1  0  0  0  0
 10 28  1  0  0  0  0
 10  8  1  1  0  0  0
 12 28  1  0  0  0  0
 13  9  2  0  0  0  0
 13 26  1  0  0  0  0
 14  8  1  0  0  0  0
 15 11  1  0  0  0  0
 15 23  1  0  0  0  0
 16  1  2  0  0  0  0
 16 20  1  0  0  0  0
 17 25  1  0  0  0  0
 18  9  1  0  0  0  0
 19 15  1  0  0  0  0
 20  4  2  0  0  0  0
 21 22  2  0  0  0  0
 23  6  1  0  0  0  0
 24 26  1  0  0  0  0
 24 12  1  0  0  0  0
 25 19  1  0  0  0  0
 25 12  1  0  0  0  0
 26 10  1  0  0  0  0
 28 16  1  0  0  0  0
M  END
>  <MODEL>
8

>  <REMARK>
 VINA RESULT:      -1.3      9.495     10.905
  Name = 
  0 active torsions:
  status: ('A' for Active; 'I' for Inactive)
                            x       y       z     vdW  Elec       q    Type
                         _______ _______ _______ _____ _____    ______ ____

>  <TORSDO>
F 0

$$$$
=
 OpenBabel11122414043D

 28 32  0  0  1  0  0  0  0  0999 V2000
  160.4320  204.4370  149.7360 C   0  0  0  0  0  0  0  0  0  0  0  0
  161.1450  205.5170  154.2860 O   0  0  0  0  0  0  0  0  0  0  0  0
  163.6110  209.4370  148.2610 O   0  0  0  0  0  0  0  0  0  0  0  0
  161.7200  202.6980  151.5200 C   0  0  0  0  0  3  0  0  0  0  0  0
  161.7230  209.6160  149.6940 C   0  0  1  0  0  3  0  0  0  0  0  0
  159.7820  205.2850  148.6860 C   0  0  0  0  0  2  0  0  0  0  0  0
  163.0600  206.9530  153.6660 O   0  0  0  0  0  0  0  0  0  0  0  0
  161.5630  206.8290  153.6850 S   0  0  0  0  0  0  0  0  0  0  0  0
  160.0810  209.1640  153.8950 C   0  0  0  0  0  0  0  0  0  0  0  0
  160.8820  207.0150  152.0620 C   0  0  1  0  0  3  0  0  0  0  0  0
  162.6390  204.9940  146.3570 C   0  0  0  0  0  1  0  0  0  0  0  0
  161.2870  207.2900  149.7700 N   0  0  1  0  0  0  0  0  0  0  0  0
  160.0970  209.2940  152.5570 C   0  0  0  0  0  3  0  0  0  0  0  0
  160.8540  208.1490  154.5690 N   0  0  0  0  0  2  0  0  0  0  0  0
  161.9640  205.5070  147.5340 N   0  0  0  0  0  0  0  0  0  0  0  0
  161.3290  204.9610  150.7070 C   0  0  0  0  0  0  0  0  0  0  0  0
  162.7060  208.9010  148.8810 C   0  0  0  0  0  0  0  0  0  0  0  0
  159.2160  210.0670  154.6960 C   0  0  0  0  0  1  0  0  0  0  0  0
  162.1400  206.9530  147.5160 C   0  0  0  0  0  2  0  0  0  0  0  0
  161.9640  204.0700  151.5820 C   0  0  0  0  0  3  0  0  0  0  0  0
  160.1960  203.0570  149.6830 C   0  0  0  0  0  3  0  0  0  0  0  0
  160.8310  202.1910  150.5730 C   0  0  0  0  0  3  0  0  0  0  0  0
  160.5440  205.2140  147.3590 C   0  0  0  0  0  2  0  0  0  0  0  0
  160.8740  208.5600  150.2920 N   0  0  1  0  0  0  0  0  0  0  0  0
  162.4640  207.4580  148.9180 C   0  0  2  0  0  3  0  0  0  0  0  0
  161.0300  208.4540  151.7400 C   0  0  2  0  0  3  0  0  0  0  0  0
  162.3720  210.4080  150.6510 O   0  0  0  0  0  1  0  0  0  0  0  0
  161.6430  206.4330  150.9100 C   0  0  2  0  0  3  0  0  0  0  0  0
  1 16  1  0  0  0  0
  3 17  2  0  0  0  0
  4 20  1  0  0  0  0
  5 24  1  0  0  0  0
  5 27  1  1  0  0  0
  6  1  1  0  0  0  0
  7  8  2  0  0  0  0
  8  2  2  0  0  0  0
  8 14  1  0  0  0  0
  9 14  1  0  0  0  0
  9 18  1  0  0  0  0
 10  8  1  1  0  0  0
 11 15  1  0  0  0  0
 12 24  1  0  0  0  0
 12 28  1  0  0  0  0
 13  9  2  0  0  0  0
 16 28  1  0  0  0  0
 16 20  2  0  0  0  0
 17 25  1  0  0  0  0
 17  5  1  0  0  0  0
 19 15  1  0  0  0  0
 19 25  1  0  0  0  0
 21  1  2  0  0  0  0
 21 22  1  0  0  0  0
 22  4  2  0  0  0  0
 23 15  1  0  0  0  0
 23  6  1  0  0  0  0
 24 26  1  0  0  0  0
 25 12  1  0  0  0  0
 26 10  1  0  0  0  0
 26 13  1  0  0  0  0
 28 10  1  0  0  0  0
M  END
>  <MODEL>
9

>  <REMARK>
 VINA RESULT:      -0.6      8.753     11.490
  Name = 
  0 active torsions:
  status: ('A' for Active; 'I' for Inactive)
                            x       y       z     vdW  Elec       q    Type
                         _______ _______ _______ _____ _____    ______ ____

>  <TORSDO>
F 0

$$$$
