=
 OpenBabel11122414343D

 34 41  0  0  1  0  0  0  0  0999 V2000
  160.8900  204.6810  151.7590 C   0  0  0  0  0  0  0  0  0  0  0  0
  161.0190  206.1770  153.8430 C   0  0  0  0  0  3  0  0  0  0  0  0
  161.0360  203.5870  145.2410 C   0  0  0  0  0  0  0  0  0  0  0  0
  160.9890  203.3990  149.6900 C   0  0  0  0  0  0  0  0  0  0  0  0
  161.4060  204.4600  147.4980 C   0  0  0  0  0  0  0  0  0  0  0  0
  161.5230  205.5400  145.2590 C   0  0  0  0  0  2  0  0  0  0  0  0
  160.7400  204.7260  144.4040 O   0  0  0  0  0  0  0  0  0  0  0  0
  161.1570  201.4930  146.4200 C   0  0  0  0  0  3  0  0  0  0  0  0
  161.3160  207.1280  151.7050 C   0  0  0  0  0  0  0  0  0  0  0  0
  161.9810  210.1060  151.0790 C   0  0  0  0  0  3  0  0  0  0  0  0
  161.1240  205.8190  148.0980 C   0  0  0  0  0  3  0  0  0  0  0  0
  161.4100  201.9370  147.6610 C   0  0  0  0  0  3  0  0  0  0  0  0
  161.3790  207.0930  150.2230 C   0  0  0  0  0  0  0  0  0  0  0  0
  161.3470  207.6620  153.9660 C   0  0  0  0  0  3  0  0  0  0  0  0
  161.2510  203.3170  148.2250 C   0  0  0  0  0  0  0  0  0  0  0  0
  160.6940  202.3150  145.2950 C   0  0  0  0  0  3  0  0  0  0  0  0
  161.8980  209.5390  152.2870 C   0  0  0  0  0  0  0  0  0  0  0  0
  161.0300  204.6360  150.3630 C   0  0  0  0  0  0  0  0  0  0  0  0
  161.9200  204.4280  146.0770 C   0  0  2  0  0  3  0  0  0  0  0  0
  161.2330  205.8920  149.5990 C   0  0  0  0  0  0  0  0  0  0  0  0
  160.5890  202.2830  151.8210 C   0  0  0  0  0  3  0  0  0  0  0  0
  161.7610  209.5490  149.7440 C   0  0  0  0  0  3  0  0  0  0  0  0
  160.7590  202.2290  150.4370 C   0  0  0  0  0  3  0  0  0  0  0  0
  161.5150  208.2970  149.3860 C   0  0  0  0  0  3  0  0  0  0  0  0
  161.5160  208.1370  152.5490 C   0  0  1  0  0  3  0  0  0  0  0  0
  160.6620  203.5070  152.4860 C   0  0  0  0  0  3  0  0  0  0  0  0
  161.0110  205.9430  152.4150 N   0  0  0  0  0  0  0  0  0  0  0  0
  162.1680  210.3240  153.4190 O   0  0  0  0  0  0  0  0  0  0  0  0
  161.1840  211.0790  154.1250 C   0  0  0  0  0  2  0  0  0  0  0  0
  161.0730  209.3860  156.9140 O   0  0  0  0  0  0  0  0  0  0  0  0
  162.8580  210.5080  155.8540 C   0  0  0  0  0  2  0  0  0  0  0  0
  161.5950  211.2700  155.5770 C   0  0  2  0  0  3  0  0  0  0  0  0
  162.4650  209.5460  156.9490 C   0  0  0  0  0  2  0  0  0  0  0  0
  160.5720  210.6230  156.4810 C   0  0  0  0  0  2  0  0  0  0  0  0
  1 27  1  0  0  0  0
  1 26  1  0  0  0  0
  2 14  2  0  0  0  0
  3 16  2  0  0  0  0
  3 19  1  0  0  0  0
  4 18  1  0  0  0  0
  4 23  2  0  0  0  0
  5 11  1  0  0  0  0
  5 15  2  0  0  0  0
  7  3  1  0  0  0  0
  7  6  1  0  0  0  0
  8 12  2  0  0  0  0
  9 27  1  0  0  0  0
  9 25  1  0  0  0  0
 10 17  2  0  0  0  0
 11 20  2  0  0  0  0
 12 15  1  0  0  0  0
 13  9  2  0  0  0  0
 15  4  1  0  0  0  0
 16  8  1  0  0  0  0
 17 25  1  0  0  0  0
 17 28  1  0  0  0  0
 18  1  2  0  0  0  0
 19  6  1  6  0  0  0
 19  5  1  0  0  0  0
 20 13  1  0  0  0  0
 20 18  1  0  0  0  0
 21 26  2  0  0  0  0
 22 10  1  0  0  0  0
 23 21  1  0  0  0  0
 24 22  2  0  0  0  0
 24 13  1  0  0  0  0
 25 14  1  1  0  0  0
 27  2  1  0  0  0  0
 28 29  1  0  0  0  0
 30 33  1  0  0  0  0
 31 33  1  0  0  0  0
 32 29  1  6  0  0  0
 32 31  1  0  0  0  0
 32 34  1  0  0  0  0
 34 30  1  0  0  0  0
M  END
>  <MODEL>
1

>  <REMARK>
 VINA RESULT:     -12.1      0.000      0.000
  Name = 
  3 active torsions:
  status: ('A' for Active; 'I' for Inactive)
    1  A    between atoms: C_17  and  O_28
    2  A    between atoms: O_28  and  C_29
    3  A    between atoms: C_29  and  C_32
                            x       y       z     vdW  Elec       q    Type
                         _______ _______ _______ _____ _____    ______ ____

>  <TORSDO>
F 3

$$$$
=
 OpenBabel11122414343D

 34 41  0  0  1  0  0  0  0  0999 V2000
  161.0320  204.4750  151.6180 C   0  0  0  0  0  0  0  0  0  0  0  0
  161.2440  205.9190  153.7310 C   0  0  0  0  0  3  0  0  0  0  0  0
  160.8580  203.5560  145.0730 C   0  0  0  0  0  0  0  0  0  0  0  0
  161.0450  203.2500  149.5120 C   0  0  0  0  0  0  0  0  0  0  0  0
  161.3290  204.3750  147.3310 C   0  0  0  0  0  0  0  0  0  0  0  0
  161.3110  205.5160  145.1190 C   0  0  0  0  0  2  0  0  0  0  0  0
  160.4990  204.7100  144.2840 O   0  0  0  0  0  0  0  0  0  0  0  0
  161.0740  201.4340  146.1870 C   0  0  0  0  0  3  0  0  0  0  0  0
  161.4130  206.9310  151.6080 C   0  0  0  0  0  0  0  0  0  0  0  0
  161.9940  209.9360  151.0280 C   0  0  0  0  0  3  0  0  0  0  0  0
  161.0560  205.7130  147.9810 C   0  0  0  0  0  3  0  0  0  0  0  0
  161.3850  201.8500  147.4250 C   0  0  0  0  0  3  0  0  0  0  0  0
  161.4000  206.9350  150.1230 C   0  0  0  0  0  0  0  0  0  0  0  0
  161.5530  207.4050  153.8780 C   0  0  0  0  0  3  0  0  0  0  0  0
  161.2320  203.2120  148.0340 C   0  0  0  0  0  0  0  0  0  0  0  0
  160.5400  202.2770  145.1110 C   0  0  0  0  0  3  0  0  0  0  0  0
  161.9840  209.3360  152.2230 C   0  0  0  0  0  0  0  0  0  0  0  0
  161.1000  204.4690  150.2150 C   0  0  0  0  0  0  0  0  0  0  0  0
  161.7690  204.3900  145.8850 C   0  0  2  0  0  3  0  0  0  0  0  0
  161.2420  205.7490  149.4760 C   0  0  0  0  0  0  0  0  0  0  0  0
  160.7750  202.0720  151.6300 C   0  0  0  0  0  3  0  0  0  0  0  0
  161.7150  209.4100  149.6930 C   0  0  0  0  0  3  0  0  0  0  0  0
  160.8740  202.0580  150.2380 C   0  0  0  0  0  3  0  0  0  0  0  0
  161.4720  208.1630  149.3140 C   0  0  0  0  0  3  0  0  0  0  0  0
  161.6400  207.9210  152.4680 C   0  0  1  0  0  3  0  0  0  0  0  0
  160.8620  203.2790  152.3230 C   0  0  0  0  0  3  0  0  0  0  0  0
  161.1650  205.7220  152.3000 N   0  0  0  0  0  0  0  0  0  0  0  0
  162.2990  210.0960  153.3620 O   0  0  0  0  0  0  0  0  0  0  0  0
  161.4670  211.1260  153.8940 C   0  0  0  0  0  2  0  0  0  0  0  0
  160.7160  212.2680  156.8590 O   0  0  0  0  0  0  0  0  0  0  0  0
  159.3740  211.2520  155.2060 C   0  0  0  0  0  2  0  0  0  0  0  0
  160.7430  210.6390  155.1390 C   0  0  2  0  0  3  0  0  0  0  0  0
  159.3830  212.0140  156.5090 C   0  0  0  0  0  2  0  0  0  0  0  0
  161.4400  211.1700  156.3700 C   0  0  0  0  0  2  0  0  0  0  0  0
  1 27  1  0  0  0  0
  1 26  1  0  0  0  0
  2 14  2  0  0  0  0
  3 16  2  0  0  0  0
  3 19  1  0  0  0  0
  4 18  1  0  0  0  0
  4 23  2  0  0  0  0
  5 11  1  0  0  0  0
  5 15  2  0  0  0  0
  7  3  1  0  0  0  0
  7  6  1  0  0  0  0
  8 12  2  0  0  0  0
  9 27  1  0  0  0  0
  9 25  1  0  0  0  0
 10 17  2  0  0  0  0
 11 20  2  0  0  0  0
 12 15  1  0  0  0  0
 13  9  2  0  0  0  0
 15  4  1  0  0  0  0
 16  8  1  0  0  0  0
 17 25  1  0  0  0  0
 17 28  1  0  0  0  0
 18  1  2  0  0  0  0
 19  6  1  6  0  0  0
 19  5  1  0  0  0  0
 20 13  1  0  0  0  0
 20 18  1  0  0  0  0
 21 26  2  0  0  0  0
 22 10  1  0  0  0  0
 23 21  1  0  0  0  0
 24 22  2  0  0  0  0
 24 13  1  0  0  0  0
 25 14  1  1  0  0  0
 27  2  1  0  0  0  0
 28 29  1  0  0  0  0
 31 33  1  0  0  0  0
 32 29  1  6  0  0  0
 32 31  1  0  0  0  0
 32 34  1  0  0  0  0
 33 30  1  0  0  0  0
 34 30  1  0  0  0  0
M  END
>  <MODEL>
2

>  <REMARK>
 VINA RESULT:     -11.4      0.751      1.107
  Name = 
  3 active torsions:
  status: ('A' for Active; 'I' for Inactive)
    1  A    between atoms: C_17  and  O_28
    2  A    between atoms: O_28  and  C_29
    3  A    between atoms: C_29  and  C_32
                            x       y       z     vdW  Elec       q    Type
                         _______ _______ _______ _____ _____    ______ ____

>  <TORSDO>
F 3

$$$$
=
 OpenBabel11122414343D

 34 41  0  0  1  0  0  0  0  0999 V2000
  161.8700  207.9300  149.8150 C   0  0  0  0  0  0  0  0  0  0  0  0
  161.9400  210.0780  151.2220 C   0  0  0  0  0  3  0  0  0  0  0  0
  161.0900  201.4170  148.9920 C   0  0  0  0  0  0  0  0  0  0  0  0
  161.5750  205.8290  148.6190 C   0  0  0  0  0  0  0  0  0  0  0  0
  160.9400  203.7340  149.7670 C   0  0  0  0  0  0  0  0  0  0  0  0
  160.5990  201.5650  150.9380 C   0  0  0  0  0  2  0  0  0  0  0  0
  161.2980  200.6040  150.1670 O   0  0  0  0  0  0  0  0  0  0  0  0
  161.0950  202.5120  146.8500 C   0  0  0  0  0  3  0  0  0  0  0  0
  161.4310  208.0210  152.2590 C   0  0  0  0  0  0  0  0  0  0  0  0
  160.6940  207.5890  155.2550 C   0  0  0  0  0  3  0  0  0  0  0  0
  161.2730  204.3610  151.1030 C   0  0  0  0  0  3  0  0  0  0  0  0
  160.9620  203.7900  147.2400 C   0  0  0  0  0  3  0  0  0  0  0  0
  161.2220  206.5520  152.2840 C   0  0  0  0  0  0  0  0  0  0  0  0
  161.6200  210.2950  152.6970 C   0  0  0  0  0  3  0  0  0  0  0  0
  161.1700  204.3940  148.5960 C   0  0  0  0  0  0  0  0  0  0  0  0
  161.4420  201.3840  147.7220 C   0  0  0  0  0  3  0  0  0  0  0  0
  160.8980  208.7580  154.6380 C   0  0  0  0  0  0  0  0  0  0  0  0
  161.5940  206.5530  149.8270 C   0  0  0  0  0  0  0  0  0  0  0  0
  160.2890  202.3710  149.7900 C   0  0  2  0  0  3  0  0  0  0  0  0
  161.3120  205.8660  151.1120 C   0  0  0  0  0  0  0  0  0  0  0  0
  162.1870  207.8610  147.4190 C   0  0  0  0  0  3  0  0  0  0  0  0
  160.7840  206.2170  154.7550 C   0  0  0  0  0  3  0  0  0  0  0  0
  161.8820  206.4990  147.4220 C   0  0  0  0  0  3  0  0  0  0  0  0
  160.9990  205.7840  153.5210 C   0  0  0  0  0  3  0  0  0  0  0  0
  161.3100  208.9230  153.2300 C   0  0  1  0  0  3  0  0  0  0  0  0
  162.1730  208.5800  148.6140 C   0  0  0  0  0  3  0  0  0  0  0  0
  161.8090  208.6470  151.0470 N   0  0  0  0  0  0  0  0  0  0  0  0
  160.7370  209.9440  155.3730 O   0  0  0  0  0  0  0  0  0  0  0  0
  159.7950  210.1090  156.4330 C   0  0  0  0  0  2  0  0  0  0  0  0
  159.0780  212.1460  153.9840 O   0  0  0  0  0  0  0  0  0  0  0  0
  157.6830  211.0070  155.5090 C   0  0  0  0  0  2  0  0  0  0  0  0
  158.9600  211.3610  156.2160 C   0  0  2  0  0  3  0  0  0  0  0  0
  157.7390  211.8180  154.2380 C   0  0  0  0  0  2  0  0  0  0  0  0
  159.6680  212.2810  155.2490 C   0  0  0  0  0  2  0  0  0  0  0  0
  1 18  1  0  0  0  0
  1 27  1  0  0  0  0
  2 14  2  0  0  0  0
  3 19  1  0  0  0  0
  3  7  1  0  0  0  0
  4 18  1  0  0  0  0
  5 19  1  0  0  0  0
  5 11  2  0  0  0  0
  7  6  1  0  0  0  0
  8 12  2  0  0  0  0
  8 16  1  0  0  0  0
  9 13  2  0  0  0  0
  9 25  1  0  0  0  0
 11 20  1  0  0  0  0
 12 15  1  0  0  0  0
 13 24  1  0  0  0  0
 15  4  2  0  0  0  0
 15  5  1  0  0  0  0
 16  3  2  0  0  0  0
 17 10  2  0  0  0  0
 17 28  1  0  0  0  0
 18 20  2  0  0  0  0
 19  6  1  1  0  0  0
 20 13  1  0  0  0  0
 21 23  2  0  0  0  0
 21 26  1  0  0  0  0
 22 10  1  0  0  0  0
 23  4  1  0  0  0  0
 24 22  2  0  0  0  0
 25 14  1  6  0  0  0
 25 17  1  0  0  0  0
 26  1  2  0  0  0  0
 27  2  1  0  0  0  0
 27  9  1  0  0  0  0
 28 29  1  0  0  0  0
 30 33  1  0  0  0  0
 30 34  1  0  0  0  0
 31 32  1  0  0  0  0
 32 29  1  6  0  0  0
 33 31  1  0  0  0  0
 34 32  1  0  0  0  0
M  END
>  <MODEL>
3

>  <REMARK>
 VINA RESULT:     -10.6      1.979      4.109
  Name = 
  3 active torsions:
  status: ('A' for Active; 'I' for Inactive)
    1  A    between atoms: C_17  and  O_28
    2  A    between atoms: O_28  and  C_29
    3  A    between atoms: C_29  and  C_32
                            x       y       z     vdW  Elec       q    Type
                         _______ _______ _______ _____ _____    ______ ____

>  <TORSDO>
F 3

$$$$
=
 OpenBabel11122414343D

 34 41  0  0  1  0  0  0  0  0999 V2000
  161.5810  207.9940  150.0010 C   0  0  0  0  0  0  0  0  0  0  0  0
  161.7220  206.5390  147.8900 C   0  0  0  0  0  3  0  0  0  0  0  0
  160.5950  208.9610  156.4670 C   0  0  0  0  0  0  0  0  0  0  0  0
  161.5920  209.1760  152.1310 C   0  0  0  0  0  0  0  0  0  0  0  0
  161.1820  208.0290  154.2810 C   0  0  0  0  0  0  0  0  0  0  0  0
  160.4770  206.9530  156.4110 C   0  0  0  0  0  2  0  0  0  0  0  0
  159.7990  207.9620  157.1390 O   0  0  0  0  0  0  0  0  0  0  0  0
  161.5840  210.9270  155.4920 C   0  0  0  0  0  3  0  0  0  0  0  0
  161.2450  205.5320  149.9690 C   0  0  0  0  0  0  0  0  0  0  0  0
  160.8480  202.4900  150.5070 C   0  0  0  0  0  3  0  0  0  0  0  0
  160.6530  206.8210  153.5400 C   0  0  0  0  0  3  0  0  0  0  0  0
  161.9640  210.4320  154.3030 C   0  0  0  0  0  3  0  0  0  0  0  0
  160.9860  205.5400  151.4310 C   0  0  1  0  0  3  0  0  0  0  0  0
  161.6170  205.0250  147.7330 C   0  0  0  0  0  3  0  0  0  0  0  0
  161.5350  209.1680  153.6210 C   0  0  0  0  0  0  0  0  0  0  0  0
  160.6630  210.2780  156.4330 C   0  0  0  0  0  3  0  0  0  0  0  0
  161.2050  203.0610  149.3520 C   0  0  0  0  0  0  0  0  0  0  0  0
  161.4150  207.9880  151.3960 C   0  0  0  0  0  0  0  0  0  0  0  0
  161.3550  207.8970  155.7760 C   0  0  2  0  0  3  0  0  0  0  0  0
  161.0650  206.7260  152.0940 C   0  0  0  0  0  0  0  0  0  0  0  0
  162.0200  210.3710  150.0490 C   0  0  0  0  0  3  0  0  0  0  0  0
  160.5120  203.0810  151.8020 C   0  0  0  0  0  3  0  0  0  0  0  0
  161.8870  210.3640  151.4390 C   0  0  0  0  0  3  0  0  0  0  0  0
  160.5730  204.3480  152.1890 C   0  0  0  0  0  3  0  0  0  0  0  0
  161.3210  204.5140  149.1160 C   0  0  0  0  0  0  0  0  0  0  0  0
  161.8750  209.1850  149.3290 C   0  0  0  0  0  3  0  0  0  0  0  0
  161.4670  206.7580  149.2980 N   0  0  0  0  0  0  0  0  0  0  0  0
  161.4760  202.2360  148.2480 O   0  0  0  0  0  0  0  0  0  0  0  0
  160.4740  201.6740  147.4020 C   0  0  0  0  0  2  0  0  0  0  0  0
  159.1570  202.6400  144.5760 O   0  0  0  0  0  0  0  0  0  0  0  0
  161.2070  203.2000  145.5990 C   0  0  0  0  0  2  0  0  0  0  0  0
  160.8870  201.7740  145.9420 C   0  0  2  0  0  3  0  0  0  0  0  0
  160.2350  203.5330  144.4950 C   0  0  0  0  0  2  0  0  0  0  0  0
  159.7070  201.4430  145.0590 C   0  0  0  0  0  2  0  0  0  0  0  0
  1 18  1  0  0  0  0
  2 27  1  0  0  0  0
  3  7  1  0  0  0  0
  4 15  1  0  0  0  0
  5 19  1  0  0  0  0
  6  7  1  0  0  0  0
  8 16  1  0  0  0  0
  9 13  1  0  0  0  0
 10 22  1  0  0  0  0
 11  5  1  0  0  0  0
 12  8  2  0  0  0  0
 13 20  1  0  0  0  0
 13 24  1  6  0  0  0
 14  2  2  0  0  0  0
 14 25  1  0  0  0  0
 15  5  2  0  0  0  0
 15 12  1  0  0  0  0
 16  3  2  0  0  0  0
 17 10  2  0  0  0  0
 18 20  1  0  0  0  0
 18  4  2  0  0  0  0
 19  6  1  1  0  0  0
 19  3  1  0  0  0  0
 20 11  2  0  0  0  0
 21 23  2  0  0  0  0
 22 24  2  0  0  0  0
 23  4  1  0  0  0  0
 25 17  1  0  0  0  0
 25  9  2  0  0  0  0
 26  1  2  0  0  0  0
 26 21  1  0  0  0  0
 27  9  1  0  0  0  0
 27  1  1  0  0  0  0
 28 17  1  0  0  0  0
 29 28  1  0  0  0  0
 30 34  1  0  0  0  0
 31 32  1  0  0  0  0
 32 29  1  1  0  0  0
 33 30  1  0  0  0  0
 33 31  1  0  0  0  0
 34 32  1  0  0  0  0
M  END
>  <MODEL>
4

>  <REMARK>
 VINA RESULT:     -10.2      1.481      9.302
  Name = 
  3 active torsions:
  status: ('A' for Active; 'I' for Inactive)
    1  A    between atoms: C_17  and  O_28
    2  A    between atoms: O_28  and  C_29
    3  A    between atoms: C_29  and  C_32
                            x       y       z     vdW  Elec       q    Type
                         _______ _______ _______ _____ _____    ______ ____

>  <TORSDO>
F 3

$$$$
=
 OpenBabel11122414343D

 34 41  0  0  1  0  0  0  0  0999 V2000
  161.8370  207.4550  149.1760 C   0  0  0  0  0  0  0  0  0  0  0  0
  161.9470  209.7370  150.3490 C   0  0  0  0  0  3  0  0  0  0  0  0
  161.0330  200.8930  149.0590 C   0  0  0  0  0  0  0  0  0  0  0  0
  161.5070  205.2410  148.2140 C   0  0  0  0  0  0  0  0  0  0  0  0
  160.9050  203.2790  149.5920 C   0  0  0  0  0  0  0  0  0  0  0  0
  160.5980  201.2450  150.9920 C   0  0  0  0  0  2  0  0  0  0  0  0
  161.2750  200.2070  150.3060 O   0  0  0  0  0  0  0  0  0  0  0  0
  160.9760  201.7600  146.8140 C   0  0  0  0  0  3  0  0  0  0  0  0
  161.4680  207.8010  151.6090 C   0  0  0  0  0  0  0  0  0  0  0  0
  160.8180  207.6850  154.6530 C   0  0  0  0  0  3  0  0  0  0  0  0
  161.2770  204.0400  150.8450 C   0  0  0  0  0  3  0  0  0  0  0  0
  160.8550  203.0710  147.0730 C   0  0  0  0  0  3  0  0  0  0  0  0
  161.2600  206.3430  151.7930 C   0  0  0  0  0  0  0  0  0  0  0  0
  161.6690  210.1070  151.8020 C   0  0  0  0  0  3  0  0  0  0  0  0
  161.1020  203.8130  148.3530 C   0  0  0  0  0  0  0  0  0  0  0  0
  161.3480  200.7270  147.7890 C   0  0  0  0  0  3  0  0  0  0  0  0
  161.0040  208.7830  153.9130 C   0  0  0  0  0  0  0  0  0  0  0  0
  161.5610  206.0870  149.3390 C   0  0  0  0  0  0  0  0  0  0  0  0
  160.2550  201.9280  149.7750 C   0  0  2  0  0  3  0  0  0  0  0  0
  161.3160  205.5390  150.6960 C   0  0  0  0  0  0  0  0  0  0  0  0
  162.0840  207.1350  146.7920 C   0  0  0  0  0  3  0  0  0  0  0  0
  160.8930  206.2690  154.2970 C   0  0  0  0  0  3  0  0  0  0  0  0
  161.7790  205.7820  146.9460 C   0  0  0  0  0  3  0  0  0  0  0  0
  161.0730  205.7090  153.1090 C   0  0  0  0  0  3  0  0  0  0  0  0
  161.3750  208.7990  152.4840 C   0  0  1  0  0  3  0  0  0  0  0  0
  162.1050  207.9750  147.9050 C   0  0  0  0  0  3  0  0  0  0  0  0
  161.8110  208.2960  150.3280 N   0  0  0  0  0  0  0  0  0  0  0  0
  160.8640  210.0400  154.5240 O   0  0  0  0  0  0  0  0  0  0  0  0
  161.8070  210.5950  155.4400 C   0  0  0  0  0  2  0  0  0  0  0  0
  158.9070  212.0300  155.8750 O   0  0  0  0  0  0  0  0  0  0  0  0
  160.1100  210.5260  157.2380 C   0  0  0  0  0  2  0  0  0  0  0  0
  161.0970  211.3980  156.5190 C   0  0  2  0  0  3  0  0  0  0  0  0
  158.7870  211.2140  157.0080 C   0  0  0  0  0  2  0  0  0  0  0  0
  160.2410  212.4640  155.8750 C   0  0  0  0  0  2  0  0  0  0  0  0
  1 18  1  0  0  0  0
  1 27  1  0  0  0  0
  2 14  2  0  0  0  0
  3 19  1  0  0  0  0
  3  7  1  0  0  0  0
  4 15  2  0  0  0  0
  4 18  1  0  0  0  0
  5 19  1  0  0  0  0
  5 11  2  0  0  0  0
  7  6  1  0  0  0  0
  8 12  2  0  0  0  0
  8 16  1  0  0  0  0
  9 13  2  0  0  0  0
  9 25  1  0  0  0  0
 12 15  1  0  0  0  0
 13 24  1  0  0  0  0
 15  5  1  0  0  0  0
 16  3  2  0  0  0  0
 17 28  1  0  0  0  0
 17 10  2  0  0  0  0
 18 20  2  0  0  0  0
 19  6  1  1  0  0  0
 20 11  1  0  0  0  0
 20 13  1  0  0  0  0
 21 23  2  0  0  0  0
 21 26  1  0  0  0  0
 22 10  1  0  0  0  0
 23  4  1  0  0  0  0
 24 22  2  0  0  0  0
 25 14  1  6  0  0  0
 25 17  1  0  0  0  0
 26  1  2  0  0  0  0
 27  2  1  0  0  0  0
 27  9  1  0  0  0  0
 28 29  1  0  0  0  0
 30 34  1  0  0  0  0
 30 33  1  0  0  0  0
 32 29  1  6  0  0  0
 32 31  1  0  0  0  0
 33 31  1  0  0  0  0
 34 32  1  0  0  0  0
M  END
>  <MODEL>
5

>  <REMARK>
 VINA RESULT:     -10.1      1.861      3.848
  Name = 
  3 active torsions:
  status: ('A' for Active; 'I' for Inactive)
    1  A    between atoms: C_17  and  O_28
    2  A    between atoms: O_28  and  C_29
    3  A    between atoms: C_29  and  C_32
                            x       y       z     vdW  Elec       q    Type
                         _______ _______ _______ _____ _____    ______ ____

>  <TORSDO>
F 3

$$$$
