=
 OpenBabel11122413013D

 32 37  0  0  1  0  0  0  0  0999 V2000
  160.6550  209.8600  152.4400 C   0  0  1  0  0  3  0  0  0  0  0  0
  160.2100  208.3120  157.0130 C   0  0  0  0  0  2  0  0  0  0  0  0
  159.8380  206.9610  156.3940 C   0  0  0  0  0  2  0  0  0  0  0  0
  161.2450  208.3240  150.4950 C   0  0  2  0  0  3  0  0  0  0  0  0
  161.4640  206.8440  150.1250 C   0  0  2  0  0  3  0  0  0  0  0  0
  159.9000  211.9300  152.0120 C   0  0  2  0  0  3  0  0  0  0  0  0
  160.8940  211.5350  154.2790 O   0  0  0  0  0  0  0  0  0  0  0  0
  161.6070  204.6260  150.7870 C   0  0  2  0  0  3  0  0  0  0  0  0
  160.0690  209.4150  155.9810 C   0  0  0  0  0  2  0  0  0  0  0  0
  161.1950  210.2220  153.8200 C   0  0  1  0  0  3  0  0  0  0  0  0
  161.0670  209.1130  154.8760 C   0  0  2  0  0  3  0  0  0  0  0  0
  161.0430  207.4310  152.8250 C   0  0  2  0  0  3  0  0  0  0  0  0
  160.2460  204.8230  150.5040 O   0  0  0  0  0  0  0  0  0  0  0  0
  159.8380  212.1470  153.5480 C   0  0  2  0  0  3  0  0  0  0  0  0
  160.1440  206.1170  149.9520 C   0  0  0  0  0  2  0  0  0  0  0  0
  160.3150  206.7890  155.0280 N   0  0  0  0  0  0  0  0  0  0  0  0
  160.8320  207.7230  154.2970 C   0  0  0  0  0  0  0  0  0  0  0  0
  162.0850  206.3500  152.5950 C   0  0  0  0  0  2  0  0  0  0  0  0
  160.8580  210.9720  151.6170 O   0  0  0  0  0  0  0  0  0  0  0  0
  162.1010  209.1200  149.7330 O   0  0  0  0  0  1  0  0  0  0  0  0
  161.7960  203.5680  151.8650 C   0  0  0  0  0  1  0  0  0  0  0  0
  161.4380  208.6390  151.9800 C   0  0  2  0  0  3  0  0  0  0  0  0
  162.2400  205.9710  151.0990 C   0  0  2  0  0  3  0  0  0  0  0  0
  158.3090  212.2670  155.3820 O   0  0  0  0  0  0  0  0  0  0  0  0
  158.4830  211.7250  154.0960 C   0  0  1  0  0  3  0  0  0  0  0  0
  157.6420  212.9180  154.3280 C   0  0  1  0  0  3  0  0  0  0  0  0
  156.1800  212.5180  154.3390 C   0  0  0  0  0  2  0  0  0  0  0  0
  155.3260  213.7290  154.4720 C   0  0  0  0  0  0  0  0  0  0  0  0
  155.3800  214.4240  155.5190 O   0  0  0  0  0  1  0  0  0  0  0  0
  154.4980  214.1140  153.4260 O   0  0  0  0  0  0  0  0  0  0  0  0
  160.5050  213.0330  149.9880 O   0  0  0  0  0  1  0  0  0  0  0  0
  160.1850  213.2530  151.3270 C   0  0  0  0  0  2  0  0  0  0  0  0
  1 19  1  6  0  0  0
  1 10  1  0  0  0  0
  3  2  1  0  0  0  0
  4 20  1  6  0  0  0
  4 22  1  0  0  0  0
  5 15  1  1  0  0  0
  5  4  1  0  0  0  0
  5 23  1  0  0  0  0
  6 32  1  6  0  0  0
  6 14  1  0  0  0  0
  8 23  1  0  0  0  0
  8 21  1  1  0  0  0
  9  2  1  0  0  0  0
 10  7  1  1  0  0  0
 10 11  1  0  0  0  0
 11  9  1  1  0  0  0
 12 18  1  1  0  0  0
 12 17  1  0  0  0  0
 13  8  1  0  0  0  0
 14 25  1  0  0  0  0
 14  7  1  1  0  0  0
 15 13  1  0  0  0  0
 16  3  1  0  0  0  0
 17 11  1  0  0  0  0
 17 16  2  0  0  0  0
 19  6  1  0  0  0  0
 22  1  1  0  0  0  0
 22 12  1  0  0  0  0
 23 18  1  0  0  0  0
 25 26  1  0  0  0  0
 25 24  1  0  0  0  0
 26 27  1  0  0  0  0
 26 24  1  0  0  0  0
 27 28  1  0  0  0  0
 28 29  1  0  0  0  0
 30 28  2  0  0  0  0
 31 32  1  0  0  0  0
M  END
>  <MODEL>
1

>  <REMARK>
 VINA RESULT:      -7.5      0.000      0.000
  Name = 
  4 active torsions:
  status: ('A' for Active; 'I' for Inactive)
    1  A    between atoms: C_7  and  C_19
    2  A    between atoms: C_10  and  C_17
    3  A    between atoms: C_20  and  C_29
    4  A    between atoms: C_29  and  C_30
                            x       y       z     vdW  Elec       q    Type
                         _______ _______ _______ _____ _____    ______ ____

>  <TORSDO>
F 4

$$$$
=
 OpenBabel11122413013D

 32 37  0  0  1  0  0  0  0  0999 V2000
  160.7660  208.9540  152.5830 C   0  0  1  0  0  3  0  0  0  0  0  0
  161.9710  212.0050  149.0120 C   0  0  0  0  0  2  0  0  0  0  0  0
  160.7130  212.7830  149.4130 C   0  0  0  0  0  2  0  0  0  0  0  0
  159.4200  209.6580  154.6280 C   0  0  2  0  0  3  0  0  0  0  0  0
  158.6360  210.8390  155.2330 C   0  0  2  0  0  3  0  0  0  0  0  0
  161.0730  206.7690  152.1710 C   0  0  2  0  0  3  0  0  0  0  0  0
  162.7090  208.3570  151.1300 O   0  0  0  0  0  0  0  0  0  0  0  0
  157.9430  213.0480  155.0940 C   0  0  2  0  0  3  0  0  0  0  0  0
  161.9120  210.5960  149.5710 C   0  0  0  0  0  2  0  0  0  0  0  0
  162.0210  209.3860  151.8320 C   0  0  1  0  0  3  0  0  0  0  0  0
  161.9010  210.7230  151.0850 C   0  0  2  0  0  3  0  0  0  0  0  0
  159.9980  211.3090  152.8380 C   0  0  2  0  0  3  0  0  0  0  0  0
  156.9490  212.3240  154.4180 O   0  0  0  0  0  0  0  0  0  0  0  0
  161.9130  207.1940  150.9370 C   0  0  2  0  0  3  0  0  0  0  0  0
  157.2560  210.9610  154.6120 C   0  0  0  0  0  2  0  0  0  0  0  0
  160.2730  212.5240  150.7770 N   0  0  0  0  0  0  0  0  0  0  0  0
  160.7390  211.5950  151.5480 C   0  0  0  0  0  0  0  0  0  0  0  0
  160.0620  212.4740  153.8110 C   0  0  0  0  0  2  0  0  0  0  0  0
  161.0580  207.7350  153.2010 O   0  0  0  0  0  0  0  0  0  0  0  0
  160.0390  208.9440  155.6550 O   0  0  0  0  0  1  0  0  0  0  0  0
  158.0810  214.4530  154.5260 C   0  0  0  0  0  1  0  0  0  0  0  0
  160.4620  210.0600  153.5820 C   0  0  2  0  0  3  0  0  0  0  0  0
  159.2260  212.2350  155.0940 C   0  0  2  0  0  3  0  0  0  0  0  0
  161.7810  207.8710  148.6470 O   0  0  0  0  0  0  0  0  0  0  0  0
  161.0270  207.3390  149.7090 C   0  0  1  0  0  3  0  0  0  0  0  0
  161.5390  206.4850  148.6170 C   0  0  1  0  0  3  0  0  0  0  0  0
  160.4240  206.1950  147.6300 C   0  0  0  0  0  2  0  0  0  0  0  0
  160.9840  206.0740  146.2570 C   0  0  0  0  0  0  0  0  0  0  0  0
  160.2320  206.2030  145.2580 O   0  0  0  0  0  0  0  0  0  0  0  0
  162.3440  205.8550  146.0780 O   0  0  0  0  0  1  0  0  0  0  0  0
  161.9250  204.6050  151.6520 O   0  0  0  0  0  1  0  0  0  0  0  0
  161.5990  205.4530  152.7100 C   0  0  0  0  0  2  0  0  0  0  0  0
  1 19  1  1  0  0  0
  1 22  1  0  0  0  0
  2  3  1  0  0  0  0
  2  9  1  0  0  0  0
  3 16  1  0  0  0  0
  4  5  1  0  0  0  0
  4 20  1  1  0  0  0
  5 15  1  6  0  0  0
  6 32  1  1  0  0  0
  6 19  1  0  0  0  0
  8 21  1  6  0  0  0
 10  7  1  6  0  0  0
 10  1  1  0  0  0  0
 11  9  1  6  0  0  0
 11 17  1  0  0  0  0
 11 10  1  0  0  0  0
 12 22  1  0  0  0  0
 12 18  1  1  0  0  0
 13 15  1  0  0  0  0
 13  8  1  0  0  0  0
 14  7  1  1  0  0  0
 14  6  1  0  0  0  0
 16 17  2  0  0  0  0
 17 12  1  0  0  0  0
 18 23  1  0  0  0  0
 22  4  1  0  0  0  0
 23  8  1  0  0  0  0
 23  5  1  0  0  0  0
 24 25  1  0  0  0  0
 25 14  1  0  0  0  0
 26 24  1  0  0  0  0
 26 25  1  0  0  0  0
 27 26  1  0  0  0  0
 28 27  1  0  0  0  0
 29 28  2  0  0  0  0
 30 28  1  0  0  0  0
 31 32  1  0  0  0  0
M  END
>  <MODEL>
2

>  <REMARK>
 VINA RESULT:      -6.8      2.542      7.943
  Name = 
  4 active torsions:
  status: ('A' for Active; 'I' for Inactive)
    1  A    between atoms: C_7  and  C_19
    2  A    between atoms: C_10  and  C_17
    3  A    between atoms: C_20  and  C_29
    4  A    between atoms: C_29  and  C_30
                            x       y       z     vdW  Elec       q    Type
                         _______ _______ _______ _____ _____    ______ ____

>  <TORSDO>
F 4

$$$$
=
 OpenBabel11122413013D

 32 37  0  0  1  0  0  0  0  0999 V2000
  161.4380  209.0970  151.1940 C   0  0  1  0  0  3  0  0  0  0  0  0
  160.5100  208.9590  155.9510 C   0  0  0  0  0  2  0  0  0  0  0  0
  159.8310  207.6170  155.6590 C   0  0  0  0  0  2  0  0  0  0  0  0
  161.6780  207.0080  149.7550 C   0  0  2  0  0  3  0  0  0  0  0  0
  161.5330  205.4740  149.7870 C   0  0  2  0  0  3  0  0  0  0  0  0
  161.2280  211.0970  150.1970 C   0  0  2  0  0  3  0  0  0  0  0  0
  162.0370  211.0950  152.5690 O   0  0  0  0  0  0  0  0  0  0  0  0
  161.1070  203.5400  150.9930 C   0  0  2  0  0  3  0  0  0  0  0  0
  160.6720  209.7510  154.6670 C   0  0  0  0  0  2  0  0  0  0  0  0
  162.0150  209.6750  152.4820 C   0  0  1  0  0  3  0  0  0  0  0  0
  161.5910  208.9460  153.7650 C   0  0  2  0  0  3  0  0  0  0  0  0
  161.2040  206.8350  152.2060 C   0  0  2  0  0  3  0  0  0  0  0  0
  159.8450  203.9650  150.5510 O   0  0  0  0  0  0  0  0  0  0  0  0
  161.1840  211.7210  151.6180 C   0  0  2  0  0  3  0  0  0  0  0  0
  160.0790  205.0550  149.6860 C   0  0  0  0  0  2  0  0  0  0  0  0
  160.2850  206.9850  154.4270 N   0  0  0  0  0  0  0  0  0  0  0  0
  161.0340  207.5460  153.5340 C   0  0  0  0  0  0  0  0  0  0  0  0
  161.9510  205.5200  152.3470 C   0  0  0  0  0  2  0  0  0  0  0  0
  161.9290  209.8740  150.1400 O   0  0  0  0  0  0  0  0  0  0  0  0
  162.7220  207.3540  148.8970 O   0  0  0  0  0  1  0  0  0  0  0  0
  161.0020  202.7900  152.3130 C   0  0  0  0  0  1  0  0  0  0  0  0
  161.9050  207.6510  151.1250 C   0  0  2  0  0  3  0  0  0  0  0  0
  162.0450  204.7340  151.0140 C   0  0  2  0  0  3  0  0  0  0  0  0
  159.7110  212.5600  153.3040 O   0  0  0  0  0  0  0  0  0  0  0  0
  159.7530  211.7850  152.1310 C   0  0  1  0  0  3  0  0  0  0  0  0
  159.2780  213.1840  152.1190 C   0  0  1  0  0  3  0  0  0  0  0  0
  157.7620  213.2080  152.0930 C   0  0  0  0  0  2  0  0  0  0  0  0
  157.2890  213.8290  150.8260 C   0  0  0  0  0  0  0  0  0  0  0  0
  156.0650  214.0650  150.6610 O   0  0  0  0  0  1  0  0  0  0  0  0
  158.2030  214.1810  149.8420 O   0  0  0  0  0  0  0  0  0  0  0  0
  161.3500  211.8730  147.9460 O   0  0  0  0  0  1  0  0  0  0  0  0
  161.8480  212.0890  149.2310 C   0  0  0  0  0  2  0  0  0  0  0  0
  1 19  1  6  0  0  0
  1 10  1  0  0  0  0
  3  2  1  0  0  0  0
  4 20  1  6  0  0  0
  4  5  1  0  0  0  0
  4 22  1  0  0  0  0
  5 15  1  1  0  0  0
  5 23  1  0  0  0  0
  6 32  1  6  0  0  0
  6 14  1  0  0  0  0
  8 23  1  0  0  0  0
  8 21  1  1  0  0  0
  9  2  1  0  0  0  0
 10  7  1  1  0  0  0
 10 11  1  0  0  0  0
 11  9  1  6  0  0  0
 12 18  1  1  0  0  0
 12 17  1  0  0  0  0
 13  8  1  0  0  0  0
 14 25  1  0  0  0  0
 14  7  1  1  0  0  0
 15 13  1  0  0  0  0
 16  3  1  0  0  0  0
 17 11  1  0  0  0  0
 17 16  2  0  0  0  0
 19  6  1  0  0  0  0
 22  1  1  0  0  0  0
 22 12  1  0  0  0  0
 23 18  1  0  0  0  0
 25 24  1  0  0  0  0
 26 25  1  0  0  0  0
 26 24  1  0  0  0  0
 27 26  1  0  0  0  0
 28 27  1  0  0  0  0
 29 28  1  0  0  0  0
 30 28  2  0  0  0  0
 31 32  1  0  0  0  0
M  END
>  <MODEL>
3

>  <REMARK>
 VINA RESULT:      -4.9      1.802      2.252
  Name = 
  4 active torsions:
  status: ('A' for Active; 'I' for Inactive)
    1  A    between atoms: C_7  and  C_19
    2  A    between atoms: C_10  and  C_17
    3  A    between atoms: C_20  and  C_29
    4  A    between atoms: C_29  and  C_30
                            x       y       z     vdW  Elec       q    Type
                         _______ _______ _______ _____ _____    ______ ____

>  <TORSDO>
F 4

$$$$
