=
 OpenBabel11122413373D

 37 43  0  0  1  0  0  0  0  0999 V2000
  161.6540  210.2300  154.3840 C   0  0  0  0  0  2  0  0  0  0  0  0
  161.5510  205.5950  152.6560 C   0  0  1  0  0  0  0  0  0  0  0  0
  161.2870  209.4720  150.8520 N   0  0  1  0  0  0  0  0  0  0  0  0
  162.1170  210.6120  155.8060 C   0  0  2  0  0  3  0  0  0  0  0  0
  159.5510  212.2620  152.5480 O   0  0  0  0  0  0  0  0  0  0  0  0
  162.0270  207.0400  150.5740 C   0  0  1  0  0  3  0  0  0  0  0  0
  160.3090  210.1430  151.5650 C   0  0  2  0  0  3  0  0  0  0  0  0
  160.3210  212.4590  156.1580 C   0  0  0  0  0  0  0  0  0  0  0  0
  161.1300  208.0990  151.1770 C   0  0  1  0  0  3  0  0  0  0  0  0
  160.6500  211.6590  151.9180 C   0  0  1  0  0  3  0  0  0  0  0  0
  163.0900  207.6940  149.7550 C   0  0  0  0  0  2  0  0  0  0  0  0
  161.1870  211.3410  156.7800 C   0  0  0  0  0  2  0  0  0  0  0  0
  160.8430  208.0380  152.6150 C   0  0  2  0  0  3  0  0  0  0  0  0
  162.2300  205.1080  153.7450 O   0  0  0  0  0  1  0  0  0  0  0  0
  161.4750  210.9140  148.7920 C   0  0  0  0  0  2  0  0  0  0  0  0
  162.4520  208.7430  148.7760 C   0  0  0  0  0  2  0  0  0  0  0  0
  160.5820  206.5840  153.1180 C   0  0  0  0  0  2  0  0  0  0  0  0
  159.4870  212.2660  154.9340 C   0  0  1  0  0  3  0  0  0  0  0  0
  160.1260  212.8650  153.7010 C   0  0  0  0  0  2  0  0  0  0  0  0
  161.2620  209.4910  149.3310 C   0  0  1  0  0  3  0  0  0  0  0  0
  159.9140  209.2110  152.8320 C   0  0  1  0  0  3  0  0  0  0  0  0
  162.6810  206.1700  151.6680 C   0  0  0  0  0  2  0  0  0  0  0  0
  160.9860  212.5110  150.7160 C   0  0  1  0  0  3  0  0  0  0  0  0
  160.7330  204.4840  151.9460 C   0  0  0  0  0  1  0  0  0  0  0  0
  159.0510  210.7790  154.6740 C   0  0  0  0  0  2  0  0  0  0  0  0
  160.3820  213.6380  156.6150 O   0  0  0  0  0  0  0  0  0  0  0  0
  160.1640  209.7990  154.2290 C   0  0  2  0  0  3  0  0  0  0  0  0
  162.0180  211.9480  149.7970 C   0  0  0  0  0  2  0  0  0  0  0  0
  160.2760  213.7780  148.7470 C   0  0  0  0  0  3  0  0  0  0  0  0
  159.8920  213.1700  149.9400 C   0  0  0  0  0  0  0  0  0  0  0  0
  158.6180  213.1940  150.4280 C   0  0  0  0  0  3  0  0  0  0  0  0
  156.3630  213.9030  149.8990 O   0  0  0  0  0  1  0  0  0  0  0  0
  158.0160  214.4110  148.4090 C   0  0  0  0  0  3  0  0  0  0  0  0
  157.6670  213.7900  149.5940 C   0  0  0  0  0  0  0  0  0  0  0  0
  159.3390  214.4530  148.0040 C   0  0  0  0  0  3  0  0  0  0  0  0
  163.7380  211.0600  157.1460 C   0  0  0  0  0  1  0  0  0  0  0  0
  163.4310  211.0580  155.7710 O   0  0  0  0  0  0  0  0  0  0  0  0
  1  4  1  0  0  0  0
  2 24  1  6  0  0  0
  2 17  1  0  0  0  0
  2 14  1  0  0  0  0
  3  9  1  0  0  0  0
  3  7  1  0  0  0  0
  4 12  1  0  0  0  0
  5 19  1  0  0  0  0
  6  9  1  0  0  0  0
  6 22  1  0  0  0  0
  7 10  1  0  0  0  0
  7 21  1  0  0  0  0
  8 26  2  0  0  0  0
  8 12  1  0  0  0  0
  9 13  1  0  0  0  0
 10  5  1  0  0  0  0
 11  6  1  0  0  0  0
 13 21  1  0  0  0  0
 13 17  1  0  0  0  0
 15 20  1  0  0  0  0
 15 28  1  0  0  0  0
 16 20  1  0  0  0  0
 16 11  1  0  0  0  0
 18  8  1  0  0  0  0
 19 18  1  0  0  0  0
 20  3  1  0  0  0  0
 21 27  1  0  0  0  0
 22  2  1  0  0  0  0
 23 10  1  0  0  0  0
 25 18  1  0  0  0  0
 27  1  1  0  0  0  0
 27 25  1  0  0  0  0
 28 23  1  0  0  0  0
 29 30  1  0  0  0  0
 30 31  2  0  0  0  0
 30 23  1  0  0  0  0
 33 34  2  0  0  0  0
 34 32  1  0  0  0  0
 34 31  1  0  0  0  0
 35 33  1  0  0  0  0
 35 29  2  0  0  0  0
 37  4  1  0  0  0  0
 37 36  1  0  0  0  0
M  END
>  <MODEL>
1

>  <REMARK>
 VINA RESULT:      -1.5      0.000      0.000
  Name = 
  2 active torsions:
  status: ('A' for Active; 'I' for Inactive)
    1  A    between atoms: C_4  and  O_37
    2  A    between atoms: C_23  and  C_30
                            x       y       z     vdW  Elec       q    Type
                         _______ _______ _______ _____ _____    ______ ____

>  <TORSDO>
F 2

$$$$
