=
 OpenBabel11122413223D

 31 35  0  0  0  0  0  0  0  0999 V2000
  161.1640  201.4700  149.8790 C   0  0  0  0  0  0  0  0  0  0  0  0
  161.1630  205.2010  149.3510 C   0  0  0  0  0  0  0  0  0  0  0  0
  161.1480  205.4200  147.9410 C   0  0  0  0  0  0  0  0  0  0  0  0
  161.1240  204.6350  145.6270 C   0  0  0  0  0  0  0  0  0  0  0  0
  161.1670  203.9130  149.9740 C   0  0  0  0  0  0  0  0  0  0  0  0
  161.1780  201.4010  151.2710 C   0  0  0  0  0  3  0  0  0  0  0  0
  161.1380  204.3760  146.9990 C   0  0  0  0  0  3  0  0  0  0  0  0
  161.1870  206.2330  151.5880 C   0  0  0  0  0  0  0  0  0  0  0  0
  161.1540  200.3040  149.1260 O   0  0  0  0  0  1  0  0  0  0  0  0
  161.1550  207.7870  148.3210 N   0  0  0  0  0  0  0  0  0  0  0  0
  161.1130  203.5840  144.7220 O   0  0  0  0  0  1  0  0  0  0  0  0
  161.1910  204.9680  152.1710 C   0  0  0  0  0  3  0  0  0  0  0  0
  161.1720  206.3530  150.1890 C   0  0  0  0  0  0  0  0  0  0  0  0
  161.1580  202.7120  149.2410 C   0  0  0  0  0  3  0  0  0  0  0  0
  161.1200  205.9520  145.1680 C   0  0  0  0  0  3  0  0  0  0  0  0
  161.1820  203.8210  151.3890 C   0  0  0  0  0  0  0  0  0  0  0  0
  161.1870  202.5760  152.0240 C   0  0  0  0  0  3  0  0  0  0  0  0
  161.1690  207.5940  149.6370 N   0  0  0  0  0  0  0  0  0  0  0  0
  161.1450  206.7490  147.4550 C   0  0  0  0  0  0  0  0  0  0  0  0
  161.1320  207.0070  146.0800 C   0  0  0  0  0  3  0  0  0  0  0  0
  160.4980  206.5140  154.4370 O   0  0  0  0  0  0  0  0  0  0  0  0
  160.8550  207.5320  153.7850 C   0  0  0  0  0  0  0  0  0  0  0  0
  161.1960  207.4240  152.3940 N   0  0  0  0  0  2  0  0  0  0  0  0
  161.0360  211.3590  155.6620 C   0  0  0  0  0  0  0  0  0  0  0  0
  160.3980  209.9770  153.8010 C   0  0  0  0  0  3  0  0  0  0  0  0
  162.0360  207.9820  156.4030 F   0  0  0  0  0  0  0  0  0  0  0  0
  161.0970  212.5720  156.2630 F   0  0  0  0  0  0  0  0  0  0  0  0
  160.4510  211.2330  154.4030 C   0  0  0  0  0  3  0  0  0  0  0  0
  161.5080  209.0290  155.7220 C   0  0  0  0  0  0  0  0  0  0  0  0
  160.9260  208.8530  154.4500 C   0  0  0  0  0  0  0  0  0  0  0  0
  161.5470  210.2660  156.2870 N   0  0  0  0  0  0  0  0  0  0  0  0
  1  6  1  0  0  0  0
  2  5  2  0  0  0  0
  2 13  1  0  0  0  0
  3  2  1  0  0  0  0
  4  7  1  0  0  0  0
  5 16  1  0  0  0  0
  6 17  2  0  0  0  0
  7  3  2  0  0  0  0
  8 12  1  0  0  0  0
  8 23  1  0  0  0  0
  9  1  1  0  0  0  0
 10 18  2  0  0  0  0
 11  4  1  0  0  0  0
 13  8  2  0  0  0  0
 14  1  2  0  0  0  0
 14  5  1  0  0  0  0
 15  4  2  0  0  0  0
 15 20  1  0  0  0  0
 16 17  1  0  0  0  0
 16 12  2  0  0  0  0
 18 13  1  0  0  0  0
 19  3  1  0  0  0  0
 19 10  1  0  0  0  0
 20 19  2  0  0  0  0
 22 21  2  0  0  0  0
 22 30  1  0  0  0  0
 23 22  1  0  0  0  0
 24 27  1  0  0  0  0
 24 31  1  0  0  0  0
 25 28  1  0  0  0  0
 25 30  2  0  0  0  0
 28 24  2  0  0  0  0
 29 31  2  0  0  0  0
 29 26  1  0  0  0  0
 30 29  1  0  0  0  0
M  END
>  <MODEL>
1

>  <REMARK>
 VINA RESULT:      -9.8      0.000      0.000
  Name = 
  2 active torsions:
  status: ('A' for Active; 'I' for Inactive)
    1  A    between atoms: C_5  and  C_30
    2  A    between atoms: C_10  and  N_16
                            x       y       z     vdW  Elec       q    Type
                         _______ _______ _______ _____ _____    ______ ____

>  <TORSDO>
F 2

$$$$
=
 OpenBabel11122413223D

 31 35  0  0  0  0  0  0  0  0999 V2000
  161.2830  205.3200  145.6950 C   0  0  0  0  0  0  0  0  0  0  0  0
  161.0460  204.5260  149.3710 C   0  0  0  0  0  0  0  0  0  0  0  0
  161.0870  203.1040  149.4910 C   0  0  0  0  0  0  0  0  0  0  0  0
  161.2330  200.8540  148.5490 C   0  0  0  0  0  0  0  0  0  0  0  0
  161.1110  205.2390  148.1320 C   0  0  0  0  0  0  0  0  0  0  0  0
  161.2330  206.7120  145.7230 C   0  0  0  0  0  3  0  0  0  0  0  0
  161.1960  202.2400  148.3860 C   0  0  0  0  0  3  0  0  0  0  0  0
  160.8860  206.6800  150.5530 C   0  0  0  0  0  0  0  0  0  0  0  0
  161.3940  204.6540  144.4820 O   0  0  0  0  0  1  0  0  0  0  0  0
  160.9090  203.3120  151.8720 N   0  0  0  0  0  0  0  0  0  0  0  0
  161.3410  200.0270  147.4410 O   0  0  0  0  0  1  0  0  0  0  0  0
  160.9510  207.3530  149.3340 C   0  0  0  0  0  3  0  0  0  0  0  0
  160.9340  205.2770  150.5750 C   0  0  0  0  0  0  0  0  0  0  0  0
  161.2230  204.5940  146.8860 C   0  0  0  0  0  3  0  0  0  0  0  0
  161.1600  200.3010  149.8280 C   0  0  0  0  0  3  0  0  0  0  0  0
  161.0610  206.6560  148.1390 C   0  0  0  0  0  0  0  0  0  0  0  0
  161.1220  207.3790  146.9440 C   0  0  0  0  0  3  0  0  0  0  0  0
  160.8690  204.6370  151.7720 N   0  0  0  0  0  0  0  0  0  0  0  0
  161.0150  202.5240  150.7790 C   0  0  0  0  0  0  0  0  0  0  0  0
  161.0500  201.1350  150.9400 C   0  0  0  0  0  3  0  0  0  0  0  0
  162.4370  209.0130  151.4610 O   0  0  0  0  0  0  0  0  0  0  0  0
  161.5440  208.5360  152.2120 C   0  0  0  0  0  0  0  0  0  0  0  0
  160.7720  207.3990  151.7930 N   0  0  0  0  0  2  0  0  0  0  0  0
  160.7830  210.3390  156.0030 C   0  0  0  0  0  0  0  0  0  0  0  0
  161.2450  210.5420  153.6520 C   0  0  0  0  0  3  0  0  0  0  0  0
  161.0750  207.0180  154.6460 F   0  0  0  0  0  0  0  0  0  0  0  0
  160.5420  210.9060  157.2100 F   0  0  0  0  0  0  0  0  0  0  0  0
  160.9980  211.1430  154.8850 C   0  0  0  0  0  3  0  0  0  0  0  0
  161.0560  208.3730  154.6930 C   0  0  0  0  0  0  0  0  0  0  0  0
  161.2790  209.1460  153.5350 C   0  0  0  0  0  0  0  0  0  0  0  0
  160.8170  208.9850  155.8840 N   0  0  0  0  0  0  0  0  0  0  0  0
  1  6  2  0  0  0  0
  1 14  1  0  0  0  0
  2  3  2  0  0  0  0
  2 13  1  0  0  0  0
  3 19  1  0  0  0  0
  4 15  1  0  0  0  0
  5 16  1  0  0  0  0
  5  2  1  0  0  0  0
  6 17  1  0  0  0  0
  7  4  2  0  0  0  0
  7  3  1  0  0  0  0
  8 13  1  0  0  0  0
  8 23  1  0  0  0  0
  9  1  1  0  0  0  0
 11  4  1  0  0  0  0
 12  8  2  0  0  0  0
 13 18  2  0  0  0  0
 14  5  2  0  0  0  0
 15 20  2  0  0  0  0
 16 12  1  0  0  0  0
 17 16  2  0  0  0  0
 18 10  1  0  0  0  0
 19 20  1  0  0  0  0
 19 10  2  0  0  0  0
 21 22  2  0  0  0  0
 22 30  1  0  0  0  0
 23 22  1  0  0  0  0
 24 27  1  0  0  0  0
 25 28  1  0  0  0  0
 26 29  1  0  0  0  0
 28 24  2  0  0  0  0
 29 31  2  0  0  0  0
 30 25  2  0  0  0  0
 30 29  1  0  0  0  0
 31 24  1  0  0  0  0
M  END
>  <MODEL>
2

>  <REMARK>
 VINA RESULT:      -9.5      1.616      4.075
  Name = 
  2 active torsions:
  status: ('A' for Active; 'I' for Inactive)
    1  A    between atoms: C_5  and  C_30
    2  A    between atoms: C_10  and  N_16
                            x       y       z     vdW  Elec       q    Type
                         _______ _______ _______ _____ _____    ______ ____

>  <TORSDO>
F 2

$$$$
=
 OpenBabel11122413223D

 31 35  0  0  0  0  0  0  0  0999 V2000
  161.8320  210.7320  149.9980 C   0  0  0  0  0  0  0  0  0  0  0  0
  161.3380  207.2350  151.3120 C   0  0  0  0  0  0  0  0  0  0  0  0
  161.1480  207.3450  152.7220 C   0  0  0  0  0  0  0  0  0  0  0  0
  160.9710  208.6360  154.7900 C   0  0  0  0  0  0  0  0  0  0  0  0
  161.5590  208.3420  150.4320 C   0  0  0  0  0  0  0  0  0  0  0  0
  162.0010  210.4810  148.6380 C   0  0  0  0  0  3  0  0  0  0  0  0
  161.1600  208.5740  153.4080 C   0  0  0  0  0  3  0  0  0  0  0  0
  161.4780  205.7230  149.3730 C   0  0  0  0  0  0  0  0  0  0  0  0
  161.8800  212.0350  150.4740 O   0  0  0  0  0  1  0  0  0  0  0  0
  160.9180  204.9640  152.8650 N   0  0  0  0  0  0  0  0  0  0  0  0
  160.9880  209.8630  155.4380 O   0  0  0  0  0  1  0  0  0  0  0  0
  161.6920  206.8160  148.5370 C   0  0  0  0  0  3  0  0  0  0  0  0
  161.3010  205.9270  150.7510 C   0  0  0  0  0  0  0  0  0  0  0  0
  161.6140  209.6740  150.8820 C   0  0  0  0  0  3  0  0  0  0  0  0
  160.7640  207.4650  155.5180 C   0  0  0  0  0  3  0  0  0  0  0  0
  161.7350  208.1070  149.0450 C   0  0  0  0  0  0  0  0  0  0  0  0
  161.9530  209.1690  148.1630 C   0  0  0  0  0  3  0  0  0  0  0  0
  161.0940  204.8500  151.5520 N   0  0  0  0  0  0  0  0  0  0  0  0
  160.9380  206.1690  153.4790 C   0  0  0  0  0  0  0  0  0  0  0  0
  160.7490  206.2330  154.8630 C   0  0  0  0  0  3  0  0  0  0  0  0
  161.0480  204.8640  146.5890 O   0  0  0  0  0  0  0  0  0  0  0  0
  161.2210  203.9930  147.4840 C   0  0  0  0  0  0  0  0  0  0  0  0
  161.4330  204.3840  148.8500 N   0  0  0  0  0  2  0  0  0  0  0  0
  161.1970  199.8360  146.5230 C   0  0  0  0  0  0  0  0  0  0  0  0
  161.5350  201.6070  148.1140 C   0  0  0  0  0  3  0  0  0  0  0  0
  160.5500  202.9580  144.8520 F   0  0  0  0  0  0  0  0  0  0  0  0
  161.1880  198.5170  146.2130 F   0  0  0  0  0  0  0  0  0  0  0  0
  161.5320  200.2460  147.8130 C   0  0  0  0  0  3  0  0  0  0  0  0
  160.8770  202.0930  145.8440 C   0  0  0  0  0  0  0  0  0  0  0  0
  161.2090  202.5540  147.1350 C   0  0  0  0  0  0  0  0  0  0  0  0
  160.8810  200.7590  145.5770 N   0  0  0  0  0  0  0  0  0  0  0  0
  1  9  1  0  0  0  0
  1 14  1  0  0  0  0
  2  3  1  0  0  0  0
  3  7  2  0  0  0  0
  3 19  1  0  0  0  0
  4 11  1  0  0  0  0
  4 15  2  0  0  0  0
  5 14  2  0  0  0  0
  5  2  1  0  0  0  0
  6  1  2  0  0  0  0
  7  4  1  0  0  0  0
  8 13  1  0  0  0  0
 10 19  1  0  0  0  0
 12 16  1  0  0  0  0
 12  8  2  0  0  0  0
 13  2  2  0  0  0  0
 13 18  1  0  0  0  0
 16  5  1  0  0  0  0
 17  6  1  0  0  0  0
 17 16  2  0  0  0  0
 18 10  2  0  0  0  0
 19 20  2  0  0  0  0
 20 15  1  0  0  0  0
 21 22  2  0  0  0  0
 22 23  1  0  0  0  0
 23  8  1  0  0  0  0
 24 28  1  0  0  0  0
 26 29  1  0  0  0  0
 27 24  1  0  0  0  0
 28 25  2  0  0  0  0
 29 30  2  0  0  0  0
 30 22  1  0  0  0  0
 30 25  1  0  0  0  0
 31 29  1  0  0  0  0
 31 24  2  0  0  0  0
M  END
>  <MODEL>
3

>  <REMARK>
 VINA RESULT:      -8.7      4.429      9.217
  Name = 
  2 active torsions:
  status: ('A' for Active; 'I' for Inactive)
    1  A    between atoms: C_5  and  C_30
    2  A    between atoms: C_10  and  N_16
                            x       y       z     vdW  Elec       q    Type
                         _______ _______ _______ _____ _____    ______ ____

>  <TORSDO>
F 2

$$$$
=
 OpenBabel11122413223D

 31 35  0  0  0  0  0  0  0  0999 V2000
  161.7830  211.7790  149.6460 C   0  0  0  0  0  0  0  0  0  0  0  0
  161.4030  208.4270  151.3250 C   0  0  0  0  0  0  0  0  0  0  0  0
  161.2410  208.6780  152.7210 C   0  0  0  0  0  0  0  0  0  0  0  0
  161.0800  210.1720  154.6480 C   0  0  0  0  0  0  0  0  0  0  0  0
  161.5780  209.4410  150.3310 C   0  0  0  0  0  0  0  0  0  0  0  0
  161.9280  211.3920  148.3150 C   0  0  0  0  0  3  0  0  0  0  0  0
  161.2400  209.9710  153.2760 C   0  0  0  0  0  3  0  0  0  0  0  0
  161.5350  206.7250  149.5500 C   0  0  0  0  0  0  0  0  0  0  0  0
  161.8100  213.1250  149.9840 O   0  0  0  0  0  1  0  0  0  0  0  0
  161.0710  206.3200  153.1140 N   0  0  0  0  0  0  0  0  0  0  0  0
  161.0810  211.4590  155.1660 O   0  0  0  0  0  1  0  0  0  0  0  0
  161.7050  207.7310  148.6000 C   0  0  0  0  0  3  0  0  0  0  0  0
  161.3850  207.0680  150.9030 C   0  0  0  0  0  0  0  0  0  0  0  0
  161.6100  210.8140  150.6400 C   0  0  0  0  0  3  0  0  0  0  0  0
  160.9180  209.0780  155.4980 C   0  0  0  0  0  3  0  0  0  0  0  0
  161.7280  209.0680  148.9710 C   0  0  0  0  0  0  0  0  0  0  0  0
  161.9010  210.0380  147.9790 C   0  0  0  0  0  3  0  0  0  0  0  0
  161.2210  206.0740  151.8160 N   0  0  0  0  0  0  0  0  0  0  0  0
  161.0760  207.5820  153.5990 C   0  0  0  0  0  0  0  0  0  0  0  0
  160.9170  207.7860  154.9740 C   0  0  0  0  0  3  0  0  0  0  0  0
  160.7720  205.5580  146.9560 O   0  0  0  0  0  0  0  0  0  0  0  0
  161.1330  204.7960  147.8930 C   0  0  0  0  0  0  0  0  0  0  0  0
  161.5110  205.3390  149.1680 N   0  0  0  0  0  2  0  0  0  0  0  0
  161.2450  200.5660  147.3490 C   0  0  0  0  0  0  0  0  0  0  0  0
  161.1760  202.4810  148.8010 C   0  0  0  0  0  3  0  0  0  0  0  0
  161.2040  203.5150  145.2850 F   0  0  0  0  0  0  0  0  0  0  0  0
  161.2820  199.2230  147.1700 F   0  0  0  0  0  0  0  0  0  0  0  0
  161.2130  201.0970  148.6370 C   0  0  0  0  0  3  0  0  0  0  0  0
  161.2060  202.7480  146.4040 C   0  0  0  0  0  0  0  0  0  0  0  0
  161.1730  203.3300  147.6870 C   0  0  0  0  0  0  0  0  0  0  0  0
  161.2420  201.3950  146.2710 N   0  0  0  0  0  0  0  0  0  0  0  0
  1  9  1  0  0  0  0
  1 14  1  0  0  0  0
  2  3  1  0  0  0  0
  3  7  2  0  0  0  0
  3 19  1  0  0  0  0
  4 11  1  0  0  0  0
  4 15  2  0  0  0  0
  5 14  2  0  0  0  0
  5  2  1  0  0  0  0
  6  1  2  0  0  0  0
  7  4  1  0  0  0  0
  8 13  1  0  0  0  0
 10 19  1  0  0  0  0
 12 16  1  0  0  0  0
 12  8  2  0  0  0  0
 13  2  2  0  0  0  0
 13 18  1  0  0  0  0
 16  5  1  0  0  0  0
 17  6  1  0  0  0  0
 17 16  2  0  0  0  0
 18 10  2  0  0  0  0
 19 20  2  0  0  0  0
 20 15  1  0  0  0  0
 21 22  2  0  0  0  0
 22 23  1  0  0  0  0
 23  8  1  0  0  0  0
 24 28  1  0  0  0  0
 26 29  1  0  0  0  0
 27 24  1  0  0  0  0
 28 25  2  0  0  0  0
 29 30  2  0  0  0  0
 30 22  1  0  0  0  0
 30 25  1  0  0  0  0
 31 29  1  0  0  0  0
 31 24  2  0  0  0  0
M  END
>  <MODEL>
4

>  <REMARK>
 VINA RESULT:      -7.9      4.317      9.134
  Name = 
  2 active torsions:
  status: ('A' for Active; 'I' for Inactive)
    1  A    between atoms: C_5  and  C_30
    2  A    between atoms: C_10  and  N_16
                            x       y       z     vdW  Elec       q    Type
                         _______ _______ _______ _____ _____    ______ ____

>  <TORSDO>
F 2

$$$$
=
 OpenBabel11122413223D

 31 35  0  0  0  0  0  0  0  0999 V2000
  160.9390  210.5840  154.4780 C   0  0  0  0  0  0  0  0  0  0  0  0
  161.3670  209.3320  150.9500 C   0  0  0  0  0  0  0  0  0  0  0  0
  161.4390  210.4820  150.1080 C   0  0  0  0  0  0  0  0  0  0  0  0
  161.4290  212.8970  149.7340 C   0  0  0  0  0  0  0  0  0  0  0  0
  161.2050  209.3740  152.3710 C   0  0  0  0  0  0  0  0  0  0  0  0
  160.8850  209.3820  155.1800 C   0  0  0  0  0  3  0  0  0  0  0  0
  161.3550  211.7990  150.5940 C   0  0  0  0  0  3  0  0  0  0  0  0
  161.4050  206.8720  151.0710 C   0  0  0  0  0  0  0  0  0  0  0  0
  160.8370  211.7900  155.1590 O   0  0  0  0  0  1  0  0  0  0  0  0
  161.6860  209.0530  148.1990 N   0  0  0  0  0  0  0  0  0  0  0  0
  161.3440  214.1850  150.2420 O   0  0  0  0  0  1  0  0  0  0  0  0
  161.2470  206.9380  152.4540 C   0  0  0  0  0  3  0  0  0  0  0  0
  161.4650  208.0580  150.3220 C   0  0  0  0  0  0  0  0  0  0  0  0
  161.0970  210.5780  153.0910 C   0  0  0  0  0  3  0  0  0  0  0  0
  161.5900  212.6970  148.3630 C   0  0  0  0  0  3  0  0  0  0  0  0
  161.1470  208.1610  153.1040 C   0  0  0  0  0  0  0  0  0  0  0  0
  160.9890  208.1720  154.4930 C   0  0  0  0  0  3  0  0  0  0  0  0
  161.6200  207.9750  148.9740 N   0  0  0  0  0  0  0  0  0  0  0  0
  161.6010  210.3010  148.7150 C   0  0  0  0  0  0  0  0  0  0  0  0
  161.6740  211.4010  147.8540 C   0  0  0  0  0  3  0  0  0  0  0  0
  159.6820  204.5010  151.3560 O   0  0  0  0  0  0  0  0  0  0  0  0
  160.6530  204.4650  150.5530 C   0  0  0  0  0  0  0  0  0  0  0  0
  161.5090  205.6070  150.3950 N   0  0  0  0  0  2  0  0  0  0  0  0
  161.4160  200.9130  148.3160 C   0  0  0  0  0  0  0  0  0  0  0  0
  160.9180  201.9960  150.4040 C   0  0  0  0  0  3  0  0  0  0  0  0
  161.1940  204.4520  147.6980 F   0  0  0  0  0  0  0  0  0  0  0  0
  161.6590  199.7880  147.6010 F   0  0  0  0  0  0  0  0  0  0  0  0
  161.1660  200.8280  149.6850 C   0  0  0  0  0  3  0  0  0  0  0  0
  161.1790  203.2790  148.3770 C   0  0  0  0  0  0  0  0  0  0  0  0
  160.9210  203.2420  149.7630 C   0  0  0  0  0  0  0  0  0  0  0  0
  161.4180  202.1240  147.6990 N   0  0  0  0  0  0  0  0  0  0  0  0
  1  9  1  0  0  0  0
  1  6  1  0  0  0  0
  2  5  1  0  0  0  0
  3  7  2  0  0  0  0
  3  2  1  0  0  0  0
  4 11  1  0  0  0  0
  4  7  1  0  0  0  0
  5 14  1  0  0  0  0
  5 16  2  0  0  0  0
  8 12  2  0  0  0  0
 10 19  1  0  0  0  0
 10 18  2  0  0  0  0
 12 16  1  0  0  0  0
 13  2  2  0  0  0  0
 13  8  1  0  0  0  0
 14  1  2  0  0  0  0
 15  4  2  0  0  0  0
 16 17  1  0  0  0  0
 17  6  2  0  0  0  0
 18 13  1  0  0  0  0
 19  3  1  0  0  0  0
 20 15  1  0  0  0  0
 20 19  2  0  0  0  0
 22 21  2  0  0  0  0
 23 22  1  0  0  0  0
 23  8  1  0  0  0  0
 24 28  1  0  0  0  0
 26 29  1  0  0  0  0
 27 24  1  0  0  0  0
 28 25  2  0  0  0  0
 29 30  2  0  0  0  0
 30 25  1  0  0  0  0
 30 22  1  0  0  0  0
 31 24  2  0  0  0  0
 31 29  1  0  0  0  0
M  END
>  <MODEL>
5

>  <REMARK>
 VINA RESULT:      -7.9      4.210      8.017
  Name = 
  2 active torsions:
  status: ('A' for Active; 'I' for Inactive)
    1  A    between atoms: C_5  and  C_30
    2  A    between atoms: C_10  and  N_16
                            x       y       z     vdW  Elec       q    Type
                         _______ _______ _______ _____ _____    ______ ____

>  <TORSDO>
F 2

$$$$
=
 OpenBabel11122413223D

 31 35  0  0  0  0  0  0  0  0999 V2000
  161.5690  212.5460  149.7760 C   0  0  0  0  0  0  0  0  0  0  0  0
  161.1430  209.3270  151.6900 C   0  0  0  0  0  0  0  0  0  0  0  0
  160.8520  209.6840  153.0410 C   0  0  0  0  0  0  0  0  0  0  0  0
  160.4770  211.3210  154.8170 C   0  0  0  0  0  0  0  0  0  0  0  0
  161.3740  210.2650  150.6330 C   0  0  0  0  0  0  0  0  0  0  0  0
  161.8410  212.0580  148.4990 C   0  0  0  0  0  3  0  0  0  0  0  0
  160.7630  211.0170  153.4840 C   0  0  0  0  0  3  0  0  0  0  0  0
  161.4820  207.4950  150.0800 C   0  0  0  0  0  0  0  0  0  0  0  0
  161.5250  213.9150  150.0020 O   0  0  0  0  0  1  0  0  0  0  0  0
  160.7190  207.3600  153.6130 N   0  0  0  0  0  0  0  0  0  0  0  0
  160.3950  212.6450  155.2240 O   0  0  0  0  0  1  0  0  0  0  0  0
  161.7040  208.4260  149.0680 C   0  0  0  0  0  3  0  0  0  0  0  0
  161.2030  207.9390  151.3820 C   0  0  0  0  0  0  0  0  0  0  0  0
  161.3380  211.6580  150.8290 C   0  0  0  0  0  3  0  0  0  0  0  0
  160.2740  210.2940  155.7370 C   0  0  0  0  0  3  0  0  0  0  0  0
  161.6540  209.7890  149.3270 C   0  0  0  0  0  0  0  0  0  0  0  0
  161.8840  210.6820  148.2760 C   0  0  0  0  0  3  0  0  0  0  0  0
  160.9890  207.0170  152.3580 N   0  0  0  0  0  0  0  0  0  0  0  0
  160.6440  208.6570  153.9910 C   0  0  0  0  0  0  0  0  0  0  0  0
  160.3580  208.9640  155.3250 C   0  0  0  0  0  3  0  0  0  0  0  0
  160.0680  205.9770  147.9890 O   0  0  0  0  0  0  0  0  0  0  0  0
  160.8310  205.3670  148.7860 C   0  0  0  0  0  0  0  0  0  0  0  0
  161.5330  206.0830  149.8140 N   0  0  0  0  0  2  0  0  0  0  0  0
  161.3670  201.1520  148.3970 C   0  0  0  0  0  0  0  0  0  0  0  0
  161.3860  203.3550  147.4330 C   0  0  0  0  0  3  0  0  0  0  0  0
  160.4640  203.4930  150.9770 F   0  0  0  0  0  0  0  0  0  0  0  0
  161.5360  199.8130  148.2790 F   0  0  0  0  0  0  0  0  0  0  0  0
  161.5640  201.9790  147.2920 C   0  0  0  0  0  3  0  0  0  0  0  0
  160.8250  203.0260  149.7560 C   0  0  0  0  0  0  0  0  0  0  0  0
  161.0120  203.9020  148.6670 C   0  0  0  0  0  0  0  0  0  0  0  0
  161.0050  201.6880  149.5920 N   0  0  0  0  0  0  0  0  0  0  0  0
  1  9  1  0  0  0  0
  1 14  1  0  0  0  0
  2  3  1  0  0  0  0
  3  7  2  0  0  0  0
  3 19  1  0  0  0  0
  4 11  1  0  0  0  0
  4 15  2  0  0  0  0
  5 14  2  0  0  0  0
  5  2  1  0  0  0  0
  6  1  2  0  0  0  0
  7  4  1  0  0  0  0
  8 13  1  0  0  0  0
 10 19  1  0  0  0  0
 12 16  1  0  0  0  0
 12  8  2  0  0  0  0
 13  2  2  0  0  0  0
 13 18  1  0  0  0  0
 16  5  1  0  0  0  0
 17  6  1  0  0  0  0
 17 16  2  0  0  0  0
 18 10  2  0  0  0  0
 19 20  2  0  0  0  0
 20 15  1  0  0  0  0
 21 22  2  0  0  0  0
 22 23  1  0  0  0  0
 23  8  1  0  0  0  0
 24 31  1  0  0  0  0
 25 30  2  0  0  0  0
 27 24  1  0  0  0  0
 28 25  1  0  0  0  0
 28 24  2  0  0  0  0
 29 26  1  0  0  0  0
 30 22  1  0  0  0  0
 30 29  1  0  0  0  0
 31 29  2  0  0  0  0
M  END
>  <MODEL>
6

>  <REMARK>
 VINA RESULT:      -7.8      3.992      8.929
  Name = 
  2 active torsions:
  status: ('A' for Active; 'I' for Inactive)
    1  A    between atoms: C_5  and  C_30
    2  A    between atoms: C_10  and  N_16
                            x       y       z     vdW  Elec       q    Type
                         _______ _______ _______ _____ _____    ______ ____

>  <TORSDO>
F 2

$$$$
=
 OpenBabel11122413223D

 31 35  0  0  0  0  0  0  0  0999 V2000
  160.9830  208.8490  154.3970 C   0  0  0  0  0  0  0  0  0  0  0  0
  161.4720  208.0970  150.7370 C   0  0  0  0  0  0  0  0  0  0  0  0
  161.5810  209.3520  150.0670 C   0  0  0  0  0  0  0  0  0  0  0  0
  161.6180  211.7960  150.0370 C   0  0  0  0  0  0  0  0  0  0  0  0
  161.2780  207.9420  152.1460 C   0  0  0  0  0  0  0  0  0  0  0  0
  160.8940  207.5610  154.9210 C   0  0  0  0  0  3  0  0  0  0  0  0
  161.5070  210.5900  150.7320 C   0  0  0  0  0  3  0  0  0  0  0  0
  161.4690  205.6440  150.5110 C   0  0  0  0  0  0  0  0  0  0  0  0
  160.8830  209.9490  155.2380 O   0  0  0  0  0  1  0  0  0  0  0  0
  161.8500  208.2020  147.9810 N   0  0  0  0  0  0  0  0  0  0  0  0
  161.5410  213.0010  150.7200 O   0  0  0  0  0  1  0  0  0  0  0  0
  161.2800  205.5190  151.8860 C   0  0  0  0  0  3  0  0  0  0  0  0
  161.5650  206.9230  149.9380 C   0  0  0  0  0  0  0  0  0  0  0  0
  161.1720  209.0350  153.0270 C   0  0  0  0  0  3  0  0  0  0  0  0
  161.8070  211.7880  148.6550 C   0  0  0  0  0  3  0  0  0  0  0  0
  161.1840  206.6390  152.6990 C   0  0  0  0  0  0  0  0  0  0  0  0
  160.9940  206.4580  154.0720 C   0  0  0  0  0  3  0  0  0  0  0  0
  161.7490  207.0270  148.5950 N   0  0  0  0  0  0  0  0  0  0  0  0
  161.7720  209.3660  148.6660 C   0  0  0  0  0  0  0  0  0  0  0  0
  161.8830  210.5750  147.9710 C   0  0  0  0  0  3  0  0  0  0  0  0
  159.7130  203.2820  150.4350 O   0  0  0  0  0  0  0  0  0  0  0  0
  160.6970  203.3450  149.6490 C   0  0  0  0  0  0  0  0  0  0  0  0
  161.5690  204.4860  149.6650 N   0  0  0  0  0  2  0  0  0  0  0  0
  161.4530  200.1940  146.8740 C   0  0  0  0  0  0  0  0  0  0  0  0
  160.8290  202.4720  147.3240 C   0  0  0  0  0  3  0  0  0  0  0  0
  161.4960  200.6650  150.4420 F   0  0  0  0  0  0  0  0  0  0  0  0
  161.6930  199.1900  145.9960 F   0  0  0  0  0  0  0  0  0  0  0  0
  161.0730  201.4510  146.4060 C   0  0  0  0  0  3  0  0  0  0  0  0
  161.3490  200.9530  149.1250 C   0  0  0  0  0  0  0  0  0  0  0  0
  160.9620  202.2410  148.6990 C   0  0  0  0  0  0  0  0  0  0  0  0
  161.5810  199.9750  148.2090 N   0  0  0  0  0  0  0  0  0  0  0  0
  1  6  1  0  0  0  0
  1  9  1  0  0  0  0
  2  5  1  0  0  0  0
  3  7  2  0  0  0  0
  3  2  1  0  0  0  0
  4 11  1  0  0  0  0
  4  7  1  0  0  0  0
  5 16  2  0  0  0  0
  5 14  1  0  0  0  0
  8 12  2  0  0  0  0
 10 18  2  0  0  0  0
 10 19  1  0  0  0  0
 12 16  1  0  0  0  0
 13  8  1  0  0  0  0
 13  2  2  0  0  0  0
 14  1  2  0  0  0  0
 15  4  2  0  0  0  0
 16 17  1  0  0  0  0
 17  6  2  0  0  0  0
 18 13  1  0  0  0  0
 19  3  1  0  0  0  0
 20 15  1  0  0  0  0
 20 19  2  0  0  0  0
 22 23  1  0  0  0  0
 22 21  2  0  0  0  0
 23  8  1  0  0  0  0
 24 31  1  0  0  0  0
 25 30  2  0  0  0  0
 27 24  1  0  0  0  0
 28 24  2  0  0  0  0
 28 25  1  0  0  0  0
 29 26  1  0  0  0  0
 30 29  1  0  0  0  0
 30 22  1  0  0  0  0
 31 29  2  0  0  0  0
M  END
>  <MODEL>
7

>  <REMARK>
 VINA RESULT:      -7.8      4.248      8.006
  Name = 
  2 active torsions:
  status: ('A' for Active; 'I' for Inactive)
    1  A    between atoms: C_5  and  C_30
    2  A    between atoms: C_10  and  N_16
                            x       y       z     vdW  Elec       q    Type
                         _______ _______ _______ _____ _____    ______ ____

>  <TORSDO>
F 2

$$$$
