=
 OpenBabel11122414263D

 34 41  0  0  1  0  0  0  0  0999 V2000
  161.0790  205.0320  152.1370 C   0  0  0  0  0  0  0  0  0  0  0  0
  161.1360  206.4700  154.0940 C   0  0  0  0  0  3  0  0  0  0  0  0
  162.2320  203.8550  145.9130 C   0  0  2  0  0  3  0  0  0  0  0  0
  161.0340  203.7790  150.0270 C   0  0  0  0  0  0  0  0  0  0  0  0
  161.4250  204.9140  147.9610 C   0  0  0  0  0  0  0  0  0  0  0  0
  162.1800  205.9680  145.6720 C   0  0  0  0  0  2  0  0  0  0  0  0
  162.8160  204.8130  144.8990 C   0  0  0  0  0  2  0  0  0  0  0  0
  160.3830  202.3520  146.6360 C   0  0  0  0  0  2  0  0  0  0  0  0
  161.4860  207.3840  152.1300 C   0  0  0  0  0  0  0  0  0  0  0  0
  162.1660  210.3990  151.6270 C   0  0  0  0  0  2  0  0  0  0  0  0
  161.5520  206.1300  148.6380 C   0  0  0  0  0  3  0  0  0  0  0  0
  161.1030  202.4060  148.0010 C   0  0  0  0  0  2  0  0  0  0  0  0
  161.5970  207.4170  150.7210 C   0  0  0  0  0  0  0  0  0  0  0  0
  161.3220  207.8250  154.3230 C   0  0  0  0  0  3  0  0  0  0  0  0
  161.1430  203.7450  148.6550 N   0  0  0  0  0  0  0  0  0  0  0  0
  161.3080  202.7400  145.4620 C   0  0  0  0  0  2  0  0  0  0  0  0
  161.7010  209.8200  152.8800 N   0  0  0  0  0  0  0  0  0  0  0  0
  161.1860  204.9980  150.7300 C   0  0  0  0  0  0  0  0  0  0  0  0
  161.3750  204.9540  146.4650 C   0  0  1  0  0  3  0  0  0  0  0  0
  161.4510  206.1910  150.0270 C   0  0  0  0  0  0  0  0  0  0  0  0
  160.6640  202.6460  152.1600 C   0  0  0  0  0  3  0  0  0  0  0  0
  161.3280  209.9120  150.4690 C   0  0  0  0  0  2  0  0  0  0  0  0
  160.7720  202.6100  150.7680 C   0  0  0  0  0  3  0  0  0  0  0  0
  161.9720  208.6510  149.9440 C   0  0  0  0  0  2  0  0  0  0  0  0
  161.5510  208.4010  153.0810 C   0  0  0  0  0  0  0  0  0  0  0  0
  160.8160  203.8520  152.8440 C   0  0  0  0  0  3  0  0  0  0  0  0
  161.2330  206.2250  152.7720 N   0  0  0  0  0  0  0  0  0  0  0  0
  161.3520  210.6710  153.8790 O   0  0  0  0  0  0  0  0  0  0  0  0
  160.4780  211.5990  153.2980 C   0  0  0  0  0  2  0  0  0  0  0  0
  158.2710  211.8240  155.6700 O   0  0  0  0  0  0  0  0  0  0  0  0
  158.1250  212.3500  153.3740 C   0  0  0  0  0  2  0  0  0  0  0  0
  159.0400  211.1700  153.5270 C   0  0  2  0  0  3  0  0  0  0  0  0
  157.4690  212.4810  154.7270 C   0  0  0  0  0  2  0  0  0  0  0  0
  158.8620  210.7610  154.9710 C   0  0  0  0  0  2  0  0  0  0  0  0
  1 27  1  0  0  0  0
  1 26  1  0  0  0  0
  2 14  2  0  0  0  0
  3  7  1  6  0  0  0
  3 19  1  0  0  0  0
  4 18  1  0  0  0  0
  4 23  2  0  0  0  0
  5 11  2  0  0  0  0
  5 15  1  0  0  0  0
  7  6  1  0  0  0  0
  8 12  1  0  0  0  0
  9 27  1  0  0  0  0
  9 25  2  0  0  0  0
 10 17  1  0  0  0  0
 11 20  1  0  0  0  0
 12 15  1  0  0  0  0
 13  9  1  0  0  0  0
 15  4  1  0  0  0  0
 16  3  1  0  0  0  0
 16  8  1  0  0  0  0
 17 25  1  0  0  0  0
 17 28  1  0  0  0  0
 18  1  2  0  0  0  0
 19  6  1  6  0  0  0
 19  5  1  0  0  0  0
 20 13  2  0  0  0  0
 20 18  1  0  0  0  0
 21 26  2  0  0  0  0
 22 10  1  0  0  0  0
 23 21  1  0  0  0  0
 24 22  1  0  0  0  0
 24 13  1  0  0  0  0
 25 14  1  0  0  0  0
 27  2  1  0  0  0  0
 29 28  1  0  0  0  0
 31 32  1  0  0  0  0
 31 33  1  0  0  0  0
 32 29  1  1  0  0  0
 32 34  1  0  0  0  0
 33 30  1  0  0  0  0
 34 30  1  0  0  0  0
M  END
>  <MODEL>
1

>  <REMARK>
 VINA RESULT:      -9.6      0.000      0.000
  Name = 
  3 active torsions:
  status: ('A' for Active; 'I' for Inactive)
    1  A    between atoms: N_17  and  O_28
    2  A    between atoms: O_28  and  C_29
    3  A    between atoms: C_29  and  C_32
                            x       y       z     vdW  Elec       q    Type
                         _______ _______ _______ _____ _____    ______ ____

>  <TORSDO>
F 3

$$$$
=
 OpenBabel11122414263D

 34 41  0  0  1  0  0  0  0  0999 V2000
  161.6430  207.5580  149.5630 C   0  0  0  0  0  0  0  0  0  0  0  0
  161.5700  205.8730  147.8140 C   0  0  0  0  0  3  0  0  0  0  0  0
  161.9380  209.3240  155.7470 C   0  0  2  0  0  3  0  0  0  0  0  0
  161.6350  209.0920  151.4790 C   0  0  0  0  0  0  0  0  0  0  0  0
  161.2170  208.2490  153.6750 C   0  0  0  0  0  0  0  0  0  0  0  0
  161.1200  207.4040  156.1650 C   0  0  0  0  0  2  0  0  0  0  0  0
  161.9560  208.4120  156.9540 C   0  0  0  0  0  2  0  0  0  0  0  0
  160.8870  211.1900  154.4780 C   0  0  0  0  0  2  0  0  0  0  0  0
  161.2100  205.2320  149.8820 C   0  0  0  0  0  0  0  0  0  0  0  0
  160.7070  202.2840  150.8080 C   0  0  0  0  0  2  0  0  0  0  0  0
  161.0440  206.9610  153.1620 C   0  0  0  0  0  3  0  0  0  0  0  0
  161.7880  210.6880  153.3300 C   0  0  0  0  0  2  0  0  0  0  0  0
  161.0360  205.4000  151.2760 C   0  0  0  0  0  0  0  0  0  0  0  0
  161.3200  204.5100  147.7620 C   0  0  0  0  0  3  0  0  0  0  0  0
  161.4890  209.3160  152.8300 N   0  0  0  0  0  0  0  0  0  0  0  0
  161.3850  210.7300  155.8670 C   0  0  0  0  0  2  0  0  0  0  0  0
  160.7130  202.7650  149.4330 N   0  0  0  0  0  0  0  0  0  0  0  0
  161.4890  207.7890  150.9470 C   0  0  0  0  0  0  0  0  0  0  0  0
  160.8770  208.4750  155.1160 C   0  0  1  0  0  3  0  0  0  0  0  0
  161.1910  206.7060  151.8000 C   0  0  0  0  0  0  0  0  0  0  0  0
  162.0830  209.9160  149.2230 C   0  0  0  0  0  3  0  0  0  0  0  0
  159.8850  203.1940  151.6880 C   0  0  0  0  0  2  0  0  0  0  0  0
  161.9330  210.1450  150.5920 C   0  0  0  0  0  3  0  0  0  0  0  0
  160.8110  204.2560  152.2290 C   0  0  0  0  0  2  0  0  0  0  0  0
  161.0990  204.1050  149.0720 C   0  0  0  0  0  0  0  0  0  0  0  0
  161.9380  208.6280  148.7080 C   0  0  0  0  0  3  0  0  0  0  0  0
  161.4940  206.2900  149.0950 N   0  0  0  0  0  0  0  0  0  0  0  0
  160.2880  201.9140  148.4630 O   0  0  0  0  0  0  0  0  0  0  0  0
  161.2990  200.9530  148.3340 C   0  0  0  0  0  2  0  0  0  0  0  0
  160.3980  199.3830  145.6370 O   0  0  0  0  0  0  0  0  0  0  0  0
  160.8320  201.6720  146.0160 C   0  0  0  0  0  2  0  0  0  0  0  0
  161.7540  200.8700  146.8870 C   0  0  2  0  0  3  0  0  0  0  0  0
  160.2510  200.6540  145.0640 C   0  0  0  0  0  2  0  0  0  0  0  0
  161.5810  199.4540  146.3870 C   0  0  0  0  0  2  0  0  0  0  0  0
  1 18  1  0  0  0  0
  2 27  1  0  0  0  0
  3 16  1  1  0  0  0
  3  7  1  0  0  0  0
  4 15  1  0  0  0  0
  5 19  1  0  0  0  0
  6  7  1  0  0  0  0
  8 16  1  0  0  0  0
  9 13  1  0  0  0  0
 10 22  1  0  0  0  0
 11  5  2  0  0  0  0
 12  8  1  0  0  0  0
 13 20  2  0  0  0  0
 13 24  1  0  0  0  0
 14  2  2  0  0  0  0
 14 25  1  0  0  0  0
 15 12  1  0  0  0  0
 15  5  1  0  0  0  0
 17 10  1  0  0  0  0
 18  4  2  0  0  0  0
 18 20  1  0  0  0  0
 19  3  1  0  0  0  0
 19  6  1  1  0  0  0
 20 11  1  0  0  0  0
 21 23  2  0  0  0  0
 22 24  1  0  0  0  0
 23  4  1  0  0  0  0
 25 17  1  0  0  0  0
 25  9  2  0  0  0  0
 26 21  1  0  0  0  0
 26  1  2  0  0  0  0
 27  1  1  0  0  0  0
 27  9  1  0  0  0  0
 28 17  1  0  0  0  0
 29 28  1  0  0  0  0
 30 34  1  0  0  0  0
 31 32  1  0  0  0  0
 32 29  1  1  0  0  0
 33 30  1  0  0  0  0
 33 31  1  0  0  0  0
 34 32  1  0  0  0  0
M  END
>  <MODEL>
2

>  <REMARK>
 VINA RESULT:      -9.4      3.335      9.203
  Name = 
  3 active torsions:
  status: ('A' for Active; 'I' for Inactive)
    1  A    between atoms: N_17  and  O_28
    2  A    between atoms: O_28  and  C_29
    3  A    between atoms: C_29  and  C_32
                            x       y       z     vdW  Elec       q    Type
                         _______ _______ _______ _____ _____    ______ ____

>  <TORSDO>
F 3

$$$$
=
 OpenBabel11122414263D

 34 41  0  0  1  0  0  0  0  0999 V2000
  161.6510  208.4670  150.2710 C   0  0  0  0  0  0  0  0  0  0  0  0
  161.6580  210.2880  151.8800 C   0  0  0  0  0  3  0  0  0  0  0  0
  160.2920  202.4180  148.5380 C   0  0  2  0  0  3  0  0  0  0  0  0
  161.6280  206.4790  148.8320 C   0  0  0  0  0  0  0  0  0  0  0  0
  161.1650  204.3340  149.7770 C   0  0  0  0  0  0  0  0  0  0  0  0
  160.3300  201.9850  150.6200 C   0  0  0  0  0  2  0  0  0  0  0  0
  159.6710  201.3420  149.4010 C   0  0  0  0  0  2  0  0  0  0  0  0
  162.1670  203.2110  147.1050 C   0  0  0  0  0  2  0  0  0  0  0  0
  161.2400  208.2620  152.6140 C   0  0  0  0  0  0  0  0  0  0  0  0
  160.5370  207.5120  155.5710 C   0  0  0  0  0  2  0  0  0  0  0  0
  161.0580  204.9020  151.0490 C   0  0  0  0  0  3  0  0  0  0  0  0
  161.4930  204.5880  147.2820 C   0  0  0  0  0  2  0  0  0  0  0  0
  161.0810  206.8600  152.5190 C   0  0  0  0  0  0  0  0  0  0  0  0
  161.4770  210.3990  153.2500 C   0  0  0  0  0  3  0  0  0  0  0  0
  161.4720  205.1200  148.6750 N   0  0  0  0  0  0  0  0  0  0  0  0
  161.2020  202.0380  147.3860 C   0  0  0  0  0  2  0  0  0  0  0  0
  161.0460  208.7950  155.1070 N   0  0  0  0  0  0  0  0  0  0  0  0
  161.4970  207.0730  150.1100 C   0  0  0  0  0  0  0  0  0  0  0  0
  161.1640  202.8390  149.6810 C   0  0  1  0  0  3  0  0  0  0  0  0
  161.2060  206.2750  151.2350 C   0  0  0  0  0  0  0  0  0  0  0  0
  162.0720  208.6920  147.8960 C   0  0  0  0  0  3  0  0  0  0  0  0
  161.3370  206.3760  154.9810 C   0  0  0  0  0  2  0  0  0  0  0  0
  161.9180  207.3130  147.7350 C   0  0  0  0  0  3  0  0  0  0  0  0
  160.6780  205.9880  153.6780 C   0  0  0  0  0  2  0  0  0  0  0  0
  161.2050  209.1190  153.7120 C   0  0  0  0  0  0  0  0  0  0  0  0
  161.9410  209.2690  149.1590 C   0  0  0  0  0  3  0  0  0  0  0  0
  161.5170  208.9970  151.5170 N   0  0  0  0  0  0  0  0  0  0  0  0
  161.4260  209.7020  156.0450 O   0  0  0  0  0  0  0  0  0  0  0  0
  160.4790  209.6030  157.0720 C   0  0  0  0  0  2  0  0  0  0  0  0
  160.4650  212.5150  155.6340 O   0  0  0  0  0  0  0  0  0  0  0  0
  158.6860  211.0860  156.2400 C   0  0  0  0  0  2  0  0  0  0  0  0
  159.7770  210.9360  157.2610 C   0  0  2  0  0  3  0  0  0  0  0  0
  159.0900  212.3090  155.4520 C   0  0  0  0  0  2  0  0  0  0  0  0
  160.7340  212.0580  156.9330 C   0  0  0  0  0  2  0  0  0  0  0  0
  1 27  1  0  0  0  0
  2 14  2  0  0  0  0
  3 16  1  6  0  0  0
  3  7  1  0  0  0  0
  3 19  1  0  0  0  0
  4 18  2  0  0  0  0
  5 11  2  0  0  0  0
  7  6  1  0  0  0  0
  8 12  1  0  0  0  0
  8 16  1  0  0  0  0
  9 25  2  0  0  0  0
 11 20  1  0  0  0  0
 12 15  1  0  0  0  0
 13  9  1  0  0  0  0
 13 24  1  0  0  0  0
 14 25  1  0  0  0  0
 15  4  1  0  0  0  0
 15  5  1  0  0  0  0
 17 10  1  0  0  0  0
 17 28  1  0  0  0  0
 18  1  1  0  0  0  0
 18 20  1  0  0  0  0
 19  5  1  0  0  0  0
 19  6  1  1  0  0  0
 20 13  2  0  0  0  0
 21 26  1  0  0  0  0
 22 10  1  0  0  0  0
 23 21  2  0  0  0  0
 23  4  1  0  0  0  0
 24 22  1  0  0  0  0
 25 17  1  0  0  0  0
 26  1  2  0  0  0  0
 27  2  1  0  0  0  0
 27  9  1  0  0  0  0
 28 29  1  0  0  0  0
 30 34  1  0  0  0  0
 31 32  1  0  0  0  0
 32 29  1  6  0  0  0
 33 30  1  0  0  0  0
 33 31  1  0  0  0  0
 34 32  1  0  0  0  0
M  END
>  <MODEL>
3

>  <REMARK>
 VINA RESULT:      -9.1      1.545      3.845
  Name = 
  3 active torsions:
  status: ('A' for Active; 'I' for Inactive)
    1  A    between atoms: N_17  and  O_28
    2  A    between atoms: O_28  and  C_29
    3  A    between atoms: C_29  and  C_32
                            x       y       z     vdW  Elec       q    Type
                         _______ _______ _______ _____ _____    ______ ____

>  <TORSDO>
F 3

$$$$
=
 OpenBabel11122414263D

 34 41  0  0  1  0  0  0  0  0999 V2000
  160.8310  206.8170  153.8470 C   0  0  0  0  0  0  0  0  0  0  0  0
  161.3450  204.7890  152.6110 C   0  0  0  0  0  3  0  0  0  0  0  0
  158.9040  212.9520  154.1530 C   0  0  2  0  0  3  0  0  0  0  0  0
  160.3480  208.9850  154.8900 C   0  0  0  0  0  0  0  0  0  0  0  0
  160.1400  210.9390  153.5300 C   0  0  0  0  0  0  0  0  0  0  0  0
  159.5430  213.0840  152.1280 C   0  0  0  0  0  2  0  0  0  0  0  0
  158.5430  213.8520  152.9920 C   0  0  0  0  0  2  0  0  0  0  0  0
  160.2930  212.4950  156.1680 C   0  0  0  0  0  2  0  0  0  0  0  0
  161.1200  206.6570  151.4820 C   0  0  0  0  0  0  0  0  0  0  0  0
  161.3000  206.9300  148.3680 C   0  0  0  0  0  2  0  0  0  0  0  0
  160.4220  210.1890  152.3860 C   0  0  0  0  0  3  0  0  0  0  0  0
  159.7280  211.0660  156.0220 C   0  0  0  0  0  2  0  0  0  0  0  0
  160.9130  208.0460  151.3080 C   0  0  0  0  0  0  0  0  0  0  0  0
  161.5750  204.4710  151.2810 C   0  0  0  0  0  3  0  0  0  0  0  0
  160.1260  210.3400  154.7830 N   0  0  0  0  0  0  0  0  0  0  0  0
  159.4300  213.5510  155.4430 C   0  0  0  0  0  2  0  0  0  0  0  0
  161.6750  205.7610  149.1520 N   0  0  0  0  0  0  0  0  0  0  0  0
  160.6090  208.2070  153.7370 C   0  0  0  0  0  0  0  0  0  0  0  0
  160.0810  212.4290  153.3880 C   0  0  1  0  0  3  0  0  0  0  0  0
  160.6450  208.8150  152.4660 C   0  0  0  0  0  0  0  0  0  0  0  0
  160.5420  206.9630  156.2470 C   0  0  0  0  0  3  0  0  0  0  0  0
  161.8690  208.1880  148.9780 C   0  0  0  0  0  2  0  0  0  0  0  0
  160.3200  208.3370  156.1410 C   0  0  0  0  0  3  0  0  0  0  0  0
  160.8490  208.7150  149.9600 C   0  0  0  0  0  2  0  0  0  0  0  0
  161.4250  205.6520  150.5670 C   0  0  0  0  0  0  0  0  0  0  0  0
  160.7980  206.2030  155.1050 C   0  0  0  0  0  3  0  0  0  0  0  0
  161.0780  206.1070  152.7130 N   0  0  0  0  0  0  0  0  0  0  0  0
  162.3310  204.7560  148.5160 O   0  0  0  0  0  0  0  0  0  0  0  0
  161.4010  204.2010  147.6270 C   0  0  0  0  0  2  0  0  0  0  0  0
  160.4940  204.3240  144.5110 O   0  0  0  0  0  0  0  0  0  0  0  0
  162.3250  205.3150  145.6230 C   0  0  0  0  0  2  0  0  0  0  0  0
  162.0460  203.9890  146.2690 C   0  0  2  0  0  3  0  0  0  0  0  0
  161.5040  205.2840  144.3570 C   0  0  0  0  0  2  0  0  0  0  0  0
  161.0510  203.3360  145.3370 C   0  0  0  0  0  2  0  0  0  0  0  0
  1 26  1  0  0  0  0
  2 27  1  0  0  0  0
  3  7  1  6  0  0  0
  3 16  1  0  0  0  0
  4 23  2  0  0  0  0
  5 15  1  0  0  0  0
  6  7  1  0  0  0  0
  9 27  1  0  0  0  0
 10 22  1  0  0  0  0
 10 17  1  0  0  0  0
 11 20  1  0  0  0  0
 11  5  2  0  0  0  0
 12  8  1  0  0  0  0
 13  9  1  0  0  0  0
 13 20  2  0  0  0  0
 14  2  2  0  0  0  0
 15  4  1  0  0  0  0
 15 12  1  0  0  0  0
 16  8  1  0  0  0  0
 17 25  1  0  0  0  0
 18  1  2  0  0  0  0
 18  4  1  0  0  0  0
 19  6  1  6  0  0  0
 19  5  1  0  0  0  0
 19  3  1  0  0  0  0
 20 18  1  0  0  0  0
 22 24  1  0  0  0  0
 23 21  1  0  0  0  0
 24 13  1  0  0  0  0
 25 14  1  0  0  0  0
 25  9  2  0  0  0  0
 26 21  2  0  0  0  0
 27  1  1  0  0  0  0
 28 17  1  0  0  0  0
 29 28  1  0  0  0  0
 30 34  1  0  0  0  0
 31 32  1  0  0  0  0
 32 29  1  1  0  0  0
 33 30  1  0  0  0  0
 33 31  1  0  0  0  0
 34 32  1  0  0  0  0
M  END
>  <MODEL>
4

>  <REMARK>
 VINA RESULT:      -8.0      2.755      8.536
  Name = 
  3 active torsions:
  status: ('A' for Active; 'I' for Inactive)
    1  A    between atoms: N_17  and  O_28
    2  A    between atoms: O_28  and  C_29
    3  A    between atoms: C_29  and  C_32
                            x       y       z     vdW  Elec       q    Type
                         _______ _______ _______ _____ _____    ______ ____

>  <TORSDO>
F 3

$$$$
=
 OpenBabel11122414263D

 34 41  0  0  1  0  0  0  0  0999 V2000
  161.6880  208.4610  149.8480 C   0  0  0  0  0  0  0  0  0  0  0  0
  161.9180  207.1450  147.8180 C   0  0  0  0  0  3  0  0  0  0  0  0
  161.2820  209.0090  156.2490 C   0  0  2  0  0  3  0  0  0  0  0  0
  161.3750  209.5890  152.0050 C   0  0  0  0  0  0  0  0  0  0  0  0
  160.8430  208.3090  153.9510 C   0  0  0  0  0  0  0  0  0  0  0  0
  160.6050  206.9930  156.2160 C   0  0  0  0  0  2  0  0  0  0  0  0
  161.2750  207.8840  157.2610 C   0  0  0  0  0  2  0  0  0  0  0  0
  160.1850  211.0080  155.2490 C   0  0  0  0  0  2  0  0  0  0  0  0
  161.4370  206.0920  149.6820 C   0  0  0  0  0  0  0  0  0  0  0  0
  161.1180  202.9920  149.9850 C   0  0  0  0  0  2  0  0  0  0  0  0
  160.8310  207.1360  153.1920 C   0  0  0  0  0  3  0  0  0  0  0  0
  161.2240  210.8030  154.1260 C   0  0  0  0  0  2  0  0  0  0  0  0
  161.1270  205.9740  151.0570 C   0  0  0  0  0  0  0  0  0  0  0  0
  161.7960  205.8050  147.4870 C   0  0  0  0  0  3  0  0  0  0  0  0
  161.0930  209.5360  153.3510 N   0  0  0  0  0  0  0  0  0  0  0  0
  160.5980  210.3240  156.5710 C   0  0  0  0  0  2  0  0  0  0  0  0
  161.2020  203.7300  148.7320 N   0  0  0  0  0  0  0  0  0  0  0  0
  161.3930  208.4070  151.2270 C   0  0  0  0  0  0  0  0  0  0  0  0
  160.3590  208.2260  155.3660 C   0  0  1  0  0  3  0  0  0  0  0  0
  161.1190  207.1610  151.8280 C   0  0  0  0  0  0  0  0  0  0  0  0
  161.9450  210.8640  150.0000 C   0  0  0  0  0  3  0  0  0  0  0  0
  160.1450  203.6540  150.9300 C   0  0  0  0  0  2  0  0  0  0  0  0
  161.6560  210.8130  151.3650 C   0  0  0  0  0  3  0  0  0  0  0  0
  160.9220  204.6540  151.7530 C   0  0  0  0  0  2  0  0  0  0  0  0
  161.4980  205.1380  148.6690 C   0  0  0  0  0  0  0  0  0  0  0  0
  161.9610  209.6940  149.2420 C   0  0  0  0  0  3  0  0  0  0  0  0
  161.6940  207.3000  149.1390 N   0  0  0  0  0  0  0  0  0  0  0  0
  160.9410  203.0550  147.5820 O   0  0  0  0  0  0  0  0  0  0  0  0
  161.9030  203.4920  146.6610 C   0  0  0  0  0  2  0  0  0  0  0  0
  159.3650  202.0630  145.2230 O   0  0  0  0  0  0  0  0  0  0  0  0
  160.5570  204.0190  144.6570 C   0  0  0  0  0  2  0  0  0  0  0  0
  161.5220  203.0420  145.2620 C   0  0  2  0  0  3  0  0  0  0  0  0
  159.3160  203.1980  144.4030 C   0  0  0  0  0  2  0  0  0  0  0  0
  160.7290  201.7580  145.3450 C   0  0  0  0  0  2  0  0  0  0  0  0
  1 18  1  0  0  0  0
  2 27  1  0  0  0  0
  3 16  1  1  0  0  0
  3  7  1  0  0  0  0
  4 15  1  0  0  0  0
  5 19  1  0  0  0  0
  6  7  1  0  0  0  0
  8 16  1  0  0  0  0
  9 13  1  0  0  0  0
 10 22  1  0  0  0  0
 11  5  2  0  0  0  0
 12  8  1  0  0  0  0
 13 24  1  0  0  0  0
 13 20  2  0  0  0  0
 14  2  2  0  0  0  0
 14 25  1  0  0  0  0
 15  5  1  0  0  0  0
 15 12  1  0  0  0  0
 17 10  1  0  0  0  0
 18 20  1  0  0  0  0
 18  4  2  0  0  0  0
 19  6  1  1  0  0  0
 19  3  1  0  0  0  0
 20 11  1  0  0  0  0
 21 23  2  0  0  0  0
 22 24  1  0  0  0  0
 23  4  1  0  0  0  0
 25 17  1  0  0  0  0
 25  9  2  0  0  0  0
 26  1  2  0  0  0  0
 26 21  1  0  0  0  0
 27  9  1  0  0  0  0
 27  1  1  0  0  0  0
 28 17  1  0  0  0  0
 29 28  1  0  0  0  0
 30 34  1  0  0  0  0
 31 32  1  0  0  0  0
 32 34  1  0  0  0  0
 32 29  1  1  0  0  0
 33 31  1  0  0  0  0
 33 30  1  0  0  0  0
M  END
>  <MODEL>
5

>  <REMARK>
 VINA RESULT:      -7.9      3.074      8.964
  Name = 
  3 active torsions:
  status: ('A' for Active; 'I' for Inactive)
    1  A    between atoms: N_17  and  O_28
    2  A    between atoms: O_28  and  C_29
    3  A    between atoms: C_29  and  C_32
                            x       y       z     vdW  Elec       q    Type
                         _______ _______ _______ _____ _____    ______ ____

>  <TORSDO>
F 3

$$$$
=
 OpenBabel11122414263D

 34 41  0  0  1  0  0  0  0  0999 V2000
  161.0920  205.2720  151.8730 C   0  0  0  0  0  0  0  0  0  0  0  0
  161.2710  203.3360  150.4170 C   0  0  0  0  0  3  0  0  0  0  0  0
  160.0490  211.5430  152.8890 C   0  0  2  0  0  3  0  0  0  0  0  0
  160.9560  207.3630  153.1510 C   0  0  0  0  0  0  0  0  0  0  0  0
  160.9680  209.4600  152.0050 C   0  0  0  0  0  0  0  0  0  0  0  0
  160.6200  211.8010  150.8560 C   0  0  0  0  0  2  0  0  0  0  0  0
  159.7710  212.6010  151.8440 C   0  0  0  0  0  2  0  0  0  0  0  0
  161.4380  210.6940  154.7730 C   0  0  0  0  0  2  0  0  0  0  0  0
  161.2630  205.3260  149.4930 C   0  0  0  0  0  0  0  0  0  0  0  0
  161.3580  205.8990  146.4160 C   0  0  0  0  0  2  0  0  0  0  0  0
  161.0980  208.8040  150.7780 C   0  0  0  0  0  3  0  0  0  0  0  0
  160.6750  209.3770  154.5150 C   0  0  0  0  0  2  0  0  0  0  0  0
  161.2440  206.7400  149.4680 C   0  0  0  0  0  0  0  0  0  0  0  0
  161.4030  203.1320  149.0520 C   0  0  0  0  0  3  0  0  0  0  0  0
  160.9200  208.7390  153.1910 N   0  0  0  0  0  0  0  0  0  0  0  0
  160.7020  211.9270  154.2030 C   0  0  0  0  0  2  0  0  0  0  0  0
  161.5980  204.6150  147.0590 N   0  0  0  0  0  0  0  0  0  0  0  0
  161.0610  206.6830  151.9140 C   0  0  0  0  0  0  0  0  0  0  0  0
  161.1110  210.9510  152.0140 C   0  0  1  0  0  3  0  0  0  0  0  0
  161.1310  207.4120  150.7100 C   0  0  0  0  0  0  0  0  0  0  0  0
  160.9210  205.2010  154.2890 C   0  0  0  0  0  3  0  0  0  0  0  0
  162.1190  206.9980  147.1170 C   0  0  0  0  0  2  0  0  0  0  0  0
  160.8870  206.5960  154.3310 C   0  0  0  0  0  3  0  0  0  0  0  0
  161.2220  207.5500  148.1990 C   0  0  0  0  0  2  0  0  0  0  0  0
  161.3900  204.3910  148.4680 C   0  0  0  0  0  0  0  0  0  0  0  0
  161.0240  204.5390  153.0650 C   0  0  0  0  0  3  0  0  0  0  0  0
  161.1940  204.6590  150.6630 N   0  0  0  0  0  0  0  0  0  0  0  0
  162.0830  203.6040  146.2930 O   0  0  0  0  0  0  0  0  0  0  0  0
  161.0600  203.2910  145.3880 C   0  0  0  0  0  2  0  0  0  0  0  0
  160.3120  200.2500  144.5250 O   0  0  0  0  0  0  0  0  0  0  0  0
  161.0990  201.1220  146.5720 C   0  0  0  0  0  2  0  0  0  0  0  0
  160.2150  202.1530  145.9330 C   0  0  2  0  0  3  0  0  0  0  0  0
  160.8450  199.8720  145.7650 C   0  0  0  0  0  2  0  0  0  0  0  0
  159.5690  201.4120  144.7850 C   0  0  0  0  0  2  0  0  0  0  0  0
  1 18  2  0  0  0  0
  1 26  1  0  0  0  0
  2 27  1  0  0  0  0
  3  7  1  6  0  0  0
  3 16  1  0  0  0  0
  4 15  1  0  0  0  0
  4 23  2  0  0  0  0
  5 19  1  0  0  0  0
  5 15  1  0  0  0  0
  6  7  1  0  0  0  0
  9 27  1  0  0  0  0
 10 17  1  0  0  0  0
 10 22  1  0  0  0  0
 11  5  2  0  0  0  0
 12  8  1  0  0  0  0
 13  9  1  0  0  0  0
 13 20  2  0  0  0  0
 14  2  2  0  0  0  0
 15 12  1  0  0  0  0
 16  8  1  0  0  0  0
 17 25  1  0  0  0  0
 18  4  1  0  0  0  0
 19  6  1  6  0  0  0
 19  3  1  0  0  0  0
 20 11  1  0  0  0  0
 20 18  1  0  0  0  0
 21 23  1  0  0  0  0
 22 24  1  0  0  0  0
 24 13  1  0  0  0  0
 25 14  1  0  0  0  0
 25  9  2  0  0  0  0
 26 21  2  0  0  0  0
 27  1  1  0  0  0  0
 28 17  1  0  0  0  0
 29 28  1  0  0  0  0
 30 34  1  0  0  0  0
 30 33  1  0  0  0  0
 32 29  1  6  0  0  0
 32 31  1  0  0  0  0
 33 31  1  0  0  0  0
 34 32  1  0  0  0  0
M  END
>  <MODEL>
6

>  <REMARK>
 VINA RESULT:      -7.5      3.286      8.481
  Name = 
  3 active torsions:
  status: ('A' for Active; 'I' for Inactive)
    1  A    between atoms: N_17  and  O_28
    2  A    between atoms: O_28  and  C_29
    3  A    between atoms: C_29  and  C_32
                            x       y       z     vdW  Elec       q    Type
                         _______ _______ _______ _____ _____    ______ ____

>  <TORSDO>
F 3

$$$$
=
 OpenBabel11122414263D

 34 41  0  0  1  0  0  0  0  0999 V2000
  161.6610  207.4570  148.7730 C   0  0  0  0  0  0  0  0  0  0  0  0
  161.8370  209.7000  149.6900 C   0  0  0  0  0  3  0  0  0  0  0  0
  159.9970  201.2530  149.2060 C   0  0  2  0  0  3  0  0  0  0  0  0
  161.4760  205.1120  148.0730 C   0  0  0  0  0  0  0  0  0  0  0  0
  161.0140  203.4200  149.6950 C   0  0  0  0  0  0  0  0  0  0  0  0
  160.1680  201.5230  151.3100 C   0  0  0  0  0  2  0  0  0  0  0  0
  159.4060  200.5510  150.4090 C   0  0  0  0  0  2  0  0  0  0  0  0
  161.7920  201.4360  147.4900 C   0  0  0  0  0  2  0  0  0  0  0  0
  161.4080  208.0500  151.0720 C   0  0  0  0  0  0  0  0  0  0  0  0
  160.8910  208.3440  154.1460 C   0  0  0  0  0  2  0  0  0  0  0  0
  161.0140  204.3770  150.7130 C   0  0  0  0  0  3  0  0  0  0  0  0
  161.1750  202.8290  147.2420 C   0  0  0  0  0  2  0  0  0  0  0  0
  161.2000  206.7040  151.4530 C   0  0  0  0  0  0  0  0  0  0  0  0
  161.7550  210.2620  150.9550 C   0  0  0  0  0  3  0  0  0  0  0  0
  161.2680  203.7870  148.3800 N   0  0  0  0  0  0  0  0  0  0  0  0
  160.8130  200.4710  148.1950 C   0  0  0  0  0  2  0  0  0  0  0  0
  161.4050  209.3770  153.2570 N   0  0  0  0  0  0  0  0  0  0  0  0
  161.4530  206.0970  149.0890 C   0  0  0  0  0  0  0  0  0  0  0  0
  160.9600  201.9780  150.0970 C   0  0  1  0  0  3  0  0  0  0  0  0
  161.2170  205.7270  150.4290 C   0  0  0  0  0  0  0  0  0  0  0  0
  161.9220  206.8720  146.4370 C   0  0  0  0  0  3  0  0  0  0  0  0
  161.6120  207.0370  153.9190 C   0  0  0  0  0  2  0  0  0  0  0  0
  161.7140  205.5260  146.7480 C   0  0  0  0  0  3  0  0  0  0  0  0
  160.8520  206.2810  152.8550 C   0  0  0  0  0  2  0  0  0  0  0  0
  161.4760  209.2190  151.8270 C   0  0  0  0  0  0  0  0  0  0  0  0
  161.8970  207.8360  147.4450 C   0  0  0  0  0  3  0  0  0  0  0  0
  161.6310  208.3710  149.7810 N   0  0  0  0  0  0  0  0  0  0  0  0
  161.8780  210.5190  153.8220 O   0  0  0  0  0  0  0  0  0  0  0  0
  160.7530  211.3200  154.0550 C   0  0  0  0  0  2  0  0  0  0  0  0
  159.4530  210.0330  156.7390 O   0  0  0  0  0  0  0  0  0  0  0  0
  161.6320  210.8350  156.3130 C   0  0  0  0  0  2  0  0  0  0  0  0
  160.6630  211.6720  155.5290 C   0  0  2  0  0  3  0  0  0  0  0  0
  160.7550  210.0510  157.2590 C   0  0  0  0  0  2  0  0  0  0  0  0
  159.3120  211.2550  156.0640 C   0  0  0  0  0  2  0  0  0  0  0  0
  1 18  1  0  0  0  0
  1 27  1  0  0  0  0
  2 27  1  0  0  0  0
  2 14  2  0  0  0  0
  3 16  1  6  0  0  0
  3 19  1  0  0  0  0
  3  7  1  0  0  0  0
  4 15  1  0  0  0  0
  4 18  2  0  0  0  0
  5 19  1  0  0  0  0
  5 11  2  0  0  0  0
  7  6  1  0  0  0  0
  8 16  1  0  0  0  0
  9 13  1  0  0  0  0
  9 25  2  0  0  0  0
 12  8  1  0  0  0  0
 12 15  1  0  0  0  0
 13 24  1  0  0  0  0
 14 25  1  0  0  0  0
 15  5  1  0  0  0  0
 17 28  1  0  0  0  0
 17 10  1  0  0  0  0
 18 20  1  0  0  0  0
 19  6  1  1  0  0  0
 20 11  1  0  0  0  0
 20 13  2  0  0  0  0
 21 23  2  0  0  0  0
 21 26  1  0  0  0  0
 22 10  1  0  0  0  0
 23  4  1  0  0  0  0
 24 22  1  0  0  0  0
 25 17  1  0  0  0  0
 26  1  2  0  0  0  0
 27  9  1  0  0  0  0
 28 29  1  0  0  0  0
 30 33  1  0  0  0  0
 31 33  1  0  0  0  0
 32 29  1  6  0  0  0
 32 34  1  0  0  0  0
 32 31  1  0  0  0  0
 34 30  1  0  0  0  0
M  END
>  <MODEL>
7

>  <REMARK>
 VINA RESULT:      -7.0      1.537      3.907
  Name = 
  3 active torsions:
  status: ('A' for Active; 'I' for Inactive)
    1  A    between atoms: N_17  and  O_28
    2  A    between atoms: O_28  and  C_29
    3  A    between atoms: C_29  and  C_32
                            x       y       z     vdW  Elec       q    Type
                         _______ _______ _______ _____ _____    ______ ____

>  <TORSDO>
F 3

$$$$
=
 OpenBabel11122414263D

 34 41  0  0  1  0  0  0  0  0999 V2000
  160.6420  207.4220  154.7820 C   0  0  0  0  0  0  0  0  0  0  0  0
  161.1850  205.2520  153.8330 C   0  0  0  0  0  3  0  0  0  0  0  0
  158.7600  213.5540  154.2380 C   0  0  2  0  0  3  0  0  0  0  0  0
  160.1390  209.7070  155.5240 C   0  0  0  0  0  0  0  0  0  0  0  0
  160.0000  211.4740  153.9220 C   0  0  0  0  0  0  0  0  0  0  0  0
  159.4750  213.4270  152.2380 C   0  0  0  0  0  2  0  0  0  0  0  0
  158.4500  214.3020  152.9590 C   0  0  0  0  0  2  0  0  0  0  0  0
  160.0670  213.3510  156.3470 C   0  0  0  0  0  2  0  0  0  0  0  0
  161.0190  206.9640  152.4690 C   0  0  0  0  0  0  0  0  0  0  0  0
  161.3190  206.8400  149.3550 C   0  0  0  0  0  2  0  0  0  0  0  0
  160.3180  210.5840  152.8930 C   0  0  0  0  0  3  0  0  0  0  0  0
  159.4950  211.9170  156.3600 C   0  0  0  0  0  2  0  0  0  0  0  0
  160.8310  208.3200  152.1140 C   0  0  0  0  0  0  0  0  0  0  0  0
  161.4620  204.7680  152.5640 C   0  0  0  0  0  3  0  0  0  0  0  0
  159.9340  211.0380  155.2380 N   0  0  0  0  0  0  0  0  0  0  0  0
  159.2410  214.3100  155.4610 C   0  0  0  0  0  2  0  0  0  0  0  0
  161.6540  205.7780  150.2950 N   0  0  0  0  0  0  0  0  0  0  0  0
  160.4370  208.7880  154.4900 C   0  0  0  0  0  0  0  0  0  0  0  0
  159.9600  212.9340  153.5900 C   0  0  1  0  0  3  0  0  0  0  0  0
  160.5260  209.2300  153.1540 C   0  0  0  0  0  0  0  0  0  0  0  0
  160.2650  207.8710  157.1320 C   0  0  0  0  0  3  0  0  0  0  0  0
  161.8750  208.1630  149.8230 C   0  0  0  0  0  2  0  0  0  0  0  0
  160.0590  209.2220  156.8450 C   0  0  0  0  0  3  0  0  0  0  0  0
  160.8240  208.8130  150.6910 C   0  0  0  0  0  2  0  0  0  0  0  0
  161.3490  205.8500  151.7010 C   0  0  0  0  0  0  0  0  0  0  0  0
  160.5570  206.9730  156.1060 C   0  0  0  0  0  3  0  0  0  0  0  0
  160.9260  206.5740  153.7570 N   0  0  0  0  0  0  0  0  0  0  0  0
  162.3250  204.6980  149.8160 O   0  0  0  0  0  0  0  0  0  0  0  0
  161.6290  204.3000  148.6670 C   0  0  0  0  0  2  0  0  0  0  0  0
  161.1630  201.1540  148.0060 O   0  0  0  0  0  0  0  0  0  0  0  0
  161.1880  202.3100  150.0640 C   0  0  0  0  0  2  0  0  0  0  0  0
  160.6170  203.2250  149.0200 C   0  0  2  0  0  3  0  0  0  0  0  0
  161.2070  200.9580  149.3930 C   0  0  0  0  0  2  0  0  0  0  0  0
  160.4060  202.3220  147.8260 C   0  0  0  0  0  2  0  0  0  0  0  0
  1 26  1  0  0  0  0
  3  7  1  6  0  0  0
  3 16  1  0  0  0  0
  4 23  2  0  0  0  0
  5 15  1  0  0  0  0
  6  7  1  0  0  0  0
  8 12  1  0  0  0  0
  9 27  1  0  0  0  0
 10 22  1  0  0  0  0
 10 17  1  0  0  0  0
 11 20  1  0  0  0  0
 11  5  2  0  0  0  0
 13  9  1  0  0  0  0
 13 20  2  0  0  0  0
 14  2  2  0  0  0  0
 15  4  1  0  0  0  0
 15 12  1  0  0  0  0
 16  8  1  0  0  0  0
 17 25  1  0  0  0  0
 18  1  2  0  0  0  0
 18  4  1  0  0  0  0
 19  6  1  6  0  0  0
 19  5  1  0  0  0  0
 19  3  1  0  0  0  0
 20 18  1  0  0  0  0
 22 24  1  0  0  0  0
 23 21  1  0  0  0  0
 24 13  1  0  0  0  0
 25  9  2  0  0  0  0
 25 14  1  0  0  0  0
 26 21  2  0  0  0  0
 27  2  1  0  0  0  0
 27  1  1  0  0  0  0
 28 17  1  0  0  0  0
 29 28  1  0  0  0  0
 30 33  1  0  0  0  0
 32 29  1  6  0  0  0
 32 31  1  0  0  0  0
 33 31  1  0  0  0  0
 34 30  1  0  0  0  0
 34 32  1  0  0  0  0
M  END
>  <MODEL>
8

>  <REMARK>
 VINA RESULT:      -6.8      2.844      8.711
  Name = 
  3 active torsions:
  status: ('A' for Active; 'I' for Inactive)
    1  A    between atoms: N_17  and  O_28
    2  A    between atoms: O_28  and  C_29
    3  A    between atoms: C_29  and  C_32
                            x       y       z     vdW  Elec       q    Type
                         _______ _______ _______ _____ _____    ______ ____

>  <TORSDO>
F 3

$$$$
