=
 OpenBabel11122413563D

 37 42  0  0  1  0  0  0  0  0999 V2000
  158.4360  211.9580  155.4630 C   0  0  0  0  0  0  0  0  0  0  0  0
  161.1910  209.4980  154.4670 C   0  0  1  0  0  3  0  0  0  0  0  0
  162.5900  209.4510  151.5070 O   0  0  0  0  0  0  0  0  0  0  0  0
  160.3890  210.8780  156.4810 N   0  0  2  0  0  0  0  0  0  0  0  0
  160.7240  209.7280  153.0290 C   0  0  2  0  0  3  0  0  0  0  0  0
  161.0130  210.8720  155.1440 C   0  0  2  0  0  3  0  0  0  0  0  0
  161.4120  208.8460  151.9690 C   0  0  2  0  0  3  0  0  0  0  0  0
  160.8530  209.7300  157.2610 C   0  0  0  0  0  2  0  0  0  0  0  0
  160.3290  211.8050  154.1340 C   0  0  2  0  0  3  0  0  0  0  0  0
  158.8420  213.2200  155.8800 F   0  0  0  0  0  0  0  0  0  0  0  0
  160.8720  207.0610  154.6780 N   0  0  0  0  0  2  0  0  0  0  0  0
  160.4320  208.3870  156.6510 C   0  0  0  0  0  2  0  0  0  0  0  0
  158.9180  211.6690  154.1710 O   0  0  0  0  0  0  0  0  0  0  0  0
  161.2850  210.5420  149.7160 C   0  0  0  0  0  2  0  0  0  0  0  0
  162.4500  209.6240  150.1140 C   0  0  0  0  0  2  0  0  0  0  0  0
  160.3810  208.3650  155.1200 C   0  0  1  0  0  3  0  0  0  0  0  0
  160.8500  211.2380  152.8140 C   0  0  2  0  0  3  0  0  0  0  0  0
  158.9250  210.8920  156.4320 C   0  0  0  0  0  2  0  0  0  0  0  0
  161.6510  207.3810  152.3970 C   0  0  1  0  0  3  0  0  0  0  0  0
  157.0560  211.9260  155.4420 F   0  0  0  0  0  0  0  0  0  0  0  0
  161.2420  211.7960  150.5720 C   0  0  0  0  0  2  0  0  0  0  0  0
  160.1850  211.6930  151.5760 N   0  0  0  0  0  0  0  0  0  0  0  0
  160.5280  206.8450  153.2790 C   0  0  0  0  0  2  0  0  0  0  0  0
  160.9250  206.7410  150.0570 C   0  0  0  0  0  2  0  0  0  0  0  0
  161.8720  206.4310  151.2160 C   0  0  2  0  0  3  0  0  0  0  0  0
  161.8560  204.9750  151.6150 C   0  0  0  0  0  3  0  0  0  0  0  0
  161.4610  202.6920  151.2300 O   0  0  0  0  0  1  0  0  0  0  0  0
  160.7820  204.3200  149.4680 C   0  0  0  0  0  2  0  0  0  0  0  0
  161.4090  204.0110  150.8020 C   0  0  0  0  0  0  0  0  0  0  0  0
  161.1380  205.7140  148.9540 C   0  0  0  0  0  2  0  0  0  0  0  0
  159.6660  213.0570  151.7160 C   0  0  0  0  0  2  0  0  0  0  0  0
  158.2440  213.1920  151.1520 C   0  0  1  0  0  3  0  0  0  0  0  0
  156.7560  213.7160  152.9080 O   0  0  0  0  0  0  0  0  0  0  0  0
  157.4070  214.1290  151.9620 C   0  0  0  0  0  3  0  0  0  0  0  0
  158.2480  213.6290  149.6940 C   0  0  0  0  0  2  0  0  0  0  0  0
  157.0850  213.0080  148.9410 C   0  0  0  0  0  2  0  0  0  0  0  0
  157.5020  212.5930  147.6760 O   0  0  0  0  0  1  0  0  0  0  0  0
  1 10  1  0  0  0  0
  1 18  1  0  0  0  0
  2 16  1  0  0  0  0
  2  6  1  0  0  0  0
  3  7  1  0  0  0  0
  4  8  1  0  0  0  0
  5  2  1  0  0  0  0
  6  4  1  0  0  0  0
  7 19  1  0  0  0  0
  7  5  1  0  0  0  0
  9 13  1  0  0  0  0
  9  6  1  0  0  0  0
 11 16  1  0  0  0  0
 12  8  1  0  0  0  0
 13  1  1  0  0  0  0
 14 15  1  0  0  0  0
 14 21  1  0  0  0  0
 15  3  1  0  0  0  0
 16 12  1  0  0  0  0
 17  5  1  0  0  0  0
 17  9  1  0  0  0  0
 18  4  1  0  0  0  0
 19 23  1  0  0  0  0
 20  1  1  0  0  0  0
 21 22  1  0  0  0  0
 22 31  1  0  0  0  0
 22 17  1  0  0  0  0
 23 11  1  0  0  0  0
 24 25  1  0  0  0  0
 25 26  1  0  0  0  0
 25 19  1  0  0  0  0
 28 29  1  0  0  0  0
 29 27  1  0  0  0  0
 29 26  2  0  0  0  0
 30 28  1  0  0  0  0
 30 24  1  0  0  0  0
 32 31  1  0  0  0  0
 32 34  1  0  0  0  0
 34 33  2  0  0  0  0
 35 32  1  0  0  0  0
 36 35  1  0  0  0  0
 37 36  1  0  0  0  0
M  END
>  <MODEL>
1

>  <REMARK>
 VINA RESULT:      -6.6      0.000      0.000
  Name = 
  6 active torsions:
  status: ('A' for Active; 'I' for Inactive)
    1  A    between atoms: C_1  and  C_4
    2  A    between atoms: C_1  and  N_27
    3  A    between atoms: C_4  and  C_12
    4  A    between atoms: C_4  and  C_37
    5  A    between atoms: C_8  and  C_12
    6  A    between atoms: C_23  and  C_30
                            x       y       z     vdW  Elec       q    Type
                         _______ _______ _______ _____ _____    ______ ____

>  <TORSDO>
F 6

$$$$
=
 OpenBabel11122413563D

 37 42  0  0  1  0  0  0  0  0999 V2000
  161.7050  208.5240  148.6570 C   0  0  0  0  0  0  0  0  0  0  0  0
  161.3090  210.8600  151.6600 C   0  0  1  0  0  3  0  0  0  0  0  0
  161.0580  209.8070  154.7510 O   0  0  0  0  0  0  0  0  0  0  0  0
  162.5150  210.7180  149.3960 N   0  0  2  0  0  0  0  0  0  0  0  0
  160.6600  209.6670  152.3640 C   0  0  2  0  0  3  0  0  0  0  0  0
  162.4080  210.2270  150.7840 C   0  0  2  0  0  3  0  0  0  0  0  0
  160.0790  209.9660  153.7590 C   0  0  2  0  0  3  0  0  0  0  0  0
  162.2790  212.1610  149.3490 C   0  0  0  0  0  2  0  0  0  0  0  0
  162.2750  208.7020  150.8960 C   0  0  2  0  0  3  0  0  0  0  0  0
  162.9890  208.0780  148.3740 F   0  0  0  0  0  0  0  0  0  0  0  0
  159.4810  212.5140  151.7660 N   0  0  0  0  0  2  0  0  0  0  0  0
  160.8580  212.5460  149.7790 C   0  0  0  0  0  2  0  0  0  0  0  0
  161.3280  208.1920  149.9730 O   0  0  0  0  0  0  0  0  0  0  0  0
  160.3720  207.4470  154.9980 C   0  0  0  0  0  2  0  0  0  0  0  0
  160.5870  208.8240  155.6450 C   0  0  0  0  0  2  0  0  0  0  0  0
  160.2540  211.6560  150.8710 C   0  0  1  0  0  3  0  0  0  0  0  0
  161.7180  208.5620  152.3130 C   0  0  2  0  0  3  0  0  0  0  0  0
  161.6090  210.0310  148.4730 C   0  0  0  0  0  2  0  0  0  0  0  0
  159.3540  211.3260  153.8830 C   0  0  1  0  0  3  0  0  0  0  0  0
  160.8280  207.9220  147.7770 F   0  0  0  0  0  0  0  0  0  0  0  0
  161.5350  207.0610  154.1020 C   0  0  0  0  0  2  0  0  0  0  0  0
  161.1790  207.2410  152.6970 N   0  0  0  0  0  0  0  0  0  0  0  0
  158.6100  211.7040  152.6070 C   0  0  0  0  0  2  0  0  0  0  0  0
  156.9510  211.1200  154.6560 C   0  0  0  0  0  2  0  0  0  0  0  0
  158.3950  211.3940  155.0750 C   0  0  2  0  0  3  0  0  0  0  0  0
  158.5420  212.6630  155.8820 C   0  0  0  0  0  3  0  0  0  0  0  0
  157.7350  214.3840  157.2610 O   0  0  0  0  0  1  0  0  0  0  0  0
  156.1020  212.7280  156.3660 C   0  0  0  0  0  2  0  0  0  0  0  0
  157.5110  213.2390  156.5100 C   0  0  0  0  0  0  0  0  0  0  0  0
  156.0420  211.2850  155.8660 C   0  0  0  0  0  2  0  0  0  0  0  0
  161.8680  206.1550  151.9920 C   0  0  0  0  0  2  0  0  0  0  0  0
  160.8810  205.1630  151.3610 C   0  0  1  0  0  3  0  0  0  0  0  0
  160.4240  205.2070  149.0450 O   0  0  0  0  0  0  0  0  0  0  0  0
  161.2040  204.8870  149.9270 C   0  0  0  0  0  3  0  0  0  0  0  0
  160.8120  203.8550  152.1370 C   0  0  0  0  0  2  0  0  0  0  0  0
  161.5090  202.7390  151.3790 C   0  0  0  0  0  2  0  0  0  0  0  0
  160.5730  201.7990  150.9470 O   0  0  0  0  0  1  0  0  0  0  0  0
  1 13  1  0  0  0  0
  2  5  1  0  0  0  0
  3 15  1  0  0  0  0
  4  6  1  0  0  0  0
  5  7  1  0  0  0  0
  6  9  1  0  0  0  0
  6  2  1  0  0  0  0
  7 19  1  0  0  0  0
  7  3  1  0  0  0  0
  8  4  1  0  0  0  0
  8 12  1  0  0  0  0
  9 17  1  0  0  0  0
 10  1  1  0  0  0  0
 11 23  1  0  0  0  0
 12 16  1  0  0  0  0
 13  9  1  0  0  0  0
 14 15  1  0  0  0  0
 16  2  1  0  0  0  0
 16 11  1  0  0  0  0
 17  5  1  0  0  0  0
 17 22  1  0  0  0  0
 18  1  1  0  0  0  0
 18  4  1  0  0  0  0
 19 25  1  0  0  0  0
 20  1  1  0  0  0  0
 21 14  1  0  0  0  0
 22 21  1  0  0  0  0
 23 19  1  0  0  0  0
 24 25  1  0  0  0  0
 24 30  1  0  0  0  0
 25 26  1  0  0  0  0
 26 29  2  0  0  0  0
 28 29  1  0  0  0  0
 29 27  1  0  0  0  0
 30 28  1  0  0  0  0
 31 22  1  0  0  0  0
 32 31  1  0  0  0  0
 32 35  1  0  0  0  0
 33 34  2  0  0  0  0
 34 32  1  0  0  0  0
 36 35  1  0  0  0  0
 37 36  1  0  0  0  0
M  END
>  <MODEL>
2

>  <REMARK>
 VINA RESULT:      -6.3      3.140      7.974
  Name = 
  6 active torsions:
  status: ('A' for Active; 'I' for Inactive)
    1  A    between atoms: C_1  and  C_4
    2  A    between atoms: C_1  and  N_27
    3  A    between atoms: C_4  and  C_12
    4  A    between atoms: C_4  and  C_37
    5  A    between atoms: C_8  and  C_12
    6  A    between atoms: C_23  and  C_30
                            x       y       z     vdW  Elec       q    Type
                         _______ _______ _______ _____ _____    ______ ____

>  <TORSDO>
F 6

$$$$
=
 OpenBabel11122413563D

 37 42  0  0  1  0  0  0  0  0999 V2000
  159.2480  211.6650  154.1170 C   0  0  0  0  0  0  0  0  0  0  0  0
  161.5750  208.6760  153.5870 C   0  0  1  0  0  3  0  0  0  0  0  0
  163.0080  207.9830  150.7260 O   0  0  0  0  0  0  0  0  0  0  0  0
  160.9720  210.4380  155.3570 N   0  0  2  0  0  0  0  0  0  0  0  0
  161.1830  208.7710  152.1120 C   0  0  2  0  0  3  0  0  0  0  0  0
  161.6130  210.1420  154.0620 C   0  0  2  0  0  3  0  0  0  0  0  0
  161.7370  207.6490  151.2140 C   0  0  2  0  0  3  0  0  0  0  0  0
  161.2220  209.3530  156.3060 C   0  0  0  0  0  2  0  0  0  0  0  0
  161.1150  211.0200  152.9050 C   0  0  2  0  0  3  0  0  0  0  0  0
  159.8480  212.8900  154.3750 F   0  0  0  0  0  0  0  0  0  0  0  0
  160.8500  206.3770  154.1150 N   0  0  0  0  0  2  0  0  0  0  0  0
  160.5960  208.0220  155.8680 C   0  0  0  0  0  2  0  0  0  0  0  0
  159.7020  211.1210  152.8990 O   0  0  0  0  0  0  0  0  0  0  0  0
  161.9410  209.0060  148.7480 C   0  0  0  0  0  2  0  0  0  0  0  0
  162.9280  207.9780  149.3190 C   0  0  0  0  0  2  0  0  0  0  0  0
  160.5740  207.7920  154.3520 C   0  0  1  0  0  3  0  0  0  0  0  0
  161.5620  210.1950  151.6990 C   0  0  2  0  0  3  0  0  0  0  0  0
  159.5320  210.6810  155.2420 C   0  0  0  0  0  2  0  0  0  0  0  0
  161.7190  206.2400  151.8490 C   0  0  1  0  0  3  0  0  0  0  0  0
  157.8820  211.8540  154.0390 F   0  0  0  0  0  0  0  0  0  0  0  0
  162.0890  210.3590  149.4220 C   0  0  0  0  0  2  0  0  0  0  0  0
  161.0090  210.5720  150.3820 N   0  0  0  0  0  0  0  0  0  0  0  0
  160.5040  206.0230  152.7450 C   0  0  0  0  0  2  0  0  0  0  0  0
  160.8620  205.3470  149.6390 C   0  0  0  0  0  2  0  0  0  0  0  0
  161.8030  205.1090  150.8180 C   0  0  2  0  0  3  0  0  0  0  0  0
  161.6450  203.7370  151.4300 C   0  0  0  0  0  3  0  0  0  0  0  0
  160.9980  201.4800  151.3920 O   0  0  0  0  0  1  0  0  0  0  0  0
  160.4460  202.8970  149.4180 C   0  0  0  0  0  2  0  0  0  0  0  0
  161.0750  202.7200  150.7750 C   0  0  0  0  0  0  0  0  0  0  0  0
  160.9320  204.1540  148.6970 C   0  0  0  0  0  2  0  0  0  0  0  0
  160.7210  212.0080  150.3120 C   0  0  0  0  0  2  0  0  0  0  0  0
  160.9510  212.5730  148.9030 C   0  0  1  0  0  3  0  0  0  0  0  0
  159.2980  213.6800  147.6320 O   0  0  0  0  0  0  0  0  0  0  0  0
  159.6860  212.6250  148.1080 C   0  0  0  0  0  3  0  0  0  0  0  0
  161.5970  213.9500  148.9390 C   0  0  0  0  0  2  0  0  0  0  0  0
  162.7050  214.0550  147.9060 C   0  0  0  0  0  2  0  0  0  0  0  0
  163.0050  212.7900  147.3990 O   0  0  0  0  0  1  0  0  0  0  0  0
  1 10  1  0  0  0  0
  1 18  1  0  0  0  0
  2  6  1  0  0  0  0
  2 16  1  0  0  0  0
  3  7  1  0  0  0  0
  4  8  1  0  0  0  0
  5  2  1  0  0  0  0
  6  4  1  0  0  0  0
  7 19  1  0  0  0  0
  7  5  1  0  0  0  0
  9  6  1  0  0  0  0
 11 16  1  0  0  0  0
 12  8  1  0  0  0  0
 13  9  1  0  0  0  0
 13  1  1  0  0  0  0
 14 15  1  0  0  0  0
 14 21  1  0  0  0  0
 15  3  1  0  0  0  0
 16 12  1  0  0  0  0
 17  5  1  0  0  0  0
 17  9  1  0  0  0  0
 18  4  1  0  0  0  0
 19 23  1  0  0  0  0
 20  1  1  0  0  0  0
 21 22  1  0  0  0  0
 22 17  1  0  0  0  0
 23 11  1  0  0  0  0
 24 25  1  0  0  0  0
 25 26  1  0  0  0  0
 25 19  1  0  0  0  0
 28 29  1  0  0  0  0
 29 27  1  0  0  0  0
 29 26  2  0  0  0  0
 30 28  1  0  0  0  0
 30 24  1  0  0  0  0
 31 22  1  0  0  0  0
 32 35  1  0  0  0  0
 32 31  1  0  0  0  0
 33 34  2  0  0  0  0
 34 32  1  0  0  0  0
 36 35  1  0  0  0  0
 37 36  1  0  0  0  0
M  END
>  <MODEL>
3

>  <REMARK>
 VINA RESULT:      -5.9      1.721      2.413
  Name = 
  6 active torsions:
  status: ('A' for Active; 'I' for Inactive)
    1  A    between atoms: C_1  and  C_4
    2  A    between atoms: C_1  and  N_27
    3  A    between atoms: C_4  and  C_12
    4  A    between atoms: C_4  and  C_37
    5  A    between atoms: C_8  and  C_12
    6  A    between atoms: C_23  and  C_30
                            x       y       z     vdW  Elec       q    Type
                         _______ _______ _______ _____ _____    ______ ____

>  <TORSDO>
F 6

$$$$
=
 OpenBabel11122413563D

 37 42  0  0  1  0  0  0  0  0999 V2000
  158.5870  211.1810  155.9020 C   0  0  0  0  0  0  0  0  0  0  0  0
  161.3880  209.2000  154.2090 C   0  0  1  0  0  3  0  0  0  0  0  0
  162.5780  209.9210  151.2450 O   0  0  0  0  0  0  0  0  0  0  0  0
  160.6590  210.0280  156.5300 N   0  0  2  0  0  0  0  0  0  0  0  0
  160.8110  209.7200  152.8920 C   0  0  2  0  0  3  0  0  0  0  0  0
  161.1870  210.3690  155.1950 C   0  0  2  0  0  3  0  0  0  0  0  0
  161.4680  209.1510  151.6200 C   0  0  2  0  0  3  0  0  0  0  0  0
  161.2350  208.7660  156.9950 C   0  0  0  0  0  2  0  0  0  0  0  0
  160.3880  211.4600  154.4690 C   0  0  2  0  0  3  0  0  0  0  0  0
  158.9550  212.3380  156.5760 F   0  0  0  0  0  0  0  0  0  0  0  0
  161.2110  206.7630  153.8680 N   0  0  0  0  0  2  0  0  0  0  0  0
  160.8420  207.5720  156.1160 C   0  0  0  0  0  2  0  0  0  0  0  0
  158.9920  211.2260  154.5530 O   0  0  0  0  0  0  0  0  0  0  0  0
  161.0980  211.3040  149.8330 C   0  0  0  0  0  2  0  0  0  0  0  0
  162.3330  210.3980  149.9410 C   0  0  0  0  0  2  0  0  0  0  0  0
  160.6850  207.8970  154.6260 C   0  0  1  0  0  3  0  0  0  0  0  0
  160.8440  211.2440  153.0260 C   0  0  2  0  0  3  0  0  0  0  0  0
  159.1970  209.9560  156.5670 C   0  0  0  0  0  2  0  0  0  0  0  0
  161.8110  207.6450  151.6830 C   0  0  1  0  0  3  0  0  0  0  0  0
  157.2130  211.0640  155.9510 F   0  0  0  0  0  0  0  0  0  0  0  0
  161.0500  212.3240  150.9570 C   0  0  0  0  0  2  0  0  0  0  0  0
  160.0720  211.9260  151.9670 N   0  0  0  0  0  0  0  0  0  0  0  0
  160.7810  206.8500  152.4780 C   0  0  0  0  0  2  0  0  0  0  0  0
  161.2070  207.7480  149.2260 C   0  0  0  0  0  2  0  0  0  0  0  0
  161.9970  207.0070  150.3030 C   0  0  2  0  0  3  0  0  0  0  0  0
  161.7430  205.5180  150.3000 C   0  0  0  0  0  3  0  0  0  0  0  0
  161.0660  203.5020  149.3040 O   0  0  0  0  0  1  0  0  0  0  0  0
  160.7770  205.6120  148.0090 C   0  0  0  0  0  2  0  0  0  0  0  0
  161.2370  204.8780  149.2400 C   0  0  0  0  0  0  0  0  0  0  0  0
  161.3670  207.0180  147.9000 C   0  0  0  0  0  2  0  0  0  0  0  0
  159.4950  213.1840  152.4480 C   0  0  0  0  0  2  0  0  0  0  0  0
  158.4440  213.7430  151.4780 C   0  0  1  0  0  3  0  0  0  0  0  0
  157.1280  212.9810  149.6720 O   0  0  0  0  0  0  0  0  0  0  0  0
  157.9070  212.6880  150.5650 C   0  0  0  0  0  3  0  0  0  0  0  0
  157.2970  214.4250  152.2110 C   0  0  0  0  0  2  0  0  0  0  0  0
  157.0820  213.8010  153.5790 C   0  0  0  0  0  2  0  0  0  0  0  0
  155.7550  213.3950  153.7140 O   0  0  0  0  0  1  0  0  0  0  0  0
  1 20  1  0  0  0  0
  1 18  1  0  0  0  0
  1 10  1  0  0  0  0
  2 16  1  0  0  0  0
  2  6  1  0  0  0  0
  3  7  1  0  0  0  0
  4 18  1  0  0  0  0
  4  8  1  0  0  0  0
  5 17  1  0  0  0  0
  5  2  1  0  0  0  0
  6  4  1  0  0  0  0
  7 19  1  0  0  0  0
  7  5  1  0  0  0  0
  9 13  1  0  0  0  0
  9  6  1  0  0  0  0
 11 16  1  0  0  0  0
 12  8  1  0  0  0  0
 13  1  1  0  0  0  0
 14 15  1  0  0  0  0
 14 21  1  0  0  0  0
 15  3  1  0  0  0  0
 16 12  1  0  0  0  0
 17  9  1  0  0  0  0
 19 23  1  0  0  0  0
 21 22  1  0  0  0  0
 22 31  1  0  0  0  0
 22 17  1  0  0  0  0
 23 11  1  0  0  0  0
 24 25  1  0  0  0  0
 25 19  1  0  0  0  0
 26 25  1  0  0  0  0
 28 29  1  0  0  0  0
 29 27  1  0  0  0  0
 29 26  2  0  0  0  0
 30 28  1  0  0  0  0
 30 24  1  0  0  0  0
 32 35  1  0  0  0  0
 32 31  1  0  0  0  0
 33 34  2  0  0  0  0
 34 32  1  0  0  0  0
 35 36  1  0  0  0  0
 36 37  1  0  0  0  0
M  END
>  <MODEL>
4

>  <REMARK>
 VINA RESULT:      -5.5      1.016      1.797
  Name = 
  6 active torsions:
  status: ('A' for Active; 'I' for Inactive)
    1  A    between atoms: C_1  and  C_4
    2  A    between atoms: C_1  and  N_27
    3  A    between atoms: C_4  and  C_12
    4  A    between atoms: C_4  and  C_37
    5  A    between atoms: C_8  and  C_12
    6  A    between atoms: C_23  and  C_30
                            x       y       z     vdW  Elec       q    Type
                         _______ _______ _______ _____ _____    ______ ____

>  <TORSDO>
F 6

$$$$
=
 OpenBabel11122413563D

 37 42  0  0  1  0  0  0  0  0999 V2000
  162.7060  206.0320  147.4910 C   0  0  0  0  0  0  0  0  0  0  0  0
  160.6380  206.0220  150.7090 C   0  0  1  0  0  3  0  0  0  0  0  0
  160.0500  208.7060  152.4910 O   0  0  0  0  0  0  0  0  0  0  0  0
  160.7180  204.9140  148.3920 N   0  0  2  0  0  0  0  0  0  0  0  0
  161.4180  207.2820  151.0850 C   0  0  2  0  0  3  0  0  0  0  0  0
  160.4580  206.1330  149.1810 C   0  0  2  0  0  3  0  0  0  0  0  0
  161.1420  207.8250  152.5000 C   0  0  2  0  0  3  0  0  0  0  0  0
  160.2250  203.7350  149.1050 C   0  0  0  0  0  2  0  0  0  0  0  0
  161.2480  207.3620  148.7070 C   0  0  2  0  0  3  0  0  0  0  0  0
  162.0480  206.3940  146.3230 F   0  0  0  0  0  0  0  0  0  0  0  0
  161.2070  204.5380  152.5950 N   0  0  0  0  0  2  0  0  0  0  0  0
  160.9580  203.4920  150.4300 C   0  0  0  0  0  2  0  0  0  0  0  0
  162.6080  207.0460  148.4650 O   0  0  0  0  0  0  0  0  0  0  0  0
  161.6110  210.5800  152.1030 C   0  0  0  0  0  2  0  0  0  0  0  0
  160.5140  209.9470  152.9710 C   0  0  0  0  0  2  0  0  0  0  0  0
  161.3960  204.7640  151.1640 C   0  0  1  0  0  3  0  0  0  0  0  0
  161.1560  208.2610  149.9390 C   0  0  2  0  0  3  0  0  0  0  0  0
  162.1320  204.7400  148.0520 C   0  0  0  0  0  2  0  0  0  0  0  0
  160.9950  206.7440  153.5950 C   0  0  1  0  0  3  0  0  0  0  0  0
  164.0390  205.8240  147.1970 F   0  0  0  0  0  0  0  0  0  0  0  0
  161.2730  210.4990  150.6250 C   0  0  0  0  0  2  0  0  0  0  0  0
  162.0460  209.4390  149.9820 N   0  0  0  0  0  0  0  0  0  0  0  0
  161.9190  205.5530  153.3600 C   0  0  0  0  0  2  0  0  0  0  0  0
  159.8990  207.3280  155.8020 C   0  0  0  0  0  2  0  0  0  0  0  0
  161.2060  207.2840  155.0130 C   0  0  2  0  0  3  0  0  0  0  0  0
  161.9560  208.5940  155.0420 C   0  0  0  0  0  3  0  0  0  0  0  0
  162.4890  210.6930  155.9520 O   0  0  0  0  0  1  0  0  0  0  0  0
  160.6370  209.3910  156.9960 C   0  0  0  0  0  2  0  0  0  0  0  0
  161.7330  209.5290  155.9730 C   0  0  0  0  0  0  0  0  0  0  0  0
  160.1620  207.9490  157.1660 C   0  0  0  0  0  2  0  0  0  0  0  0
  162.3310  209.9460  148.6360 C   0  0  0  0  0  2  0  0  0  0  0  0
  162.0260  211.4450  148.5090 C   0  0  1  0  0  3  0  0  0  0  0  0
  163.4870  212.5920  147.0530 O   0  0  0  0  0  0  0  0  0  0  0  0
  163.2520  212.2420  148.1980 C   0  0  0  0  0  3  0  0  0  0  0  0
  160.9500  211.7220  147.4680 C   0  0  0  0  0  2  0  0  0  0  0  0
  160.1430  212.9530  147.8380 C   0  0  0  0  0  2  0  0  0  0  0  0
  160.3630  213.9660  146.9050 O   0  0  0  0  0  1  0  0  0  0  0  0
  1 18  1  0  0  0  0
  1 13  1  0  0  0  0
  2  5  1  0  0  0  0
  2 16  1  0  0  0  0
  3  7  1  0  0  0  0
  3 15  1  0  0  0  0
  4  8  1  0  0  0  0
  4  6  1  0  0  0  0
  5  7  1  0  0  0  0
  6  2  1  0  0  0  0
  7 19  1  0  0  0  0
  8 12  1  0  0  0  0
  9  6  1  0  0  0  0
  9 17  1  0  0  0  0
 10  1  1  0  0  0  0
 11 23  1  0  0  0  0
 12 16  1  0  0  0  0
 13  9  1  0  0  0  0
 14 15  1  0  0  0  0
 16 11  1  0  0  0  0
 17 22  1  0  0  0  0
 17  5  1  0  0  0  0
 18  4  1  0  0  0  0
 19 25  1  0  0  0  0
 20  1  1  0  0  0  0
 21 14  1  0  0  0  0
 22 21  1  0  0  0  0
 23 19  1  0  0  0  0
 24 30  1  0  0  0  0
 25 26  1  0  0  0  0
 25 24  1  0  0  0  0
 26 29  2  0  0  0  0
 27 29  1  0  0  0  0
 28 30  1  0  0  0  0
 29 28  1  0  0  0  0
 31 22  1  0  0  0  0
 32 31  1  0  0  0  0
 33 34  2  0  0  0  0
 34 32  1  0  0  0  0
 35 36  1  0  0  0  0
 35 32  1  0  0  0  0
 37 36  1  0  0  0  0
M  END
>  <MODEL>
5

>  <REMARK>
 VINA RESULT:      -5.4      3.906      6.811
  Name = 
  6 active torsions:
  status: ('A' for Active; 'I' for Inactive)
    1  A    between atoms: C_1  and  C_4
    2  A    between atoms: C_1  and  N_27
    3  A    between atoms: C_4  and  C_12
    4  A    between atoms: C_4  and  C_37
    5  A    between atoms: C_8  and  C_12
    6  A    between atoms: C_23  and  C_30
                            x       y       z     vdW  Elec       q    Type
                         _______ _______ _______ _____ _____    ______ ____

>  <TORSDO>
F 6

$$$$
=
 OpenBabel11122413563D

 37 42  0  0  1  0  0  0  0  0999 V2000
  161.7950  208.6860  148.6360 C   0  0  0  0  0  0  0  0  0  0  0  0
  161.3020  211.5180  151.1590 C   0  0  1  0  0  3  0  0  0  0  0  0
  160.8810  211.0280  154.3700 O   0  0  0  0  0  0  0  0  0  0  0  0
  162.6140  210.9650  149.0200 N   0  0  2  0  0  0  0  0  0  0  0  0
  160.5960  210.4750  152.0270 C   0  0  2  0  0  3  0  0  0  0  0  0
  162.4290  210.7280  150.4640 C   0  0  2  0  0  3  0  0  0  0  0  0
  159.9550  211.0220  153.3160 C   0  0  2  0  0  3  0  0  0  0  0  0
  162.4100  212.3800  148.7090 C   0  0  0  0  0  2  0  0  0  0  0  0
  162.2590  209.2480  150.8360 C   0  0  2  0  0  3  0  0  0  0  0  0
  163.0810  208.1810  148.5020 F   0  0  0  0  0  0  0  0  0  0  0  0
  159.5060  213.1870  150.8800 N   0  0  0  0  0  2  0  0  0  0  0  0
  160.9770  212.8520  148.9920 C   0  0  0  0  0  2  0  0  0  0  0  0
  161.3480  208.5940  149.9690 O   0  0  0  0  0  0  0  0  0  0  0  0
  160.1350  208.7570  154.9910 C   0  0  0  0  0  2  0  0  0  0  0  0
  160.3470  210.2230  155.3970 C   0  0  0  0  0  2  0  0  0  0  0  0
  160.3040  212.1750  150.1910 C   0  0  1  0  0  3  0  0  0  0  0  0
  161.6310  209.3660  152.2240 C   0  0  2  0  0  3  0  0  0  0  0  0
  161.7390  210.1380  148.1860 C   0  0  0  0  0  2  0  0  0  0  0  0
  159.2530  212.3900  153.1640 C   0  0  1  0  0  3  0  0  0  0  0  0
  160.9490  207.9490  147.8310 F   0  0  0  0  0  0  0  0  0  0  0  0
  161.3320  208.2050  154.2380 C   0  0  0  0  0  2  0  0  0  0  0  0
  161.0480  208.1390  152.8060 N   0  0  0  0  0  0  0  0  0  0  0  0
  158.5790  212.5470  151.8040 C   0  0  0  0  0  2  0  0  0  0  0  0
  158.9260  212.9850  155.6040 C   0  0  0  0  0  2  0  0  0  0  0  0
  158.2380  212.6790  154.2750 C   0  0  2  0  0  3  0  0  0  0  0  0
  157.1720  211.6160  154.3950 C   0  0  0  0  0  3  0  0  0  0  0  0
  155.6100  210.3280  155.5850 O   0  0  0  0  0  1  0  0  0  0  0  0
  157.0750  211.8860  156.8660 C   0  0  0  0  0  2  0  0  0  0  0  0
  156.6090  211.2920  155.5630 C   0  0  0  0  0  0  0  0  0  0  0  0
  157.8670  213.1790  156.6790 C   0  0  0  0  0  2  0  0  0  0  0  0
  161.7470  206.9380  152.3380 C   0  0  0  0  0  2  0  0  0  0  0  0
  160.7770  205.7840  152.0510 C   0  0  1  0  0  3  0  0  0  0  0  0
  161.5810  205.4100  149.8630 O   0  0  0  0  0  0  0  0  0  0  0  0
  160.6060  205.5470  150.5840 C   0  0  0  0  0  3  0  0  0  0  0  0
  161.2060  204.4940  152.7360 C   0  0  0  0  0  2  0  0  0  0  0  0
  160.5990  203.2860  152.0440 C   0  0  0  0  0  2  0  0  0  0  0  0
  161.6080  202.4140  151.6360 O   0  0  0  0  0  1  0  0  0  0  0  0
  1 13  1  0  0  0  0
  2  5  1  0  0  0  0
  3 15  1  0  0  0  0
  4  6  1  0  0  0  0
  5 17  1  0  0  0  0
  5  7  1  0  0  0  0
  6  9  1  0  0  0  0
  6  2  1  0  0  0  0
  7  3  1  0  0  0  0
  8 12  1  0  0  0  0
  8  4  1  0  0  0  0
  9 17  1  0  0  0  0
 10  1  1  0  0  0  0
 11 23  1  0  0  0  0
 12 16  1  0  0  0  0
 13  9  1  0  0  0  0
 14 15  1  0  0  0  0
 16 11  1  0  0  0  0
 16  2  1  0  0  0  0
 17 22  1  0  0  0  0
 18  1  1  0  0  0  0
 18  4  1  0  0  0  0
 19  7  1  0  0  0  0
 19 25  1  0  0  0  0
 20  1  1  0  0  0  0
 21 14  1  0  0  0  0
 22 21  1  0  0  0  0
 23 19  1  0  0  0  0
 24 30  1  0  0  0  0
 25 26  1  0  0  0  0
 25 24  1  0  0  0  0
 26 29  2  0  0  0  0
 29 27  1  0  0  0  0
 29 28  1  0  0  0  0
 30 28  1  0  0  0  0
 31 22  1  0  0  0  0
 32 31  1  0  0  0  0
 32 35  1  0  0  0  0
 33 34  2  0  0  0  0
 34 32  1  0  0  0  0
 36 35  1  0  0  0  0
 37 36  1  0  0  0  0
M  END
>  <MODEL>
6

>  <REMARK>
 VINA RESULT:      -5.3      3.039      7.817
  Name = 
  6 active torsions:
  status: ('A' for Active; 'I' for Inactive)
    1  A    between atoms: C_1  and  C_4
    2  A    between atoms: C_1  and  N_27
    3  A    between atoms: C_4  and  C_12
    4  A    between atoms: C_4  and  C_37
    5  A    between atoms: C_8  and  C_12
    6  A    between atoms: C_23  and  C_30
                            x       y       z     vdW  Elec       q    Type
                         _______ _______ _______ _____ _____    ______ ____

>  <TORSDO>
F 6

$$$$
=
 OpenBabel11122413563D

 37 42  0  0  1  0  0  0  0  0999 V2000
  159.9750  211.0120  154.7490 C   0  0  0  0  0  0  0  0  0  0  0  0
  161.6770  208.0190  153.0820 C   0  0  1  0  0  3  0  0  0  0  0  0
  162.6570  208.0040  149.9580 O   0  0  0  0  0  0  0  0  0  0  0  0
  161.5800  209.2530  155.3340 N   0  0  2  0  0  0  0  0  0  0  0  0
  161.1540  208.5940  151.7650 C   0  0  2  0  0  3  0  0  0  0  0  0
  162.0200  209.2630  153.9260 C   0  0  2  0  0  3  0  0  0  0  0  0
  161.4060  207.7190  150.5230 C   0  0  2  0  0  3  0  0  0  0  0  0
  161.7370  207.9140  155.9040 C   0  0  0  0  0  2  0  0  0  0  0  0
  161.5630  210.5010  153.1400 C   0  0  2  0  0  3  0  0  0  0  0  0
  160.8030  212.0140  155.2360 F   0  0  0  0  0  0  0  0  0  0  0  0
  160.6240  205.7880  153.0690 N   0  0  0  0  0  2  0  0  0  0  0  0
  160.8460  206.8680  155.2200 C   0  0  0  0  0  2  0  0  0  0  0  0
  160.1960  210.7920  153.3750 O   0  0  0  0  0  0  0  0  0  0  0  0
  161.5820  209.6960  148.5170 C   0  0  0  0  0  2  0  0  0  0  0  0
  162.4290  208.4210  148.6310 C   0  0  0  0  0  2  0  0  0  0  0  0
  160.6250  207.0960  153.7200 C   0  0  1  0  0  3  0  0  0  0  0  0
  161.7300  210.0110  151.7020 C   0  0  2  0  0  3  0  0  0  0  0  0
  160.2010  209.7130  155.5080 C   0  0  0  0  0  2  0  0  0  0  0  0
  161.2110  206.2020  150.7460 C   0  0  1  0  0  3  0  0  0  0  0  0
  158.6630  211.4000  154.9320 F   0  0  0  0  0  0  0  0  0  0  0  0
  162.0330  210.7600  149.5020 C   0  0  0  0  0  2  0  0  0  0  0  0
  161.1140  210.8280  150.6370 N   0  0  0  0  0  0  0  0  0  0  0  0
  160.0780  205.9010  151.7230 C   0  0  0  0  0  2  0  0  0  0  0  0
  161.3410  203.9440  149.6070 C   0  0  0  0  0  2  0  0  0  0  0  0
  160.9870  205.4210  149.4470 C   0  0  2  0  0  3  0  0  0  0  0  0
  161.6530  206.0590  148.2500 C   0  0  0  0  0  3  0  0  0  0  0  0
  162.7030  206.0060  146.1500 O   0  0  0  0  0  1  0  0  0  0  0  0
  162.1550  203.8370  147.2500 C   0  0  0  0  0  2  0  0  0  0  0  0
  162.1370  205.3430  147.2300 C   0  0  0  0  0  0  0  0  0  0  0  0
  161.1770  203.2450  148.2640 C   0  0  0  0  0  2  0  0  0  0  0  0
  161.0750  212.2470  151.0030 C   0  0  0  0  0  2  0  0  0  0  0  0
  159.9120  212.9850  150.3240 C   0  0  1  0  0  3  0  0  0  0  0  0
  158.8650  213.8220  152.2670 O   0  0  0  0  0  0  0  0  0  0  0  0
  158.7490  213.1650  151.2460 C   0  0  0  0  0  3  0  0  0  0  0  0
  160.3420  214.3330  149.7640 C   0  0  0  0  0  2  0  0  0  0  0  0
  161.0620  214.1620  148.4380 C   0  0  0  0  0  2  0  0  0  0  0  0
  160.3640  213.2670  147.6270 O   0  0  0  0  0  1  0  0  0  0  0  0
  1 20  1  0  0  0  0
  1 10  1  0  0  0  0
  1 18  1  0  0  0  0
  2 16  1  0  0  0  0
  2  6  1  0  0  0  0
  3  7  1  0  0  0  0
  4 18  1  0  0  0  0
  4  8  1  0  0  0  0
  5  2  1  0  0  0  0
  6  4  1  0  0  0  0
  7 19  1  0  0  0  0
  7  5  1  0  0  0  0
  9 13  1  0  0  0  0
  9  6  1  0  0  0  0
 11 16  1  0  0  0  0
 12  8  1  0  0  0  0
 13  1  1  0  0  0  0
 14 15  1  0  0  0  0
 14 21  1  0  0  0  0
 15  3  1  0  0  0  0
 16 12  1  0  0  0  0
 17  5  1  0  0  0  0
 17  9  1  0  0  0  0
 19 23  1  0  0  0  0
 21 22  1  0  0  0  0
 22 31  1  0  0  0  0
 22 17  1  0  0  0  0
 23 11  1  0  0  0  0
 25 24  1  0  0  0  0
 25 19  1  0  0  0  0
 26 25  1  0  0  0  0
 27 29  1  0  0  0  0
 28 30  1  0  0  0  0
 29 28  1  0  0  0  0
 29 26  2  0  0  0  0
 30 24  1  0  0  0  0
 32 31  1  0  0  0  0
 32 34  1  0  0  0  0
 34 33  2  0  0  0  0
 35 32  1  0  0  0  0
 36 35  1  0  0  0  0
 37 36  1  0  0  0  0
M  END
>  <MODEL>
7

>  <REMARK>
 VINA RESULT:      -4.1      1.935      2.486
  Name = 
  6 active torsions:
  status: ('A' for Active; 'I' for Inactive)
    1  A    between atoms: C_1  and  C_4
    2  A    between atoms: C_1  and  N_27
    3  A    between atoms: C_4  and  C_12
    4  A    between atoms: C_4  and  C_37
    5  A    between atoms: C_8  and  C_12
    6  A    between atoms: C_23  and  C_30
                            x       y       z     vdW  Elec       q    Type
                         _______ _______ _______ _____ _____    ______ ____

>  <TORSDO>
F 6

$$$$
