=
 OpenBabel11122414253D

 34 41  0  0  1  0  0  0  0  0999 V2000
  161.1180  207.4090  154.2030 C   0  0  1  0  0  3  0  0  0  0  0  0
  162.1240  205.5490  153.0210 C   0  0  0  0  0  2  0  0  0  0  0  0
  158.5120  213.4310  154.8170 C   0  0  2  0  0  3  0  0  0  0  0  0
  159.9820  209.3600  155.2740 C   0  0  0  0  0  0  0  0  0  0  0  0
  159.2560  211.3180  153.9200 C   0  0  1  0  0  3  0  0  0  0  0  0
  158.7840  213.6210  152.7210 C   0  0  0  0  0  2  0  0  0  0  0  0
  158.0780  214.4520  153.7920 C   0  0  0  0  0  2  0  0  0  0  0  0
  160.0000  212.6170  156.6570 C   0  0  0  0  0  2  0  0  0  0  0  0
  161.8850  207.5610  152.0210 C   0  0  2  0  0  3  0  0  0  0  0  0
  160.9900  207.8040  149.0570 C   0  0  0  0  0  2  0  0  0  0  0  0
  159.7690  210.5880  152.6590 C   0  0  0  0  0  2  0  0  0  0  0  0
  159.3200  211.4100  156.3730 O   0  0  0  0  0  0  0  0  0  0  0  0
  161.0140  208.7870  151.7010 C   0  0  1  0  0  3  0  0  0  0  0  0
  162.6920  205.3710  151.6160 C   0  0  0  0  0  2  0  0  0  0  0  0
  159.9470  210.8560  155.2310 C   0  0  1  0  0  3  0  0  0  0  0  0
  159.2810  213.8510  156.0570 C   0  0  0  0  0  2  0  0  0  0  0  0
  161.4810  206.4970  149.7110 C   0  0  2  0  0  3  0  0  0  0  0  0
  160.2070  208.6310  153.9720 C   0  0  1  0  0  3  0  0  0  0  0  0
  159.4550  212.8170  153.8190 C   0  0  1  0  0  3  0  0  0  0  0  0
  160.7640  209.5400  152.9470 N   0  0  2  0  0  0  0  0  0  0  0  0
  160.0040  207.1830  156.3890 C   0  0  0  0  0  3  0  0  0  0  0  0
  161.9280  208.9910  149.2930 C   0  0  0  0  0  2  0  0  0  0  0  0
  159.8550  208.6580  156.4100 C   0  0  0  0  0  3  0  0  0  0  0  0
  161.6850  209.6810  150.6440 C   0  0  0  0  0  2  0  0  0  0  0  0
  162.4430  206.6930  150.9010 C   0  0  1  0  0  3  0  0  0  0  0  0
  160.5550  206.5750  155.3280 C   0  0  0  0  0  3  0  0  0  0  0  0
  161.2040  206.6740  152.9450 N   0  0  2  0  0  0  0  0  0  0  0  0
  162.1450  205.6310  148.6500 C   0  0  0  0  0  2  0  0  0  0  0  0
  161.1550  204.6180  148.0970 C   0  0  0  0  0  2  0  0  0  0  0  0
  160.2160  201.4390  149.5770 C   0  0  0  0  0  2  0  0  0  0  0  0
  161.1480  202.1950  147.4920 C   0  0  0  0  0  2  0  0  0  0  0  0
  161.5290  203.2160  148.5440 C   0  0  0  0  0  3  0  0  0  0  0  0
  160.7930  200.9490  148.2660 C   0  0  0  0  0  2  0  0  0  0  0  0
  160.7500  202.8440  149.7900 C   0  0  0  0  0  2  0  0  0  0  0  0
  1 26  1  1  0  0  0
  3  7  1  6  0  0  0
  3 16  1  0  0  0  0
  4 23  2  0  0  0  0
  5 11  1  6  0  0  0
  5 15  1  0  0  0  0
  6  7  1  0  0  0  0
  6 19  1  0  0  0  0
  9 27  1  0  0  0  0
 10 22  1  0  0  0  0
 10 17  1  0  0  0  0
 11 20  1  0  0  0  0
 12  8  1  0  0  0  0
 13  9  1  0  0  0  0
 13 20  1  0  0  0  0
 14  2  1  0  0  0  0
 15  4  1  0  0  0  0
 15 12  1  0  0  0  0
 16  8  1  0  0  0  0
 17 25  1  0  0  0  0
 18  1  1  0  0  0  0
 18  4  1  0  0  0  0
 19  5  1  0  0  0  0
 19  3  1  0  0  0  0
 20 18  1  0  0  0  0
 21 23  1  0  0  0  0
 22 24  1  0  0  0  0
 24 13  1  0  0  0  0
 25 14  1  0  0  0  0
 25  9  1  0  0  0  0
 26 21  2  0  0  0  0
 27  2  1  0  0  0  0
 27  1  1  0  0  0  0
 28 17  1  0  0  0  0
 29 32  1  0  0  0  0
 29 28  1  0  0  0  0
 30 34  1  0  0  0  0
 31 33  1  0  0  0  0
 31 32  1  0  0  0  0
 32 34  1  0  0  0  0
 33 30  1  0  0  0  0
M  END
>  <MODEL>
1

>  <REMARK>
 VINA RESULT:      -8.7      0.000      0.000
  Name = 
  3 active torsions:
  status: ('A' for Active; 'I' for Inactive)
    1  A    between atoms: C_17  and  C_28
    2  A    between atoms: C_28  and  C_29
    3  A    between atoms: C_29  and  C_32
                            x       y       z     vdW  Elec       q    Type
                         _______ _______ _______ _____ _____    ______ ____

>  <TORSDO>
F 3

$$$$
=
 OpenBabel11122414253D

 34 41  0  0  1  0  0  0  0  0999 V2000
  161.9330  209.3490  151.0480 C   0  0  1  0  0  3  0  0  0  0  0  0
  161.9600  210.8420  152.9550 C   0  0  0  0  0  2  0  0  0  0  0  0
  161.0080  203.6240  147.9170 C   0  0  2  0  0  3  0  0  0  0  0  0
  161.7600  207.7290  149.1540 C   0  0  0  0  0  0  0  0  0  0  0  0
  160.8840  205.4280  149.5150 C   0  0  1  0  0  3  0  0  0  0  0  0
  160.3630  202.8550  149.7860 C   0  0  0  0  0  2  0  0  0  0  0  0
  160.3630  202.3290  148.3510 C   0  0  0  0  0  2  0  0  0  0  0  0
  162.9770  205.0130  147.2380 C   0  0  0  0  0  2  0  0  0  0  0  0
  161.6790  208.6190  153.2330 C   0  0  2  0  0  3  0  0  0  0  0  0
  159.6350  207.4840  155.2780 C   0  0  0  0  0  2  0  0  0  0  0  0
  160.6490  205.7910  150.9980 C   0  0  0  0  0  2  0  0  0  0  0  0
  162.0340  206.0480  147.4360 O   0  0  0  0  0  0  0  0  0  0  0  0
  160.9950  207.3060  152.8130 C   0  0  1  0  0  3  0  0  0  0  0  0
  161.8120  210.6400  154.4590 C   0  0  0  0  0  2  0  0  0  0  0  0
  161.9830  206.2840  148.8310 C   0  0  1  0  0  3  0  0  0  0  0  0
  162.3060  203.6210  147.1270 C   0  0  0  0  0  2  0  0  0  0  0  0
  160.1160  208.9490  155.2520 C   0  0  2  0  0  3  0  0  0  0  0  0
  161.2540  208.0640  150.5350 C   0  0  1  0  0  3  0  0  0  0  0  0
  161.2880  203.9760  149.3510 C   0  0  1  0  0  3  0  0  0  0  0  0
  161.4590  206.9310  151.4620 N   0  0  2  0  0  0  0  0  0  0  0  0
  161.8710  210.1320  148.7130 C   0  0  0  0  0  3  0  0  0  0  0  0
  160.7800  206.4690  155.2480 C   0  0  0  0  0  2  0  0  0  0  0  0
  162.0180  208.7200  148.2870 C   0  0  0  0  0  3  0  0  0  0  0  0
  161.2850  206.1850  153.8260 C   0  0  0  0  0  2  0  0  0  0  0  0
  161.5200  209.1570  154.6480 C   0  0  1  0  0  3  0  0  0  0  0  0
  161.7790  210.4390  150.0150 C   0  0  0  0  0  3  0  0  0  0  0  0
  161.3230  209.6950  152.3270 N   0  0  2  0  0  0  0  0  0  0  0  0
  160.0760  209.5090  156.6670 C   0  0  0  0  0  2  0  0  0  0  0  0
  159.1250  210.6920  156.7430 C   0  0  0  0  0  2  0  0  0  0  0  0
  156.3100  211.9700  154.8380 C   0  0  0  0  0  2  0  0  0  0  0  0
  158.6980  212.2720  154.8570 C   0  0  0  0  0  2  0  0  0  0  0  0
  158.4210  210.8900  155.4130 C   0  0  0  0  0  3  0  0  0  0  0  0
  157.4460  212.6480  154.1020 C   0  0  0  0  0  2  0  0  0  0  0  0
  156.9190  210.8080  155.6030 C   0  0  0  0  0  2  0  0  0  0  0  0
  1 26  1  6  0  0  0
  1 27  1  0  0  0  0
  2 14  1  0  0  0  0
  3 16  1  6  0  0  0
  3  7  1  0  0  0  0
  3 19  1  0  0  0  0
  4 18  1  0  0  0  0
  5 11  1  1  0  0  0
  7  6  1  0  0  0  0
  8 12  1  0  0  0  0
  9 25  1  0  0  0  0
 11 20  1  0  0  0  0
 12 15  1  0  0  0  0
 13  9  1  0  0  0  0
 13 24  1  0  0  0  0
 14 25  1  0  0  0  0
 15  4  1  0  0  0  0
 15  5  1  0  0  0  0
 16  8  1  0  0  0  0
 17 10  1  0  0  0  0
 17 28  1  0  0  0  0
 18  1  1  0  0  0  0
 18 20  1  0  0  0  0
 19  5  1  0  0  0  0
 19  6  1  0  0  0  0
 20 13  1  0  0  0  0
 21 26  2  0  0  0  0
 22 10  1  0  0  0  0
 23 21  1  0  0  0  0
 23  4  2  0  0  0  0
 24 22  1  0  0  0  0
 25 17  1  0  0  0  0
 27  2  1  0  0  0  0
 27  9  1  0  0  0  0
 28 29  1  0  0  0  0
 30 34  1  0  0  0  0
 31 32  1  0  0  0  0
 32 34  1  0  0  0  0
 32 29  1  0  0  0  0
 33 30  1  0  0  0  0
 33 31  1  0  0  0  0
M  END
>  <MODEL>
2

>  <REMARK>
 VINA RESULT:      -8.2      2.329      8.765
  Name = 
  3 active torsions:
  status: ('A' for Active; 'I' for Inactive)
    1  A    between atoms: C_17  and  C_28
    2  A    between atoms: C_28  and  C_29
    3  A    between atoms: C_29  and  C_32
                            x       y       z     vdW  Elec       q    Type
                         _______ _______ _______ _____ _____    ______ ____

>  <TORSDO>
F 3

$$$$
=
 OpenBabel11122414253D

 34 41  0  0  1  0  0  0  0  0999 V2000
  161.4210  208.4070  149.4910 C   0  0  1  0  0  3  0  0  0  0  0  0
  161.5020  207.2000  147.3930 C   0  0  0  0  0  2  0  0  0  0  0  0
  160.8010  209.0660  156.0200 C   0  0  2  0  0  3  0  0  0  0  0  0
  161.4170  209.5090  151.7330 C   0  0  0  0  0  0  0  0  0  0  0  0
  161.2140  208.1660  153.8190 C   0  0  1  0  0  3  0  0  0  0  0  0
  160.6130  206.9530  156.0840 C   0  0  0  0  0  2  0  0  0  0  0  0
  160.7660  208.0510  157.1370 C   0  0  0  0  0  2  0  0  0  0  0  0
  159.7590  210.8220  154.5720 C   0  0  0  0  0  2  0  0  0  0  0  0
  160.8220  206.1770  149.2880 C   0  0  2  0  0  3  0  0  0  0  0  0
  161.6900  203.2740  149.9670 C   0  0  0  0  0  2  0  0  0  0  0  0
  161.1950  206.8900  152.9490 C   0  0  0  0  0  2  0  0  0  0  0  0
  160.9480  210.6070  153.8370 O   0  0  0  0  0  0  0  0  0  0  0  0
  161.0250  205.8890  150.7850 C   0  0  1  0  0  3  0  0  0  0  0  0
  161.1820  205.7660  146.9840 C   0  0  0  0  0  2  0  0  0  0  0  0
  160.7390  209.4390  153.0670 C   0  0  1  0  0  3  0  0  0  0  0  0
  159.8430  210.2450  156.0060 C   0  0  0  0  0  2  0  0  0  0  0  0
  161.8370  203.9210  148.5750 C   0  0  2  0  0  3  0  0  0  0  0  0
  161.6540  208.2110  151.0020 C   0  0  1  0  0  3  0  0  0  0  0  0
  160.3330  208.0220  155.0440 C   0  0  1  0  0  3  0  0  0  0  0  0
  160.8020  207.1340  151.5500 N   0  0  2  0  0  0  0  0  0  0  0  0
  162.3580  210.6650  149.7940 C   0  0  0  0  0  3  0  0  0  0  0  0
  160.2880  203.4230  150.5610 C   0  0  0  0  0  2  0  0  0  0  0  0
  161.7860  210.6660  151.1610 C   0  0  0  0  0  3  0  0  0  0  0  0
  160.0820  204.7720  151.2650 C   0  0  0  0  0  2  0  0  0  0  0  0
  160.8200  205.0410  148.2740 C   0  0  1  0  0  3  0  0  0  0  0  0
  162.2350  209.5840  149.0100 C   0  0  0  0  0  3  0  0  0  0  0  0
  161.7790  207.1620  148.8200 N   0  0  2  0  0  0  0  0  0  0  0  0
  161.7390  202.8360  147.5110 C   0  0  0  0  0  2  0  0  0  0  0  0
  161.5810  201.4700  148.1580 C   0  0  0  0  0  2  0  0  0  0  0  0
  160.2870  200.5760  144.8860 C   0  0  0  0  0  2  0  0  0  0  0  0
  161.5770  199.5080  146.6140 C   0  0  0  0  0  2  0  0  0  0  0  0
  160.7280  200.5680  147.2850 C   0  0  0  0  0  3  0  0  0  0  0  0
  160.9080  199.2540  145.2850 C   0  0  0  0  0  2  0  0  0  0  0  0
  160.1000  201.3740  146.1650 C   0  0  0  0  0  2  0  0  0  0  0  0
  1 26  1  6  0  0  0
  1 18  1  0  0  0  0
  2 27  1  0  0  0  0
  3 16  1  1  0  0  0
  3  7  1  0  0  0  0
  4 15  1  0  0  0  0
  5 11  1  6  0  0  0
  5 19  1  0  0  0  0
  6  7  1  0  0  0  0
  8 16  1  0  0  0  0
  9 13  1  0  0  0  0
 10 22  1  0  0  0  0
 12  8  1  0  0  0  0
 13 24  1  0  0  0  0
 13 20  1  0  0  0  0
 14  2  1  0  0  0  0
 14 25  1  0  0  0  0
 15  5  1  0  0  0  0
 15 12  1  0  0  0  0
 17 10  1  0  0  0  0
 18 20  1  0  0  0  0
 18  4  1  0  0  0  0
 19  3  1  0  0  0  0
 19  6  1  0  0  0  0
 20 11  1  0  0  0  0
 21 23  1  0  0  0  0
 22 24  1  0  0  0  0
 23  4  2  0  0  0  0
 25 17  1  0  0  0  0
 25  9  1  0  0  0  0
 26 21  2  0  0  0  0
 27  9  1  0  0  0  0
 27  1  1  0  0  0  0
 28 29  1  0  0  0  0
 28 17  1  0  0  0  0
 30 33  1  0  0  0  0
 30 34  1  0  0  0  0
 31 32  1  0  0  0  0
 32 29  1  0  0  0  0
 33 31  1  0  0  0  0
 34 32  1  0  0  0  0
M  END
>  <MODEL>
3

>  <REMARK>
 VINA RESULT:      -7.7      1.825      4.633
  Name = 
  3 active torsions:
  status: ('A' for Active; 'I' for Inactive)
    1  A    between atoms: C_17  and  C_28
    2  A    between atoms: C_28  and  C_29
    3  A    between atoms: C_29  and  C_32
                            x       y       z     vdW  Elec       q    Type
                         _______ _______ _______ _____ _____    ______ ____

>  <TORSDO>
F 3

$$$$
=
 OpenBabel11122414253D

 34 41  0  0  1  0  0  0  0  0999 V2000
  160.8520  204.9490  151.9440 C   0  0  1  0  0  3  0  0  0  0  0  0
  160.6290  206.3210  153.9280 C   0  0  0  0  0  2  0  0  0  0  0  0
  162.0260  203.7530  145.5700 C   0  0  2  0  0  3  0  0  0  0  0  0
  161.2160  203.6430  149.8450 C   0  0  0  0  0  0  0  0  0  0  0  0
  161.9970  204.7600  147.7630 C   0  0  1  0  0  3  0  0  0  0  0  0
  162.4300  205.8280  145.3890 C   0  0  0  0  0  2  0  0  0  0  0  0
  162.5900  204.6190  144.4680 C   0  0  0  0  0  2  0  0  0  0  0  0
  160.1800  202.4700  146.6710 C   0  0  0  0  0  2  0  0  0  0  0  0
  160.8310  207.2650  151.8860 C   0  0  2  0  0  3  0  0  0  0  0  0
  162.5950  209.7810  151.4280 C   0  0  0  0  0  2  0  0  0  0  0  0
  162.0610  206.0900  148.5460 C   0  0  0  0  0  2  0  0  0  0  0  0
  161.1140  202.4690  147.7330 O   0  0  0  0  0  0  0  0  0  0  0  0
  161.5330  207.3310  150.5190 C   0  0  1  0  0  3  0  0  0  0  0  0
  160.5950  207.8260  154.1750 C   0  0  0  0  0  2  0  0  0  0  0  0
  161.0040  203.7300  148.3660 C   0  0  1  0  0  3  0  0  0  0  0  0
  160.8310  202.8500  145.3180 C   0  0  0  0  0  2  0  0  0  0  0  0
  162.1510  209.2730  152.8150 C   0  0  2  0  0  3  0  0  0  0  0  0
  161.5620  204.9160  150.5760 C   0  0  1  0  0  3  0  0  0  0  0  0
  161.5850  204.9790  146.3200 C   0  0  1  0  0  3  0  0  0  0  0  0
  161.2250  206.1020  149.7590 N   0  0  2  0  0  0  0  0  0  0  0  0
  161.2060  202.5120  152.0140 C   0  0  0  0  0  3  0  0  0  0  0  0
  161.4410  209.9110  150.4300 C   0  0  0  0  0  2  0  0  0  0  0  0
  161.0820  202.5010  150.5370 C   0  0  0  0  0  3  0  0  0  0  0  0
  161.1030  208.5840  149.7370 C   0  0  0  0  0  2  0  0  0  0  0  0
  160.8320  208.4720  152.8150 C   0  0  1  0  0  3  0  0  0  0  0  0
  161.1490  203.6690  152.6880 C   0  0  0  0  0  3  0  0  0  0  0  0
  161.3140  206.1350  152.6570 N   0  0  2  0  0  0  0  0  0  0  0  0
  162.0340  210.4580  153.7630 C   0  0  0  0  0  2  0  0  0  0  0  0
  160.8800  211.3560  153.3500 C   0  0  0  0  0  2  0  0  0  0  0  0
  158.2450  210.7020  155.7610 C   0  0  0  0  0  2  0  0  0  0  0  0
  160.6140  211.1190  155.8210 C   0  0  0  0  0  2  0  0  0  0  0  0
  160.0790  211.7810  154.5680 C   0  0  0  0  0  3  0  0  0  0  0  0
  159.4070  210.9230  156.7060 C   0  0  0  0  0  2  0  0  0  0  0  0
  158.6410  211.3190  154.4310 C   0  0  0  0  0  2  0  0  0  0  0  0
  1 27  1  0  0  0  0
  1 26  1  1  0  0  0
  2 14  1  0  0  0  0
  3  7  1  6  0  0  0
  3 19  1  0  0  0  0
  4 23  2  0  0  0  0
  4 18  1  0  0  0  0
  5 15  1  0  0  0  0
  5 11  1  1  0  0  0
  6 19  1  0  0  0  0
  7  6  1  0  0  0  0
  8 12  1  0  0  0  0
  9 27  1  0  0  0  0
  9 25  1  0  0  0  0
 10 17  1  0  0  0  0
 11 20  1  0  0  0  0
 12 15  1  0  0  0  0
 13  9  1  0  0  0  0
 15  4  1  0  0  0  0
 16  3  1  0  0  0  0
 16  8  1  0  0  0  0
 17 25  1  0  0  0  0
 17 28  1  0  0  0  0
 18  1  1  0  0  0  0
 19  5  1  0  0  0  0
 20 13  1  0  0  0  0
 20 18  1  0  0  0  0
 21 26  2  0  0  0  0
 22 10  1  0  0  0  0
 23 21  1  0  0  0  0
 24 22  1  0  0  0  0
 24 13  1  0  0  0  0
 25 14  1  0  0  0  0
 27  2  1  0  0  0  0
 29 28  1  0  0  0  0
 29 32  1  0  0  0  0
 30 33  1  0  0  0  0
 31 33  1  0  0  0  0
 32 31  1  0  0  0  0
 34 32  1  0  0  0  0
 34 30  1  0  0  0  0
M  END
>  <MODEL>
4

>  <REMARK>
 VINA RESULT:      -7.6      2.760      8.716
  Name = 
  3 active torsions:
  status: ('A' for Active; 'I' for Inactive)
    1  A    between atoms: C_17  and  C_28
    2  A    between atoms: C_28  and  C_29
    3  A    between atoms: C_29  and  C_32
                            x       y       z     vdW  Elec       q    Type
                         _______ _______ _______ _____ _____    ______ ____

>  <TORSDO>
F 3

$$$$
=
 OpenBabel11122414253D

 34 41  0  0  1  0  0  0  0  0999 V2000
  161.9120  208.5180  150.2920 C   0  0  1  0  0  3  0  0  0  0  0  0
  162.2260  210.2870  151.9160 C   0  0  0  0  0  2  0  0  0  0  0  0
  160.4210  202.4280  148.2590 C   0  0  2  0  0  3  0  0  0  0  0  0
  161.4510  206.6320  148.7190 C   0  0  0  0  0  0  0  0  0  0  0  0
  160.5550  204.4630  149.5490 C   0  0  1  0  0  3  0  0  0  0  0  0
  159.9920  201.9950  150.2920 C   0  0  0  0  0  2  0  0  0  0  0  0
  159.7950  201.2520  148.9710 C   0  0  0  0  0  2  0  0  0  0  0  0
  162.3310  203.5920  147.1360 C   0  0  0  0  0  2  0  0  0  0  0  0
  161.9120  208.1520  152.5810 C   0  0  2  0  0  3  0  0  0  0  0  0
  160.1070  207.4570  155.0110 C   0  0  0  0  0  2  0  0  0  0  0  0
  160.5210  205.0660  150.9700 C   0  0  0  0  0  2  0  0  0  0  0  0
  161.4540  204.6920  147.2750 O   0  0  0  0  0  0  0  0  0  0  0  0
  161.1400  206.8270  152.4630 C   0  0  1  0  0  3  0  0  0  0  0  0
  162.2610  210.3310  153.4400 C   0  0  0  0  0  2  0  0  0  0  0  0
  161.5860  205.1450  148.6090 C   0  0  1  0  0  3  0  0  0  0  0  0
  161.6090  202.2360  147.3320 C   0  0  0  0  0  2  0  0  0  0  0  0
  160.6260  208.8730  154.6920 C   0  0  2  0  0  3  0  0  0  0  0  0
  161.1330  207.2040  150.0780 C   0  0  1  0  0  3  0  0  0  0  0  0
  160.8900  202.9850  149.5740 C   0  0  1  0  0  3  0  0  0  0  0  0
  161.4180  206.2210  151.1450 N   0  0  2  0  0  0  0  0  0  0  0  0
  161.5810  208.9280  147.8860 C   0  0  0  0  0  3  0  0  0  0  0  0
  161.2060  206.3920  155.0090 C   0  0  0  0  0  2  0  0  0  0  0  0
  161.6290  207.4610  147.6790 C   0  0  0  0  0  3  0  0  0  0  0  0
  161.5190  205.8640  153.6020 C   0  0  0  0  0  2  0  0  0  0  0  0
  161.9490  208.9120  153.9000 C   0  0  1  0  0  3  0  0  0  0  0  0
  161.6640  209.4400  149.1230 C   0  0  0  0  0  3  0  0  0  0  0  0
  161.4780  209.0900  151.5620 N   0  0  2  0  0  0  0  0  0  0  0  0
  160.7820  209.6490  155.9930 C   0  0  0  0  0  2  0  0  0  0  0  0
  159.4320  209.8350  156.6650 C   0  0  0  0  0  2  0  0  0  0  0  0
  159.3310  212.7510  154.5040 C   0  0  0  0  0  2  0  0  0  0  0  0
  157.7780  211.0790  155.2670 C   0  0  0  0  0  2  0  0  0  0  0  0
  158.8560  211.1980  156.3240 C   0  0  0  0  0  3  0  0  0  0  0  0
  157.8700  212.3570  154.4680 C   0  0  0  0  0  2  0  0  0  0  0  0
  159.9340  212.0820  155.7260 C   0  0  0  0  0  2  0  0  0  0  0  0
  1 26  1  6  0  0  0
  1 27  1  0  0  0  0
  2 14  1  0  0  0  0
  3 16  1  6  0  0  0
  3  7  1  0  0  0  0
  3 19  1  0  0  0  0
  4 18  1  0  0  0  0
  5 19  1  0  0  0  0
  5 11  1  1  0  0  0
  7  6  1  0  0  0  0
  8 12  1  0  0  0  0
  8 16  1  0  0  0  0
  9 25  1  0  0  0  0
 11 20  1  0  0  0  0
 12 15  1  0  0  0  0
 13  9  1  0  0  0  0
 13 24  1  0  0  0  0
 14 25  1  0  0  0  0
 15  4  1  0  0  0  0
 15  5  1  0  0  0  0
 17 10  1  0  0  0  0
 17 28  1  0  0  0  0
 18  1  1  0  0  0  0
 18 20  1  0  0  0  0
 19  6  1  0  0  0  0
 20 13  1  0  0  0  0
 21 26  2  0  0  0  0
 22 10  1  0  0  0  0
 23 21  1  0  0  0  0
 23  4  2  0  0  0  0
 24 22  1  0  0  0  0
 25 17  1  0  0  0  0
 27  2  1  0  0  0  0
 27  9  1  0  0  0  0
 28 29  1  0  0  0  0
 30 34  1  0  0  0  0
 31 32  1  0  0  0  0
 32 29  1  0  0  0  0
 33 30  1  0  0  0  0
 33 31  1  0  0  0  0
 34 32  1  0  0  0  0
M  END
>  <MODEL>
5

>  <REMARK>
 VINA RESULT:      -7.2      2.384      9.014
  Name = 
  3 active torsions:
  status: ('A' for Active; 'I' for Inactive)
    1  A    between atoms: C_17  and  C_28
    2  A    between atoms: C_28  and  C_29
    3  A    between atoms: C_29  and  C_32
                            x       y       z     vdW  Elec       q    Type
                         _______ _______ _______ _____ _____    ______ ____

>  <TORSDO>
F 3

$$$$
=
 OpenBabel11122414253D

 34 41  0  0  1  0  0  0  0  0999 V2000
  161.3780  208.6260  149.5850 C   0  0  1  0  0  3  0  0  0  0  0  0
  161.3920  207.3680  147.5160 C   0  0  0  0  0  2  0  0  0  0  0  0
  160.9580  209.4500  156.1110 C   0  0  2  0  0  3  0  0  0  0  0  0
  161.4460  209.7840  151.7980 C   0  0  0  0  0  0  0  0  0  0  0  0
  161.3010  208.4940  153.9210 C   0  0  1  0  0  3  0  0  0  0  0  0
  160.7650  207.3410  156.2330 C   0  0  0  0  0  2  0  0  0  0  0  0
  160.9520  208.4630  157.2540 C   0  0  0  0  0  2  0  0  0  0  0  0
  159.8800  211.1740  154.6510 C   0  0  0  0  0  2  0  0  0  0  0  0
  160.7660  206.3950  149.4560 C   0  0  2  0  0  3  0  0  0  0  0  0
  161.6440  203.5060  150.1800 C   0  0  0  0  0  2  0  0  0  0  0  0
  161.2520  207.1970  153.0850 C   0  0  0  0  0  2  0  0  0  0  0  0
  161.0450  210.9360  153.8870 O   0  0  0  0  0  0  0  0  0  0  0  0
  161.0130  206.1440  150.9530 C   0  0  1  0  0  3  0  0  0  0  0  0
  161.0550  205.9250  147.1530 C   0  0  0  0  0  2  0  0  0  0  0  0
  160.8090  209.7500  153.1520 C   0  0  1  0  0  3  0  0  0  0  0  0
  160.0050  210.6330  156.0970 C   0  0  0  0  0  2  0  0  0  0  0  0
  161.7510  204.1170  148.7690 C   0  0  2  0  0  3  0  0  0  0  0  0
  161.6560  208.4680  151.0930 C   0  0  1  0  0  3  0  0  0  0  0  0
  160.4570  208.3850  155.1760 C   0  0  1  0  0  3  0  0  0  0  0  0
  160.8180  207.4070  151.6930 N   0  0  2  0  0  0  0  0  0  0  0  0
  162.3330  210.8870  149.8030 C   0  0  0  0  0  3  0  0  0  0  0  0
  160.2600  203.6760  150.8130 C   0  0  0  0  0  2  0  0  0  0  0  0
  161.8020  210.9250  151.1870 C   0  0  0  0  0  3  0  0  0  0  0  0
  160.0800  205.0430  151.4890 C   0  0  0  0  0  2  0  0  0  0  0  0
  160.7290  205.2340  148.4710 C   0  0  1  0  0  3  0  0  0  0  0  0
  162.1820  209.7870  149.0510 C   0  0  0  0  0  3  0  0  0  0  0  0
  161.7120  207.3640  148.9350 N   0  0  2  0  0  0  0  0  0  0  0  0
  161.6160  203.0070  147.7360 C   0  0  0  0  0  2  0  0  0  0  0  0
  162.2110  203.4440  146.4080 C   0  0  0  0  0  2  0  0  0  0  0  0
  159.2780  201.7180  145.1420 C   0  0  0  0  0  2  0  0  0  0  0  0
  160.4600  203.7570  144.6560 C   0  0  0  0  0  2  0  0  0  0  0  0
  161.4640  202.7950  145.2560 C   0  0  0  0  0  3  0  0  0  0  0  0
  159.3200  202.8890  144.1820 C   0  0  0  0  0  2  0  0  0  0  0  0
  160.6610  201.6110  145.7600 C   0  0  0  0  0  2  0  0  0  0  0  0
  1 26  1  6  0  0  0
  1 18  1  0  0  0  0
  2 27  1  0  0  0  0
  3 16  1  1  0  0  0
  3  7  1  0  0  0  0
  4 15  1  0  0  0  0
  5 11  1  6  0  0  0
  5 19  1  0  0  0  0
  6  7  1  0  0  0  0
  8 16  1  0  0  0  0
  9 13  1  0  0  0  0
 10 22  1  0  0  0  0
 12  8  1  0  0  0  0
 13 24  1  0  0  0  0
 13 20  1  0  0  0  0
 14  2  1  0  0  0  0
 14 25  1  0  0  0  0
 15 12  1  0  0  0  0
 15  5  1  0  0  0  0
 17 10  1  0  0  0  0
 18 20  1  0  0  0  0
 18  4  1  0  0  0  0
 19  3  1  0  0  0  0
 19  6  1  0  0  0  0
 20 11  1  0  0  0  0
 21 23  1  0  0  0  0
 22 24  1  0  0  0  0
 23  4  2  0  0  0  0
 25 17  1  0  0  0  0
 25  9  1  0  0  0  0
 26 21  2  0  0  0  0
 27  9  1  0  0  0  0
 27  1  1  0  0  0  0
 28 17  1  0  0  0  0
 29 28  1  0  0  0  0
 30 34  1  0  0  0  0
 31 32  1  0  0  0  0
 32 34  1  0  0  0  0
 32 29  1  0  0  0  0
 33 31  1  0  0  0  0
 33 30  1  0  0  0  0
M  END
>  <MODEL>
6

>  <REMARK>
 VINA RESULT:      -6.7      1.844      4.551
  Name = 
  3 active torsions:
  status: ('A' for Active; 'I' for Inactive)
    1  A    between atoms: C_17  and  C_28
    2  A    between atoms: C_28  and  C_29
    3  A    between atoms: C_29  and  C_32
                            x       y       z     vdW  Elec       q    Type
                         _______ _______ _______ _____ _____    ______ ____

>  <TORSDO>
F 3

$$$$
=
 OpenBabel11122414253D

 34 41  0  0  1  0  0  0  0  0999 V2000
  161.8010  207.4760  148.8190 C   0  0  1  0  0  3  0  0  0  0  0  0
  162.1710  209.7080  149.6820 C   0  0  0  0  0  2  0  0  0  0  0  0
  160.3050  201.0670  149.1830 C   0  0  2  0  0  3  0  0  0  0  0  0
  161.2890  205.1530  148.0510 C   0  0  0  0  0  0  0  0  0  0  0  0
  160.4730  203.4290  149.6500 C   0  0  1  0  0  3  0  0  0  0  0  0
  159.9890  201.3920  151.2560 C   0  0  0  0  0  2  0  0  0  0  0  0
  159.7360  200.2260  150.3010 C   0  0  0  0  0  2  0  0  0  0  0  0
  162.1340  201.7450  147.6150 C   0  0  0  0  0  2  0  0  0  0  0  0
  161.9260  207.9530  151.0830 C   0  0  2  0  0  3  0  0  0  0  0  0
  160.2630  208.1810  153.6960 C   0  0  0  0  0  2  0  0  0  0  0  0
  160.5030  204.5000  150.7620 C   0  0  0  0  0  2  0  0  0  0  0  0
  161.2480  202.8250  147.3990 O   0  0  0  0  0  0  0  0  0  0  0  0
  161.1710  206.6760  151.4900 C   0  0  1  0  0  3  0  0  0  0  0  0
  162.2850  210.2940  151.0860 C   0  0  0  0  0  2  0  0  0  0  0  0
  161.4420  203.7250  148.4730 C   0  0  1  0  0  3  0  0  0  0  0  0
  161.4450  200.5510  148.3220 C   0  0  0  0  0  2  0  0  0  0  0  0
  160.7420  209.3870  152.8640 C   0  0  2  0  0  3  0  0  0  0  0  0
  161.0340  206.1750  149.1310 C   0  0  1  0  0  3  0  0  0  0  0  0
  160.8330  202.0560  150.1840 C   0  0  1  0  0  3  0  0  0  0  0  0
  161.3900  205.6380  150.4620 N   0  0  2  0  0  0  0  0  0  0  0  0
  161.3380  206.9990  146.4470 C   0  0  0  0  0  3  0  0  0  0  0  0
  161.3780  207.1820  154.0150 C   0  0  0  0  0  2  0  0  0  0  0  0
  161.3990  205.5550  146.7760 C   0  0  0  0  0  3  0  0  0  0  0  0
  161.6250  206.1830  152.8750 C   0  0  0  0  0  2  0  0  0  0  0  0
  162.0210  209.1350  152.0390 C   0  0  1  0  0  3  0  0  0  0  0  0
  161.4770  207.9180  147.4120 C   0  0  0  0  0  3  0  0  0  0  0  0
  161.4260  208.4660  149.8220 N   0  0  2  0  0  0  0  0  0  0  0  0
  160.9530  210.5760  153.7910 C   0  0  0  0  0  2  0  0  0  0  0  0
  160.2950  210.3230  155.1370 C   0  0  0  0  0  2  0  0  0  0  0  0
  158.4890  213.3060  154.1230 C   0  0  0  0  0  2  0  0  0  0  0  0
  157.9510  211.0140  154.6210 C   0  0  0  0  0  2  0  0  0  0  0  0
  159.2090  211.3520  155.3950 C   0  0  0  0  0  3  0  0  0  0  0  0
  157.3290  212.3470  154.2830 C   0  0  0  0  0  2  0  0  0  0  0  0
  159.6540  212.7130  154.8960 C   0  0  0  0  0  2  0  0  0  0  0  0
  1 26  1  6  0  0  0
  1 18  1  0  0  0  0
  1 27  1  0  0  0  0
  2 27  1  0  0  0  0
  2 14  1  0  0  0  0
  3 16  1  1  0  0  0
  3 19  1  0  0  0  0
  3  7  1  0  0  0  0
  4 15  1  0  0  0  0
  4 18  1  0  0  0  0
  5 19  1  0  0  0  0
  5 11  1  1  0  0  0
  7  6  1  0  0  0  0
  8 16  1  0  0  0  0
  9 13  1  0  0  0  0
  9 25  1  0  0  0  0
 10 22  1  0  0  0  0
 12  8  1  0  0  0  0
 12 15  1  0  0  0  0
 13 24  1  0  0  0  0
 14 25  1  0  0  0  0
 15  5  1  0  0  0  0
 17 10  1  0  0  0  0
 17 28  1  0  0  0  0
 18 20  1  0  0  0  0
 19  6  1  0  0  0  0
 20 11  1  0  0  0  0
 20 13  1  0  0  0  0
 21 23  1  0  0  0  0
 21 26  2  0  0  0  0
 23  4  2  0  0  0  0
 24 22  1  0  0  0  0
 25 17  1  0  0  0  0
 27  9  1  0  0  0  0
 28 29  1  0  0  0  0
 29 32  1  0  0  0  0
 30 33  1  0  0  0  0
 30 34  1  0  0  0  0
 31 32  1  0  0  0  0
 33 31  1  0  0  0  0
 34 32  1  0  0  0  0
M  END
>  <MODEL>
7

>  <REMARK>
 VINA RESULT:      -5.8      2.574      9.333
  Name = 
  3 active torsions:
  status: ('A' for Active; 'I' for Inactive)
    1  A    between atoms: C_17  and  C_28
    2  A    between atoms: C_28  and  C_29
    3  A    between atoms: C_29  and  C_32
                            x       y       z     vdW  Elec       q    Type
                         _______ _______ _______ _____ _____    ______ ____

>  <TORSDO>
F 3

$$$$
