=
 OpenBabel11122413003D

 32 37  0  0  1  0  0  0  0  0999 V2000
  159.6120  211.0530  153.5450 C   0  0  0  0  0  0  0  0  0  0  0  0
  158.8810  213.9230  149.5750 C   0  0  0  0  0  3  0  0  0  0  0  0
  157.7300  214.4530  150.1600 C   0  0  0  0  0  3  0  0  0  0  0  0
  157.9880  211.0330  155.4740 C   0  0  0  0  0  0  0  0  0  0  0  0
  156.9300  211.6370  156.0150 C   0  0  0  0  0  0  0  0  0  0  0  0
  161.7880  209.7610  153.7120 C   0  0  2  0  0  3  0  0  0  0  0  0
  161.4500  211.3870  151.8340 C   0  0  0  0  0  2  0  0  0  0  0  0
  155.1350  213.0900  156.1030 N   0  0  0  0  0  0  0  0  0  0  0  0
  159.6470  212.9850  150.2690 C   0  0  0  0  0  3  0  0  0  0  0  0
  160.0670  211.6030  152.2790 N   0  0  0  0  0  0  0  0  0  0  0  0
  159.2700  212.5630  151.5570 C   0  0  0  0  0  0  0  0  0  0  0  0
  157.7240  212.6400  153.4880 C   0  0  0  0  0  0  0  0  0  0  0  0
  155.0780  212.2600  157.2590 N   0  0  0  0  0  0  0  0  0  0  0  0
  161.9840  210.0110  152.2170 C   0  0  2  0  0  3  0  0  0  0  0  0
  156.2010  211.3010  157.2320 C   0  0  0  0  0  3  0  0  0  0  0  0
  157.3460  214.0410  151.4380 C   0  0  0  0  0  3  0  0  0  0  0  0
  158.1110  213.0950  152.1420 C   0  0  0  0  0  0  0  0  0  0  0  0
  156.6570  213.1750  154.1050 C   0  0  0  0  0  3  0  0  0  0  0  0
  160.3150  209.8390  154.0970 C   0  0  0  0  0  2  0  0  0  0  0  0
  158.5690  209.9600  156.1430 O   0  0  0  0  0  1  0  0  0  0  0  0
  155.3380  214.4520  156.5760 C   0  0  0  0  0  1  0  0  0  0  0  0
  158.5010  211.5430  154.1550 C   0  0  0  0  0  0  0  0  0  0  0  0
  156.2870  212.7090  155.4050 N   0  0  0  0  0  0  0  0  0  0  0  0
  161.9420  208.9090  149.9860 C   0  0  0  0  0  2  0  0  0  0  0  0
  161.3360  208.9190  151.3750 C   0  0  1  0  0  3  0  0  0  0  0  0
  162.3800  207.8820  151.0090 C   0  0  1  0  0  3  0  0  0  0  0  0
  161.7210  206.6170  150.7400 N   0  0  0  0  0  2  0  0  0  0  0  0
  161.5080  205.6520  151.7690 C   0  0  0  0  0  0  0  0  0  0  0  0
  161.9230  205.9050  153.0710 O   0  0  0  0  0  1  0  0  0  0  0  0
  160.9360  204.5650  151.4970 O   0  0  0  0  0  0  0  0  0  0  0  0
  162.3120  210.3140  155.7900 C   0  0  0  0  0  1  0  0  0  0  0  0
  162.5320  210.6780  154.4610 O   0  0  0  0  0  0  0  0  0  0  0  0
  1 19  1  0  0  0  0
  1 22  2  0  0  0  0
  2  3  2  0  0  0  0
  2  9  1  0  0  0  0
  3 16  1  0  0  0  0
  4  5  2  0  0  0  0
  4 20  1  0  0  0  0
  5 15  1  0  0  0  0
  6 19  1  0  0  0  0
  6 32  1  1  0  0  0
  7 10  1  0  0  0  0
  8 21  1  0  0  0  0
  8 13  1  0  0  0  0
  9 11  2  0  0  0  0
 10  1  1  0  0  0  0
 11 17  1  0  0  0  0
 11 10  1  0  0  0  0
 12 18  2  0  0  0  0
 12 22  1  0  0  0  0
 14  7  1  6  0  0  0
 14  6  1  0  0  0  0
 15 13  2  0  0  0  0
 16 17  2  0  0  0  0
 17 12  1  0  0  0  0
 18 23  1  0  0  0  0
 22  4  1  0  0  0  0
 23  5  1  0  0  0  0
 23  8  1  0  0  0  0
 24 26  1  0  0  0  0
 25 24  1  6  0  0  0
 25 14  1  0  0  0  0
 26 27  1  6  0  0  0
 26 25  1  0  0  0  0
 27 28  1  0  0  0  0
 28 29  1  0  0  0  0
 30 28  2  0  0  0  0
 32 31  1  0  0  0  0
M  END
>  <MODEL>
1

>  <REMARK>
 VINA RESULT:      -5.3      0.000      0.000
  Name = 
  3 active torsions:
  status: ('A' for Active; 'I' for Inactive)
    1  A    between atoms: C_7  and  O_19
    2  A    between atoms: C_10  and  C_17
    3  A    between atoms: C_20  and  N_29
                            x       y       z     vdW  Elec       q    Type
                         _______ _______ _______ _____ _____    ______ ____

>  <TORSDO>
F 3

$$$$
=
 OpenBabel11122413003D

 32 37  0  0  1  0  0  0  0  0999 V2000
  161.1860  211.3450  150.0680 C   0  0  0  0  0  0  0  0  0  0  0  0
  158.1870  214.4530  152.4920 C   0  0  0  0  0  3  0  0  0  0  0  0
  158.0530  213.5280  153.5280 C   0  0  0  0  0  3  0  0  0  0  0  0
  161.7130  209.0500  150.9700 C   0  0  0  0  0  0  0  0  0  0  0  0
  161.6130  208.2440  152.0260 C   0  0  0  0  0  0  0  0  0  0  0  0
  162.3800  212.1940  147.9970 C   0  0  2  0  0  3  0  0  0  0  0  0
  161.0150  213.7780  149.3810 C   0  0  0  0  0  2  0  0  0  0  0  0
  160.8770  207.5620  154.1080 N   0  0  0  0  0  0  0  0  0  0  0  0
  159.0130  214.1660  151.4040 C   0  0  0  0  0  3  0  0  0  0  0  0
  160.5750  212.6550  150.2180 N   0  0  0  0  0  0  0  0  0  0  0  0
  159.7120  212.9470  151.3370 C   0  0  0  0  0  0  0  0  0  0  0  0
  160.3050  210.7420  152.2920 C   0  0  0  0  0  0  0  0  0  0  0  0
  161.5890  206.4760  153.5220 N   0  0  0  0  0  0  0  0  0  0  0  0
  161.3790  213.3480  147.9630 C   0  0  2  0  0  3  0  0  0  0  0  0
  162.0620  206.8660  152.1790 C   0  0  0  0  0  3  0  0  0  0  0  0
  158.7410  212.3150  153.4720 C   0  0  0  0  0  3  0  0  0  0  0  0
  159.5720  212.0170  152.3780 C   0  0  0  0  0  0  0  0  0  0  0  0
  160.2470  209.8560  153.3000 C   0  0  0  0  0  3  0  0  0  0  0  0
  161.8120  210.9910  148.7420 C   0  0  0  0  0  2  0  0  0  0  0  0
  162.3830  208.5990  149.8360 O   0  0  0  0  0  1  0  0  0  0  0  0
  161.6190  207.9570  155.2960 C   0  0  0  0  0  1  0  0  0  0  0  0
  161.0870  210.4150  151.0540 C   0  0  0  0  0  0  0  0  0  0  0  0
  160.9510  208.6170  153.1920 N   0  0  0  0  0  0  0  0  0  0  0  0
  159.0810  214.0670  147.3320 C   0  0  0  0  0  2  0  0  0  0  0  0
  160.1320  212.9880  147.1650 C   0  0  1  0  0  3  0  0  0  0  0  0
  159.9210  214.0180  146.0730 C   0  0  1  0  0  3  0  0  0  0  0  0
  159.1490  213.4220  144.9970 N   0  0  0  0  0  2  0  0  0  0  0  0
  159.6070  213.4480  143.6460 C   0  0  0  0  0  0  0  0  0  0  0  0
  160.8200  214.0440  143.3240 O   0  0  0  0  0  1  0  0  0  0  0  0
  158.9090  212.9240  142.7400 O   0  0  0  0  0  0  0  0  0  0  0  0
  163.8850  213.8160  147.9640 C   0  0  0  0  0  1  0  0  0  0  0  0
  163.5790  212.6060  148.5860 O   0  0  0  0  0  0  0  0  0  0  0  0
  1 10  1  0  0  0  0
  1 22  2  0  0  0  0
  2  3  1  0  0  0  0
  4 22  1  0  0  0  0
  4  5  2  0  0  0  0
  5 15  1  0  0  0  0
  5 23  1  0  0  0  0
  6 32  1  1  0  0  0
  6 19  1  0  0  0  0
  7 10  1  0  0  0  0
  8 21  1  0  0  0  0
  9  2  2  0  0  0  0
 10 11  1  0  0  0  0
 11  9  1  0  0  0  0
 11 17  2  0  0  0  0
 12 17  1  0  0  0  0
 12 18  2  0  0  0  0
 13  8  1  0  0  0  0
 14  6  1  0  0  0  0
 14  7  1  1  0  0  0
 15 13  2  0  0  0  0
 16  3  2  0  0  0  0
 17 16  1  0  0  0  0
 19  1  1  0  0  0  0
 20  4  1  0  0  0  0
 22 12  1  0  0  0  0
 23 18  1  0  0  0  0
 23  8  1  0  0  0  0
 25 24  1  1  0  0  0
 25 14  1  0  0  0  0
 26 27  1  6  0  0  0
 26 25  1  0  0  0  0
 26 24  1  0  0  0  0
 28 27  1  0  0  0  0
 29 28  1  0  0  0  0
 30 28  2  0  0  0  0
 31 32  1  0  0  0  0
M  END
>  <MODEL>
2

>  <REMARK>
 VINA RESULT:      -4.3      4.265      6.896
  Name = 
  3 active torsions:
  status: ('A' for Active; 'I' for Inactive)
    1  A    between atoms: C_7  and  O_19
    2  A    between atoms: C_10  and  C_17
    3  A    between atoms: C_20  and  N_29
                            x       y       z     vdW  Elec       q    Type
                         _______ _______ _______ _____ _____    ______ ____

>  <TORSDO>
F 3

$$$$
=
 OpenBabel11122413003D

 32 37  0  0  1  0  0  0  0  0999 V2000
  160.9050  208.5230  151.9850 C   0  0  0  0  0  0  0  0  0  0  0  0
  160.6690  208.3540  156.9300 C   0  0  0  0  0  3  0  0  0  0  0  0
  160.6530  206.9590  156.8890 C   0  0  0  0  0  3  0  0  0  0  0  0
  160.8540  206.4220  150.5910 C   0  0  0  0  0  0  0  0  0  0  0  0
  160.9200  205.0920  150.6210 C   0  0  0  0  0  0  0  0  0  0  0  0
  161.3150  210.7670  150.8760 C   0  0  2  0  0  3  0  0  0  0  0  0
  161.3920  210.5840  153.3750 C   0  0  0  0  0  2  0  0  0  0  0  0
  160.9530  202.9930  151.5890 N   0  0  0  0  0  0  0  0  0  0  0  0
  160.7680  209.0850  155.7440 C   0  0  0  0  0  3  0  0  0  0  0  0
  160.9650  209.1820  153.2790 N   0  0  0  0  0  0  0  0  0  0  0  0
  160.8500  208.4280  154.5030 C   0  0  0  0  0  0  0  0  0  0  0  0
  160.9110  206.3520  153.1570 C   0  0  0  0  0  0  0  0  0  0  0  0
  160.8730  202.8180  150.1780 N   0  0  0  0  0  0  0  0  0  0  0  0
  160.9170  211.4270  152.1960 C   0  0  2  0  0  3  0  0  0  0  0  0
  160.8310  204.1400  149.5210 C   0  0  0  0  0  3  0  0  0  0  0  0
  160.7330  206.2970  155.6630 C   0  0  0  0  0  3  0  0  0  0  0  0
  160.8310  207.0260  154.4650 C   0  0  0  0  0  0  0  0  0  0  0  0
  160.9600  205.0110  153.0870 C   0  0  0  0  0  3  0  0  0  0  0  0
  160.7130  209.3700  150.7530 C   0  0  0  0  0  2  0  0  0  0  0  0
  160.7440  207.0660  149.3620 O   0  0  0  0  0  1  0  0  0  0  0  0
  162.2220  202.4180  152.0110 C   0  0  0  0  0  1  0  0  0  0  0  0
  160.8950  207.1670  151.8980 C   0  0  0  0  0  0  0  0  0  0  0  0
  161.0200  204.3740  151.8080 N   0  0  0  0  0  0  0  0  0  0  0  0
  159.1010  212.5890  153.4380 C   0  0  0  0  0  2  0  0  0  0  0  0
  159.4160  211.6760  152.2700 C   0  0  1  0  0  3  0  0  0  0  0  0
  159.1390  213.1460  152.0300 C   0  0  1  0  0  3  0  0  0  0  0  0
  157.7840  213.3010  151.5330 N   0  0  0  0  0  2  0  0  0  0  0  0
  157.5200  213.5790  150.1580 C   0  0  0  0  0  0  0  0  0  0  0  0
  158.5650  213.7030  149.2500 O   0  0  0  0  0  0  0  0  0  0  0  0
  156.3330  213.7110  149.7640 O   0  0  0  0  0  1  0  0  0  0  0  0
  162.9710  211.0760  149.4410 C   0  0  0  0  0  1  0  0  0  0  0  0
  162.7060  210.7050  150.7600 O   0  0  0  0  0  0  0  0  0  0  0  0
  1 10  1  0  0  0  0
  3  2  1  0  0  0  0
  4  5  2  0  0  0  0
  4 22  1  0  0  0  0
  5 23  1  0  0  0  0
  6 32  1  1  0  0  0
  6 14  1  0  0  0  0
  8 23  1  0  0  0  0
  8 21  1  0  0  0  0
  9  2  2  0  0  0  0
 10  7  1  0  0  0  0
 10 11  1  0  0  0  0
 11  9  1  0  0  0  0
 12 17  1  0  0  0  0
 13  8  1  0  0  0  0
 14 25  1  0  0  0  0
 14  7  1  1  0  0  0
 15 13  2  0  0  0  0
 15  5  1  0  0  0  0
 16  3  2  0  0  0  0
 17 11  2  0  0  0  0
 17 16  1  0  0  0  0
 18 12  2  0  0  0  0
 19  6  1  0  0  0  0
 19  1  1  0  0  0  0
 20  4  1  0  0  0  0
 22  1  2  0  0  0  0
 22 12  1  0  0  0  0
 23 18  1  0  0  0  0
 25 24  1  1  0  0  0
 26 27  1  6  0  0  0
 26 25  1  0  0  0  0
 26 24  1  0  0  0  0
 28 27  1  0  0  0  0
 29 28  2  0  0  0  0
 30 28  1  0  0  0  0
 31 32  1  0  0  0  0
M  END
>  <MODEL>
3

>  <REMARK>
 VINA RESULT:      -4.2      3.070      8.060
  Name = 
  3 active torsions:
  status: ('A' for Active; 'I' for Inactive)
    1  A    between atoms: C_7  and  O_19
    2  A    between atoms: C_10  and  C_17
    3  A    between atoms: C_20  and  N_29
                            x       y       z     vdW  Elec       q    Type
                         _______ _______ _______ _____ _____    ______ ____

>  <TORSDO>
F 3

$$$$
=
 OpenBabel11122413003D

 32 37  0  0  1  0  0  0  0  0999 V2000
  161.5110  208.9870  149.8030 C   0  0  0  0  0  0  0  0  0  0  0  0
  161.0370  209.9690  154.6350 C   0  0  0  0  0  3  0  0  0  0  0  0
  160.8460  208.6130  154.9000 C   0  0  0  0  0  3  0  0  0  0  0  0
  161.2540  206.6450  148.9030 C   0  0  0  0  0  0  0  0  0  0  0  0
  161.1490  205.3570  149.2290 C   0  0  0  0  0  0  0  0  0  0  0  0
  162.2510  210.8590  148.2610 C   0  0  2  0  0  3  0  0  0  0  0  0
  162.1950  211.2390  150.7380 C   0  0  0  0  0  2  0  0  0  0  0  0
  160.8710  203.5420  150.6330 N   0  0  0  0  0  0  0  0  0  0  0  0
  161.2810  210.3970  153.3280 C   0  0  0  0  0  3  0  0  0  0  0  0
  161.5970  209.9100  150.9210 N   0  0  0  0  0  0  0  0  0  0  0  0
  161.3340  209.4710  152.2690 C   0  0  0  0  0  0  0  0  0  0  0  0
  161.1880  207.1510  151.4200 C   0  0  0  0  0  0  0  0  0  0  0  0
  160.8320  203.0630  149.2920 N   0  0  0  0  0  0  0  0  0  0  0  0
  161.8840  211.8420  149.3720 C   0  0  2  0  0  3  0  0  0  0  0  0
  160.9880  204.1980  148.3600 C   0  0  0  0  0  3  0  0  0  0  0  0
  160.8950  207.6860  153.8570 C   0  0  0  0  0  3  0  0  0  0  0  0
  161.1370  208.1090  152.5380 C   0  0  0  0  0  0  0  0  0  0  0  0
  161.0690  205.8330  151.6480 C   0  0  0  0  0  3  0  0  0  0  0  0
  161.4830  209.5490  148.4040 C   0  0  0  0  0  2  0  0  0  0  0  0
  161.2810  207.0020  147.5580 O   0  0  0  0  0  1  0  0  0  0  0  0
  162.0370  202.9370  151.2600 C   0  0  0  0  0  1  0  0  0  0  0  0
  161.3310  207.6560  150.0140 C   0  0  0  0  0  0  0  0  0  0  0  0
  161.1040  204.9200  150.5490 N   0  0  0  0  0  0  0  0  0  0  0  0
  160.2900  213.7290  149.6730 C   0  0  0  0  0  2  0  0  0  0  0  0
  160.4250  212.2710  149.2830 C   0  0  1  0  0  3  0  0  0  0  0  0
  160.2790  213.3340  148.2120 C   0  0  1  0  0  3  0  0  0  0  0  0
  158.9130  213.3300  147.7200 N   0  0  0  0  0  2  0  0  0  0  0  0
  158.5780  212.7720  146.4500 C   0  0  0  0  0  0  0  0  0  0  0  0
  159.5600  212.2050  145.6470 O   0  0  0  0  0  0  0  0  0  0  0  0
  157.3840  212.7910  146.0550 O   0  0  0  0  0  1  0  0  0  0  0  0
  164.2060  211.8270  147.8850 C   0  0  0  0  0  1  0  0  0  0  0  0
  163.6280  210.6140  148.2610 O   0  0  0  0  0  0  0  0  0  0  0  0
  1 22  2  0  0  0  0
  1 10  1  0  0  0  0
  2  3  1  0  0  0  0
  4  5  2  0  0  0  0
  4 22  1  0  0  0  0
  5 23  1  0  0  0  0
  6 32  1  1  0  0  0
  6 19  1  0  0  0  0
  6 14  1  0  0  0  0
  7 10  1  0  0  0  0
  8 21  1  0  0  0  0
  9  2  2  0  0  0  0
 10 11  1  0  0  0  0
 11 17  2  0  0  0  0
 11  9  1  0  0  0  0
 12 18  2  0  0  0  0
 12 17  1  0  0  0  0
 13  8  1  0  0  0  0
 14  7  1  1  0  0  0
 15  5  1  0  0  0  0
 15 13  2  0  0  0  0
 16  3  2  0  0  0  0
 17 16  1  0  0  0  0
 19  1  1  0  0  0  0
 20  4  1  0  0  0  0
 22 12  1  0  0  0  0
 23  8  1  0  0  0  0
 23 18  1  0  0  0  0
 25 14  1  0  0  0  0
 25 24  1  1  0  0  0
 26 27  1  1  0  0  0
 26 25  1  0  0  0  0
 26 24  1  0  0  0  0
 28 27  1  0  0  0  0
 29 28  2  0  0  0  0
 30 28  1  0  0  0  0
 31 32  1  0  0  0  0
M  END
>  <MODEL>
4

>  <REMARK>
 VINA RESULT:      -4.2      4.494      8.160
  Name = 
  3 active torsions:
  status: ('A' for Active; 'I' for Inactive)
    1  A    between atoms: C_7  and  O_19
    2  A    between atoms: C_10  and  C_17
    3  A    between atoms: C_20  and  N_29
                            x       y       z     vdW  Elec       q    Type
                         _______ _______ _______ _____ _____    ______ ____

>  <TORSDO>
F 3

$$$$
=
 OpenBabel11122413003D

 32 37  0  0  1  0  0  0  0  0999 V2000
  160.8600  208.4630  152.0570 C   0  0  0  0  0  0  0  0  0  0  0  0
  160.7140  208.2480  157.0030 C   0  0  0  0  0  3  0  0  0  0  0  0
  160.7300  206.8540  156.9510 C   0  0  0  0  0  3  0  0  0  0  0  0
  160.8340  206.3730  150.6450 C   0  0  0  0  0  0  0  0  0  0  0  0
  160.9330  205.0440  150.6640 C   0  0  0  0  0  0  0  0  0  0  0  0
  161.1970  210.7240  150.9590 C   0  0  2  0  0  3  0  0  0  0  0  0
  161.3220  210.5240  153.4550 C   0  0  0  0  0  2  0  0  0  0  0  0
  161.0320  202.9390  151.6130 N   0  0  0  0  0  0  0  0  0  0  0  0
  160.7750  208.9910  155.8220 C   0  0  0  0  0  3  0  0  0  0  0  0
  160.9270  209.1130  153.3540 N   0  0  0  0  0  0  0  0  0  0  0  0
  160.8510  208.3470  154.5740 C   0  0  0  0  0  0  0  0  0  0  0  0
  160.9380  206.2830  153.2100 C   0  0  0  0  0  0  0  0  0  0  0  0
  160.9320  202.7740  150.2020 N   0  0  0  0  0  0  0  0  0  0  0  0
  160.8070  211.3650  152.2910 C   0  0  2  0  0  3  0  0  0  0  0  0
  160.8480  204.0990  149.5570 C   0  0  0  0  0  3  0  0  0  0  0  0
  160.8040  206.2040  155.7180 C   0  0  0  0  0  3  0  0  0  0  0  0
  160.8640  206.9450  154.5240 C   0  0  0  0  0  0  0  0  0  0  0  0
  161.0170  204.9450  153.1270 C   0  0  0  0  0  3  0  0  0  0  0  0
  160.6270  209.3150  150.8350 C   0  0  0  0  0  2  0  0  0  0  0  0
  160.6890  207.0240  149.4240 O   0  0  0  0  0  1  0  0  0  0  0  0
  162.3210  202.3910  152.0080 C   0  0  0  0  0  1  0  0  0  0  0  0
  160.8800  207.1070  151.9580 C   0  0  0  0  0  0  0  0  0  0  0  0
  161.0710  204.3190  151.8430 N   0  0  0  0  0  0  0  0  0  0  0  0
  158.9070  211.7870  153.8410 C   0  0  0  0  0  2  0  0  0  0  0  0
  159.3020  211.5770  152.3940 C   0  0  1  0  0  3  0  0  0  0  0  0
  159.0270  212.9750  152.9100 C   0  0  1  0  0  3  0  0  0  0  0  0
  157.7040  213.3900  152.4800 N   0  0  0  0  0  2  0  0  0  0  0  0
  156.8260  214.1020  153.3500 C   0  0  0  0  0  0  0  0  0  0  0  0
  157.2210  214.4260  154.6430 O   0  0  0  0  0  1  0  0  0  0  0  0
  155.6850  214.4420  152.9440 O   0  0  0  0  0  0  0  0  0  0  0  0
  162.8110  210.8440  149.4500 C   0  0  0  0  0  1  0  0  0  0  0  0
  162.5880  210.6970  150.8190 O   0  0  0  0  0  0  0  0  0  0  0  0
  1 10  1  0  0  0  0
  3  2  1  0  0  0  0
  4  5  2  0  0  0  0
  4 22  1  0  0  0  0
  5 23  1  0  0  0  0
  6 32  1  1  0  0  0
  6 14  1  0  0  0  0
  8 23  1  0  0  0  0
  8 21  1  0  0  0  0
  9  2  2  0  0  0  0
 10  7  1  0  0  0  0
 10 11  1  0  0  0  0
 11  9  1  0  0  0  0
 12 17  1  0  0  0  0
 13  8  1  0  0  0  0
 14 25  1  0  0  0  0
 14  7  1  1  0  0  0
 15 13  2  0  0  0  0
 15  5  1  0  0  0  0
 16  3  2  0  0  0  0
 17 11  2  0  0  0  0
 17 16  1  0  0  0  0
 18 12  2  0  0  0  0
 19  6  1  0  0  0  0
 19  1  1  0  0  0  0
 20  4  1  0  0  0  0
 22  1  2  0  0  0  0
 22 12  1  0  0  0  0
 23 18  1  0  0  0  0
 25 26  1  0  0  0  0
 25 24  1  1  0  0  0
 26 27  1  6  0  0  0
 26 24  1  0  0  0  0
 27 28  1  0  0  0  0
 28 29  1  0  0  0  0
 30 28  2  0  0  0  0
 31 32  1  0  0  0  0
M  END
>  <MODEL>
5

>  <REMARK>
 VINA RESULT:      -4.0      2.772      8.192
  Name = 
  3 active torsions:
  status: ('A' for Active; 'I' for Inactive)
    1  A    between atoms: C_7  and  O_19
    2  A    between atoms: C_10  and  C_17
    3  A    between atoms: C_20  and  N_29
                            x       y       z     vdW  Elec       q    Type
                         _______ _______ _______ _____ _____    ______ ____

>  <TORSDO>
F 3

$$$$
=
 OpenBabel11122413003D

 32 37  0  0  1  0  0  0  0  0999 V2000
  160.0270  210.0550  153.7350 C   0  0  0  0  0  0  0  0  0  0  0  0
  160.9510  213.2360  150.0520 C   0  0  0  0  0  3  0  0  0  0  0  0
  161.5010  212.2060  149.2890 C   0  0  0  0  0  3  0  0  0  0  0  0
  160.7080  207.6320  153.5850 C   0  0  0  0  0  0  0  0  0  0  0  0
  161.1680  206.6770  152.7770 C   0  0  0  0  0  0  0  0  0  0  0  0
  158.6380  210.8580  155.6990 C   0  0  2  0  0  3  0  0  0  0  0  0
  158.9630  212.3540  153.7140 C   0  0  0  0  0  2  0  0  0  0  0  0
  162.0790  205.7910  150.8460 N   0  0  0  0  0  0  0  0  0  0  0  0
  160.4220  212.9630  151.3150 C   0  0  0  0  0  3  0  0  0  0  0  0
  159.8840  211.3700  153.1320 N   0  0  0  0  0  0  0  0  0  0  0  0
  160.4410  211.6550  151.8320 C   0  0  0  0  0  0  0  0  0  0  0  0
  161.0170  209.2570  151.6200 C   0  0  0  0  0  0  0  0  0  0  0  0
  162.0360  204.7530  151.8220 N   0  0  0  0  0  0  0  0  0  0  0  0
  158.9160  212.2880  155.2370 C   0  0  2  0  0  3  0  0  0  0  0  0
  161.4760  205.2840  153.0800 C   0  0  0  0  0  3  0  0  0  0  0  0
  161.5260  210.9040  149.7930 C   0  0  0  0  0  3  0  0  0  0  0  0
  160.9980  210.6210  151.0650 C   0  0  0  0  0  0  0  0  0  0  0  0
  161.4840  208.2320  150.8880 C   0  0  0  0  0  3  0  0  0  0  0  0
  159.7130  209.8970  155.2010 C   0  0  0  0  0  2  0  0  0  0  0  0
  160.3990  207.3120  154.9030 O   0  0  0  0  0  1  0  0  0  0  0  0
  161.1990  205.3820  149.7610 C   0  0  0  0  0  1  0  0  0  0  0  0
  160.5520  209.0200  153.0270 C   0  0  0  0  0  0  0  0  0  0  0  0
  161.5100  206.9180  151.4510 N   0  0  0  0  0  0  0  0  0  0  0  0
  159.9310  213.3330  157.2550 C   0  0  0  0  0  2  0  0  0  0  0  0
  160.1990  212.8380  155.8480 C   0  0  1  0  0  3  0  0  0  0  0  0
  160.5910  211.9870  157.0390 C   0  0  1  0  0  3  0  0  0  0  0  0
  162.0210  212.1070  157.2610 N   0  0  0  0  0  2  0  0  0  0  0  0
  162.9040  211.0070  157.0460 C   0  0  0  0  0  0  0  0  0  0  0  0
  162.4140  209.7830  156.6080 O   0  0  0  0  0  0  0  0  0  0  0  0
  164.1370  211.1480  157.2520 O   0  0  0  0  0  1  0  0  0  0  0  0
  156.4760  211.2680  155.9350 C   0  0  0  0  0  1  0  0  0  0  0  0
  157.3780  210.4410  155.2640 O   0  0  0  0  0  0  0  0  0  0  0  0
  1 19  1  0  0  0  0
  2  9  1  0  0  0  0
  3 16  1  0  0  0  0
  3  2  2  0  0  0  0
  4 20  1  0  0  0  0
  5 15  1  0  0  0  0
  5  4  2  0  0  0  0
  6 32  1  6  0  0  0
  8 23  1  0  0  0  0
  8 13  1  0  0  0  0
  9 11  2  0  0  0  0
 10  7  1  0  0  0  0
 10  1  1  0  0  0  0
 11 10  1  0  0  0  0
 12 22  1  0  0  0  0
 13 15  2  0  0  0  0
 14  7  1  6  0  0  0
 14  6  1  0  0  0  0
 14 25  1  0  0  0  0
 16 17  2  0  0  0  0
 17 12  1  0  0  0  0
 17 11  1  0  0  0  0
 18 23  1  0  0  0  0
 18 12  2  0  0  0  0
 19  6  1  0  0  0  0
 21  8  1  0  0  0  0
 22  4  1  0  0  0  0
 22  1  2  0  0  0  0
 23  5  1  0  0  0  0
 25 26  1  0  0  0  0
 25 24  1  1  0  0  0
 26 24  1  0  0  0  0
 26 27  1  1  0  0  0
 28 30  1  0  0  0  0
 28 27  1  0  0  0  0
 29 28  2  0  0  0  0
 32 31  1  0  0  0  0
M  END
>  <MODEL>
6

>  <REMARK>
 VINA RESULT:      -3.7      2.514      6.549
  Name = 
  3 active torsions:
  status: ('A' for Active; 'I' for Inactive)
    1  A    between atoms: C_7  and  O_19
    2  A    between atoms: C_10  and  C_17
    3  A    between atoms: C_20  and  N_29
                            x       y       z     vdW  Elec       q    Type
                         _______ _______ _______ _____ _____    ______ ____

>  <TORSDO>
F 3

$$$$
=
 OpenBabel11122413003D

 32 37  0  0  1  0  0  0  0  0999 V2000
  160.6570  208.6530  152.9640 C   0  0  0  0  0  0  0  0  0  0  0  0
  162.3310  210.5590  148.7100 C   0  0  0  0  0  3  0  0  0  0  0  0
  161.7340  211.7830  149.0140 C   0  0  0  0  0  3  0  0  0  0  0  0
  159.2120  209.9990  154.5330 C   0  0  0  0  0  0  0  0  0  0  0  0
  158.7370  211.2140  154.8050 C   0  0  0  0  0  0  0  0  0  0  0  0
  161.4740  206.3540  153.6570 C   0  0  2  0  0  3  0  0  0  0  0  0
  162.4430  207.4560  151.6240 C   0  0  0  0  0  2  0  0  0  0  0  0
  158.2880  213.4490  154.4240 N   0  0  0  0  0  0  0  0  0  0  0  0
  162.2460  209.4980  149.6140 C   0  0  0  0  0  3  0  0  0  0  0  0
  161.4820  208.5570  151.7720 N   0  0  0  0  0  0  0  0  0  0  0  0
  161.5600  209.6480  150.8320 C   0  0  0  0  0  0  0  0  0  0  0  0
  160.2360  211.0210  152.4110 C   0  0  0  0  0  0  0  0  0  0  0  0
  157.5980  213.0640  155.6090 N   0  0  0  0  0  0  0  0  0  0  0  0
  161.9330  206.1450  152.2140 C   0  0  2  0  0  3  0  0  0  0  0  0
  157.8440  211.6330  155.8790 C   0  0  0  0  0  3  0  0  0  0  0  0
  161.0490  211.9430  150.2200 C   0  0  0  0  0  3  0  0  0  0  0  0
  160.9580  210.8790  151.1340 C   0  0  0  0  0  0  0  0  0  0  0  0
  159.7030  212.2020  152.7620 C   0  0  0  0  0  3  0  0  0  0  0  0
  160.3610  207.3940  153.7390 C   0  0  0  0  0  2  0  0  0  0  0  0
  158.9030  208.9440  155.3860 O   0  0  0  0  0  1  0  0  0  0  0  0
  159.2660  214.4530  154.8160 C   0  0  0  0  0  1  0  0  0  0  0  0
  160.0610  209.8270  153.3030 C   0  0  0  0  0  0  0  0  0  0  0  0
  158.9920  212.3160  153.9970 N   0  0  0  0  0  0  0  0  0  0  0  0
  161.2050  205.6430  149.8880 C   0  0  0  0  0  2  0  0  0  0  0  0
  160.8250  205.5530  151.3520 C   0  0  1  0  0  3  0  0  0  0  0  0
  161.3530  204.3300  150.6280 C   0  0  1  0  0  3  0  0  0  0  0  0
  160.2420  203.4570  150.2950 N   0  0  0  0  0  2  0  0  0  0  0  0
  160.3650  202.4400  149.3020 C   0  0  0  0  0  0  0  0  0  0  0  0
  161.5650  202.2520  148.6270 O   0  0  0  0  0  0  0  0  0  0  0  0
  159.3790  201.7040  149.0370 O   0  0  0  0  0  1  0  0  0  0  0  0
  161.9690  207.3470  155.5720 C   0  0  0  0  0  1  0  0  0  0  0  0
  162.5520  206.7360  154.4610 O   0  0  0  0  0  0  0  0  0  0  0  0
  1 22  2  0  0  0  0
  1 19  1  0  0  0  0
  2  3  2  0  0  0  0
  2  9  1  0  0  0  0
  3 16  1  0  0  0  0
  4  5  2  0  0  0  0
  4 20  1  0  0  0  0
  5 15  1  0  0  0  0
  6 19  1  0  0  0  0
  6 32  1  1  0  0  0
  7 10  1  0  0  0  0
  8 21  1  0  0  0  0
  8 13  1  0  0  0  0
  9 11  2  0  0  0  0
 10  1  1  0  0  0  0
 11 17  1  0  0  0  0
 11 10  1  0  0  0  0
 12 18  2  0  0  0  0
 12 22  1  0  0  0  0
 13 15  2  0  0  0  0
 14  7  1  6  0  0  0
 14  6  1  0  0  0  0
 16 17  2  0  0  0  0
 17 12  1  0  0  0  0
 18 23  1  0  0  0  0
 22  4  1  0  0  0  0
 23  8  1  0  0  0  0
 23  5  1  0  0  0  0
 24 26  1  0  0  0  0
 25 24  1  6  0  0  0
 25 14  1  0  0  0  0
 26 27  1  6  0  0  0
 26 25  1  0  0  0  0
 28 27  1  0  0  0  0
 29 28  2  0  0  0  0
 30 28  1  0  0  0  0
 32 31  1  0  0  0  0
M  END
>  <MODEL>
7

>  <REMARK>
 VINA RESULT:      -3.6      2.228      3.615
  Name = 
  3 active torsions:
  status: ('A' for Active; 'I' for Inactive)
    1  A    between atoms: C_7  and  O_19
    2  A    between atoms: C_10  and  C_17
    3  A    between atoms: C_20  and  N_29
                            x       y       z     vdW  Elec       q    Type
                         _______ _______ _______ _____ _____    ______ ____

>  <TORSDO>
F 3

$$$$
=
 OpenBabel11122413003D

 32 37  0  0  1  0  0  0  0  0999 V2000
  160.2000  211.5000  151.9230 C   0  0  0  0  0  0  0  0  0  0  0  0
  156.1500  213.6870  153.7520 C   0  0  0  0  0  3  0  0  0  0  0  0
  156.0300  214.4530  152.5920 C   0  0  0  0  0  3  0  0  0  0  0  0
  161.1550  212.1560  149.6830 C   0  0  0  0  0  0  0  0  0  0  0  0
  160.9390  212.8540  148.5680 C   0  0  0  0  0  0  0  0  0  0  0  0
  161.1770  209.5280  153.1840 C   0  0  2  0  0  3  0  0  0  0  0  0
  159.0150  210.5420  153.9460 C   0  0  0  0  0  2  0  0  0  0  0  0
  159.8640  214.3640  147.1880 N   0  0  0  0  0  0  0  0  0  0  0  0
  157.1790  212.7500  153.8650 C   0  0  0  0  0  3  0  0  0  0  0  0
  159.1580  211.5940  152.9310 N   0  0  0  0  0  0  0  0  0  0  0  0
  158.1030  212.5700  152.8200 C   0  0  0  0  0  0  0  0  0  0  0  0
  158.9600  213.1490  150.5710 C   0  0  0  0  0  0  0  0  0  0  0  0
  161.0730  213.9710  146.5430 N   0  0  0  0  0  0  0  0  0  0  0  0
  160.3550  209.9690  154.3950 C   0  0  2  0  0  3  0  0  0  0  0  0
  161.8010  213.0170  147.4030 C   0  0  0  0  0  3  0  0  0  0  0  0
  156.9420  214.2830  151.5480 C   0  0  0  0  0  3  0  0  0  0  0  0
  157.9820  213.3440  151.6560 C   0  0  0  0  0  0  0  0  0  0  0  0
  158.8370  213.8260  149.4170 C   0  0  0  0  0  3  0  0  0  0  0  0
  161.4360  210.6950  152.2370 C   0  0  0  0  0  2  0  0  0  0  0  0
  162.3210  211.4040  149.7960 O   0  0  0  0  0  1  0  0  0  0  0  0
  158.7710  213.9080  146.3410 C   0  0  0  0  0  1  0  0  0  0  0  0
  160.1220  212.2220  150.7740 C   0  0  0  0  0  0  0  0  0  0  0  0
  159.8050  213.6360  148.3830 N   0  0  0  0  0  0  0  0  0  0  0  0
  160.2450  211.4250  156.4100 C   0  0  0  0  0  2  0  0  0  0  0  0
  161.1160  210.9690  155.2570 C   0  0  1  0  0  3  0  0  0  0  0  0
  161.3200  210.3840  156.6410 C   0  0  1  0  0  3  0  0  0  0  0  0
  162.4770  211.0090  157.2570 N   0  0  0  0  0  2  0  0  0  0  0  0
  163.7070  211.1630  156.5500 C   0  0  0  0  0  0  0  0  0  0  0  0
  163.8280  210.7210  155.2390 O   0  0  0  0  0  0  0  0  0  0  0  0
  164.6890  211.7060  157.1190 O   0  0  0  0  0  1  0  0  0  0  0  0
  161.5070  207.9490  151.6690 C   0  0  0  0  0  1  0  0  0  0  0  0
  160.5310  208.4910  152.5070 O   0  0  0  0  0  0  0  0  0  0  0  0
  1 19  1  0  0  0  0
  1 10  1  0  0  0  0
  2  9  1  0  0  0  0
  3  2  2  0  0  0  0
  4 20  1  0  0  0  0
  4 22  1  0  0  0  0
  5  4  2  0  0  0  0
  6 32  1  6  0  0  0
  6 14  1  0  0  0  0
  8 23  1  0  0  0  0
 10  7  1  0  0  0  0
 11 10  1  0  0  0  0
 11  9  2  0  0  0  0
 12 22  1  0  0  0  0
 12 17  1  0  0  0  0
 13  8  1  0  0  0  0
 13 15  2  0  0  0  0
 14  7  1  6  0  0  0
 14 25  1  0  0  0  0
 15  5  1  0  0  0  0
 16 17  2  0  0  0  0
 16  3  1  0  0  0  0
 17 11  1  0  0  0  0
 18 12  2  0  0  0  0
 19  6  1  0  0  0  0
 21  8  1  0  0  0  0
 22  1  2  0  0  0  0
 23  5  1  0  0  0  0
 23 18  1  0  0  0  0
 24 26  1  0  0  0  0
 25 24  1  1  0  0  0
 25 26  1  0  0  0  0
 26 27  1  1  0  0  0
 28 30  1  0  0  0  0
 28 27  1  0  0  0  0
 29 28  2  0  0  0  0
 31 32  1  0  0  0  0
M  END
>  <MODEL>
8

>  <REMARK>
 VINA RESULT:      -3.5      2.665      6.306
  Name = 
  3 active torsions:
  status: ('A' for Active; 'I' for Inactive)
    1  A    between atoms: C_7  and  O_19
    2  A    between atoms: C_10  and  C_17
    3  A    between atoms: C_20  and  N_29
                            x       y       z     vdW  Elec       q    Type
                         _______ _______ _______ _____ _____    ______ ____

>  <TORSDO>
F 3

$$$$
=
 OpenBabel11122413003D

 32 37  0  0  1  0  0  0  0  0999 V2000
  159.9100  212.0260  153.3410 C   0  0  0  0  0  0  0  0  0  0  0  0
  160.8500  207.1830  153.7760 C   0  0  0  0  0  3  0  0  0  0  0  0
  161.3430  207.1530  152.4710 C   0  0  0  0  0  3  0  0  0  0  0  0
  160.3340  213.2630  151.1850 C   0  0  0  0  0  0  0  0  0  0  0  0
  160.8940  213.1890  149.9770 C   0  0  0  0  0  0  0  0  0  0  0  0
  159.2040  213.3060  155.4140 C   0  0  2  0  0  3  0  0  0  0  0  0
  159.8920  210.9040  155.6120 C   0  0  0  0  0  2  0  0  0  0  0  0
  161.9140  212.1650  148.1740 N   0  0  0  0  0  0  0  0  0  0  0  0
  160.4080  208.3870  154.3270 C   0  0  0  0  0  3  0  0  0  0  0  0
  160.0050  210.8230  154.1500 N   0  0  0  0  0  0  0  0  0  0  0  0
  160.4510  209.5770  153.5770 C   0  0  0  0  0  0  0  0  0  0  0  0
  160.9780  210.7960  151.4890 C   0  0  0  0  0  0  0  0  0  0  0  0
  161.5950  213.5000  147.7910 N   0  0  0  0  0  0  0  0  0  0  0  0
  158.8920  211.9610  156.0680 C   0  0  2  0  0  3  0  0  0  0  0  0
  160.9230  214.1850  148.9140 C   0  0  0  0  0  3  0  0  0  0  0  0
  161.3900  208.3280  151.7180 C   0  0  0  0  0  3  0  0  0  0  0  0
  160.9440  209.5440  152.2650 C   0  0  0  0  0  0  0  0  0  0  0  0
  161.5030  210.8140  150.2520 C   0  0  0  0  0  3  0  0  0  0  0  0
  159.1510  213.2070  153.8930 C   0  0  0  0  0  2  0  0  0  0  0  0
  159.7260  214.4520  151.5770 O   0  0  0  0  0  1  0  0  0  0  0  0
  163.3650  212.0550  148.1390 C   0  0  0  0  0  1  0  0  0  0  0  0
  160.3840  212.0460  152.0670 C   0  0  0  0  0  0  0  0  0  0  0  0
  161.5120  212.0350  149.5080 N   0  0  0  0  0  0  0  0  0  0  0  0
  156.5980  211.7530  157.0100 C   0  0  0  0  0  2  0  0  0  0  0  0
  157.4620  211.5170  155.7880 C   0  0  1  0  0  3  0  0  0  0  0  0
  156.5430  212.7210  155.8460 C   0  0  1  0  0  3  0  0  0  0  0  0
  155.3580  212.4560  155.0500 N   0  0  0  0  0  2  0  0  0  0  0  0
  155.0890  213.1780  153.8490 C   0  0  0  0  0  0  0  0  0  0  0  0
  155.9670  214.1580  153.4020 O   0  0  0  0  0  1  0  0  0  0  0  0
  154.0500  212.9220  153.1870 O   0  0  0  0  0  0  0  0  0  0  0  0
  160.2280  214.3620  157.0670 C   0  0  0  0  0  1  0  0  0  0  0  0
  160.4570  213.7700  155.8250 O   0  0  0  0  0  0  0  0  0  0  0  0
  1 19  1  0  0  0  0
  1 10  1  0  0  0  0
  2  9  1  0  0  0  0
  3  2  2  0  0  0  0
  4 20  1  0  0  0  0
  4 22  1  0  0  0  0
  5  4  2  0  0  0  0
  6 32  1  6  0  0  0
  6 14  1  0  0  0  0
  8 23  1  0  0  0  0
 10  7  1  0  0  0  0
 11 10  1  0  0  0  0
 11  9  2  0  0  0  0
 12 22  1  0  0  0  0
 12 17  1  0  0  0  0
 13  8  1  0  0  0  0
 13 15  2  0  0  0  0
 14  7  1  6  0  0  0
 15  5  1  0  0  0  0
 16 17  2  0  0  0  0
 16  3  1  0  0  0  0
 17 11  1  0  0  0  0
 18 12  2  0  0  0  0
 19  6  1  0  0  0  0
 21  8  1  0  0  0  0
 22  1  2  0  0  0  0
 23  5  1  0  0  0  0
 23 18  1  0  0  0  0
 25 26  1  0  0  0  0
 25 14  1  0  0  0  0
 25 24  1  1  0  0  0
 26 27  1  6  0  0  0
 26 24  1  0  0  0  0
 28 27  1  0  0  0  0
 29 28  1  0  0  0  0
 30 28  2  0  0  0  0
 32 31  1  0  0  0  0
M  END
>  <MODEL>
9

>  <REMARK>
 VINA RESULT:      -3.1      3.125      7.404
  Name = 
  3 active torsions:
  status: ('A' for Active; 'I' for Inactive)
    1  A    between atoms: C_7  and  O_19
    2  A    between atoms: C_10  and  C_17
    3  A    between atoms: C_20  and  N_29
                            x       y       z     vdW  Elec       q    Type
                         _______ _______ _______ _____ _____    ______ ____

>  <TORSDO>
F 3

$$$$
