=
 OpenBabel11122412463D

 32 37  0  0  1  0  0  0  0  0999 V2000
  161.4490  207.7220  149.0360 C   0  0  0  0  0  0  0  0  0  0  0  0
  161.5500  206.6820  153.7770 C   0  0  0  0  0  3  0  0  0  0  0  0
  161.2240  205.2710  153.4950 C   0  0  0  0  0  3  0  0  0  0  0  0
  161.3480  205.8730  147.3430 C   0  0  0  0  0  0  0  0  0  0  0  0
  161.3340  204.4210  147.2040 C   0  0  0  0  0  0  0  0  0  0  0  0
  161.3450  210.0190  148.3420 O   0  0  0  0  0  0  0  0  0  0  0  0
  161.4640  209.6120  150.6890 C   0  0  0  0  0  2  0  0  0  0  0  0
  161.2650  202.2290  147.8240 C   0  0  0  0  0  0  0  0  0  0  0  0
  161.4470  207.6170  152.8260 C   0  0  0  0  0  3  0  0  0  0  0  0
  161.4140  208.1710  150.4110 N   0  0  0  0  0  0  0  0  0  0  0  0
  160.8880  207.2900  151.4600 C   0  0  1  0  0  3  0  0  0  0  0  0
  161.1440  205.4100  149.8570 C   0  0  0  0  0  0  0  0  0  0  0  0
  161.3440  202.2630  146.5290 N   0  0  0  0  0  0  0  0  0  0  0  0
  162.0470  210.3780  149.5020 C   0  0  2  0  0  3  0  0  0  0  0  0
  161.3880  203.6460  146.1270 C   0  0  0  0  0  3  0  0  0  0  0  0
  161.0010  204.8570  152.2450 C   0  0  0  0  0  3  0  0  0  0  0  0
  161.0470  205.8230  151.1280 C   0  0  0  0  0  0  0  0  0  0  0  0
  161.1600  203.9920  149.5690 N   0  0  0  0  0  0  0  0  0  0  0  0
  161.8090  208.7410  147.9820 C   0  0  0  0  0  2  0  0  0  0  0  0
  161.3830  206.6100  146.3230 O   0  0  0  0  0  0  0  0  0  0  0  0
  161.1940  200.9700  148.6140 C   0  0  0  0  0  1  0  0  0  0  0  0
  161.2970  206.4110  148.7400 C   0  0  0  0  0  0  0  0  0  0  0  0
  161.2520  203.5730  148.3470 C   0  0  0  0  0  0  0  0  0  0  0  0
  162.6130  212.7700  148.7090 C   0  0  2  0  0  3  0  0  0  0  0  0
  161.9150  211.8780  149.7440 C   0  0  1  0  0  3  0  0  0  0  0  0
  161.1220  212.5120  148.6190 C   0  0  1  0  0  3  0  0  0  0  0  0
  163.3240  212.0240  147.5860 C   0  0  0  0  0  2  0  0  0  0  0  0
  163.0770  212.7320  146.2700 C   0  0  0  0  0  1  0  0  0  0  0  0
  160.4190  213.6400  149.1190 O   0  0  0  0  0  0  0  0  0  0  0  0
  159.0230  213.7040  149.1340 C   0  0  0  0  0  0  0  0  0  0  0  0
  158.2110  213.3300  147.9390 C   0  0  0  0  0  1  0  0  0  0  0  0
  158.4350  214.0850  150.1790 O   0  0  0  0  0  0  0  0  0  0  0  0
  1 10  1  0  0  0  0
  3  2  1  0  0  0  0
  4 22  1  0  0  0  0
  5  4  1  0  0  0  0
  5 23  1  0  0  0  0
  6 14  1  0  0  0  0
  8 23  1  0  0  0  0
  8 21  1  0  0  0  0
  9  2  2  0  0  0  0
 10  7  1  0  0  0  0
 10 11  1  0  0  0  0
 11  9  1  1  0  0  0
 12 17  2  0  0  0  0
 13  8  2  0  0  0  0
 14  7  1  1  0  0  0
 15 13  1  0  0  0  0
 15  5  2  0  0  0  0
 16  3  2  0  0  0  0
 17 11  1  0  0  0  0
 17 16  1  0  0  0  0
 18 12  1  0  0  0  0
 19  6  1  0  0  0  0
 19  1  1  0  0  0  0
 20  4  2  0  0  0  0
 22  1  2  0  0  0  0
 22 12  1  0  0  0  0
 23 18  2  0  0  0  0
 24 27  1  6  0  0  0
 24 25  1  0  0  0  0
 25 14  1  6  0  0  0
 26 24  1  0  0  0  0
 26 29  1  1  0  0  0
 26 25  1  0  0  0  0
 28 27  1  0  0  0  0
 29 30  1  0  0  0  0
 30 32  2  0  0  0  0
 31 30  1  0  0  0  0
M  END
>  <MODEL>
1

>  <REMARK>
 VINA RESULT:      -8.0      0.000      0.000
  Name = 
  4 active torsions:
  status: ('A' for Active; 'I' for Inactive)
    1  A    between atoms: C_1  and  C_16
    2  A    between atoms: C_10  and  C_17
    3  A    between atoms: C_20  and  O_29
    4  A    between atoms: O_29  and  C_30
                            x       y       z     vdW  Elec       q    Type
                         _______ _______ _______ _____ _____    ______ ____

>  <TORSDO>
F 4

$$$$
=
 OpenBabel11122412463D

 32 37  0  0  1  0  0  0  0  0999 V2000
  161.3690  206.2110  152.1020 C   0  0  0  0  0  0  0  0  0  0  0  0
  161.8140  209.4750  148.5360 C   0  0  0  0  0  3  0  0  0  0  0  0
  161.9490  208.3960  147.5380 C   0  0  0  0  0  3  0  0  0  0  0  0
  161.0440  203.7840  151.5540 C   0  0  0  0  0  0  0  0  0  0  0  0
  160.8880  202.8510  150.4440 C   0  0  0  0  0  0  0  0  0  0  0  0
  161.6150  206.9240  154.3820 O   0  0  0  0  0  0  0  0  0  0  0  0
  161.7780  208.6130  152.7060 C   0  0  0  0  0  2  0  0  0  0  0  0
  160.8140  202.1060  148.2910 C   0  0  0  0  0  0  0  0  0  0  0  0
  161.8820  209.2140  149.8460 C   0  0  0  0  0  3  0  0  0  0  0  0
  161.6400  207.5690  151.6830 N   0  0  0  0  0  0  0  0  0  0  0  0
  162.2100  207.8290  150.3560 C   0  0  1  0  0  3  0  0  0  0  0  0
  161.5430  205.5190  149.7340 C   0  0  0  0  0  0  0  0  0  0  0  0
  160.5620  201.0930  149.0610 N   0  0  0  0  0  0  0  0  0  0  0  0
  161.1200  208.1850  154.0160 C   0  0  2  0  0  3  0  0  0  0  0  0
  160.6070  201.5540  150.4250 C   0  0  0  0  0  2  0  0  0  0  0  0
  161.9550  207.1140  147.9120 C   0  0  0  0  0  3  0  0  0  0  0  0
  161.8560  206.7630  149.3450 C   0  0  0  0  0  0  0  0  0  0  0  0
  161.3410  204.4910  148.7360 N   0  0  0  0  0  2  0  0  0  0  0  0
  160.9750  205.9940  153.5430 C   0  0  0  0  0  2  0  0  0  0  0  0
  160.9460  203.3800  152.7440 O   0  0  0  0  0  0  0  0  0  0  0  0
  160.8620  202.0240  146.8070 C   0  0  0  0  0  1  0  0  0  0  0  0
  161.3420  205.2060  151.1950 C   0  0  0  0  0  0  0  0  0  0  0  0
  161.0380  203.2830  149.0940 C   0  0  0  0  0  0  0  0  0  0  0  0
  160.5260  209.1470  156.3390 C   0  0  2  0  0  3  0  0  0  0  0  0
  161.4390  209.2030  155.1070 C   0  0  1  0  0  3  0  0  0  0  0  0
  161.8900  208.4850  156.3630 C   0  0  1  0  0  3  0  0  0  0  0  0
  159.4450  208.0740  156.2960 C   0  0  0  0  0  2  0  0  0  0  0  0
  159.8660  206.8940  157.1470 C   0  0  0  0  0  1  0  0  0  0  0  0
  162.8010  209.3110  157.0740 O   0  0  0  0  0  0  0  0  0  0  0  0
  162.9380  210.6760  156.8050 C   0  0  0  0  0  0  0  0  0  0  0  0
  161.9210  211.6680  157.2610 C   0  0  0  0  0  1  0  0  0  0  0  0
  163.9420  211.0800  156.1640 O   0  0  0  0  0  0  0  0  0  0  0  0
  1 19  1  0  0  0  0
  2  9  2  0  0  0  0
  3 16  2  0  0  0  0
  3  2  1  0  0  0  0
  4 20  2  0  0  0  0
  5  4  1  0  0  0  0
  8 13  2  0  0  0  0
  8 23  1  0  0  0  0
 10  1  1  0  0  0  0
 10  7  1  0  0  0  0
 11  9  1  6  0  0  0
 11 10  1  0  0  0  0
 12 22  1  0  0  0  0
 13 15  1  0  0  0  0
 14  7  1  6  0  0  0
 14  6  1  0  0  0  0
 15  5  1  0  0  0  0
 16 17  1  0  0  0  0
 17 12  2  0  0  0  0
 17 11  1  0  0  0  0
 18 23  1  0  0  0  0
 18 12  1  0  0  0  0
 19  6  1  0  0  0  0
 21  8  1  0  0  0  0
 22  4  1  0  0  0  0
 22  1  2  0  0  0  0
 23  5  2  0  0  0  0
 24 27  1  6  0  0  0
 24 26  1  0  0  0  0
 25 14  1  6  0  0  0
 25 24  1  0  0  0  0
 25 26  1  0  0  0  0
 26 29  1  1  0  0  0
 27 28  1  0  0  0  0
 30 29  1  0  0  0  0
 30 31  1  0  0  0  0
 32 30  2  0  0  0  0
M  END
>  <MODEL>
2

>  <REMARK>
 VINA RESULT:      -7.9      3.553      6.115
  Name = 
  4 active torsions:
  status: ('A' for Active; 'I' for Inactive)
    1  A    between atoms: C_1  and  C_16
    2  A    between atoms: C_10  and  C_17
    3  A    between atoms: C_20  and  O_29
    4  A    between atoms: O_29  and  C_30
                            x       y       z     vdW  Elec       q    Type
                         _______ _______ _______ _____ _____    ______ ____

>  <TORSDO>
F 4

$$$$
=
 OpenBabel11122412463D

 32 37  0  0  1  0  0  0  0  0999 V2000
  161.2850  206.2610  151.9830 C   0  0  0  0  0  0  0  0  0  0  0  0
  161.9340  209.3070  148.2590 C   0  0  0  0  0  3  0  0  0  0  0  0
  162.0860  208.1700  147.3300 C   0  0  0  0  0  3  0  0  0  0  0  0
  160.9320  203.8130  151.5610 C   0  0  0  0  0  0  0  0  0  0  0  0
  160.8010  202.8210  150.5000 C   0  0  0  0  0  0  0  0  0  0  0  0
  161.4560  207.1000  154.2270 O   0  0  0  0  0  0  0  0  0  0  0  0
  161.7180  208.6860  152.4660 C   0  0  0  0  0  2  0  0  0  0  0  0
  160.7960  201.9560  148.3910 C   0  0  0  0  0  0  0  0  0  0  0  0
  161.9460  209.1210  149.5830 C   0  0  0  0  0  3  0  0  0  0  0  0
  161.5990  207.5880  151.4990 N   0  0  0  0  0  0  0  0  0  0  0  0
  162.2260  207.7620  150.1840 C   0  0  1  0  0  3  0  0  0  0  0  0
  161.5360  205.4320  149.6670 C   0  0  0  0  0  0  0  0  0  0  0  0
  160.4930  200.9920  149.2060 N   0  0  0  0  0  0  0  0  0  0  0  0
  161.0020  208.3460  153.7710 C   0  0  2  0  0  3  0  0  0  0  0  0
  160.4940  201.5300  150.5430 C   0  0  0  0  0  2  0  0  0  0  0  0
  162.0510  206.9120  147.7760 C   0  0  0  0  0  3  0  0  0  0  0  0
  161.8900  206.6450  149.2200 C   0  0  0  0  0  0  0  0  0  0  0  0
  161.3520  204.3520  148.7210 N   0  0  0  0  0  2  0  0  0  0  0  0
  160.8310  206.1350  153.4170 C   0  0  0  0  0  2  0  0  0  0  0  0
  160.7800  203.4800  152.7660 O   0  0  0  0  0  0  0  0  0  0  0  0
  160.8990  201.7870  146.9170 C   0  0  0  0  0  1  0  0  0  0  0  0
  161.2730  205.2070  151.1340 C   0  0  0  0  0  0  0  0  0  0  0  0
  161.0120  203.1720  149.1340 C   0  0  0  0  0  0  0  0  0  0  0  0
  160.3510  210.6250  154.7970 C   0  0  2  0  0  3  0  0  0  0  0  0
  161.2980  209.4190  154.8140 C   0  0  1  0  0  3  0  0  0  0  0  0
  160.1520  209.5070  155.8010 C   0  0  1  0  0  3  0  0  0  0  0  0
  159.2470  210.5670  153.7490 C   0  0  0  0  0  2  0  0  0  0  0  0
  159.2660  211.8340  152.9190 C   0  0  0  0  0  1  0  0  0  0  0  0
  160.6510  209.9150  157.0660 O   0  0  0  0  0  0  0  0  0  0  0  0
  161.6810  210.8500  157.1960 C   0  0  0  0  0  0  0  0  0  0  0  0
  163.1120  210.4320  157.2590 C   0  0  0  0  0  1  0  0  0  0  0  0
  161.3980  212.0740  157.2610 O   0  0  0  0  0  0  0  0  0  0  0  0
  1 19  1  0  0  0  0
  2  9  2  0  0  0  0
  3 16  2  0  0  0  0
  3  2  1  0  0  0  0
  4 20  2  0  0  0  0
  5 15  1  0  0  0  0
  5  4  1  0  0  0  0
  8 23  1  0  0  0  0
  8 13  2  0  0  0  0
 10  1  1  0  0  0  0
 10  7  1  0  0  0  0
 11  9  1  6  0  0  0
 11 10  1  0  0  0  0
 12 22  1  0  0  0  0
 13 15  1  0  0  0  0
 14  7  1  6  0  0  0
 14  6  1  0  0  0  0
 16 17  1  0  0  0  0
 17 12  2  0  0  0  0
 17 11  1  0  0  0  0
 18 23  1  0  0  0  0
 18 12  1  0  0  0  0
 19  6  1  0  0  0  0
 21  8  1  0  0  0  0
 22  4  1  0  0  0  0
 22  1  2  0  0  0  0
 23  5  2  0  0  0  0
 24 27  1  6  0  0  0
 24 25  1  0  0  0  0
 24 26  1  0  0  0  0
 25 14  1  6  0  0  0
 25 26  1  0  0  0  0
 26 29  1  1  0  0  0
 28 27  1  0  0  0  0
 29 30  1  0  0  0  0
 30 31  1  0  0  0  0
 30 32  2  0  0  0  0
M  END
>  <MODEL>
3

>  <REMARK>
 VINA RESULT:      -7.5      3.484      5.544
  Name = 
  4 active torsions:
  status: ('A' for Active; 'I' for Inactive)
    1  A    between atoms: C_1  and  C_16
    2  A    between atoms: C_10  and  C_17
    3  A    between atoms: C_20  and  O_29
    4  A    between atoms: O_29  and  C_30
                            x       y       z     vdW  Elec       q    Type
                         _______ _______ _______ _____ _____    ______ ____

>  <TORSDO>
F 4

$$$$
=
 OpenBabel11122412463D

 32 37  0  0  1  0  0  0  0  0999 V2000
  160.7410  209.7810  152.3410 C   0  0  0  0  0  0  0  0  0  0  0  0
  160.4760  206.3260  155.7410 C   0  0  0  0  0  3  0  0  0  0  0  0
  160.0820  207.3240  156.7530 C   0  0  0  0  0  3  0  0  0  0  0  0
  159.8500  212.0800  152.8090 C   0  0  0  0  0  0  0  0  0  0  0  0
  159.1720  212.8820  153.8200 C   0  0  0  0  0  0  0  0  0  0  0  0
  161.8670  209.3070  150.2730 O   0  0  0  0  0  0  0  0  0  0  0  0
  161.7250  207.5240  151.8500 C   0  0  0  0  0  2  0  0  0  0  0  0
  158.2440  213.4220  155.8310 C   0  0  0  0  0  0  0  0  0  0  0  0
  160.9440  206.7040  154.5460 C   0  0  0  0  0  3  0  0  0  0  0  0
  161.0740  208.4460  152.7890 N   0  0  0  0  0  0  0  0  0  0  0  0
  161.1920  208.1600  154.2230 C   0  0  1  0  0  3  0  0  0  0  0  0
  159.9780  210.2870  154.6370 C   0  0  0  0  0  0  0  0  0  0  0  0
  158.1050  214.4500  155.0510 N   0  0  0  0  0  0  0  0  0  0  0  0
  161.4940  207.9610  150.4050 C   0  0  2  0  0  3  0  0  0  0  0  0
  158.6890  214.1180  153.7760 C   0  0  0  0  0  3  0  0  0  0  0  0
  160.0010  208.6200  156.4420 C   0  0  0  0  0  3  0  0  0  0  0  0
  160.3410  209.0740  155.0770 C   0  0  0  0  0  0  0  0  0  0  0  0
  159.2790  211.1860  155.5300 N   0  0  0  0  0  0  0  0  0  0  0  0
  160.8340  210.0590  150.8600 C   0  0  0  0  0  2  0  0  0  0  0  0
  160.1000  212.5640  151.6730 O   0  0  0  0  0  0  0  0  0  0  0  0
  157.7670  213.3850  157.2390 C   0  0  0  0  0  1  0  0  0  0  0  0
  160.2400  210.6900  153.2090 C   0  0  0  0  0  0  0  0  0  0  0  0
  158.9210  212.3630  155.1240 C   0  0  0  0  0  0  0  0  0  0  0  0
  161.7560  205.7040  149.1760 C   0  0  2  0  0  3  0  0  0  0  0  0
  162.3300  207.0970  149.4670 C   0  0  1  0  0  3  0  0  0  0  0  0
  161.5620  206.8360  148.1870 C   0  0  1  0  0  3  0  0  0  0  0  0
  160.4290  205.3960  149.8580 C   0  0  0  0  0  2  0  0  0  0  0  0
  160.6000  204.2170  150.7940 C   0  0  0  0  0  1  0  0  0  0  0  0
  162.4790  206.6840  147.1120 O   0  0  0  0  0  0  0  0  0  0  0  0
  162.3060  205.7220  146.1140 C   0  0  0  0  0  0  0  0  0  0  0  0
  161.1070  205.7260  145.2250 C   0  0  0  0  0  1  0  0  0  0  0  0
  163.1810  204.8320  145.9570 O   0  0  0  0  0  0  0  0  0  0  0  0
  1 10  1  0  0  0  0
  1 22  2  0  0  0  0
  2  3  1  0  0  0  0
  4 22  1  0  0  0  0
  4  5  1  0  0  0  0
  5 23  1  0  0  0  0
  6 14  1  0  0  0  0
  6 19  1  0  0  0  0
  7 10  1  0  0  0  0
  8 21  1  0  0  0  0
  9  2  2  0  0  0  0
 10 11  1  0  0  0  0
 11  9  1  6  0  0  0
 11 17  1  0  0  0  0
 12 17  2  0  0  0  0
 12 18  1  0  0  0  0
 13  8  2  0  0  0  0
 14  7  1  1  0  0  0
 15  5  2  0  0  0  0
 15 13  1  0  0  0  0
 16  3  2  0  0  0  0
 17 16  1  0  0  0  0
 19  1  1  0  0  0  0
 20  4  2  0  0  0  0
 22 12  1  0  0  0  0
 23 18  2  0  0  0  0
 23  8  1  0  0  0  0
 24 25  1  0  0  0  0
 24 27  1  1  0  0  0
 25 14  1  1  0  0  0
 26 29  1  6  0  0  0
 26 24  1  0  0  0  0
 26 25  1  0  0  0  0
 27 28  1  0  0  0  0
 30 29  1  0  0  0  0
 31 30  1  0  0  0  0
 32 30  2  0  0  0  0
M  END
>  <MODEL>
4

>  <REMARK>
 VINA RESULT:      -7.1      3.639      8.206
  Name = 
  4 active torsions:
  status: ('A' for Active; 'I' for Inactive)
    1  A    between atoms: C_1  and  C_16
    2  A    between atoms: C_10  and  C_17
    3  A    between atoms: C_20  and  O_29
    4  A    between atoms: O_29  and  C_30
                            x       y       z     vdW  Elec       q    Type
                         _______ _______ _______ _____ _____    ______ ____

>  <TORSDO>
F 4

$$$$
=
 OpenBabel11122412463D

 32 37  0  0  1  0  0  0  0  0999 V2000
  160.9940  206.2670  151.6590 C   0  0  0  0  0  0  0  0  0  0  0  0
  162.2240  209.7910  148.5560 C   0  0  0  0  0  3  0  0  0  0  0  0
  162.2160  210.7840  149.6480 C   0  0  0  0  0  3  0  0  0  0  0  0
  161.0490  206.6900  154.1320 C   0  0  0  0  0  0  0  0  0  0  0  0
  161.3740  207.6980  155.1340 C   0  0  0  0  0  0  0  0  0  0  0  0
  160.1920  204.1730  150.7970 O   0  0  0  0  0  0  0  0  0  0  0  0
  160.8390  205.8160  149.1940 C   0  0  0  0  0  2  0  0  0  0  0  0
  161.9720  209.7240  155.9910 C   0  0  0  0  0  0  0  0  0  0  0  0
  161.7160  208.5670  148.7330 C   0  0  0  0  0  3  0  0  0  0  0  0
  161.1010  206.7470  150.2980 N   0  0  0  0  0  0  0  0  0  0  0  0
  161.0160  208.1850  150.0170 C   0  0  1  0  0  3  0  0  0  0  0  0
  161.4350  208.5730  152.4340 C   0  0  0  0  0  0  0  0  0  0  0  0
  161.8000  208.9150  156.9910 N   0  0  0  0  0  0  0  0  0  0  0  0
  160.9830  204.3660  149.6550 C   0  0  2  0  0  3  0  0  0  0  0  0
  161.4210  207.6310  156.4590 C   0  0  0  0  0  2  0  0  0  0  0  0
  161.8770  210.4310  150.8910 C   0  0  0  0  0  3  0  0  0  0  0  0
  161.4730  209.0390  151.1790 C   0  0  0  0  0  0  0  0  0  0  0  0
  161.7520  209.4600  153.5320 N   0  0  0  0  0  2  0  0  0  0  0  0
  160.8870  204.7740  151.8610 C   0  0  0  0  0  2  0  0  0  0  0  0
  160.7090  205.5290  154.4830 O   0  0  0  0  0  0  0  0  0  0  0  0
  162.3650  211.1500  156.1420 C   0  0  0  0  0  1  0  0  0  0  0  0
  161.1230  207.1220  152.7000 C   0  0  0  0  0  0  0  0  0  0  0  0
  161.7190  209.0290  154.7530 C   0  0  0  0  0  0  0  0  0  0  0  0
  161.4250  203.4000  147.3010 C   0  0  2  0  0  3  0  0  0  0  0  0
  160.5260  203.4270  148.5440 C   0  0  1  0  0  3  0  0  0  0  0  0
  161.5430  202.3190  148.3580 C   0  0  1  0  0  3  0  0  0  0  0  0
  162.6490  204.3060  147.3670 C   0  0  0  0  0  2  0  0  0  0  0  0
  162.9810  204.8130  145.9790 C   0  0  0  0  0  1  0  0  0  0  0  0
  160.8820  201.1460  147.9060 O   0  0  0  0  0  0  0  0  0  0  0  0
  160.9780  200.6950  146.5870 C   0  0  0  0  0  0  0  0  0  0  0  0
  160.3340  201.4330  145.4610 C   0  0  0  0  0  1  0  0  0  0  0  0
  161.6220  199.6430  146.3400 O   0  0  0  0  0  0  0  0  0  0  0  0
  1 19  1  0  0  0  0
  1 22  2  0  0  0  0
  2  9  2  0  0  0  0
  2  3  1  0  0  0  0
  3 16  2  0  0  0  0
  4 20  2  0  0  0  0
  4  5  1  0  0  0  0
  5 15  1  0  0  0  0
  6 19  1  0  0  0  0
  7 10  1  0  0  0  0
  8 21  1  0  0  0  0
  8 13  2  0  0  0  0
 10  1  1  0  0  0  0
 11  9  1  6  0  0  0
 11 10  1  0  0  0  0
 11 17  1  0  0  0  0
 12 22  1  0  0  0  0
 12 18  1  0  0  0  0
 14  7  1  6  0  0  0
 14  6  1  0  0  0  0
 15 13  1  0  0  0  0
 16 17  1  0  0  0  0
 17 12  2  0  0  0  0
 18 23  1  0  0  0  0
 22  4  1  0  0  0  0
 23  5  2  0  0  0  0
 23  8  1  0  0  0  0
 24 27  1  1  0  0  0
 24 26  1  0  0  0  0
 24 25  1  0  0  0  0
 25 14  1  1  0  0  0
 26 29  1  6  0  0  0
 26 25  1  0  0  0  0
 28 27  1  0  0  0  0
 30 29  1  0  0  0  0
 31 30  1  0  0  0  0
 32 30  2  0  0  0  0
M  END
>  <MODEL>
5

>  <REMARK>
 VINA RESULT:      -7.0      3.528      8.484
  Name = 
  4 active torsions:
  status: ('A' for Active; 'I' for Inactive)
    1  A    between atoms: C_1  and  C_16
    2  A    between atoms: C_10  and  C_17
    3  A    between atoms: C_20  and  O_29
    4  A    between atoms: O_29  and  C_30
                            x       y       z     vdW  Elec       q    Type
                         _______ _______ _______ _____ _____    ______ ____

>  <TORSDO>
F 4

$$$$
=
 OpenBabel11122412463D

 32 37  0  0  1  0  0  0  0  0999 V2000
  161.5780  207.5670  150.2060 C   0  0  0  0  0  0  0  0  0  0  0  0
  161.1920  203.8030  153.2480 C   0  0  0  0  0  3  0  0  0  0  0  0
  160.8570  202.9050  152.1260 C   0  0  0  0  0  3  0  0  0  0  0  0
  161.5920  207.1860  147.7260 C   0  0  0  0  0  0  0  0  0  0  0  0
  161.5530  206.1430  146.7080 C   0  0  0  0  0  0  0  0  0  0  0  0
  161.6020  209.7970  151.0980 O   0  0  0  0  0  0  0  0  0  0  0  0
  161.4830  208.0120  152.6760 C   0  0  0  0  0  2  0  0  0  0  0  0
  161.3660  204.0540  145.8150 C   0  0  0  0  0  0  0  0  0  0  0  0
  161.2060  205.1310  153.0870 C   0  0  0  0  0  3  0  0  0  0  0  0
  161.4210  207.0660  151.5550 N   0  0  0  0  0  0  0  0  0  0  0  0
  160.7730  205.7700  151.7870 C   0  0  1  0  0  3  0  0  0  0  0  0
  161.1340  205.2800  149.3790 C   0  0  0  0  0  0  0  0  0  0  0  0
  161.5710  204.8790  144.8340 N   0  0  0  0  0  0  0  0  0  0  0  0
  162.1980  209.2990  152.2670 C   0  0  2  0  0  3  0  0  0  0  0  0
  161.6910  206.2030  145.3890 C   0  0  0  0  0  3  0  0  0  0  0  0
  160.7450  203.3770  150.8820 C   0  0  0  0  0  3  0  0  0  0  0  0
  160.9250  204.8200  150.6200 C   0  0  0  0  0  0  0  0  0  0  0  0
  161.1390  204.3520  148.2690 N   0  0  0  0  0  0  0  0  0  0  0  0
  162.0650  208.9870  150.0460 C   0  0  0  0  0  2  0  0  0  0  0  0
  161.7450  208.3920  147.3970 O   0  0  0  0  0  0  0  0  0  0  0  0
  161.1860  202.5890  145.6360 C   0  0  0  0  0  1  0  0  0  0  0  0
  161.4200  206.7420  149.1460 C   0  0  0  0  0  0  0  0  0  0  0  0
  161.3390  204.7780  147.0610 C   0  0  0  0  0  0  0  0  0  0  0  0
  160.7480  211.0820  153.4450 C   0  0  2  0  0  3  0  0  0  0  0  0
  162.0830  210.3280  153.3860 C   0  0  1  0  0  3  0  0  0  0  0  0
  161.0060  209.9050  154.3650 C   0  0  1  0  0  3  0  0  0  0  0  0
  159.7300  210.6810  152.3850 C   0  0  0  0  0  2  0  0  0  0  0  0
  158.5780  211.6640  152.3890 C   0  0  0  0  0  1  0  0  0  0  0  0
  161.3360  210.3840  155.6610 O   0  0  0  0  0  0  0  0  0  0  0  0
  162.0960  209.6360  156.5630 C   0  0  0  0  0  0  0  0  0  0  0  0
  161.7560  208.2190  156.8840 C   0  0  0  0  0  1  0  0  0  0  0  0
  163.0910  210.1670  157.1190 O   0  0  0  0  0  0  0  0  0  0  0  0
  1 10  1  0  0  0  0
  3  2  1  0  0  0  0
  4 22  1  0  0  0  0
  5 23  1  0  0  0  0
  5  4  1  0  0  0  0
  6 14  1  0  0  0  0
  8 23  1  0  0  0  0
  9  2  2  0  0  0  0
 10 11  1  0  0  0  0
 10  7  1  0  0  0  0
 11  9  1  1  0  0  0
 12 17  2  0  0  0  0
 13 15  1  0  0  0  0
 13  8  2  0  0  0  0
 14  7  1  1  0  0  0
 15  5  2  0  0  0  0
 16  3  2  0  0  0  0
 17 16  1  0  0  0  0
 17 11  1  0  0  0  0
 18 12  1  0  0  0  0
 19  1  1  0  0  0  0
 19  6  1  0  0  0  0
 20  4  2  0  0  0  0
 21  8  1  0  0  0  0
 22 12  1  0  0  0  0
 22  1  2  0  0  0  0
 23 18  2  0  0  0  0
 24 27  1  6  0  0  0
 24 26  1  0  0  0  0
 25 14  1  6  0  0  0
 25 24  1  0  0  0  0
 25 26  1  0  0  0  0
 26 29  1  1  0  0  0
 27 28  1  0  0  0  0
 29 30  1  0  0  0  0
 30 31  1  0  0  0  0
 30 32  2  0  0  0  0
M  END
>  <MODEL>
6

>  <REMARK>
 VINA RESULT:      -6.6      2.856      4.447
  Name = 
  4 active torsions:
  status: ('A' for Active; 'I' for Inactive)
    1  A    between atoms: C_1  and  C_16
    2  A    between atoms: C_10  and  C_17
    3  A    between atoms: C_20  and  O_29
    4  A    between atoms: O_29  and  C_30
                            x       y       z     vdW  Elec       q    Type
                         _______ _______ _______ _____ _____    ______ ____

>  <TORSDO>
F 4

$$$$
=
 OpenBabel11122412463D

 32 37  0  0  1  0  0  0  0  0999 V2000
  161.4700  207.0110  149.0300 C   0  0  0  0  0  0  0  0  0  0  0  0
  161.2280  204.8790  153.3850 C   0  0  0  0  0  3  0  0  0  0  0  0
  160.8400  203.6000  152.7590 C   0  0  0  0  0  3  0  0  0  0  0  0
  161.3650  205.6240  146.9410 C   0  0  0  0  0  0  0  0  0  0  0  0
  161.2770  204.2510  146.4580 C   0  0  0  0  0  0  0  0  0  0  0  0
  161.5380  209.4080  148.9000 O   0  0  0  0  0  0  0  0  0  0  0  0
  161.4940  208.4530  151.0850 C   0  0  0  0  0  2  0  0  0  0  0  0
  161.0460  201.9850  146.5330 C   0  0  0  0  0  0  0  0  0  0  0  0
  161.2350  206.0170  152.6810 C   0  0  0  0  0  3  0  0  0  0  0  0
  161.3780  207.1250  150.4690 N   0  0  0  0  0  0  0  0  0  0  0  0
  160.7410  206.0600  151.2520 C   0  0  1  0  0  3  0  0  0  0  0  0
  160.9850  204.5970  149.2600 C   0  0  0  0  0  0  0  0  0  0  0  0
  161.2040  202.3170  145.2890 N   0  0  0  0  0  0  0  0  0  0  0  0
  162.1880  209.4340  150.1430 C   0  0  2  0  0  3  0  0  0  0  0  0
  161.3500  203.7500  145.2310 C   0  0  0  0  0  3  0  0  0  0  0  0
  160.6680  203.5080  151.4380 C   0  0  0  0  0  3  0  0  0  0  0  0
  160.8360  204.7050  150.5870 C   0  0  0  0  0  0  0  0  0  0  0  0
  160.9370  203.2890  148.6430 N   0  0  0  0  0  0  0  0  0  0  0  0
  161.9490  208.2230  148.2670 C   0  0  0  0  0  2  0  0  0  0  0  0
  161.5020  206.5780  146.1290 O   0  0  0  0  0  0  0  0  0  0  0  0
  160.8570  200.5840  146.9950 C   0  0  0  0  0  1  0  0  0  0  0  0
  161.2610  205.8200  148.4220 C   0  0  0  0  0  0  0  0  0  0  0  0
  161.0780  203.1650  147.3600 C   0  0  0  0  0  0  0  0  0  0  0  0
  162.0610  211.9760  149.7000 C   0  0  2  0  0  3  0  0  0  0  0  0
  162.1280  210.8400  150.7300 C   0  0  1  0  0  3  0  0  0  0  0  0
  160.8000  211.4840  150.3850 C   0  0  1  0  0  3  0  0  0  0  0  0
  162.0510  211.5280  148.2430 C   0  0  0  0  0  2  0  0  0  0  0  0
  161.0820  212.3850  147.4550 C   0  0  0  0  0  1  0  0  0  0  0  0
  160.4390  212.3950  151.4140 O   0  0  0  0  0  0  0  0  0  0  0  0
  159.1080  212.6470  151.7540 C   0  0  0  0  0  0  0  0  0  0  0  0
  158.5810  212.3520  153.1190 C   0  0  0  0  0  1  0  0  0  0  0  0
  158.3330  213.1360  150.8920 O   0  0  0  0  0  0  0  0  0  0  0  0
  1 10  1  0  0  0  0
  3  2  1  0  0  0  0
  4 22  1  0  0  0  0
  5  4  1  0  0  0  0
  5 23  1  0  0  0  0
  6 14  1  0  0  0  0
  8 21  1  0  0  0  0
  8 23  1  0  0  0  0
  9  2  2  0  0  0  0
 10  7  1  0  0  0  0
 10 11  1  0  0  0  0
 11  9  1  1  0  0  0
 12 17  2  0  0  0  0
 13  8  2  0  0  0  0
 14  7  1  1  0  0  0
 15 13  1  0  0  0  0
 15  5  2  0  0  0  0
 16  3  2  0  0  0  0
 17 11  1  0  0  0  0
 17 16  1  0  0  0  0
 18 12  1  0  0  0  0
 19  6  1  0  0  0  0
 19  1  1  0  0  0  0
 20  4  2  0  0  0  0
 22  1  2  0  0  0  0
 22 12  1  0  0  0  0
 23 18  2  0  0  0  0
 24 27  1  6  0  0  0
 24 26  1  0  0  0  0
 24 25  1  0  0  0  0
 25 14  1  6  0  0  0
 26 25  1  0  0  0  0
 26 29  1  1  0  0  0
 28 27  1  0  0  0  0
 29 30  1  0  0  0  0
 30 31  1  0  0  0  0
 32 30  2  0  0  0  0
M  END
>  <MODEL>
7

>  <REMARK>
 VINA RESULT:      -6.2      1.425      1.706
  Name = 
  4 active torsions:
  status: ('A' for Active; 'I' for Inactive)
    1  A    between atoms: C_1  and  C_16
    2  A    between atoms: C_10  and  C_17
    3  A    between atoms: C_20  and  O_29
    4  A    between atoms: O_29  and  C_30
                            x       y       z     vdW  Elec       q    Type
                         _______ _______ _______ _____ _____    ______ ____

>  <TORSDO>
F 4

$$$$
=
 OpenBabel11122412463D

 32 37  0  0  1  0  0  0  0  0999 V2000
  161.3030  208.4520  149.6460 C   0  0  0  0  0  0  0  0  0  0  0  0
  161.5330  208.7500  154.4860 C   0  0  0  0  0  3  0  0  0  0  0  0
  161.2260  207.3120  154.6100 C   0  0  0  0  0  3  0  0  0  0  0  0
  161.1950  206.2090  148.5270 C   0  0  0  0  0  0  0  0  0  0  0  0
  161.2040  204.7740  148.7890 C   0  0  0  0  0  0  0  0  0  0  0  0
  161.1400  210.4700  148.3540 O   0  0  0  0  0  0  0  0  0  0  0  0
  161.3220  210.7220  150.7190 C   0  0  0  0  0  2  0  0  0  0  0  0
  161.1880  202.8350  149.9870 C   0  0  0  0  0  0  0  0  0  0  0  0
  161.3910  209.3880  153.3190 C   0  0  0  0  0  3  0  0  0  0  0  0
  161.2910  209.2600  150.8460 N   0  0  0  0  0  0  0  0  0  0  0  0
  160.8060  208.6930  152.1100 C   0  0  1  0  0  3  0  0  0  0  0  0
  161.0580  206.4490  151.0760 C   0  0  0  0  0  0  0  0  0  0  0  0
  161.2360  202.5150  148.7300 N   0  0  0  0  0  0  0  0  0  0  0  0
  161.8630  211.1400  149.3520 C   0  0  2  0  0  3  0  0  0  0  0  0
  161.2460  203.7350  147.9640 C   0  0  0  0  0  3  0  0  0  0  0  0
  160.9810  206.5690  153.5270 C   0  0  0  0  0  3  0  0  0  0  0  0
  160.9840  207.1930  152.1880 C   0  0  0  0  0  0  0  0  0  0  0  0
  161.0920  205.0070  151.1860 N   0  0  0  0  0  0  0  0  0  0  0  0
  161.6190  209.1480  148.3440 C   0  0  0  0  0  2  0  0  0  0  0  0
  161.1920  206.6400  147.3430 O   0  0  0  0  0  0  0  0  0  0  0  0
  161.1590  201.8400  151.0920 C   0  0  0  0  0  1  0  0  0  0  0  0
  161.1670  207.1080  149.7240 C   0  0  0  0  0  0  0  0  0  0  0  0
  161.1640  204.2700  150.1220 C   0  0  0  0  0  0  0  0  0  0  0  0
  162.8890  213.3480  148.4920 C   0  0  2  0  0  3  0  0  0  0  0  0
  161.7100  212.6470  149.1790 C   0  0  1  0  0  3  0  0  0  0  0  0
  161.6430  212.9910  147.7040 C   0  0  1  0  0  3  0  0  0  0  0  0
  164.0320  212.4320  148.0730 C   0  0  0  0  0  2  0  0  0  0  0  0
  163.9930  212.2240  146.5730 C   0  0  0  0  0  1  0  0  0  0  0  0
  160.8480  214.1540  147.5290 O   0  0  0  0  0  0  0  0  0  0  0  0
  159.5220  214.0940  147.0930 C   0  0  0  0  0  0  0  0  0  0  0  0
  158.3900  213.9460  148.0550 C   0  0  0  0  0  1  0  0  0  0  0  0
  159.2730  214.1660  145.8620 O   0  0  0  0  0  0  0  0  0  0  0  0
  1 22  2  0  0  0  0
  1 10  1  0  0  0  0
  2  3  1  0  0  0  0
  4  5  1  0  0  0  0
  4 22  1  0  0  0  0
  5 23  1  0  0  0  0
  6 14  1  0  0  0  0
  7 10  1  0  0  0  0
  8 23  1  0  0  0  0
  8 21  1  0  0  0  0
  9  2  2  0  0  0  0
 10 11  1  0  0  0  0
 11 17  1  0  0  0  0
 11  9  1  1  0  0  0
 12 18  1  0  0  0  0
 12 17  2  0  0  0  0
 13  8  2  0  0  0  0
 14  7  1  1  0  0  0
 15 13  1  0  0  0  0
 15  5  2  0  0  0  0
 16  3  2  0  0  0  0
 17 16  1  0  0  0  0
 19  6  1  0  0  0  0
 19  1  1  0  0  0  0
 20  4  2  0  0  0  0
 22 12  1  0  0  0  0
 23 18  2  0  0  0  0
 24 27  1  6  0  0  0
 24 25  1  0  0  0  0
 25 14  1  6  0  0  0
 26 29  1  1  0  0  0
 26 24  1  0  0  0  0
 26 25  1  0  0  0  0
 28 27  1  0  0  0  0
 30 29  1  0  0  0  0
 30 31  1  0  0  0  0
 32 30  2  0  0  0  0
M  END
>  <MODEL>
8

>  <REMARK>
 VINA RESULT:      -6.1      1.391      1.744
  Name = 
  4 active torsions:
  status: ('A' for Active; 'I' for Inactive)
    1  A    between atoms: C_1  and  C_16
    2  A    between atoms: C_10  and  C_17
    3  A    between atoms: C_20  and  O_29
    4  A    between atoms: O_29  and  C_30
                            x       y       z     vdW  Elec       q    Type
                         _______ _______ _______ _____ _____    ______ ____

>  <TORSDO>
F 4

$$$$
=
 OpenBabel11122412463D

 32 37  0  0  1  0  0  0  0  0999 V2000
  161.3620  207.2100  149.7270 C   0  0  0  0  0  0  0  0  0  0  0  0
  160.4970  202.7290  151.3830 C   0  0  0  0  0  3  0  0  0  0  0  0
  160.8090  203.1560  152.7610 C   0  0  0  0  0  3  0  0  0  0  0  0
  161.6530  209.1130  151.3360 C   0  0  0  0  0  0  0  0  0  0  0  0
  161.6340  209.4520  152.7550 C   0  0  0  0  0  0  0  0  0  0  0  0
  161.6570  207.5510  147.3680 O   0  0  0  0  0  0  0  0  0  0  0  0
  161.1640  205.3280  148.0770 C   0  0  0  0  0  2  0  0  0  0  0  0
  161.5260  209.1430  155.0100 C   0  0  0  0  0  0  0  0  0  0  0  0
  160.7800  203.5140  150.3370 C   0  0  0  0  0  3  0  0  0  0  0  0
  161.2030  205.7950  149.4680 N   0  0  0  0  0  0  0  0  0  0  0  0
  161.5280  204.8150  150.5110 C   0  0  1  0  0  3  0  0  0  0  0  0
  161.4520  206.6870  152.1420 C   0  0  0  0  0  0  0  0  0  0  0  0
  161.6480  210.4170  154.7990 N   0  0  0  0  0  0  0  0  0  0  0  0
  160.7990  206.4670  147.1270 C   0  0  2  0  0  3  0  0  0  0  0  0
  161.7180  210.6230  153.3740 C   0  0  0  0  0  3  0  0  0  0  0  0
  161.2060  204.4050  153.0170 C   0  0  0  0  0  3  0  0  0  0  0  0
  161.3680  205.3700  151.9090 C   0  0  0  0  0  0  0  0  0  0  0  0
  161.4280  207.1710  153.5060 N   0  0  0  0  0  0  0  0  0  0  0  0
  161.2060  208.1510  148.5570 C   0  0  0  0  0  2  0  0  0  0  0  0
  161.8030  210.0130  150.4680 O   0  0  0  0  0  0  0  0  0  0  0  0
  161.4280  208.5370  156.3650 C   0  0  0  0  0  1  0  0  0  0  0  0
  161.5090  207.6620  150.9940 C   0  0  0  0  0  0  0  0  0  0  0  0
  161.5080  208.4400  153.7510 C   0  0  0  0  0  0  0  0  0  0  0  0
  162.3330  205.4540  145.3130 C   0  0  2  0  0  3  0  0  0  0  0  0
  160.9480  206.0000  145.6830 C   0  0  1  0  0  3  0  0  0  0  0  0
  161.1990  204.5050  145.6500 C   0  0  1  0  0  3  0  0  0  0  0  0
  163.3510  205.4470  146.4480 C   0  0  0  0  0  2  0  0  0  0  0  0
  164.2060  204.2000  146.3570 C   0  0  0  0  0  1  0  0  0  0  0  0
  160.6650  203.9660  144.4500 O   0  0  0  0  0  0  0  0  0  0  0  0
  159.7060  202.9500  144.4490 C   0  0  0  0  0  0  0  0  0  0  0  0
  160.0310  201.5690  144.9110 C   0  0  0  0  0  1  0  0  0  0  0  0
  158.5400  203.2030  144.0500 O   0  0  0  0  0  0  0  0  0  0  0  0
  1 22  2  0  0  0  0
  2  3  1  0  0  0  0
  3 16  2  0  0  0  0
  4  5  1  0  0  0  0
  5 15  2  0  0  0  0
  5 23  1  0  0  0  0
  6 19  1  0  0  0  0
  7 10  1  0  0  0  0
  8 21  1  0  0  0  0
  9  2  2  0  0  0  0
 10  1  1  0  0  0  0
 10 11  1  0  0  0  0
 11  9  1  1  0  0  0
 11 17  1  0  0  0  0
 12 18  1  0  0  0  0
 13  8  2  0  0  0  0
 14  6  1  0  0  0  0
 14  7  1  1  0  0  0
 15 13  1  0  0  0  0
 17 12  2  0  0  0  0
 17 16  1  0  0  0  0
 18 23  2  0  0  0  0
 19  1  1  0  0  0  0
 20  4  2  0  0  0  0
 22  4  1  0  0  0  0
 22 12  1  0  0  0  0
 23  8  1  0  0  0  0
 24 26  1  0  0  0  0
 24 25  1  0  0  0  0
 24 27  1  1  0  0  0
 25 14  1  1  0  0  0
 26 29  1  6  0  0  0
 26 25  1  0  0  0  0
 28 27  1  0  0  0  0
 30 29  1  0  0  0  0
 30 31  1  0  0  0  0
 32 30  2  0  0  0  0
M  END
>  <MODEL>
9

>  <REMARK>
 VINA RESULT:      -6.0      3.029      7.180
  Name = 
  4 active torsions:
  status: ('A' for Active; 'I' for Inactive)
    1  A    between atoms: C_1  and  C_16
    2  A    between atoms: C_10  and  C_17
    3  A    between atoms: C_20  and  O_29
    4  A    between atoms: O_29  and  C_30
                            x       y       z     vdW  Elec       q    Type
                         _______ _______ _______ _____ _____    ______ ____

>  <TORSDO>
F 4

$$$$
