=
 OpenBabel11122412363D

 30 35  0  0  1  0  0  0  0  0999 V2000
  161.3160  205.9400  150.1100 C   0  0  0  0  0  0  0  0  0  0  0  0
  161.0290  203.4430  149.9830 C   0  0  0  0  0  0  0  0  0  0  0  0
  161.0810  205.8080  154.3090 N   0  0  0  0  0  2  0  0  0  0  0  0
  161.4060  207.1180  150.9130 C   0  0  0  0  0  0  0  0  0  0  0  0
  161.4280  206.0720  148.7200 C   0  0  0  0  0  3  0  0  0  0  0  0
  161.8590  209.7020  148.2790 O   0  0  0  0  0  1  0  0  0  0  0  0
  160.3800  209.8390  152.0050 C   0  0  1  0  0  3  0  0  0  0  0  0
  161.6830  208.4660  148.8950 C   0  0  0  0  0  0  0  0  0  0  0  0
  160.3710  209.0420  153.2550 N   0  0  2  0  0  0  0  0  0  0  0  0
  161.2890  207.1850  154.5900 C   0  0  0  0  0  0  0  0  0  0  0  0
  161.6090  207.3160  148.1080 C   0  0  0  0  0  0  0  0  0  0  0  0
  161.5750  208.3830  150.2950 C   0  0  0  0  0  0  0  0  0  0  0  0
  160.8400  202.2270  150.6450 C   0  0  0  0  0  3  0  0  0  0  0  0
  160.5140  210.0210  154.3280 C   0  0  0  0  0  2  0  0  0  0  0  0
  160.1870  211.3020  152.3590 C   0  0  0  0  0  2  0  0  0  0  0  0
  161.1200  203.4110  148.5950 O   0  0  0  0  0  1  0  0  0  0  0  0
  161.1130  205.7480  152.8920 C   0  0  0  0  0  0  0  0  0  0  0  0
  160.7390  202.1800  152.0320 C   0  0  0  0  0  3  0  0  0  0  0  0
  161.1200  204.6590  150.7200 C   0  0  0  0  0  0  0  0  0  0  0  0
  161.3010  206.9810  152.3070 C   0  0  0  0  0  0  0  0  0  0  0  0
  161.3760  207.6220  155.7680 O   0  0  0  0  0  0  0  0  0  0  0  0
  161.4480  208.0410  153.3590 C   0  0  1  0  0  3  0  0  0  0  0  0
  159.9180  211.3150  153.8370 C   0  0  0  0  0  2  0  0  0  0  0  0
  162.9500  209.9740  151.6950 C   0  0  0  0  0  1  0  0  0  0  0  0
  160.8290  203.3520  152.7770 C   0  0  0  0  0  3  0  0  0  0  0  0
  161.0200  204.5810  152.1380 C   0  0  0  0  0  0  0  0  0  0  0  0
  161.5940  209.6720  151.0690 C   0  0  2  0  0  3  0  0  0  0  0  0
  161.7020  207.4320  146.7170 O   0  0  0  0  0  0  0  0  0  0  0  0
  160.3430  206.1110  145.2540 C   0  0  0  0  0  1  0  0  0  0  0  0
  161.7220  206.3090  145.8480 C   0  0  0  0  0  2  0  0  0  0  0  0
  1 19  2  0  0  0  0
  1  4  1  0  0  0  0
  2 13  2  0  0  0  0
  2 19  1  0  0  0  0
  3 10  1  0  0  0  0
  4 20  2  0  0  0  0
  5  1  1  0  0  0  0
  6  8  1  0  0  0  0
  7 15  1  1  0  0  0
  7  9  1  0  0  0  0
  8 12  2  0  0  0  0
  9 22  1  0  0  0  0
  9 14  1  1  0  0  0
 10 21  2  0  0  0  0
 11  5  2  0  0  0  0
 11  8  1  0  0  0  0
 12  4  1  0  0  0  0
 12 27  1  0  0  0  0
 13 18  1  0  0  0  0
 15 23  1  0  0  0  0
 16  2  1  0  0  0  0
 17  3  1  0  0  0  0
 18 25  2  0  0  0  0
 19 26  1  0  0  0  0
 20 17  1  0  0  0  0
 22 20  1  6  0  0  0
 22 10  1  0  0  0  0
 23 14  1  0  0  0  0
 26 25  1  0  0  0  0
 26 17  2  0  0  0  0
 27 24  1  1  0  0  0
 27  7  1  0  0  0  0
 28 11  1  0  0  0  0
 29 30  1  0  0  0  0
 30 28  1  0  0  0  0
M  END
>  <MODEL>
1

>  <REMARK>
 VINA RESULT:      -8.3      0.000      0.000
  Name = 
  2 active torsions:
  status: ('A' for Active; 'I' for Inactive)
    1  A    between atoms: C_11  and  O_28
    2  A    between atoms: O_28  and  C_30
                            x       y       z     vdW  Elec       q    Type
                         _______ _______ _______ _____ _____    ______ ____

>  <TORSDO>
F 2

$$$$
=
 OpenBabel11122412363D

 30 35  0  0  1  0  0  0  0  0999 V2000
  161.4940  207.8870  149.9060 C   0  0  0  0  0  0  0  0  0  0  0  0
  161.4280  205.8170  148.4760 C   0  0  0  0  0  0  0  0  0  0  0  0
  160.8770  205.5790  153.3710 N   0  0  0  0  0  2  0  0  0  0  0  0
  161.4100  208.4750  151.2050 C   0  0  0  0  0  0  0  0  0  0  0  0
  161.7250  208.7270  148.8090 C   0  0  0  0  0  3  0  0  0  0  0  0
  161.8940  212.0620  150.3600 O   0  0  0  0  0  1  0  0  0  0  0  0
  160.0650  210.2040  153.4080 C   0  0  1  0  0  3  0  0  0  0  0  0
  161.7630  210.6830  150.2230 C   0  0  0  0  0  0  0  0  0  0  0  0
  160.0050  208.8720  154.0560 N   0  0  2  0  0  0  0  0  0  0  0  0
  160.9430  206.6120  154.3440 C   0  0  0  0  0  0  0  0  0  0  0  0
  161.8590  210.1110  148.9530 C   0  0  0  0  0  0  0  0  0  0  0  0
  161.5320  209.8800  151.3540 C   0  0  0  0  0  0  0  0  0  0  0  0
  161.2780  204.4310  148.3880 C   0  0  0  0  0  3  0  0  0  0  0  0
  159.9640  209.1500  155.4880 C   0  0  0  0  0  2  0  0  0  0  0  0
  159.7200  211.2630  154.4380 C   0  0  0  0  0  2  0  0  0  0  0  0
  161.6510  206.5150  147.2940 O   0  0  0  0  0  1  0  0  0  0  0  0
  161.0470  206.2680  152.1420 C   0  0  0  0  0  0  0  0  0  0  0  0
  161.0510  203.6650  149.5270 C   0  0  0  0  0  3  0  0  0  0  0  0
  161.3480  206.4710  149.7390 C   0  0  0  0  0  0  0  0  0  0  0  0
  161.1870  207.6290  152.3040 C   0  0  0  0  0  0  0  0  0  0  0  0
  160.8820  206.3720  155.5790 O   0  0  0  0  0  0  0  0  0  0  0  0
  161.1460  207.9870  153.7610 C   0  0  1  0  0  3  0  0  0  0  0  0
  159.3120  210.4980  155.6650 C   0  0  0  0  0  2  0  0  0  0  0  0
  162.6330  210.5360  153.5310 C   0  0  0  0  0  1  0  0  0  0  0  0
  160.9740  204.2780  150.7740 C   0  0  0  0  0  3  0  0  0  0  0  0
  161.1220  205.6640  150.8900 C   0  0  0  0  0  0  0  0  0  0  0  0
  161.3710  210.5760  152.6780 C   0  0  2  0  0  3  0  0  0  0  0  0
  162.0730  210.9370  147.8460 O   0  0  0  0  0  0  0  0  0  0  0  0
  161.7820  213.1290  146.9280 C   0  0  0  0  0  1  0  0  0  0  0  0
  161.0970  211.8500  147.3640 C   0  0  0  0  0  2  0  0  0  0  0  0
  1  4  1  0  0  0  0
  2 19  1  0  0  0  0
  3 10  1  0  0  0  0
  4 12  1  0  0  0  0
  4 20  2  0  0  0  0
  5 11  2  0  0  0  0
  5  1  1  0  0  0  0
  7  9  1  0  0  0  0
  7 15  1  1  0  0  0
  8  6  1  0  0  0  0
  8 12  2  0  0  0  0
  9 14  1  1  0  0  0
 10 21  2  0  0  0  0
 11  8  1  0  0  0  0
 12 27  1  0  0  0  0
 13  2  2  0  0  0  0
 13 18  1  0  0  0  0
 14 23  1  0  0  0  0
 15 23  1  0  0  0  0
 16  2  1  0  0  0  0
 17 20  1  0  0  0  0
 17  3  1  0  0  0  0
 18 25  2  0  0  0  0
 19  1  2  0  0  0  0
 19 26  1  0  0  0  0
 22 20  1  6  0  0  0
 22  9  1  0  0  0  0
 22 10  1  0  0  0  0
 25 26  1  0  0  0  0
 26 17  2  0  0  0  0
 27  7  1  0  0  0  0
 27 24  1  1  0  0  0
 28 11  1  0  0  0  0
 29 30  1  0  0  0  0
 30 28  1  0  0  0  0
M  END
>  <MODEL>
2

>  <REMARK>
 VINA RESULT:      -7.3      1.650      2.705
  Name = 
  2 active torsions:
  status: ('A' for Active; 'I' for Inactive)
    1  A    between atoms: C_11  and  O_28
    2  A    between atoms: O_28  and  C_30
                            x       y       z     vdW  Elec       q    Type
                         _______ _______ _______ _____ _____    ______ ____

>  <TORSDO>
F 2

$$$$
=
 OpenBabel11122412363D

 30 35  0  0  1  0  0  0  0  0999 V2000
  160.7650  209.7420  152.5120 C   0  0  0  0  0  0  0  0  0  0  0  0
  160.4150  212.1930  152.0620 C   0  0  0  0  0  0  0  0  0  0  0  0
  162.0320  209.1380  148.5440 N   0  0  0  0  0  2  0  0  0  0  0  0
  161.1500  208.4550  152.0250 C   0  0  0  0  0  0  0  0  0  0  0  0
  160.3780  209.8570  153.8540 C   0  0  0  0  0  3  0  0  0  0  0  0
  160.6790  206.4010  155.0870 O   0  0  0  0  0  1  0  0  0  0  0  0
  160.6190  205.5150  151.1760 C   0  0  1  0  0  3  0  0  0  0  0  0
  160.7150  207.4970  154.2290 C   0  0  0  0  0  0  0  0  0  0  0  0
  161.0420  206.0840  149.8740 N   0  0  2  0  0  0  0  0  0  0  0  0
  162.3450  207.7550  148.6160 C   0  0  0  0  0  0  0  0  0  0  0  0
  160.3490  208.7540  154.7120 C   0  0  0  0  0  0  0  0  0  0  0  0
  161.1080  207.3310  152.8890 C   0  0  0  0  0  0  0  0  0  0  0  0
  160.4540  213.2590  151.1590 C   0  0  0  0  0  3  0  0  0  0  0  0
  161.5700  204.9520  149.1200 C   0  0  0  0  0  2  0  0  0  0  0  0
  160.5860  204.0030  151.0580 C   0  0  0  0  0  2  0  0  0  0  0  0
  160.0070  212.4670  153.3630 O   0  0  0  0  0  1  0  0  0  0  0  0
  161.5580  209.4410  149.8470 C   0  0  0  0  0  0  0  0  0  0  0  0
  160.8510  213.0620  149.8400 C   0  0  0  0  0  3  0  0  0  0  0  0
  160.7790  210.8810  151.6430 C   0  0  0  0  0  0  0  0  0  0  0  0
  161.5450  208.3440  150.6820 C   0  0  0  0  0  0  0  0  0  0  0  0
  162.8510  207.1320  147.6450 O   0  0  0  0  0  0  0  0  0  0  0  0
  162.0710  207.1360  149.9630 C   0  0  1  0  0  3  0  0  0  0  0  0
  160.8580  203.7160  149.6080 C   0  0  0  0  0  2  0  0  0  0  0  0
  162.9140  205.6400  152.3740 C   0  0  0  0  0  1  0  0  0  0  0  0
  161.2160  211.7920  149.4060 C   0  0  0  0  0  3  0  0  0  0  0  0
  161.1870  210.7070  150.2900 C   0  0  0  0  0  0  0  0  0  0  0  0
  161.4190  205.9350  152.4250 C   0  0  2  0  0  3  0  0  0  0  0  0
  159.9460  208.8840  156.0440 O   0  0  0  0  0  0  0  0  0  0  0  0
  162.0400  209.1890  157.1630 C   0  0  0  0  0  1  0  0  0  0  0  0
  160.6280  209.7050  156.9810 C   0  0  0  0  0  2  0  0  0  0  0  0
  1  5  2  0  0  0  0
  2 16  1  0  0  0  0
  3 10  1  0  0  0  0
  3 17  1  0  0  0  0
  4  1  1  0  0  0  0
  4 12  2  0  0  0  0
  5 11  1  0  0  0  0
  7 15  1  6  0  0  0
  7 27  1  0  0  0  0
  8 11  2  0  0  0  0
  8  6  1  0  0  0  0
  9 14  1  6  0  0  0
  9 22  1  0  0  0  0
  9  7  1  0  0  0  0
 11 28  1  0  0  0  0
 12  8  1  0  0  0  0
 13  2  2  0  0  0  0
 14 23  1  0  0  0  0
 17 26  1  0  0  0  0
 17 20  2  0  0  0  0
 18 13  1  0  0  0  0
 19  2  1  0  0  0  0
 19  1  1  0  0  0  0
 20  4  1  0  0  0  0
 21 10  2  0  0  0  0
 22 10  1  6  0  0  0
 22 20  1  0  0  0  0
 23 15  1  0  0  0  0
 25 18  2  0  0  0  0
 25 26  1  0  0  0  0
 26 19  2  0  0  0  0
 27 24  1  6  0  0  0
 27 12  1  0  0  0  0
 28 30  1  0  0  0  0
 30 29  1  0  0  0  0
M  END
>  <MODEL>
3

>  <REMARK>
 VINA RESULT:      -6.8      2.205      7.395
  Name = 
  2 active torsions:
  status: ('A' for Active; 'I' for Inactive)
    1  A    between atoms: C_11  and  O_28
    2  A    between atoms: O_28  and  C_30
                            x       y       z     vdW  Elec       q    Type
                         _______ _______ _______ _____ _____    ______ ____

>  <TORSDO>
F 2

$$$$
=
 OpenBabel11122412363D

 30 35  0  0  1  0  0  0  0  0999 V2000
  161.4210  207.8900  151.4880 C   0  0  0  0  0  0  0  0  0  0  0  0
  161.5640  210.3420  150.9390 C   0  0  0  0  0  0  0  0  0  0  0  0
  162.2870  206.8900  147.4930 N   0  0  0  0  0  2  0  0  0  0  0  0
  161.4980  206.5350  151.0440 C   0  0  0  0  0  0  0  0  0  0  0  0
  161.1500  208.1330  152.8410 C   0  0  0  0  0  3  0  0  0  0  0  0
  160.7960  204.7390  154.2230 O   0  0  0  0  0  1  0  0  0  0  0  0
  160.3120  203.7440  150.3670 C   0  0  1  0  0  3  0  0  0  0  0  0
  161.0070  205.7700  153.3110 C   0  0  0  0  0  0  0  0  0  0  0  0
  160.7640  204.1640  149.0190 N   0  0  2  0  0  0  0  0  0  0  0  0
  162.3080  205.4740  147.6150 C   0  0  0  0  0  0  0  0  0  0  0  0
  160.9430  207.0930  153.7510 C   0  0  0  0  0  0  0  0  0  0  0  0
  161.2750  205.4770  151.9620 C   0  0  0  0  0  0  0  0  0  0  0  0
  161.7700  211.3420  149.9850 C   0  0  0  0  0  3  0  0  0  0  0  0
  160.9960  202.9190  148.2940 C   0  0  0  0  0  2  0  0  0  0  0  0
  159.9560  202.2700  150.3240 C   0  0  0  0  0  2  0  0  0  0  0  0
  161.3030  210.7440  152.2450 O   0  0  0  0  0  1  0  0  0  0  0  0
  161.9690  207.3320  148.8030 C   0  0  0  0  0  0  0  0  0  0  0  0
  162.0350  211.0180  148.6580 C   0  0  0  0  0  3  0  0  0  0  0  0
  161.6190  208.9680  150.5650 C   0  0  0  0  0  0  0  0  0  0  0  0
  161.7770  206.2940  149.6890 C   0  0  0  0  0  0  0  0  0  0  0  0
  162.6120  204.7240  146.6500 O   0  0  0  0  0  0  0  0  0  0  0  0
  161.9940  204.9770  149.0030 C   0  0  1  0  0  3  0  0  0  0  0  0
  160.0730  201.8810  148.8780 C   0  0  0  0  0  2  0  0  0  0  0  0
  162.6520  203.4250  151.4360 C   0  0  0  0  0  1  0  0  0  0  0  0
  162.0990  209.6850  148.2680 C   0  0  0  0  0  3  0  0  0  0  0  0
  161.8980  208.6640  149.2030 C   0  0  0  0  0  0  0  0  0  0  0  0
  161.2580  204.0310  151.5500 C   0  0  2  0  0  3  0  0  0  0  0  0
  160.6580  207.3540  155.0950 O   0  0  0  0  0  0  0  0  0  0  0  0
  161.9100  208.7770  156.5580 C   0  0  0  0  0  1  0  0  0  0  0  0
  160.6990  208.6590  155.6550 C   0  0  0  0  0  2  0  0  0  0  0  0
  1  5  2  0  0  0  0
  2 16  1  0  0  0  0
  3 10  1  0  0  0  0
  3 17  1  0  0  0  0
  4  1  1  0  0  0  0
  4 12  2  0  0  0  0
  5 11  1  0  0  0  0
  7 15  1  6  0  0  0
  7 27  1  0  0  0  0
  8 11  2  0  0  0  0
  8  6  1  0  0  0  0
  9 14  1  6  0  0  0
  9  7  1  0  0  0  0
 11 28  1  0  0  0  0
 12  8  1  0  0  0  0
 13  2  2  0  0  0  0
 14 23  1  0  0  0  0
 17 26  1  0  0  0  0
 17 20  2  0  0  0  0
 18 13  1  0  0  0  0
 19  2  1  0  0  0  0
 19  1  1  0  0  0  0
 20  4  1  0  0  0  0
 21 10  2  0  0  0  0
 22 10  1  6  0  0  0
 22  9  1  0  0  0  0
 22 20  1  0  0  0  0
 23 15  1  0  0  0  0
 25 18  2  0  0  0  0
 25 26  1  0  0  0  0
 26 19  2  0  0  0  0
 27 24  1  6  0  0  0
 27 12  1  0  0  0  0
 28 30  1  0  0  0  0
 30 29  1  0  0  0  0
M  END
>  <MODEL>
4

>  <REMARK>
 VINA RESULT:      -6.7      2.316      7.219
  Name = 
  2 active torsions:
  status: ('A' for Active; 'I' for Inactive)
    1  A    between atoms: C_11  and  O_28
    2  A    between atoms: O_28  and  C_30
                            x       y       z     vdW  Elec       q    Type
                         _______ _______ _______ _____ _____    ______ ____

>  <TORSDO>
F 2

$$$$
=
 OpenBabel11122412363D

 30 35  0  0  1  0  0  0  0  0999 V2000
  161.4810  208.2300  151.4240 C   0  0  0  0  0  0  0  0  0  0  0  0
  161.4230  208.5530  153.9190 C   0  0  0  0  0  0  0  0  0  0  0  0
  160.5290  204.1550  151.8740 N   0  0  0  0  0  2  0  0  0  0  0  0
  161.3470  207.3530  150.3040 C   0  0  0  0  0  0  0  0  0  0  0  0
  161.7770  209.5780  151.1820 C   0  0  0  0  0  3  0  0  0  0  0  0
  162.0190  209.7120  147.5110 O   0  0  0  0  0  1  0  0  0  0  0  0
  162.4180  205.7380  147.8770 C   0  0  1  0  0  3  0  0  0  0  0  0
  161.8360  209.2120  148.7970 C   0  0  0  0  0  0  0  0  0  0  0  0
  161.9660  204.6250  148.7450 N   0  0  2  0  0  0  0  0  0  0  0  0
  160.4560  203.7890  150.5030 C   0  0  0  0  0  0  0  0  0  0  0  0
  161.9550  210.0740  149.8880 C   0  0  0  0  0  0  0  0  0  0  0  0
  161.5410  207.8500  148.9910 C   0  0  0  0  0  0  0  0  0  0  0  0
  161.2430  208.0020  155.1910 C   0  0  0  0  0  3  0  0  0  0  0  0
  161.6790  203.5240  147.8300 C   0  0  0  0  0  2  0  0  0  0  0  0
  162.7180  205.1870  146.4950 C   0  0  0  0  0  2  0  0  0  0  0  0
  161.7140  209.9100  153.8430 O   0  0  0  0  0  1  0  0  0  0  0  0
  160.8800  205.5300  151.8330 C   0  0  0  0  0  0  0  0  0  0  0  0
  160.9510  206.6500  155.3470 C   0  0  0  0  0  3  0  0  0  0  0  0
  161.3120  207.7340  152.7580 C   0  0  0  0  0  0  0  0  0  0  0  0
  161.0420  206.0040  150.5490 C   0  0  0  0  0  0  0  0  0  0  0  0
  160.1130  202.6330  150.1370 O   0  0  0  0  0  0  0  0  0  0  0  0
  160.7680  204.9160  149.5530 C   0  0  1  0  0  3  0  0  0  0  0  0
  162.5690  203.6970  146.6270 C   0  0  0  0  0  2  0  0  0  0  0  0
  160.0810  206.6900  147.2850 C   0  0  0  0  0  1  0  0  0  0  0  0
  160.8310  205.8310  154.2300 C   0  0  0  0  0  3  0  0  0  0  0  0
  161.0050  206.3570  152.9450 C   0  0  0  0  0  0  0  0  0  0  0  0
  161.4980  206.9700  147.7720 C   0  0  2  0  0  3  0  0  0  0  0  0
  162.2660  211.4200  149.6650 O   0  0  0  0  0  0  0  0  0  0  0  0
  161.6970  213.1950  148.1630 C   0  0  0  0  0  1  0  0  0  0  0  0
  161.2800  212.4040  149.3850 C   0  0  0  0  0  2  0  0  0  0  0  0
  1 19  1  0  0  0  0
  2 13  1  0  0  0  0
  4 20  1  0  0  0  0
  4  1  2  0  0  0  0
  5  1  1  0  0  0  0
  6  8  1  0  0  0  0
  7 15  1  6  0  0  0
  7  9  1  0  0  0  0
  8 12  2  0  0  0  0
  8 11  1  0  0  0  0
  9 14  1  6  0  0  0
  9 22  1  0  0  0  0
 10  3  1  0  0  0  0
 11  5  2  0  0  0  0
 12  4  1  0  0  0  0
 13 18  2  0  0  0  0
 15 23  1  0  0  0  0
 16  2  1  0  0  0  0
 17  3  1  0  0  0  0
 17 26  1  0  0  0  0
 19 26  1  0  0  0  0
 19  2  2  0  0  0  0
 20 17  2  0  0  0  0
 21 10  2  0  0  0  0
 22 10  1  1  0  0  0
 22 20  1  0  0  0  0
 23 14  1  0  0  0  0
 25 18  1  0  0  0  0
 26 25  2  0  0  0  0
 27 24  1  1  0  0  0
 27  7  1  0  0  0  0
 27 12  1  0  0  0  0
 28 11  1  0  0  0  0
 29 30  1  0  0  0  0
 30 28  1  0  0  0  0
M  END
>  <MODEL>
5

>  <REMARK>
 VINA RESULT:      -6.6      2.055      5.604
  Name = 
  2 active torsions:
  status: ('A' for Active; 'I' for Inactive)
    1  A    between atoms: C_11  and  O_28
    2  A    between atoms: O_28  and  C_30
                            x       y       z     vdW  Elec       q    Type
                         _______ _______ _______ _____ _____    ______ ____

>  <TORSDO>
F 2

$$$$
=
 OpenBabel11122412363D

 30 35  0  0  1  0  0  0  0  0999 V2000
  160.8120  210.5460  151.7170 C   0  0  0  0  0  0  0  0  0  0  0  0
  161.9860  208.6780  150.5070 C   0  0  0  0  0  0  0  0  0  0  0  0
  160.5040  208.1820  155.1840 N   0  0  0  0  0  2  0  0  0  0  0  0
  160.1860  211.0240  152.9090 C   0  0  0  0  0  0  0  0  0  0  0  0
  160.8920  211.4090  150.6160 C   0  0  0  0  0  3  0  0  0  0  0  0
  159.2240  214.4530  151.8430 O   0  0  0  0  0  1  0  0  0  0  0  0
  157.7590  211.9490  154.6130 C   0  0  1  0  0  3  0  0  0  0  0  0
  159.7470  213.1630  151.8140 C   0  0  0  0  0  0  0  0  0  0  0  0
  158.1450  210.7270  155.3590 N   0  0  2  0  0  0  0  0  0  0  0  0
  159.8880  209.1270  156.0470 C   0  0  0  0  0  0  0  0  0  0  0  0
  160.3680  212.7040  150.6520 C   0  0  0  0  0  0  0  0  0  0  0  0
  159.6420  212.3330  152.9450 C   0  0  0  0  0  0  0  0  0  0  0  0
  162.4850  207.3720  150.5230 C   0  0  0  0  0  3  0  0  0  0  0  0
  157.6630  210.9470  156.7190 C   0  0  0  0  0  2  0  0  0  0  0  0
  156.7610  212.7320  155.4440 C   0  0  0  0  0  2  0  0  0  0  0  0
  162.1410  209.4100  149.3350 O   0  0  0  0  0  1  0  0  0  0  0  0
  160.6280  208.8820  153.9570 C   0  0  0  0  0  0  0  0  0  0  0  0
  162.3660  206.5780  151.6590 C   0  0  0  0  0  3  0  0  0  0  0  0
  161.3440  209.2170  151.6590 C   0  0  0  0  0  0  0  0  0  0  0  0
  160.1150  210.1600  154.0140 C   0  0  0  0  0  0  0  0  0  0  0  0
  159.6610  208.8770  157.2610 O   0  0  0  0  0  0  0  0  0  0  0  0
  159.5920  210.4510  155.3900 C   0  0  1  0  0  3  0  0  0  0  0  0
  156.4650  211.8560  156.6290 C   0  0  0  0  0  2  0  0  0  0  0  0
  159.8180  213.3980  155.2290 C   0  0  0  0  0  1  0  0  0  0  0  0
  161.7470  207.0820  152.7990 C   0  0  0  0  0  3  0  0  0  0  0  0
  161.2420  208.3860  152.8100 C   0  0  0  0  0  0  0  0  0  0  0  0
  158.8970  212.8730  154.1350 C   0  0  2  0  0  3  0  0  0  0  0  0
  160.4420  213.5460  149.5380 O   0  0  0  0  0  0  0  0  0  0  0  0
  162.3150  213.8810  148.0850 C   0  0  0  0  0  1  0  0  0  0  0  0
  161.0110  213.1430  148.3010 C   0  0  0  0  0  2  0  0  0  0  0  0
  1  4  1  0  0  0  0
  2 13  2  0  0  0  0
  2 19  1  0  0  0  0
  3 10  1  0  0  0  0
  4 12  1  0  0  0  0
  4 20  2  0  0  0  0
  5 11  2  0  0  0  0
  5  1  1  0  0  0  0
  7  9  1  0  0  0  0
  7 15  1  1  0  0  0
  8  6  1  0  0  0  0
  8 12  2  0  0  0  0
  9 22  1  0  0  0  0
  9 14  1  1  0  0  0
 10 21  2  0  0  0  0
 11  8  1  0  0  0  0
 12 27  1  0  0  0  0
 13 18  1  0  0  0  0
 15 23  1  0  0  0  0
 16  2  1  0  0  0  0
 17 20  1  0  0  0  0
 17  3  1  0  0  0  0
 18 25  2  0  0  0  0
 19  1  2  0  0  0  0
 19 26  1  0  0  0  0
 22 20  1  6  0  0  0
 22 10  1  0  0  0  0
 23 14  1  0  0  0  0
 25 26  1  0  0  0  0
 26 17  2  0  0  0  0
 27  7  1  0  0  0  0
 27 24  1  1  0  0  0
 28 11  1  0  0  0  0
 29 30  1  0  0  0  0
 30 28  1  0  0  0  0
M  END
>  <MODEL>
6

>  <REMARK>
 VINA RESULT:      -5.8      2.850      5.060
  Name = 
  2 active torsions:
  status: ('A' for Active; 'I' for Inactive)
    1  A    between atoms: C_11  and  O_28
    2  A    between atoms: O_28  and  C_30
                            x       y       z     vdW  Elec       q    Type
                         _______ _______ _______ _____ _____    ______ ____

>  <TORSDO>
F 2

$$$$
=
 OpenBabel11122412363D

 30 35  0  0  1  0  0  0  0  0999 V2000
  161.2090  208.9800  151.8940 C   0  0  0  0  0  0  0  0  0  0  0  0
  162.0620  209.0140  149.5270 C   0  0  0  0  0  0  0  0  0  0  0  0
  160.1140  213.0340  151.6160 N   0  0  0  0  0  2  0  0  0  0  0  0
  160.6120  209.6820  152.9860 C   0  0  0  0  0  0  0  0  0  0  0  0
  161.5210  207.6250  152.0660 C   0  0  0  0  0  3  0  0  0  0  0  0
  160.4680  206.9790  155.5340 O   0  0  0  0  0  1  0  0  0  0  0  0
  160.6110  210.9780  155.8090 C   0  0  1  0  0  3  0  0  0  0  0  0
  160.7050  207.6500  154.3360 C   0  0  0  0  0  0  0  0  0  0  0  0
  160.3950  212.1840  154.9740 N   0  0  2  0  0  0  0  0  0  0  0  0
  159.5310  213.1980  152.9010 C   0  0  0  0  0  0  0  0  0  0  0  0
  161.2770  206.9570  153.2680 C   0  0  0  0  0  0  0  0  0  0  0  0
  160.3760  209.0110  154.2120 C   0  0  0  0  0  0  0  0  0  0  0  0
  162.2920  209.7330  148.3510 C   0  0  0  0  0  3  0  0  0  0  0  0
  159.7060  213.1290  155.8470 C   0  0  0  0  0  2  0  0  0  0  0  0
  160.3550  211.3390  157.2600 C   0  0  0  0  0  2  0  0  0  0  0  0
  162.4290  207.6730  149.5420 O   0  0  0  0  0  1  0  0  0  0  0  0
  160.5500  211.6840  151.6180 C   0  0  0  0  0  0  0  0  0  0  0  0
  161.9530  211.0790  148.2600 C   0  0  0  0  0  3  0  0  0  0  0  0
  161.4760  209.6530  150.6580 C   0  0  0  0  0  0  0  0  0  0  0  0
  160.2930  211.0380  152.8080 C   0  0  0  0  0  0  0  0  0  0  0  0
  158.9780  214.2740  153.2520 O   0  0  0  0  0  0  0  0  0  0  0  0
  159.5890  211.9610  153.7600 C   0  0  1  0  0  3  0  0  0  0  0  0
  160.1290  212.8240  157.2610 C   0  0  0  0  0  2  0  0  0  0  0  0
  158.3110  209.8540  155.4010 C   0  0  0  0  0  1  0  0  0  0  0  0
  161.3750  211.7260  149.3480 C   0  0  0  0  0  3  0  0  0  0  0  0
  161.1320  211.0290  150.5360 C   0  0  0  0  0  0  0  0  0  0  0  0
  159.8280  209.7060  155.4290 C   0  0  2  0  0  3  0  0  0  0  0  0
  161.6090  205.6080  153.4280 O   0  0  0  0  0  0  0  0  0  0  0  0
  161.6540  204.2830  151.4340 C   0  0  0  0  0  1  0  0  0  0  0  0
  160.9390  204.5610  152.7400 C   0  0  0  0  0  2  0  0  0  0  0  0
  1  5  2  0  0  0  0
  1  4  1  0  0  0  0
  2 16  1  0  0  0  0
  2 19  1  0  0  0  0
  3 17  1  0  0  0  0
  3 10  1  0  0  0  0
  4 12  2  0  0  0  0
  5 11  1  0  0  0  0
  7 15  1  1  0  0  0
  8  6  1  0  0  0  0
  9  7  1  0  0  0  0
  9 14  1  1  0  0  0
 10 21  2  0  0  0  0
 10 22  1  0  0  0  0
 11 28  1  0  0  0  0
 11  8  2  0  0  0  0
 12  8  1  0  0  0  0
 12 27  1  0  0  0  0
 13  2  2  0  0  0  0
 14 23  1  0  0  0  0
 15 23  1  0  0  0  0
 17 20  2  0  0  0  0
 18 13  1  0  0  0  0
 18 25  2  0  0  0  0
 19  1  1  0  0  0  0
 20  4  1  0  0  0  0
 22 20  1  6  0  0  0
 22  9  1  0  0  0  0
 25 26  1  0  0  0  0
 26 19  2  0  0  0  0
 26 17  1  0  0  0  0
 27 24  1  6  0  0  0
 27  7  1  0  0  0  0
 29 30  1  0  0  0  0
 30 28  1  0  0  0  0
M  END
>  <MODEL>
7

>  <REMARK>
 VINA RESULT:      -5.6      2.492      5.917
  Name = 
  2 active torsions:
  status: ('A' for Active; 'I' for Inactive)
    1  A    between atoms: C_11  and  O_28
    2  A    between atoms: O_28  and  C_30
                            x       y       z     vdW  Elec       q    Type
                         _______ _______ _______ _____ _____    ______ ____

>  <TORSDO>
F 2

$$$$
=
 OpenBabel11122412363D

 30 35  0  0  1  0  0  0  0  0999 V2000
  161.5180  207.6160  150.7240 C   0  0  0  0  0  0  0  0  0  0  0  0
  161.3860  207.6140  153.2370 C   0  0  0  0  0  0  0  0  0  0  0  0
  160.6900  203.4920  150.6200 N   0  0  0  0  0  2  0  0  0  0  0  0
  161.4420  206.8880  149.4970 C   0  0  0  0  0  0  0  0  0  0  0  0
  161.7750  208.9920  150.6650 C   0  0  0  0  0  3  0  0  0  0  0  0
  162.1070  209.6060  147.0500 O   0  0  0  0  0  1  0  0  0  0  0  0
  162.6280  205.6310  146.9160 C   0  0  1  0  0  3  0  0  0  0  0  0
  161.9080  208.9390  148.2560 C   0  0  0  0  0  0  0  0  0  0  0  0
  162.1920  204.4020  147.6210 N   0  0  2  0  0  0  0  0  0  0  0  0
  160.6650  203.3030  149.2120 C   0  0  0  0  0  0  0  0  0  0  0  0
  161.9700  209.6570  149.4510 C   0  0  0  0  0  0  0  0  0  0  0  0
  161.6530  207.5560  148.2640 C   0  0  0  0  0  0  0  0  0  0  0  0
  161.1920  206.8980  154.4210 C   0  0  0  0  0  3  0  0  0  0  0  0
  161.9640  203.4210  146.5650 C   0  0  0  0  0  2  0  0  0  0  0  0
  162.9820  205.2710  145.4850 C   0  0  0  0  0  2  0  0  0  0  0  0
  161.6340  208.9780  153.3430 O   0  0  0  0  0  1  0  0  0  0  0  0
  160.9960  204.8700  150.7660 C   0  0  0  0  0  0  0  0  0  0  0  0
  160.9400  205.5300  154.3950 C   0  0  0  0  0  3  0  0  0  0  0  0
  161.3310  206.9490  151.9770 C   0  0  0  0  0  0  0  0  0  0  0  0
  161.1760  205.5100  149.5590 C   0  0  0  0  0  0  0  0  0  0  0  0
  160.3700  202.1940  148.6920 O   0  0  0  0  0  0  0  0  0  0  0  0
  160.9640  204.5520  148.4240 C   0  0  1  0  0  3  0  0  0  0  0  0
  162.8790  203.7740  145.4210 C   0  0  0  0  0  2  0  0  0  0  0  0
  160.2770  206.5820  146.3820 C   0  0  0  0  0  1  0  0  0  0  0  0
  160.8770  204.8580  153.1790 C   0  0  0  0  0  3  0  0  0  0  0  0
  161.0660  205.5500  151.9780 C   0  0  0  0  0  0  0  0  0  0  0  0
  161.6710  206.8390  146.9420 C   0  0  2  0  0  3  0  0  0  0  0  0
  162.2420  211.0280  149.4110 O   0  0  0  0  0  0  0  0  0  0  0  0
  162.0600  213.1750  148.3680 C   0  0  0  0  0  1  0  0  0  0  0  0
  161.3090  211.9860  148.9310 C   0  0  0  0  0  2  0  0  0  0  0  0
  1 19  1  0  0  0  0
  2 16  1  0  0  0  0
  2 13  1  0  0  0  0
  3 17  1  0  0  0  0
  4 20  1  0  0  0  0
  4  1  2  0  0  0  0
  5  1  1  0  0  0  0
  6  8  1  0  0  0  0
  7 15  1  6  0  0  0
  7 27  1  0  0  0  0
  7  9  1  0  0  0  0
  8 12  2  0  0  0  0
  8 11  1  0  0  0  0
  9 14  1  6  0  0  0
  9 22  1  0  0  0  0
 10  3  1  0  0  0  0
 11  5  2  0  0  0  0
 12  4  1  0  0  0  0
 17 26  1  0  0  0  0
 18 13  2  0  0  0  0
 19 26  1  0  0  0  0
 19  2  2  0  0  0  0
 20 17  2  0  0  0  0
 21 10  2  0  0  0  0
 22 10  1  1  0  0  0
 22 20  1  0  0  0  0
 23 15  1  0  0  0  0
 23 14  1  0  0  0  0
 25 18  1  0  0  0  0
 26 25  2  0  0  0  0
 27 24  1  1  0  0  0
 27 12  1  0  0  0  0
 28 11  1  0  0  0  0
 29 30  1  0  0  0  0
 30 28  1  0  0  0  0
M  END
>  <MODEL>
8

>  <REMARK>
 VINA RESULT:      -5.5      2.234      5.800
  Name = 
  2 active torsions:
  status: ('A' for Active; 'I' for Inactive)
    1  A    between atoms: C_11  and  O_28
    2  A    between atoms: O_28  and  C_30
                            x       y       z     vdW  Elec       q    Type
                         _______ _______ _______ _____ _____    ______ ____

>  <TORSDO>
F 2

$$$$
