=
 OpenBabel11122414203D

 34 40  0  0  1  0  0  0  0  0999 V2000
  160.8830  205.0980  151.8620 C   0  0  0  0  0  0  0  0  0  0  0  0
  160.6560  205.9870  154.2310 C   0  0  0  0  0  2  0  0  0  0  0  0
  160.6160  205.4190  145.8260 C   0  0  1  0  0  3  0  0  0  0  0  0
  161.5330  204.3530  149.6460 C   0  0  0  0  0  0  0  0  0  0  0  0
  162.1120  206.0230  147.8290 C   0  0  1  0  0  3  0  0  0  0  0  0
  159.7750  206.6630  147.6810 O   0  0  0  0  0  1  0  0  0  0  0  0
  160.0490  206.1310  144.6150 C   0  0  0  0  0  1  0  0  0  0  0  0
  161.6490  203.4840  146.1700 C   0  0  0  0  0  2  0  0  0  0  0  0
  160.6160  207.5540  152.3820 C   0  0  2  0  0  3  0  0  0  0  0  0
  162.0940  210.3780  152.9650 C   0  0  0  0  0  2  0  0  0  0  0  0
  162.3910  207.0030  148.9730 C   0  0  0  0  0  2  0  0  0  0  0  0
  162.4730  203.5640  147.4520 C   0  0  0  0  0  2  0  0  0  0  0  0
  161.6400  207.8060  151.2600 C   0  0  1  0  0  3  0  0  0  0  0  0
  160.5510  207.3830  154.8180 C   0  0  0  0  0  2  0  0  0  0  0  0
  161.9890  204.6410  148.3110 N   0  0  0  0  0  0  0  0  0  0  0  0
  161.7490  204.6840  145.4540 O   0  0  0  0  0  0  0  0  0  0  0  0
  162.1150  209.1110  153.8150 C   0  0  2  0  0  3  0  0  0  0  0  0
  161.2750  205.4040  150.5480 C   0  0  0  0  0  0  0  0  0  0  0  0
  160.9300  206.4400  146.9280 C   0  0  2  0  0  3  0  0  0  0  0  0
  161.3590  206.8450  150.0940 C   0  0  2  0  0  3  0  0  0  0  0  0
  161.0320  202.7480  151.3320 C   0  0  0  0  0  3  0  0  0  0  0  0
  162.5540  210.1070  151.5410 C   0  0  0  0  0  2  0  0  0  0  0  0
  161.4070  203.0620  150.0640 N   0  0  0  0  0  0  0  0  0  0  0  0
  161.5530  209.2490  150.7830 C   0  0  0  0  0  2  0  0  0  0  0  0
  160.7700  208.3760  153.6740 C   0  0  1  0  0  3  0  0  0  0  0  0
  160.7680  203.7600  152.2550 C   0  0  0  0  0  3  0  0  0  0  0  0
  160.6500  206.1630  152.7940 N   0  0  0  0  0  0  0  0  0  0  0  0
  162.3380  209.4790  155.1460 O   0  0  0  0  0  0  0  0  0  0  0  0
  162.2540  210.8730  155.1510 C   0  0  0  0  0  2  0  0  0  0  0  0
  159.0750  211.1260  156.7370 C   0  0  0  0  0  2  0  0  0  0  0  0
  161.1240  210.1720  157.2600 C   0  0  0  0  0  2  0  0  0  0  0  0
  161.4190  211.3370  156.3320 C   0  0  2  0  0  3  0  0  0  0  0  0
  159.6940  209.9000  157.2140 N   0  0  0  0  0  2  0  0  0  0  0  0
  160.0760  211.8110  155.8400 C   0  0  0  0  0  2  0  0  0  0  0  0
  1 26  1  0  0  0  0
  1 27  1  0  0  0  0
  2 14  1  0  0  0  0
  3  7  1  6  0  0  0
  3 19  1  0  0  0  0
  4 23  2  0  0  0  0
  4 18  1  0  0  0  0
  5 15  1  0  0  0  0
  5 11  1  1  0  0  0
  8 12  1  0  0  0  0
  9 27  1  1  0  0  0
  9 25  1  0  0  0  0
 10 17  1  0  0  0  0
 12 15  1  0  0  0  0
 13 24  1  6  0  0  0
 13  9  1  0  0  0  0
 15  4  1  0  0  0  0
 16  3  1  0  0  0  0
 16  8  1  0  0  0  0
 17 28  1  1  0  0  0
 18  1  2  0  0  0  0
 19  6  1  1  0  0  0
 19  5  1  0  0  0  0
 20 11  1  6  0  0  0
 20 18  1  0  0  0  0
 20 13  1  0  0  0  0
 21 26  2  0  0  0  0
 22 10  1  0  0  0  0
 23 21  1  0  0  0  0
 24 22  1  0  0  0  0
 25 17  1  0  0  0  0
 25 14  1  1  0  0  0
 27  2  1  0  0  0  0
 28 29  1  0  0  0  0
 30 33  1  0  0  0  0
 32 29  1  6  0  0  0
 32 31  1  0  0  0  0
 33 31  1  0  0  0  0
 34 32  1  0  0  0  0
 34 30  1  0  0  0  0
M  END
>  <MODEL>
1

>  <REMARK>
 VINA RESULT:      -5.7      0.000      0.000
  Name = 
  3 active torsions:
  status: ('A' for Active; 'I' for Inactive)
    1  A    between atoms: C_17  and  O_28
    2  A    between atoms: O_28  and  C_29
    3  A    between atoms: C_29  and  C_32
                            x       y       z     vdW  Elec       q    Type
                         _______ _______ _______ _____ _____    ______ ____

>  <TORSDO>
F 3

$$$$
=
 OpenBabel11122414203D

 34 40  0  0  1  0  0  0  0  0999 V2000
  156.9700  213.6580  149.1800 C   0  0  0  0  0  0  0  0  0  0  0  0
  157.1040  213.7840  146.6450 C   0  0  0  0  0  2  0  0  0  0  0  0
  158.6190  211.7470  154.6780 C   0  0  1  0  0  3  0  0  0  0  0  0
  157.0900  213.9130  151.5900 C   0  0  0  0  0  0  0  0  0  0  0  0
  159.2410  213.4400  152.8440 C   0  0  1  0  0  3  0  0  0  0  0  0
  158.9600  211.0660  152.4170 O   0  0  0  0  0  1  0  0  0  0  0  0
  159.3330  210.6900  155.4960 C   0  0  0  0  0  1  0  0  0  0  0  0
  157.2010  213.3940  155.1350 C   0  0  0  0  0  2  0  0  0  0  0  0
  158.9360  212.7700  147.8670 C   0  0  2  0  0  3  0  0  0  0  0  0
  161.8760  213.3720  146.6480 C   0  0  0  0  0  2  0  0  0  0  0  0
  159.9450  213.6790  151.5040 C   0  0  0  0  0  2  0  0  0  0  0  0
  157.2750  214.4520  154.0390 C   0  0  0  0  0  2  0  0  0  0  0  0
  159.8210  213.3330  148.9940 C   0  0  1  0  0  3  0  0  0  0  0  0
  158.1680  213.3970  145.6340 C   0  0  0  0  0  2  0  0  0  0  0  0
  157.8440  213.8910  152.8160 N   0  0  0  0  0  0  0  0  0  0  0  0
  158.4830  212.9180  155.4360 O   0  0  0  0  0  0  0  0  0  0  0  0
  160.5480  214.0150  146.2620 C   0  0  2  0  0  3  0  0  0  0  0  0
  157.7110  213.5780  150.3710 C   0  0  0  0  0  0  0  0  0  0  0  0
  159.3820  211.9950  153.3700 C   0  0  2  0  0  3  0  0  0  0  0  0
  159.1400  213.0790  150.3480 C   0  0  2  0  0  3  0  0  0  0  0  0
  155.0580  214.4030  150.4490 C   0  0  0  0  0  3  0  0  0  0  0  0
  162.1540  213.5080  148.1370 C   0  0  0  0  0  2  0  0  0  0  0  0
  155.7880  214.3170  151.5920 N   0  0  0  0  0  0  0  0  0  0  0  0
  161.1920  212.6710  148.9650 C   0  0  0  0  0  2  0  0  0  0  0  0
  159.4150  212.9850  146.4200 C   0  0  1  0  0  3  0  0  0  0  0  0
  155.6370  214.0800  149.2220 C   0  0  0  0  0  3  0  0  0  0  0  0
  157.6070  213.3500  147.9330 N   0  0  0  0  0  0  0  0  0  0  0  0
  160.6380  214.4460  144.9350 O   0  0  0  0  0  0  0  0  0  0  0  0
  161.6190  213.6340  144.3600 C   0  0  0  0  0  2  0  0  0  0  0  0
  161.8970  211.7230  141.3680 C   0  0  0  0  0  2  0  0  0  0  0  0
  160.1590  212.6420  142.5980 C   0  0  0  0  0  2  0  0  0  0  0  0
  161.3780  213.5090  142.8660 C   0  0  2  0  0  3  0  0  0  0  0  0
  160.6020  211.4150  141.9520 N   0  0  0  0  0  2  0  0  0  0  0  0
  162.5350  212.7830  142.2310 C   0  0  0  0  0  2  0  0  0  0  0  0
  1 26  2  0  0  0  0
  1 18  1  0  0  0  0
  2 27  1  0  0  0  0
  3 16  1  0  0  0  0
  3  7  1  1  0  0  0
  4 23  1  0  0  0  0
  4 15  1  0  0  0  0
  5 11  1  6  0  0  0
  5 19  1  0  0  0  0
  8 16  1  0  0  0  0
  9 27  1  6  0  0  0
  9 13  1  0  0  0  0
 10 22  1  0  0  0  0
 12  8  1  0  0  0  0
 13 24  1  1  0  0  0
 13 20  1  0  0  0  0
 14  2  1  0  0  0  0
 15  5  1  0  0  0  0
 15 12  1  0  0  0  0
 17 28  1  6  0  0  0
 17 25  1  0  0  0  0
 17 10  1  0  0  0  0
 18  4  2  0  0  0  0
 19  6  1  6  0  0  0
 19  3  1  0  0  0  0
 20 18  1  0  0  0  0
 20 11  1  1  0  0  0
 21 23  2  0  0  0  0
 22 24  1  0  0  0  0
 25 14  1  6  0  0  0
 25  9  1  0  0  0  0
 26 21  1  0  0  0  0
 27  1  1  0  0  0  0
 29 28  1  0  0  0  0
 30 33  1  0  0  0  0
 30 34  1  0  0  0  0
 31 32  1  0  0  0  0
 32 29  1  1  0  0  0
 33 31  1  0  0  0  0
 34 32  1  0  0  0  0
M  END
>  <MODEL>
2

>  <REMARK>
 VINA RESULT:      -5.5      6.442     10.897
  Name = 
  3 active torsions:
  status: ('A' for Active; 'I' for Inactive)
    1  A    between atoms: C_17  and  O_28
    2  A    between atoms: O_28  and  C_29
    3  A    between atoms: C_29  and  C_32
                            x       y       z     vdW  Elec       q    Type
                         _______ _______ _______ _____ _____    ______ ____

>  <TORSDO>
F 3

$$$$
=
 OpenBabel11122414203D

 34 40  0  0  1  0  0  0  0  0999 V2000
  161.6970  205.5480  147.6580 C   0  0  0  0  0  0  0  0  0  0  0  0
  162.2180  207.5220  149.1720 C   0  0  0  0  0  2  0  0  0  0  0  0
  161.4360  199.6910  146.1660 C   0  0  1  0  0  3  0  0  0  0  0  0
  160.7840  203.7040  146.3740 C   0  0  0  0  0  0  0  0  0  0  0  0
  160.1880  201.5080  147.4920 C   0  0  1  0  0  3  0  0  0  0  0  0
  162.5490  201.0300  147.7970 O   0  0  0  0  0  1  0  0  0  0  0  0
  161.9490  198.2890  146.4240 C   0  0  0  0  0  1  0  0  0  0  0  0
  160.2730  200.6640  144.5430 C   0  0  0  0  0  2  0  0  0  0  0  0
  162.2250  205.2880  150.1140 C   0  0  2  0  0  3  0  0  0  0  0  0
  161.0590  205.0850  153.1300 C   0  0  0  0  0  2  0  0  0  0  0  0
  160.1030  202.3190  148.7890 C   0  0  0  0  0  2  0  0  0  0  0  0
  159.5800  201.9100  145.0860 C   0  0  0  0  0  2  0  0  0  0  0  0
  161.1280  204.2080  150.1370 C   0  0  1  0  0  3  0  0  0  0  0  0
  162.4980  207.6540  150.6580 C   0  0  0  0  0  2  0  0  0  0  0  0
  160.2340  202.3740  146.3070 N   0  0  0  0  0  0  0  0  0  0  0  0
  160.2130  199.6280  145.4840 O   0  0  0  0  0  0  0  0  0  0  0  0
  161.0050  206.2760  152.1780 C   0  0  2  0  0  3  0  0  0  0  0  0
  161.2140  204.2300  147.6070 C   0  0  0  0  0  0  0  0  0  0  0  0
  161.3150  200.4520  147.4930 C   0  0  2  0  0  3  0  0  0  0  0  0
  161.2150  203.3690  148.8530 C   0  0  2  0  0  3  0  0  0  0  0  0
  161.2950  205.7600  145.2880 C   0  0  0  0  0  3  0  0  0  0  0  0
  160.4480  203.8400  152.5060 C   0  0  0  0  0  2  0  0  0  0  0  0
  160.8340  204.4820  145.2560 N   0  0  0  0  0  0  0  0  0  0  0  0
  161.2960  203.3150  151.3590 C   0  0  0  0  0  2  0  0  0  0  0  0
  162.2620  206.2800  151.2900 C   0  0  1  0  0  3  0  0  0  0  0  0
  161.7310  206.3180  146.4900 C   0  0  0  0  0  3  0  0  0  0  0  0
  162.1070  206.1000  148.9170 N   0  0  0  0  0  0  0  0  0  0  0  0
  160.9390  207.4460  152.9420 O   0  0  0  0  0  0  0  0  0  0  0  0
  160.9450  207.0080  154.2690 C   0  0  0  0  0  2  0  0  0  0  0  0
  162.0910  209.6360  156.3810 C   0  0  0  0  0  2  0  0  0  0  0  0
  160.7890  209.4890  154.4670 C   0  0  0  0  0  2  0  0  0  0  0  0
  160.6270  208.1660  155.1980 C   0  0  2  0  0  3  0  0  0  0  0  0
  161.9150  210.2020  155.0540 N   0  0  0  0  0  2  0  0  0  0  0  0
  161.6330  208.2000  156.3190 C   0  0  0  0  0  2  0  0  0  0  0  0
  1 27  1  0  0  0  0
  2 14  1  0  0  0  0
  3  7  1  1  0  0  0
  3 19  1  0  0  0  0
  4 18  2  0  0  0  0
  5 19  1  0  0  0  0
  5 11  1  1  0  0  0
  8 12  1  0  0  0  0
  8 16  1  0  0  0  0
  9 27  1  6  0  0  0
  9 13  1  0  0  0  0
  9 25  1  0  0  0  0
 12 15  1  0  0  0  0
 13 24  1  1  0  0  0
 15  4  1  0  0  0  0
 15  5  1  0  0  0  0
 16  3  1  0  0  0  0
 17 28  1  1  0  0  0
 17 10  1  0  0  0  0
 18  1  1  0  0  0  0
 18 20  1  0  0  0  0
 19  6  1  6  0  0  0
 20 11  1  6  0  0  0
 20 13  1  0  0  0  0
 21 26  1  0  0  0  0
 22 10  1  0  0  0  0
 23 21  2  0  0  0  0
 23  4  1  0  0  0  0
 24 22  1  0  0  0  0
 25 14  1  6  0  0  0
 25 17  1  0  0  0  0
 26  1  2  0  0  0  0
 27  2  1  0  0  0  0
 28 29  1  0  0  0  0
 31 33  1  0  0  0  0
 31 32  1  0  0  0  0
 32 29  1  6  0  0  0
 32 34  1  0  0  0  0
 33 30  1  0  0  0  0
 34 30  1  0  0  0  0
M  END
>  <MODEL>
3

>  <REMARK>
 VINA RESULT:      -5.3      2.463      4.788
  Name = 
  3 active torsions:
  status: ('A' for Active; 'I' for Inactive)
    1  A    between atoms: C_17  and  O_28
    2  A    between atoms: O_28  and  C_29
    3  A    between atoms: C_29  and  C_32
                            x       y       z     vdW  Elec       q    Type
                         _______ _______ _______ _____ _____    ______ ____

>  <TORSDO>
F 3

$$$$
=
 OpenBabel11122414203D

 34 40  0  0  1  0  0  0  0  0999 V2000
  161.4880  208.4410  150.2780 C   0  0  0  0  0  0  0  0  0  0  0  0
  161.3210  207.1500  148.0950 C   0  0  0  0  0  2  0  0  0  0  0  0
  160.2630  209.5770  156.0930 C   0  0  1  0  0  3  0  0  0  0  0  0
  162.0220  209.4370  152.4240 C   0  0  0  0  0  0  0  0  0  0  0  0
  161.7450  208.1240  154.5750 C   0  0  1  0  0  3  0  0  0  0  0  0
  159.3330  208.2560  154.3380 O   0  0  0  0  0  1  0  0  0  0  0  0
  159.3240  209.3570  157.2610 C   0  0  0  0  0  1  0  0  0  0  0  0
  161.9200  210.9900  155.6540 C   0  0  0  0  0  2  0  0  0  0  0  0
  160.4970  206.1230  150.1300 C   0  0  2  0  0  3  0  0  0  0  0  0
  161.0180  202.9330  150.3470 C   0  0  0  0  0  2  0  0  0  0  0  0
  161.8430  206.8740  153.6940 C   0  0  0  0  0  2  0  0  0  0  0  0
  162.8460  210.3830  154.6040 C   0  0  0  0  0  2  0  0  0  0  0  0
  161.2060  205.8380  151.4670 C   0  0  1  0  0  3  0  0  0  0  0  0
  160.8430  205.7530  147.7410 C   0  0  0  0  0  2  0  0  0  0  0  0
  162.1590  209.3340  153.8540 N   0  0  0  0  0  0  0  0  0  0  0  0
  161.5110  210.0080  156.5650 O   0  0  0  0  0  0  0  0  0  0  0  0
  161.5820  203.9110  149.3220 C   0  0  2  0  0  3  0  0  0  0  0  0
  161.5620  208.3350  151.6770 C   0  0  0  0  0  0  0  0  0  0  0  0
  160.3750  208.2890  155.2660 C   0  0  2  0  0  3  0  0  0  0  0  0
  161.0960  207.0750  152.3720 C   0  0  2  0  0  3  0  0  0  0  0  0
  162.3320  210.6960  150.4280 C   0  0  0  0  0  3  0  0  0  0  0  0
  161.3330  203.3680  151.7700 C   0  0  0  0  0  2  0  0  0  0  0  0
  162.3950  210.5790  151.7800 N   0  0  0  0  0  0  0  0  0  0  0  0
  160.5760  204.6310  152.1490 C   0  0  0  0  0  2  0  0  0  0  0  0
  160.5530  205.0240  149.0540 C   0  0  1  0  0  3  0  0  0  0  0  0
  161.8820  209.6280  149.6520 C   0  0  0  0  0  3  0  0  0  0  0  0
  161.0510  207.3110  149.5090 N   0  0  0  0  0  0  0  0  0  0  0  0
  161.8590  203.2040  148.1470 O   0  0  0  0  0  0  0  0  0  0  0  0
  160.8370  202.2570  148.0490 C   0  0  0  0  0  2  0  0  0  0  0  0
  159.2850  201.8860  144.8660 C   0  0  0  0  0  2  0  0  0  0  0  0
  161.3400  202.6360  145.6370 C   0  0  0  0  0  2  0  0  0  0  0  0
  160.8370  201.6360  146.6640 C   0  0  2  0  0  3  0  0  0  0  0  0
  160.2350  202.9800  144.7520 N   0  0  0  0  0  2  0  0  0  0  0  0
  159.4210  201.3190  146.2570 C   0  0  0  0  0  2  0  0  0  0  0  0
  1 18  1  0  0  0  0
  2 27  1  0  0  0  0
  3 16  1  0  0  0  0
  3  7  1  1  0  0  0
  4 15  1  0  0  0  0
  5 11  1  6  0  0  0
  5 19  1  0  0  0  0
  8 16  1  0  0  0  0
  9 27  1  6  0  0  0
  9 13  1  0  0  0  0
 10 22  1  0  0  0  0
 12  8  1  0  0  0  0
 13 24  1  1  0  0  0
 13 20  1  0  0  0  0
 14  2  1  0  0  0  0
 15  5  1  0  0  0  0
 15 12  1  0  0  0  0
 17 28  1  6  0  0  0
 17 10  1  0  0  0  0
 18 20  1  0  0  0  0
 18  4  2  0  0  0  0
 19  6  1  6  0  0  0
 19  3  1  0  0  0  0
 20 11  1  1  0  0  0
 21 23  2  0  0  0  0
 22 24  1  0  0  0  0
 23  4  1  0  0  0  0
 25 14  1  6  0  0  0
 25 17  1  0  0  0  0
 25  9  1  0  0  0  0
 26  1  2  0  0  0  0
 26 21  1  0  0  0  0
 27  1  1  0  0  0  0
 29 28  1  0  0  0  0
 30 34  1  0  0  0  0
 31 32  1  0  0  0  0
 32 29  1  1  0  0  0
 33 30  1  0  0  0  0
 33 31  1  0  0  0  0
 34 32  1  0  0  0  0
M  END
>  <MODEL>
4

>  <REMARK>
 VINA RESULT:      -5.0      2.073      8.952
  Name = 
  3 active torsions:
  status: ('A' for Active; 'I' for Inactive)
    1  A    between atoms: C_17  and  O_28
    2  A    between atoms: O_28  and  C_29
    3  A    between atoms: C_29  and  C_32
                            x       y       z     vdW  Elec       q    Type
                         _______ _______ _______ _____ _____    ______ ____

>  <TORSDO>
F 3

$$$$
=
 OpenBabel11122414203D

 34 40  0  0  1  0  0  0  0  0999 V2000
  161.7600  207.4530  148.8450 C   0  0  0  0  0  0  0  0  0  0  0  0
  161.9860  209.9840  148.8760 C   0  0  0  0  0  2  0  0  0  0  0  0
  162.1080  201.8800  151.1720 C   0  0  1  0  0  3  0  0  0  0  0  0
  161.1140  205.1160  148.9120 C   0  0  0  0  0  0  0  0  0  0  0  0
  160.6070  203.9670  151.1140 C   0  0  1  0  0  3  0  0  0  0  0  0
  162.9650  204.0450  151.6900 O   0  0  0  0  0  1  0  0  0  0  0  0
  162.7110  200.9790  152.2310 C   0  0  0  0  0  1  0  0  0  0  0  0
  161.0120  201.5500  149.2680 C   0  0  0  0  0  2  0  0  0  0  0  0
  162.0960  208.7720  150.9720 C   0  0  2  0  0  3  0  0  0  0  0  0
  160.6980  210.2700  153.4810 C   0  0  0  0  0  2  0  0  0  0  0  0
  160.3450  205.3750  151.6600 C   0  0  0  0  0  2  0  0  0  0  0  0
  160.1760  202.7830  148.9400 C   0  0  0  0  0  2  0  0  0  0  0  0
  161.0930  207.7990  151.6200 C   0  0  1  0  0  3  0  0  0  0  0  0
  162.1260  211.0070  149.9890 C   0  0  0  0  0  2  0  0  0  0  0  0
  160.6830  203.9560  149.6480 N   0  0  0  0  0  0  0  0  0  0  0  0
  160.9570  201.2800  150.6420 O   0  0  0  0  0  0  0  0  0  0  0  0
  160.6270  210.6430  152.0040 C   0  0  2  0  0  3  0  0  0  0  0  0
  161.3930  206.3190  149.5880 C   0  0  0  0  0  0  0  0  0  0  0  0
  161.8120  203.2610  151.7710 C   0  0  2  0  0  3  0  0  0  0  0  0
  161.3580  206.3770  151.1000 C   0  0  2  0  0  3  0  0  0  0  0  0
  161.5460  206.1630  146.8170 C   0  0  0  0  0  3  0  0  0  0  0  0
  160.2460  208.8380  153.7210 C   0  0  0  0  0  2  0  0  0  0  0  0
  161.1950  205.0740  147.5520 N   0  0  0  0  0  0  0  0  0  0  0  0
  161.2300  207.8360  153.1360 C   0  0  0  0  0  2  0  0  0  0  0  0
  161.9510  210.2650  151.3160 C   0  0  1  0  0  3  0  0  0  0  0  0
  161.8300  207.3730  147.4500 C   0  0  0  0  0  3  0  0  0  0  0  0
  162.0140  208.6900  149.5260 N   0  0  0  0  0  0  0  0  0  0  0  0
  160.4000  212.0200  151.9090 O   0  0  0  0  0  0  0  0  0  0  0  0
  159.7430  212.3580  153.0940 C   0  0  0  0  0  2  0  0  0  0  0  0
  156.5030  213.2050  154.3050 C   0  0  0  0  0  2  0  0  0  0  0  0
  157.9130  213.9880  152.6380 C   0  0  0  0  0  2  0  0  0  0  0  0
  158.2560  212.5220  152.8340 C   0  0  2  0  0  3  0  0  0  0  0  0
  157.0840  214.4190  153.7560 N   0  0  0  0  0  2  0  0  0  0  0  0
  157.4840  212.0870  154.0530 C   0  0  0  0  0  2  0  0  0  0  0  0
  1 27  1  0  0  0  0
  1 18  1  0  0  0  0
  2 27  1  0  0  0  0
  2 14  1  0  0  0  0
  3 19  1  0  0  0  0
  3  7  1  1  0  0  0
  4 18  2  0  0  0  0
  4 15  1  0  0  0  0
  5 11  1  1  0  0  0
  5 19  1  0  0  0  0
  8 16  1  0  0  0  0
  9 27  1  6  0  0  0
  9 25  1  0  0  0  0
  9 13  1  0  0  0  0
 10 22  1  0  0  0  0
 12  8  1  0  0  0  0
 12 15  1  0  0  0  0
 13 24  1  1  0  0  0
 15  5  1  0  0  0  0
 16  3  1  0  0  0  0
 17 28  1  1  0  0  0
 17 10  1  0  0  0  0
 18 20  1  0  0  0  0
 19  6  1  6  0  0  0
 20 13  1  0  0  0  0
 20 11  1  6  0  0  0
 21 26  1  0  0  0  0
 21 23  2  0  0  0  0
 23  4  1  0  0  0  0
 24 22  1  0  0  0  0
 25 14  1  6  0  0  0
 25 17  1  0  0  0  0
 26  1  2  0  0  0  0
 28 29  1  0  0  0  0
 31 32  1  0  0  0  0
 31 33  1  0  0  0  0
 32 29  1  1  0  0  0
 32 34  1  0  0  0  0
 33 30  1  0  0  0  0
 34 30  1  0  0  0  0
M  END
>  <MODEL>
5

>  <REMARK>
 VINA RESULT:      -4.9      2.787      4.595
  Name = 
  3 active torsions:
  status: ('A' for Active; 'I' for Inactive)
    1  A    between atoms: C_17  and  O_28
    2  A    between atoms: O_28  and  C_29
    3  A    between atoms: C_29  and  C_32
                            x       y       z     vdW  Elec       q    Type
                         _______ _______ _______ _____ _____    ______ ____

>  <TORSDO>
F 3

$$$$
=
 OpenBabel11122414203D

 34 40  0  0  1  0  0  0  0  0999 V2000
  161.9560  209.5960  149.8700 C   0  0  0  0  0  0  0  0  0  0  0  0
  162.0210  210.9240  147.7050 C   0  0  0  0  0  2  0  0  0  0  0  0
  161.8620  208.8900  155.8780 C   0  0  1  0  0  3  0  0  0  0  0  0
  161.4510  208.3170  151.8690 C   0  0  0  0  0  0  0  0  0  0  0  0
  160.3430  209.4110  153.8690 C   0  0  1  0  0  3  0  0  0  0  0  0
  162.3930  210.6280  154.3320 O   0  0  0  0  0  1  0  0  0  0  0  0
  162.1510  209.5000  157.2350 C   0  0  0  0  0  1  0  0  0  0  0  0
  161.4390  206.8400  155.1350 C   0  0  0  0  0  2  0  0  0  0  0  0
  161.5340  212.0840  149.7770 C   0  0  2  0  0  3  0  0  0  0  0  0
  159.3390  214.4530  149.5210 C   0  0  0  0  0  2  0  0  0  0  0  0
  159.8460  210.4670  152.8770 C   0  0  0  0  0  2  0  0  0  0  0  0
  160.6810  206.9210  153.8140 C   0  0  0  0  0  2  0  0  0  0  0  0
  160.4340  211.8410  150.8260 C   0  0  1  0  0  3  0  0  0  0  0  0
  161.7490  212.3780  147.3610 C   0  0  0  0  0  2  0  0  0  0  0  0
  160.8760  208.2260  153.1850 N   0  0  0  0  0  0  0  0  0  0  0  0
  160.9710  207.8180  156.0220 O   0  0  0  0  0  0  0  0  0  0  0  0
  159.7160  213.4030  148.4810 C   0  0  2  0  0  3  0  0  0  0  0  0
  161.4370  209.5420  151.1750 C   0  0  0  0  0  0  0  0  0  0  0  0
  161.3180  209.9660  154.9300 C   0  0  2  0  0  3  0  0  0  0  0  0
  160.9270  210.8000  151.8440 C   0  0  2  0  0  3  0  0  0  0  0  0
  162.4600  207.2400  150.0010 C   0  0  0  0  0  3  0  0  0  0  0  0
  158.9150  213.8160  150.8350 C   0  0  0  0  0  2  0  0  0  0  0  0
  161.9570  207.2060  151.2630 N   0  0  0  0  0  0  0  0  0  0  0  0
  160.0860  213.1430  151.5340 C   0  0  0  0  0  2  0  0  0  0  0  0
  161.2070  213.0510  148.6240 C   0  0  1  0  0  3  0  0  0  0  0  0
  162.4640  208.4340  149.2800 C   0  0  0  0  0  3  0  0  0  0  0  0
  161.9150  210.8340  149.1460 N   0  0  0  0  0  0  0  0  0  0  0  0
  159.4550  213.9290  147.2120 O   0  0  0  0  0  0  0  0  0  0  0  0
  158.4540  213.1100  146.6820 C   0  0  0  0  0  2  0  0  0  0  0  0
  160.1430  214.0960  143.7060 C   0  0  0  0  0  2  0  0  0  0  0  0
  159.5120  212.0840  144.6710 C   0  0  0  0  0  2  0  0  0  0  0  0
  158.5210  213.1240  145.1660 C   0  0  2  0  0  3  0  0  0  0  0  0
  160.6380  212.7760  144.0600 N   0  0  0  0  0  2  0  0  0  0  0  0
  159.0650  214.4500  144.7010 C   0  0  0  0  0  2  0  0  0  0  0  0
  1 18  1  0  0  0  0
  2 27  1  0  0  0  0
  3 16  1  0  0  0  0
  3  7  1  1  0  0  0
  4 15  1  0  0  0  0
  5 11  1  6  0  0  0
  5 19  1  0  0  0  0
  8 16  1  0  0  0  0
  9 27  1  6  0  0  0
  9 13  1  0  0  0  0
 10 22  1  0  0  0  0
 12  8  1  0  0  0  0
 13 24  1  1  0  0  0
 13 20  1  0  0  0  0
 14  2  1  0  0  0  0
 15 12  1  0  0  0  0
 15  5  1  0  0  0  0
 17 28  1  6  0  0  0
 17 25  1  0  0  0  0
 17 10  1  0  0  0  0
 18 20  1  0  0  0  0
 18  4  2  0  0  0  0
 19  6  1  6  0  0  0
 19  3  1  0  0  0  0
 20 11  1  1  0  0  0
 21 23  2  0  0  0  0
 22 24  1  0  0  0  0
 23  4  1  0  0  0  0
 25 14  1  6  0  0  0
 25  9  1  0  0  0  0
 26  1  2  0  0  0  0
 26 21  1  0  0  0  0
 27  1  1  0  0  0  0
 29 28  1  0  0  0  0
 30 33  1  0  0  0  0
 30 34  1  0  0  0  0
 31 32  1  0  0  0  0
 32 29  1  1  0  0  0
 33 31  1  0  0  0  0
 34 32  1  0  0  0  0
M  END
>  <MODEL>
6

>  <REMARK>
 VINA RESULT:      -4.7      4.367      8.359
  Name = 
  3 active torsions:
  status: ('A' for Active; 'I' for Inactive)
    1  A    between atoms: C_17  and  O_28
    2  A    between atoms: O_28  and  C_29
    3  A    between atoms: C_29  and  C_32
                            x       y       z     vdW  Elec       q    Type
                         _______ _______ _______ _____ _____    ______ ____

>  <TORSDO>
F 3

$$$$
=
 OpenBabel11122414203D

 34 40  0  0  1  0  0  0  0  0999 V2000
  158.3850  213.6770  149.2830 C   0  0  0  0  0  0  0  0  0  0  0  0
  157.8520  213.4230  151.7550 C   0  0  0  0  0  2  0  0  0  0  0  0
  162.0210  214.1310  144.4690 C   0  0  1  0  0  3  0  0  0  0  0  0
  158.8260  213.4770  146.9060 C   0  0  0  0  0  0  0  0  0  0  0  0
  160.9670  212.4110  146.0640 C   0  0  1  0  0  3  0  0  0  0  0  0
  162.2240  214.3400  146.8370 O   0  0  0  0  0  1  0  0  0  0  0  0
  163.4060  214.4530  143.9480 C   0  0  0  0  0  1  0  0  0  0  0  0
  160.0140  213.8860  143.5480 C   0  0  0  0  0  2  0  0  0  0  0  0
  160.1070  212.9700  150.9900 C   0  0  2  0  0  3  0  0  0  0  0  0
  161.5800  210.5080  152.4940 C   0  0  0  0  0  2  0  0  0  0  0  0
  161.0300  211.7220  147.4310 C   0  0  0  0  0  2  0  0  0  0  0  0
  159.1380  213.0240  144.4520 C   0  0  0  0  0  2  0  0  0  0  0  0
  160.6240  211.9900  149.9220 C   0  0  1  0  0  3  0  0  0  0  0  0
  158.6570  212.9620  152.9560 C   0  0  0  0  0  2  0  0  0  0  0  0
  159.6530  213.0190  145.8200 N   0  0  0  0  0  0  0  0  0  0  0  0
  161.3200  213.3800  143.5150 O   0  0  0  0  0  0  0  0  0  0  0  0
  160.1130  210.9190  152.5760 C   0  0  2  0  0  3  0  0  0  0  0  0
  159.2320  213.2710  148.2390 C   0  0  0  0  0  0  0  0  0  0  0  0
  162.1280  213.3960  145.8110 C   0  0  2  0  0  3  0  0  0  0  0  0
  160.5890  212.6750  148.5460 C   0  0  2  0  0  3  0  0  0  0  0  0
  156.7870  214.4530  147.6510 C   0  0  0  0  0  3  0  0  0  0  0  0
  162.0150  210.2620  151.0580 C   0  0  0  0  0  2  0  0  0  0  0  0
  157.6200  214.0570  146.6530 N   0  0  0  0  0  0  0  0  0  0  0  0
  162.0440  211.5520  150.2530 C   0  0  0  0  0  2  0  0  0  0  0  0
  160.0000  212.4470  152.4340 C   0  0  1  0  0  3  0  0  0  0  0  0
  157.1520  214.2660  148.9840 C   0  0  0  0  0  3  0  0  0  0  0  0
  158.7790  213.4400  150.6420 N   0  0  0  0  0  0  0  0  0  0  0  0
  159.6100  210.5020  153.8130 O   0  0  0  0  0  0  0  0  0  0  0  0
  160.5560  210.9280  154.7480 C   0  0  0  0  0  2  0  0  0  0  0  0
  160.5510  207.8010  156.4520 C   0  0  0  0  0  2  0  0  0  0  0  0
  161.7540  209.7780  156.6070 C   0  0  0  0  0  2  0  0  0  0  0  0
  160.3940  210.1480  156.0410 C   0  0  2  0  0  3  0  0  0  0  0  0
  161.9020  208.3310  156.5360 N   0  0  0  0  0  2  0  0  0  0  0  0
  159.7080  208.8390  155.7530 C   0  0  0  0  0  2  0  0  0  0  0  0
  1 27  1  0  0  0  0
  2 14  1  0  0  0  0
  3  7  1  6  0  0  0
  3 19  1  0  0  0  0
  4 18  1  0  0  0  0
  5 11  1  1  0  0  0
  8 12  1  0  0  0  0
  9 27  1  6  0  0  0
  9 25  1  0  0  0  0
 10 17  1  0  0  0  0
 12 15  1  0  0  0  0
 13 24  1  1  0  0  0
 13  9  1  0  0  0  0
 15  5  1  0  0  0  0
 15  4  1  0  0  0  0
 16  8  1  0  0  0  0
 16  3  1  0  0  0  0
 17 28  1  1  0  0  0
 18 20  1  0  0  0  0
 18  1  2  0  0  0  0
 19  5  1  0  0  0  0
 19  6  1  1  0  0  0
 20 11  1  6  0  0  0
 20 13  1  0  0  0  0
 21 26  2  0  0  0  0
 22 10  1  0  0  0  0
 23  4  2  0  0  0  0
 23 21  1  0  0  0  0
 24 22  1  0  0  0  0
 25 17  1  0  0  0  0
 25 14  1  6  0  0  0
 26  1  1  0  0  0  0
 27  2  1  0  0  0  0
 28 29  1  0  0  0  0
 30 33  1  0  0  0  0
 32 29  1  6  0  0  0
 32 31  1  0  0  0  0
 33 31  1  0  0  0  0
 34 32  1  0  0  0  0
 34 30  1  0  0  0  0
M  END
>  <MODEL>
7

>  <REMARK>
 VINA RESULT:      -4.3      5.569      7.240
  Name = 
  3 active torsions:
  status: ('A' for Active; 'I' for Inactive)
    1  A    between atoms: C_17  and  O_28
    2  A    between atoms: O_28  and  C_29
    3  A    between atoms: C_29  and  C_32
                            x       y       z     vdW  Elec       q    Type
                         _______ _______ _______ _____ _____    ______ ____

>  <TORSDO>
F 3

$$$$
=
 OpenBabel11122414203D

 34 40  0  0  1  0  0  0  0  0999 V2000
  157.6500  214.0800  148.0590 C   0  0  0  0  0  0  0  0  0  0  0  0
  156.5130  214.4380  150.3040 C   0  0  0  0  0  2  0  0  0  0  0  0
  162.3750  213.6050  144.3120 C   0  0  1  0  0  3  0  0  0  0  0  0
  158.6880  213.3030  146.0090 C   0  0  0  0  0  0  0  0  0  0  0  0
  161.0040  212.2730  146.0310 C   0  0  1  0  0  3  0  0  0  0  0  0
  161.9620  214.4530  146.5030 O   0  0  0  0  0  1  0  0  0  0  0  0
  163.8370  213.9160  144.0630 C   0  0  0  0  0  1  0  0  0  0  0  0
  160.6780  212.9250  143.0510 C   0  0  0  0  0  2  0  0  0  0  0  0
  158.9020  214.0280  150.2520 C   0  0  2  0  0  3  0  0  0  0  0  0
  160.0190  212.2130  152.6920 C   0  0  0  0  0  2  0  0  0  0  0  0
  160.7390  211.9800  147.5120 C   0  0  0  0  0  2  0  0  0  0  0  0
  159.6280  212.2490  143.9280 C   0  0  0  0  0  2  0  0  0  0  0  0
  159.7040  212.8560  149.6570 C   0  0  1  0  0  3  0  0  0  0  0  0
  157.0000  214.3950  151.7410 C   0  0  0  0  0  2  0  0  0  0  0  0
  159.7780  212.6590  145.3230 N   0  0  0  0  0  0  0  0  0  0  0  0
  161.9640  212.5620  143.4700 O   0  0  0  0  0  0  0  0  0  0  0  0
  158.5680  212.4820  152.3070 C   0  0  2  0  0  3  0  0  0  0  0  0
  158.7470  213.4990  147.4030 C   0  0  0  0  0  0  0  0  0  0  0  0
  162.1610  213.2670  145.7920 C   0  0  2  0  0  3  0  0  0  0  0  0
  159.9990  213.1450  148.1770 C   0  0  2  0  0  3  0  0  0  0  0  0
  156.4960  214.2310  145.9460 C   0  0  0  0  0  3  0  0  0  0  0  0
  160.8120  211.6410  151.5280 C   0  0  0  0  0  2  0  0  0  0  0  0
  157.5680  213.6710  145.3250 N   0  0  0  0  0  0  0  0  0  0  0  0
  161.0060  212.6670  150.4240 C   0  0  0  0  0  2  0  0  0  0  0  0
  158.4480  213.8980  151.7170 C   0  0  1  0  0  3  0  0  0  0  0  0
  156.5160  214.4420  147.3250 C   0  0  0  0  0  3  0  0  0  0  0  0
  157.6920  214.2530  149.4830 N   0  0  0  0  0  0  0  0  0  0  0  0
  157.7790  212.3590  153.4560 O   0  0  0  0  0  0  0  0  0  0  0  0
  158.5340  211.5690  154.3270 C   0  0  0  0  0  2  0  0  0  0  0  0
  156.6740  212.3580  157.2590 C   0  0  0  0  0  2  0  0  0  0  0  0
  156.2060  211.3940  155.2020 C   0  0  0  0  0  2  0  0  0  0  0  0
  157.6700  211.1060  155.4860 C   0  0  2  0  0  3  0  0  0  0  0  0
  155.7480  212.4100  156.1400 N   0  0  0  0  0  2  0  0  0  0  0  0
  158.0070  211.9100  156.7140 C   0  0  0  0  0  2  0  0  0  0  0  0
  1 27  1  0  0  0  0
  2 14  1  0  0  0  0
  3  7  1  1  0  0  0
  3 19  1  0  0  0  0
  4 18  2  0  0  0  0
  5 11  1  1  0  0  0
  8 16  1  0  0  0  0
  8 12  1  0  0  0  0
  9 27  1  6  0  0  0
  9 25  1  0  0  0  0
 12 15  1  0  0  0  0
 13  9  1  0  0  0  0
 13 24  1  1  0  0  0
 15  4  1  0  0  0  0
 15  5  1  0  0  0  0
 16  3  1  0  0  0  0
 17 10  1  0  0  0  0
 17 28  1  1  0  0  0
 18  1  1  0  0  0  0
 18 20  1  0  0  0  0
 19  5  1  0  0  0  0
 19  6  1  1  0  0  0
 20 11  1  6  0  0  0
 20 13  1  0  0  0  0
 21 26  1  0  0  0  0
 22 10  1  0  0  0  0
 23 21  2  0  0  0  0
 23  4  1  0  0  0  0
 24 22  1  0  0  0  0
 25 14  1  6  0  0  0
 25 17  1  0  0  0  0
 26  1  2  0  0  0  0
 27  2  1  0  0  0  0
 28 29  1  0  0  0  0
 31 32  1  0  0  0  0
 31 33  1  0  0  0  0
 32 29  1  6  0  0  0
 32 34  1  0  0  0  0
 33 30  1  0  0  0  0
 34 30  1  0  0  0  0
M  END
>  <MODEL>
8

>  <REMARK>
 VINA RESULT:      -4.3      6.128      7.782
  Name = 
  3 active torsions:
  status: ('A' for Active; 'I' for Inactive)
    1  A    between atoms: C_17  and  O_28
    2  A    between atoms: O_28  and  C_29
    3  A    between atoms: C_29  and  C_32
                            x       y       z     vdW  Elec       q    Type
                         _______ _______ _______ _____ _____    ______ ____

>  <TORSDO>
F 3

$$$$
=
 OpenBabel11122414203D

 34 40  0  0  1  0  0  0  0  0999 V2000
  161.9470  208.6040  151.4590 C   0  0  0  0  0  0  0  0  0  0  0  0
  162.1250  210.5680  153.0620 C   0  0  0  0  0  2  0  0  0  0  0  0
  161.8390  202.7500  149.9390 C   0  0  1  0  0  3  0  0  0  0  0  0
  161.3360  206.7890  149.9710 C   0  0  0  0  0  0  0  0  0  0  0  0
  160.3610  204.6320  150.8790 C   0  0  1  0  0  3  0  0  0  0  0  0
  162.5270  204.0550  151.8140 O   0  0  0  0  0  1  0  0  0  0  0  0
  162.2000  201.3290  150.3240 C   0  0  0  0  0  1  0  0  0  0  0  0
  161.2060  203.7560  148.0630 C   0  0  0  0  0  2  0  0  0  0  0  0
  161.7750  208.3460  153.9650 C   0  0  2  0  0  3  0  0  0  0  0  0
  159.8260  208.2240  156.5500 C   0  0  0  0  0  2  0  0  0  0  0  0
  159.9630  205.4590  152.1060 C   0  0  0  0  0  2  0  0  0  0  0  0
  160.4480  205.0370  148.4000 C   0  0  0  0  0  2  0  0  0  0  0  0
  160.6660  207.3150  153.6870 C   0  0  1  0  0  3  0  0  0  0  0  0
  161.9960  210.7030  154.5680 C   0  0  0  0  0  2  0  0  0  0  0  0
  160.7660  205.4840  149.7540 N   0  0  0  0  0  0  0  0  0  0  0  0
  160.8460  202.7330  148.9500 O   0  0  0  0  0  0  0  0  0  0  0  0
  160.0860  209.4070  155.6220 C   0  0  2  0  0  3  0  0  0  0  0  0
  161.4380  207.3080  151.2760 C   0  0  0  0  0  0  0  0  0  0  0  0
  161.3960  203.5280  151.1840 C   0  0  2  0  0  3  0  0  0  0  0  0
  161.0620  206.4610  152.4730 C   0  0  2  0  0  3  0  0  0  0  0  0
  162.2140  208.8100  149.0700 C   0  0  0  0  0  3  0  0  0  0  0  0
  159.3530  207.0010  155.7810 C   0  0  0  0  0  2  0  0  0  0  0  0
  161.7230  207.5530  148.9110 N   0  0  0  0  0  0  0  0  0  0  0  0
  160.4560  206.4280  154.9060 C   0  0  0  0  0  2  0  0  0  0  0  0
  161.5360  209.3470  155.1090 C   0  0  1  0  0  3  0  0  0  0  0  0
  162.3310  209.3600  150.3460 C   0  0  0  0  0  3  0  0  0  0  0  0
  162.0240  209.1510  152.7830 N   0  0  0  0  0  0  0  0  0  0  0  0
  159.8670  210.5860  156.3420 O   0  0  0  0  0  0  0  0  0  0  0  0
  158.5030  210.8480  156.1940 C   0  0  0  0  0  2  0  0  0  0  0  0
  156.5940  212.9860  154.0810 C   0  0  0  0  0  2  0  0  0  0  0  0
  158.8280  212.7950  154.6710 C   0  0  0  0  0  2  0  0  0  0  0  0
  158.2300  211.4060  154.8090 C   0  0  2  0  0  3  0  0  0  0  0  0
  157.7400  213.7530  154.5400 N   0  0  0  0  0  2  0  0  0  0  0  0
  156.7450  211.5870  154.6260 C   0  0  0  0  0  2  0  0  0  0  0  0
  1 27  1  0  0  0  0
  2 14  1  0  0  0  0
  3  7  1  1  0  0  0
  3 19  1  0  0  0  0
  4 18  2  0  0  0  0
  5 19  1  0  0  0  0
  5 11  1  1  0  0  0
  8 12  1  0  0  0  0
  8 16  1  0  0  0  0
  9 27  1  6  0  0  0
  9 25  1  0  0  0  0
 12 15  1  0  0  0  0
 13  9  1  0  0  0  0
 13 24  1  1  0  0  0
 15  4  1  0  0  0  0
 15  5  1  0  0  0  0
 16  3  1  0  0  0  0
 17 28  1  1  0  0  0
 17 10  1  0  0  0  0
 18  1  1  0  0  0  0
 18 20  1  0  0  0  0
 19  6  1  6  0  0  0
 20 11  1  6  0  0  0
 20 13  1  0  0  0  0
 21 26  1  0  0  0  0
 22 10  1  0  0  0  0
 23 21  2  0  0  0  0
 23  4  1  0  0  0  0
 24 22  1  0  0  0  0
 25 14  1  6  0  0  0
 25 17  1  0  0  0  0
 26  1  2  0  0  0  0
 27  2  1  0  0  0  0
 29 28  1  0  0  0  0
 30 33  1  0  0  0  0
 30 34  1  0  0  0  0
 31 32  1  0  0  0  0
 32 29  1  1  0  0  0
 33 31  1  0  0  0  0
 34 32  1  0  0  0  0
M  END
>  <MODEL>
9

>  <REMARK>
 VINA RESULT:      -4.0      2.307      4.232
  Name = 
  3 active torsions:
  status: ('A' for Active; 'I' for Inactive)
    1  A    between atoms: C_17  and  O_28
    2  A    between atoms: O_28  and  C_29
    3  A    between atoms: C_29  and  C_32
                            x       y       z     vdW  Elec       q    Type
                         _______ _______ _______ _____ _____    ______ ____

>  <TORSDO>
F 3

$$$$
