=
 OpenBabel11122412533D

 32 37  0  0  1  0  0  0  0  0999 V2000
  159.5610  211.9730  155.6340 C   0  0  0  0  0  2  0  0  0  0  0  0
  161.3930  207.8870  152.9660 C   0  0  1  0  0  3  0  0  0  0  0  0
  161.8830  210.6320  148.8000 C   0  0  0  0  0  2  0  0  0  0  0  0
  162.4000  209.4750  148.1950 O   0  0  0  0  0  0  0  0  0  0  0  0
  161.2030  205.4120  152.5970 C   0  0  0  0  0  0  0  0  0  0  0  0
  161.1290  204.3400  151.7250 C   0  0  0  0  0  0  0  0  0  0  0  0
  160.0720  209.3870  154.4700 C   0  0  1  0  0  3  0  0  0  0  0  0
  162.0940  210.2470  153.1970 C   0  0  0  0  0  2  0  0  0  0  0  0
  161.0970  203.2980  149.7580 C   0  0  0  0  0  0  0  0  0  0  0  0
  160.8330  211.7950  154.7850 C   0  0  2  0  0  3  0  0  0  0  0  0
  162.2050  210.6070  150.2940 C   0  0  0  0  0  2  0  0  0  0  0  0
  161.9340  209.0870  152.3280 N   0  0  0  0  0  0  0  0  0  0  0  0
  161.8960  209.2550  150.9000 C   0  0  0  0  0  0  0  0  0  0  0  0
  161.4510  206.8800  150.6630 N   0  0  0  0  0  0  0  0  0  0  0  0
  160.9580  202.3570  150.7240 N   0  0  0  0  0  0  0  0  0  0  0  0
  158.3660  211.2100  155.0690 C   0  0  0  0  0  2  0  0  0  0  0  0
  160.7360  210.6090  153.8060 C   0  0  2  0  0  3  0  0  0  0  0  0
  160.9750  202.9840  151.9310 C   0  0  0  0  0  3  0  0  0  0  0  0
  158.6650  209.7080  154.9940 C   0  0  0  0  0  2  0  0  0  0  0  0
  161.5710  208.4160  148.6070 C   0  0  0  0  0  2  0  0  0  0  0  0
  161.6670  208.1940  150.1040 C   0  0  0  0  0  0  0  0  0  0  0  0
  161.3720  205.8140  149.8020 C   0  0  0  0  0  3  0  0  0  0  0  0
  160.0000  208.2000  153.5080 C   0  0  0  0  0  2  0  0  0  0  0  0
  161.1210  205.2160  153.9720 O   0  0  0  0  0  1  0  0  0  0  0  0
  161.1240  202.9920  148.3020 C   0  0  0  0  0  1  0  0  0  0  0  0
  161.3610  206.7040  152.0370 C   0  0  0  0  0  0  0  0  0  0  0  0
  161.2070  204.5420  150.3220 C   0  0  0  0  0  0  0  0  0  0  0  0
  161.9310  211.6520  155.6400 O   0  0  0  0  0  0  0  0  0  0  0  0
  161.4230  211.0180  156.7760 C   0  0  0  0  0  2  0  0  0  0  0  0
  162.2840  209.8560  157.1230 C   0  0  0  0  0  0  0  0  0  0  0  0
  163.6560  210.0250  157.2560 O   0  0  0  0  0  0  0  0  0  0  0  0
  161.7760  208.7130  157.2590 O   0  0  0  0  0  1  0  0  0  0  0  0
  2 23  1  6  0  0  0
  3 11  1  0  0  0  0
  4 20  1  0  0  0  0
  4  3  1  0  0  0  0
  5 24  1  0  0  0  0
  6 18  2  0  0  0  0
  6  5  1  0  0  0  0
  7 23  1  6  0  0  0
  7 19  1  0  0  0  0
  9 27  1  0  0  0  0
  9 15  2  0  0  0  0
 10  1  1  0  0  0  0
 10 28  1  1  0  0  0
 11 13  1  0  0  0  0
 12  2  1  0  0  0  0
 12  8  1  0  0  0  0
 13 12  1  0  0  0  0
 14 26  1  0  0  0  0
 15 18  1  0  0  0  0
 16  1  1  0  0  0  0
 17  8  1  1  0  0  0
 17  7  1  0  0  0  0
 17 10  1  0  0  0  0
 19 16  1  0  0  0  0
 20 21  1  0  0  0  0
 21 14  1  0  0  0  0
 21 13  2  0  0  0  0
 22 27  2  0  0  0  0
 22 14  1  0  0  0  0
 25  9  1  0  0  0  0
 26  5  2  0  0  0  0
 26  2  1  0  0  0  0
 27  6  1  0  0  0  0
 28 29  1  0  0  0  0
 29 30  1  0  0  0  0
 30 31  2  0  0  0  0
 30 32  1  0  0  0  0
M  END
>  <MODEL>
1

>  <REMARK>
 VINA RESULT:      -6.8      0.000      0.000
  Name = 
  3 active torsions:
  status: ('A' for Active; 'I' for Inactive)
    1  A    between atoms: C_10  and  O_20
    2  A    between atoms: O_20  and  C_29
    3  A    between atoms: C_29  and  C_30
                            x       y       z     vdW  Elec       q    Type
                         _______ _______ _______ _____ _____    ______ ____

>  <TORSDO>
F 3

$$$$
=
 OpenBabel11122412533D

 32 37  0  0  1  0  0  0  0  0999 V2000
  160.0620  208.9110  156.4950 C   0  0  0  0  0  2  0  0  0  0  0  0
  161.5710  205.8610  152.5450 C   0  0  1  0  0  3  0  0  0  0  0  0
  161.7320  209.7590  149.3960 C   0  0  0  0  0  2  0  0  0  0  0  0
  162.1700  208.8500  148.4210 O   0  0  0  0  0  0  0  0  0  0  0  0
  161.3040  203.6180  151.4540 C   0  0  0  0  0  0  0  0  0  0  0  0
  161.1310  202.8650  150.3060 C   0  0  0  0  0  0  0  0  0  0  0  0
  160.4180  206.8130  154.5520 C   0  0  1  0  0  3  0  0  0  0  0  0
  162.3320  208.0440  153.4240 C   0  0  0  0  0  2  0  0  0  0  0  0
  160.9030  202.4780  148.1260 C   0  0  0  0  0  0  0  0  0  0  0  0
  161.2480  209.0160  155.5200 C   0  0  2  0  0  3  0  0  0  0  0  0
  162.1870  209.2800  150.7750 C   0  0  0  0  0  2  0  0  0  0  0  0
  162.0740  207.2050  152.2590 N   0  0  0  0  0  0  0  0  0  0  0  0
  161.9090  207.8040  150.9620 C   0  0  0  0  0  0  0  0  0  0  0  0
  161.4020  205.6110  150.0500 N   0  0  0  0  0  0  0  0  0  0  0  0
  160.8340  201.2840  148.7650 N   0  0  0  0  0  0  0  0  0  0  0  0
  158.8070  208.3460  155.8350 C   0  0  0  0  0  2  0  0  0  0  0  0
  161.0420  208.1870  154.2360 C   0  0  2  0  0  3  0  0  0  0  0  0
  160.9720  201.5100  150.0990 C   0  0  0  0  0  3  0  0  0  0  0  0
  159.0710  206.9430  155.2760 C   0  0  0  0  0  2  0  0  0  0  0  0
  161.3630  207.7060  148.5620 C   0  0  0  0  0  2  0  0  0  0  0  0
  161.5900  207.0360  149.9030 C   0  0  0  0  0  0  0  0  0  0  0  0
  161.2260  204.8600  148.9140 C   0  0  0  0  0  3  0  0  0  0  0  0
  160.2390  205.9790  153.2830 C   0  0  0  0  0  2  0  0  0  0  0  0
  161.3430  203.0080  152.7040 O   0  0  0  0  0  1  0  0  0  0  0  0
  160.7920  202.6340  146.6500 C   0  0  0  0  0  1  0  0  0  0  0  0
  161.4340  205.0210  151.3060 C   0  0  0  0  0  0  0  0  0  0  0  0
  161.0860  203.4890  149.0320 C   0  0  0  0  0  0  0  0  0  0  0  0
  162.4160  208.6290  156.1850 O   0  0  0  0  0  0  0  0  0  0  0  0
  162.5290  209.5110  157.2610 C   0  0  0  0  0  2  0  0  0  0  0  0
  162.8400  210.8750  156.7540 C   0  0  0  0  0  0  0  0  0  0  0  0
  163.9420  211.0750  155.9340 O   0  0  0  0  0  0  0  0  0  0  0  0
  162.1270  211.8530  157.0990 O   0  0  0  0  0  1  0  0  0  0  0  0
  2 23  1  6  0  0  0
  3 11  1  0  0  0  0
  4 20  1  0  0  0  0
  4  3  1  0  0  0  0
  5 24  1  0  0  0  0
  6  5  1  0  0  0  0
  7 23  1  6  0  0  0
  7 19  1  0  0  0  0
  9 15  2  0  0  0  0
  9 27  1  0  0  0  0
 10 28  1  1  0  0  0
 10  1  1  0  0  0  0
 11 13  1  0  0  0  0
 12  2  1  0  0  0  0
 12  8  1  0  0  0  0
 13 12  1  0  0  0  0
 14 26  1  0  0  0  0
 15 18  1  0  0  0  0
 16  1  1  0  0  0  0
 17  8  1  1  0  0  0
 17  7  1  0  0  0  0
 17 10  1  0  0  0  0
 18  6  2  0  0  0  0
 19 16  1  0  0  0  0
 20 21  1  0  0  0  0
 21 14  1  0  0  0  0
 21 13  2  0  0  0  0
 22 27  2  0  0  0  0
 22 14  1  0  0  0  0
 25  9  1  0  0  0  0
 26  5  2  0  0  0  0
 26  2  1  0  0  0  0
 27  6  1  0  0  0  0
 28 29  1  0  0  0  0
 30 32  1  0  0  0  0
 30 29  1  0  0  0  0
 31 30  2  0  0  0  0
M  END
>  <MODEL>
2

>  <REMARK>
 VINA RESULT:      -5.9      1.616      2.121
  Name = 
  3 active torsions:
  status: ('A' for Active; 'I' for Inactive)
    1  A    between atoms: C_10  and  O_20
    2  A    between atoms: O_20  and  C_29
    3  A    between atoms: C_29  and  C_30
                            x       y       z     vdW  Elec       q    Type
                         _______ _______ _______ _____ _____    ______ ____

>  <TORSDO>
F 3

$$$$
=
 OpenBabel11122412533D

 32 37  0  0  1  0  0  0  0  0999 V2000
  160.9430  209.1330  153.5220 C   0  0  0  0  0  2  0  0  0  0  0  0
  161.3970  212.4280  149.5080 C   0  0  1  0  0  3  0  0  0  0  0  0
  156.4860  213.4330  149.5800 C   0  0  0  0  0  2  0  0  0  0  0  0
  156.7340  214.3230  148.5240 O   0  0  0  0  0  0  0  0  0  0  0  0
  162.5440  212.8670  147.3200 C   0  0  0  0  0  0  0  0  0  0  0  0
  162.4710  213.2560  145.9940 C   0  0  0  0  0  0  0  0  0  0  0  0
  161.5870  210.4670  151.0500 C   0  0  1  0  0  3  0  0  0  0  0  0
  160.2560  212.5300  151.7000 C   0  0  0  0  0  2  0  0  0  0  0  0
  161.5070  213.9730  144.1200 C   0  0  0  0  0  0  0  0  0  0  0  0
  160.4920  210.5930  153.3450 C   0  0  2  0  0  3  0  0  0  0  0  0
  157.7290  213.3390  150.4650 C   0  0  0  0  0  2  0  0  0  0  0  0
  160.2290  212.8570  150.2790 N   0  0  0  0  0  0  0  0  0  0  0  0
  158.9820  213.1690  149.6340 C   0  0  0  0  0  0  0  0  0  0  0  0
  160.1520  213.3120  147.5110 N   0  0  0  0  0  0  0  0  0  0  0  0
  162.8230  213.7790  143.8580 N   0  0  0  0  0  0  0  0  0  0  0  0
  160.8250  208.3210  152.2340 C   0  0  0  0  0  2  0  0  0  0  0  0
  160.3980  211.0140  151.8650 C   0  0  2  0  0  3  0  0  0  0  0  0
  163.4210  213.3400  144.9970 C   0  0  0  0  0  3  0  0  0  0  0  0
  161.6800  208.9360  151.1220 C   0  0  0  0  0  2  0  0  0  0  0  0
  157.6090  213.6550  147.6480 C   0  0  0  0  0  2  0  0  0  0  0  0
  158.9490  213.3900  148.3060 C   0  0  0  0  0  0  0  0  0  0  0  0
  160.0830  213.6920  146.1930 C   0  0  0  0  0  3  0  0  0  0  0  0
  161.5110  210.9070  149.5880 C   0  0  0  0  0  2  0  0  0  0  0  0
  163.7530  212.4620  147.8760 O   0  0  0  0  0  1  0  0  0  0  0  0
  160.5230  214.4530  143.1110 C   0  0  0  0  0  1  0  0  0  0  0  0
  161.3480  212.8950  148.0790 C   0  0  0  0  0  0  0  0  0  0  0  0
  161.2350  213.6640  145.4270 C   0  0  0  0  0  0  0  0  0  0  0  0
  161.3690  211.4260  154.0480 O   0  0  0  0  0  0  0  0  0  0  0  0
  161.9300  210.6100  155.0320 C   0  0  0  0  0  2  0  0  0  0  0  0
  161.4610  211.0530  156.3720 C   0  0  0  0  0  0  0  0  0  0  0  0
  160.1140  210.9690  156.6990 O   0  0  0  0  0  0  0  0  0  0  0  0
  162.2780  211.5410  157.1960 O   0  0  0  0  0  1  0  0  0  0  0  0
  2 23  1  6  0  0  0
  2 12  1  0  0  0  0
  3 11  1  0  0  0  0
  4  3  1  0  0  0  0
  5 24  1  0  0  0  0
  5 26  2  0  0  0  0
  6  5  1  0  0  0  0
  7 23  1  6  0  0  0
  7 19  1  0  0  0  0
  7 17  1  0  0  0  0
  9 27  1  0  0  0  0
 10  1  1  0  0  0  0
 10 28  1  1  0  0  0
 12  8  1  0  0  0  0
 13 12  1  0  0  0  0
 13 11  1  0  0  0  0
 14 26  1  0  0  0  0
 14 21  1  0  0  0  0
 15  9  2  0  0  0  0
 15 18  1  0  0  0  0
 16  1  1  0  0  0  0
 17  8  1  1  0  0  0
 17 10  1  0  0  0  0
 18  6  2  0  0  0  0
 19 16  1  0  0  0  0
 20 21  1  0  0  0  0
 20  4  1  0  0  0  0
 21 13  2  0  0  0  0
 22 14  1  0  0  0  0
 25  9  1  0  0  0  0
 26  2  1  0  0  0  0
 27  6  1  0  0  0  0
 27 22  2  0  0  0  0
 28 29  1  0  0  0  0
 29 30  1  0  0  0  0
 30 31  2  0  0  0  0
 30 32  1  0  0  0  0
M  END
>  <MODEL>
3

>  <REMARK>
 VINA RESULT:      -5.5      4.187      7.217
  Name = 
  3 active torsions:
  status: ('A' for Active; 'I' for Inactive)
    1  A    between atoms: C_10  and  O_20
    2  A    between atoms: O_20  and  C_29
    3  A    between atoms: C_29  and  C_30
                            x       y       z     vdW  Elec       q    Type
                         _______ _______ _______ _____ _____    ______ ____

>  <TORSDO>
F 3

$$$$
=
 OpenBabel11122412533D

 32 37  0  0  1  0  0  0  0  0999 V2000
  160.7270  210.4000  156.1730 C   0  0  0  0  0  2  0  0  0  0  0  0
  161.9950  207.8990  151.7790 C   0  0  1  0  0  3  0  0  0  0  0  0
  161.7020  212.1290  149.1050 C   0  0  0  0  0  2  0  0  0  0  0  0
  162.0870  211.3600  147.9960 O   0  0  0  0  0  0  0  0  0  0  0  0
  161.7240  205.7810  150.4600 C   0  0  0  0  0  0  0  0  0  0  0  0
  161.4790  205.1550  149.2500 C   0  0  0  0  0  0  0  0  0  0  0  0
  160.9920  208.5560  153.9750 C   0  0  1  0  0  3  0  0  0  0  0  0
  162.7410  210.0060  152.8380 C   0  0  0  0  0  2  0  0  0  0  0  0
  161.0690  205.0040  147.0680 C   0  0  0  0  0  0  0  0  0  0  0  0
  161.8130  210.6770  155.1190 C   0  0  2  0  0  3  0  0  0  0  0  0
  162.3010  211.5230  150.3740 C   0  0  0  0  0  2  0  0  0  0  0  0
  162.4130  209.2910  151.6100 N   0  0  0  0  0  0  0  0  0  0  0  0
  162.1050  210.0230  150.4100 C   0  0  0  0  0  0  0  0  0  0  0  0
  161.6090  207.9230  149.2950 N   0  0  0  0  0  0  0  0  0  0  0  0
  161.1100  203.7440  147.5670 N   0  0  0  0  0  0  0  0  0  0  0  0
  159.4420  209.8480  155.5620 C   0  0  0  0  0  2  0  0  0  0  0  0
  161.5260  209.9880  153.7700 C   0  0  2  0  0  3  0  0  0  0  0  0
  161.3600  203.8260  148.9010 C   0  0  0  0  0  3  0  0  0  0  0  0
  159.7120  208.5330  154.8220 C   0  0  0  0  0  2  0  0  0  0  0  0
  161.3450  210.1680  148.0720 C   0  0  0  0  0  2  0  0  0  0  0  0
  161.7230  209.3630  149.3000 C   0  0  0  0  0  0  0  0  0  0  0  0
  161.3610  207.2970  148.0980 C   0  0  0  0  0  3  0  0  0  0  0  0
  160.7320  207.8620  152.6370 C   0  0  0  0  0  2  0  0  0  0  0  0
  161.9040  205.0380  151.6220 O   0  0  0  0  0  1  0  0  0  0  0  0
  160.8170  205.3200  145.6360 C   0  0  0  0  0  1  0  0  0  0  0  0
  161.7810  207.1970  150.4660 C   0  0  0  0  0  0  0  0  0  0  0  0
  161.2910  205.9160  148.0670 C   0  0  0  0  0  0  0  0  0  0  0  0
  163.0530  210.2790  155.6300 O   0  0  0  0  0  0  0  0  0  0  0  0
  163.3770  211.2470  156.5830 C   0  0  0  0  0  2  0  0  0  0  0  0
  164.7600  211.7360  156.3420 C   0  0  0  0  0  0  0  0  0  0  0  0
  165.3740  211.5090  155.1170 O   0  0  0  0  0  0  0  0  0  0  0  0
  165.3900  212.3230  157.2600 O   0  0  0  0  0  1  0  0  0  0  0  0
  2 23  1  1  0  0  0
  3 11  1  0  0  0  0
  4 20  1  0  0  0  0
  4  3  1  0  0  0  0
  5 26  2  0  0  0  0
  5 24  1  0  0  0  0
  6  5  1  0  0  0  0
  7 23  1  6  0  0  0
  7 19  1  0  0  0  0
  9 15  2  0  0  0  0
  9 27  1  0  0  0  0
 10 28  1  1  0  0  0
 10  1  1  0  0  0  0
 11 13  1  0  0  0  0
 12  2  1  0  0  0  0
 12  8  1  0  0  0  0
 13 12  1  0  0  0  0
 14 21  1  0  0  0  0
 14 26  1  0  0  0  0
 15 18  1  0  0  0  0
 16  1  1  0  0  0  0
 17  8  1  6  0  0  0
 17  7  1  0  0  0  0
 17 10  1  0  0  0  0
 18  6  2  0  0  0  0
 19 16  1  0  0  0  0
 20 21  1  0  0  0  0
 21 13  2  0  0  0  0
 22 14  1  0  0  0  0
 25  9  1  0  0  0  0
 26  2  1  0  0  0  0
 27 22  2  0  0  0  0
 27  6  1  0  0  0  0
 28 29  1  0  0  0  0
 30 29  1  0  0  0  0
 30 32  1  0  0  0  0
 31 30  2  0  0  0  0
M  END
>  <MODEL>
4

>  <REMARK>
 VINA RESULT:      -5.2      1.795      2.282
  Name = 
  3 active torsions:
  status: ('A' for Active; 'I' for Inactive)
    1  A    between atoms: C_10  and  O_20
    2  A    between atoms: O_20  and  C_29
    3  A    between atoms: C_29  and  C_30
                            x       y       z     vdW  Elec       q    Type
                         _______ _______ _______ _____ _____    ______ ____

>  <TORSDO>
F 3

$$$$
=
 OpenBabel11122412533D

 32 37  0  0  1  0  0  0  0  0999 V2000
  159.1370  213.2900  145.0040 C   0  0  0  0  0  2  0  0  0  0  0  0
  160.4340  212.7190  150.0210 C   0  0  1  0  0  3  0  0  0  0  0  0
  162.3250  208.1550  149.1710 C   0  0  0  0  0  2  0  0  0  0  0  0
  162.6620  208.1280  150.5330 O   0  0  0  0  0  0  0  0  0  0  0  0
  159.7450  213.1640  152.3920 C   0  0  0  0  0  0  0  0  0  0  0  0
  159.5870  212.7140  153.6910 C   0  0  0  0  0  0  0  0  0  0  0  0
  159.2400  213.2340  147.8830 C   0  0  1  0  0  3  0  0  0  0  0  0
  161.6090  212.3200  147.8820 C   0  0  0  0  0  2  0  0  0  0  0  0
  159.6840  211.2730  155.3850 C   0  0  0  0  0  0  0  0  0  0  0  0
  160.4680  212.9120  145.6770 C   0  0  2  0  0  3  0  0  0  0  0  0
  162.3450  209.5990  148.6730 C   0  0  0  0  0  2  0  0  0  0  0  0
  161.3500  211.8800  149.2480 N   0  0  0  0  0  0  0  0  0  0  0  0
  161.6210  210.5200  149.6310 C   0  0  0  0  0  0  0  0  0  0  0  0
  160.6870  210.9860  151.8240 N   0  0  0  0  0  0  0  0  0  0  0  0
  159.1500  212.4270  155.8560 N   0  0  0  0  0  0  0  0  0  0  0  0
  157.9250  212.7220  145.7390 C   0  0  0  0  0  2  0  0  0  0  0  0
  160.2840  212.3960  147.1190 C   0  0  2  0  0  3  0  0  0  0  0  0
  159.0860  213.3140  154.8280 C   0  0  0  0  0  3  0  0  0  0  0  0
  157.8740  213.2350  147.1820 C   0  0  0  0  0  2  0  0  0  0  0  0
  161.5460  208.6400  151.2210 C   0  0  0  0  0  2  0  0  0  0  0  0
  161.3050  210.0950  150.8690 C   0  0  0  0  0  0  0  0  0  0  0  0
  160.5250  210.5420  153.1130 C   0  0  0  0  0  3  0  0  0  0  0  0
  159.0760  212.7420  149.3220 C   0  0  0  0  0  2  0  0  0  0  0  0
  159.3620  214.4530  152.0360 O   0  0  0  0  0  1  0  0  0  0  0  0
  159.9120  210.0640  156.2230 C   0  0  0  0  0  1  0  0  0  0  0  0
  160.3020  212.2650  151.4490 C   0  0  0  0  0  0  0  0  0  0  0  0
  159.9730  211.3960  154.0510 C   0  0  0  0  0  0  0  0  0  0  0  0
  161.3220  214.0200  145.6470 O   0  0  0  0  0  0  0  0  0  0  0  0
  161.5610  214.2520  144.2910 C   0  0  0  0  0  2  0  0  0  0  0  0
  162.6210  213.3280  143.8080 C   0  0  0  0  0  0  0  0  0  0  0  0
  162.3570  212.4570  142.7590 O   0  0  0  0  0  0  0  0  0  0  0  0
  163.7450  213.3070  144.3730 O   0  0  0  0  0  1  0  0  0  0  0  0
  1 10  1  0  0  0  0
  1 16  1  0  0  0  0
  2 23  1  6  0  0  0
  2 26  1  0  0  0  0
  3  4  1  0  0  0  0
  4 20  1  0  0  0  0
  5  6  1  0  0  0  0
  6 27  1  0  0  0  0
  6 18  2  0  0  0  0
  7 19  1  6  0  0  0
  7 23  1  0  0  0  0
  8 12  1  0  0  0  0
  9 15  2  0  0  0  0
  9 25  1  0  0  0  0
 10 28  1  1  0  0  0
 10 17  1  0  0  0  0
 11  3  1  0  0  0  0
 11 13  1  0  0  0  0
 12 13  1  0  0  0  0
 12  2  1  0  0  0  0
 13 21  2  0  0  0  0
 14 22  1  0  0  0  0
 16 19  1  0  0  0  0
 17  8  1  1  0  0  0
 17  7  1  0  0  0  0
 18 15  1  0  0  0  0
 21 20  1  0  0  0  0
 21 14  1  0  0  0  0
 22 27  2  0  0  0  0
 24  5  1  0  0  0  0
 26 14  1  0  0  0  0
 26  5  2  0  0  0  0
 27  9  1  0  0  0  0
 29 28  1  0  0  0  0
 30 29  1  0  0  0  0
 30 32  1  0  0  0  0
 31 30  2  0  0  0  0
M  END
>  <MODEL>
5

>  <REMARK>
 VINA RESULT:      -5.0      3.693      8.541
  Name = 
  3 active torsions:
  status: ('A' for Active; 'I' for Inactive)
    1  A    between atoms: C_10  and  O_20
    2  A    between atoms: O_20  and  C_29
    3  A    between atoms: C_29  and  C_30
                            x       y       z     vdW  Elec       q    Type
                         _______ _______ _______ _____ _____    ______ ____

>  <TORSDO>
F 3

$$$$
=
 OpenBabel11122412533D

 32 37  0  0  1  0  0  0  0  0999 V2000
  163.1040  213.2770  141.2350 C   0  0  0  0  0  2  0  0  0  0  0  0
  160.7540  212.3640  145.7980 C   0  0  1  0  0  3  0  0  0  0  0  0
  156.4880  214.4510  144.1920 C   0  0  0  0  0  2  0  0  0  0  0  0
  155.9480  214.1210  145.4450 O   0  0  0  0  0  0  0  0  0  0  0  0
  161.0410  212.3040  148.2900 C   0  0  0  0  0  0  0  0  0  0  0  0
  160.5690  212.6230  149.5510 C   0  0  0  0  0  0  0  0  0  0  0  0
  162.3890  212.9940  144.0120 C   0  0  1  0  0  3  0  0  0  0  0  0
  160.1100  212.0370  143.4320 C   0  0  0  0  0  2  0  0  0  0  0  0
  159.1590  213.4520  151.0610 C   0  0  0  0  0  0  0  0  0  0  0  0
  161.7750  212.5820  141.5770 C   0  0  2  0  0  3  0  0  0  0  0  0
  157.5680  213.4350  143.8220 C   0  0  0  0  0  2  0  0  0  0  0  0
  159.7020  212.4130  144.7810 N   0  0  0  0  0  0  0  0  0  0  0  0
  158.5020  213.1790  144.9850 C   0  0  0  0  0  0  0  0  0  0  0  0
  159.0110  213.2870  147.3570 N   0  0  0  0  0  0  0  0  0  0  0  0
  160.2220  212.9400  151.7280 N   0  0  0  0  0  0  0  0  0  0  0  0
  163.4080  214.4530  142.1610 C   0  0  0  0  0  2  0  0  0  0  0  0
  161.2480  212.9550  142.9770 C   0  0  2  0  0  3  0  0  0  0  0  0
  161.0900  212.4310  150.8140 C   0  0  0  0  0  3  0  0  0  0  0  0
  163.4910  213.9900  143.6200 C   0  0  0  0  0  2  0  0  0  0  0  0
  156.9330  214.4520  146.3930 C   0  0  0  0  0  2  0  0  0  0  0  0
  158.1710  213.5940  146.2220 C   0  0  0  0  0  0  0  0  0  0  0  0
  158.5490  213.6070  148.6100 C   0  0  0  0  0  3  0  0  0  0  0  0
  161.8650  213.3370  145.4070 C   0  0  0  0  0  2  0  0  0  0  0  0
  162.2650  211.6630  148.1300 O   0  0  0  0  0  1  0  0  0  0  0  0
  157.9960  214.0980  151.7280 C   0  0  0  0  0  1  0  0  0  0  0  0
  160.2350  212.6570  147.1790 C   0  0  0  0  0  0  0  0  0  0  0  0
  159.3220  213.2830  149.7110 C   0  0  0  0  0  0  0  0  0  0  0  0
  161.9440  211.1990  141.4570 O   0  0  0  0  0  0  0  0  0  0  0  0
  162.2400  210.9870  140.1090 C   0  0  0  0  0  2  0  0  0  0  0  0
  161.6490  209.6960  139.6670 C   0  0  0  0  0  0  0  0  0  0  0  0
  160.4800  209.6880  138.9170 O   0  0  0  0  0  0  0  0  0  0  0  0
  162.1850  208.6090  140.0050 O   0  0  0  0  0  1  0  0  0  0  0  0
  1 10  1  0  0  0  0
  1 16  1  0  0  0  0
  2 23  1  6  0  0  0
  2 26  1  0  0  0  0
  3  4  1  0  0  0  0
  4 20  1  0  0  0  0
  5  6  1  0  0  0  0
  6 27  1  0  0  0  0
  6 18  2  0  0  0  0
  7 19  1  6  0  0  0
  7 23  1  0  0  0  0
  8 12  1  0  0  0  0
  9 25  1  0  0  0  0
  9 15  2  0  0  0  0
 10 28  1  1  0  0  0
 10 17  1  0  0  0  0
 11  3  1  0  0  0  0
 11 13  1  0  0  0  0
 12 13  1  0  0  0  0
 12  2  1  0  0  0  0
 13 21  2  0  0  0  0
 14 22  1  0  0  0  0
 16 19  1  0  0  0  0
 17  8  1  1  0  0  0
 17  7  1  0  0  0  0
 18 15  1  0  0  0  0
 21 20  1  0  0  0  0
 21 14  1  0  0  0  0
 22 27  2  0  0  0  0
 24  5  1  0  0  0  0
 26 14  1  0  0  0  0
 26  5  2  0  0  0  0
 27  9  1  0  0  0  0
 29 28  1  0  0  0  0
 30 32  1  0  0  0  0
 30 29  1  0  0  0  0
 31 30  2  0  0  0  0
M  END
>  <MODEL>
6

>  <REMARK>
 VINA RESULT:      -3.8      6.462     11.354
  Name = 
  3 active torsions:
  status: ('A' for Active; 'I' for Inactive)
    1  A    between atoms: C_10  and  O_20
    2  A    between atoms: O_20  and  C_29
    3  A    between atoms: C_29  and  C_30
                            x       y       z     vdW  Elec       q    Type
                         _______ _______ _______ _____ _____    ______ ____

>  <TORSDO>
F 3

$$$$
