=
 OpenBabel11122414073D

 28 32  0  0  1  0  0  0  0  0999 V2000
  160.7950  207.8830  155.0210 C   0  0  0  0  0  0  0  0  0  0  0  0
  158.1190  211.2590  153.9140 O   0  0  0  0  0  0  0  0  0  0  0  0
  162.4820  207.4970  148.8160 C   0  0  0  0  0  1  0  0  0  0  0  0
  161.5970  209.8550  156.8070 C   0  0  0  0  0  3  0  0  0  0  0  0
  162.3240  209.8960  149.7440 C   0  0  2  0  0  3  0  0  0  0  0  0
  160.4710  206.7490  154.1290 C   0  0  0  0  0  2  0  0  0  0  0  0
  160.0220  212.5810  154.7780 O   0  0  0  0  0  0  0  0  0  0  0  0
  159.3980  211.9620  153.5600 S   0  0  0  0  0  0  0  0  0  0  0  0
  159.8190  213.3080  151.1470 C   0  0  0  0  0  0  0  0  0  0  0  0
  160.4890  210.8650  152.7640 C   0  0  0  0  0  0  0  0  0  0  0  0
  162.6670  205.2080  151.5710 C   0  0  0  0  0  1  0  0  0  0  0  0
  161.7210  209.1850  151.9780 C   0  0  0  0  0  0  0  0  0  0  0  0
  160.7270  212.4460  150.7760 N   0  0  0  0  0  0  0  0  0  0  0  0
  159.0890  213.1930  152.3830 N   0  0  0  0  0  2  0  0  0  0  0  0
  161.4170  205.7930  152.2030 C   0  0  2  0  0  3  0  0  0  0  0  0
  161.0030  209.1950  154.5330 C   0  0  0  0  0  0  0  0  0  0  0  0
  162.2340  208.4470  149.8880 N   0  0  0  0  0  0  0  0  0  0  0  0
  159.5150  214.4530  150.2500 C   0  0  0  0  0  1  0  0  0  0  0  0
  160.8340  206.9170  151.3460 C   0  0  0  0  0  2  0  0  0  0  0  0
  161.4230  210.1630  155.4600 C   0  0  0  0  0  3  0  0  0  0  0  0
  160.9790  207.6070  156.3410 N   0  0  0  0  0  0  0  0  0  0  0  0
  161.3620  208.5540  157.2350 C   0  0  0  0  0  3  0  0  0  0  0  0
  161.7080  206.2490  153.5510 N   0  0  0  0  0  2  0  0  0  0  0  0
  161.9140  210.3200  151.1140 C   0  0  0  0  0  0  0  0  0  0  0  0
  161.7380  208.1030  151.1890 C   0  0  2  0  0  3  0  0  0  0  0  0
  161.1140  211.2890  151.5270 C   0  0  0  0  0  0  0  0  0  0  0  0
  161.3370  210.3650  148.6820 C   0  0  0  0  0  1  0  0  0  0  0  0
  160.8470  209.6110  153.1010 C   0  0  1  0  0  3  0  0  0  0  0  0
  1 21  1  0  0  0  0
  3 17  1  0  0  0  0
  4 22  1  0  0  0  0
  5 27  1  6  0  0  0
  5 17  1  0  0  0  0
  5 24  1  0  0  0  0
  6  1  1  0  0  0  0
  8  2  2  0  0  0  0
  8  7  2  0  0  0  0
  9 14  1  0  0  0  0
 10 28  1  0  0  0  0
 10  8  1  0  0  0  0
 13  9  2  0  0  0  0
 13 26  1  0  0  0  0
 14  8  1  0  0  0  0
 15 11  1  6  0  0  0
 15 23  1  0  0  0  0
 16  1  2  0  0  0  0
 16 20  1  0  0  0  0
 17 25  1  0  0  0  0
 18  9  1  0  0  0  0
 19 15  1  0  0  0  0
 20  4  2  0  0  0  0
 21 22  2  0  0  0  0
 23  6  1  0  0  0  0
 24 26  1  0  0  0  0
 24 12  2  0  0  0  0
 25 19  1  6  0  0  0
 25 12  1  0  0  0  0
 26 10  2  0  0  0  0
 28 12  1  6  0  0  0
 28 16  1  0  0  0  0
M  END
>  <MODEL>
1

>  <REMARK>
 VINA RESULT:      -5.9      0.000      0.000
  Name = 
  0 active torsions:
  status: ('A' for Active; 'I' for Inactive)
                            x       y       z     vdW  Elec       q    Type
                         _______ _______ _______ _____ _____    ______ ____

>  <TORSDO>
F 0

$$$$
=
 OpenBabel11122414073D

 28 32  0  0  1  0  0  0  0  0999 V2000
  161.8220  210.9800  149.9320 C   0  0  0  0  0  0  0  0  0  0  0  0
  163.1480  210.8140  154.1750 O   0  0  0  0  0  0  0  0  0  0  0  0
  161.3640  204.5570  150.0730 C   0  0  0  0  0  1  0  0  0  0  0  0
  160.0720  212.7650  151.1470 C   0  0  0  0  0  3  0  0  0  0  0  0
  160.4560  205.7490  152.1700 C   0  0  2  0  0  3  0  0  0  0  0  0
  162.6830  210.0580  149.1620 C   0  0  0  0  0  2  0  0  0  0  0  0
  160.7790  211.4070  154.5650 O   0  0  0  0  0  0  0  0  0  0  0  0
  161.7670  210.2830  154.4310 S   0  0  0  0  0  0  0  0  0  0  0  0
  161.2340  207.9940  155.9430 C   0  0  0  0  0  0  0  0  0  0  0  0
  161.3080  209.1670  153.1780 C   0  0  0  0  0  0  0  0  0  0  0  0
  161.6490  206.9540  147.4190 C   0  0  0  0  0  1  0  0  0  0  0  0
  160.9400  207.9710  151.3360 C   0  0  0  0  0  0  0  0  0  0  0  0
  160.7890  207.3550  154.8950 N   0  0  0  0  0  0  0  0  0  0  0  0
  161.7580  209.3340  155.8780 N   0  0  0  0  0  2  0  0  0  0  0  0
  162.4730  207.8870  148.2880 C   0  0  2  0  0  3  0  0  0  0  0  0
  161.2070  210.6050  151.1510 C   0  0  0  0  0  0  0  0  0  0  0  0
  161.0670  205.7530  150.8450 N   0  0  0  0  0  0  0  0  0  0  0  0
  161.2110  207.3060  157.2600 C   0  0  0  0  0  1  0  0  0  0  0  0
  162.7060  207.2940  149.6770 C   0  0  0  0  0  2  0  0  0  0  0  0
  160.3160  211.5240  151.7280 C   0  0  0  0  0  3  0  0  0  0  0  0
  161.5600  212.1970  149.3820 N   0  0  0  0  0  0  0  0  0  0  0  0
  160.7170  213.0910  149.9590 C   0  0  0  0  0  3  0  0  0  0  0  0
  161.8310  209.1880  148.3670 N   0  0  0  0  0  2  0  0  0  0  0  0
  160.4630  207.2120  152.4630 C   0  0  0  0  0  0  0  0  0  0  0  0
  161.4540  207.0830  150.4750 C   0  0  2  0  0  3  0  0  0  0  0  0
  160.7630  207.8810  153.5630 C   0  0  2  0  0  3  0  0  0  0  0  0
  161.3380  204.9690  153.1360 C   0  0  0  0  0  1  0  0  0  0  0  0
  161.4070  209.2870  151.8390 C   0  0  0  0  0  0  0  0  0  0  0  0
  1 16  1  0  0  0  0
  2  8  2  0  0  0  0
  3 17  1  0  0  0  0
  4 20  1  0  0  0  0
  5 24  1  0  0  0  0
  5 27  1  1  0  0  0
  6  1  1  0  0  0  0
  8  7  2  0  0  0  0
  8 14  1  0  0  0  0
  9 18  1  0  0  0  0
 10 26  1  0  0  0  0
 10  8  1  0  0  0  0
 12 28  1  0  0  0  0
 12 24  2  0  0  0  0
 13  9  2  0  0  0  0
 14  9  1  0  0  0  0
 15 11  1  6  0  0  0
 15 23  1  0  0  0  0
 15 19  1  0  0  0  0
 16 20  2  0  0  0  0
 16 28  1  0  0  0  0
 17  5  1  0  0  0  0
 21  1  2  0  0  0  0
 21 22  1  0  0  0  0
 22  4  2  0  0  0  0
 23  6  1  0  0  0  0
 25 19  1  1  0  0  0
 25 17  1  0  0  0  0
 25 12  1  0  0  0  0
 26 24  1  6  0  0  0
 26 13  1  0  0  0  0
 28 10  2  0  0  0  0
M  END
>  <MODEL>
2

>  <REMARK>
 VINA RESULT:      -4.9      1.682      5.293
  Name = 
  0 active torsions:
  status: ('A' for Active; 'I' for Inactive)
                            x       y       z     vdW  Elec       q    Type
                         _______ _______ _______ _____ _____    ______ ____

>  <TORSDO>
F 0

$$$$
=
 OpenBabel11122414073D

 28 32  0  0  1  0  0  0  0  0999 V2000
  161.1340  208.4580  154.6060 C   0  0  0  0  0  0  0  0  0  0  0  0
  163.4960  210.3370  151.3380 O   0  0  0  0  0  0  0  0  0  0  0  0
  157.7830  213.9440  155.0160 C   0  0  0  0  0  1  0  0  0  0  0  0
  160.9170  206.5640  152.5840 C   0  0  0  0  0  3  0  0  0  0  0  0
  158.2620  213.1490  152.6110 C   0  0  2  0  0  3  0  0  0  0  0  0
  161.1660  209.3790  155.7620 C   0  0  0  0  0  2  0  0  0  0  0  0
  161.9470  209.0100  149.9400 O   0  0  0  0  0  0  0  0  0  0  0  0
  162.1900  210.3390  150.5970 S   0  0  0  0  0  0  0  0  0  0  0  0
  161.1550  212.5700  149.2690 C   0  0  0  0  0  0  0  0  0  0  0  0
  160.8900  210.7780  151.6650 C   0  0  0  0  0  0  0  0  0  0  0  0
  158.3020  211.1940  157.2610 C   0  0  0  0  0  1  0  0  0  0  0  0
  159.4400  211.1530  153.3130 C   0  0  0  0  0  0  0  0  0  0  0  0
  160.1560  212.6560  150.1040 N   0  0  0  0  0  0  0  0  0  0  0  0
  162.1960  211.5830  149.3920 N   0  0  0  0  0  2  0  0  0  0  0  0
  159.6940  210.9470  156.7110 C   0  0  2  0  0  3  0  0  0  0  0  0
  160.8380  208.8980  153.2930 C   0  0  0  0  0  0  0  0  0  0  0  0
  158.3460  213.0030  154.0610 N   0  0  0  0  0  0  0  0  0  0  0  0
  161.2320  213.5420  148.1470 C   0  0  0  0  0  1  0  0  0  0  0  0
  160.0490  211.9560  155.6190 C   0  0  0  0  0  2  0  0  0  0  0  0
  160.7200  207.9130  152.3000 C   0  0  0  0  0  3  0  0  0  0  0  0
  161.3160  207.1330  154.8570 N   0  0  0  0  0  0  0  0  0  0  0  0
  161.2240  206.1890  153.8860 C   0  0  0  0  0  3  0  0  0  0  0  0
  159.8030  209.5810  156.2270 N   0  0  0  0  0  2  0  0  0  0  0  0
  159.0480  211.9560  152.1840 C   0  0  0  0  0  0  0  0  0  0  0  0
  159.1720  211.8830  154.4050 C   0  0  2  0  0  3  0  0  0  0  0  0
  159.9590  211.8020  151.2380 C   0  0  0  0  0  0  0  0  0  0  0  0
  158.9280  214.4530  152.1910 C   0  0  0  0  0  1  0  0  0  0  0  0
  160.6020  210.3260  152.9020 C   0  0  1  0  0  3  0  0  0  0  0  0
  1 21  1  0  0  0  0
  1  6  1  0  0  0  0
  4 22  1  0  0  0  0
  5 27  1  1  0  0  0
  5 17  1  0  0  0  0
  6 23  1  0  0  0  0
  7  8  2  0  0  0  0
  8  2  2  0  0  0  0
  8 10  1  0  0  0  0
  9 14  1  0  0  0  0
  9 13  2  0  0  0  0
 12 25  1  0  0  0  0
 13 26  1  0  0  0  0
 14  8  1  0  0  0  0
 15 11  1  6  0  0  0
 16  1  2  0  0  0  0
 17 25  1  0  0  0  0
 17  3  1  0  0  0  0
 18  9  1  0  0  0  0
 19 15  1  0  0  0  0
 20  4  2  0  0  0  0
 20 16  1  0  0  0  0
 22 21  2  0  0  0  0
 23 15  1  0  0  0  0
 24  5  1  0  0  0  0
 24 12  2  0  0  0  0
 25 19  1  6  0  0  0
 26 10  2  0  0  0  0
 26 24  1  0  0  0  0
 28 10  1  6  0  0  0
 28 16  1  0  0  0  0
 28 12  1  0  0  0  0
M  END
>  <MODEL>
3

>  <REMARK>
 VINA RESULT:      -4.8      2.554      4.980
  Name = 
  0 active torsions:
  status: ('A' for Active; 'I' for Inactive)
                            x       y       z     vdW  Elec       q    Type
                         _______ _______ _______ _____ _____    ______ ____

>  <TORSDO>
F 0

$$$$
=
 OpenBabel11122414073D

 28 32  0  0  1  0  0  0  0  0999 V2000
  161.4030  204.1440  146.5780 C   0  0  0  0  0  0  0  0  0  0  0  0
  163.5940  207.7240  148.0500 O   0  0  0  0  0  0  0  0  0  0  0  0
  160.5450  202.4340  152.7290 C   0  0  0  0  0  1  0  0  0  0  0  0
  160.0810  206.2030  145.2610 C   0  0  0  0  0  3  0  0  0  0  0  0
  160.1930  204.9420  152.2470 C   0  0  2  0  0  3  0  0  0  0  0  0
  162.0130  202.9580  147.2150 C   0  0  0  0  0  2  0  0  0  0  0  0
  161.4110  208.7990  147.6120 O   0  0  0  0  0  0  0  0  0  0  0  0
  162.2670  208.1110  148.6370 S   0  0  0  0  0  0  0  0  0  0  0  0
  161.9150  208.9400  151.2830 C   0  0  0  0  0  0  0  0  0  0  0  0
  161.4740  206.7170  149.3090 C   0  0  0  0  0  0  0  0  0  0  0  0
  160.4180  200.6380  149.6270 C   0  0  0  0  0  1  0  0  0  0  0  0
  160.6380  204.7330  149.8760 C   0  0  0  0  0  0  0  0  0  0  0  0
  161.2130  207.8760  151.5660 N   0  0  0  0  0  0  0  0  0  0  0  0
  162.5040  209.1670  149.9880 N   0  0  0  0  0  2  0  0  0  0  0  0
  161.4710  201.5390  149.0080 C   0  0  2  0  0  3  0  0  0  0  0  0
  161.0390  205.2970  147.3140 C   0  0  0  0  0  0  0  0  0  0  0  0
  160.5040  203.5780  151.8320 N   0  0  0  0  0  0  0  0  0  0  0  0
  162.1290  209.9570  152.3450 C   0  0  0  0  0  1  0  0  0  0  0  0
  161.9560  202.5930  150.0020 C   0  0  0  0  0  2  0  0  0  0  0  0
  160.3590  206.3110  146.6200 C   0  0  0  0  0  3  0  0  0  0  0  0
  161.1130  204.0620  145.2510 N   0  0  0  0  0  0  0  0  0  0  0  0
  160.4770  205.0570  144.5820 C   0  0  0  0  0  3  0  0  0  0  0  0
  160.9520  202.1500  147.7970 N   0  0  0  0  0  2  0  0  0  0  0  0
  160.3630  205.6540  150.9480 C   0  0  0  0  0  0  0  0  0  0  0  0
  160.8930  203.5500  150.4520 C   0  0  2  0  0  3  0  0  0  0  0  0
  160.9370  206.8080  150.6520 C   0  0  2  0  0  3  0  0  0  0  0  0
  161.2060  205.4010  153.2880 C   0  0  0  0  0  1  0  0  0  0  0  0
  161.2910  205.4920  148.7800 C   0  0  0  0  0  0  0  0  0  0  0  0
  1  6  1  0  0  0  0
  1 16  1  0  0  0  0
  2  8  2  0  0  0  0
  4 20  1  0  0  0  0
  5 27  1  1  0  0  0
  6 23  1  0  0  0  0
  7  8  2  0  0  0  0
  8 10  1  0  0  0  0
  8 14  1  0  0  0  0
  9 13  2  0  0  0  0
  9 18  1  0  0  0  0
 12 25  1  0  0  0  0
 12 24  2  0  0  0  0
 14  9  1  0  0  0  0
 15 11  1  1  0  0  0
 15 19  1  0  0  0  0
 16 28  1  0  0  0  0
 17  5  1  0  0  0  0
 17  3  1  0  0  0  0
 20 16  2  0  0  0  0
 21  1  2  0  0  0  0
 22 21  1  0  0  0  0
 22  4  2  0  0  0  0
 23 15  1  0  0  0  0
 24  5  1  0  0  0  0
 25 19  1  1  0  0  0
 25 17  1  0  0  0  0
 26 10  1  1  0  0  0
 26 24  1  0  0  0  0
 26 13  1  0  0  0  0
 28 10  2  0  0  0  0
 28 12  1  0  0  0  0
M  END
>  <MODEL>
4

>  <REMARK>
 VINA RESULT:      -4.4      4.207      7.359
  Name = 
  0 active torsions:
  status: ('A' for Active; 'I' for Inactive)
                            x       y       z     vdW  Elec       q    Type
                         _______ _______ _______ _____ _____    ______ ____

>  <TORSDO>
F 0

$$$$
=
 OpenBabel11122414073D

 28 32  0  0  1  0  0  0  0  0999 V2000
  159.7140  212.9580  151.9350 C   0  0  0  0  0  0  0  0  0  0  0  0
  160.8290  211.7240  156.0600 O   0  0  0  0  0  0  0  0  0  0  0  0
  162.6420  207.6300  149.8050 C   0  0  0  0  0  1  0  0  0  0  0  0
  157.2630  213.0580  153.2410 C   0  0  0  0  0  3  0  0  0  0  0  0
  161.1960  207.2980  151.9140 C   0  0  2  0  0  3  0  0  0  0  0  0
  160.9470  212.9440  151.1190 C   0  0  0  0  0  2  0  0  0  0  0  0
  158.4860  210.9320  156.0720 O   0  0  0  0  0  0  0  0  0  0  0  0
  159.9160  210.5600  155.7990 S   0  0  0  0  0  0  0  0  0  0  0  0
  160.6070  207.8980  156.2920 C   0  0  0  0  0  0  0  0  0  0  0  0
  160.1320  209.9760  154.1750 C   0  0  0  0  0  0  0  0  0  0  0  0
  161.7110  210.7260  148.2490 C   0  0  0  0  0  1  0  0  0  0  0  0
  160.4820  209.6100  152.0070 C   0  0  0  0  0  0  0  0  0  0  0  0
  160.5830  207.6120  155.0180 N   0  0  0  0  0  0  0  0  0  0  0  0
  160.3640  209.2220  156.8020 N   0  0  0  0  0  2  0  0  0  0  0  0
  161.9120  211.4910  149.5440 C   0  0  2  0  0  3  0  0  0  0  0  0
  159.3520  211.8830  152.7810 C   0  0  0  0  0  0  0  0  0  0  0  0
  161.7500  208.1220  150.8440 N   0  0  0  0  0  0  0  0  0  0  0  0
  160.9110  206.8120  157.2610 C   0  0  0  0  0  1  0  0  0  0  0  0
  162.3840  210.5700  150.6690 C   0  0  0  0  0  2  0  0  0  0  0  0
  158.1000  211.9590  153.4130 C   0  0  0  0  0  3  0  0  0  0  0  0
  158.8740  214.0180  151.7800 N   0  0  0  0  0  0  0  0  0  0  0  0
  157.6760  214.0950  152.4130 C   0  0  0  0  0  3  0  0  0  0  0  0
  160.6880  212.1850  149.9060 N   0  0  0  0  0  2  0  0  0  0  0  0
  160.4380  208.3340  152.6730 C   0  0  0  0  0  0  0  0  0  0  0  0
  161.4020  209.4990  151.0400 C   0  0  2  0  0  3  0  0  0  0  0  0
  160.3210  208.5540  153.9720 C   0  0  2  0  0  3  0  0  0  0  0  0
  162.3310  206.7010  152.7370 C   0  0  0  0  0  1  0  0  0  0  0  0
  160.1870  210.6590  153.0150 C   0  0  0  0  0  0  0  0  0  0  0  0
  1 16  1  0  0  0  0
  3 17  1  0  0  0  0
  4 20  1  0  0  0  0
  5 24  1  0  0  0  0
  5 27  1  1  0  0  0
  6  1  1  0  0  0  0
  8  2  2  0  0  0  0
  8  7  2  0  0  0  0
  8 14  1  0  0  0  0
  9 14  1  0  0  0  0
  9 18  1  0  0  0  0
 10  8  1  0  0  0  0
 12 24  2  0  0  0  0
 12 28  1  0  0  0  0
 13  9  2  0  0  0  0
 15 11  1  6  0  0  0
 15 23  1  0  0  0  0
 15 19  1  0  0  0  0
 16 28  1  0  0  0  0
 16 20  2  0  0  0  0
 17 25  1  0  0  0  0
 17  5  1  0  0  0  0
 21  1  2  0  0  0  0
 21 22  1  0  0  0  0
 22  4  2  0  0  0  0
 23  6  1  0  0  0  0
 25 19  1  1  0  0  0
 25 12  1  0  0  0  0
 26 24  1  6  0  0  0
 26 10  1  0  0  0  0
 26 13  1  0  0  0  0
 28 10  2  0  0  0  0
M  END
>  <MODEL>
5

>  <REMARK>
 VINA RESULT:      -4.2      1.603      5.299
  Name = 
  0 active torsions:
  status: ('A' for Active; 'I' for Inactive)
                            x       y       z     vdW  Elec       q    Type
                         _______ _______ _______ _____ _____    ______ ____

>  <TORSDO>
F 0

$$$$
=
 OpenBabel11122414073D

 28 32  0  0  1  0  0  0  0  0999 V2000
  161.0000  212.6750  148.8380 C   0  0  0  0  0  0  0  0  0  0  0  0
  160.8070  208.3000  148.0570 O   0  0  0  0  0  0  0  0  0  0  0  0
  159.5130  211.4030  154.9760 C   0  0  0  0  0  1  0  0  0  0  0  0
  163.4560  212.2030  147.6270 C   0  0  0  0  0  3  0  0  0  0  0  0
  161.2390  209.8010  153.9290 C   0  0  2  0  0  3  0  0  0  0  0  0
  159.7350  213.0640  149.4960 C   0  0  0  0  0  2  0  0  0  0  0  0
  163.2620  208.5170  148.2630 O   0  0  0  0  0  0  0  0  0  0  0  0
  161.9800  208.2320  148.9930 S   0  0  0  0  0  0  0  0  0  0  0  0
  162.1610  206.4490  151.1370 C   0  0  0  0  0  0  0  0  0  0  0  0
  161.7470  209.3140  150.3340 C   0  0  0  0  0  0  0  0  0  0  0  0
  159.3030  214.3530  152.9450 C   0  0  0  0  0  1  0  0  0  0  0  0
  161.2550  210.9290  151.7870 C   0  0  0  0  0  0  0  0  0  0  0  0
  162.1100  207.4230  152.0050 N   0  0  0  0  0  0  0  0  0  0  0  0
  162.0680  206.6610  149.7160 N   0  0  0  0  0  2  0  0  0  0  0  0
  159.0490  213.5310  151.6940 C   0  0  2  0  0  3  0  0  0  0  0  0
  161.7600  211.5570  149.2580 C   0  0  0  0  0  0  0  0  0  0  0  0
  160.3430  210.9500  153.8710 N   0  0  0  0  0  0  0  0  0  0  0  0
  162.3070  205.0560  151.6360 C   0  0  0  0  0  1  0  0  0  0  0  0
  159.0070  212.0360  152.0100 C   0  0  0  0  0  2  0  0  0  0  0  0
  163.0030  211.3580  148.6360 C   0  0  0  0  0  3  0  0  0  0  0  0
  161.4690  213.4890  147.8540 N   0  0  0  0  0  0  0  0  0  0  0  0
  162.6610  213.2760  147.2400 C   0  0  0  0  0  3  0  0  0  0  0  0
  160.0520  213.8330  150.6880 N   0  0  0  0  0  2  0  0  0  0  0  0
  161.7500  209.7970  152.5280 C   0  0  0  0  0  0  0  0  0  0  0  0
  160.2960  211.4820  152.5400 C   0  0  2  0  0  3  0  0  0  0  0  0
  161.9560  208.8080  151.6750 C   0  0  2  0  0  3  0  0  0  0  0  0
  160.4370  208.5450  154.2480 C   0  0  0  0  0  1  0  0  0  0  0  0
  161.3530  210.6030  150.3410 C   0  0  0  0  0  0  0  0  0  0  0  0
  1 16  1  0  0  0  0
  1  6  1  0  0  0  0
  2  8  2  0  0  0  0
  4 20  1  0  0  0  0
  5 27  1  6  0  0  0
  6 23  1  0  0  0  0
  7  8  2  0  0  0  0
  8 14  1  0  0  0  0
  8 10  1  0  0  0  0
  9 18  1  0  0  0  0
  9 13  2  0  0  0  0
 10 28  2  0  0  0  0
 12 24  2  0  0  0  0
 12 25  1  0  0  0  0
 14  9  1  0  0  0  0
 15 19  1  0  0  0  0
 15 11  1  1  0  0  0
 16 28  1  0  0  0  0
 17  5  1  0  0  0  0
 17  3  1  0  0  0  0
 20 16  2  0  0  0  0
 21  1  2  0  0  0  0
 22  4  2  0  0  0  0
 22 21  1  0  0  0  0
 23 15  1  0  0  0  0
 24  5  1  0  0  0  0
 25 19  1  6  0  0  0
 25 17  1  0  0  0  0
 26 10  1  6  0  0  0
 26 13  1  0  0  0  0
 26 24  1  0  0  0  0
 28 12  1  0  0  0  0
M  END
>  <MODEL>
6

>  <REMARK>
 VINA RESULT:      -3.8      2.943      7.020
  Name = 
  0 active torsions:
  status: ('A' for Active; 'I' for Inactive)
                            x       y       z     vdW  Elec       q    Type
                         _______ _______ _______ _____ _____    ______ ____

>  <TORSDO>
F 0

$$$$
=
 OpenBabel11122414073D

 28 32  0  0  1  0  0  0  0  0999 V2000
  161.7550  206.7760  152.4860 C   0  0  0  0  0  0  0  0  0  0  0  0
  163.3080  210.2860  150.2390 O   0  0  0  0  0  0  0  0  0  0  0  0
  158.8710  210.9170  156.4900 C   0  0  0  0  0  1  0  0  0  0  0  0
  160.9510  206.1920  149.8910 C   0  0  0  0  0  3  0  0  0  0  0  0
  158.6950  211.5310  153.9930 C   0  0  2  0  0  3  0  0  0  0  0  0
  162.1170  206.9640  153.9070 C   0  0  0  0  0  2  0  0  0  0  0  0
  161.3990  209.7370  148.7660 O   0  0  0  0  0  0  0  0  0  0  0  0
  161.8590  210.5500  149.9420 S   0  0  0  0  0  0  0  0  0  0  0  0
  160.6300  213.0380  150.2690 C   0  0  0  0  0  0  0  0  0  0  0  0
  160.8900  210.2480  151.3540 C   0  0  0  0  0  0  0  0  0  0  0  0
  159.8070  207.4650  156.7630 C   0  0  0  0  0  1  0  0  0  0  0  0
  159.9170  209.5800  153.2430 C   0  0  0  0  0  0  0  0  0  0  0  0
  159.8760  212.5860  151.2350 N   0  0  0  0  0  0  0  0  0  0  0  0
  161.6220  212.2320  149.6070 N   0  0  0  0  0  2  0  0  0  0  0  0
  161.0050  207.6690  155.8530 C   0  0  2  0  0  3  0  0  0  0  0  0
  161.1610  207.8020  151.7130 C   0  0  0  0  0  0  0  0  0  0  0  0
  159.1330  210.6640  155.0820 N   0  0  0  0  0  0  0  0  0  0  0  0
  160.4680  214.4530  149.8420 C   0  0  0  0  0  1  0  0  0  0  0  0
  161.1210  209.1260  155.4040 C   0  0  0  0  0  2  0  0  0  0  0  0
  160.7520  207.4670  150.4120 C   0  0  0  0  0  3  0  0  0  0  0  0
  161.9320  205.5360  151.9550 N   0  0  0  0  0  0  0  0  0  0  0  0
  161.5570  205.2270  150.6870 C   0  0  0  0  0  3  0  0  0  0  0  0
  160.9250  206.7680  154.7160 N   0  0  0  0  0  2  0  0  0  0  0  0
  159.2930  210.8100  152.8320 C   0  0  0  0  0  0  0  0  0  0  0  0
  159.9660  209.6100  154.5810 C   0  0  2  0  0  3  0  0  0  0  0  0
  159.9300  211.2550  151.7610 C   0  0  0  0  0  0  0  0  0  0  0  0
  159.2950  212.9200  154.1740 C   0  0  0  0  0  1  0  0  0  0  0  0
  160.9010  209.1970  152.1980 C   0  0  1  0  0  3  0  0  0  0  0  0
  1  6  1  0  0  0  0
  4 20  2  0  0  0  0
  4 22  1  0  0  0  0
  5 27  1  1  0  0  0
  5 17  1  0  0  0  0
  6 23  1  0  0  0  0
  7  8  2  0  0  0  0
  8  2  2  0  0  0  0
  8 10  1  0  0  0  0
  9 13  2  0  0  0  0
 10 26  2  0  0  0  0
 12 25  1  0  0  0  0
 13 26  1  0  0  0  0
 14  8  1  0  0  0  0
 14  9  1  0  0  0  0
 15 11  1  1  0  0  0
 16 28  1  0  0  0  0
 16  1  2  0  0  0  0
 17  3  1  0  0  0  0
 18  9  1  0  0  0  0
 19 15  1  0  0  0  0
 20 16  1  0  0  0  0
 21  1  1  0  0  0  0
 22 21  2  0  0  0  0
 23 15  1  0  0  0  0
 24 12  2  0  0  0  0
 24  5  1  0  0  0  0
 25 17  1  0  0  0  0
 25 19  1  6  0  0  0
 26 24  1  0  0  0  0
 28 10  1  6  0  0  0
 28 12  1  0  0  0  0
M  END
>  <MODEL>
7

>  <REMARK>
 VINA RESULT:      -3.5      2.434      4.779
  Name = 
  0 active torsions:
  status: ('A' for Active; 'I' for Inactive)
                            x       y       z     vdW  Elec       q    Type
                         _______ _______ _______ _____ _____    ______ ____

>  <TORSDO>
F 0

$$$$
=
 OpenBabel11122414073D

 28 32  0  0  1  0  0  0  0  0999 V2000
  160.4570  212.5850  145.0890 C   0  0  0  0  0  0  0  0  0  0  0  0
  161.8890  209.8160  148.2610 O   0  0  0  0  0  0  0  0  0  0  0  0
  155.5890  214.1670  149.0000 C   0  0  0  0  0  1  0  0  0  0  0  0
  163.1050  213.3760  145.3820 C   0  0  0  0  0  3  0  0  0  0  0  0
  157.8840  213.9740  150.1570 C   0  0  2  0  0  3  0  0  0  0  0  0
  159.0350  212.2700  144.8330 C   0  0  0  0  0  2  0  0  0  0  0  0
  163.4190  211.7040  148.7200 O   0  0  0  0  0  0  0  0  0  0  0  0
  162.0980  211.0730  149.0560 S   0  0  0  0  0  0  0  0  0  0  0  0
  161.2060  211.4210  151.6820 C   0  0  0  0  0  0  0  0  0  0  0  0
  160.7740  212.1730  148.8050 C   0  0  0  0  0  0  0  0  0  0  0  0
  156.1060  214.4530  145.4610 C   0  0  0  0  0  1  0  0  0  0  0  0
  159.0680  213.4270  148.1170 C   0  0  0  0  0  0  0  0  0  0  0  0
  160.3550  212.3400  151.3150 N   0  0  0  0  0  0  0  0  0  0  0  0
  162.0470  210.7150  150.7490 N   0  0  0  0  0  2  0  0  0  0  0  0
  156.9650  213.2020  145.4380 C   0  0  2  0  0  3  0  0  0  0  0  0
  160.9730  212.7550  146.3960 C   0  0  0  0  0  0  0  0  0  0  0  0
  157.0220  213.9180  148.9810 N   0  0  0  0  0  0  0  0  0  0  0  0
  161.3050  211.0750  153.1240 C   0  0  0  0  0  1  0  0  0  0  0  0
  157.0800  212.5790  146.8290 C   0  0  0  0  0  2  0  0  0  0  0  0
  162.3100  213.1710  146.5060 C   0  0  0  0  0  3  0  0  0  0  0  0
  161.2540  212.7990  144.0070 N   0  0  0  0  0  0  0  0  0  0  0  0
  162.5520  213.1770  144.1220 C   0  0  0  0  0  3  0  0  0  0  0  0
  158.2720  213.5070  144.8840 N   0  0  0  0  0  2  0  0  0  0  0  0
  159.1850  213.5790  149.5440 C   0  0  0  0  0  0  0  0  0  0  0  0
  157.7570  213.4540  147.8410 C   0  0  2  0  0  3  0  0  0  0  0  0
  160.1390  212.7660  149.9650 C   0  0  2  0  0  3  0  0  0  0  0  0
  157.4070  212.9580  151.1880 C   0  0  0  0  0  1  0  0  0  0  0  0
  160.1860  212.5650  147.6580 C   0  0  0  0  0  0  0  0  0  0  0  0
  1 16  1  0  0  0  0
  2  8  2  0  0  0  0
  4 20  1  0  0  0  0
  5 27  1  1  0  0  0
  6 23  1  0  0  0  0
  6  1  1  0  0  0  0
  7  8  2  0  0  0  0
  8 14  1  0  0  0  0
  9 18  1  0  0  0  0
 10  8  1  0  0  0  0
 12 24  2  0  0  0  0
 13  9  2  0  0  0  0
 14  9  1  0  0  0  0
 15 11  1  1  0  0  0
 15 19  1  0  0  0  0
 16 20  2  0  0  0  0
 16 28  1  0  0  0  0
 17  3  1  0  0  0  0
 17  5  1  0  0  0  0
 21 22  1  0  0  0  0
 21  1  2  0  0  0  0
 22  4  2  0  0  0  0
 23 15  1  0  0  0  0
 24 26  1  0  0  0  0
 24  5  1  0  0  0  0
 25 19  1  1  0  0  0
 25 12  1  0  0  0  0
 25 17  1  0  0  0  0
 26 10  1  6  0  0  0
 26 13  1  0  0  0  0
 28 12  1  0  0  0  0
 28 10  2  0  0  0  0
M  END
>  <MODEL>
8

>  <REMARK>
 VINA RESULT:      -3.2      4.221      8.421
  Name = 
  0 active torsions:
  status: ('A' for Active; 'I' for Inactive)
                            x       y       z     vdW  Elec       q    Type
                         _______ _______ _______ _____ _____    ______ ____

>  <TORSDO>
F 0

$$$$
