=
 OpenBabel11122414083D

 28 32  0  0  1  0  0  0  0  0999 V2000
  157.6270  211.5920  156.4920 C   0  0  0  0  0  0  0  0  0  0  0  0
  161.7140  209.1520  155.1690 F   0  0  0  0  0  0  0  0  0  0  0  0
  157.9020  213.3110  152.0850 C   0  0  0  0  0  1  0  0  0  0  0  0
  155.5340  210.4430  155.0250 C   0  0  0  0  0  3  0  0  0  0  0  0
  160.0950  212.2100  152.0160 C   0  0  0  0  0  0  0  0  0  0  0  0
  158.7320  212.2550  157.2600 C   0  0  0  0  0  2  0  0  0  0  0  0
  160.1890  207.5440  155.6230 O   0  0  0  0  0  1  0  0  0  0  0  0
  160.6910  208.3850  154.6300 C   0  0  1  0  0  0  0  0  0  0  0  0
  161.6270  208.4480  152.3480 C   0  0  1  0  0  3  0  0  0  0  0  0
  159.5460  209.2740  154.0980 C   0  0  2  0  0  3  0  0  0  0  0  0
  157.3650  214.4330  155.3040 O   0  0  0  0  0  1  0  0  0  0  0  0
  160.0780  211.6820  154.2930 C   0  0  1  0  0  3  0  0  0  0  0  0
  160.4560  208.9950  151.7910 O   0  0  0  0  0  0  0  0  0  0  0  0
  161.2680  207.5340  153.5100 C   0  0  0  0  0  2  0  0  0  0  0  0
  158.6410  214.4530  155.8740 C   0  0  2  0  0  3  0  0  0  0  0  0
  157.9200  210.7640  155.3870 C   0  0  0  0  0  0  0  0  0  0  0  0
  159.2930  213.2500  152.6900 C   0  0  2  0  0  3  0  0  0  0  0  0
  162.3600  207.6500  151.2900 C   0  0  0  0  0  1  0  0  0  0  0  0
  159.7080  213.9360  154.9060 C   0  0  0  0  0  2  0  0  0  0  0  0
  156.8600  210.2100  154.6510 C   0  0  0  0  0  3  0  0  0  0  0  0
  156.2960  211.8080  156.8700 C   0  0  0  0  0  3  0  0  0  0  0  0
  155.2530  211.2340  156.1390 C   0  0  0  0  0  3  0  0  0  0  0  0
  158.6440  213.7850  157.2540 C   0  0  0  0  0  2  0  0  0  0  0  0
  160.5780  211.1780  152.9440 C   0  0  1  0  0  3  0  0  0  0  0  0
  159.1930  212.8420  154.0900 N   0  0  2  0  0  0  0  0  0  0  0  0
  159.8410  209.8710  152.7200 C   0  0  2  0  0  3  0  0  0  0  0  0
  160.3730  212.2300  150.8260 O   0  0  0  0  0  0  0  0  0  0  0  0
  159.3610  210.5030  154.9890 C   0  0  1  0  0  3  0  0  0  0  0  0
  1 21  1  0  0  0  0
  1  6  1  0  0  0  0
  3 17  1  0  0  0  0
  4 22  1  0  0  0  0
  5 17  1  0  0  0  0
  5 24  1  0  0  0  0
  8  2  1  1  0  0  0
  8  7  1  0  0  0  0
  9 18  1  6  0  0  0
  9 14  1  0  0  0  0
 10  8  1  0  0  0  0
 10 28  1  0  0  0  0
 11 15  1  0  0  0  0
 12 28  1  0  0  0  0
 13  9  1  0  0  0  0
 13 26  1  0  0  0  0
 14  8  1  0  0  0  0
 15 23  1  0  0  0  0
 16  1  2  0  0  0  0
 17 25  1  0  0  0  0
 19 15  1  0  0  0  0
 20  4  2  0  0  0  0
 20 16  1  0  0  0  0
 22 21  2  0  0  0  0
 23  6  1  0  0  0  0
 24 12  1  0  0  0  0
 25 12  1  0  0  0  0
 25 19  1  0  0  0  0
 26 24  1  0  0  0  0
 26 10  1  0  0  0  0
 27  5  2  0  0  0  0
 28 16  1  0  0  0  0
M  END
>  <MODEL>
1

>  <REMARK>
 VINA RESULT:      -3.8      0.000      0.000
  Name = 
  0 active torsions:
  status: ('A' for Active; 'I' for Inactive)
                            x       y       z     vdW  Elec       q    Type
                         _______ _______ _______ _____ _____    ______ ____

>  <TORSDO>
F 0

$$$$
=
 OpenBabel11122414083D

 28 32  0  0  1  0  0  0  0  0999 V2000
  160.7970  208.5090  155.9350 C   0  0  0  0  0  0  0  0  0  0  0  0
  156.9720  210.8690  153.8840 F   0  0  0  0  0  0  0  0  0  0  0  0
  163.0800  210.0150  152.0660 C   0  0  0  0  0  1  0  0  0  0  0  0
  162.5840  210.5050  156.7560 C   0  0  0  0  0  3  0  0  0  0  0  0
  160.8600  210.7100  151.2820 C   0  0  0  0  0  0  0  0  0  0  0  0
  159.8800  207.4170  155.4710 C   0  0  0  0  0  2  0  0  0  0  0  0
  157.3330  211.9290  155.8500 O   0  0  0  0  0  1  0  0  0  0  0  0
  157.6860  211.8850  154.5010 C   0  0  1  0  0  0  0  0  0  0  0  0
  157.8710  213.2280  152.4390 C   0  0  1  0  0  3  0  0  0  0  0  0
  159.2080  211.6500  154.3870 C   0  0  2  0  0  3  0  0  0  0  0  0
  162.7070  207.1350  153.9310 O   0  0  0  0  0  1  0  0  0  0  0  0
  159.7340  209.6470  153.0330 C   0  0  1  0  0  3  0  0  0  0  0  0
  159.2760  213.2690  152.4900 O   0  0  0  0  0  0  0  0  0  0  0  0
  157.3030  213.2050  153.8490 C   0  0  0  0  0  2  0  0  0  0  0  0
  161.4540  206.6450  153.5510 C   0  0  2  0  0  3  0  0  0  0  0  0
  160.6470  209.8250  155.4480 C   0  0  0  0  0  0  0  0  0  0  0  0
  161.6860  209.5530  151.6820 C   0  0  2  0  0  3  0  0  0  0  0  0
  157.3590  214.4530  151.7110 C   0  0  0  0  0  1  0  0  0  0  0  0
  160.7560  207.5710  152.5510 C   0  0  0  0  0  2  0  0  0  0  0  0
  161.5620  210.8110  155.8540 C   0  0  0  0  0  3  0  0  0  0  0  0
  161.8150  208.2160  156.8510 C   0  0  0  0  0  3  0  0  0  0  0  0
  162.7050  209.2100  157.2610 C   0  0  0  0  0  3  0  0  0  0  0  0
  160.6110  206.2640  154.7740 C   0  0  0  0  0  2  0  0  0  0  0  0
  159.6540  210.8570  152.1080 C   0  0  1  0  0  3  0  0  0  0  0  0
  161.0300  208.9710  152.8520 N   0  0  2  0  0  0  0  0  0  0  0  0
  159.7780  212.0580  153.0270 C   0  0  2  0  0  3  0  0  0  0  0  0
  161.1210  211.4370  150.3350 O   0  0  0  0  0  0  0  0  0  0  0  0
  159.5280  210.1570  154.4780 C   0  0  1  0  0  3  0  0  0  0  0  0
  1 21  1  0  0  0  0
  4 22  1  0  0  0  0
  5 17  1  0  0  0  0
  5 24  1  0  0  0  0
  6  1  1  0  0  0  0
  8  2  1  6  0  0  0
  8  7  1  0  0  0  0
  9 18  1  1  0  0  0
  9 13  1  0  0  0  0
  9 14  1  0  0  0  0
 10 28  1  0  0  0  0
 10  8  1  0  0  0  0
 12 28  1  0  0  0  0
 13 26  1  0  0  0  0
 14  8  1  0  0  0  0
 15 11  1  0  0  0  0
 15 23  1  0  0  0  0
 16 20  1  0  0  0  0
 16  1  2  0  0  0  0
 17  3  1  0  0  0  0
 17 25  1  0  0  0  0
 19 25  1  0  0  0  0
 19 15  1  0  0  0  0
 20  4  2  0  0  0  0
 21 22  2  0  0  0  0
 23  6  1  0  0  0  0
 24 26  1  0  0  0  0
 24 12  1  0  0  0  0
 25 12  1  0  0  0  0
 26 10  1  0  0  0  0
 27  5  2  0  0  0  0
 28 16  1  0  0  0  0
M  END
>  <MODEL>
2

>  <REMARK>
 VINA RESULT:      -2.6      2.355      5.550
  Name = 
  0 active torsions:
  status: ('A' for Active; 'I' for Inactive)
                            x       y       z     vdW  Elec       q    Type
                         _______ _______ _______ _____ _____    ______ ____

>  <TORSDO>
F 0

$$$$
=
 OpenBabel11122414083D

 28 32  0  0  1  0  0  0  0  0999 V2000
  161.4860  210.0430  154.6690 C   0  0  0  0  0  0  0  0  0  0  0  0
  160.8470  213.8520  151.5900 F   0  0  0  0  0  0  0  0  0  0  0  0
  156.8700  210.6810  155.5220 C   0  0  0  0  0  1  0  0  0  0  0  0
  160.1280  207.8810  153.5150 C   0  0  0  0  0  3  0  0  0  0  0  0
  157.1200  212.7270  154.1890 C   0  0  0  0  0  0  0  0  0  0  0  0
  162.1880  211.1900  155.3320 C   0  0  0  0  0  2  0  0  0  0  0  0
  161.4880  212.1300  150.2710 O   0  0  0  0  0  1  0  0  0  0  0  0
  160.3940  212.7650  150.8580 C   0  0  1  0  0  0  0  0  0  0  0  0
  158.1930  213.7830  150.4010 C   0  0  1  0  0  3  0  0  0  0  0  0
  159.6490  211.7550  151.7570 C   0  0  2  0  0  3  0  0  0  0  0  0
  159.8060  210.1660  157.2600 O   0  0  0  0  0  1  0  0  0  0  0  0
  159.4490  212.5640  154.0870 C   0  0  1  0  0  3  0  0  0  0  0  0
  157.4830  212.7070  150.9660 O   0  0  0  0  0  0  0  0  0  0  0  0
  159.4750  213.2760  149.7590 C   0  0  0  0  0  2  0  0  0  0  0  0
  160.4360  211.4140  157.2400 C   0  0  2  0  0  3  0  0  0  0  0  0
  160.5630  210.2730  153.6280 C   0  0  0  0  0  0  0  0  0  0  0  0
  157.5540  212.0310  155.4170 C   0  0  2  0  0  3  0  0  0  0  0  0
  157.3340  214.4530  149.3490 C   0  0  0  0  0  1  0  0  0  0  0  0
  159.6360  212.4450  156.4410 C   0  0  0  0  0  2  0  0  0  0  0  0
  159.8750  209.1820  153.0720 C   0  0  0  0  0  3  0  0  0  0  0  0
  161.7440  208.7340  155.0960 C   0  0  0  0  0  3  0  0  0  0  0  0
  161.0680  207.6570  154.5210 C   0  0  0  0  0  3  0  0  0  0  0  0
  161.9100  211.2870  156.8360 C   0  0  0  0  0  2  0  0  0  0  0  0
  158.2400  213.0490  153.2940 C   0  0  1  0  0  3  0  0  0  0  0  0
  158.9960  211.8320  155.2820 N   0  0  2  0  0  0  0  0  0  0  0  0
  158.2070  212.1690  152.0590 C   0  0  2  0  0  3  0  0  0  0  0  0
  155.9630  213.0480  153.9620 O   0  0  0  0  0  0  0  0  0  0  0  0
  160.3000  211.6860  153.1400 C   0  0  1  0  0  3  0  0  0  0  0  0
  1 21  1  0  0  0  0
  1  6  1  0  0  0  0
  4 22  1  0  0  0  0
  5 17  1  0  0  0  0
  6 23  1  0  0  0  0
  8  7  1  6  0  0  0
  8  2  1  0  0  0  0
  8 10  1  0  0  0  0
  9 18  1  6  0  0  0
  9 13  1  0  0  0  0
 10 26  1  0  0  0  0
 10 28  1  0  0  0  0
 12 25  1  0  0  0  0
 13 26  1  0  0  0  0
 14  9  1  0  0  0  0
 14  8  1  0  0  0  0
 15 11  1  0  0  0  0
 16  1  2  0  0  0  0
 17  3  1  0  0  0  0
 19 15  1  0  0  0  0
 20  4  2  0  0  0  0
 20 16  1  0  0  0  0
 22 21  2  0  0  0  0
 23 15  1  0  0  0  0
 24 12  1  0  0  0  0
 24  5  1  0  0  0  0
 25 17  1  0  0  0  0
 25 19  1  0  0  0  0
 26 24  1  0  0  0  0
 27  5  2  0  0  0  0
 28 16  1  0  0  0  0
 28 12  1  0  0  0  0
M  END
>  <MODEL>
3

>  <REMARK>
 VINA RESULT:      -1.8      2.127      4.904
  Name = 
  0 active torsions:
  status: ('A' for Active; 'I' for Inactive)
                            x       y       z     vdW  Elec       q    Type
                         _______ _______ _______ _____ _____    ______ ____

>  <TORSDO>
F 0

$$$$
=
 OpenBabel11122414083D

 28 32  0  0  1  0  0  0  0  0999 V2000
  160.6050  209.7830  155.8240 C   0  0  0  0  0  0  0  0  0  0  0  0
  155.7950  210.7400  155.2260 F   0  0  0  0  0  0  0  0  0  0  0  0
  161.0570  212.5420  151.9990 C   0  0  0  0  0  1  0  0  0  0  0  0
  161.7690  212.1850  156.6730 C   0  0  0  0  0  3  0  0  0  0  0  0
  158.6070  212.4280  151.8860 C   0  0  0  0  0  0  0  0  0  0  0  0
  160.0180  208.4930  155.3320 C   0  0  0  0  0  2  0  0  0  0  0  0
  156.3170  211.5900  157.2560 O   0  0  0  0  0  1  0  0  0  0  0  0
  156.2680  211.8620  155.8890 C   0  0  1  0  0  0  0  0  0  0  0  0
  155.4000  213.4300  154.1930 C   0  0  1  0  0  3  0  0  0  0  0  0
  157.6820  212.2460  155.4030 C   0  0  2  0  0  3  0  0  0  0  0  0
  162.2170  209.5220  153.2010 O   0  0  0  0  0  1  0  0  0  0  0  0
  158.4480  210.7950  153.5510 C   0  0  1  0  0  3  0  0  0  0  0  0
  156.6630  214.0010  153.9510 O   0  0  0  0  0  0  0  0  0  0  0  0
  155.2950  213.0070  155.6500 C   0  0  0  0  0  2  0  0  0  0  0  0
  161.1500  208.6430  152.9960 C   0  0  2  0  0  3  0  0  0  0  0  0
  159.8900  210.9920  155.6910 C   0  0  0  0  0  0  0  0  0  0  0  0
  159.8510  211.6360  151.8280 C   0  0  2  0  0  3  0  0  0  0  0  0
  154.3220  214.4490  153.8870 C   0  0  0  0  0  1  0  0  0  0  0  0
  159.9290  209.3520  152.4040 C   0  0  0  0  0  2  0  0  0  0  0  0
  160.4940  212.1910  156.1040 C   0  0  0  0  0  3  0  0  0  0  0  0
  161.8770  209.7850  156.4110 C   0  0  0  0  0  3  0  0  0  0  0  0
  162.4560  210.9820  156.8340 C   0  0  0  0  0  3  0  0  0  0  0  0
  160.8660  207.8110  154.2530 C   0  0  0  0  0  2  0  0  0  0  0  0
  157.7070  211.9910  152.9620 C   0  0  1  0  0  3  0  0  0  0  0  0
  159.7890  210.6980  152.9480 N   0  0  2  0  0  0  0  0  0  0  0  0
  157.6740  213.0160  154.0800 C   0  0  2  0  0  3  0  0  0  0  0  0
  158.3290  213.3170  151.0950 O   0  0  0  0  0  0  0  0  0  0  0  0
  158.4990  210.9930  155.0830 C   0  0  1  0  0  3  0  0  0  0  0  0
  1 21  1  0  0  0  0
  4 22  1  0  0  0  0
  5 24  1  0  0  0  0
  6  1  1  0  0  0  0
  8  2  1  6  0  0  0
  8  7  1  0  0  0  0
  9 18  1  1  0  0  0
  9 14  1  0  0  0  0
 10  8  1  0  0  0  0
 12 28  1  0  0  0  0
 13 26  1  0  0  0  0
 13  9  1  0  0  0  0
 14  8  1  0  0  0  0
 15 11  1  0  0  0  0
 15 23  1  0  0  0  0
 16  1  2  0  0  0  0
 16 20  1  0  0  0  0
 17  5  1  0  0  0  0
 17  3  1  0  0  0  0
 17 25  1  0  0  0  0
 19 25  1  0  0  0  0
 19 15  1  0  0  0  0
 20  4  2  0  0  0  0
 21 22  2  0  0  0  0
 23  6  1  0  0  0  0
 24 12  1  0  0  0  0
 24 26  1  0  0  0  0
 25 12  1  0  0  0  0
 26 10  1  0  0  0  0
 27  5  2  0  0  0  0
 28 10  1  0  0  0  0
 28 16  1  0  0  0  0
M  END
>  <MODEL>
4

>  <REMARK>
 VINA RESULT:      -1.6      2.329      5.482
  Name = 
  0 active torsions:
  status: ('A' for Active; 'I' for Inactive)
                            x       y       z     vdW  Elec       q    Type
                         _______ _______ _______ _____ _____    ______ ____

>  <TORSDO>
F 0

$$$$
