=
 OpenBabel11122413523D

 37 44  0  0  1  0  0  0  0  0999 V2000
  161.3090  210.4990  148.6890 C   0  0  2  0  0  3  0  0  0  0  0  0
  161.7590  206.1910  147.0980 C   0  0  0  0  0  0  0  0  0  0  0  0
  161.1830  206.6760  151.1950 C   0  0  0  0  0  0  0  0  0  0  0  0
  161.6110  210.9710  147.3610 N   0  0  0  0  0  0  0  0  0  0  0  0
  160.6160  210.0670  152.5410 C   0  0  0  0  0  3  0  0  0  0  0  0
  161.3650  205.1580  149.3160 C   0  0  0  0  0  0  0  0  0  0  0  0
  161.3300  208.0540  151.3800 C   0  0  0  0  0  0  0  0  0  0  0  0
  161.2620  212.4730  149.7250 C   0  0  2  0  0  3  0  0  0  0  0  0
  161.4460  206.4090  149.8860 C   0  0  0  0  0  0  0  0  0  0  0  0
  161.0080  208.7740  152.5770 C   0  0  0  0  0  0  0  0  0  0  0  0
  160.9990  204.0850  150.1340 C   0  0  0  0  0  3  0  0  0  0  0  0
  161.9740  211.8300  148.5160 C   0  0  1  0  0  3  0  0  0  0  0  0
  161.8130  207.4850  149.2170 N   0  0  0  0  0  0  0  0  0  0  0  0
  160.3830  206.5380  146.5580 C   0  0  0  0  0  1  0  0  0  0  0  0
  160.7150  205.7570  153.4050 C   0  0  0  0  0  3  0  0  0  0  0  0
  160.7410  204.3230  151.5010 C   0  0  0  0  0  3  0  0  0  0  0  0
  162.3290  207.4230  147.8450 C   0  0  0  0  0  2  0  0  0  0  0  0
  161.5990  211.6270  151.0070 C   0  0  1  0  0  3  0  0  0  0  0  0
  160.4820  210.8610  151.4170 O   0  0  0  0  0  0  0  0  0  0  0  0
  160.8390  205.6260  152.0460 C   0  0  0  0  0  0  0  0  0  0  0  0
  161.7950  208.5140  150.0930 C   0  0  0  0  0  0  0  0  0  0  0  0
  161.6540  205.0330  147.9520 O   0  0  0  0  0  0  0  0  0  0  0  0
  161.0280  208.1990  153.8400 N   0  0  0  0  0  0  0  0  0  0  0  0
  162.6650  205.8630  145.9300 C   0  0  0  0  0  1  0  0  0  0  0  0
  162.6660  210.7130  150.7440 O   0  0  0  0  0  0  0  0  0  0  0  0
  159.8850  212.6640  149.5370 O   0  0  0  0  0  1  0  0  0  0  0  0
  162.3260  209.8540  149.6440 C   0  0  2  0  0  3  0  0  0  0  0  0
  160.8560  206.8910  154.1850 C   0  0  0  0  0  3  0  0  0  0  0  0
  160.1360  209.1870  155.9350 C   0  0  0  0  0  3  0  0  0  0  0  0
  161.1830  209.0450  155.0050 C   0  0  0  0  0  0  0  0  0  0  0  0
  162.3870  209.7340  155.2220 C   0  0  0  0  0  3  0  0  0  0  0  0
  163.7070  211.2140  156.5440 F   0  0  0  0  0  0  0  0  0  0  0  0
  161.4970  210.6880  157.2610 C   0  0  0  0  0  3  0  0  0  0  0  0
  162.5430  210.5530  156.3440 C   0  0  0  0  0  0  0  0  0  0  0  0
  160.2950  210.0060  157.0560 C   0  0  0  0  0  3  0  0  0  0  0  0
  160.6600  212.7700  146.0430 C   0  0  0  0  0  1  0  0  0  0  0  0
  160.3760  211.4860  146.7950 C   0  0  0  0  0  2  0  0  0  0  0  0
  1  4  1  6  0  0  0
  1 27  1  0  0  0  0
  2 17  1  0  0  0  0
  2 22  1  0  0  0  0
  3  7  1  0  0  0  0
  3 20  1  0  0  0  0
  5 10  2  0  0  0  0
  6  9  1  0  0  0  0
  6 11  2  0  0  0  0
  7 10  1  0  0  0  0
  8 26  1  6  0  0  0
  8 18  1  0  0  0  0
  9  3  2  0  0  0  0
 10 23  1  0  0  0  0
 11 16  1  0  0  0  0
 12  4  1  6  0  0  0
 12  1  1  0  0  0  0
 12  8  1  0  0  0  0
 13  9  1  0  0  0  0
 13 21  1  0  0  0  0
 14  2  1  0  0  0  0
 15 28  2  0  0  0  0
 16 20  2  0  0  0  0
 17 13  1  0  0  0  0
 18 25  1  6  0  0  0
 18 19  1  0  0  0  0
 19  5  1  0  0  0  0
 20 15  1  0  0  0  0
 21  7  2  0  0  0  0
 22  6  1  0  0  0  0
 23 28  1  0  0  0  0
 23 30  1  0  0  0  0
 24  2  1  0  0  0  0
 27 21  1  1  0  0  0
 27 25  1  0  0  0  0
 29 35  1  0  0  0  0
 30 31  1  0  0  0  0
 30 29  2  0  0  0  0
 31 34  2  0  0  0  0
 34 32  1  0  0  0  0
 34 33  1  0  0  0  0
 35 33  2  0  0  0  0
 36 37  1  0  0  0  0
 37  4  1  0  0  0  0
M  END
>  <MODEL>
1

>  <REMARK>
 VINA RESULT:      -6.4      0.000      0.000
  Name = 
  2 active torsions:
  status: ('A' for Active; 'I' for Inactive)
    1  A    between atoms: N_4  and  C_37
    2  A    between atoms: N_23  and  C_30
                            x       y       z     vdW  Elec       q    Type
                         _______ _______ _______ _____ _____    ______ ____

>  <TORSDO>
F 2

$$$$
=
 OpenBabel11122413523D

 37 44  0  0  1  0  0  0  0  0999 V2000
  161.0820  203.2570  149.8800 C   0  0  2  0  0  3  0  0  0  0  0  0
  161.2610  206.1210  146.2660 C   0  0  0  0  0  0  0  0  0  0  0  0
  161.5990  207.7970  150.0650 C   0  0  0  0  0  0  0  0  0  0  0  0
  160.7760  202.1900  148.9610 N   0  0  0  0  0  0  0  0  0  0  0  0
  161.6650  205.5730  153.0120 C   0  0  0  0  0  3  0  0  0  0  0  0
  161.6940  208.1200  147.6650 C   0  0  0  0  0  0  0  0  0  0  0  0
  161.2670  206.7380  150.9150 C   0  0  0  0  0  0  0  0  0  0  0  0
  160.8290  202.1200  151.7820 C   0  0  2  0  0  3  0  0  0  0  0  0
  161.4270  207.3640  148.7850 C   0  0  0  0  0  0  0  0  0  0  0  0
  161.4430  206.7240  152.3380 C   0  0  0  0  0  0  0  0  0  0  0  0
  162.1620  209.4240  147.8490 C   0  0  0  0  0  3  0  0  0  0  0  0
  160.2570  202.0980  150.3480 C   0  0  1  0  0  3  0  0  0  0  0  0
  160.9520  206.1340  148.7300 N   0  0  0  0  0  0  0  0  0  0  0  0
  162.6010  205.4210  146.1260 C   0  0  0  0  0  1  0  0  0  0  0  0
  162.0910  209.6890  151.5240 C   0  0  0  0  0  3  0  0  0  0  0  0
  162.3300  209.9130  149.1630 C   0  0  0  0  0  3  0  0  0  0  0  0
  160.5060  205.5170  147.4770 C   0  0  0  0  0  2  0  0  0  0  0  0
  160.5520  203.5370  152.4050 C   0  0  1  0  0  3  0  0  0  0  0  0
  161.7410  204.3000  152.4750 O   0  0  0  0  0  0  0  0  0  0  0  0
  162.0420  209.1010  150.2860 C   0  0  0  0  0  0  0  0  0  0  0  0
  160.7990  205.7170  150.0070 C   0  0  0  0  0  0  0  0  0  0  0  0
  161.4800  207.5390  146.4100 O   0  0  0  0  0  0  0  0  0  0  0  0
  161.4460  207.8730  153.1160 N   0  0  0  0  0  0  0  0  0  0  0  0
  160.4550  205.8700  145.0100 C   0  0  0  0  0  1  0  0  0  0  0  0
  159.6240  204.2700  151.6010 O   0  0  0  0  0  0  0  0  0  0  0  0
  162.1760  201.7370  151.8620 O   0  0  0  0  0  1  0  0  0  0  0  0
  160.1190  204.3940  150.2580 C   0  0  2  0  0  3  0  0  0  0  0  0
  161.7720  209.1460  152.7560 C   0  0  0  0  0  3  0  0  0  0  0  0
  161.9460  208.4100  155.4870 C   0  0  0  0  0  3  0  0  0  0  0  0
  161.1350  207.7770  154.5270 C   0  0  0  0  0  0  0  0  0  0  0  0
  160.0120  207.0500  154.9550 C   0  0  0  0  0  3  0  0  0  0  0  0
  158.6210  206.2490  156.7170 F   0  0  0  0  0  0  0  0  0  0  0  0
  160.5190  207.5850  157.2600 C   0  0  0  0  0  3  0  0  0  0  0  0
  159.7060  206.9540  156.3150 C   0  0  0  0  0  0  0  0  0  0  0  0
  161.6380  208.3120  156.8470 C   0  0  0  0  0  3  0  0  0  0  0  0
  161.6920  200.2070  147.9090 C   0  0  0  0  0  1  0  0  0  0  0  0
  161.9560  201.3480  148.8710 C   0  0  0  0  0  2  0  0  0  0  0  0
  1  4  1  6  0  0  0
  1 27  1  0  0  0  0
  1 12  1  0  0  0  0
  2 22  1  0  0  0  0
  2 17  1  0  0  0  0
  3 20  1  0  0  0  0
  3  7  1  0  0  0  0
  6 11  2  0  0  0  0
  6  9  1  0  0  0  0
  7 10  1  0  0  0  0
  8 26  1  6  0  0  0
  8 18  1  0  0  0  0
  9  3  2  0  0  0  0
 10  5  2  0  0  0  0
 10 23  1  0  0  0  0
 11 16  1  0  0  0  0
 12  4  1  6  0  0  0
 12  8  1  0  0  0  0
 13  9  1  0  0  0  0
 13 21  1  0  0  0  0
 14  2  1  0  0  0  0
 15 28  2  0  0  0  0
 16 20  2  0  0  0  0
 17 13  1  0  0  0  0
 18 25  1  6  0  0  0
 18 19  1  0  0  0  0
 19  5  1  0  0  0  0
 20 15  1  0  0  0  0
 21  7  2  0  0  0  0
 22  6  1  0  0  0  0
 23 30  1  0  0  0  0
 24  2  1  0  0  0  0
 27 21  1  1  0  0  0
 27 25  1  0  0  0  0
 28 23  1  0  0  0  0
 29 35  1  0  0  0  0
 30 31  1  0  0  0  0
 30 29  2  0  0  0  0
 31 34  2  0  0  0  0
 34 32  1  0  0  0  0
 34 33  1  0  0  0  0
 35 33  2  0  0  0  0
 36 37  1  0  0  0  0
 37  4  1  0  0  0  0
M  END
>  <MODEL>
2

>  <REMARK>
 VINA RESULT:      -5.0      2.740      5.837
  Name = 
  2 active torsions:
  status: ('A' for Active; 'I' for Inactive)
    1  A    between atoms: N_4  and  C_37
    2  A    between atoms: N_23  and  C_30
                            x       y       z     vdW  Elec       q    Type
                         _______ _______ _______ _____ _____    ______ ____

>  <TORSDO>
F 2

$$$$
=
 OpenBabel11122413523D

 37 44  0  0  1  0  0  0  0  0999 V2000
  161.3550  206.2150  151.7860 C   0  0  2  0  0  3  0  0  0  0  0  0
  160.2140  207.6620  156.0170 C   0  0  0  0  0  0  0  0  0  0  0  0
  160.3770  210.5170  152.9870 C   0  0  0  0  0  0  0  0  0  0  0  0
  161.6080  204.9120  152.3500 N   0  0  0  0  0  0  0  0  0  0  0  0
  161.0870  209.4320  149.5310 C   0  0  0  0  0  3  0  0  0  0  0  0
  159.8190  209.9970  155.2870 C   0  0  0  0  0  0  0  0  0  0  0  0
  160.9720  209.8270  151.9270 C   0  0  0  0  0  0  0  0  0  0  0  0
  162.0680  205.8070  149.7120 C   0  0  2  0  0  3  0  0  0  0  0  0
  160.3640  209.6810  154.0620 C   0  0  0  0  0  0  0  0  0  0  0  0
  161.0550  210.2920  150.5730 C   0  0  0  0  0  0  0  0  0  0  0  0
  159.2500  211.2640  155.4460 C   0  0  0  0  0  3  0  0  0  0  0  0
  162.3730  205.3220  151.1460 C   0  0  1  0  0  3  0  0  0  0  0  0
  160.9560  208.5300  153.8110 N   0  0  0  0  0  0  0  0  0  0  0  0
  158.9570  206.8980  155.6420 C   0  0  0  0  0  1  0  0  0  0  0  0
  159.9460  212.7690  152.1560 C   0  0  0  0  0  3  0  0  0  0  0  0
  159.2660  212.1640  154.3580 C   0  0  0  0  0  3  0  0  0  0  0  0
  161.2360  207.5420  154.8580 C   0  0  0  0  0  2  0  0  0  0  0  0
  162.2930  207.3620  149.6560 C   0  0  1  0  0  3  0  0  0  0  0  0
  161.0580  208.0500  149.5950 O   0  0  0  0  0  0  0  0  0  0  0  0
  159.8390  211.7980  153.1170 C   0  0  0  0  0  0  0  0  0  0  0  0
  161.3790  208.5800  152.5280 C   0  0  0  0  0  0  0  0  0  0  0  0
  159.8680  209.0330  156.3010 O   0  0  0  0  0  0  0  0  0  0  0  0
  161.0640  211.6360  150.2280 N   0  0  0  0  0  0  0  0  0  0  0  0
  160.8060  207.0340  157.2610 C   0  0  0  0  0  1  0  0  0  0  0  0
  162.9740  207.8180  150.8280 O   0  0  0  0  0  0  0  0  0  0  0  0
  160.8080  205.4140  149.2370 O   0  0  0  0  0  1  0  0  0  0  0  0
  162.2370  207.4540  152.0060 C   0  0  2  0  0  3  0  0  0  0  0  0
  160.5390  212.6950  150.9080 C   0  0  0  0  0  3  0  0  0  0  0  0
  163.0050  211.8840  148.7010 C   0  0  0  0  0  3  0  0  0  0  0  0
  161.6310  212.0420  148.9590 C   0  0  0  0  0  0  0  0  0  0  0  0
  160.8090  212.5970  147.9640 C   0  0  0  0  0  3  0  0  0  0  0  0
  160.5490  213.5260  145.7850 F   0  0  0  0  0  0  0  0  0  0  0  0
  162.7160  212.8320  146.4920 C   0  0  0  0  0  3  0  0  0  0  0  0
  161.3500  212.9910  146.7370 C   0  0  0  0  0  0  0  0  0  0  0  0
  163.5430  212.2790  147.4730 C   0  0  0  0  0  3  0  0  0  0  0  0
  161.1020  202.6940  151.5130 C   0  0  0  0  0  1  0  0  0  0  0  0
  160.5320  204.0390  151.9160 C   0  0  0  0  0  2  0  0  0  0  0  0
  1 27  1  0  0  0  0
  1  4  1  1  0  0  0
  2 22  1  0  0  0  0
  2 24  1  0  0  0  0
  3 20  2  0  0  0  0
  3  9  1  0  0  0  0
  5 19  1  0  0  0  0
  5 10  2  0  0  0  0
  6 11  1  0  0  0  0
  6 22  1  0  0  0  0
  7 21  2  0  0  0  0
  7  3  1  0  0  0  0
  8 26  1  1  0  0  0
  8 12  1  0  0  0  0
  9  6  2  0  0  0  0
 10  7  1  0  0  0  0
 12  1  1  0  0  0  0
 12  4  1  6  0  0  0
 13  9  1  0  0  0  0
 13 17  1  0  0  0  0
 14  2  1  0  0  0  0
 15 20  1  0  0  0  0
 16 11  2  0  0  0  0
 17  2  1  0  0  0  0
 18 19  1  1  0  0  0
 18  8  1  0  0  0  0
 18 25  1  0  0  0  0
 20 16  1  0  0  0  0
 21 13  1  0  0  0  0
 23 10  1  0  0  0  0
 23 28  1  0  0  0  0
 27 25  1  6  0  0  0
 27 21  1  0  0  0  0
 28 15  2  0  0  0  0
 29 30  1  0  0  0  0
 30 23  1  0  0  0  0
 31 30  2  0  0  0  0
 32 34  1  0  0  0  0
 33 34  2  0  0  0  0
 33 35  1  0  0  0  0
 34 31  1  0  0  0  0
 35 29  2  0  0  0  0
 36 37  1  0  0  0  0
 37  4  1  0  0  0  0
M  END
>  <MODEL>
3

>  <REMARK>
 VINA RESULT:      -4.8      2.819      7.453
  Name = 
  2 active torsions:
  status: ('A' for Active; 'I' for Inactive)
    1  A    between atoms: N_4  and  C_37
    2  A    between atoms: N_23  and  C_30
                            x       y       z     vdW  Elec       q    Type
                         _______ _______ _______ _____ _____    ______ ____

>  <TORSDO>
F 2

$$$$
=
 OpenBabel11122413523D

 37 44  0  0  1  0  0  0  0  0999 V2000
  161.1240  204.0800  146.3900 C   0  0  2  0  0  3  0  0  0  0  0  0
  160.9790  201.5630  150.2540 C   0  0  0  0  0  0  0  0  0  0  0  0
  161.2060  205.7030  150.6640 C   0  0  0  0  0  0  0  0  0  0  0  0
  161.2060  202.8490  145.6450 N   0  0  0  0  0  0  0  0  0  0  0  0
  161.1300  207.8160  147.6380 C   0  0  0  0  0  3  0  0  0  0  0  0
  160.9330  203.5470  151.7380 C   0  0  0  0  0  0  0  0  0  0  0  0
  161.4780  206.1400  149.3640 C   0  0  0  0  0  0  0  0  0  0  0  0
  161.4030  205.4980  144.6900 C   0  0  2  0  0  3  0  0  0  0  0  0
  161.2030  204.3410  150.6450 C   0  0  0  0  0  0  0  0  0  0  0  0
  161.4330  207.5010  148.9170 C   0  0  0  0  0  0  0  0  0  0  0  0
  160.6540  204.1770  152.9540 C   0  0  0  0  0  3  0  0  0  0  0  0
  161.8340  204.0650  145.0710 C   0  0  1  0  0  3  0  0  0  0  0  0
  161.5120  203.8540  149.4580 N   0  0  0  0  0  0  0  0  0  0  0  0
  159.5530  201.3880  149.7610 C   0  0  0  0  0  1  0  0  0  0  0  0
  161.0940  207.7180  152.0330 C   0  0  0  0  0  3  0  0  0  0  0  0
  160.6700  205.5880  153.0150 C   0  0  0  0  0  3  0  0  0  0  0  0
  161.7590  202.4270  149.2310 C   0  0  0  0  0  2  0  0  0  0  0  0
  161.9140  206.4820  145.8050 C   0  0  1  0  0  3  0  0  0  0  0  0
  160.8430  206.9320  146.6130 O   0  0  0  0  0  0  0  0  0  0  0  0
  160.9550  206.3640  151.8660 C   0  0  0  0  0  0  0  0  0  0  0  0
  161.7270  204.9140  148.6450 C   0  0  0  0  0  0  0  0  0  0  0  0
  160.9550  202.1580  151.5680 O   0  0  0  0  0  0  0  0  0  0  0  0
  161.6470  208.5860  149.7550 N   0  0  0  0  0  0  0  0  0  0  0  0
  161.6280  200.1980  150.3410 C   0  0  0  0  0  1  0  0  0  0  0  0
  162.8500  205.8280  146.6660 O   0  0  0  0  0  0  0  0  0  0  0  0
  160.0320  205.6270  144.4270 O   0  0  0  0  0  1  0  0  0  0  0  0
  162.2540  204.6610  147.2540 C   0  0  2  0  0  3  0  0  0  0  0  0
  161.4540  208.6760  151.1020 C   0  0  0  0  0  3  0  0  0  0  0  0
  163.1280  209.9040  148.2610 C   0  0  0  0  0  3  0  0  0  0  0  0
  162.0720  209.8500  149.1890 C   0  0  0  0  0  0  0  0  0  0  0  0
  161.4280  211.0420  149.5610 C   0  0  0  0  0  3  0  0  0  0  0  0
  161.2060  213.4080  149.3850 F   0  0  0  0  0  0  0  0  0  0  0  0
  162.8840  212.3080  148.0990 C   0  0  0  0  0  3  0  0  0  0  0  0
  161.8330  212.2650  149.0190 C   0  0  0  0  0  0  0  0  0  0  0  0
  163.5310  211.1290  147.7210 C   0  0  0  0  0  3  0  0  0  0  0  0
  159.6250  201.1750  144.8860 C   0  0  0  0  0  1  0  0  0  0  0  0
  159.9250  202.6570  144.9870 C   0  0  0  0  0  2  0  0  0  0  0  0
  1  4  1  1  0  0  0
  1 27  1  0  0  0  0
  2 24  1  0  0  0  0
  2 22  1  0  0  0  0
  3 20  1  0  0  0  0
  5 10  2  0  0  0  0
  6 11  2  0  0  0  0
  7  3  1  0  0  0  0
  8 26  1  1  0  0  0
  8 12  1  0  0  0  0
  8 18  1  0  0  0  0
  9  3  2  0  0  0  0
  9  6  1  0  0  0  0
 10  7  1  0  0  0  0
 10 23  1  0  0  0  0
 11 16  1  0  0  0  0
 12  4  1  6  0  0  0
 12  1  1  0  0  0  0
 13  9  1  0  0  0  0
 14  2  1  0  0  0  0
 17 13  1  0  0  0  0
 17  2  1  0  0  0  0
 18 19  1  1  0  0  0
 18 25  1  0  0  0  0
 19  5  1  0  0  0  0
 20 15  1  0  0  0  0
 20 16  2  0  0  0  0
 21  7  2  0  0  0  0
 21 13  1  0  0  0  0
 22  6  1  0  0  0  0
 23 28  1  0  0  0  0
 27 25  1  6  0  0  0
 27 21  1  0  0  0  0
 28 15  2  0  0  0  0
 29 30  1  0  0  0  0
 30 31  2  0  0  0  0
 30 23  1  0  0  0  0
 33 34  2  0  0  0  0
 34 32  1  0  0  0  0
 34 31  1  0  0  0  0
 35 33  1  0  0  0  0
 35 29  2  0  0  0  0
 36 37  1  0  0  0  0
 37  4  1  0  0  0  0
M  END
>  <MODEL>
4

>  <REMARK>
 VINA RESULT:      -3.8      3.274      6.328
  Name = 
  2 active torsions:
  status: ('A' for Active; 'I' for Inactive)
    1  A    between atoms: N_4  and  C_37
    2  A    between atoms: N_23  and  C_30
                            x       y       z     vdW  Elec       q    Type
                         _______ _______ _______ _____ _____    ______ ____

>  <TORSDO>
F 2

$$$$
=
 OpenBabel11122413523D

 37 44  0  0  1  0  0  0  0  0999 V2000
  161.5180  208.0100  151.5190 C   0  0  2  0  0  3  0  0  0  0  0  0
  160.2040  209.5300  155.6730 C   0  0  0  0  0  0  0  0  0  0  0  0
  160.0330  212.2230  152.4990 C   0  0  0  0  0  0  0  0  0  0  0  0
  161.9230  206.7780  152.1490 N   0  0  0  0  0  0  0  0  0  0  0  0
  160.8760  211.0510  149.1010 C   0  0  0  0  0  3  0  0  0  0  0  0
  159.5360  211.7600  154.8250 C   0  0  0  0  0  0  0  0  0  0  0  0
  160.7090  211.5540  151.4730 C   0  0  0  0  0  0  0  0  0  0  0  0
  162.2800  207.5820  149.4670 C   0  0  2  0  0  3  0  0  0  0  0  0
  160.1180  211.4480  153.6160 C   0  0  0  0  0  0  0  0  0  0  0  0
  160.7400  211.9540  150.0970 C   0  0  0  0  0  0  0  0  0  0  0  0
  158.8200  212.9570  154.9200 C   0  0  0  0  0  3  0  0  0  0  0  0
  162.6370  207.2130  150.9230 C   0  0  1  0  0  3  0  0  0  0  0  0
  160.8430  210.3630  153.4220 N   0  0  0  0  0  0  0  0  0  0  0  0
  159.0470  208.6030  155.3440 C   0  0  0  0  0  1  0  0  0  0  0  0
  159.3410  214.3610  151.5530 C   0  0  0  0  0  3  0  0  0  0  0  0
  158.7320  213.7950  153.7870 C   0  0  0  0  0  3  0  0  0  0  0  0
  161.2360  209.4710  154.5180 C   0  0  0  0  0  2  0  0  0  0  0  0
  162.3190  209.1480  149.3290 C   0  0  1  0  0  3  0  0  0  0  0  0
  161.0110  209.6810  149.2370 O   0  0  0  0  0  0  0  0  0  0  0  0
  159.3470  213.4350  152.5640 C   0  0  0  0  0  0  0  0  0  0  0  0
  161.2600  210.3970  152.1370 C   0  0  0  0  0  0  0  0  0  0  0  0
  159.6970  210.8630  155.8870 O   0  0  0  0  0  0  0  0  0  0  0  0
  160.5900  213.2700  149.6830 N   0  0  0  0  0  0  0  0  0  0  0  0
  160.8630  209.0420  156.9460 C   0  0  0  0  0  1  0  0  0  0  0  0
  162.9390  209.7420  150.4730 O   0  0  0  0  0  0  0  0  0  0  0  0
  161.0770  207.0190  149.0170 O   0  0  0  0  0  1  0  0  0  0  0  0
  162.2470  209.3540  151.6710 C   0  0  2  0  0  3  0  0  0  0  0  0
  159.9410  214.2930  150.3090 C   0  0  0  0  0  3  0  0  0  0  0  0
  162.4600  214.0300  148.2390 C   0  0  0  0  0  3  0  0  0  0  0  0
  161.1080  213.6740  148.3920 C   0  0  0  0  0  0  0  0  0  0  0  0
  160.2610  213.7100  147.2720 C   0  0  0  0  0  3  0  0  0  0  0  0
  159.9290  214.1320  144.9500 F   0  0  0  0  0  0  0  0  0  0  0  0
  162.0980  214.4530  145.8820 C   0  0  0  0  0  3  0  0  0  0  0  0
  160.7540  214.0990  146.0230 C   0  0  0  0  0  0  0  0  0  0  0  0
  162.9510  214.4190  146.9890 C   0  0  0  0  0  3  0  0  0  0  0  0
  161.6130  204.3960  151.8240 C   0  0  0  0  0  1  0  0  0  0  0  0
  160.9590  205.7610  151.7650 C   0  0  0  0  0  2  0  0  0  0  0  0
  1 27  1  0  0  0  0
  1  4  1  1  0  0  0
  2 22  1  0  0  0  0
  2 24  1  0  0  0  0
  3 20  2  0  0  0  0
  3  9  1  0  0  0  0
  5 19  1  0  0  0  0
  5 10  2  0  0  0  0
  6 11  1  0  0  0  0
  6 22  1  0  0  0  0
  7 21  2  0  0  0  0
  7  3  1  0  0  0  0
  8 26  1  1  0  0  0
  8 12  1  0  0  0  0
  9  6  2  0  0  0  0
 10  7  1  0  0  0  0
 12  1  1  0  0  0  0
 12  4  1  6  0  0  0
 13  9  1  0  0  0  0
 13 17  1  0  0  0  0
 14  2  1  0  0  0  0
 15 20  1  0  0  0  0
 16 11  2  0  0  0  0
 17  2  1  0  0  0  0
 18 19  1  1  0  0  0
 18  8  1  0  0  0  0
 18 25  1  0  0  0  0
 20 16  1  0  0  0  0
 21 13  1  0  0  0  0
 23 10  1  0  0  0  0
 23 28  1  0  0  0  0
 27 25  1  6  0  0  0
 27 21  1  0  0  0  0
 28 15  2  0  0  0  0
 29 30  1  0  0  0  0
 30 23  1  0  0  0  0
 31 30  2  0  0  0  0
 32 34  1  0  0  0  0
 33 34  2  0  0  0  0
 33 35  1  0  0  0  0
 34 31  1  0  0  0  0
 35 29  2  0  0  0  0
 37 36  1  0  0  0  0
 37  4  1  0  0  0  0
M  END
>  <MODEL>
5

>  <REMARK>
 VINA RESULT:      -3.5      2.995      7.815
  Name = 
  2 active torsions:
  status: ('A' for Active; 'I' for Inactive)
    1  A    between atoms: N_4  and  C_37
    2  A    between atoms: N_23  and  C_30
                            x       y       z     vdW  Elec       q    Type
                         _______ _______ _______ _____ _____    ______ ____

>  <TORSDO>
F 2

$$$$
