=
 OpenBabel11122413243D

 31 35  0  0  1  0  0  0  0  0999 V2000
  160.7550  204.6000  145.3020 C   0  0  0  0  0  0  0  0  0  0  0  0
  160.7750  205.6620  148.9420 C   0  0  2  0  0  3  0  0  0  0  0  0
  160.9950  204.5520  149.9580 C   0  0  0  0  0  0  0  0  0  0  0  0
  160.8590  202.1720  150.4650 C   0  0  0  0  0  0  0  0  0  0  0  0
  161.4730  205.3440  147.6060 C   0  0  1  0  0  3  0  0  0  0  0  0
  161.6470  205.6070  144.6380 C   0  0  0  0  0  2  0  0  0  0  0  0
  160.7210  203.2320  149.5660 C   0  0  0  0  0  3  0  0  0  0  0  0
  162.5200  207.5370  149.2360 C   0  0  2  0  0  3  0  0  0  0  0  0
  160.0980  203.7920  144.5970 O   0  0  0  0  0  0  0  0  0  0  0  0
  161.6670  206.1660  151.8140 C   0  0  0  0  0  2  0  0  0  0  0  0
  160.5760  200.7820  150.0220 C   0  0  0  0  0  1  0  0  0  0  0  0
  163.0480  207.2700  147.8160 C   0  0  0  0  0  2  0  0  0  0  0  0
  161.0570  207.1000  149.4370 C   0  0  2  0  0  3  0  0  0  0  0  0
  160.5660  204.6180  146.7220 N   0  0  0  0  0  2  0  0  0  0  0  0
  161.2620  202.4190  151.7760 C   0  0  0  0  0  3  0  0  0  0  0  0
  162.0270  206.5890  146.9100 C   0  0  1  0  0  3  0  0  0  0  0  0
  162.6880  206.1710  145.6040 C   0  0  0  0  0  2  0  0  0  0  0  0
  160.4810  207.3690  151.1470 S   0  0  0  0  0  0  0  0  0  0  0  0
  161.3710  204.7960  151.3020 C   0  0  0  0  0  0  0  0  0  0  0  0
  161.5160  203.7260  152.1920 C   0  0  0  0  0  3  0  0  0  0  0  0
  161.3120  209.6880  147.7890 O   0  0  0  0  0  0  0  0  0  0  0  0
  162.0190  209.9790  148.7910 C   0  0  0  0  0  0  0  0  0  0  0  0
  162.6610  208.9510  149.5500 N   0  0  0  0  0  2  0  0  0  0  0  0
  160.9330  213.7580  147.7430 C   0  0  1  0  0  3  0  0  0  0  0  0
  160.8250  212.0070  149.5630 C   0  0  0  0  0  2  0  0  0  0  0  0
  163.9050  211.4900  147.4580 F   0  0  0  0  0  0  0  0  0  0  0  0
  159.7190  213.6590  147.0900 F   0  0  0  0  0  0  0  0  0  0  0  0
  160.7400  213.4980  149.2440 C   0  0  0  0  0  2  0  0  0  0  0  0
  162.9240  212.2340  148.0930 C   0  0  2  0  0  3  0  0  0  0  0  0
  162.1900  211.4140  149.1770 C   0  0  2  0  0  3  0  0  0  0  0  0
  161.9480  212.8170  147.0770 C   0  0  0  0  0  2  0  0  0  0  0  0
  1 14  1  0  0  0  0
  2 13  1  0  0  0  0
  2  3  1  1  0  0  0
  3 19  1  0  0  0  0
  4 15  2  0  0  0  0
  5 14  1  6  0  0  0
  5  2  1  0  0  0  0
  6  1  1  0  0  0  0
  6 17  1  0  0  0  0
  7  3  2  0  0  0  0
  7  4  1  0  0  0  0
  8 13  1  0  0  0  0
  8 23  1  6  0  0  0
  9  1  2  0  0  0  0
 11  4  1  0  0  0  0
 12  8  1  0  0  0  0
 13 18  1  1  0  0  0
 15 20  1  0  0  0  0
 16 17  1  6  0  0  0
 16  5  1  0  0  0  0
 16 12  1  0  0  0  0
 18 10  1  0  0  0  0
 19 10  1  0  0  0  0
 19 20  2  0  0  0  0
 21 22  2  0  0  0  0
 22 23  1  0  0  0  0
 24 27  1  6  0  0  0
 24 28  1  0  0  0  0
 28 25  1  0  0  0  0
 29 26  1  6  0  0  0
 29 30  1  0  0  0  0
 30 22  1  6  0  0  0
 30 25  1  0  0  0  0
 31 24  1  0  0  0  0
 31 29  1  0  0  0  0
M  END
>  <MODEL>
1

>  <REMARK>
 VINA RESULT:      -6.8      0.000      0.000
  Name = 
  2 active torsions:
  status: ('A' for Active; 'I' for Inactive)
    1  A    between atoms: C_5  and  C_30
    2  A    between atoms: C_10  and  N_16
                            x       y       z     vdW  Elec       q    Type
                         _______ _______ _______ _____ _____    ______ ____

>  <TORSDO>
F 2

$$$$
=
 OpenBabel11122413243D

 31 35  0  0  1  0  0  0  0  0999 V2000
  160.9140  206.9330  146.8850 C   0  0  0  0  0  0  0  0  0  0  0  0
  160.6350  204.7610  149.9800 C   0  0  2  0  0  3  0  0  0  0  0  0
  160.9110  203.2800  149.7810 C   0  0  0  0  0  0  0  0  0  0  0  0
  160.9900  201.3910  148.2430 C   0  0  0  0  0  0  0  0  0  0  0  0
  161.4310  205.6190  148.9790 C   0  0  1  0  0  3  0  0  0  0  0  0
  161.7340  208.1010  147.3480 C   0  0  0  0  0  2  0  0  0  0  0  0
  160.7930  202.7520  148.4860 C   0  0  0  0  0  3  0  0  0  0  0  0
  162.1640  205.7450  151.8080 C   0  0  2  0  0  3  0  0  0  0  0  0
  160.3800  206.9610  145.7460 O   0  0  0  0  0  0  0  0  0  0  0  0
  161.3190  202.8590  152.2630 C   0  0  0  0  0  2  0  0  0  0  0  0
  160.8720  200.8590  146.8600 C   0  0  0  0  0  1  0  0  0  0  0  0
  162.7910  206.6960  150.7740 C   0  0  0  0  0  2  0  0  0  0  0  0
  160.7440  205.2830  151.4330 C   0  0  2  0  0  3  0  0  0  0  0  0
  160.6500  205.8330  147.7640 N   0  0  0  0  0  2  0  0  0  0  0  0
  161.2970  200.5330  149.2980 C   0  0  0  0  0  3  0  0  0  0  0  0
  161.8920  206.9530  149.5680 C   0  0  1  0  0  3  0  0  0  0  0  0
  162.6600  207.7240  148.5030 C   0  0  0  0  0  2  0  0  0  0  0  0
  160.0540  204.1050  152.6440 S   0  0  0  0  0  0  0  0  0  0  0  0
  161.1900  202.3930  150.8510 C   0  0  0  0  0  0  0  0  0  0  0  0
  161.3950  201.0330  150.5960 C   0  0  0  0  0  3  0  0  0  0  0  0
  160.5590  208.0030  152.5240 O   0  0  0  0  0  0  0  0  0  0  0  0
  161.3080  207.5100  153.4100 C   0  0  0  0  0  0  0  0  0  0  0  0
  162.1450  206.3890  153.1130 N   0  0  0  0  0  2  0  0  0  0  0  0
  159.2780  210.0780  155.8280 C   0  0  1  0  0  3  0  0  0  0  0  0
  160.0560  207.6900  155.5400 C   0  0  0  0  0  2  0  0  0  0  0  0
  162.3840  210.0320  153.7280 F   0  0  0  0  0  0  0  0  0  0  0  0
  157.9630  210.0700  155.4050 F   0  0  0  0  0  0  0  0  0  0  0  0
  159.6050  208.7550  156.5360 C   0  0  0  0  0  2  0  0  0  0  0  0
  161.5260  209.6460  154.7440 C   0  0  2  0  0  3  0  0  0  0  0  0
  161.3220  208.1160  154.7780 C   0  0  2  0  0  3  0  0  0  0  0  0
  160.1950  210.3850  154.6340 C   0  0  0  0  0  2  0  0  0  0  0  0
  1  6  1  0  0  0  0
  1 14  1  0  0  0  0
  2  3  1  1  0  0  0
  2 13  1  0  0  0  0
  3 19  1  0  0  0  0
  4  7  1  0  0  0  0
  4 15  2  0  0  0  0
  5 14  1  6  0  0  0
  5 16  1  0  0  0  0
  5  2  1  0  0  0  0
  6 17  1  0  0  0  0
  7  3  2  0  0  0  0
  8 23  1  1  0  0  0
  9  1  2  0  0  0  0
 10 18  1  0  0  0  0
 11  4  1  0  0  0  0
 12  8  1  0  0  0  0
 13  8  1  0  0  0  0
 13 18  1  1  0  0  0
 15 20  1  0  0  0  0
 16 17  1  6  0  0  0
 16 12  1  0  0  0  0
 19 10  1  0  0  0  0
 20 19  2  0  0  0  0
 21 22  2  0  0  0  0
 23 22  1  0  0  0  0
 24 27  1  6  0  0  0
 24 28  1  0  0  0  0
 25 28  1  0  0  0  0
 29 26  1  6  0  0  0
 29 30  1  0  0  0  0
 30 22  1  6  0  0  0
 30 25  1  0  0  0  0
 31 29  1  0  0  0  0
 31 24  1  0  0  0  0
M  END
>  <MODEL>
2

>  <REMARK>
 VINA RESULT:      -6.6      3.520      4.853
  Name = 
  2 active torsions:
  status: ('A' for Active; 'I' for Inactive)
    1  A    between atoms: C_5  and  C_30
    2  A    between atoms: C_10  and  N_16
                            x       y       z     vdW  Elec       q    Type
                         _______ _______ _______ _____ _____    ______ ____

>  <TORSDO>
F 2

$$$$
=
 OpenBabel11122413243D

 31 35  0  0  1  0  0  0  0  0999 V2000
  161.2940  200.8630  148.7940 C   0  0  0  0  0  0  0  0  0  0  0  0
  161.8760  204.6070  148.9180 C   0  0  2  0  0  3  0  0  0  0  0  0
  161.3700  205.4000  147.7230 C   0  0  0  0  0  0  0  0  0  0  0  0
  160.7400  205.3920  145.3690 C   0  0  0  0  0  0  0  0  0  0  0  0
  161.0230  203.3470  149.1570 C   0  0  1  0  0  3  0  0  0  0  0  0
  160.7450  200.5470  150.1540 C   0  0  0  0  0  2  0  0  0  0  0  0
  161.1610  204.7160  146.5150 C   0  0  0  0  0  3  0  0  0  0  0  0
  160.8800  205.5160  151.1150 C   0  0  2  0  0  3  0  0  0  0  0  0
  161.5950  199.9240  148.0130 O   0  0  0  0  0  0  0  0  0  0  0  0
  161.4010  207.6180  148.9790 C   0  0  0  0  0  2  0  0  0  0  0  0
  160.5130  204.6440  144.1050 C   0  0  0  0  0  1  0  0  0  0  0  0
  160.1970  204.1610  151.3680 C   0  0  0  0  0  2  0  0  0  0  0  0
  162.1240  205.4160  150.2130 C   0  0  2  0  0  3  0  0  0  0  0  0
  161.5740  202.2160  148.4160 N   0  0  0  0  0  2  0  0  0  0  0  0
  160.5320  206.7700  145.4120 C   0  0  0  0  0  3  0  0  0  0  0  0
  160.8690  203.0020  150.6390 C   0  0  1  0  0  3  0  0  0  0  0  0
  160.0200  201.7440  150.7670 C   0  0  0  0  0  2  0  0  0  0  0  0
  162.8710  207.0470  149.8780 S   0  0  0  0  0  0  0  0  0  0  0  0
  161.1890  206.8040  147.7470 C   0  0  0  0  0  0  0  0  0  0  0  0
  160.7570  207.4720  146.5950 C   0  0  0  0  0  3  0  0  0  0  0  0
  160.3130  208.2120  151.8860 O   0  0  0  0  0  0  0  0  0  0  0  0
  160.9140  207.4780  152.7150 C   0  0  0  0  0  0  0  0  0  0  0  0
  161.2390  206.1250  152.3860 N   0  0  0  0  0  2  0  0  0  0  0  0
  159.6460  210.0060  155.6410 C   0  0  1  0  0  3  0  0  0  0  0  0
  160.2580  207.6140  155.1000 C   0  0  0  0  0  2  0  0  0  0  0  0
  162.1040  209.9670  152.8100 F   0  0  0  0  0  0  0  0  0  0  0  0
  158.2660  210.0390  155.5710 F   0  0  0  0  0  0  0  0  0  0  0  0
  160.1080  208.6560  156.2060 C   0  0  0  0  0  2  0  0  0  0  0  0
  161.5260  209.5660  154.0030 C   0  0  2  0  0  3  0  0  0  0  0  0
  161.2970  208.0390  154.0490 C   0  0  2  0  0  3  0  0  0  0  0  0
  160.2330  210.3330  154.2590 C   0  0  0  0  0  2  0  0  0  0  0  0
  1  6  1  0  0  0  0
  2  3  1  6  0  0  0
  2  5  1  0  0  0  0
  2 13  1  0  0  0  0
  3 19  1  0  0  0  0
  4 15  2  0  0  0  0
  4  7  1  0  0  0  0
  5 14  1  6  0  0  0
  5 16  1  0  0  0  0
  6 17  1  0  0  0  0
  7  3  2  0  0  0  0
  8 12  1  0  0  0  0
  8 23  1  1  0  0  0
  9  1  2  0  0  0  0
 10 18  1  0  0  0  0
 11  4  1  0  0  0  0
 13 18  1  6  0  0  0
 13  8  1  0  0  0  0
 14  1  1  0  0  0  0
 15 20  1  0  0  0  0
 16 17  1  6  0  0  0
 16 12  1  0  0  0  0
 19 10  1  0  0  0  0
 20 19  2  0  0  0  0
 21 22  2  0  0  0  0
 23 22  1  0  0  0  0
 24 27  1  6  0  0  0
 24 28  1  0  0  0  0
 25 28  1  0  0  0  0
 29 26  1  6  0  0  0
 29 30  1  0  0  0  0
 29 31  1  0  0  0  0
 30 22  1  6  0  0  0
 30 25  1  0  0  0  0
 31 24  1  0  0  0  0
M  END
>  <MODEL>
3

>  <REMARK>
 VINA RESULT:      -5.9      3.434      5.751
  Name = 
  2 active torsions:
  status: ('A' for Active; 'I' for Inactive)
    1  A    between atoms: C_5  and  C_30
    2  A    between atoms: C_10  and  N_16
                            x       y       z     vdW  Elec       q    Type
                         _______ _______ _______ _____ _____    ______ ____

>  <TORSDO>
F 2

$$$$
=
 OpenBabel11122413243D

 31 35  0  0  1  0  0  0  0  0999 V2000
  160.5090  211.2630  155.0570 C   0  0  0  0  0  0  0  0  0  0  0  0
  161.7410  210.3550  151.5880 C   0  0  2  0  0  3  0  0  0  0  0  0
  161.5860  208.8970  151.1870 C   0  0  0  0  0  0  0  0  0  0  0  0
  161.3520  206.5810  151.9070 C   0  0  0  0  0  0  0  0  0  0  0  0
  160.6440  210.7820  152.5820 C   0  0  1  0  0  3  0  0  0  0  0  0
  159.7000  212.5060  154.8290 C   0  0  0  0  0  2  0  0  0  0  0  0
  161.4530  207.9410  152.2060 C   0  0  0  0  0  3  0  0  0  0  0  0
  160.5880  211.9060  149.8810 C   0  0  2  0  0  3  0  0  0  0  0  0
  160.7540  210.8890  156.2330 O   0  0  0  0  0  0  0  0  0  0  0  0
  161.8220  209.3910  148.6970 C   0  0  0  0  0  2  0  0  0  0  0  0
  161.1980  205.5890  153.0030 C   0  0  0  0  0  1  0  0  0  0  0  0
  159.6370  212.4110  150.9790 C   0  0  0  0  0  2  0  0  0  0  0  0
  161.9210  211.3630  150.4270 C   0  0  2  0  0  3  0  0  0  0  0  0
  161.0900  210.5580  153.9540 N   0  0  0  0  0  2  0  0  0  0  0  0
  161.3960  206.1550  150.5800 C   0  0  0  0  0  3  0  0  0  0  0  0
  160.1930  212.2310  152.3880 C   0  0  1  0  0  3  0  0  0  0  0  0
  159.1180  212.5550  153.4170 C   0  0  0  0  0  2  0  0  0  0  0  0
  162.9990  210.7110  149.1070 S   0  0  0  0  0  0  0  0  0  0  0  0
  161.6650  208.4510  149.8450 C   0  0  0  0  0  0  0  0  0  0  0  0
  161.5530  207.0860  149.5550 C   0  0  0  0  0  3  0  0  0  0  0  0
  160.0240  211.8070  147.0780 O   0  0  0  0  0  0  0  0  0  0  0  0
  160.5260  212.8670  147.5380 C   0  0  0  0  0  0  0  0  0  0  0  0
  160.8440  212.9760  148.9290 N   0  0  0  0  0  2  0  0  0  0  0  0
  161.9830  213.7640  143.8460 C   0  0  1  0  0  3  0  0  0  0  0  0
  159.9480  213.8570  145.3430 C   0  0  0  0  0  2  0  0  0  0  0  0
  163.0840  213.8970  147.4280 F   0  0  0  0  0  0  0  0  0  0  0  0
  161.7850  212.6470  143.0560 F   0  0  0  0  0  0  0  0  0  0  0  0
  160.6390  214.4530  144.1190 C   0  0  0  0  0  2  0  0  0  0  0  0
  162.3040  214.1890  146.3220 C   0  0  2  0  0  3  0  0  0  0  0  0
  160.7980  214.0120  146.6150 C   0  0  2  0  0  3  0  0  0  0  0  0
  162.7410  213.3580  145.1190 C   0  0  0  0  0  2  0  0  0  0  0  0
  1  9  2  0  0  0  0
  2  3  1  6  0  0  0
  2  5  1  0  0  0  0
  3  7  1  0  0  0  0
  4  7  2  0  0  0  0
  4 11  1  0  0  0  0
  5 14  1  1  0  0  0
  6  1  1  0  0  0  0
  8 23  1  6  0  0  0
  8 13  1  0  0  0  0
  8 12  1  0  0  0  0
 10 18  1  0  0  0  0
 10 19  1  0  0  0  0
 13 18  1  6  0  0  0
 13  2  1  0  0  0  0
 14  1  1  0  0  0  0
 15  4  1  0  0  0  0
 16 12  1  6  0  0  0
 16  5  1  0  0  0  0
 16 17  1  0  0  0  0
 17  6  1  0  0  0  0
 19  3  2  0  0  0  0
 20 19  1  0  0  0  0
 20 15  2  0  0  0  0
 21 22  2  0  0  0  0
 22 23  1  0  0  0  0
 24 27  1  6  0  0  0
 24 28  1  0  0  0  0
 24 31  1  0  0  0  0
 25 30  1  0  0  0  0
 28 25  1  0  0  0  0
 29 30  1  0  0  0  0
 29 26  1  1  0  0  0
 30 22  1  1  0  0  0
 31 29  1  0  0  0  0
M  END
>  <MODEL>
4

>  <REMARK>
 VINA RESULT:      -5.4      3.578      6.426
  Name = 
  2 active torsions:
  status: ('A' for Active; 'I' for Inactive)
    1  A    between atoms: C_5  and  C_30
    2  A    between atoms: C_10  and  N_16
                            x       y       z     vdW  Elec       q    Type
                         _______ _______ _______ _____ _____    ______ ____

>  <TORSDO>
F 2

$$$$
=
 OpenBabel11122413243D

 31 35  0  0  1  0  0  0  0  0999 V2000
  161.2280  208.3780  155.4550 C   0  0  0  0  0  0  0  0  0  0  0  0
  161.9520  208.2970  151.7340 C   0  0  2  0  0  3  0  0  0  0  0  0
  161.4630  207.0670  150.9870 C   0  0  0  0  0  0  0  0  0  0  0  0
  160.8080  204.7230  151.0950 C   0  0  0  0  0  0  0  0  0  0  0  0
  161.0550  208.6110  152.9470 C   0  0  1  0  0  3  0  0  0  0  0  0
  160.6820  209.7580  155.6770 C   0  0  0  0  0  2  0  0  0  0  0  0
  161.2160  205.8990  151.7260 C   0  0  0  0  0  3  0  0  0  0  0  0
  161.0140  210.4520  150.6730 C   0  0  2  0  0  3  0  0  0  0  0  0
  161.4850  207.6450  156.4450 O   0  0  0  0  0  0  0  0  0  0  0  0
  161.5910  208.2030  148.7080 C   0  0  0  0  0  2  0  0  0  0  0  0
  160.5400  203.5020  151.8990 C   0  0  0  0  0  1  0  0  0  0  0  0
  160.2830  210.7820  151.9860 C   0  0  0  0  0  2  0  0  0  0  0  0
  162.2430  209.5460  150.8680 C   0  0  2  0  0  3  0  0  0  0  0  0
  161.5550  207.9270  154.1360 N   0  0  0  0  0  2  0  0  0  0  0  0
  160.6520  204.6930  149.7090 C   0  0  0  0  0  3  0  0  0  0  0  0
  160.9030  210.1100  153.2070 C   0  0  1  0  0  3  0  0  0  0  0  0
  160.0080  210.3120  154.4230 C   0  0  0  0  0  2  0  0  0  0  0  0
  163.0480  209.1190  149.2870 S   0  0  0  0  0  0  0  0  0  0  0  0
  161.3350  207.0170  149.5780 C   0  0  0  0  0  0  0  0  0  0  0  0
  160.9160  205.8360  148.9550 C   0  0  0  0  0  3  0  0  0  0  0  0
  160.6350  211.0480  147.9010 O   0  0  0  0  0  0  0  0  0  0  0  0
  161.1800  211.9270  148.6210 C   0  0  0  0  0  0  0  0  0  0  0  0
  161.4090  211.6860  150.0130 N   0  0  0  0  0  2  0  0  0  0  0  0
  162.2480  213.6310  145.0840 C   0  0  1  0  0  3  0  0  0  0  0  0
  160.5530  213.6520  146.9590 C   0  0  0  0  0  2  0  0  0  0  0  0
  163.8700  212.4070  148.2350 F   0  0  0  0  0  0  0  0  0  0  0  0
  161.6550  212.8830  144.0850 F   0  0  0  0  0  0  0  0  0  0  0  0
  161.1830  214.4530  145.8220 C   0  0  0  0  0  2  0  0  0  0  0  0
  163.0340  213.1820  147.4490 C   0  0  2  0  0  3  0  0  0  0  0  0
  161.5950  213.2260  148.0060 C   0  0  2  0  0  3  0  0  0  0  0  0
  163.0590  212.7020  146.0010 C   0  0  0  0  0  2  0  0  0  0  0  0
  1  6  1  0  0  0  0
  1  9  2  0  0  0  0
  2  3  1  6  0  0  0
  2  5  1  0  0  0  0
  3  7  1  0  0  0  0
  4  7  2  0  0  0  0
  4 11  1  0  0  0  0
  5 16  1  0  0  0  0
  5 14  1  1  0  0  0
  8 23  1  1  0  0  0
  8 13  1  0  0  0  0
  8 12  1  0  0  0  0
 10 18  1  0  0  0  0
 10 19  1  0  0  0  0
 13 18  1  6  0  0  0
 13  2  1  0  0  0  0
 14  1  1  0  0  0  0
 15  4  1  0  0  0  0
 16 12  1  6  0  0  0
 16 17  1  0  0  0  0
 17  6  1  0  0  0  0
 19  3  2  0  0  0  0
 20 19  1  0  0  0  0
 20 15  2  0  0  0  0
 21 22  2  0  0  0  0
 22 23  1  0  0  0  0
 24 27  1  6  0  0  0
 24 28  1  0  0  0  0
 24 31  1  0  0  0  0
 25 30  1  0  0  0  0
 28 25  1  0  0  0  0
 29 30  1  0  0  0  0
 29 26  1  1  0  0  0
 30 22  1  6  0  0  0
 31 29  1  0  0  0  0
M  END
>  <MODEL>
5

>  <REMARK>
 VINA RESULT:      -5.3      3.013      5.449
  Name = 
  2 active torsions:
  status: ('A' for Active; 'I' for Inactive)
    1  A    between atoms: C_5  and  C_30
    2  A    between atoms: C_10  and  N_16
                            x       y       z     vdW  Elec       q    Type
                         _______ _______ _______ _____ _____    ______ ____

>  <TORSDO>
F 2

$$$$
=
 OpenBabel11122413243D

 31 35  0  0  1  0  0  0  0  0999 V2000
  161.3620  201.8490  150.6470 C   0  0  0  0  0  0  0  0  0  0  0  0
  161.8870  205.1110  148.7880 C   0  0  2  0  0  3  0  0  0  0  0  0
  161.2890  205.1860  147.3930 C   0  0  0  0  0  0  0  0  0  0  0  0
  160.5050  203.9810  145.4250 C   0  0  0  0  0  0  0  0  0  0  0  0
  161.0730  204.1700  149.6970 C   0  0  1  0  0  3  0  0  0  0  0  0
  160.9090  202.2890  152.0080 C   0  0  0  0  0  2  0  0  0  0  0  0
  161.0130  203.9820  146.7250 C   0  0  0  0  0  3  0  0  0  0  0  0
  161.0220  207.0400  150.2640 C   0  0  2  0  0  3  0  0  0  0  0  0
  161.6270  200.6360  150.4430 O   0  0  0  0  0  0  0  0  0  0  0  0
  161.3650  207.7330  147.3230 C   0  0  0  0  0  2  0  0  0  0  0  0
  160.2090  202.6930  144.7440 C   0  0  0  0  0  1  0  0  0  0  0  0
  160.3810  206.0210  151.2220 C   0  0  0  0  0  2  0  0  0  0  0  0
  162.2050  206.4670  149.4630 C   0  0  2  0  0  3  0  0  0  0  0  0
  161.5930  202.8090  149.6100 N   0  0  0  0  0  2  0  0  0  0  0  0
  160.2770  205.1880  144.7650 C   0  0  0  0  0  3  0  0  0  0  0  0
  161.0230  204.6400  151.1520 C   0  0  1  0  0  3  0  0  0  0  0  0
  160.2050  203.6440  151.9640 C   0  0  0  0  0  2  0  0  0  0  0  0
  162.9010  207.6780  148.2890 S   0  0  0  0  0  0  0  0  0  0  0  0
  161.0860  206.4050  146.7010 C   0  0  0  0  0  0  0  0  0  0  0  0
  160.5670  206.3940  145.4020 C   0  0  0  0  0  3  0  0  0  0  0  0
  160.4510  207.5490  153.0200 O   0  0  0  0  0  0  0  0  0  0  0  0
  161.1440  208.3980  152.3980 C   0  0  0  0  0  0  0  0  0  0  0  0
  161.4540  208.2090  151.0150 N   0  0  0  0  0  2  0  0  0  0  0  0
  159.8910  211.5220  154.6850 C   0  0  1  0  0  3  0  0  0  0  0  0
  161.3590  209.4650  154.6230 C   0  0  0  0  0  2  0  0  0  0  0  0
  160.9310  210.8490  151.1470 F   0  0  0  0  0  0  0  0  0  0  0  0
  158.7390  211.1110  155.3280 F   0  0  0  0  0  0  0  0  0  0  0  0
  161.1090  210.8130  155.2940 C   0  0  0  0  0  2  0  0  0  0  0  0
  161.0640  210.9210  152.5230 C   0  0  2  0  0  3  0  0  0  0  0  0
  161.6330  209.6150  153.1180 C   0  0  2  0  0  3  0  0  0  0  0  0
  159.7370  211.3000  153.1730 C   0  0  0  0  0  2  0  0  0  0  0  0
  1  6  1  0  0  0  0
  2  3  1  6  0  0  0
  2 13  1  0  0  0  0
  2  5  1  0  0  0  0
  4  7  2  0  0  0  0
  5 14  1  1  0  0  0
  5 16  1  0  0  0  0
  7  3  1  0  0  0  0
  8 23  1  1  0  0  0
  8 12  1  0  0  0  0
  9  1  2  0  0  0  0
 10 18  1  0  0  0  0
 11  4  1  0  0  0  0
 13 18  1  6  0  0  0
 13  8  1  0  0  0  0
 14  1  1  0  0  0  0
 15 20  2  0  0  0  0
 15  4  1  0  0  0  0
 16 12  1  6  0  0  0
 16 17  1  0  0  0  0
 17  6  1  0  0  0  0
 19 10  1  0  0  0  0
 19  3  2  0  0  0  0
 20 19  1  0  0  0  0
 22 21  2  0  0  0  0
 23 22  1  0  0  0  0
 24 28  1  0  0  0  0
 24 27  1  1  0  0  0
 25 28  1  0  0  0  0
 29 26  1  6  0  0  0
 29 30  1  0  0  0  0
 29 31  1  0  0  0  0
 30 22  1  6  0  0  0
 30 25  1  0  0  0  0
 31 24  1  0  0  0  0
M  END
>  <MODEL>
6

>  <REMARK>
 VINA RESULT:      -4.6      3.380      5.356
  Name = 
  2 active torsions:
  status: ('A' for Active; 'I' for Inactive)
    1  A    between atoms: C_5  and  C_30
    2  A    between atoms: C_10  and  N_16
                            x       y       z     vdW  Elec       q    Type
                         _______ _______ _______ _____ _____    ______ ____

>  <TORSDO>
F 2

$$$$
=
 OpenBabel11122413243D

 31 35  0  0  1  0  0  0  0  0999 V2000
  160.6510  206.5610  146.6940 C   0  0  0  0  0  0  0  0  0  0  0  0
  160.6030  205.5250  150.3410 C   0  0  2  0  0  3  0  0  0  0  0  0
  160.9700  204.0780  150.6270 C   0  0  0  0  0  0  0  0  0  0  0  0
  161.1260  201.7940  149.7920 C   0  0  0  0  0  0  0  0  0  0  0  0
  161.3120  206.0430  149.0760 C   0  0  1  0  0  3  0  0  0  0  0  0
  161.4060  207.8580  146.7070 C   0  0  0  0  0  2  0  0  0  0  0  0
  160.8490  203.1460  149.5840 C   0  0  0  0  0  3  0  0  0  0  0  0
  162.1170  207.1370  151.6680 C   0  0  2  0  0  3  0  0  0  0  0  0
  160.0830  206.1840  145.6370 O   0  0  0  0  0  0  0  0  0  0  0  0
  161.4750  204.5240  153.0860 C   0  0  0  0  0  2  0  0  0  0  0  0
  161.0040  200.8280  148.6690 C   0  0  0  0  0  1  0  0  0  0  0  0
  162.6500  207.7230  150.3490 C   0  0  0  0  0  2  0  0  0  0  0  0
  160.7200  206.5030  151.5350 C   0  0  2  0  0  3  0  0  0  0  0  0
  160.4840  205.8030  147.8980 N   0  0  0  0  0  2  0  0  0  0  0  0
  161.5190  201.3500  151.0540 C   0  0  0  0  0  3  0  0  0  0  0  0
  161.7030  207.5190  149.1710 C   0  0  1  0  0  3  0  0  0  0  0  0
  162.3870  207.9340  147.8750 C   0  0  0  0  0  2  0  0  0  0  0  0
  160.1440  205.7580  153.0980 S   0  0  0  0  0  0  0  0  0  0  0  0
  161.3360  203.6110  151.9130 C   0  0  0  0  0  0  0  0  0  0  0  0
  161.6220  202.2550  152.1100 C   0  0  0  0  0  3  0  0  0  0  0  0
  161.2340  209.8290  151.2780 O   0  0  0  0  0  0  0  0  0  0  0  0
  161.6280  209.5020  152.4300 C   0  0  0  0  0  0  0  0  0  0  0  0
  162.0930  208.1740  152.6870 N   0  0  0  0  0  2  0  0  0  0  0  0
  161.1760  209.9040  156.4540 C   0  0  1  0  0  3  0  0  0  0  0  0
  162.7600  210.2270  154.5100 C   0  0  0  0  0  2  0  0  0  0  0  0
  159.1930  210.4500  153.3190 F   0  0  0  0  0  0  0  0  0  0  0  0
  161.5600  208.7040  157.0220 F   0  0  0  0  0  0  0  0  0  0  0  0
  162.4110  210.6530  155.9340 C   0  0  0  0  0  2  0  0  0  0  0  0
  160.2340  210.6230  154.2160 C   0  0  2  0  0  3  0  0  0  0  0  0
  161.6130  210.5180  153.5280 C   0  0  2  0  0  3  0  0  0  0  0  0
  160.1130  209.6400  155.3770 C   0  0  0  0  0  2  0  0  0  0  0  0
  1  6  1  0  0  0  0
  1 14  1  0  0  0  0
  2  3  1  1  0  0  0
  2 13  1  0  0  0  0
  3 19  1  0  0  0  0
  4 15  2  0  0  0  0
  5 14  1  6  0  0  0
  5 16  1  0  0  0  0
  5  2  1  0  0  0  0
  6 17  1  0  0  0  0
  7  4  1  0  0  0  0
  7  3  2  0  0  0  0
  8 23  1  1  0  0  0
  9  1  2  0  0  0  0
 10 18  1  0  0  0  0
 11  4  1  0  0  0  0
 12  8  1  0  0  0  0
 13  8  1  0  0  0  0
 13 18  1  1  0  0  0
 15 20  1  0  0  0  0
 16 17  1  6  0  0  0
 16 12  1  0  0  0  0
 19 20  2  0  0  0  0
 19 10  1  0  0  0  0
 21 22  2  0  0  0  0
 22 23  1  0  0  0  0
 24 27  1  6  0  0  0
 25 28  1  0  0  0  0
 28 24  1  0  0  0  0
 29 26  1  6  0  0  0
 29 31  1  0  0  0  0
 30 22  1  6  0  0  0
 30 29  1  0  0  0  0
 30 25  1  0  0  0  0
 31 24  1  0  0  0  0
M  END
>  <MODEL>
7

>  <REMARK>
 VINA RESULT:      -4.6      3.548      4.508
  Name = 
  2 active torsions:
  status: ('A' for Active; 'I' for Inactive)
    1  A    between atoms: C_5  and  C_30
    2  A    between atoms: C_10  and  N_16
                            x       y       z     vdW  Elec       q    Type
                         _______ _______ _______ _____ _____    ______ ____

>  <TORSDO>
F 2

$$$$
=
 OpenBabel11122413243D

 31 35  0  0  1  0  0  0  0  0999 V2000
  162.3410  213.2330  148.2860 C   0  0  0  0  0  0  0  0  0  0  0  0
  161.6230  210.8590  151.1540 C   0  0  2  0  0  3  0  0  0  0  0  0
  160.4650  211.2420  152.0610 C   0  0  0  0  0  0  0  0  0  0  0  0
  159.0310  213.0120  152.9280 C   0  0  0  0  0  0  0  0  0  0  0  0
  161.4060  211.3760  149.7190 C   0  0  1  0  0  3  0  0  0  0  0  0
  162.4920  212.3210  147.1040 C   0  0  0  0  0  2  0  0  0  0  0  0
  160.0580  212.5860  152.0830 C   0  0  0  0  0  3  0  0  0  0  0  0
  161.2920  208.4910  150.1900 C   0  0  2  0  0  3  0  0  0  0  0  0
  162.6210  214.4530  148.1670 O   0  0  0  0  0  0  0  0  0  0  0  0
  160.2190  208.8880  153.0080 C   0  0  0  0  0  2  0  0  0  0  0  0
  158.6090  214.4370  152.9230 C   0  0  0  0  0  1  0  0  0  0  0  0
  161.2590  209.0730  148.7660 C   0  0  0  0  0  2  0  0  0  0  0  0
  162.0550  209.3740  151.1950 C   0  0  2  0  0  3  0  0  0  0  0  0
  161.9820  212.7090  149.5690 N   0  0  0  0  0  2  0  0  0  0  0  0
  158.4020  212.1000  153.7740 C   0  0  0  0  0  3  0  0  0  0  0  0
  161.9530  210.4270  148.6520 C   0  0  1  0  0  3  0  0  0  0  0  0
  161.6950  211.0280  147.2770 C   0  0  0  0  0  2  0  0  0  0  0  0
  162.0200  208.6900  152.8860 S   0  0  0  0  0  0  0  0  0  0  0  0
  159.8430  210.3310  152.9490 C   0  0  0  0  0  0  0  0  0  0  0  0
  158.8080  210.7660  153.7840 C   0  0  0  0  0  3  0  0  0  0  0  0
  160.0030  206.1300  149.2170 O   0  0  0  0  0  0  0  0  0  0  0  0
  161.1830  206.0200  149.6460 C   0  0  0  0  0  0  0  0  0  0  0  0
  161.8790  207.1600  150.1580 N   0  0  0  0  0  2  0  0  0  0  0  0
  160.4100  202.0250  149.6930 C   0  0  1  0  0  3  0  0  0  0  0  0
  161.4240  203.9180  148.3590 C   0  0  0  0  0  2  0  0  0  0  0  0
  161.5840  204.7050  152.0380 F   0  0  0  0  0  0  0  0  0  0  0  0
  159.1480  201.8550  149.1560 F   0  0  0  0  0  0  0  0  0  0  0  0
  161.4010  202.4080  148.5850 C   0  0  0  0  0  2  0  0  0  0  0  0
  161.6130  203.8830  150.9240 C   0  0  2  0  0  3  0  0  0  0  0  0
  161.8490  204.6810  149.6240 C   0  0  2  0  0  3  0  0  0  0  0  0
  160.3410  203.0430  150.8410 C   0  0  0  0  0  2  0  0  0  0  0  0
  1 14  1  0  0  0  0
  2 13  1  0  0  0  0
  2  3  1  1  0  0  0
  3  7  2  0  0  0  0
  3 19  1  0  0  0  0
  4 15  2  0  0  0  0
  5 14  1  1  0  0  0
  5  2  1  0  0  0  0
  6 17  1  0  0  0  0
  6  1  1  0  0  0  0
  7  4  1  0  0  0  0
  8 23  1  6  0  0  0
  8 13  1  0  0  0  0
  9  1  2  0  0  0  0
 11  4  1  0  0  0  0
 12  8  1  0  0  0  0
 13 18  1  1  0  0  0
 15 20  1  0  0  0  0
 16 17  1  6  0  0  0
 16 12  1  0  0  0  0
 16  5  1  0  0  0  0
 18 10  1  0  0  0  0
 19 10  1  0  0  0  0
 19 20  2  0  0  0  0
 21 22  2  0  0  0  0
 22 23  1  0  0  0  0
 24 27  1  6  0  0  0
 24 31  1  0  0  0  0
 25 28  1  0  0  0  0
 25 30  1  0  0  0  0
 28 24  1  0  0  0  0
 29 26  1  1  0  0  0
 30 22  1  1  0  0  0
 30 29  1  0  0  0  0
 31 29  1  0  0  0  0
M  END
>  <MODEL>
8

>  <REMARK>
 VINA RESULT:      -4.3      3.635      8.027
  Name = 
  2 active torsions:
  status: ('A' for Active; 'I' for Inactive)
    1  A    between atoms: C_5  and  C_30
    2  A    between atoms: C_10  and  N_16
                            x       y       z     vdW  Elec       q    Type
                         _______ _______ _______ _____ _____    ______ ____

>  <TORSDO>
F 2

$$$$
=
 OpenBabel11122413243D

 31 35  0  0  1  0  0  0  0  0999 V2000
  162.5900  207.9580  139.9980 C   0  0  0  0  0  0  0  0  0  0  0  0
  160.9050  211.2020  138.9900 C   0  0  2  0  0  3  0  0  0  0  0  0
  161.8270  212.3070  138.5010 C   0  0  0  0  0  0  0  0  0  0  0  0
  164.0710  213.2580  138.4920 C   0  0  0  0  0  0  0  0  0  0  0  0
  161.4870  209.8090  138.6810 C   0  0  1  0  0  3  0  0  0  0  0  0
  161.7610  206.9060  139.3220 C   0  0  0  0  0  2  0  0  0  0  0  0
  163.1810  212.2510  138.8700 C   0  0  0  0  0  3  0  0  0  0  0  0
  159.0950  210.6690  137.2320 C   0  0  2  0  0  3  0  0  0  0  0  0
  163.4760  207.6150  140.8220 O   0  0  0  0  0  0  0  0  0  0  0  0
  159.9470  213.5870  137.3500 C   0  0  0  0  0  2  0  0  0  0  0  0
  165.5020  213.1700  138.8840 C   0  0  0  0  0  1  0  0  0  0  0  0
  159.6340  209.2330  137.1100 C   0  0  0  0  0  2  0  0  0  0  0  0
  159.4170  211.3310  138.5850 C   0  0  2  0  0  3  0  0  0  0  0  0
  162.3120  209.3480  139.7940 N   0  0  0  0  0  2  0  0  0  0  0  0
  163.6170  214.3450  137.7470 C   0  0  0  0  0  3  0  0  0  0  0  0
  160.4130  208.7750  138.3380 C   0  0  1  0  0  3  0  0  0  0  0  0
  161.0870  207.4380  138.0580 C   0  0  0  0  0  2  0  0  0  0  0  0
  158.8240  213.0540  138.6740 S   0  0  0  0  0  0  0  0  0  0  0  0
  161.3690  213.4320  137.7740 C   0  0  0  0  0  0  0  0  0  0  0  0
  162.2710  214.4320  137.3910 C   0  0  0  0  0  3  0  0  0  0  0  0
  157.1380  209.6270  139.0390 O   0  0  0  0  0  0  0  0  0  0  0  0
  156.7290  210.1420  137.9640 C   0  0  0  0  0  0  0  0  0  0  0  0
  157.6570  210.6690  137.0120 N   0  0  0  0  0  2  0  0  0  0  0  0
  153.1030  210.4430  139.7850 C   0  0  1  0  0  3  0  0  0  0  0  0
  154.6930  211.5390  138.1540 C   0  0  0  0  0  2  0  0  0  0  0  0
  155.2630  207.8160  138.2070 F   0  0  0  0  0  0  0  0  0  0  0  0
  153.3080  211.1120  140.9770 F   0  0  0  0  0  0  0  0  0  0  0  0
  153.2400  211.4190  138.6090 C   0  0  0  0  0  2  0  0  0  0  0  0
  154.5080  208.9750  138.2740 C   0  0  2  0  0  3  0  0  0  0  0  0
  155.2600  210.1890  137.6850 C   0  0  2  0  0  3  0  0  0  0  0  0
  154.0550  209.2410  139.7070 C   0  0  0  0  0  2  0  0  0  0  0  0
  1  9  2  0  0  0  0
  2  3  1  6  0  0  0
  3  7  1  0  0  0  0
  4  7  2  0  0  0  0
  4 11  1  0  0  0  0
  5  2  1  0  0  0  0
  5 14  1  1  0  0  0
  6  1  1  0  0  0  0
  8 23  1  1  0  0  0
  8 13  1  0  0  0  0
 10 19  1  0  0  0  0
 10 18  1  0  0  0  0
 12  8  1  0  0  0  0
 13 18  1  6  0  0  0
 13  2  1  0  0  0  0
 14  1  1  0  0  0  0
 15  4  1  0  0  0  0
 16 12  1  6  0  0  0
 16  5  1  0  0  0  0
 17 16  1  0  0  0  0
 17  6  1  0  0  0  0
 19  3  2  0  0  0  0
 20 15  2  0  0  0  0
 20 19  1  0  0  0  0
 22 21  2  0  0  0  0
 23 22  1  0  0  0  0
 24 27  1  1  0  0  0
 25 28  1  0  0  0  0
 28 24  1  0  0  0  0
 29 26  1  1  0  0  0
 29 31  1  0  0  0  0
 30 22  1  1  0  0  0
 30 25  1  0  0  0  0
 30 29  1  0  0  0  0
 31 24  1  0  0  0  0
M  END
>  <MODEL>
9

>  <REMARK>
 VINA RESULT:      -4.0      9.891     12.710
  Name = 
  2 active torsions:
  status: ('A' for Active; 'I' for Inactive)
    1  A    between atoms: C_5  and  C_30
    2  A    between atoms: C_10  and  N_16
                            x       y       z     vdW  Elec       q    Type
                         _______ _______ _______ _____ _____    ______ ____

>  <TORSDO>
F 2

$$$$
