=
 OpenBabel11122412433D

 30 35  0  0  1  0  0  0  0  0999 V2000
  161.6730  207.7700  151.4080 C   0  0  2  0  0  3  0  0  0  0  0  0
  161.7610  210.2970  151.0440 C   0  0  2  0  0  3  0  0  0  0  0  0
  162.4210  207.0870  147.2540 N   0  0  0  0  0  2  0  0  0  0  0  0
  161.3700  206.4110  150.7540 C   0  0  2  0  0  3  0  0  0  0  0  0
  160.8360  207.9050  152.6740 C   0  0  0  0  0  2  0  0  0  0  0  0
  161.3950  204.4310  153.9390 O   0  0  0  0  0  1  0  0  0  0  0  0
  160.3640  203.8970  149.9510 C   0  0  1  0  0  3  0  0  0  0  0  0
  160.9700  205.4190  153.0460 C   0  0  1  0  0  3  0  0  0  0  0  0
  160.8960  204.2840  148.6200 N   0  0  2  0  0  0  0  0  0  0  0  0
  162.5300  205.6270  147.2120 C   0  0  2  0  0  3  0  0  0  0  0  0
  161.2110  206.8030  153.6630 C   0  0  2  0  0  3  0  0  0  0  0  0
  161.7190  205.2650  151.7110 C   0  0  1  0  0  3  0  0  0  0  0  0
  161.4100  211.4250  150.0700 C   0  0  0  0  0  2  0  0  0  0  0  0
  161.1050  202.9920  147.9570 C   0  0  0  0  0  2  0  0  0  0  0  0
  159.8020  202.5290  149.7850 C   0  0  0  0  0  2  0  0  0  0  0  0
  163.1200  210.3470  151.3680 O   0  0  0  0  0  1  0  0  0  0  0  0
  161.7330  207.3820  148.4990 C   0  0  1  0  0  3  0  0  0  0  0  0
  162.0850  211.2170  148.7140 C   0  0  0  0  0  2  0  0  0  0  0  0
  161.3920  208.9350  150.4350 C   0  0  1  0  0  3  0  0  0  0  0  0
  162.1660  206.3130  149.4540 C   0  0  2  0  0  3  0  0  0  0  0  0
  161.7290  205.0970  146.0310 C   0  0  0  0  0  1  0  0  0  0  0  0
  162.1750  205.0400  148.6100 C   0  0  1  0  0  3  0  0  0  0  0  0
  160.2260  202.0160  148.6480 C   0  0  0  0  0  2  0  0  0  0  0  0
  161.9940  202.9430  151.4180 O   0  0  0  0  0  0  0  0  0  0  0  0
  161.6940  209.8640  148.1250 C   0  0  0  0  0  2  0  0  0  0  0  0
  162.1060  208.7420  149.0760 C   0  0  2  0  0  3  0  0  0  0  0  0
  161.3850  203.9460  151.0740 C   0  0  0  0  0  0  0  0  0  0  0  0
  160.3860  206.9600  154.9310 C   0  0  0  0  0  2  0  0  0  0  0  0
  161.9400  208.2480  156.5850 O   0  0  0  0  0  0  0  0  0  0  0  0
  160.7320  208.5480  155.7100 S   0  0  0  0  0  3  0  0  0  0  0  0
  1  5  1  1  0  0  0
  2 16  1  6  0  0  0
  3 17  1  0  0  0  0
  4  1  1  0  0  0  0
  4 12  1  0  0  0  0
  5 11  1  0  0  0  0
  7 27  1  0  0  0  0
  8 11  1  0  0  0  0
  8  6  1  0  0  0  0
  9  7  1  0  0  0  0
 10  3  1  0  0  0  0
 10 22  1  0  0  0  0
 11 28  1  0  0  0  0
 12  8  1  0  0  0  0
 13  2  1  0  0  0  0
 14  9  1  0  0  0  0
 14 23  1  0  0  0  0
 15  7  1  0  0  0  0
 17 26  1  0  0  0  0
 17 20  1  0  0  0  0
 18 13  1  0  0  0  0
 19  2  1  0  0  0  0
 19  1  1  0  0  0  0
 20  4  1  0  0  0  0
 21 10  1  0  0  0  0
 22  9  1  0  0  0  0
 22 20  1  0  0  0  0
 23 15  1  0  0  0  0
 25 18  1  0  0  0  0
 25 26  1  0  0  0  0
 26 19  1  0  0  0  0
 27 24  2  0  0  0  0
 27 12  1  0  0  0  0
 28 30  1  0  0  0  0
 30 29  2  0  0  0  0
M  END
>  <MODEL>
1

>  <REMARK>
 VINA RESULT:      -6.3      0.000      0.000
  Name = 
  2 active torsions:
  status: ('A' for Active; 'I' for Inactive)
    1  A    between atoms: C_11  and  C_28
    2  A    between atoms: C_28  and  S_30
                            x       y       z     vdW  Elec       q    Type
                         _______ _______ _______ _____ _____    ______ ____

>  <TORSDO>
F 2

$$$$
=
 OpenBabel11122412433D

 30 35  0  0  1  0  0  0  0  0999 V2000
  161.2390  208.4140  151.2500 C   0  0  2  0  0  3  0  0  0  0  0  0
  161.2730  208.8970  153.7590 C   0  0  2  0  0  3  0  0  0  0  0  0
  160.4400  204.2800  151.9990 N   0  0  0  0  0  2  0  0  0  0  0  0
  161.4730  207.3450  150.1680 C   0  0  2  0  0  3  0  0  0  0  0  0
  162.0870  209.6370  150.9260 C   0  0  0  0  0  2  0  0  0  0  0  0
  161.3660  209.7090  147.2580 O   0  0  0  0  0  1  0  0  0  0  0  0
  162.3520  205.7450  148.0140 C   0  0  1  0  0  3  0  0  0  0  0  0
  161.8350  209.1790  148.4640 C   0  0  1  0  0  3  0  0  0  0  0  0
  161.8340  204.6240  148.8380 N   0  0  2  0  0  0  0  0  0  0  0  0
  160.2610  203.7660  150.6390 C   0  0  2  0  0  3  0  0  0  0  0  0
  161.6640  210.2190  149.5790 C   0  0  2  0  0  3  0  0  0  0  0  0
  161.0730  207.8830  148.7890 C   0  0  1  0  0  3  0  0  0  0  0  0
  161.6740  208.3380  155.1260 C   0  0  0  0  0  2  0  0  0  0  0  0
  161.5590  203.5800  147.8450 C   0  0  0  0  0  2  0  0  0  0  0  0
  162.8460  205.1300  146.7520 C   0  0  0  0  0  2  0  0  0  0  0  0
  159.9190  209.2470  153.7600 O   0  0  0  0  0  1  0  0  0  0  0  0
  161.1470  205.5390  151.8390 C   0  0  1  0  0  3  0  0  0  0  0  0
  160.9830  207.0020  155.4040 C   0  0  0  0  0  2  0  0  0  0  0  0
  161.5720  207.8690  152.6560 C   0  0  1  0  0  3  0  0  0  0  0  0
  160.6670  206.1010  150.5370 C   0  0  2  0  0  3  0  0  0  0  0  0
  161.0300  202.4600  150.4900 C   0  0  0  0  0  1  0  0  0  0  0  0
  160.5930  204.8880  149.6120 C   0  0  1  0  0  3  0  0  0  0  0  0
  162.3930  203.8960  146.6590 C   0  0  0  0  0  2  0  0  0  0  0  0
  160.6850  206.8510  146.7050 O   0  0  0  0  0  0  0  0  0  0  0  0
  161.3050  205.9960  154.3020 C   0  0  0  0  0  2  0  0  0  0  0  0
  160.8440  206.5370  152.9510 C   0  0  2  0  0  3  0  0  0  0  0  0
  161.3400  206.8430  147.7380 C   0  0  0  0  0  0  0  0  0  0  0  0
  162.5010  211.4520  149.2750 C   0  0  0  0  0  2  0  0  0  0  0  0
  161.9740  213.0170  147.2540 O   0  0  0  0  0  0  0  0  0  0  0  0
  161.4520  212.7840  148.6640 S   0  0  0  0  0  3  0  0  0  0  0  0
  1  5  1  6  0  0  0
  1 19  1  0  0  0  0
  2 16  1  1  0  0  0
  2 13  1  0  0  0  0
  4 20  1  0  0  0  0
  4  1  1  0  0  0  0
  6  8  1  0  0  0  0
  7  9  1  0  0  0  0
  8 12  1  0  0  0  0
  8 11  1  0  0  0  0
  9 22  1  0  0  0  0
 10  3  1  0  0  0  0
 11  5  1  0  0  0  0
 12  4  1  0  0  0  0
 13 18  1  0  0  0  0
 14  9  1  0  0  0  0
 15  7  1  0  0  0  0
 17  3  1  0  0  0  0
 17 26  1  0  0  0  0
 19 26  1  0  0  0  0
 19  2  1  0  0  0  0
 20 17  1  0  0  0  0
 21 10  1  0  0  0  0
 22 20  1  0  0  0  0
 22 10  1  0  0  0  0
 23 15  1  0  0  0  0
 23 14  1  0  0  0  0
 24 27  2  0  0  0  0
 25 18  1  0  0  0  0
 26 25  1  0  0  0  0
 27  7  1  0  0  0  0
 27 12  1  0  0  0  0
 28 11  1  0  0  0  0
 29 30  2  0  0  0  0
 30 28  1  0  0  0  0
M  END
>  <MODEL>
2

>  <REMARK>
 VINA RESULT:      -6.1      2.605      5.215
  Name = 
  2 active torsions:
  status: ('A' for Active; 'I' for Inactive)
    1  A    between atoms: C_11  and  C_28
    2  A    between atoms: C_28  and  S_30
                            x       y       z     vdW  Elec       q    Type
                         _______ _______ _______ _____ _____    ______ ____

>  <TORSDO>
F 2

$$$$
=
 OpenBabel11122412433D

 30 35  0  0  1  0  0  0  0  0999 V2000
  161.3410  205.3820  149.4210 C   0  0  2  0  0  3  0  0  0  0  0  0
  160.8130  202.9170  149.0090 C   0  0  2  0  0  3  0  0  0  0  0  0
  161.2550  204.7530  153.6500 N   0  0  0  0  0  2  0  0  0  0  0  0
  161.1890  206.5580  150.4020 C   0  0  2  0  0  3  0  0  0  0  0  0
  160.8040  205.8040  148.0590 C   0  0  0  0  0  2  0  0  0  0  0  0
  162.3490  209.2080  148.0150 O   0  0  0  0  0  1  0  0  0  0  0  0
  160.5760  208.9550  151.7630 C   0  0  1  0  0  3  0  0  0  0  0  0
  161.5350  208.1730  148.4870 C   0  0  1  0  0  3  0  0  0  0  0  0
  160.7000  208.1140  152.9800 N   0  0  2  0  0  0  0  0  0  0  0  0
  161.6550  206.0710  154.1500 C   0  0  2  0  0  3  0  0  0  0  0  0
  161.6150  206.9810  147.5240 C   0  0  2  0  0  3  0  0  0  0  0  0
  161.9780  207.7760  149.9050 C   0  0  1  0  0  3  0  0  0  0  0  0
  160.0230  201.7120  149.5260 C   0  0  0  0  0  2  0  0  0  0  0  0
  161.0190  209.0880  154.0280 C   0  0  0  0  0  2  0  0  0  0  0  0
  160.2910  210.3340  152.2470 C   0  0  0  0  0  2  0  0  0  0  0  0
  162.1690  202.5920  148.9030 O   0  0  0  0  0  1  0  0  0  0  0  0
  160.8210  204.9810  152.2830 C   0  0  1  0  0  3  0  0  0  0  0  0
  160.4020  201.3790  150.9700 C   0  0  0  0  0  2  0  0  0  0  0  0
  160.6100  204.1240  149.9380 C   0  0  1  0  0  3  0  0  0  0  0  0
  161.6730  206.1040  151.7790 C   0  0  2  0  0  3  0  0  0  0  0  0
  160.7360  206.4730  155.2960 C   0  0  0  0  0  1  0  0  0  0  0  0
  161.7560  207.0690  152.9600 C   0  0  1  0  0  3  0  0  0  0  0  0
  160.5440  210.4060  153.5370 C   0  0  0  0  0  2  0  0  0  0  0  0
  162.6590  209.7860  150.9310 O   0  0  0  0  0  0  0  0  0  0  0  0
  160.1800  202.5880  151.8730 C   0  0  0  0  0  2  0  0  0  0  0  0
  161.0210  203.7660  151.3850 C   0  0  2  0  0  3  0  0  0  0  0  0
  161.7920  208.9270  150.8530 C   0  0  0  0  0  0  0  0  0  0  0  0
  161.0850  207.3800  146.1560 C   0  0  0  0  0  2  0  0  0  0  0  0
  161.4370  205.5740  144.3050 O   0  0  0  0  0  0  0  0  0  0  0  0
  160.3700  205.9510  145.3220 S   0  0  0  0  0  3  0  0  0  0  0  0
  1  5  1  6  0  0  0
  1 19  1  0  0  0  0
  1  4  1  0  0  0  0
  2 16  1  1  0  0  0
  2 13  1  0  0  0  0
  2 19  1  0  0  0  0
  3 10  1  0  0  0  0
  4 20  1  0  0  0  0
  6  8  1  0  0  0  0
  7 15  1  0  0  0  0
  7  9  1  0  0  0  0
  8 12  1  0  0  0  0
  9 14  1  0  0  0  0
 10 21  1  0  0  0  0
 11  5  1  0  0  0  0
 11  8  1  0  0  0  0
 12  4  1  0  0  0  0
 12 27  1  0  0  0  0
 13 18  1  0  0  0  0
 15 23  1  0  0  0  0
 17  3  1  0  0  0  0
 18 25  1  0  0  0  0
 19 26  1  0  0  0  0
 20 17  1  0  0  0  0
 20 22  1  0  0  0  0
 22  9  1  0  0  0  0
 22 10  1  0  0  0  0
 23 14  1  0  0  0  0
 26 25  1  0  0  0  0
 26 17  1  0  0  0  0
 27 24  2  0  0  0  0
 27  7  1  0  0  0  0
 28 11  1  0  0  0  0
 29 30  2  0  0  0  0
 30 28  1  0  0  0  0
M  END
>  <MODEL>
3

>  <REMARK>
 VINA RESULT:      -6.0      3.137      7.257
  Name = 
  2 active torsions:
  status: ('A' for Active; 'I' for Inactive)
    1  A    between atoms: C_11  and  C_28
    2  A    between atoms: C_28  and  S_30
                            x       y       z     vdW  Elec       q    Type
                         _______ _______ _______ _____ _____    ______ ____

>  <TORSDO>
F 2

$$$$
=
 OpenBabel11122412433D

 30 35  0  0  1  0  0  0  0  0999 V2000
  161.8560  207.8230  148.6800 C   0  0  2  0  0  3  0  0  0  0  0  0
  161.6190  206.2830  146.6550 C   0  0  2  0  0  3  0  0  0  0  0  0
  161.6790  204.4660  151.3240 N   0  0  0  0  0  2  0  0  0  0  0  0
  161.5370  207.9980  150.1750 C   0  0  2  0  0  3  0  0  0  0  0  0
  161.3270  209.0320  147.9190 C   0  0  0  0  0  2  0  0  0  0  0  0
  162.4870  211.6220  150.3520 O   0  0  0  0  0  1  0  0  0  0  0  0
  160.6120  208.7760  152.7270 C   0  0  1  0  0  3  0  0  0  0  0  0
  161.7750  210.5020  149.9110 C   0  0  1  0  0  3  0  0  0  0  0  0
  160.7820  207.3390  153.0560 N   0  0  2  0  0  0  0  0  0  0  0  0
  161.9110  205.1040  152.6220 C   0  0  2  0  0  3  0  0  0  0  0  0
  162.0230  210.2990  148.4110 C   0  0  2  0  0  3  0  0  0  0  0  0
  162.2050  209.2670  150.7200 C   0  0  1  0  0  3  0  0  0  0  0  0
  160.9480  205.0100  146.1340 C   0  0  0  0  0  2  0  0  0  0  0  0
  160.9510  207.3470  154.5130 C   0  0  0  0  0  2  0  0  0  0  0  0
  160.1580  209.4320  153.9840 C   0  0  0  0  0  2  0  0  0  0  0  0
  163.0060  206.1950  146.4970 O   0  0  0  0  0  1  0  0  0  0  0  0
  161.2750  205.5440  150.4380 C   0  0  1  0  0  3  0  0  0  0  0  0
  161.3060  203.8010  146.9980 C   0  0  0  0  0  2  0  0  0  0  0  0
  161.2490  206.5150  148.1280 C   0  0  1  0  0  3  0  0  0  0  0  0
  162.0150  206.7520  150.9200 C   0  0  2  0  0  3  0  0  0  0  0  0
  160.9110  204.5620  153.6340 C   0  0  0  0  0  1  0  0  0  0  0  0
  161.9470  206.6500  152.4420 C   0  0  1  0  0  3  0  0  0  0  0  0
  160.3520  208.6150  154.9990 C   0  0  0  0  0  2  0  0  0  0  0  0
  162.6200  210.0640  152.8990 O   0  0  0  0  0  0  0  0  0  0  0  0
  160.9180  204.0500  148.4520 C   0  0  0  0  0  2  0  0  0  0  0  0
  161.6420  205.2860  148.9810 C   0  0  2  0  0  3  0  0  0  0  0  0
  161.8570  209.4450  152.1710 C   0  0  0  0  0  0  0  0  0  0  0  0
  161.5040  211.4960  147.6300 C   0  0  0  0  0  2  0  0  0  0  0  0
  162.2910  213.9650  147.9410 O   0  0  0  0  0  0  0  0  0  0  0  0
  162.8340  212.6770  147.3400 S   0  0  0  0  0  3  0  0  0  0  0  0
  1  5  1  6  0  0  0
  1  4  1  0  0  0  0
  2 16  1  1  0  0  0
  2 19  1  0  0  0  0
  3 10  1  0  0  0  0
  4 12  1  0  0  0  0
  4 20  1  0  0  0  0
  5 11  1  0  0  0  0
  7  9  1  0  0  0  0
  7 15  1  0  0  0  0
  8  6  1  0  0  0  0
  8 12  1  0  0  0  0
  9 14  1  0  0  0  0
 10 21  1  0  0  0  0
 11  8  1  0  0  0  0
 12 27  1  0  0  0  0
 13  2  1  0  0  0  0
 13 18  1  0  0  0  0
 14 23  1  0  0  0  0
 15 23  1  0  0  0  0
 17 20  1  0  0  0  0
 17  3  1  0  0  0  0
 18 25  1  0  0  0  0
 19  1  1  0  0  0  0
 19 26  1  0  0  0  0
 20 22  1  0  0  0  0
 22 10  1  0  0  0  0
 22  9  1  0  0  0  0
 25 26  1  0  0  0  0
 26 17  1  0  0  0  0
 27  7  1  0  0  0  0
 27 24  2  0  0  0  0
 28 11  1  0  0  0  0
 30 28  1  0  0  0  0
 30 29  2  0  0  0  0
M  END
>  <MODEL>
4

>  <REMARK>
 VINA RESULT:      -5.8      2.870      6.363
  Name = 
  2 active torsions:
  status: ('A' for Active; 'I' for Inactive)
    1  A    between atoms: C_11  and  C_28
    2  A    between atoms: C_28  and  S_30
                            x       y       z     vdW  Elec       q    Type
                         _______ _______ _______ _____ _____    ______ ____

>  <TORSDO>
F 2

$$$$
=
 OpenBabel11122412433D

 30 35  0  0  1  0  0  0  0  0999 V2000
  160.2850  210.1700  153.4880 C   0  0  2  0  0  3  0  0  0  0  0  0
  159.0140  212.1750  154.4330 C   0  0  2  0  0  3  0  0  0  0  0  0
  161.2390  212.3710  149.9480 N   0  0  0  0  0  2  0  0  0  0  0  0
  160.7430  209.4590  152.2030 C   0  0  2  0  0  3  0  0  0  0  0  0
  159.5170  209.1790  154.3530 C   0  0  0  0  0  2  0  0  0  0  0  0
  161.8470  206.2930  153.8830 O   0  0  0  0  0  1  0  0  0  0  0  0
  161.2170  207.7160  150.0320 C   0  0  1  0  0  3  0  0  0  0  0  0
  160.9530  207.2970  153.4980 C   0  0  1  0  0  3  0  0  0  0  0  0
  161.4490  208.9720  149.2760 N   0  0  2  0  0  0  0  0  0  0  0  0
  162.1070  211.4260  149.2410 C   0  0  2  0  0  3  0  0  0  0  0  0
  160.4290  208.0200  154.7470 C   0  0  2  0  0  3  0  0  0  0  0  0
  161.6570  208.2750  152.5420 C   0  0  1  0  0  3  0  0  0  0  0  0
  158.1080  213.3550  154.0710 C   0  0  0  0  0  2  0  0  0  0  0  0
  162.3060  208.5400  148.1660 C   0  0  0  0  0  2  0  0  0  0  0  0
  161.4650  206.6080  149.0700 C   0  0  0  0  0  2  0  0  0  0  0  0
  160.1420  212.6290  155.1220 O   0  0  0  0  0  1  0  0  0  0  0  0
  160.5130  211.5690  150.9170 C   0  0  1  0  0  3  0  0  0  0  0  0
  158.7770  214.2750  153.0490 C   0  0  0  0  0  2  0  0  0  0  0  0
  159.4190  211.4070  153.1650 C   0  0  1  0  0  3  0  0  0  0  0  0
  161.4570  210.4780  151.3150 C   0  0  2  0  0  3  0  0  0  0  0  0
  161.6970  211.3690  147.7750 C   0  0  0  0  0  1  0  0  0  0  0  0
  162.1310  210.0710  150.0070 C   0  0  1  0  0  3  0  0  0  0  0  0
  162.0850  207.0800  148.0080 C   0  0  0  0  0  2  0  0  0  0  0  0
  163.1190  206.9450  151.2580 O   0  0  0  0  0  0  0  0  0  0  0  0
  159.1580  213.4920  151.7950 C   0  0  0  0  0  2  0  0  0  0  0  0
  160.1120  212.3560  152.1590 C   0  0  2  0  0  3  0  0  0  0  0  0
  162.0670  207.5680  151.2820 C   0  0  0  0  0  0  0  0  0  0  0  0
  159.6600  207.0470  155.6270 C   0  0  0  0  0  2  0  0  0  0  0  0
  161.5730  207.9350  157.1660 O   0  0  0  0  0  0  0  0  0  0  0  0
  160.4170  206.9510  157.2610 S   0  0  0  0  0  3  0  0  0  0  0  0
  1  5  1  1  0  0  0
  2 16  1  6  0  0  0
  3 17  1  0  0  0  0
  4 12  1  0  0  0  0
  4  1  1  0  0  0  0
  5 11  1  0  0  0  0
  7 27  1  0  0  0  0
  8  6  1  0  0  0  0
  8 11  1  0  0  0  0
  9 22  1  0  0  0  0
  9  7  1  0  0  0  0
 10  3  1  0  0  0  0
 10 22  1  0  0  0  0
 11 28  1  0  0  0  0
 12  8  1  0  0  0  0
 13  2  1  0  0  0  0
 14  9  1  0  0  0  0
 15  7  1  0  0  0  0
 17 20  1  0  0  0  0
 17 26  1  0  0  0  0
 18 13  1  0  0  0  0
 19  1  1  0  0  0  0
 19  2  1  0  0  0  0
 20  4  1  0  0  0  0
 21 10  1  0  0  0  0
 22 20  1  0  0  0  0
 23 14  1  0  0  0  0
 23 15  1  0  0  0  0
 24 27  2  0  0  0  0
 25 26  1  0  0  0  0
 25 18  1  0  0  0  0
 26 19  1  0  0  0  0
 27 12  1  0  0  0  0
 28 30  1  0  0  0  0
 29 30  2  0  0  0  0
M  END
>  <MODEL>
5

>  <REMARK>
 VINA RESULT:      -5.5      2.736      4.455
  Name = 
  2 active torsions:
  status: ('A' for Active; 'I' for Inactive)
    1  A    between atoms: C_11  and  C_28
    2  A    between atoms: C_28  and  S_30
                            x       y       z     vdW  Elec       q    Type
                         _______ _______ _______ _____ _____    ______ ____

>  <TORSDO>
F 2

$$$$
=
 OpenBabel11122412433D

 30 35  0  0  1  0  0  0  0  0999 V2000
  160.9370  209.8120  153.2500 C   0  0  2  0  0  3  0  0  0  0  0  0
  161.1640  208.0390  155.0750 C   0  0  2  0  0  3  0  0  0  0  0  0
  158.4630  212.1960  155.7970 N   0  0  0  0  0  2  0  0  0  0  0  0
  160.0450  210.9290  152.6820 C   0  0  2  0  0  3  0  0  0  0  0  0
  161.2530  208.8190  152.1390 C   0  0  0  0  0  2  0  0  0  0  0  0
  161.9460  211.3500  149.4760 O   0  0  0  0  0  1  0  0  0  0  0  0
  158.3670  212.6160  151.1600 C   0  0  1  0  0  3  0  0  0  0  0  0
  161.1920  210.6760  150.4420 C   0  0  1  0  0  3  0  0  0  0  0  0
  157.8790  213.0680  152.4870 N   0  0  2  0  0  0  0  0  0  0  0  0
  158.2680  213.3950  154.9770 C   0  0  2  0  0  3  0  0  0  0  0  0
  162.0190  209.5200  151.0200 C   0  0  2  0  0  3  0  0  0  0  0  0
  160.7650  211.6620  151.5420 C   0  0  1  0  0  3  0  0  0  0  0  0
  160.4300  207.3250  156.2120 C   0  0  0  0  0  2  0  0  0  0  0  0
  157.3510  214.4080  152.2100 C   0  0  0  0  0  2  0  0  0  0  0  0
  157.6310  213.4310  150.1550 C   0  0  0  0  0  2  0  0  0  0  0  0
  162.3500  208.6080  155.5510 O   0  0  0  0  0  1  0  0  0  0  0  0
  158.8950  211.1660  154.8680 C   0  0  1  0  0  3  0  0  0  0  0  0
  159.9260  208.3210  157.2580 C   0  0  0  0  0  2  0  0  0  0  0  0
  160.2580  209.1070  154.4440 C   0  0  1  0  0  3  0  0  0  0  0  0
  159.6840  211.8850  153.8180 C   0  0  2  0  0  3  0  0  0  0  0  0
  156.7990  213.7930  155.0110 C   0  0  0  0  0  1  0  0  0  0  0  0
  158.8930  213.1670  153.5690 C   0  0  1  0  0  3  0  0  0  0  0  0
  157.0540  214.4510  150.7560 C   0  0  0  0  0  2  0  0  0  0  0  0
  160.3680  213.7020  150.4300 O   0  0  0  0  0  0  0  0  0  0  0  0
  159.0190  209.3630  156.6100 C   0  0  0  0  0  2  0  0  0  0  0  0
  159.7820  210.1120  155.5190 C   0  0  2  0  0  3  0  0  0  0  0  0
  159.8700  212.7250  150.9720 C   0  0  0  0  0  0  0  0  0  0  0  0
  162.3480  208.5160  149.9260 C   0  0  0  0  0  2  0  0  0  0  0  0
  160.4970  206.8350  149.1770 O   0  0  0  0  0  0  0  0  0  0  0  0
  161.5520  206.9360  150.2690 S   0  0  0  0  0  3  0  0  0  0  0  0
  1  5  1  6  0  0  0
  1 19  1  0  0  0  0
  2 16  1  1  0  0  0
  2 13  1  0  0  0  0
  4  1  1  0  0  0  0
  4 20  1  0  0  0  0
  6  8  1  0  0  0  0
  7  9  1  0  0  0  0
  8 11  1  0  0  0  0
  8 12  1  0  0  0  0
  9 22  1  0  0  0  0
 10 21  1  0  0  0  0
 10  3  1  0  0  0  0
 11  5  1  0  0  0  0
 12  4  1  0  0  0  0
 13 18  1  0  0  0  0
 14  9  1  0  0  0  0
 15 23  1  0  0  0  0
 15  7  1  0  0  0  0
 17 26  1  0  0  0  0
 17  3  1  0  0  0  0
 19  2  1  0  0  0  0
 19 26  1  0  0  0  0
 20 17  1  0  0  0  0
 22 20  1  0  0  0  0
 22 10  1  0  0  0  0
 23 14  1  0  0  0  0
 24 27  2  0  0  0  0
 25 18  1  0  0  0  0
 26 25  1  0  0  0  0
 27  7  1  0  0  0  0
 27 12  1  0  0  0  0
 28 30  1  0  0  0  0
 28 11  1  0  0  0  0
 29 30  2  0  0  0  0
M  END
>  <MODEL>
6

>  <REMARK>
 VINA RESULT:      -4.4      4.365      8.445
  Name = 
  2 active torsions:
  status: ('A' for Active; 'I' for Inactive)
    1  A    between atoms: C_11  and  C_28
    2  A    between atoms: C_28  and  S_30
                            x       y       z     vdW  Elec       q    Type
                         _______ _______ _______ _____ _____    ______ ____

>  <TORSDO>
F 2

$$$$
=
 OpenBabel11122412433D

 30 35  0  0  1  0  0  0  0  0999 V2000
  161.3250  203.7520  148.4120 C   0  0  2  0  0  3  0  0  0  0  0  0
  160.3480  201.4940  149.1010 C   0  0  2  0  0  3  0  0  0  0  0  0
  161.5760  204.9570  152.5070 N   0  0  0  0  0  2  0  0  0  0  0  0
  161.4770  205.2320  148.8020 C   0  0  2  0  0  3  0  0  0  0  0  0
  160.7280  203.6690  147.0130 C   0  0  0  0  0  2  0  0  0  0  0  0
  162.8130  206.3730  145.4880 O   0  0  0  0  0  1  0  0  0  0  0  0
  161.4250  208.0460  149.0270 C   0  0  1  0  0  3  0  0  0  0  0  0
  161.8900  205.8090  146.3740 C   0  0  1  0  0  3  0  0  0  0  0  0
  161.5300  207.7770  150.4830 N   0  0  2  0  0  0  0  0  0  0  0  0
  162.2430  206.2560  152.3890 C   0  0  2  0  0  3  0  0  0  0  0  0
  161.6660  204.3350  146.0090 C   0  0  2  0  0  3  0  0  0  0  0  0
  162.4050  205.9540  147.8160 C   0  0  1  0  0  3  0  0  0  0  0  0
  159.4240  200.7930  150.0990 C   0  0  0  0  0  2  0  0  0  0  0  0
  162.1180  209.0130  151.0090 C   0  0  0  0  0  2  0  0  0  0  0  0
  161.4280  209.5280  148.8840 C   0  0  0  0  0  2  0  0  0  0  0  0
  161.6110  200.8940  149.1110 O   0  0  0  0  0  1  0  0  0  0  0  0
  161.0460  204.6800  151.1830 C   0  0  1  0  0  3  0  0  0  0  0  0
  159.8890  201.0180  151.5380 C   0  0  0  0  0  2  0  0  0  0  0  0
  160.4500  202.9910  149.4310 C   0  0  1  0  0  3  0  0  0  0  0  0
  162.0180  205.3020  150.2290 C   0  0  2  0  0  3  0  0  0  0  0  0
  161.5300  207.2690  153.2760 C   0  0  0  0  0  1  0  0  0  0  0  0
  162.3860  206.6310  150.8850 C   0  0  1  0  0  3  0  0  0  0  0  0
  161.8230  210.0760  150.0150 C   0  0  0  0  0  2  0  0  0  0  0  0
  163.5190  208.0300  147.8730 O   0  0  0  0  0  0  0  0  0  0  0  0
  159.9710  202.5100  151.8460 C   0  0  0  0  0  2  0  0  0  0  0  0
  160.9430  203.1890  150.8830 C   0  0  2  0  0  3  0  0  0  0  0  0
  162.5160  207.4050  148.1870 C   0  0  0  0  0  0  0  0  0  0  0  0
  161.0710  204.2290  144.6130 C   0  0  0  0  0  2  0  0  0  0  0  0
  160.1960  201.7740  144.7510 O   0  0  0  0  0  0  0  0  0  0  0  0
  159.6100  203.1730  144.6360 S   0  0  0  0  0  3  0  0  0  0  0  0
  1  5  1  6  0  0  0
  1  4  1  0  0  0  0
  1 19  1  0  0  0  0
  2 16  1  1  0  0  0
  2 19  1  0  0  0  0
  2 13  1  0  0  0  0
  4 20  1  0  0  0  0
  6  8  1  0  0  0  0
  7  9  1  0  0  0  0
  8 12  1  0  0  0  0
  9 22  1  0  0  0  0
  9 14  1  0  0  0  0
 10  3  1  0  0  0  0
 10 21  1  0  0  0  0
 11  8  1  0  0  0  0
 11  5  1  0  0  0  0
 12 27  1  0  0  0  0
 12  4  1  0  0  0  0
 13 18  1  0  0  0  0
 15  7  1  0  0  0  0
 15 23  1  0  0  0  0
 17  3  1  0  0  0  0
 18 25  1  0  0  0  0
 19 26  1  0  0  0  0
 20 22  1  0  0  0  0
 20 17  1  0  0  0  0
 22 10  1  0  0  0  0
 23 14  1  0  0  0  0
 24 27  2  0  0  0  0
 26 17  1  0  0  0  0
 26 25  1  0  0  0  0
 27  7  1  0  0  0  0
 28 30  1  0  0  0  0
 28 11  1  0  0  0  0
 30 29  2  0  0  0  0
M  END
>  <MODEL>
7

>  <REMARK>
 VINA RESULT:      -3.3      3.423      7.531
  Name = 
  2 active torsions:
  status: ('A' for Active; 'I' for Inactive)
    1  A    between atoms: C_11  and  C_28
    2  A    between atoms: C_28  and  S_30
                            x       y       z     vdW  Elec       q    Type
                         _______ _______ _______ _____ _____    ______ ____

>  <TORSDO>
F 2

$$$$
=
 OpenBabel11122412433D

 30 35  0  0  1  0  0  0  0  0999 V2000
  161.1810  210.2640  150.2390 C   0  0  2  0  0  3  0  0  0  0  0  0
  161.4620  212.0640  148.4480 C   0  0  2  0  0  3  0  0  0  0  0  0
  159.4680  213.1190  152.9220 N   0  0  0  0  0  2  0  0  0  0  0  0
  161.0970  209.9910  151.7510 C   0  0  2  0  0  3  0  0  0  0  0  0
  162.2760  209.3900  149.6410 C   0  0  0  0  0  2  0  0  0  0  0  0
  161.3980  206.2620  151.4910 O   0  0  0  0  0  1  0  0  0  0  0  0
  161.4560  209.1910  154.4350 C   0  0  1  0  0  3  0  0  0  0  0  0
  161.7910  207.5950  151.3370 C   0  0  1  0  0  3  0  0  0  0  0  0
  160.7320  210.4490  154.7450 N   0  0  2  0  0  0  0  0  0  0  0  0
  159.0990  212.2700  154.0570 C   0  0  2  0  0  3  0  0  0  0  0  0
  161.9310  207.9160  149.8430 C   0  0  2  0  0  3  0  0  0  0  0  0
  160.7630  208.5170  152.0120 C   0  0  1  0  0  3  0  0  0  0  0  0
  161.7910  213.5400  148.2110 C   0  0  0  0  0  2  0  0  0  0  0  0
  160.1650  210.1900  156.0720 C   0  0  0  0  0  2  0  0  0  0  0  0
  161.7220  208.5400  155.7470 C   0  0  0  0  0  2  0  0  0  0  0  0
  160.2320  211.7460  147.8650 O   0  0  0  0  0  1  0  0  0  0  0  0
  160.4420  212.3480  152.1710 C   0  0  1  0  0  3  0  0  0  0  0  0
  160.8200  214.4520  148.9610 C   0  0  0  0  0  2  0  0  0  0  0  0
  161.4500  211.7570  149.9540 C   0  0  1  0  0  3  0  0  0  0  0  0
  160.0400  210.9170  152.3510 C   0  0  2  0  0  3  0  0  0  0  0  0
  159.5280  212.9470  155.3520 C   0  0  0  0  0  1  0  0  0  0  0  0
  159.6320  210.8270  153.8200 C   0  0  1  0  0  3  0  0  0  0  0  0
  160.9860  209.1120  156.6780 C   0  0  0  0  0  2  0  0  0  0  0  0
  160.0310  207.3410  153.9200 O   0  0  0  0  0  0  0  0  0  0  0  0
  160.8350  214.1370  150.4540 C   0  0  0  0  0  2  0  0  0  0  0  0
  160.4440  212.6790  150.6830 C   0  0  2  0  0  3  0  0  0  0  0  0
  160.7200  208.2570  153.4910 C   0  0  0  0  0  0  0  0  0  0  0  0
  163.0190  207.0530  149.2240 C   0  0  0  0  0  2  0  0  0  0  0  0
  160.8910  206.2030  147.9730 O   0  0  0  0  0  0  0  0  0  0  0  0
  162.3960  206.2260  147.7480 S   0  0  0  0  0  3  0  0  0  0  0  0
  1  5  1  1  0  0  0
  1  4  1  0  0  0  0
  2 16  1  1  0  0  0
  2 19  1  0  0  0  0
  3 10  1  0  0  0  0
  4 12  1  0  0  0  0
  4 20  1  0  0  0  0
  5 11  1  0  0  0  0
  7  9  1  0  0  0  0
  7 15  1  0  0  0  0
  8  6  1  0  0  0  0
  8 12  1  0  0  0  0
  9 14  1  0  0  0  0
 10 21  1  0  0  0  0
 11  8  1  0  0  0  0
 12 27  1  0  0  0  0
 13  2  1  0  0  0  0
 13 18  1  0  0  0  0
 14 23  1  0  0  0  0
 15 23  1  0  0  0  0
 17 20  1  0  0  0  0
 17  3  1  0  0  0  0
 18 25  1  0  0  0  0
 19  1  1  0  0  0  0
 19 26  1  0  0  0  0
 20 22  1  0  0  0  0
 22 10  1  0  0  0  0
 22  9  1  0  0  0  0
 25 26  1  0  0  0  0
 26 17  1  0  0  0  0
 27 24  2  0  0  0  0
 27  7  1  0  0  0  0
 28 11  1  0  0  0  0
 30 29  2  0  0  0  0
 30 28  1  0  0  0  0
M  END
>  <MODEL>
8

>  <REMARK>
 VINA RESULT:      -3.3      3.864      6.684
  Name = 
  2 active torsions:
  status: ('A' for Active; 'I' for Inactive)
    1  A    between atoms: C_11  and  C_28
    2  A    between atoms: C_28  and  S_30
                            x       y       z     vdW  Elec       q    Type
                         _______ _______ _______ _____ _____    ______ ____

>  <TORSDO>
F 2

$$$$
