=
 OpenBabel11122413463D

 37 44  0  0  1  0  0  0  0  0999 V2000
  160.6820  207.2970  151.6000 C   0  0  0  0  0  2  0  0  0  0  0  0
  160.3370  207.9020  156.3060 C   0  0  0  0  0  0  0  0  0  0  0  0
  160.0490  211.2210  153.8170 C   0  0  0  0  0  0  0  0  0  0  0  0
  161.4260  206.1700  150.9530 C   0  0  0  0  0  0  0  0  0  0  0  0
  161.4440  211.0870  150.2290 C   0  0  0  0  0  2  0  0  0  0  0  0
  159.8760  210.3860  156.0590 C   0  0  0  0  0  0  0  0  0  0  0  0
  160.5520  210.7310  152.6110 C   0  0  0  0  0  0  0  0  0  0  0  0
  161.8150  207.4540  148.9260 C   0  0  0  0  0  0  0  0  0  0  0  0
  160.2540  210.2470  154.7410 C   0  0  0  0  0  0  0  0  0  0  0  0
  160.5710  211.4650  151.3500 N   0  0  0  0  0  0  0  0  0  0  0  0
  159.2940  211.5600  156.4420 N   0  0  0  0  0  0  0  0  0  0  0  0
  161.8880  206.2780  149.7440 N   0  0  0  0  0  0  0  0  0  0  0  0
  160.8190  209.1590  154.2220 N   0  0  0  0  0  0  0  0  0  0  0  0
  158.9640  207.3580  155.9530 C   0  0  0  0  0  1  0  0  0  0  0  0
  159.0910  213.4960  153.1940 C   0  0  0  0  0  2  0  0  0  0  0  0
  159.0620  212.5700  155.5400 C   0  0  0  0  0  3  0  0  0  0  0  0
  161.1950  207.9910  155.0210 C   0  0  0  0  0  2  0  0  0  0  0  0
  162.3650  208.7910  149.3490 C   0  0  1  0  0  3  0  0  0  0  0  0
  161.2720  209.6230  149.9750 C   0  0  1  0  0  3  0  0  0  0  0  0
  159.4450  212.4310  154.1870 C   0  0  0  0  0  0  0  0  0  0  0  0
  161.0330  209.4190  152.9110 C   0  0  0  0  0  0  0  0  0  0  0  0
  160.1830  209.2700  157.0200 C   0  0  0  0  0  2  0  0  0  0  0  0
  159.7050  212.6510  151.2350 C   0  0  1  0  0  3  0  0  0  0  0  0
  161.0010  206.9340  157.2600 C   0  0  0  0  0  1  0  0  0  0  0  0
  162.3900  209.0830  150.8470 C   0  0  1  0  0  3  0  0  0  0  0  0
  161.3830  207.3410  147.7490 O   0  0  0  0  0  0  0  0  0  0  0  0
  161.6610  208.3940  151.9900 C   0  0  2  0  0  3  0  0  0  0  0  0
  160.0660  213.6040  152.1960 O   0  0  0  0  0  0  0  0  0  0  0  0
  160.8250  213.8450  149.3390 C   0  0  0  0  0  3  0  0  0  0  0  0
  159.6670  213.2580  149.8600 C   0  0  0  0  0  0  0  0  0  0  0  0
  158.4800  213.2800  149.1120 C   0  0  0  0  0  3  0  0  0  0  0  0
  156.9800  213.8960  146.9150 Cl  0  0  0  0  0  0  0  0  0  0  0  0
  159.6220  214.4530  147.3280 C   0  0  0  0  0  3  0  0  0  0  0  0
  158.4610  213.8740  147.8470 C   0  0  0  0  0  0  0  0  0  0  0  0
  160.8040  214.4390  148.0740 C   0  0  0  0  0  3  0  0  0  0  0  0
  161.2080  204.9510  153.0000 O   0  0  0  0  0  1  0  0  0  0  0  0
  161.5830  204.8590  151.6580 C   0  0  0  0  0  2  0  0  0  0  0  0
  1 27  1  0  0  0  0
  2 22  1  0  0  0  0
  2 24  1  0  0  0  0
  3 20  2  0  0  0  0
  3  9  1  0  0  0  0
  4  1  1  0  0  0  0
  4 37  1  0  0  0  0
  5 10  1  0  0  0  0
  6 11  1  0  0  0  0
  6 22  1  0  0  0  0
  7 21  2  0  0  0  0
  7  3  1  0  0  0  0
  8 12  1  0  0  0  0
  9  6  2  0  0  0  0
 10  7  1  0  0  0  0
 12  4  2  0  0  0  0
 13  9  1  0  0  0  0
 13 17  1  0  0  0  0
 14  2  1  0  0  0  0
 15 20  1  0  0  0  0
 16 11  2  0  0  0  0
 17  2  1  0  0  0  0
 18  8  1  1  0  0  0
 18 19  1  0  0  0  0
 18 25  1  0  0  0  0
 19  5  1  6  0  0  0
 19 25  1  0  0  0  0
 20 16  1  0  0  0  0
 21 13  1  0  0  0  0
 23 30  1  6  0  0  0
 23 10  1  0  0  0  0
 23 28  1  0  0  0  0
 25 27  1  0  0  0  0
 26  8  2  0  0  0  0
 27 21  1  0  0  0  0
 28 15  1  0  0  0  0
 29 30  1  0  0  0  0
 31 30  2  0  0  0  0
 32 34  1  0  0  0  0
 33 34  2  0  0  0  0
 33 35  1  0  0  0  0
 34 31  1  0  0  0  0
 35 29  2  0  0  0  0
 37 36  1  0  0  0  0
M  END
>  <MODEL>
1

>  <REMARK>
 VINA RESULT:      -6.1      0.000      0.000
  Name = 
  2 active torsions:
  status: ('A' for Active; 'I' for Inactive)
    1  A    between atoms: CA_4  and  C_37
    2  A    between atoms: C_23  and  C_30
                            x       y       z     vdW  Elec       q    Type
                         _______ _______ _______ _____ _____    ______ ____

>  <TORSDO>
F 2

$$$$
=
 OpenBabel11122413463D

 37 44  0  0  1  0  0  0  0  0999 V2000
  160.6860  207.2450  151.5990 C   0  0  0  0  0  2  0  0  0  0  0  0
  160.3260  207.8580  156.3020 C   0  0  0  0  0  0  0  0  0  0  0  0
  160.0800  211.1770  153.8100 C   0  0  0  0  0  0  0  0  0  0  0  0
  161.4230  206.1110  150.9550 C   0  0  0  0  0  0  0  0  0  0  0  0
  161.4900  211.0270  150.2290 C   0  0  0  0  0  2  0  0  0  0  0  0
  159.8890  210.3460  156.0520 C   0  0  0  0  0  0  0  0  0  0  0  0
  160.5840  210.6810  152.6070 C   0  0  0  0  0  0  0  0  0  0  0  0
  161.8320  207.3900  148.9290 C   0  0  0  0  0  0  0  0  0  0  0  0
  160.2720  210.2020  154.7360 C   0  0  0  0  0  0  0  0  0  0  0  0
  160.6150  211.4150  151.3450 N   0  0  0  0  0  0  0  0  0  0  0  0
  159.3160  211.5250  156.4320 N   0  0  0  0  0  0  0  0  0  0  0  0
  161.8910  206.2140  149.7490 N   0  0  0  0  0  0  0  0  0  0  0  0
  160.8290  209.1080  154.2200 N   0  0  0  0  0  0  0  0  0  0  0  0
  158.9500  207.3260  155.9440 C   0  0  0  0  0  1  0  0  0  0  0  0
  159.1460  213.4610  153.1810 C   0  0  0  0  0  2  0  0  0  0  0  0
  159.0980  212.5360  155.5270 C   0  0  0  0  0  3  0  0  0  0  0  0
  161.1910  207.9380  155.0210 C   0  0  0  0  0  2  0  0  0  0  0  0
  162.3930  208.7220  149.3540 C   0  0  1  0  0  3  0  0  0  0  0  0
  161.3050  209.5650  149.9750 C   0  0  1  0  0  3  0  0  0  0  0  0
  159.4860  212.3930  154.1760 C   0  0  0  0  0  0  0  0  0  0  0  0
  161.0510  209.3650  152.9100 C   0  0  0  0  0  0  0  0  0  0  0  0
  160.1810  209.2280  157.0150 C   0  0  0  0  0  2  0  0  0  0  0  0
  159.7610  212.6090  151.2260 C   0  0  1  0  0  3  0  0  0  0  0  0
  160.9760  206.8840  157.2610 C   0  0  0  0  0  1  0  0  0  0  0  0
  162.4140  209.0150  150.8520 C   0  0  1  0  0  3  0  0  0  0  0  0
  161.4040  207.2800  147.7500 O   0  0  0  0  0  0  0  0  0  0  0  0
  161.6740  208.3340  151.9920 C   0  0  2  0  0  3  0  0  0  0  0  0
  160.1270  213.5590  152.1880 O   0  0  0  0  0  0  0  0  0  0  0  0
  158.5030  213.4300  149.2210 C   0  0  0  0  0  3  0  0  0  0  0  0
  159.7340  213.2140  149.8500 C   0  0  0  0  0  0  0  0  0  0  0  0
  160.9240  213.5260  149.1740 C   0  0  0  0  0  3  0  0  0  0  0  0
  162.3620  214.4530  147.0470 Cl  0  0  0  0  0  0  0  0  0  0  0  0
  159.6450  214.2820  147.2630 C   0  0  0  0  0  3  0  0  0  0  0  0
  160.8770  214.0630  147.8850 C   0  0  0  0  0  0  0  0  0  0  0  0
  158.4580  213.9660  147.9300 C   0  0  0  0  0  3  0  0  0  0  0  0
  161.1890  204.8980  153.0040 O   0  0  0  0  0  1  0  0  0  0  0  0
  161.5640  204.7990  151.6630 C   0  0  0  0  0  2  0  0  0  0  0  0
  1 27  1  0  0  0  0
  2 22  1  0  0  0  0
  2 24  1  0  0  0  0
  3 20  2  0  0  0  0
  3  9  1  0  0  0  0
  4  1  1  0  0  0  0
  4 37  1  0  0  0  0
  5 10  1  0  0  0  0
  6 11  1  0  0  0  0
  6 22  1  0  0  0  0
  7 21  2  0  0  0  0
  7  3  1  0  0  0  0
  8 12  1  0  0  0  0
  9  6  2  0  0  0  0
 10  7  1  0  0  0  0
 12  4  2  0  0  0  0
 13  9  1  0  0  0  0
 13 17  1  0  0  0  0
 14  2  1  0  0  0  0
 15 20  1  0  0  0  0
 16 11  2  0  0  0  0
 17  2  1  0  0  0  0
 18  8  1  1  0  0  0
 18 19  1  0  0  0  0
 18 25  1  0  0  0  0
 19  5  1  6  0  0  0
 19 25  1  0  0  0  0
 20 16  1  0  0  0  0
 21 13  1  0  0  0  0
 23 30  1  6  0  0  0
 23 10  1  0  0  0  0
 23 28  1  0  0  0  0
 25 27  1  0  0  0  0
 26  8  2  0  0  0  0
 27 21  1  0  0  0  0
 28 15  1  0  0  0  0
 29 30  1  0  0  0  0
 31 30  2  0  0  0  0
 32 34  1  0  0  0  0
 33 34  2  0  0  0  0
 33 35  1  0  0  0  0
 34 31  1  0  0  0  0
 35 29  2  0  0  0  0
 37 36  1  0  0  0  0
M  END
>  <MODEL>
2

>  <REMARK>
 VINA RESULT:      -6.0      0.898      1.193
  Name = 
  2 active torsions:
  status: ('A' for Active; 'I' for Inactive)
    1  A    between atoms: CA_4  and  C_37
    2  A    between atoms: C_23  and  C_30
                            x       y       z     vdW  Elec       q    Type
                         _______ _______ _______ _____ _____    ______ ____

>  <TORSDO>
F 2

$$$$
=
 OpenBabel11122413463D

 37 44  0  0  1  0  0  0  0  0999 V2000
  160.9070  208.1500  151.6330 C   0  0  0  0  0  2  0  0  0  0  0  0
  160.6710  209.4310  156.2080 C   0  0  0  0  0  0  0  0  0  0  0  0
  159.9530  212.2870  153.2720 C   0  0  0  0  0  0  0  0  0  0  0  0
  161.7400  207.0150  151.1230 C   0  0  0  0  0  0  0  0  0  0  0  0
  161.2240  211.7420  149.6780 C   0  0  0  0  0  2  0  0  0  0  0  0
  159.9480  211.7920  155.6200 C   0  0  0  0  0  0  0  0  0  0  0  0
  160.4600  211.6700  152.1290 C   0  0  0  0  0  0  0  0  0  0  0  0
  161.9200  208.0060  148.9110 C   0  0  0  0  0  0  0  0  0  0  0  0
  160.2900  211.4910  154.3200 C   0  0  0  0  0  0  0  0  0  0  0  0
  160.3580  212.2010  150.7730 N   0  0  0  0  0  0  0  0  0  0  0  0
  159.2620  212.9490  155.8540 N   0  0  0  0  0  0  0  0  0  0  0  0
  162.1440  206.9810  149.8890 N   0  0  0  0  0  0  0  0  0  0  0  0
  160.9450  210.3950  153.9400 N   0  0  0  0  0  0  0  0  0  0  0  0
  159.3500  208.7090  156.0110 C   0  0  0  0  0  1  0  0  0  0  0  0
  158.7430  214.3380  152.3690 C   0  0  0  0  0  2  0  0  0  0  0  0
  158.8950  213.7820  154.8250 C   0  0  0  0  0  3  0  0  0  0  0  0
  161.4690  209.4050  154.8820 C   0  0  0  0  0  2  0  0  0  0  0  0
  162.3450  209.4380  149.1020 C   0  0  1  0  0  3  0  0  0  0  0  0
  161.1950  210.2470  149.6530 C   0  0  1  0  0  3  0  0  0  0  0  0
  159.2410  213.4760  153.4900 C   0  0  0  0  0  0  0  0  0  0  0  0
  161.0840  210.4710  152.5950 C   0  0  0  0  0  0  0  0  0  0  0  0
  160.4020  210.8710  156.7190 C   0  0  0  0  0  2  0  0  0  0  0  0
  159.3700  213.2670  150.5280 C   0  0  1  0  0  3  0  0  0  0  0  0
  161.4650  208.6880  157.2610 C   0  0  0  0  0  1  0  0  0  0  0  0
  162.3940  209.9570  150.5370 C   0  0  1  0  0  3  0  0  0  0  0  0
  161.4600  207.6730  147.7870 O   0  0  0  0  0  0  0  0  0  0  0  0
  161.7810  209.3840  151.8050 C   0  0  2  0  0  3  0  0  0  0  0  0
  159.6660  214.3850  151.3180 O   0  0  0  0  0  0  0  0  0  0  0  0
  157.9380  213.7550  148.5320 C   0  0  0  0  0  3  0  0  0  0  0  0
  159.2200  213.6500  149.0820 C   0  0  0  0  0  0  0  0  0  0  0  0
  160.3440  213.8600  148.2700 C   0  0  0  0  0  3  0  0  0  0  0  0
  161.5870  214.4530  145.9120 Cl  0  0  0  0  0  0  0  0  0  0  0  0
  158.9000  214.2990  146.3770 C   0  0  0  0  0  3  0  0  0  0  0  0
  160.1820  214.1880  146.9210 C   0  0  0  0  0  0  0  0  0  0  0  0
  157.7780  214.0820  147.1820 C   0  0  0  0  0  3  0  0  0  0  0  0
  161.2660  205.8490  153.1570 O   0  0  0  0  0  1  0  0  0  0  0  0
  162.0560  205.8480  152.0060 C   0  0  0  0  0  2  0  0  0  0  0  0
  1 27  1  0  0  0  0
  2 22  1  0  0  0  0
  2 24  1  0  0  0  0
  3 20  2  0  0  0  0
  3  9  1  0  0  0  0
  4  1  1  0  0  0  0
  4 37  1  0  0  0  0
  5 10  1  0  0  0  0
  6 11  1  0  0  0  0
  6 22  1  0  0  0  0
  7 21  2  0  0  0  0
  7  3  1  0  0  0  0
  8 12  1  0  0  0  0
  9  6  2  0  0  0  0
 10  7  1  0  0  0  0
 12  4  2  0  0  0  0
 13  9  1  0  0  0  0
 13 17  1  0  0  0  0
 14  2  1  0  0  0  0
 15 20  1  0  0  0  0
 16 11  2  0  0  0  0
 17  2  1  0  0  0  0
 18  8  1  1  0  0  0
 18 19  1  0  0  0  0
 18 25  1  0  0  0  0
 19  5  1  6  0  0  0
 19 25  1  0  0  0  0
 20 16  1  0  0  0  0
 21 13  1  0  0  0  0
 23 30  1  6  0  0  0
 23 10  1  0  0  0  0
 23 28  1  0  0  0  0
 25 27  1  0  0  0  0
 26  8  2  0  0  0  0
 27 21  1  0  0  0  0
 28 15  1  0  0  0  0
 29 30  1  0  0  0  0
 31 30  2  0  0  0  0
 32 34  1  0  0  0  0
 33 34  2  0  0  0  0
 33 35  1  0  0  0  0
 34 31  1  0  0  0  0
 35 29  2  0  0  0  0
 37 36  1  0  0  0  0
M  END
>  <MODEL>
3

>  <REMARK>
 VINA RESULT:      -5.3      1.271      1.590
  Name = 
  2 active torsions:
  status: ('A' for Active; 'I' for Inactive)
    1  A    between atoms: CA_4  and  C_37
    2  A    between atoms: C_23  and  C_30
                            x       y       z     vdW  Elec       q    Type
                         _______ _______ _______ _____ _____    ______ ____

>  <TORSDO>
F 2

$$$$
=
 OpenBabel11122413463D

 37 44  0  0  1  0  0  0  0  0999 V2000
  160.6710  208.0940  151.9590 C   0  0  0  0  0  2  0  0  0  0  0  0
  159.1610  210.4430  155.8110 C   0  0  0  0  0  0  0  0  0  0  0  0
  159.8470  212.5570  152.2960 C   0  0  0  0  0  0  0  0  0  0  0  0
  161.4520  206.8160  152.0090 C   0  0  0  0  0  0  0  0  0  0  0  0
  162.1160  211.0860  149.5540 C   0  0  0  0  0  2  0  0  0  0  0  0
  159.0140  212.6380  154.5450 C   0  0  0  0  0  0  0  0  0  0  0  0
  160.6010  211.6520  151.5490 C   0  0  0  0  0  0  0  0  0  0  0  0
  162.4760  207.2360  149.8460 C   0  0  0  0  0  0  0  0  0  0  0  0
  159.7100  212.0120  153.5330 C   0  0  0  0  0  0  0  0  0  0  0  0
  161.0180  211.8500  150.1640 N   0  0  0  0  0  0  0  0  0  0  0  0
  158.4640  213.8600  154.2880 N   0  0  0  0  0  0  0  0  0  0  0  0
  162.2230  206.4620  151.0260 N   0  0  0  0  0  0  0  0  0  0  0  0
  160.2880  210.8170  153.6330 N   0  0  0  0  0  0  0  0  0  0  0  0
  157.8850  209.7840  155.3180 C   0  0  0  0  0  1  0  0  0  0  0  0
  159.3010  214.4080  150.6360 C   0  0  0  0  0  2  0  0  0  0  0  0
  158.5720  214.4460  153.0500 C   0  0  0  0  0  3  0  0  0  0  0  0
  160.3310  210.0480  154.8770 C   0  0  0  0  0  2  0  0  0  0  0  0
  163.0180  208.6410  149.8790 C   0  0  1  0  0  3  0  0  0  0  0  0
  161.8810  209.6330  149.8220 C   0  0  1  0  0  3  0  0  0  0  0  0
  159.2820  213.8080  152.0080 C   0  0  0  0  0  0  0  0  0  0  0  0
  160.8620  210.5600  152.4340 C   0  0  0  0  0  0  0  0  0  0  0  0
  158.9530  211.9770  155.8950 C   0  0  0  0  0  2  0  0  0  0  0  0
  160.3270  212.8900  149.3830 C   0  0  1  0  0  3  0  0  0  0  0  0
  159.4580  209.9210  157.2000 C   0  0  0  0  0  1  0  0  0  0  0  0
  162.6760  209.4830  151.1060 C   0  0  1  0  0  3  0  0  0  0  0  0
  162.3600  206.6760  148.7240 O   0  0  0  0  0  0  0  0  0  0  0  0
  161.6120  209.2720  152.1710 C   0  0  2  0  0  3  0  0  0  0  0  0
  160.5100  214.1420  149.9830 O   0  0  0  0  0  0  0  0  0  0  0  0
  161.9940  213.3420  147.5690 C   0  0  0  0  0  3  0  0  0  0  0  0
  160.7070  212.9250  147.9290 C   0  0  0  0  0  0  0  0  0  0  0  0
  159.7820  212.5880  146.9300 C   0  0  0  0  0  3  0  0  0  0  0  0
  158.9920  212.2300  144.3410 Cl  0  0  0  0  0  0  0  0  0  0  0  0
  161.4370  213.0660  145.2290 C   0  0  0  0  0  3  0  0  0  0  0  0
  160.1490  212.6550  145.5830 C   0  0  0  0  0  0  0  0  0  0  0  0
  162.3590  213.4090  146.2210 C   0  0  0  0  0  3  0  0  0  0  0  0
  160.7620  204.6510  152.7580 O   0  0  0  0  0  1  0  0  0  0  0  0
  161.2950  205.8760  153.1640 C   0  0  0  0  0  2  0  0  0  0  0  0
  1  4  1  0  0  0  0
  1 27  1  0  0  0  0
  2 22  1  0  0  0  0
  2 24  1  0  0  0  0
  3  9  1  0  0  0  0
  4 37  1  0  0  0  0
  5 10  1  0  0  0  0
  6 22  1  0  0  0  0
  7  3  1  0  0  0  0
  7 21  2  0  0  0  0
  8 12  1  0  0  0  0
  9 13  1  0  0  0  0
  9  6  2  0  0  0  0
 10  7  1  0  0  0  0
 11  6  1  0  0  0  0
 12  4  2  0  0  0  0
 13 17  1  0  0  0  0
 14  2  1  0  0  0  0
 15 20  1  0  0  0  0
 16 11  2  0  0  0  0
 17  2  1  0  0  0  0
 18  8  1  1  0  0  0
 18 25  1  0  0  0  0
 19  5  1  6  0  0  0
 19 18  1  0  0  0  0
 19 25  1  0  0  0  0
 20  3  2  0  0  0  0
 20 16  1  0  0  0  0
 21 13  1  0  0  0  0
 23 30  1  6  0  0  0
 23 28  1  0  0  0  0
 23 10  1  0  0  0  0
 25 27  1  0  0  0  0
 26  8  2  0  0  0  0
 27 21  1  0  0  0  0
 28 15  1  0  0  0  0
 29 30  1  0  0  0  0
 31 30  2  0  0  0  0
 32 34  1  0  0  0  0
 33 34  2  0  0  0  0
 33 35  1  0  0  0  0
 34 31  1  0  0  0  0
 35 29  2  0  0  0  0
 36 37  1  0  0  0  0
M  END
>  <MODEL>
4

>  <REMARK>
 VINA RESULT:      -4.8      1.644      2.220
  Name = 
  2 active torsions:
  status: ('A' for Active; 'I' for Inactive)
    1  A    between atoms: CA_4  and  C_37
    2  A    between atoms: C_23  and  C_30
                            x       y       z     vdW  Elec       q    Type
                         _______ _______ _______ _____ _____    ______ ____

>  <TORSDO>
F 2

$$$$
=
 OpenBabel11122413463D

 37 44  0  0  1  0  0  0  0  0999 V2000
  160.8310  209.8100  148.6980 C   0  0  0  0  0  2  0  0  0  0  0  0
  161.5710  205.7950  146.2570 C   0  0  0  0  0  0  0  0  0  0  0  0
  161.3640  205.6260  150.4070 C   0  0  0  0  0  0  0  0  0  0  0  0
  161.2180  211.1720  148.2090 C   0  0  0  0  0  0  0  0  0  0  0  0
  161.9480  208.7960  152.5130 C   0  0  0  0  0  2  0  0  0  0  0  0
  161.5110  204.3790  148.3620 C   0  0  0  0  0  0  0  0  0  0  0  0
  161.5160  206.9650  150.7650 C   0  0  0  0  0  0  0  0  0  0  0  0
  161.4010  212.0460  150.4700 C   0  0  0  0  0  0  0  0  0  0  0  0
  161.5810  205.5610  149.0670 C   0  0  0  0  0  0  0  0  0  0  0  0
  161.4030  207.4880  152.1240 N   0  0  0  0  0  0  0  0  0  0  0  0
  161.2350  203.2330  149.0510 N   0  0  0  0  0  0  0  0  0  0  0  0
  161.4340  212.1470  149.0390 N   0  0  0  0  0  0  0  0  0  0  0  0
  161.8270  206.7540  148.5300 N   0  0  0  0  0  0  0  0  0  0  0  0
  160.0810  206.0160  146.0630 C   0  0  0  0  0  1  0  0  0  0  0  0
  160.7120  204.4840  152.5870 C   0  0  0  0  0  2  0  0  0  0  0  0
  161.0030  203.2520  150.4050 C   0  0  0  0  0  3  0  0  0  0  0  0
  162.1490  206.9460  147.1150 C   0  0  0  0  0  2  0  0  0  0  0  0
  162.2520  211.0780  151.2490 C   0  0  1  0  0  3  0  0  0  0  0  0
  161.4740  209.8140  151.5250 C   0  0  1  0  0  3  0  0  0  0  0  0
  161.0700  204.4620  151.1320 C   0  0  0  0  0  0  0  0  0  0  0  0
  161.8100  207.6490  149.5450 C   0  0  0  0  0  0  0  0  0  0  0  0
  161.8080  204.3980  146.8880 C   0  0  0  0  0  2  0  0  0  0  0  0
  160.7530  206.6350  153.1340 C   0  0  1  0  0  3  0  0  0  0  0  0
  162.2360  205.8280  144.8980 C   0  0  0  0  0  1  0  0  0  0  0  0
  162.6350  209.7770  150.5490 C   0  0  1  0  0  3  0  0  0  0  0  0
  160.7240  212.8880  151.1160 O   0  0  0  0  0  0  0  0  0  0  0  0
  162.0470  209.1250  149.3070 C   0  0  2  0  0  3  0  0  0  0  0  0
  161.4650  205.4380  153.2810 O   0  0  0  0  0  0  0  0  0  0  0  0
  160.7670  206.5790  155.6380 C   0  0  0  0  0  3  0  0  0  0  0  0
  160.5410  207.3050  154.4630 C   0  0  0  0  0  0  0  0  0  0  0  0
  160.0810  208.6280  154.5410 C   0  0  0  0  0  3  0  0  0  0  0  0
  159.2940  210.8730  155.8800 Cl  0  0  0  0  0  0  0  0  0  0  0  0
  160.0970  208.4950  156.9580 C   0  0  0  0  0  3  0  0  0  0  0  0
  159.8640  209.2210  155.7870 C   0  0  0  0  0  0  0  0  0  0  0  0
  160.5480  207.1750  156.8840 C   0  0  0  0  0  3  0  0  0  0  0  0
  160.1810  212.2030  146.3150 O   0  0  0  0  0  1  0  0  0  0  0  0
  161.2840  211.4610  146.7410 C   0  0  0  0  0  2  0  0  0  0  0  0
  1 27  1  0  0  0  0
  2 22  1  0  0  0  0
  2 17  1  0  0  0  0
  3  7  1  0  0  0  0
  3 20  1  0  0  0  0
  4  1  1  0  0  0  0
  4 12  2  0  0  0  0
  6 11  2  0  0  0  0
  6  9  1  0  0  0  0
  7 10  1  0  0  0  0
  8 26  2  0  0  0  0
  9  3  2  0  0  0  0
 10  5  1  0  0  0  0
 10 23  1  0  0  0  0
 11 16  1  0  0  0  0
 12  8  1  0  0  0  0
 13  9  1  0  0  0  0
 13 21  1  0  0  0  0
 14  2  1  0  0  0  0
 15 28  1  0  0  0  0
 16 20  2  0  0  0  0
 17 13  1  0  0  0  0
 18  8  1  6  0  0  0
 18 19  1  0  0  0  0
 19  5  1  1  0  0  0
 20 15  1  0  0  0  0
 21  7  2  0  0  0  0
 22  6  1  0  0  0  0
 23 28  1  0  0  0  0
 23 30  1  1  0  0  0
 24  2  1  0  0  0  0
 25 18  1  0  0  0  0
 25 19  1  0  0  0  0
 27 21  1  0  0  0  0
 27 25  1  0  0  0  0
 29 35  1  0  0  0  0
 30 31  1  0  0  0  0
 30 29  2  0  0  0  0
 31 34  2  0  0  0  0
 34 32  1  0  0  0  0
 34 33  1  0  0  0  0
 35 33  2  0  0  0  0
 36 37  1  0  0  0  0
 37  4  1  0  0  0  0
M  END
>  <MODEL>
5

>  <REMARK>
 VINA RESULT:      -3.8      2.903      7.969
  Name = 
  2 active torsions:
  status: ('A' for Active; 'I' for Inactive)
    1  A    between atoms: CA_4  and  C_37
    2  A    between atoms: C_23  and  C_30
                            x       y       z     vdW  Elec       q    Type
                         _______ _______ _______ _____ _____    ______ ____

>  <TORSDO>
F 2

$$$$
=
 OpenBabel11122413463D

 37 44  0  0  1  0  0  0  0  0999 V2000
  159.6510  208.8980  153.2970 C   0  0  0  0  0  2  0  0  0  0  0  0
  156.2360  211.0870  155.7820 C   0  0  0  0  0  0  0  0  0  0  0  0
  157.7750  212.9450  152.3950 C   0  0  0  0  0  0  0  0  0  0  0  0
  160.6130  207.9110  153.8830 C   0  0  0  0  0  0  0  0  0  0  0  0
  161.2200  211.9220  151.0120 C   0  0  0  0  0  2  0  0  0  0  0  0
  156.1170  213.0080  154.1270 C   0  0  0  0  0  0  0  0  0  0  0  0
  158.9490  212.2250  152.1700 C   0  0  0  0  0  0  0  0  0  0  0  0
  162.2940  208.3890  152.1940 C   0  0  0  0  0  0  0  0  0  0  0  0
  157.2810  212.5110  153.5840 C   0  0  0  0  0  0  0  0  0  0  0  0
  159.8290  212.3950  151.0180 N   0  0  0  0  0  0  0  0  0  0  0  0
  155.4540  213.9880  153.4470 N   0  0  0  0  0  0  0  0  0  0  0  0
  161.7710  207.6970  153.3370 N   0  0  0  0  0  0  0  0  0  0  0  0
  158.0240  211.5490  154.1260 N   0  0  0  0  0  0  0  0  0  0  0  0
  155.4490  210.0430  155.0100 C   0  0  0  0  0  1  0  0  0  0  0  0
  157.5370  214.3850  150.3080 C   0  0  0  0  0  2  0  0  0  0  0  0
  155.9140  214.4530  152.2380 C   0  0  0  0  0  3  0  0  0  0  0  0
  157.7390  210.9540  155.4330 C   0  0  0  0  0  2  0  0  0  0  0  0
  162.4440  209.8860  152.1320 C   0  0  1  0  0  3  0  0  0  0  0  0
  161.2330  210.4980  151.4700 C   0  0  1  0  0  3  0  0  0  0  0  0
  157.1060  213.9450  151.6740 C   0  0  0  0  0  0  0  0  0  0  0  0
  159.0730  211.3500  153.2930 C   0  0  0  0  0  0  0  0  0  0  0  0
  155.6710  212.4970  155.4700 C   0  0  0  0  0  2  0  0  0  0  0  0
  159.2930  213.1070  149.8450 C   0  0  1  0  0  3  0  0  0  0  0  0
  156.0620  210.8150  157.2600 C   0  0  0  0  0  1  0  0  0  0  0  0
  161.4590  210.7120  152.9540 C   0  0  1  0  0  3  0  0  0  0  0  0
  162.7670  207.7090  151.2450 O   0  0  0  0  0  0  0  0  0  0  0  0
  160.1350  210.3120  153.5860 C   0  0  2  0  0  3  0  0  0  0  0  0
  158.9320  214.4130  150.2020 O   0  0  0  0  0  0  0  0  0  0  0  0
  161.5060  213.6050  148.7820 C   0  0  0  0  0  3  0  0  0  0  0  0
  160.2050  213.1050  148.6510 C   0  0  0  0  0  0  0  0  0  0  0  0
  159.7600  212.6490  147.4010 C   0  0  0  0  0  3  0  0  0  0  0  0
  160.0570  212.1080  144.7420 Cl  0  0  0  0  0  0  0  0  0  0  0  0
  161.9160  213.1760  146.4350 C   0  0  0  0  0  3  0  0  0  0  0  0
  160.6160  212.6820  146.2970 C   0  0  0  0  0  0  0  0  0  0  0  0
  162.3600  213.6380  147.6760 C   0  0  0  0  0  3  0  0  0  0  0  0
  159.8930  207.8870  156.1650 O   0  0  0  0  0  1  0  0  0  0  0  0
  160.2240  207.0860  155.0710 C   0  0  0  0  0  2  0  0  0  0  0  0
  1 27  1  0  0  0  0
  1  4  1  0  0  0  0
  2 24  1  0  0  0  0
  3  9  1  0  0  0  0
  4 37  1  0  0  0  0
  5 10  1  0  0  0  0
  6 22  1  0  0  0  0
  7  3  1  0  0  0  0
  7 21  2  0  0  0  0
  8 12  1  0  0  0  0
  9 13  1  0  0  0  0
  9  6  2  0  0  0  0
 10  7  1  0  0  0  0
 11  6  1  0  0  0  0
 12  4  2  0  0  0  0
 13 17  1  0  0  0  0
 14  2  1  0  0  0  0
 15 20  1  0  0  0  0
 16 11  2  0  0  0  0
 17  2  1  0  0  0  0
 18  8  1  1  0  0  0
 18 25  1  0  0  0  0
 19  5  1  6  0  0  0
 19 18  1  0  0  0  0
 19 25  1  0  0  0  0
 20 16  1  0  0  0  0
 20  3  2  0  0  0  0
 21 27  1  0  0  0  0
 21 13  1  0  0  0  0
 22  2  1  0  0  0  0
 23 30  1  6  0  0  0
 23 28  1  0  0  0  0
 23 10  1  0  0  0  0
 25 27  1  0  0  0  0
 26  8  2  0  0  0  0
 28 15  1  0  0  0  0
 30 29  1  0  0  0  0
 31 30  2  0  0  0  0
 32 34  1  0  0  0  0
 33 35  1  0  0  0  0
 34 33  2  0  0  0  0
 34 31  1  0  0  0  0
 35 29  2  0  0  0  0
 37 36  1  0  0  0  0
M  END
>  <MODEL>
6

>  <REMARK>
 VINA RESULT:      -3.5      2.518      3.601
  Name = 
  2 active torsions:
  status: ('A' for Active; 'I' for Inactive)
    1  A    between atoms: CA_4  and  C_37
    2  A    between atoms: C_23  and  C_30
                            x       y       z     vdW  Elec       q    Type
                         _______ _______ _______ _____ _____    ______ ____

>  <TORSDO>
F 2

$$$$
=
 OpenBabel11122413463D

 37 44  0  0  1  0  0  0  0  0999 V2000
  160.5920  210.4470  147.8220 C   0  0  0  0  0  2  0  0  0  0  0  0
  161.3130  206.0060  146.2790 C   0  0  0  0  0  0  0  0  0  0  0  0
  161.4150  206.7650  150.3670 C   0  0  0  0  0  0  0  0  0  0  0  0
  160.8870  211.6740  147.0140 C   0  0  0  0  0  0  0  0  0  0  0  0
  162.0220  210.3390  151.6650 C   0  0  0  0  0  2  0  0  0  0  0  0
  161.4630  205.0960  148.6440 C   0  0  0  0  0  0  0  0  0  0  0  0
  161.5380  208.1540  150.4060 C   0  0  0  0  0  0  0  0  0  0  0  0
  161.1980  213.0350  149.0040 C   0  0  0  0  0  0  0  0  0  0  0  0
  161.5360  206.4070  149.0620 C   0  0  0  0  0  0  0  0  0  0  0  0
  161.5040  208.9640  151.6200 N   0  0  0  0  0  0  0  0  0  0  0  0
  161.2840  204.1270  149.5890 N   0  0  0  0  0  0  0  0  0  0  0  0
  161.1230  212.8140  147.5880 N   0  0  0  0  0  0  0  0  0  0  0  0
  161.6950  207.4540  148.2560 N   0  0  0  0  0  0  0  0  0  0  0  0
  159.8050  206.1440  146.1600 C   0  0  0  0  0  1  0  0  0  0  0  0
  160.9690  206.1250  152.7900 C   0  0  0  0  0  2  0  0  0  0  0  0
  161.1500  204.4440  150.9190 C   0  0  0  0  0  3  0  0  0  0  0  0
  161.9060  207.3330  146.8130 C   0  0  0  0  0  2  0  0  0  0  0  0
  162.1420  212.2870  149.9080 C   0  0  1  0  0  3  0  0  0  0  0  0
  161.4370  211.0990  150.5170 C   0  0  1  0  0  3  0  0  0  0  0  0
  161.2210  205.7860  151.3530 C   0  0  0  0  0  0  0  0  0  0  0  0
  161.7160  208.5540  149.0460 C   0  0  0  0  0  0  0  0  0  0  0  0
  161.6520  204.7920  147.1830 C   0  0  0  0  0  2  0  0  0  0  0  0
  160.9630  208.3450  152.8420 C   0  0  1  0  0  3  0  0  0  0  0  0
  161.8760  205.7490  144.8980 C   0  0  0  0  0  1  0  0  0  0  0  0
  162.5250  210.8710  149.4850 C   0  0  1  0  0  3  0  0  0  0  0  0
  160.5370  213.9850  149.4990 O   0  0  0  0  0  0  0  0  0  0  0  0
  161.8750  209.9440  148.4690 C   0  0  2  0  0  3  0  0  0  0  0  0
  161.7320  207.2270  153.1930 O   0  0  0  0  0  0  0  0  0  0  0  0
  159.6920  210.1130  154.0810 C   0  0  0  0  0  3  0  0  0  0  0  0
  160.8210  209.2900  154.0030 C   0  0  0  0  0  0  0  0  0  0  0  0
  161.8210  209.3870  154.9820 C   0  0  0  0  0  3  0  0  0  0  0  0
  162.9280  210.4090  157.2590 Cl  0  0  0  0  0  0  0  0  0  0  0  0
  160.5480  211.1080  156.1150 C   0  0  0  0  0  3  0  0  0  0  0  0
  161.6810  210.2930  156.0380 C   0  0  0  0  0  0  0  0  0  0  0  0
  159.5550  211.0180  155.1370 C   0  0  0  0  0  3  0  0  0  0  0  0
  159.6290  212.1370  145.0330 O   0  0  0  0  0  1  0  0  0  0  0  0
  160.8350  211.6280  145.5190 C   0  0  0  0  0  2  0  0  0  0  0  0
  1 27  1  0  0  0  0
  2 17  1  0  0  0  0
  2 22  1  0  0  0  0
  3  7  1  0  0  0  0
  3 20  1  0  0  0  0
  4 12  2  0  0  0  0
  4  1  1  0  0  0  0
  6  9  1  0  0  0  0
  6 11  2  0  0  0  0
  7 10  1  0  0  0  0
  8 26  2  0  0  0  0
  9  3  2  0  0  0  0
 10  5  1  0  0  0  0
 10 23  1  0  0  0  0
 11 16  1  0  0  0  0
 12  8  1  0  0  0  0
 13 21  1  0  0  0  0
 13  9  1  0  0  0  0
 14  2  1  0  0  0  0
 15 28  1  0  0  0  0
 16 20  2  0  0  0  0
 17 13  1  0  0  0  0
 18  8  1  6  0  0  0
 18 19  1  0  0  0  0
 19  5  1  1  0  0  0
 20 15  1  0  0  0  0
 21  7  2  0  0  0  0
 22  6  1  0  0  0  0
 23 28  1  0  0  0  0
 23 30  1  1  0  0  0
 24  2  1  0  0  0  0
 25 18  1  0  0  0  0
 25 19  1  0  0  0  0
 27 21  1  0  0  0  0
 27 25  1  0  0  0  0
 29 35  1  0  0  0  0
 30 29  2  0  0  0  0
 30 31  1  0  0  0  0
 31 34  2  0  0  0  0
 34 33  1  0  0  0  0
 34 32  1  0  0  0  0
 35 33  2  0  0  0  0
 36 37  1  0  0  0  0
 37  4  1  0  0  0  0
M  END
>  <MODEL>
7

>  <REMARK>
 VINA RESULT:      -3.4      3.108      7.595
  Name = 
  2 active torsions:
  status: ('A' for Active; 'I' for Inactive)
    1  A    between atoms: CA_4  and  C_37
    2  A    between atoms: C_23  and  C_30
                            x       y       z     vdW  Elec       q    Type
                         _______ _______ _______ _____ _____    ______ ____

>  <TORSDO>
F 2

$$$$
