=
 OpenBabel11122414203D

 34 40  0  0  1  0  0  0  0  0999 V2000
  160.9250  207.5940  154.3340 C   0  0  0  0  0  0  0  0  0  0  0  0
  161.5610  205.4740  153.1320 C   0  0  0  0  0  3  0  0  0  0  0  0
  157.4360  213.0470  154.1380 C   0  0  2  0  0  3  0  0  0  0  0  0
  159.7710  209.5470  155.1910 C   0  0  0  0  0  0  0  0  0  0  0  0
  159.2020  211.3130  153.5690 C   0  0  0  0  0  0  0  0  0  0  0  0
  159.6840  213.7410  153.1500 C   0  0  0  0  0  1  0  0  0  0  0  0
  156.4640  213.9270  153.3770 C   0  0  0  0  0  1  0  0  0  0  0  0
  158.7810  212.9520  156.0620 C   0  0  0  0  0  2  0  0  0  0  0  0
  161.8970  207.5110  152.0030 C   0  0  2  0  0  3  0  0  0  0  0  0
  161.3830  207.4470  148.8050 C   0  0  0  0  0  2  0  0  0  0  0  0
  159.7580  210.6300  152.5590 C   0  0  0  0  0  3  0  0  0  0  0  0
  158.5180  211.4470  156.1020 C   0  0  0  0  0  2  0  0  0  0  0  0
  160.8210  208.5470  151.6000 C   0  0  1  0  0  3  0  0  0  0  0  0
  161.8660  205.1190  151.8970 C   0  0  0  0  0  3  0  0  0  0  0  0
  159.2130  210.7490  154.9640 C   0  0  0  0  0  0  0  0  0  0  0  0
  157.8080  213.6900  155.3450 O   0  0  0  0  0  0  0  0  0  0  0  0
  161.0820  206.3490  149.8390 C   0  0  2  0  0  3  0  0  0  0  0  0
  160.3980  208.8030  154.0880 C   0  0  2  0  0  3  0  0  0  0  0  0
  158.6140  212.6580  153.2320 C   0  0  2  0  0  3  0  0  0  0  0  0
  160.4000  209.3590  152.7590 N   0  0  0  0  0  0  0  0  0  0  0  0
  160.3190  207.6350  156.6590 C   0  0  0  0  0  3  0  0  0  0  0  0
  162.0930  208.6840  149.3620 C   0  0  0  0  0  2  0  0  0  0  0  0
  159.7510  208.9390  156.4880 N   0  0  0  0  0  0  0  0  0  0  0  0
  161.2820  209.4270  150.4260 C   0  0  0  0  0  2  0  0  0  0  0  0
  162.0750  206.3250  151.0220 C   0  0  1  0  0  3  0  0  0  0  0  0
  160.8620  207.0140  155.6510 N   0  0  0  0  0  0  0  0  0  0  0  0
  161.5380  206.8820  153.2600 N   0  0  0  0  0  0  0  0  0  0  0  0
  161.0520  205.0630  149.1610 N   0  0  0  0  0  2  0  0  0  0  0  0
  161.4910  205.2940  147.7940 C   0  0  0  0  0  2  0  0  0  0  0  0
  160.6870  201.8650  146.9720 C   0  0  0  0  0  2  0  0  0  0  0  0
  161.2820  203.8580  145.7660 C   0  0  0  0  0  2  0  0  0  0  0  0
  161.8900  203.9810  147.1470 C   0  0  0  0  0  3  0  0  0  0  0  0
  161.0060  202.3850  145.5880 C   0  0  0  0  0  2  0  0  0  0  0  0
  161.3460  202.8180  147.9550 C   0  0  0  0  0  2  0  0  0  0  0  0
  1 26  2  0  0  0  0
  2 27  1  0  0  0  0
  3  7  1  6  0  0  0
  3 16  1  0  0  0  0
  4 23  1  0  0  0  0
  5 15  1  0  0  0  0
  8 12  1  0  0  0  0
  9 27  1  1  0  0  0
 10 22  1  0  0  0  0
 10 17  1  0  0  0  0
 11 20  1  0  0  0  0
 11  5  2  0  0  0  0
 13 24  1  6  0  0  0
 13  9  1  0  0  0  0
 13 20  1  0  0  0  0
 14  2  2  0  0  0  0
 15  4  2  0  0  0  0
 15 12  1  0  0  0  0
 16  8  1  0  0  0  0
 17 28  1  6  0  0  0
 17 25  1  0  0  0  0
 18  1  1  6  0  0  0
 18  4  1  0  0  0  0
 19  6  1  1  0  0  0
 19  5  1  0  0  0  0
 19  3  1  0  0  0  0
 20 18  1  0  0  0  0
 22 24  1  0  0  0  0
 23 21  2  0  0  0  0
 25 14  1  1  0  0  0
 25  9  1  0  0  0  0
 26 21  1  0  0  0  0
 27  1  1  0  0  0  0
 29 28  1  0  0  0  0
 30 34  1  0  0  0  0
 31 32  1  0  0  0  0
 32 29  1  0  0  0  0
 32 34  1  0  0  0  0
 33 31  1  0  0  0  0
 33 30  1  0  0  0  0
M  END
>  <MODEL>
1

>  <REMARK>
 VINA RESULT:      -8.8      0.000      0.000
  Name = 
  3 active torsions:
  status: ('A' for Active; 'I' for Inactive)
    1  A    between atoms: C_17  and  N_28
    2  A    between atoms: N_28  and  C_29
    3  A    between atoms: C_29  and  C_32
                            x       y       z     vdW  Elec       q    Type
                         _______ _______ _______ _____ _____    ______ ____

>  <TORSDO>
F 3

$$$$
=
 OpenBabel11122414203D

 34 40  0  0  1  0  0  0  0  0999 V2000
  161.6290  208.9590  150.9260 C   0  0  0  0  0  0  0  0  0  0  0  0
  161.1110  210.9510  152.3770 C   0  0  0  0  0  3  0  0  0  0  0  0
  160.1080  202.8380  149.4540 C   0  0  2  0  0  3  0  0  0  0  0  0
  161.5140  206.9390  149.5890 C   0  0  0  0  0  0  0  0  0  0  0  0
  160.9340  204.8510  150.7640 C   0  0  0  0  0  0  0  0  0  0  0  0
  161.9230  202.5910  151.2320 C   0  0  0  0  0  1  0  0  0  0  0  0
  159.2310  201.6300  149.7190 C   0  0  0  0  0  1  0  0  0  0  0  0
  161.9790  203.5780  148.2410 C   0  0  0  0  0  2  0  0  0  0  0  0
  161.5910  208.9140  153.4520 C   0  0  2  0  0  3  0  0  0  0  0  0
  159.9290  208.3350  156.1720 C   0  0  0  0  0  2  0  0  0  0  0  0
  160.8440  205.4830  151.9420 C   0  0  0  0  0  3  0  0  0  0  0  0
  161.3160  204.9520  148.1670 C   0  0  0  0  0  2  0  0  0  0  0  0
  160.8030  207.5880  153.3410 C   0  0  1  0  0  3  0  0  0  0  0  0
  160.8130  211.1710  153.6440 C   0  0  0  0  0  3  0  0  0  0  0  0
  161.2960  205.6140  149.5190 C   0  0  0  0  0  0  0  0  0  0  0  0
  161.0760  202.5120  148.4720 O   0  0  0  0  0  0  0  0  0  0  0  0
  159.7230  209.4710  155.1540 C   0  0  2  0  0  3  0  0  0  0  0  0
  161.4340  207.6330  150.8840 C   0  0  0  0  0  0  0  0  0  0  0  0
  160.6910  203.3640  150.7750 C   0  0  2  0  0  3  0  0  0  0  0  0
  161.1050  206.8910  152.0750 N   0  0  0  0  0  0  0  0  0  0  0  0
  161.9750  209.1350  148.5550 C   0  0  0  0  0  3  0  0  0  0  0  0
  161.1270  207.4250  155.8930 C   0  0  0  0  0  2  0  0  0  0  0  0
  161.7990  207.7200  148.4240 N   0  0  0  0  0  2  0  0  0  0  0  0
  161.0320  206.6790  154.5600 C   0  0  0  0  0  2  0  0  0  0  0  0
  161.0290  209.9350  154.4750 C   0  0  1  0  0  3  0  0  0  0  0  0
  161.8920  209.7050  149.7230 N   0  0  0  0  0  0  0  0  0  0  0  0
  161.5560  209.6230  152.1870 N   0  0  0  0  0  0  0  0  0  0  0  0
  159.0620  210.5820  155.8210 N   0  0  0  0  0  2  0  0  0  0  0  0
  157.7400  210.7060  155.2300 C   0  0  0  0  0  2  0  0  0  0  0  0
  158.7710  214.1640  154.9930 C   0  0  0  0  0  2  0  0  0  0  0  0
  157.5030  212.6220  153.6530 C   0  0  0  0  0  2  0  0  0  0  0  0
  157.3680  212.1700  155.0910 C   0  0  0  0  0  3  0  0  0  0  0  0
  157.9380  214.0660  153.7340 C   0  0  0  0  0  2  0  0  0  0  0  0
  158.3250  213.0280  155.8970 C   0  0  0  0  0  2  0  0  0  0  0  0
  1 27  1  0  0  0  0
  2 14  2  0  0  0  0
  3  7  1  1  0  0  0
  3 19  1  0  0  0  0
  4 18  1  0  0  0  0
  5 19  1  0  0  0  0
  5 11  2  0  0  0  0
  8 16  1  0  0  0  0
  9 27  1  6  0  0  0
  9 25  1  0  0  0  0
 11 20  1  0  0  0  0
 12  8  1  0  0  0  0
 12 15  1  0  0  0  0
 13  9  1  0  0  0  0
 13 24  1  1  0  0  0
 15  4  2  0  0  0  0
 15  5  1  0  0  0  0
 16  3  1  0  0  0  0
 17 28  1  1  0  0  0
 17 10  1  0  0  0  0
 18  1  2  0  0  0  0
 18 20  1  0  0  0  0
 19  6  1  6  0  0  0
 20 13  1  0  0  0  0
 21 26  2  0  0  0  0
 22 10  1  0  0  0  0
 23 21  1  0  0  0  0
 23  4  1  0  0  0  0
 24 22  1  0  0  0  0
 25 14  1  6  0  0  0
 25 17  1  0  0  0  0
 26  1  1  0  0  0  0
 27  2  1  0  0  0  0
 29 28  1  0  0  0  0
 30 34  1  0  0  0  0
 31 33  1  0  0  0  0
 31 32  1  0  0  0  0
 32 29  1  0  0  0  0
 32 34  1  0  0  0  0
 33 30  1  0  0  0  0
M  END
>  <MODEL>
2

>  <REMARK>
 VINA RESULT:      -8.8      2.801      9.013
  Name = 
  3 active torsions:
  status: ('A' for Active; 'I' for Inactive)
    1  A    between atoms: C_17  and  N_28
    2  A    between atoms: N_28  and  C_29
    3  A    between atoms: C_29  and  C_32
                            x       y       z     vdW  Elec       q    Type
                         _______ _______ _______ _____ _____    ______ ____

>  <TORSDO>
F 3

$$$$
=
 OpenBabel11122414203D

 34 40  0  0  1  0  0  0  0  0999 V2000
  161.4280  207.7640  149.5710 C   0  0  0  0  0  0  0  0  0  0  0  0
  161.8070  206.0020  147.8130 C   0  0  0  0  0  3  0  0  0  0  0  0
  161.9560  209.3090  155.8390 C   0  0  2  0  0  3  0  0  0  0  0  0
  161.5700  209.2010  151.5200 C   0  0  0  0  0  0  0  0  0  0  0  0
  161.1820  208.1500  153.7160 C   0  0  0  0  0  0  0  0  0  0  0  0
  159.6060  208.3290  155.6610 C   0  0  0  0  0  1  0  0  0  0  0  0
  162.3730  208.8950  157.2360 C   0  0  0  0  0  1  0  0  0  0  0  0
  160.8900  211.0100  154.6180 C   0  0  0  0  0  2  0  0  0  0  0  0
  160.5130  205.4120  149.6880 C   0  0  2  0  0  3  0  0  0  0  0  0
  160.8680  202.3680  150.7380 C   0  0  0  0  0  2  0  0  0  0  0  0
  160.9690  206.9500  153.1570 C   0  0  0  0  0  3  0  0  0  0  0  0
  161.8260  210.6830  153.4560 C   0  0  0  0  0  2  0  0  0  0  0  0
  160.9640  205.3920  151.1670 C   0  0  1  0  0  3  0  0  0  0  0  0
  161.6540  204.6950  147.7080 C   0  0  0  0  0  3  0  0  0  0  0  0
  161.4920  209.3440  152.8550 C   0  0  0  0  0  0  0  0  0  0  0  0
  161.3760  210.6010  155.8840 O   0  0  0  0  0  0  0  0  0  0  0  0
  161.6890  203.1070  149.6670 C   0  0  2  0  0  3  0  0  0  0  0  0
  161.3180  207.8900  150.9020 C   0  0  0  0  0  0  0  0  0  0  0  0
  161.0600  208.2280  155.2150 C   0  0  2  0  0  3  0  0  0  0  0  0
  161.0040  206.7550  151.7330 N   0  0  0  0  0  0  0  0  0  0  0  0
  162.0370  210.0670  149.2530 C   0  0  0  0  0  3  0  0  0  0  0  0
  159.6870  203.1570  151.3070 C   0  0  0  0  0  2  0  0  0  0  0  0
  161.9240  210.2920  150.6630 N   0  0  0  0  0  2  0  0  0  0  0  0
  160.0990  204.4470  152.0190 C   0  0  0  0  0  2  0  0  0  0  0  0
  160.8710  204.1450  148.8690 C   0  0  1  0  0  3  0  0  0  0  0  0
  161.8070  208.8870  148.7530 N   0  0  0  0  0  0  0  0  0  0  0  0
  161.1750  206.4910  148.9790 N   0  0  0  0  0  0  0  0  0  0  0  0
  162.2880  202.1240  148.7770 N   0  0  0  0  0  2  0  0  0  0  0  0
  161.2040  201.3150  148.2460 C   0  0  0  0  0  2  0  0  0  0  0  0
  160.4560  199.4150  145.2610 C   0  0  0  0  0  2  0  0  0  0  0  0
  160.2610  201.7040  145.9710 C   0  0  0  0  0  2  0  0  0  0  0  0
  161.4010  201.0940  146.7580 C   0  0  0  0  0  3  0  0  0  0  0  0
  160.0790  200.7980  144.7770 C   0  0  0  0  0  2  0  0  0  0  0  0
  161.3860  199.6100  146.4460 C   0  0  0  0  0  2  0  0  0  0  0  0
  1 18  2  0  0  0  0
  2 27  1  0  0  0  0
  3 16  1  0  0  0  0
  3  7  1  1  0  0  0
  4 15  2  0  0  0  0
  5 19  1  0  0  0  0
  8 16  1  0  0  0  0
  9 27  1  6  0  0  0
  9 13  1  0  0  0  0
 10 22  1  0  0  0  0
 11  5  2  0  0  0  0
 12  8  1  0  0  0  0
 13 20  1  0  0  0  0
 13 24  1  1  0  0  0
 14  2  2  0  0  0  0
 15 12  1  0  0  0  0
 15  5  1  0  0  0  0
 17 28  1  6  0  0  0
 17 10  1  0  0  0  0
 18  4  1  0  0  0  0
 18 20  1  0  0  0  0
 19  6  1  6  0  0  0
 19  3  1  0  0  0  0
 20 11  1  0  0  0  0
 21 23  1  0  0  0  0
 22 24  1  0  0  0  0
 23  4  1  0  0  0  0
 25 14  1  6  0  0  0
 25 17  1  0  0  0  0
 25  9  1  0  0  0  0
 26 21  2  0  0  0  0
 26  1  1  0  0  0  0
 27  1  1  0  0  0  0
 29 28  1  0  0  0  0
 30 34  1  0  0  0  0
 31 32  1  0  0  0  0
 32 29  1  0  0  0  0
 33 30  1  0  0  0  0
 33 31  1  0  0  0  0
 34 32  1  0  0  0  0
M  END
>  <MODEL>
3

>  <REMARK>
 VINA RESULT:      -6.8      2.460      4.727
  Name = 
  3 active torsions:
  status: ('A' for Active; 'I' for Inactive)
    1  A    between atoms: C_17  and  N_28
    2  A    between atoms: N_28  and  C_29
    3  A    between atoms: C_29  and  C_32
                            x       y       z     vdW  Elec       q    Type
                         _______ _______ _______ _____ _____    ______ ____

>  <TORSDO>
F 3

$$$$
=
 OpenBabel11122414203D

 34 40  0  0  1  0  0  0  0  0999 V2000
  161.0060  208.5870  153.5820 C   0  0  0  0  0  0  0  0  0  0  0  0
  162.1760  207.0720  151.9450 C   0  0  0  0  0  3  0  0  0  0  0  0
  156.4200  213.0820  154.4170 C   0  0  2  0  0  3  0  0  0  0  0  0
  159.3930  209.9460  154.7790 C   0  0  0  0  0  0  0  0  0  0  0  0
  158.5600  211.9630  153.6330 C   0  0  0  0  0  0  0  0  0  0  0  0
  158.5210  214.4530  153.9490 C   0  0  0  0  0  1  0  0  0  0  0  0
  155.3320  213.9410  153.8030 C   0  0  0  0  0  1  0  0  0  0  0  0
  157.6180  212.6940  156.4000 C   0  0  0  0  0  2  0  0  0  0  0  0
  162.1300  209.3740  151.4600 C   0  0  2  0  0  3  0  0  0  0  0  0
  161.8620  210.1440  148.3240 C   0  0  0  0  0  2  0  0  0  0  0  0
  159.3210  211.7240  152.5560 C   0  0  0  0  0  3  0  0  0  0  0  0
  157.6930  211.2220  155.9990 C   0  0  0  0  0  2  0  0  0  0  0  0
  160.8820  210.2540  151.2160 C   0  0  1  0  0  3  0  0  0  0  0  0
  162.6350  207.1560  150.7100 C   0  0  0  0  0  3  0  0  0  0  0  0
  158.6010  211.0310  154.8140 C   0  0  0  0  0  0  0  0  0  0  0  0
  156.5570  213.4060  155.7900 O   0  0  0  0  0  0  0  0  0  0  0  0
  161.7410  208.7560  148.9770 C   0  0  2  0  0  3  0  0  0  0  0  0
  160.2440  209.6900  153.6060 C   0  0  2  0  0  3  0  0  0  0  0  0
  157.7140  213.2090  153.5980 C   0  0  2  0  0  3  0  0  0  0  0  0
  160.2130  210.5980  152.4870 N   0  0  0  0  0  0  0  0  0  0  0  0
  160.2500  207.8340  155.7350 C   0  0  0  0  0  3  0  0  0  0  0  0
  162.2410  211.2780  149.2800 C   0  0  0  0  0  2  0  0  0  0  0  0
  159.4200  208.9960  155.8500 N   0  0  0  0  0  0  0  0  0  0  0  0
  161.2150  211.5090  150.3910 C   0  0  0  0  0  2  0  0  0  0  0  0
  162.6320  208.5810  150.2260 C   0  0  1  0  0  3  0  0  0  0  0  0
  160.9840  207.6500  154.6750 N   0  0  0  0  0  0  0  0  0  0  0  0
  161.8340  208.3500  152.4440 N   0  0  0  0  0  0  0  0  0  0  0  0
  162.0430  207.7420  147.9790 N   0  0  0  0  0  2  0  0  0  0  0  0
  161.1250  206.6380  148.2040 C   0  0  0  0  0  2  0  0  0  0  0  0
  162.7680  204.5240  145.7730 C   0  0  0  0  0  2  0  0  0  0  0  0
  160.9540  204.3060  147.3360 C   0  0  0  0  0  2  0  0  0  0  0  0
  161.0400  205.7710  146.9620 C   0  0  0  0  0  3  0  0  0  0  0  0
  161.6830  203.5760  146.2340 C   0  0  0  0  0  2  0  0  0  0  0  0
  162.3020  205.9240  146.1350 C   0  0  0  0  0  2  0  0  0  0  0  0
  1 26  2  0  0  0  0
  2 27  1  0  0  0  0
  3  7  1  6  0  0  0
  3 16  1  0  0  0  0
  4 15  2  0  0  0  0
  4 23  1  0  0  0  0
  5 15  1  0  0  0  0
  9 27  1  1  0  0  0
 10 17  1  0  0  0  0
 10 22  1  0  0  0  0
 11  5  2  0  0  0  0
 12  8  1  0  0  0  0
 13 24  1  1  0  0  0
 13  9  1  0  0  0  0
 13 20  1  0  0  0  0
 14  2  2  0  0  0  0
 15 12  1  0  0  0  0
 16  8  1  0  0  0  0
 17 28  1  6  0  0  0
 17 25  1  0  0  0  0
 18  1  1  6  0  0  0
 18  4  1  0  0  0  0
 19  5  1  0  0  0  0
 19  6  1  1  0  0  0
 19  3  1  0  0  0  0
 20 11  1  0  0  0  0
 20 18  1  0  0  0  0
 21 23  2  0  0  0  0
 22 24  1  0  0  0  0
 25 14  1  1  0  0  0
 25  9  1  0  0  0  0
 26 21  1  0  0  0  0
 27  1  1  0  0  0  0
 28 29  1  0  0  0  0
 30 34  1  0  0  0  0
 30 33  1  0  0  0  0
 32 31  1  0  0  0  0
 32 29  1  0  0  0  0
 33 31  1  0  0  0  0
 34 32  1  0  0  0  0
M  END
>  <MODEL>
4

>  <REMARK>
 VINA RESULT:      -6.6      1.341      1.880
  Name = 
  3 active torsions:
  status: ('A' for Active; 'I' for Inactive)
    1  A    between atoms: C_17  and  N_28
    2  A    between atoms: N_28  and  C_29
    3  A    between atoms: C_29  and  C_32
                            x       y       z     vdW  Elec       q    Type
                         _______ _______ _______ _____ _____    ______ ____

>  <TORSDO>
F 3

$$$$
