=
 OpenBabel11122413543D

 37 43  0  0  1  0  0  0  0  0999 V2000
  157.7670  212.0790  153.7420 O   0  0  0  0  0  0  0  0  0  0  0  0
  161.5960  210.9250  150.5070 C   0  0  0  0  0  0  0  0  0  0  0  0
  160.3840  209.8870  154.3190 C   0  0  0  0  0  0  0  0  0  0  0  0
  156.5470  212.7410  153.9940 C   0  0  2  0  0  3  0  0  0  0  0  0
  159.3540  211.5810  157.2110 C   0  0  0  0  0  2  0  0  0  0  0  0
  160.8590  209.0660  152.1220 C   0  0  0  0  0  0  0  0  0  0  0  0
  160.3670  211.1390  154.9700 N   0  0  0  0  0  0  0  0  0  0  0  0
  155.9190  211.6080  156.2660 C   0  0  0  0  0  0  0  0  0  0  0  0
  160.3920  210.0570  152.9710 C   0  0  0  0  0  0  0  0  0  0  0  0
  160.6390  211.4130  156.3870 C   0  0  2  0  0  3  0  0  0  0  0  0
  161.1100  207.7900  152.6570 C   0  0  0  0  0  3  0  0  0  0  0  0
  155.5960  211.8440  154.8000 C   0  0  0  0  0  2  0  0  0  0  0  0
  160.2490  211.4790  152.5920 C   0  0  2  0  0  3  0  0  0  0  0  0
  160.7280  211.5070  149.4090 C   0  0  0  0  0  1  0  0  0  0  0  0
  160.4390  208.4420  156.3640 C   0  0  0  0  0  2  0  0  0  0  0  0
  160.9520  207.5680  154.0430 C   0  0  0  0  0  3  0  0  0  0  0  0
  161.4790  211.8290  151.7630 C   0  0  0  0  0  2  0  0  0  0  0  0
  157.0320  212.2880  157.0210 C   0  0  0  0  0  2  0  0  0  0  0  0
  158.2830  212.0530  156.3350 N   0  0  1  0  0  0  0  0  0  0  0  0
  160.6060  208.6370  154.8950 C   0  0  0  0  0  0  0  0  0  0  0  0
  160.1920  212.2000  153.9650 C   0  0  1  0  0  3  0  0  0  0  0  0
  161.1920  209.4340  150.7060 C   0  0  0  0  0  2  0  0  0  0  0  0
  161.7710  210.5810  157.0160 C   0  0  1  0  0  3  0  0  0  0  0  0
  163.0350  210.9650  150.0380 C   0  0  0  0  0  1  0  0  0  0  0  0
  158.6710  213.2800  155.6490 C   0  0  0  0  0  2  0  0  0  0  0  0
  155.2180  210.8220  156.8800 O   0  0  0  0  0  0  0  0  0  0  0  0
  158.8300  212.9170  154.1660 C   0  0  2  0  0  3  0  0  0  0  0  0
  161.5800  209.0600  157.1640 C   0  0  0  0  0  2  0  0  0  0  0  0
  164.0910  211.4810  157.2510 C   0  0  0  0  0  3  0  0  0  0  0  0
  163.1070  210.9230  156.4310 C   0  0  0  0  0  0  0  0  0  0  0  0
  163.3780  210.7200  155.0720 C   0  0  0  0  0  3  0  0  0  0  0  0
  164.8970  210.8850  153.2460 F   0  0  0  0  0  0  0  0  0  0  0  0
  165.5690  211.6150  155.3790 N   0  0  0  0  0  0  0  0  0  0  0  0
  164.6250  211.0760  154.5600 C   0  0  0  0  0  0  0  0  0  0  0  0
  165.3290  211.8220  156.7010 C   0  0  0  0  0  3  0  0  0  0  0  0
  155.8990  213.1760  152.6830 C   0  0  0  0  0  2  0  0  0  0  0  0
  154.8490  214.2540  152.8960 C   0  0  0  0  0  1  0  0  0  0  0  0
  1  4  1  0  0  0  0
  1 27  1  0  0  0  0
  2 22  1  0  0  0  0
  2 17  1  0  0  0  0
  3 20  1  0  0  0  0
  3  7  1  0  0  0  0
  4 36  1  6  0  0  0
  4 12  1  0  0  0  0
  6 11  2  0  0  0  0
  6  9  1  0  0  0  0
  7 10  1  0  0  0  0
  8 26  2  0  0  0  0
  8 18  1  0  0  0  0
  9  3  2  0  0  0  0
 10 23  1  0  0  0  0
 10  5  1  1  0  0  0
 11 16  1  0  0  0  0
 12  8  1  0  0  0  0
 13 17  1  6  0  0  0
 13  9  1  0  0  0  0
 13 21  1  0  0  0  0
 14  2  1  0  0  0  0
 15 28  1  0  0  0  0
 16 20  2  0  0  0  0
 19 25  1  1  0  0  0
 19 18  1  0  0  0  0
 19  5  1  0  0  0  0
 20 15  1  0  0  0  0
 21 27  1  0  0  0  0
 21  7  1  1  0  0  0
 22  6  1  0  0  0  0
 23 30  1  6  0  0  0
 23 28  1  0  0  0  0
 24  2  1  0  0  0  0
 27 25  1  1  0  0  0
 30 29  2  0  0  0  0
 31 30  1  0  0  0  0
 32 34  1  0  0  0  0
 33 35  2  0  0  0  0
 34 31  2  0  0  0  0
 34 33  1  0  0  0  0
 35 29  1  0  0  0  0
 36 37  1  0  0  0  0
M  END
>  <MODEL>
1

>  <REMARK>
 VINA RESULT:       1.1      0.000      0.000
  Name = 
  2 active torsions:
  status: ('A' for Active; 'I' for Inactive)
    1  A    between atoms: C_4  and  C_36
    2  A    between atoms: C_23  and  C_30
                            x       y       z     vdW  Elec       q    Type
                         _______ _______ _______ _____ _____    ______ ____

>  <TORSDO>
F 2

$$$$
