=
 OpenBabel11122414203D

 34 42  0  0  1  0  0  0  0  0999 V2000
  160.9180  208.0250  154.1440 C   0  0  0  0  0  0  0  0  0  0  0  0
  162.3480  206.4110  152.7980 C   0  0  0  0  0  2  0  0  0  0  0  0
  159.5670  213.4120  155.9440 C   0  0  2  0  0  0  0  0  0  0  0  0
  159.1510  209.4440  155.0050 C   0  0  0  0  0  0  0  0  0  0  0  0
  158.8070  211.7920  154.0090 C   0  0  1  0  0  3  0  0  0  0  0  0
  160.4610  212.1750  155.9760 C   0  0  2  0  0  3  0  0  0  0  0  0
  160.7210  213.3310  156.9210 C   0  0  0  0  0  2  0  0  0  0  0  0
  157.9160  211.7340  157.0790 C   0  0  0  0  0  2  0  0  0  0  0  0
  162.2690  208.6690  152.1060 C   0  0  2  0  0  3  0  0  0  0  0  0
  161.7120  208.8730  148.9010 C   0  0  0  0  0  2  0  0  0  0  0  0
  159.3550  211.2030  152.7100 C   0  0  0  0  0  2  0  0  0  0  0  0
  157.2640  210.9490  155.9590 C   0  0  0  0  0  2  0  0  0  0  0  0
  161.0870  209.5910  151.7330 C   0  0  1  0  0  3  0  0  0  0  0  0
  163.0040  206.4630  151.5480 O   0  0  0  0  0  0  0  0  0  0  0  0
  158.2270  210.6180  154.8210 C   0  0  2  0  0  3  0  0  0  0  0  0
  158.1990  213.1590  156.6110 C   0  0  0  0  0  2  0  0  0  0  0  0
  161.8130  207.6080  149.7740 C   0  0  1  0  0  3  0  0  0  0  0  0
  160.1670  209.2080  154.0560 C   0  0  0  0  0  0  0  0  0  0  0  0
  159.9100  212.6770  154.6500 C   0  0  2  0  0  3  0  0  0  0  0  0
  160.5230  210.2440  153.0040 C   0  0  2  0  0  3  0  0  0  0  0  0
  159.6300  207.3770  156.0790 C   0  0  0  0  0  3  0  0  0  0  0  0
  162.3120  210.1310  149.5300 C   0  0  0  0  0  2  0  0  0  0  0  0
  158.9030  208.5210  155.9750 N   0  0  0  0  0  0  0  0  0  0  0  0
  161.4970  210.6620  150.7120 C   0  0  0  0  0  2  0  0  0  0  0  0
  162.7550  207.7390  150.9910 C   0  0  1  0  0  3  0  0  0  0  0  0
  160.6450  207.1050  155.1610 C   0  0  0  0  0  3  0  0  0  0  0  0
  161.9100  207.7450  153.1470 N   0  0  0  0  0  0  0  0  0  0  0  0
  160.5350  207.1930  150.1650 O   0  0  0  0  0  0  0  0  0  0  0  0
  160.1160  206.3080  149.1710 C   0  0  0  0  0  2  0  0  0  0  0  0
  161.3270  202.8280  149.2410 O   0  0  0  0  0  0  0  0  0  0  0  0
  160.4380  204.4090  150.6690 N   0  0  0  0  0  0  0  0  0  0  0  0
  160.5640  204.9320  149.5150 C   0  0  0  0  0  0  0  0  0  0  0  0
  160.9130  203.1060  150.5130 N   0  0  0  0  0  2  0  0  0  0  0  0
  161.0890  204.0040  148.5910 N   0  0  0  0  0  2  0  0  0  0  0  0
  1 26  1  0  0  0  0
  2 27  1  0  0  0  0
  3  6  1  0  0  0  0
  3 16  1  1  0  0  0
  3  7  1  0  0  0  0
  4 23  2  0  0  0  0
  5 11  1  6  0  0  0
  5 19  1  0  0  0  0
  5 15  1  0  0  0  0
  6  7  1  6  0  0  0
  9 27  1  1  0  0  0
 10 22  1  0  0  0  0
 10 17  1  0  0  0  0
 11 20  1  0  0  0  0
 12  8  1  0  0  0  0
 13 24  1  6  0  0  0
 13  9  1  0  0  0  0
 13 20  1  0  0  0  0
 14  2  1  0  0  0  0
 15  4  1  0  0  0  0
 15 12  1  1  0  0  0
 16  8  1  0  0  0  0
 17 28  1  1  0  0  0
 17 25  1  0  0  0  0
 18  1  2  0  0  0  0
 18  4  1  0  0  0  0
 19  3  1  0  0  0  0
 19  6  1  0  0  0  0
 20 18  1  0  0  0  0
 22 24  1  0  0  0  0
 23 21  1  0  0  0  0
 25 14  1  0  0  0  0
 25  9  1  0  0  0  0
 26 21  2  0  0  0  0
 27  1  1  0  0  0  0
 29 32  1  0  0  0  0
 29 28  1  0  0  0  0
 30 33  1  0  0  0  0
 32 31  2  0  0  0  0
 33 31  1  0  0  0  0
 34 30  1  0  0  0  0
 34 32  1  0  0  0  0
M  END
>  <MODEL>
1

>  <REMARK>
 VINA RESULT:      -5.4      0.000      0.000
  Name = 
  3 active torsions:
  status: ('A' for Active; 'I' for Inactive)
    1  A    between atoms: C_17  and  O_28
    2  A    between atoms: O_28  and  C_29
    3  A    between atoms: C_29  and  C_32
                            x       y       z     vdW  Elec       q    Type
                         _______ _______ _______ _____ _____    ______ ____

>  <TORSDO>
F 3

$$$$
=
 OpenBabel11122414203D

 34 42  0  0  1  0  0  0  0  0999 V2000
  160.9100  207.9580  154.1510 C   0  0  0  0  0  0  0  0  0  0  0  0
  162.2920  206.3370  152.7640 C   0  0  0  0  0  2  0  0  0  0  0  0
  159.7070  213.3390  156.0710 C   0  0  2  0  0  0  0  0  0  0  0  0
  159.1840  209.4040  155.0500 C   0  0  0  0  0  0  0  0  0  0  0  0
  158.8980  211.7820  154.1060 C   0  0  1  0  0  3  0  0  0  0  0  0
  160.5680  212.0790  156.0730 C   0  0  2  0  0  3  0  0  0  0  0  0
  160.8620  213.2070  157.0420 C   0  0  0  0  0  2  0  0  0  0  0  0
  158.0180  211.6810  157.1780 C   0  0  0  0  0  2  0  0  0  0  0  0
  162.2690  208.6110  152.1210 C   0  0  2  0  0  3  0  0  0  0  0  0
  161.7050  208.8980  148.9240 C   0  0  0  0  0  2  0  0  0  0  0  0
  159.4250  211.2060  152.7920 C   0  0  0  0  0  2  0  0  0  0  0  0
  157.3410  210.9370  156.0450 C   0  0  0  0  0  2  0  0  0  0  0  0
  161.1100  209.5710  151.7730 C   0  0  1  0  0  3  0  0  0  0  0  0
  162.9440  206.3990  151.5130 O   0  0  0  0  0  0  0  0  0  0  0  0
  158.2900  210.6060  154.8950 C   0  0  2  0  0  3  0  0  0  0  0  0
  158.3350  213.1080  156.7390 C   0  0  0  0  0  2  0  0  0  0  0  0
  161.7760  207.6120  149.7690 C   0  0  1  0  0  3  0  0  0  0  0  0
  160.1900  209.1620  154.0920 C   0  0  0  0  0  0  0  0  0  0  0  0
  160.0260  212.6230  154.7610 C   0  0  2  0  0  3  0  0  0  0  0  0
  160.5680  210.2110  153.0600 C   0  0  2  0  0  3  0  0  0  0  0  0
  159.6130  207.3030  156.0780 C   0  0  0  0  0  3  0  0  0  0  0  0
  162.3410  210.1260  149.5770 C   0  0  0  0  0  2  0  0  0  0  0  0
  158.9160  208.4670  156.0010 N   0  0  0  0  0  0  0  0  0  0  0  0
  161.5450  210.6530  150.7730 C   0  0  0  0  0  2  0  0  0  0  0  0
  162.7270  207.6920  150.9840 C   0  0  1  0  0  3  0  0  0  0  0  0
  160.6170  207.0240  155.1490 C   0  0  0  0  0  3  0  0  0  0  0  0
  161.8900  207.6740  153.1440 N   0  0  0  0  0  0  0  0  0  0  0  0
  160.4900  207.2230  150.1570 O   0  0  0  0  0  0  0  0  0  0  0  0
  160.4410  205.8450  149.9380 C   0  0  0  0  0  2  0  0  0  0  0  0
  160.8170  205.6830  146.2760 O   0  0  0  0  0  0  0  0  0  0  0  0
  161.5410  204.5780  148.1680 N   0  0  0  0  0  0  0  0  0  0  0  0
  160.8110  205.5560  148.5270 C   0  0  0  0  0  0  0  0  0  0  0  0
  161.5580  204.6490  146.7740 N   0  0  0  0  0  2  0  0  0  0  0  0
  160.3220  206.2620  147.4080 N   0  0  0  0  0  2  0  0  0  0  0  0
  1 26  1  0  0  0  0
  2 27  1  0  0  0  0
  3  6  1  0  0  0  0
  3 16  1  1  0  0  0
  3  7  1  0  0  0  0
  4 23  2  0  0  0  0
  5 11  1  6  0  0  0
  5 19  1  0  0  0  0
  5 15  1  0  0  0  0
  6  7  1  6  0  0  0
  9 27  1  1  0  0  0
 10 22  1  0  0  0  0
 10 17  1  0  0  0  0
 11 20  1  0  0  0  0
 12  8  1  0  0  0  0
 13 24  1  6  0  0  0
 13  9  1  0  0  0  0
 13 20  1  0  0  0  0
 14  2  1  0  0  0  0
 15  4  1  0  0  0  0
 15 12  1  1  0  0  0
 16  8  1  0  0  0  0
 17 28  1  1  0  0  0
 17 25  1  0  0  0  0
 18  1  2  0  0  0  0
 18  4  1  0  0  0  0
 19  3  1  0  0  0  0
 19  6  1  0  0  0  0
 20 18  1  0  0  0  0
 22 24  1  0  0  0  0
 23 21  1  0  0  0  0
 25 14  1  0  0  0  0
 25  9  1  0  0  0  0
 26 21  2  0  0  0  0
 27  1  1  0  0  0  0
 29 28  1  0  0  0  0
 30 33  1  0  0  0  0
 30 34  1  0  0  0  0
 31 32  2  0  0  0  0
 32 29  1  0  0  0  0
 33 31  1  0  0  0  0
 34 32  1  0  0  0  0
M  END
>  <MODEL>
2

>  <REMARK>
 VINA RESULT:      -4.8      1.026      1.228
  Name = 
  3 active torsions:
  status: ('A' for Active; 'I' for Inactive)
    1  A    between atoms: C_17  and  O_28
    2  A    between atoms: O_28  and  C_29
    3  A    between atoms: C_29  and  C_32
                            x       y       z     vdW  Elec       q    Type
                         _______ _______ _______ _____ _____    ______ ____

>  <TORSDO>
F 3

$$$$
=
 OpenBabel11122414203D

 34 42  0  0  1  0  0  0  0  0999 V2000
  161.0960  211.1320  151.2980 C   0  0  0  0  0  0  0  0  0  0  0  0
  160.7900  213.0020  149.6050 C   0  0  0  0  0  2  0  0  0  0  0  0
  161.2530  209.1520  156.7890 C   0  0  2  0  0  0  0  0  0  0  0  0
  160.8560  209.1750  152.7090 C   0  0  0  0  0  0  0  0  0  0  0  0
  159.4600  209.3270  154.8660 C   0  0  1  0  0  3  0  0  0  0  0  0
  161.8690  209.9300  155.6290 C   0  0  2  0  0  3  0  0  0  0  0  0
  162.6400  209.7470  156.9210 C   0  0  0  0  0  2  0  0  0  0  0  0
  161.7870  207.1580  155.1870 C   0  0  0  0  0  2  0  0  0  0  0  0
  159.7930  213.2540  151.7330 C   0  0  2  0  0  3  0  0  0  0  0  0
  156.6840  214.1890  151.4450 C   0  0  0  0  0  2  0  0  0  0  0  0
  158.6460  210.3940  154.1350 C   0  0  0  0  0  2  0  0  0  0  0  0
  160.6310  207.0700  154.2110 C   0  0  0  0  0  2  0  0  0  0  0  0
  158.7980  212.3690  152.5150 C   0  0  1  0  0  3  0  0  0  0  0  0
  159.9680  214.1480  149.5210 O   0  0  0  0  0  0  0  0  0  0  0  0
  160.1020  208.4380  153.7840 C   0  0  2  0  0  3  0  0  0  0  0  0
  161.2770  207.6290  156.5460 C   0  0  0  0  0  2  0  0  0  0  0  0
  157.6960  213.8820  150.3250 C   0  0  1  0  0  3  0  0  0  0  0  0
  160.5040  210.5070  152.4070 C   0  0  0  0  0  0  0  0  0  0  0  0
  160.3770  210.0330  155.9010 C   0  0  2  0  0  3  0  0  0  0  0  0
  159.5700  211.3010  153.3040 C   0  0  2  0  0  3  0  0  0  0  0  0
  162.3370  209.1110  150.8500 C   0  0  0  0  0  3  0  0  0  0  0  0
  157.3100  214.4530  152.8150 C   0  0  0  0  0  2  0  0  0  0  0  0
  161.7460  208.5140  151.9190 N   0  0  0  0  0  0  0  0  0  0  0  0
  157.9110  213.1990  153.4550 C   0  0  0  0  0  2  0  0  0  0  0  0
  159.1670  214.1820  150.6870 C   0  0  1  0  0  3  0  0  0  0  0  0
  162.0170  210.4280  150.5160 C   0  0  0  0  0  3  0  0  0  0  0  0
  160.6970  212.4630  150.9440 N   0  0  0  0  0  0  0  0  0  0  0  0
  157.5410  212.5610  149.8900 O   0  0  0  0  0  0  0  0  0  0  0  0
  156.6300  212.6270  148.8340 C   0  0  0  0  0  2  0  0  0  0  0  0
  157.7530  214.2710  145.7330 O   0  0  0  0  0  0  0  0  0  0  0  0
  158.3290  212.4940  147.0880 N   0  0  0  0  0  0  0  0  0  0  0  0
  157.3310  213.0890  147.6060 C   0  0  0  0  0  0  0  0  0  0  0  0
  158.6040  213.2200  145.9290 N   0  0  0  0  0  2  0  0  0  0  0  0
  156.9200  214.1790  146.8100 N   0  0  0  0  0  2  0  0  0  0  0  0
  1 18  1  0  0  0  0
  2 27  1  0  0  0  0
  3 16  1  6  0  0  0
  3  7  1  0  0  0  0
  4 15  1  0  0  0  0
  5 11  1  6  0  0  0
  5 19  1  0  0  0  0
  6 19  1  0  0  0  0
  6  3  1  0  0  0  0
  6  7  1  1  0  0  0
  8 16  1  0  0  0  0
  9 27  1  6  0  0  0
  9 13  1  0  0  0  0
 10 22  1  0  0  0  0
 12  8  1  0  0  0  0
 13 20  1  0  0  0  0
 13 24  1  1  0  0  0
 14  2  1  0  0  0  0
 14 25  1  0  0  0  0
 15 12  1  1  0  0  0
 15  5  1  0  0  0  0
 17 28  1  1  0  0  0
 17 25  1  0  0  0  0
 17 10  1  0  0  0  0
 18  4  2  0  0  0  0
 18 20  1  0  0  0  0
 19  3  1  0  0  0  0
 20 11  1  0  0  0  0
 21 23  2  0  0  0  0
 22 24  1  0  0  0  0
 23  4  1  0  0  0  0
 25  9  1  0  0  0  0
 26 21  1  0  0  0  0
 26  1  2  0  0  0  0
 27  1  1  0  0  0  0
 29 28  1  0  0  0  0
 30 33  1  0  0  0  0
 30 34  1  0  0  0  0
 31 32  2  0  0  0  0
 32 29  1  0  0  0  0
 33 31  1  0  0  0  0
 34 32  1  0  0  0  0
M  END
>  <MODEL>
3

>  <REMARK>
 VINA RESULT:      -3.8      4.322      6.473
  Name = 
  3 active torsions:
  status: ('A' for Active; 'I' for Inactive)
    1  A    between atoms: C_17  and  O_28
    2  A    between atoms: O_28  and  C_29
    3  A    between atoms: C_29  and  C_32
                            x       y       z     vdW  Elec       q    Type
                         _______ _______ _______ _____ _____    ______ ____

>  <TORSDO>
F 3

$$$$
=
 OpenBabel11122414203D

 34 42  0  0  1  0  0  0  0  0999 V2000
  162.0580  209.0090  150.0590 C   0  0  0  0  0  0  0  0  0  0  0  0
  162.4740  210.3280  152.1910 C   0  0  0  0  0  2  0  0  0  0  0  0
  162.3510  204.0920  146.9250 C   0  0  2  0  0  0  0  0  0  0  0  0
  161.0940  207.7770  148.2070 C   0  0  0  0  0  0  0  0  0  0  0  0
  160.5790  205.2700  148.4790 C   0  0  1  0  0  3  0  0  0  0  0  0
  163.0060  205.3190  147.5530 C   0  0  2  0  0  3  0  0  0  0  0  0
  163.8160  204.3860  146.6750 C   0  0  0  0  0  2  0  0  0  0  0  0
  161.2740  205.9470  145.4330 C   0  0  0  0  0  2  0  0  0  0  0  0
  162.3250  207.9750  152.3510 C   0  0  2  0  0  3  0  0  0  0  0  0
  160.3220  207.1100  154.7720 C   0  0  0  0  0  2  0  0  0  0  0  0
  160.3650  205.5850  149.9590 C   0  0  0  0  0  2  0  0  0  0  0  0
  160.0810  206.4770  146.2010 C   0  0  0  0  0  2  0  0  0  0  0  0
  161.2210  206.9830  151.9260 C   0  0  1  0  0  3  0  0  0  0  0  0
  162.4490  210.0280  153.5710 O   0  0  0  0  0  0  0  0  0  0  0  0
  160.3330  206.5780  147.7040 C   0  0  2  0  0  3  0  0  0  0  0  0
  161.4540  204.4600  145.7250 C   0  0  0  0  0  2  0  0  0  0  0  0
  160.6880  208.5290  154.2970 C   0  0  1  0  0  3  0  0  0  0  0  0
  161.4950  207.8250  149.5580 C   0  0  0  0  0  0  0  0  0  0  0  0
  161.9450  204.5490  148.3240 C   0  0  2  0  0  3  0  0  0  0  0  0
  161.4140  206.5980  150.4510 C   0  0  2  0  0  3  0  0  0  0  0  0
  161.7970  210.0260  147.8860 C   0  0  0  0  0  3  0  0  0  0  0  0
  161.2870  206.0150  154.3150 C   0  0  0  0  0  2  0  0  0  0  0  0
  161.2420  208.8760  147.4180 N   0  0  0  0  0  0  0  0  0  0  0  0
  161.2060  205.7290  152.8130 C   0  0  0  0  0  2  0  0  0  0  0  0
  162.1070  208.6620  153.7030 C   0  0  1  0  0  3  0  0  0  0  0  0
  162.2070  210.1160  149.2160 C   0  0  0  0  0  3  0  0  0  0  0  0
  162.4100  209.0900  151.4470 N   0  0  0  0  0  0  0  0  0  0  0  0
  159.7190  208.9990  153.4050 O   0  0  0  0  0  0  0  0  0  0  0  0
  158.9990  209.9600  154.1170 C   0  0  0  0  0  2  0  0  0  0  0  0
  159.3310  213.5100  153.1840 O   0  0  0  0  0  0  0  0  0  0  0  0
  159.0110  211.4530  152.1870 N   0  0  0  0  0  0  0  0  0  0  0  0
  159.1350  211.2780  153.4420 C   0  0  0  0  0  0  0  0  0  0  0  0
  159.1360  212.8320  152.0130 N   0  0  0  0  0  2  0  0  0  0  0  0
  159.3160  212.5070  154.1100 N   0  0  0  0  0  2  0  0  0  0  0  0
  1 27  1  0  0  0  0
  2 14  1  0  0  0  0
  3 16  1  6  0  0  0
  3  6  1  0  0  0  0
  3 19  1  0  0  0  0
  4 18  2  0  0  0  0
  5 11  1  1  0  0  0
  6  7  1  1  0  0  0
  6 19  1  0  0  0  0
  7  3  1  0  0  0  0
  8 16  1  0  0  0  0
  8 12  1  0  0  0  0
  9 27  1  6  0  0  0
  9 25  1  0  0  0  0
 11 20  1  0  0  0  0
 13  9  1  0  0  0  0
 13 24  1  1  0  0  0
 14 25  1  0  0  0  0
 15 12  1  6  0  0  0
 15  4  1  0  0  0  0
 15  5  1  0  0  0  0
 17 28  1  6  0  0  0
 17 10  1  0  0  0  0
 18  1  1  0  0  0  0
 18 20  1  0  0  0  0
 19  5  1  0  0  0  0
 20 13  1  0  0  0  0
 21 26  1  0  0  0  0
 22 10  1  0  0  0  0
 23 21  2  0  0  0  0
 23  4  1  0  0  0  0
 24 22  1  0  0  0  0
 25 17  1  0  0  0  0
 26  1  2  0  0  0  0
 27  2  1  0  0  0  0
 28 29  1  0  0  0  0
 30 34  1  0  0  0  0
 31 32  2  0  0  0  0
 32 34  1  0  0  0  0
 32 29  1  0  0  0  0
 33 31  1  0  0  0  0
 33 30  1  0  0  0  0
M  END
>  <MODEL>
4

>  <REMARK>
 VINA RESULT:      -3.0      3.004      8.247
  Name = 
  3 active torsions:
  status: ('A' for Active; 'I' for Inactive)
    1  A    between atoms: C_17  and  O_28
    2  A    between atoms: O_28  and  C_29
    3  A    between atoms: C_29  and  C_32
                            x       y       z     vdW  Elec       q    Type
                         _______ _______ _______ _____ _____    ______ ____

>  <TORSDO>
F 3

$$$$
=
 OpenBabel11122414203D

 34 42  0  0  1  0  0  0  0  0999 V2000
  160.1600  210.8130  152.1880 C   0  0  0  0  0  0  0  0  0  0  0  0
  159.7160  209.6610  154.4090 C   0  0  0  0  0  2  0  0  0  0  0  0
  158.4100  213.9900  147.6130 C   0  0  2  0  0  0  0  0  0  0  0  0
  160.8800  212.2980  150.4120 C   0  0  0  0  0  0  0  0  0  0  0  0
  159.5530  214.4530  149.9410 C   0  0  1  0  0  3  0  0  0  0  0  0
  158.4490  212.6800  148.3950 C   0  0  2  0  0  3  0  0  0  0  0  0
  157.7620  212.7440  147.0460 C   0  0  0  0  0  2  0  0  0  0  0  0
  160.9240  213.3710  147.2620 C   0  0  0  0  0  2  0  0  0  0  0  0
  158.3000  211.4450  153.7800 C   0  0  2  0  0  3  0  0  0  0  0  0
  157.9440  213.5550  156.2380 C   0  0  0  0  0  2  0  0  0  0  0  0
  159.2020  214.4330  151.4280 C   0  0  0  0  0  2  0  0  0  0  0  0
  161.6620  213.8600  148.4920 C   0  0  0  0  0  2  0  0  0  0  0  0
  158.5990  212.9110  153.3950 C   0  0  1  0  0  3  0  0  0  0  0  0
  158.9130  209.9420  155.5360 O   0  0  0  0  0  0  0  0  0  0  0  0
  160.8680  213.6660  149.7830 C   0  0  2  0  0  3  0  0  0  0  0  0
  159.7650  214.3140  146.9510 C   0  0  0  0  0  2  0  0  0  0  0  0
  158.7950  212.2720  156.1980 C   0  0  1  0  0  3  0  0  0  0  0  0
  160.0280  212.0320  151.5040 C   0  0  0  0  0  0  0  0  0  0  0  0
  158.3050  214.0010  149.1360 C   0  0  2  0  0  3  0  0  0  0  0  0
  158.9200  212.9940  151.8950 C   0  0  2  0  0  3  0  0  0  0  0  0
  161.9510  210.1940  150.6940 C   0  0  0  0  0  3  0  0  0  0  0  0
  156.8640  213.6400  155.1580 C   0  0  0  0  0  2  0  0  0  0  0  0
  161.8210  211.3840  150.0490 N   0  0  0  0  0  0  0  0  0  0  0  0
  157.4340  213.8450  153.7520 C   0  0  0  0  0  2  0  0  0  0  0  0
  158.2370  211.1590  155.2830 C   0  0  1  0  0  3  0  0  0  0  0  0
  161.1280  209.8910  151.7790 C   0  0  0  0  0  3  0  0  0  0  0  0
  159.3430  210.5600  153.3390 N   0  0  0  0  0  0  0  0  0  0  0  0
  160.1170  212.5850  155.8660 O   0  0  0  0  0  0  0  0  0  0  0  0
  160.8090  212.5890  157.0780 C   0  0  0  0  0  2  0  0  0  0  0  0
  162.4880  209.3130  157.2610 O   0  0  0  0  0  0  0  0  0  0  0  0
  163.0180  211.5580  157.1730 N   0  0  0  0  0  0  0  0  0  0  0  0
  161.7520  211.4390  157.1100 C   0  0  0  0  0  0  0  0  0  0  0  0
  163.4860  210.2460  157.2610 N   0  0  0  0  0  2  0  0  0  0  0  0
  161.3650  210.0850  157.1770 N   0  0  0  0  0  2  0  0  0  0  0  0
  1 27  1  0  0  0  0
  2 14  1  0  0  0  0
  3 16  1  6  0  0  0
  3  6  1  0  0  0  0
  3 19  1  0  0  0  0
  4 18  1  0  0  0  0
  5 11  1  1  0  0  0
  6  7  1  6  0  0  0
  6 19  1  0  0  0  0
  7  3  1  0  0  0  0
  8 12  1  0  0  0  0
  9 27  1  1  0  0  0
  9 25  1  0  0  0  0
 11 20  1  0  0  0  0
 13 24  1  6  0  0  0
 13  9  1  0  0  0  0
 15 12  1  6  0  0  0
 15  5  1  0  0  0  0
 15  4  1  0  0  0  0
 16  8  1  0  0  0  0
 17 28  1  6  0  0  0
 17 10  1  0  0  0  0
 18 20  1  0  0  0  0
 18  1  2  0  0  0  0
 19  5  1  0  0  0  0
 20 13  1  0  0  0  0
 21 26  2  0  0  0  0
 22 10  1  0  0  0  0
 23  4  2  0  0  0  0
 23 21  1  0  0  0  0
 24 22  1  0  0  0  0
 25 14  1  0  0  0  0
 25 17  1  0  0  0  0
 26  1  1  0  0  0  0
 27  2  1  0  0  0  0
 28 29  1  0  0  0  0
 29 32  1  0  0  0  0
 30 33  1  0  0  0  0
 31 33  1  0  0  0  0
 32 31  2  0  0  0  0
 32 34  1  0  0  0  0
 34 30  1  0  0  0  0
M  END
>  <MODEL>
5

>  <REMARK>
 VINA RESULT:      -2.8      3.816      7.592
  Name = 
  3 active torsions:
  status: ('A' for Active; 'I' for Inactive)
    1  A    between atoms: C_17  and  O_28
    2  A    between atoms: O_28  and  C_29
    3  A    between atoms: C_29  and  C_32
                            x       y       z     vdW  Elec       q    Type
                         _______ _______ _______ _____ _____    ______ ____

>  <TORSDO>
F 3

$$$$
