=
 OpenBabel11122412403D

 30 35  0  0  1  0  0  0  0  0999 V2000
  161.4180  207.6550  151.3350 C   0  0  0  0  0  0  0  0  0  0  0  0
  161.6990  210.1340  150.9440 C   0  0  0  0  0  0  0  0  0  0  0  0
  161.9930  206.8680  147.2520 N   0  0  0  0  0  2  0  0  0  0  0  0
  161.3860  206.3220  150.8080 C   0  0  0  0  0  0  0  0  0  0  0  0
  161.2290  207.8410  152.6680 N   0  0  0  0  0  0  0  0  0  0  0  0
  160.8170  204.4720  153.9940 O   0  0  0  0  0  1  0  0  0  0  0  0
  160.2820  203.4670  150.2100 C   0  0  1  0  0  3  0  0  0  0  0  0
  161.0130  205.5120  153.0880 C   0  0  0  0  0  0  0  0  0  0  0  0
  160.8980  203.7630  148.9000 C   0  0  0  0  0  0  0  0  0  0  0  0
  161.8390  205.4160  147.2080 C   0  0  1  0  0  3  0  0  0  0  0  0
  161.0260  206.8290  153.5410 C   0  0  0  0  0  0  0  0  0  0  0  0
  161.2020  205.2410  151.7230 C   0  0  0  0  0  0  0  0  0  0  0  0
  161.9520  211.1740  150.0430 C   0  0  0  0  0  3  0  0  0  0  0  0
  160.9400  202.6900  148.1260 C   0  0  0  0  0  3  0  0  0  0  0  0
  160.0070  202.0050  150.0810 C   0  0  0  0  0  3  0  0  0  0  0  0
  161.4500  210.6430  152.6120 Cl  0  0  0  0  0  0  0  0  0  0  0  0
  161.8160  207.2540  148.6080 C   0  0  0  0  0  0  0  0  0  0  0  0
  162.1630  210.9190  148.6920 C   0  0  0  0  0  3  0  0  0  0  0  0
  161.6550  208.7830  150.4830 C   0  0  0  0  0  0  0  0  0  0  0  0
  161.5590  206.1780  149.4060 C   0  0  0  0  0  0  0  0  0  0  0  0
  163.1490  204.7830  146.7730 C   0  0  0  0  0  1  0  0  0  0  0  0
  161.5170  205.0110  148.5810 N   0  0  0  0  0  0  0  0  0  0  0  0
  160.3650  201.5810  148.8750 C   0  0  0  0  0  3  0  0  0  0  0  0
  162.6780  203.2910  151.1540 C   0  0  0  0  0  1  0  0  0  0  0  0
  162.1190  209.6130  148.2190 C   0  0  0  0  0  3  0  0  0  0  0  0
  161.8690  208.5530  149.0960 C   0  0  0  0  0  0  0  0  0  0  0  0
  161.2470  203.7870  151.3440 C   0  0  2  0  0  3  0  0  0  0  0  0
  160.8070  207.1450  154.9830 C   0  0  0  0  0  2  0  0  0  0  0  0
  161.4780  209.2770  156.0410 C   0  0  0  0  0  1  0  0  0  0  0  0
  160.4580  208.6120  155.1440 C   0  0  0  0  0  2  0  0  0  0  0  0
  1  5  2  0  0  0  0
  2 16  1  0  0  0  0
  3 17  1  0  0  0  0
  4  1  1  0  0  0  0
  4 12  2  0  0  0  0
  5 11  1  0  0  0  0
  7 15  1  6  0  0  0
  7 27  1  0  0  0  0
  8 11  2  0  0  0  0
  8  6  1  0  0  0  0
  9  7  1  0  0  0  0
 10 21  1  1  0  0  0
 10  3  1  0  0  0  0
 10 22  1  0  0  0  0
 11 28  1  0  0  0  0
 12  8  1  0  0  0  0
 13  2  2  0  0  0  0
 14 23  1  0  0  0  0
 14  9  2  0  0  0  0
 17 26  1  0  0  0  0
 17 20  2  0  0  0  0
 18 13  1  0  0  0  0
 19  2  1  0  0  0  0
 19  1  1  0  0  0  0
 20  4  1  0  0  0  0
 22  9  1  0  0  0  0
 22 20  1  0  0  0  0
 23 15  2  0  0  0  0
 25 18  2  0  0  0  0
 25 26  1  0  0  0  0
 26 19  2  0  0  0  0
 27 24  1  6  0  0  0
 27 12  1  0  0  0  0
 28 30  1  0  0  0  0
 30 29  1  0  0  0  0
M  END
>  <MODEL>
1

>  <REMARK>
 VINA RESULT:      -7.9      0.000      0.000
  Name = 
  2 active torsions:
  status: ('A' for Active; 'I' for Inactive)
    1  A    between atoms: C_11  and  C_28
    2  A    between atoms: C_28  and  C_30
                            x       y       z     vdW  Elec       q    Type
                         _______ _______ _______ _____ _____    ______ ____

>  <TORSDO>
F 2

$$$$
=
 OpenBabel11122412403D

 30 35  0  0  1  0  0  0  0  0999 V2000
  161.3270  206.2730  150.4190 C   0  0  0  0  0  0  0  0  0  0  0  0
  161.1780  203.7560  150.2790 C   0  0  0  0  0  0  0  0  0  0  0  0
  160.6140  206.1600  154.5550 N   0  0  0  0  0  2  0  0  0  0  0  0
  161.2760  207.4670  151.2120 C   0  0  0  0  0  0  0  0  0  0  0  0
  161.5660  206.3790  149.0860 N   0  0  0  0  0  0  0  0  0  0  0  0
  162.0000  209.9540  148.5320 O   0  0  0  0  0  1  0  0  0  0  0  0
  160.3710  210.3120  152.1140 C   0  0  1  0  0  3  0  0  0  0  0  0
  161.7680  208.7440  149.1830 C   0  0  0  0  0  0  0  0  0  0  0  0
  160.4840  209.6680  153.4390 C   0  0  0  0  0  0  0  0  0  0  0  0
  160.6210  207.5820  154.8930 C   0  0  1  0  0  3  0  0  0  0  0  0
  161.7780  207.5570  148.4570 C   0  0  0  0  0  0  0  0  0  0  0  0
  161.5280  208.7160  150.5670 C   0  0  0  0  0  0  0  0  0  0  0  0
  161.0010  202.5380  150.9410 C   0  0  0  0  0  3  0  0  0  0  0  0
  160.3910  210.5490  154.4220 C   0  0  0  0  0  3  0  0  0  0  0  0
  160.2370  211.7490  152.4980 C   0  0  0  0  0  3  0  0  0  0  0  0
  161.4350  203.6250  148.5400 Cl  0  0  0  0  0  0  0  0  0  0  0  0
  160.8500  206.0750  153.1560 C   0  0  0  0  0  0  0  0  0  0  0  0
  160.7840  202.4910  152.3140 C   0  0  0  0  0  3  0  0  0  0  0  0
  161.1400  204.9820  151.0110 C   0  0  0  0  0  0  0  0  0  0  0  0
  160.9930  207.3110  152.5950 C   0  0  0  0  0  0  0  0  0  0  0  0
  161.7790  207.8710  155.8320 C   0  0  0  0  0  1  0  0  0  0  0  0
  160.8170  208.2900  153.6230 N   0  0  0  0  0  0  0  0  0  0  0  0
  160.2250  211.8650  153.8200 C   0  0  0  0  0  3  0  0  0  0  0  0
  162.9470  210.2190  151.9910 C   0  0  0  0  0  1  0  0  0  0  0  0
  160.7370  203.6700  153.0480 C   0  0  0  0  0  3  0  0  0  0  0  0
  160.9110  204.9040  152.4130 C   0  0  0  0  0  0  0  0  0  0  0  0
  161.6110  210.0390  151.2740 C   0  0  2  0  0  3  0  0  0  0  0  0
  162.0100  207.5620  146.9830 C   0  0  0  0  0  2  0  0  0  0  0  0
  160.4960  206.1950  145.5850 C   0  0  0  0  0  1  0  0  0  0  0  0
  161.7620  206.1790  146.4140 C   0  0  0  0  0  2  0  0  0  0  0  0
  1 19  2  0  0  0  0
  1  4  1  0  0  0  0
  2 13  2  0  0  0  0
  2 19  1  0  0  0  0
  3 10  1  0  0  0  0
  4 20  2  0  0  0  0
  5  1  1  0  0  0  0
  6  8  1  0  0  0  0
  7 15  1  1  0  0  0
  7  9  1  0  0  0  0
  8 12  2  0  0  0  0
  9 22  1  0  0  0  0
  9 14  2  0  0  0  0
 10 21  1  1  0  0  0
 11  5  2  0  0  0  0
 11  8  1  0  0  0  0
 12  4  1  0  0  0  0
 12 27  1  0  0  0  0
 13 18  1  0  0  0  0
 15 23  2  0  0  0  0
 16  2  1  0  0  0  0
 17  3  1  0  0  0  0
 18 25  2  0  0  0  0
 19 26  1  0  0  0  0
 20 17  1  0  0  0  0
 20 22  1  0  0  0  0
 22 10  1  0  0  0  0
 23 14  1  0  0  0  0
 26 25  1  0  0  0  0
 26 17  2  0  0  0  0
 27 24  1  1  0  0  0
 27  7  1  0  0  0  0
 28 11  1  0  0  0  0
 29 30  1  0  0  0  0
 30 28  1  0  0  0  0
M  END
>  <MODEL>
2

>  <REMARK>
 VINA RESULT:      -7.8      2.545      7.302
  Name = 
  2 active torsions:
  status: ('A' for Active; 'I' for Inactive)
    1  A    between atoms: C_11  and  C_28
    2  A    between atoms: C_28  and  C_30
                            x       y       z     vdW  Elec       q    Type
                         _______ _______ _______ _____ _____    ______ ____

>  <TORSDO>
F 2

$$$$
=
 OpenBabel11122412403D

 30 35  0  0  1  0  0  0  0  0999 V2000
  161.5020  208.3650  151.3900 C   0  0  0  0  0  0  0  0  0  0  0  0
  161.3110  208.8100  153.8690 C   0  0  0  0  0  0  0  0  0  0  0  0
  160.9380  204.2510  152.0100 N   0  0  0  0  0  2  0  0  0  0  0  0
  161.4920  207.4290  150.3040 C   0  0  0  0  0  0  0  0  0  0  0  0
  161.6840  209.6830  151.1210 N   0  0  0  0  0  0  0  0  0  0  0  0
  161.9650  209.8290  147.4910 O   0  0  0  0  0  1  0  0  0  0  0  0
  162.5010  205.9230  147.7660 C   0  0  1  0  0  3  0  0  0  0  0  0
  161.8140  209.3150  148.7770 C   0  0  0  0  0  0  0  0  0  0  0  0
  161.9080  204.7840  148.4970 C   0  0  0  0  0  0  0  0  0  0  0  0
  161.0420  203.7320  150.6480 C   0  0  1  0  0  3  0  0  0  0  0  0
  161.8430  210.1750  149.8720 C   0  0  0  0  0  0  0  0  0  0  0  0
  161.6290  207.9370  148.9760 C   0  0  0  0  0  0  0  0  0  0  0  0
  161.1030  208.3020  155.1550 C   0  0  0  0  0  3  0  0  0  0  0  0
  161.8360  203.7000  147.7410 C   0  0  0  0  0  3  0  0  0  0  0  0
  162.7260  205.3200  146.4180 C   0  0  0  0  0  3  0  0  0  0  0  0
  161.5610  210.5530  153.7910 Cl  0  0  0  0  0  0  0  0  0  0  0  0
  161.1160  205.6580  151.9220 C   0  0  0  0  0  0  0  0  0  0  0  0
  160.8970  206.9430  155.3660 C   0  0  0  0  0  3  0  0  0  0  0  0
  161.3120  207.9310  152.7430 C   0  0  0  0  0  0  0  0  0  0  0  0
  161.3280  206.0580  150.6350 C   0  0  0  0  0  0  0  0  0  0  0  0
  159.7150  203.1170  150.2410 C   0  0  0  0  0  1  0  0  0  0  0  0
  161.3360  204.8950  149.8030 N   0  0  0  0  0  0  0  0  0  0  0  0
  162.3650  204.0430  146.4280 C   0  0  0  0  0  3  0  0  0  0  0  0
  160.0910  206.7620  147.3770 C   0  0  0  0  0  1  0  0  0  0  0  0
  160.8990  206.0670  154.2870 C   0  0  0  0  0  3  0  0  0  0  0  0
  161.1040  206.5450  152.9890 C   0  0  0  0  0  0  0  0  0  0  0  0
  161.5370  207.1020  147.7300 C   0  0  2  0  0  3  0  0  0  0  0  0
  162.0590  211.6400  149.6890 C   0  0  0  0  0  2  0  0  0  0  0  0
  160.6760  213.3070  148.4950 C   0  0  0  0  0  1  0  0  0  0  0  0
  160.7270  212.3630  149.6770 C   0  0  0  0  0  2  0  0  0  0  0  0
  1 19  1  0  0  0  0
  2 13  1  0  0  0  0
  4 20  1  0  0  0  0
  4  1  2  0  0  0  0
  5  1  1  0  0  0  0
  6  8  1  0  0  0  0
  7 15  1  6  0  0  0
  7  9  1  0  0  0  0
  8 12  2  0  0  0  0
  8 11  1  0  0  0  0
  9 22  1  0  0  0  0
 10 21  1  6  0  0  0
 10  3  1  0  0  0  0
 11  5  2  0  0  0  0
 12  4  1  0  0  0  0
 13 18  2  0  0  0  0
 14  9  2  0  0  0  0
 15 23  2  0  0  0  0
 16  2  1  0  0  0  0
 17  3  1  0  0  0  0
 17 26  1  0  0  0  0
 19 26  1  0  0  0  0
 19  2  2  0  0  0  0
 20 17  2  0  0  0  0
 22 20  1  0  0  0  0
 22 10  1  0  0  0  0
 23 14  1  0  0  0  0
 25 18  1  0  0  0  0
 26 25  2  0  0  0  0
 27 24  1  1  0  0  0
 27  7  1  0  0  0  0
 27 12  1  0  0  0  0
 28 11  1  0  0  0  0
 29 30  1  0  0  0  0
 30 28  1  0  0  0  0
M  END
>  <MODEL>
3

>  <REMARK>
 VINA RESULT:      -6.4      2.076      4.910
  Name = 
  2 active torsions:
  status: ('A' for Active; 'I' for Inactive)
    1  A    between atoms: C_11  and  C_28
    2  A    between atoms: C_28  and  C_30
                            x       y       z     vdW  Elec       q    Type
                         _______ _______ _______ _____ _____    ______ ____

>  <TORSDO>
F 2

$$$$
=
 OpenBabel11122412403D

 30 35  0  0  1  0  0  0  0  0999 V2000
  160.7310  210.4910  151.7830 C   0  0  0  0  0  0  0  0  0  0  0  0
  161.9710  208.7180  150.4810 C   0  0  0  0  0  0  0  0  0  0  0  0
  160.4310  207.9450  155.1080 N   0  0  0  0  0  2  0  0  0  0  0  0
  160.0830  210.9010  152.9950 C   0  0  0  0  0  0  0  0  0  0  0  0
  160.7980  211.3650  150.7460 N   0  0  0  0  0  0  0  0  0  0  0  0
  159.1820  214.3790  152.0040 O   0  0  0  0  0  1  0  0  0  0  0  0
  157.8260  211.9950  154.8490 C   0  0  1  0  0  3  0  0  0  0  0  0
  159.6840  213.0800  151.9550 C   0  0  0  0  0  0  0  0  0  0  0  0
  158.3470  210.9200  155.7180 C   0  0  0  0  0  0  0  0  0  0  0  0
  159.6810  208.7760  156.0470 C   0  0  1  0  0  3  0  0  0  0  0  0
  160.2980  212.6210  150.7930 C   0  0  0  0  0  0  0  0  0  0  0  0
  159.5770  212.2340  153.0710 C   0  0  0  0  0  0  0  0  0  0  0  0
  162.5250  207.4340  150.4510 C   0  0  0  0  0  3  0  0  0  0  0  0
  157.8440  210.9920  156.9410 C   0  0  0  0  0  3  0  0  0  0  0  0
  156.9530  212.7440  155.8000 C   0  0  0  0  0  3  0  0  0  0  0  0
  162.1590  209.6410  148.9920 Cl  0  0  0  0  0  0  0  0  0  0  0  0
  160.5950  208.7170  153.9260 C   0  0  0  0  0  0  0  0  0  0  0  0
  162.4460  206.5920  151.5550 C   0  0  0  0  0  3  0  0  0  0  0  0
  161.3120  209.1870  151.6580 C   0  0  0  0  0  0  0  0  0  0  0  0
  160.0100  209.9440  154.0420 C   0  0  0  0  0  0  0  0  0  0  0  0
  160.5450  209.0700  157.2610 C   0  0  0  0  0  1  0  0  0  0  0  0
  159.3870  210.0210  155.3270 N   0  0  0  0  0  0  0  0  0  0  0  0
  156.9540  212.1440  156.9850 C   0  0  0  0  0  3  0  0  0  0  0  0
  160.0250  213.2630  155.3160 C   0  0  0  0  0  1  0  0  0  0  0  0
  161.8050  207.0240  152.7100 C   0  0  0  0  0  3  0  0  0  0  0  0
  161.2420  208.3030  152.7700 C   0  0  0  0  0  0  0  0  0  0  0  0
  158.9650  212.8440  154.3000 C   0  0  2  0  0  3  0  0  0  0  0  0
  160.4060  213.4930  149.5870 C   0  0  0  0  0  2  0  0  0  0  0  0
  160.8530  212.6180  147.3180 C   0  0  0  0  0  1  0  0  0  0  0  0
  161.4750  212.9570  148.6550 C   0  0  0  0  0  2  0  0  0  0  0  0
  1  4  1  0  0  0  0
  2 19  1  0  0  0  0
  3 10  1  0  0  0  0
  4 12  1  0  0  0  0
  4 20  2  0  0  0  0
  5 11  2  0  0  0  0
  5  1  1  0  0  0  0
  7  9  1  0  0  0  0
  7 15  1  1  0  0  0
  8  6  1  0  0  0  0
  8 12  2  0  0  0  0
  9 14  2  0  0  0  0
 10 21  1  1  0  0  0
 11  8  1  0  0  0  0
 12 27  1  0  0  0  0
 13  2  2  0  0  0  0
 13 18  1  0  0  0  0
 14 23  1  0  0  0  0
 15 23  2  0  0  0  0
 16  2  1  0  0  0  0
 17 20  1  0  0  0  0
 17  3  1  0  0  0  0
 18 25  2  0  0  0  0
 19  1  2  0  0  0  0
 19 26  1  0  0  0  0
 20 22  1  0  0  0  0
 22  9  1  0  0  0  0
 22 10  1  0  0  0  0
 25 26  1  0  0  0  0
 26 17  2  0  0  0  0
 27  7  1  0  0  0  0
 27 24  1  1  0  0  0
 28 11  1  0  0  0  0
 29 30  1  0  0  0  0
 30 28  1  0  0  0  0
M  END
>  <MODEL>
4

>  <REMARK>
 VINA RESULT:      -5.8      3.814      8.163
  Name = 
  2 active torsions:
  status: ('A' for Active; 'I' for Inactive)
    1  A    between atoms: C_11  and  C_28
    2  A    between atoms: C_28  and  C_30
                            x       y       z     vdW  Elec       q    Type
                         _______ _______ _______ _____ _____    ______ ____

>  <TORSDO>
F 2

$$$$
=
 OpenBabel11122412403D

 30 35  0  0  1  0  0  0  0  0999 V2000
  160.8920  209.8800  152.4200 C   0  0  0  0  0  0  0  0  0  0  0  0
  161.9860  209.6030  150.1600 C   0  0  0  0  0  0  0  0  0  0  0  0
  159.6930  213.7830  151.4450 N   0  0  0  0  0  2  0  0  0  0  0  0
  160.1520  210.6970  153.3370 C   0  0  0  0  0  0  0  0  0  0  0  0
  161.2450  208.6230  152.7950 N   0  0  0  0  0  0  0  0  0  0  0  0
  159.8400  208.2560  156.1370 O   0  0  0  0  0  1  0  0  0  0  0  0
  159.4680  212.1870  155.9900 C   0  0  1  0  0  3  0  0  0  0  0  0
  160.1810  208.8220  154.9100 C   0  0  0  0  0  0  0  0  0  0  0  0
  159.0240  213.2110  155.0210 C   0  0  0  0  0  0  0  0  0  0  0  0
  159.0240  214.2010  152.6760 C   0  0  1  0  0  3  0  0  0  0  0  0
  160.9230  208.0830  153.9920 C   0  0  0  0  0  0  0  0  0  0  0  0
  159.7780  210.1290  154.5930 C   0  0  0  0  0  0  0  0  0  0  0  0
  162.2800  210.1510  148.9080 C   0  0  0  0  0  3  0  0  0  0  0  0
  158.3470  214.1830  155.6120 C   0  0  0  0  0  3  0  0  0  0  0  0
  158.8890  212.7160  157.2610 C   0  0  0  0  0  3  0  0  0  0  0  0
  162.5900  207.9680  150.4150 Cl  0  0  0  0  0  0  0  0  0  0  0  0
  160.1470  212.4550  151.6620 C   0  0  0  0  0  0  0  0  0  0  0  0
  161.8690  211.4360  148.5710 C   0  0  0  0  0  3  0  0  0  0  0  0
  161.2510  210.3650  151.1200 C   0  0  0  0  0  0  0  0  0  0  0  0
  159.8300  212.0130  152.9130 C   0  0  0  0  0  0  0  0  0  0  0  0
  157.5540  214.4530  152.3890 C   0  0  0  0  0  1  0  0  0  0  0  0
  159.1670  213.0750  153.6060 N   0  0  0  0  0  0  0  0  0  0  0  0
  158.2730  213.8690  157.0330 C   0  0  0  0  0  3  0  0  0  0  0  0
  157.4400  210.7780  155.2380 C   0  0  0  0  0  1  0  0  0  0  0  0
  161.1580  212.1980  149.4890 C   0  0  0  0  0  3  0  0  0  0  0  0
  160.8490  211.6780  150.7500 C   0  0  0  0  0  0  0  0  0  0  0  0
  158.9190  210.8170  155.6170 C   0  0  2  0  0  3  0  0  0  0  0  0
  161.3800  206.7000  154.3130 C   0  0  0  0  0  2  0  0  0  0  0  0
  161.1100  204.8930  152.6470 C   0  0  0  0  0  1  0  0  0  0  0  0
  161.9790  206.0530  153.0790 C   0  0  0  0  0  2  0  0  0  0  0  0
  1  5  2  0  0  0  0
  1  4  1  0  0  0  0
  2 16  1  0  0  0  0
  2 19  1  0  0  0  0
  3 17  1  0  0  0  0
  3 10  1  0  0  0  0
  4 12  2  0  0  0  0
  5 11  1  0  0  0  0
  7 15  1  1  0  0  0
  8  6  1  0  0  0  0
  9 14  2  0  0  0  0
  9  7  1  0  0  0  0
 10 21  1  6  0  0  0
 10 22  1  0  0  0  0
 11 28  1  0  0  0  0
 11  8  2  0  0  0  0
 12  8  1  0  0  0  0
 12 27  1  0  0  0  0
 13  2  2  0  0  0  0
 14 23  1  0  0  0  0
 17 20  2  0  0  0  0
 18 13  1  0  0  0  0
 18 25  2  0  0  0  0
 19  1  1  0  0  0  0
 20  4  1  0  0  0  0
 20 22  1  0  0  0  0
 22  9  1  0  0  0  0
 23 15  2  0  0  0  0
 25 26  1  0  0  0  0
 26 19  2  0  0  0  0
 26 17  1  0  0  0  0
 27 24  1  6  0  0  0
 27  7  1  0  0  0  0
 29 30  1  0  0  0  0
 30 28  1  0  0  0  0
M  END
>  <MODEL>
5

>  <REMARK>
 VINA RESULT:      -5.7      3.422      7.565
  Name = 
  2 active torsions:
  status: ('A' for Active; 'I' for Inactive)
    1  A    between atoms: C_11  and  C_28
    2  A    between atoms: C_28  and  C_30
                            x       y       z     vdW  Elec       q    Type
                         _______ _______ _______ _____ _____    ______ ____

>  <TORSDO>
F 2

$$$$
=
 OpenBabel11122412403D

 30 35  0  0  1  0  0  0  0  0999 V2000
  161.3400  207.6120  151.2550 C   0  0  0  0  0  0  0  0  0  0  0  0
  161.4310  205.3010  150.2400 C   0  0  0  0  0  0  0  0  0  0  0  0
  160.3300  206.0090  155.0010 N   0  0  0  0  0  2  0  0  0  0  0  0
  161.1220  208.4450  152.4020 C   0  0  0  0  0  0  0  0  0  0  0  0
  161.6690  208.1940  150.0720 N   0  0  0  0  0  0  0  0  0  0  0  0
  161.8200  211.7540  150.8340 O   0  0  0  0  0  1  0  0  0  0  0  0
  159.8980  210.7320  154.1320 C   0  0  1  0  0  3  0  0  0  0  0  0
  161.6490  210.3810  151.0000 C   0  0  0  0  0  0  0  0  0  0  0  0
  159.9680  209.6710  155.1570 C   0  0  0  0  0  0  0  0  0  0  0  0
  160.1830  207.2190  155.8080 C   0  0  1  0  0  3  0  0  0  0  0  0
  161.8220  209.5280  149.9130 C   0  0  0  0  0  0  0  0  0  0  0  0
  161.3080  209.8530  152.2560 C   0  0  0  0  0  0  0  0  0  0  0  0
  161.3150  203.9190  150.4190 C   0  0  0  0  0  3  0  0  0  0  0  0
  159.7220  210.1430  156.3690 C   0  0  0  0  0  3  0  0  0  0  0  0
  159.6060  211.9320  154.9720 C   0  0  0  0  0  3  0  0  0  0  0  0
  161.8300  205.8050  148.5990 Cl  0  0  0  0  0  0  0  0  0  0  0  0
  160.6770  206.4360  153.6910 C   0  0  0  0  0  0  0  0  0  0  0  0
  161.0000  203.3800  151.6620 C   0  0  0  0  0  3  0  0  0  0  0  0
  161.2270  206.1860  151.3420 C   0  0  0  0  0  0  0  0  0  0  0  0
  160.7510  207.7950  153.6090 C   0  0  0  0  0  0  0  0  0  0  0  0
  161.2350  207.2250  156.9020 C   0  0  0  0  0  1  0  0  0  0  0  0
  160.4090  208.3380  154.8870 N   0  0  0  0  0  0  0  0  0  0  0  0
  159.4840  211.5750  156.2450 C   0  0  0  0  0  3  0  0  0  0  0  0
  162.4740  210.8390  154.2490 C   0  0  0  0  0  1  0  0  0  0  0  0
  160.7910  204.2200  152.7480 C   0  0  0  0  0  3  0  0  0  0  0  0
  160.9000  205.6070  152.6000 C   0  0  0  0  0  0  0  0  0  0  0  0
  161.2180  210.8450  153.3810 C   0  0  2  0  0  3  0  0  0  0  0  0
  162.1630  210.0650  148.5640 C   0  0  0  0  0  2  0  0  0  0  0  0
  162.0180  212.3210  147.5600 C   0  0  0  0  0  1  0  0  0  0  0  0
  161.2280  211.2050  148.2090 C   0  0  0  0  0  2  0  0  0  0  0  0
  1 19  2  0  0  0  0
  1  4  1  0  0  0  0
  2 13  2  0  0  0  0
  2 19  1  0  0  0  0
  3 10  1  0  0  0  0
  4 20  2  0  0  0  0
  5  1  1  0  0  0  0
  6  8  1  0  0  0  0
  7 15  1  1  0  0  0
  7  9  1  0  0  0  0
  8 12  2  0  0  0  0
  9 14  2  0  0  0  0
 10 21  1  1  0  0  0
 11  5  2  0  0  0  0
 11  8  1  0  0  0  0
 12  4  1  0  0  0  0
 12 27  1  0  0  0  0
 13 18  1  0  0  0  0
 15 23  2  0  0  0  0
 16  2  1  0  0  0  0
 17  3  1  0  0  0  0
 18 25  2  0  0  0  0
 19 26  1  0  0  0  0
 20 17  1  0  0  0  0
 20 22  1  0  0  0  0
 22  9  1  0  0  0  0
 22 10  1  0  0  0  0
 23 14  1  0  0  0  0
 26 25  1  0  0  0  0
 26 17  2  0  0  0  0
 27  7  1  0  0  0  0
 27 24  1  1  0  0  0
 28 11  1  0  0  0  0
 29 30  1  0  0  0  0
 30 28  1  0  0  0  0
M  END
>  <MODEL>
6

>  <REMARK>
 VINA RESULT:      -5.5      2.616      7.361
  Name = 
  2 active torsions:
  status: ('A' for Active; 'I' for Inactive)
    1  A    between atoms: C_11  and  C_28
    2  A    between atoms: C_28  and  C_30
                            x       y       z     vdW  Elec       q    Type
                         _______ _______ _______ _____ _____    ______ ____

>  <TORSDO>
F 2

$$$$
=
 OpenBabel11122412403D

 30 35  0  0  1  0  0  0  0  0999 V2000
  161.0850  210.4430  151.3500 C   0  0  0  0  0  0  0  0  0  0  0  0
  161.7140  210.8780  148.9430 C   0  0  0  0  0  0  0  0  0  0  0  0
  159.4530  214.2950  151.6990 N   0  0  0  0  0  2  0  0  0  0  0  0
  160.4930  210.9080  152.5710 C   0  0  0  0  0  0  0  0  0  0  0  0
  161.5910  209.1830  151.3020 N   0  0  0  0  0  0  0  0  0  0  0  0
  160.9210  207.8190  154.6140 O   0  0  0  0  0  1  0  0  0  0  0  0
  160.2630  211.5880  155.6060 C   0  0  1  0  0  3  0  0  0  0  0  0
  160.9670  208.7130  153.5460 C   0  0  0  0  0  0  0  0  0  0  0  0
  159.5640  212.7620  155.0460 C   0  0  0  0  0  0  0  0  0  0  0  0
  159.0210  214.3060  153.0950 C   0  0  1  0  0  3  0  0  0  0  0  0
  161.5550  208.3240  152.3450 C   0  0  0  0  0  0  0  0  0  0  0  0
  160.4210  210.0010  153.6720 C   0  0  0  0  0  0  0  0  0  0  0  0
  161.7100  211.7550  147.8540 C   0  0  0  0  0  3  0  0  0  0  0  0
  158.9580  213.4660  155.9880 C   0  0  0  0  0  3  0  0  0  0  0  0
  159.9200  211.7050  157.0540 C   0  0  0  0  0  3  0  0  0  0  0  0
  162.4650  209.3150  148.6340 Cl  0  0  0  0  0  0  0  0  0  0  0  0
  160.0300  213.0190  151.4630 C   0  0  0  0  0  0  0  0  0  0  0  0
  161.1540  213.0260  147.9560 C   0  0  0  0  0  3  0  0  0  0  0  0
  161.1390  211.2800  150.1880 C   0  0  0  0  0  0  0  0  0  0  0  0
  160.0040  212.2410  152.5840 C   0  0  0  0  0  0  0  0  0  0  0  0
  157.5110  214.4460  153.1540 C   0  0  0  0  0  1  0  0  0  0  0  0
  159.4260  213.0070  153.6440 N   0  0  0  0  0  0  0  0  0  0  0  0
  159.1950  212.7980  157.2600 C   0  0  0  0  0  3  0  0  0  0  0  0
  158.2250  210.1840  154.8740 C   0  0  0  0  0  1  0  0  0  0  0  0
  160.5940  213.4410  149.1580 C   0  0  0  0  0  3  0  0  0  0  0  0
  160.5830  212.5870  150.2650 C   0  0  0  0  0  0  0  0  0  0  0  0
  159.7440  210.3010  154.9790 C   0  0  2  0  0  3  0  0  0  0  0  0
  162.1610  206.9690  152.1930 C   0  0  0  0  0  2  0  0  0  0  0  0
  161.1470  204.7150  152.2770 C   0  0  0  0  0  1  0  0  0  0  0  0
  161.1700  206.0310  151.5310 C   0  0  0  0  0  2  0  0  0  0  0  0
  1  4  1  0  0  0  0
  2 19  1  0  0  0  0
  3 10  1  0  0  0  0
  4 20  1  0  0  0  0
  4 12  2  0  0  0  0
  5  1  2  0  0  0  0
  5 11  1  0  0  0  0
  7 15  1  1  0  0  0
  8 12  1  0  0  0  0
  8  6  1  0  0  0  0
  9  7  1  0  0  0  0
  9 14  2  0  0  0  0
 10 21  1  6  0  0  0
 10 22  1  0  0  0  0
 11  8  2  0  0  0  0
 12 27  1  0  0  0  0
 13 18  1  0  0  0  0
 13  2  2  0  0  0  0
 14 23  1  0  0  0  0
 15 23  2  0  0  0  0
 16  2  1  0  0  0  0
 17  3  1  0  0  0  0
 17 20  2  0  0  0  0
 18 25  2  0  0  0  0
 19 26  2  0  0  0  0
 19  1  1  0  0  0  0
 20 22  1  0  0  0  0
 22  9  1  0  0  0  0
 25 26  1  0  0  0  0
 26 17  1  0  0  0  0
 27 24  1  6  0  0  0
 27  7  1  0  0  0  0
 28 11  1  0  0  0  0
 30 28  1  0  0  0  0
 30 29  1  0  0  0  0
M  END
>  <MODEL>
7

>  <REMARK>
 VINA RESULT:      -5.1      3.275      7.453
  Name = 
  2 active torsions:
  status: ('A' for Active; 'I' for Inactive)
    1  A    between atoms: C_11  and  C_28
    2  A    between atoms: C_28  and  C_30
                            x       y       z     vdW  Elec       q    Type
                         _______ _______ _______ _____ _____    ______ ____

>  <TORSDO>
F 2

$$$$
=
 OpenBabel11122412403D

 30 35  0  0  1  0  0  0  0  0999 V2000
  160.6910  209.5570  152.7240 C   0  0  0  0  0  0  0  0  0  0  0  0
  160.4060  212.0520  152.4540 C   0  0  0  0  0  0  0  0  0  0  0  0
  161.5770  209.1400  148.6420 N   0  0  0  0  0  2  0  0  0  0  0  0
  160.9870  208.2820  152.1390 C   0  0  0  0  0  0  0  0  0  0  0  0
  160.4170  209.6240  154.0530 N   0  0  0  0  0  0  0  0  0  0  0  0
  160.7470  206.1850  155.2120 O   0  0  0  0  0  1  0  0  0  0  0  0
  160.5930  205.2860  151.3670 C   0  0  1  0  0  3  0  0  0  0  0  0
  160.7300  207.2890  154.3620 C   0  0  0  0  0  0  0  0  0  0  0  0
  161.1700  205.7830  150.1010 C   0  0  0  0  0  0  0  0  0  0  0  0
  161.7640  207.6950  148.5280 C   0  0  1  0  0  3  0  0  0  0  0  0
  160.4220  208.5480  154.8720 C   0  0  0  0  0  0  0  0  0  0  0  0
  161.0250  207.1400  152.9970 C   0  0  0  0  0  0  0  0  0  0  0  0
  160.4440  213.1680  151.6120 C   0  0  0  0  0  3  0  0  0  0  0  0
  161.4860  204.7910  149.2840 C   0  0  0  0  0  3  0  0  0  0  0  0
  160.6670  203.8090  151.1620 C   0  0  0  0  0  3  0  0  0  0  0  0
  159.9880  212.4010  154.1300 Cl  0  0  0  0  0  0  0  0  0  0  0  0
  161.2680  209.4020  150.0040 C   0  0  0  0  0  0  0  0  0  0  0  0
  160.7560  213.0400  150.2630 C   0  0  0  0  0  3  0  0  0  0  0  0
  160.6910  210.7530  151.9340 C   0  0  0  0  0  0  0  0  0  0  0  0
  161.2370  208.2560  150.7420 C   0  0  0  0  0  0  0  0  0  0  0  0
  163.1990  207.4030  148.1280 C   0  0  0  0  0  1  0  0  0  0  0  0
  161.4960  207.1550  149.8660 N   0  0  0  0  0  0  0  0  0  0  0  0
  161.1560  203.5430  149.9570 C   0  0  0  0  0  3  0  0  0  0  0  0
  162.9300  205.6130  152.4130 C   0  0  0  0  0  1  0  0  0  0  0  0
  161.0320  211.7860  149.7320 C   0  0  0  0  0  3  0  0  0  0  0  0
  161.0020  210.6510  150.5490 C   0  0  0  0  0  0  0  0  0  0  0  0
  161.4170  205.7580  152.5580 C   0  0  2  0  0  3  0  0  0  0  0  0
  160.0850  208.7290  156.3140 C   0  0  0  0  0  2  0  0  0  0  0  0
  162.3200  209.3360  157.1820 C   0  0  0  0  0  1  0  0  0  0  0  0
  160.9230  209.8460  156.9050 C   0  0  0  0  0  2  0  0  0  0  0  0
  1  5  2  0  0  0  0
  2 16  1  0  0  0  0
  3 17  1  0  0  0  0
  4  1  1  0  0  0  0
  4 12  2  0  0  0  0
  5 11  1  0  0  0  0
  7 15  1  6  0  0  0
  7 27  1  0  0  0  0
  8 11  2  0  0  0  0
  8  6  1  0  0  0  0
  9  7  1  0  0  0  0
 10 21  1  1  0  0  0
 10  3  1  0  0  0  0
 10 22  1  0  0  0  0
 11 28  1  0  0  0  0
 12  8  1  0  0  0  0
 13  2  2  0  0  0  0
 14 23  1  0  0  0  0
 14  9  2  0  0  0  0
 17 26  1  0  0  0  0
 17 20  2  0  0  0  0
 18 13  1  0  0  0  0
 19  2  1  0  0  0  0
 19  1  1  0  0  0  0
 20  4  1  0  0  0  0
 22  9  1  0  0  0  0
 22 20  1  0  0  0  0
 23 15  2  0  0  0  0
 25 18  2  0  0  0  0
 25 26  1  0  0  0  0
 26 19  2  0  0  0  0
 27 24  1  6  0  0  0
 27 12  1  0  0  0  0
 28 30  1  0  0  0  0
 30 29  1  0  0  0  0
M  END
>  <MODEL>
8

>  <REMARK>
 VINA RESULT:      -5.0      1.644      2.488
  Name = 
  2 active torsions:
  status: ('A' for Active; 'I' for Inactive)
    1  A    between atoms: C_11  and  C_28
    2  A    between atoms: C_28  and  C_30
                            x       y       z     vdW  Elec       q    Type
                         _______ _______ _______ _____ _____    ______ ____

>  <TORSDO>
F 2

$$$$
