=
 OpenBabel11122414113D

 28 32  0  0  1  0  0  0  0  0999 V2000
  160.8360  209.4100  155.0940 C   0  0  0  0  0  0  0  0  0  0  0  0
  157.6590  210.7260  155.2110 F   0  0  0  0  0  0  0  0  0  0  0  0
  160.8620  212.7230  150.0890 O   0  0  0  0  0  0  0  0  0  0  0  0
  162.4080  210.5080  157.1450 C   0  0  0  0  0  3  0  0  0  0  0  0
  158.9300  213.1790  151.4780 C   0  0  2  0  0  3  0  0  0  0  0  0
  160.0800  208.7410  153.9880 C   0  0  0  0  0  2  0  0  0  0  0  0
  158.5810  211.4470  157.2600 C   0  0  0  0  0  1  0  0  0  0  0  0
  158.0260  211.8630  155.9120 C   0  0  1  0  0  0  0  0  0  0  0  0
  156.3640  213.6020  155.1760 C   0  0  0  0  0  0  0  0  0  0  0  0
  159.0810  212.6870  155.1260 C   0  0  2  0  0  3  0  0  0  0  0  0
  161.6300  208.4360  150.6110 O   0  0  0  0  0  1  0  0  0  0  0  0
  159.5370  211.4020  153.0970 C   0  0  1  0  0  3  0  0  0  0  0  0
  157.1130  213.9540  154.1780 N   0  0  0  0  0  0  0  0  0  0  0  0
  156.8360  212.6670  156.1440 N   0  0  0  0  0  2  0  0  0  0  0  0
  160.9510  209.0920  151.6370 C   0  0  2  0  0  3  0  0  0  0  0  0
  160.8910  210.8210  155.2640 C   0  0  0  0  0  0  0  0  0  0  0  0
  160.1740  212.4640  151.1120 C   0  0  0  0  0  0  0  0  0  0  0  0
  155.0310  214.2330  155.3520 C   0  0  0  0  0  1  0  0  0  0  0  0
  161.5720  210.4680  151.8420 C   0  0  0  0  0  2  0  0  0  0  0  0
  161.6940  211.3450  156.2870 C   0  0  0  0  0  3  0  0  0  0  0  0
  161.5550  208.5820  155.9670 C   0  0  0  0  0  3  0  0  0  0  0  0
  162.3340  209.1260  156.9880 C   0  0  0  0  0  3  0  0  0  0  0  0
  161.0420  208.2550  152.9080 C   0  0  0  0  0  2  0  0  0  0  0  0
  158.4760  212.4630  152.7570 C   0  0  1  0  0  3  0  0  0  0  0  0
  160.5280  211.4630  152.0430 N   0  0  0  0  0  0  0  0  0  0  0  0
  158.4580  213.4270  153.9350 C   0  0  2  0  0  3  0  0  0  0  0  0
  157.8820  212.9890  150.3990 C   0  0  0  0  0  1  0  0  0  0  0  0
  160.1400  211.8350  154.4240 C   0  0  2  0  0  3  0  0  0  0  0  0
  1 16  2  0  0  0  0
  1 21  1  0  0  0  0
  2  8  1  0  0  0  0
  3 17  2  0  0  0  0
  5 27  1  6  0  0  0
  5 24  1  0  0  0  0
  6  1  1  0  0  0  0
  8 14  1  0  0  0  0
  8  7  1  1  0  0  0
  9 18  1  0  0  0  0
  9 14  1  0  0  0  0
 10  8  1  0  0  0  0
 11 15  1  0  0  0  0
 12 28  1  0  0  0  0
 13  9  2  0  0  0  0
 15 19  1  0  0  0  0
 15 23  1  0  0  0  0
 16 20  1  0  0  0  0
 17  5  1  0  0  0  0
 17 25  1  0  0  0  0
 19 25  1  0  0  0  0
 20  4  2  0  0  0  0
 21 22  2  0  0  0  0
 22  4  1  0  0  0  0
 23  6  1  0  0  0  0
 24 12  1  0  0  0  0
 24 26  1  0  0  0  0
 25 12  1  0  0  0  0
 26 13  1  0  0  0  0
 26 10  1  0  0  0  0
 28 10  1  0  0  0  0
 28 16  1  0  0  0  0
M  END
>  <MODEL>
1

>  <REMARK>
 VINA RESULT:      -5.6      0.000      0.000
  Name = 
  0 active torsions:
  status: ('A' for Active; 'I' for Inactive)
                            x       y       z     vdW  Elec       q    Type
                         _______ _______ _______ _____ _____    ______ ____

>  <TORSDO>
F 0

$$$$
=
 OpenBabel11122414113D

 28 32  0  0  1  0  0  0  0  0999 V2000
  162.4070  211.2810  139.6650 C   0  0  0  0  0  0  0  0  0  0  0  0
  159.6340  212.4790  141.3120 F   0  0  0  0  0  0  0  0  0  0  0  0
  158.1020  208.0480  137.0110 O   0  0  0  0  0  0  0  0  0  0  0  0
  163.4690  213.2720  137.9950 C   0  0  0  0  0  3  0  0  0  0  0  0
  157.1950  209.8330  138.3760 C   0  0  2  0  0  3  0  0  0  0  0  0
  161.9410  210.1600  140.5420 C   0  0  0  0  0  2  0  0  0  0  0  0
  160.5560  214.4410  140.3790 C   0  0  0  0  0  1  0  0  0  0  0  0
  159.3770  213.4880  140.3970 C   0  0  1  0  0  0  0  0  0  0  0  0
  156.8840  213.8040  140.5130 C   0  0  0  0  0  0  0  0  0  0  0  0
  159.1350  212.9060  138.9780 C   0  0  2  0  0  3  0  0  0  0  0  0
  161.6880  206.7090  139.1540 O   0  0  0  0  0  1  0  0  0  0  0  0
  159.4400  210.4910  139.1990 C   0  0  1  0  0  3  0  0  0  0  0  0
  156.6870  212.9040  139.6010 N   0  0  0  0  0  0  0  0  0  0  0  0
  158.2060  214.2280  140.8400 N   0  0  0  0  0  2  0  0  0  0  0  0
  161.2570  208.0150  139.3840 C   0  0  2  0  0  3  0  0  0  0  0  0
  161.5550  211.9740  138.7610 C   0  0  0  0  0  0  0  0  0  0  0  0
  158.2840  208.9960  137.8200 C   0  0  0  0  0  0  0  0  0  0  0  0
  155.7200  214.4530  141.1690 C   0  0  0  0  0  1  0  0  0  0  0  0
  160.7880  208.6230  138.0690 C   0  0  0  0  0  2  0  0  0  0  0  0
  162.1120  212.9550  137.9280 C   0  0  0  0  0  3  0  0  0  0  0  0
  163.7660  211.6150  139.7250 C   0  0  0  0  0  3  0  0  0  0  0  0
  164.2950  212.6060  138.8980 C   0  0  0  0  0  3  0  0  0  0  0  0
  162.4060  208.8200  139.9800 C   0  0  0  0  0  2  0  0  0  0  0  0
  157.9350  210.7910  139.3190 C   0  0  1  0  0  3  0  0  0  0  0  0
  159.5620  209.3820  138.2770 N   0  0  0  0  0  0  0  0  0  0  0  0
  157.7600  212.2330  138.8630 C   0  0  2  0  0  3  0  0  0  0  0  0
  156.2390  208.9750  139.1830 C   0  0  0  0  0  1  0  0  0  0  0  0
  160.0630  211.7470  138.6120 C   0  0  2  0  0  3  0  0  0  0  0  0
  1 21  1  0  0  0  0
  1  6  1  0  0  0  0
  3 17  2  0  0  0  0
  4 22  1  0  0  0  0
  5 27  1  1  0  0  0
  5 24  1  0  0  0  0
  8  7  1  6  0  0  0
  8 14  1  0  0  0  0
  8  2  1  0  0  0  0
  9 14  1  0  0  0  0
  9 18  1  0  0  0  0
 10  8  1  0  0  0  0
 11 15  1  0  0  0  0
 12 24  1  0  0  0  0
 13  9  2  0  0  0  0
 15 23  1  0  0  0  0
 16  1  2  0  0  0  0
 17 25  1  0  0  0  0
 17  5  1  0  0  0  0
 19 25  1  0  0  0  0
 19 15  1  0  0  0  0
 20  4  2  0  0  0  0
 20 16  1  0  0  0  0
 22 21  2  0  0  0  0
 23  6  1  0  0  0  0
 25 12  1  0  0  0  0
 26 10  1  0  0  0  0
 26 24  1  0  0  0  0
 26 13  1  0  0  0  0
 28 16  1  0  0  0  0
 28 10  1  0  0  0  0
 28 12  1  0  0  0  0
M  END
>  <MODEL>
2

>  <REMARK>
 VINA RESULT:      -4.0     13.673     15.045
  Name = 
  0 active torsions:
  status: ('A' for Active; 'I' for Inactive)
                            x       y       z     vdW  Elec       q    Type
                         _______ _______ _______ _____ _____    ______ ____

>  <TORSDO>
F 0

$$$$
=
 OpenBabel11122414113D

 28 32  0  0  1  0  0  0  0  0999 V2000
  160.4960  210.9360  151.5070 C   0  0  0  0  0  0  0  0  0  0  0  0
  159.6520  207.6000  151.5560 F   0  0  0  0  0  0  0  0  0  0  0  0
  161.9850  209.5340  157.1510 O   0  0  0  0  0  0  0  0  0  0  0  0
  162.7280  211.3390  149.8520 C   0  0  0  0  0  3  0  0  0  0  0  0
  161.4930  207.5700  155.8190 C   0  0  2  0  0  3  0  0  0  0  0  0
  159.2880  210.8370  152.3860 C   0  0  0  0  0  2  0  0  0  0  0  0
  161.2060  207.7030  149.7820 C   0  0  0  0  0  1  0  0  0  0  0  0
  160.9040  207.1540  151.1630 C   0  0  1  0  0  0  0  0  0  0  0  0
  161.1020  204.8760  152.2110 C   0  0  0  0  0  0  0  0  0  0  0  0
  161.9970  207.6000  152.1710 C   0  0  2  0  0  3  0  0  0  0  0  0
  159.2360  212.6120  155.6640 O   0  0  0  0  0  1  0  0  0  0  0  0
  160.8310  208.9320  153.8560 C   0  0  1  0  0  3  0  0  0  0  0  0
  161.6020  205.3750  153.2980 N   0  0  0  0  0  0  0  0  0  0  0  0
  160.8700  205.7030  151.0720 N   0  0  0  0  0  2  0  0  0  0  0  0
  159.5650  211.5750  154.7920 C   0  0  2  0  0  3  0  0  0  0  0  0
  161.6580  210.1330  151.6790 C   0  0  0  0  0  0  0  0  0  0  0  0
  161.5980  209.0270  156.0640 C   0  0  0  0  0  0  0  0  0  0  0  0
  160.8370  203.4170  152.1260 C   0  0  0  0  0  1  0  0  0  0  0  0
  161.0430  211.2450  154.9480 C   0  0  0  0  0  2  0  0  0  0  0  0
  162.7650  210.3630  150.8490 C   0  0  0  0  0  3  0  0  0  0  0  0
  160.4730  211.9080  150.4980 C   0  0  0  0  0  3  0  0  0  0  0  0
  161.5800  212.1070  149.6730 C   0  0  0  0  0  3  0  0  0  0  0  0
  159.2470  212.0070  153.3650 C   0  0  0  0  0  2  0  0  0  0  0  0
  160.9470  207.4930  154.3880 C   0  0  1  0  0  3  0  0  0  0  0  0
  161.2370  209.8010  154.9410 N   0  0  0  0  0  0  0  0  0  0  0  0
  161.9400  206.7900  153.4730 C   0  0  2  0  0  3  0  0  0  0  0  0
  160.4870  206.9530  156.7720 C   0  0  0  0  0  1  0  0  0  0  0  0
  161.8140  209.0230  152.7000 C   0  0  2  0  0  3  0  0  0  0  0  0
  1 16  1  0  0  0  0
  1  6  1  0  0  0  0
  4 20  1  0  0  0  0
  5 17  1  0  0  0  0
  5 27  1  1  0  0  0
  6 23  1  0  0  0  0
  8  7  1  6  0  0  0
  8  2  1  0  0  0  0
  8 10  1  0  0  0  0
  9 13  2  0  0  0  0
 10 28  1  0  0  0  0
 10 26  1  0  0  0  0
 12 24  1  0  0  0  0
 12 25  1  0  0  0  0
 13 26  1  0  0  0  0
 14  8  1  0  0  0  0
 14  9  1  0  0  0  0
 15 19  1  0  0  0  0
 15 11  1  0  0  0  0
 16 28  1  0  0  0  0
 17  3  2  0  0  0  0
 18  9  1  0  0  0  0
 20 16  2  0  0  0  0
 21  1  2  0  0  0  0
 22  4  2  0  0  0  0
 22 21  1  0  0  0  0
 23 15  1  0  0  0  0
 24  5  1  0  0  0  0
 25 19  1  0  0  0  0
 25 17  1  0  0  0  0
 26 24  1  0  0  0  0
 28 12  1  0  0  0  0
M  END
>  <MODEL>
3

>  <REMARK>
 VINA RESULT:      -3.1      3.097      6.917
  Name = 
  0 active torsions:
  status: ('A' for Active; 'I' for Inactive)
                            x       y       z     vdW  Elec       q    Type
                         _______ _______ _______ _____ _____    ______ ____

>  <TORSDO>
F 0

$$$$
=
 OpenBabel11122414113D

 28 32  0  0  1  0  0  0  0  0999 V2000
  160.7550  208.6710  155.0640 C   0  0  0  0  0  0  0  0  0  0  0  0
  159.1760  210.6370  152.7230 F   0  0  0  0  0  0  0  0  0  0  0  0
  163.4420  206.7420  150.0550 O   0  0  0  0  0  0  0  0  0  0  0  0
  162.4330  210.2480  156.6700 C   0  0  0  0  0  3  0  0  0  0  0  0
  162.1190  208.7360  149.6740 C   0  0  2  0  0  3  0  0  0  0  0  0
  159.8720  207.7450  154.2880 C   0  0  0  0  0  2  0  0  0  0  0  0
  160.1190  212.2390  154.1760 C   0  0  0  0  0  1  0  0  0  0  0  0
  160.1090  211.6590  152.7760 C   0  0  1  0  0  0  0  0  0  0  0  0
  160.0430  212.6710  150.4730 C   0  0  0  0  0  0  0  0  0  0  0  0
  161.5240  211.1440  152.3970 C   0  0  2  0  0  3  0  0  0  0  0  0
  161.2160  204.4820  153.0840 O   0  0  0  0  0  1  0  0  0  0  0  0
  161.2640  208.7460  152.0010 C   0  0  1  0  0  3  0  0  0  0  0  0
  160.9460  211.8470  150.0410 N   0  0  0  0  0  0  0  0  0  0  0  0
  159.6980  212.7090  151.8570 N   0  0  0  0  0  2  0  0  0  0  0  0
  161.0120  205.8600  153.0390 C   0  0  2  0  0  3  0  0  0  0  0  0
  161.6840  209.5600  154.4560 C   0  0  0  0  0  0  0  0  0  0  0  0
  162.6430  207.6140  150.4880 C   0  0  0  0  0  0  0  0  0  0  0  0
  159.4180  213.6350  149.5320 C   0  0  0  0  0  1  0  0  0  0  0  0
  162.3430  206.5510  152.7790 C   0  0  0  0  0  2  0  0  0  0  0  0
  162.5210  210.3270  155.2800 C   0  0  0  0  0  3  0  0  0  0  0  0
  160.6760  208.6070  156.4620 C   0  0  0  0  0  3  0  0  0  0  0  0
  161.5060  209.3930  157.2610 C   0  0  0  0  0  3  0  0  0  0  0  0
  160.4050  206.3170  154.3610 C   0  0  0  0  0  2  0  0  0  0  0  0
  161.1760  209.4620  150.6420 C   0  0  1  0  0  3  0  0  0  0  0  0
  162.1680  207.6300  151.8170 N   0  0  0  0  0  0  0  0  0  0  0  0
  161.6550  210.8860  150.8900 C   0  0  2  0  0  3  0  0  0  0  0  0
  161.3170  208.1990  148.5030 C   0  0  0  0  0  1  0  0  0  0  0  0
  161.8570  209.7630  152.9640 C   0  0  2  0  0  3  0  0  0  0  0  0
  1 21  1  0  0  0  0
  2  8  1  0  0  0  0
  3 17  2  0  0  0  0
  4 22  1  0  0  0  0
  5 27  1  6  0  0  0
  5 17  1  0  0  0  0
  5 24  1  0  0  0  0
  6 23  1  0  0  0  0
  6  1  1  0  0  0  0
  8  7  1  1  0  0  0
  9 14  1  0  0  0  0
 10  8  1  0  0  0  0
 10 28  1  0  0  0  0
 12 28  1  0  0  0  0
 13  9  2  0  0  0  0
 13 26  1  0  0  0  0
 14  8  1  0  0  0  0
 15 11  1  0  0  0  0
 15 23  1  0  0  0  0
 16  1  2  0  0  0  0
 16 20  1  0  0  0  0
 17 25  1  0  0  0  0
 18  9  1  0  0  0  0
 19 15  1  0  0  0  0
 20  4  2  0  0  0  0
 21 22  2  0  0  0  0
 24 26  1  0  0  0  0
 24 12  1  0  0  0  0
 25 12  1  0  0  0  0
 25 19  1  0  0  0  0
 26 10  1  0  0  0  0
 28 16  1  0  0  0  0
M  END
>  <MODEL>
4

>  <REMARK>
 VINA RESULT:      -2.9      2.645      4.223
  Name = 
  0 active torsions:
  status: ('A' for Active; 'I' for Inactive)
                            x       y       z     vdW  Elec       q    Type
                         _______ _______ _______ _____ _____    ______ ____

>  <TORSDO>
F 0

$$$$
=
 OpenBabel11122414113D

 28 32  0  0  1  0  0  0  0  0999 V2000
  160.9290  205.5090  150.6170 C   0  0  0  0  0  0  0  0  0  0  0  0
  159.7060  208.1800  152.4070 F   0  0  0  0  0  0  0  0  0  0  0  0
  163.4370  210.0570  147.6070 O   0  0  0  0  0  0  0  0  0  0  0  0
  162.7740  204.0740  152.1710 C   0  0  0  0  0  3  0  0  0  0  0  0
  162.4220  210.7830  149.6830 C   0  0  2  0  0  3  0  0  0  0  0  0
  159.9420  206.1820  149.7150 C   0  0  0  0  0  2  0  0  0  0  0  0
  160.8310  206.9340  154.0650 C   0  0  0  0  0  1  0  0  0  0  0  0
  160.7740  208.2340  153.2870 C   0  0  1  0  0  0  0  0  0  0  0  0
  160.9110  210.6590  153.9420 C   0  0  0  0  0  0  0  0  0  0  0  0
  162.1100  208.4680  152.5320 C   0  0  2  0  0  3  0  0  0  0  0  0
  160.8350  206.8370  146.1550 O   0  0  0  0  0  1  0  0  0  0  0  0
  161.5190  208.5240  150.1600 C   0  0  1  0  0  3  0  0  0  0  0  0
  161.6970  210.9260  152.9460 N   0  0  0  0  0  0  0  0  0  0  0  0
  160.5400  209.3140  154.2340 N   0  0  0  0  0  2  0  0  0  0  0  0
  160.8320  207.0910  147.5260 C   0  0  2  0  0  3  0  0  0  0  0  0
  161.9900  206.1960  151.2680 C   0  0  0  0  0  0  0  0  0  0  0  0
  162.7600  209.7920  148.6360 C   0  0  0  0  0  0  0  0  0  0  0  0
  160.4530  211.7580  154.8310 C   0  0  0  0  0  1  0  0  0  0  0  0
  162.2540  207.3870  147.9800 C   0  0  0  0  0  2  0  0  0  0  0  0
  162.9070  205.4550  152.0280 C   0  0  0  0  0  3  0  0  0  0  0  0
  160.8060  204.1220  150.7750 C   0  0  0  0  0  3  0  0  0  0  0  0
  161.7200  203.4080  151.5500 C   0  0  0  0  0  3  0  0  0  0  0  0
  160.2640  205.8780  148.2550 C   0  0  0  0  0  2  0  0  0  0  0  0
  161.5690  209.9750  150.6690 C   0  0  1  0  0  3  0  0  0  0  0  0
  162.2590  208.5030  148.9160 N   0  0  0  0  0  0  0  0  0  0  0  0
  162.2400  209.9150  152.0350 C   0  0  2  0  0  3  0  0  0  0  0  0
  161.5810  211.8990  149.0930 C   0  0  0  0  0  1  0  0  0  0  0  0
  162.2270  207.6930  151.2190 C   0  0  2  0  0  3  0  0  0  0  0  0
  1 21  2  0  0  0  0
  1 16  1  0  0  0  0
  2  8  1  0  0  0  0
  3 17  2  0  0  0  0
  5 27  1  6  0  0  0
  5 24  1  0  0  0  0
  6  1  1  0  0  0  0
  8  7  1  1  0  0  0
  8 14  1  0  0  0  0
  9 14  1  0  0  0  0
  9 18  1  0  0  0  0
 10  8  1  0  0  0  0
 11 15  1  0  0  0  0
 12 24  1  0  0  0  0
 12 28  1  0  0  0  0
 13  9  2  0  0  0  0
 15 19  1  0  0  0  0
 15 23  1  0  0  0  0
 16 20  2  0  0  0  0
 17 25  1  0  0  0  0
 17  5  1  0  0  0  0
 19 25  1  0  0  0  0
 20  4  1  0  0  0  0
 21 22  1  0  0  0  0
 22  4  2  0  0  0  0
 23  6  1  0  0  0  0
 24 26  1  0  0  0  0
 25 12  1  0  0  0  0
 26 10  1  0  0  0  0
 26 13  1  0  0  0  0
 28 16  1  0  0  0  0
 28 10  1  0  0  0  0
M  END
>  <MODEL>
5

>  <REMARK>
 VINA RESULT:      -2.7      3.301      5.576
  Name = 
  0 active torsions:
  status: ('A' for Active; 'I' for Inactive)
                            x       y       z     vdW  Elec       q    Type
                         _______ _______ _______ _____ _____    ______ ____

>  <TORSDO>
F 0

$$$$
