=
 OpenBabel11122412433D

 30 35  0  0  1  0  0  0  0  0999 V2000
  161.5350  205.0880  149.2460 C   0  0  0  0  0  0  0  0  0  0  0  0
  161.1220  202.6760  148.8030 C   0  0  0  0  0  0  0  0  0  0  0  0
  161.1850  204.5170  153.3460 O   0  0  0  0  0  0  0  0  0  0  0  0
  161.6310  206.1570  150.1720 C   0  0  0  0  0  0  0  0  0  0  0  0
  161.8010  205.3470  147.8610 N   0  0  0  0  0  2  0  0  0  0  0  0
  162.9620  208.6980  147.9500 O   0  0  0  0  0  0  0  0  0  0  0  0
  160.6610  208.7910  151.4310 C   0  0  1  0  0  3  0  0  0  0  0  0
  162.3380  207.6700  148.3250 C   0  0  0  0  0  0  0  0  0  0  0  0
  160.6950  207.9690  152.7180 C   0  0  2  0  0  3  0  0  0  0  0  0
  161.4330  205.7940  153.9240 C   0  0  2  0  0  3  0  0  0  0  0  0
  161.8670  206.6920  147.2980 C   0  0  2  0  0  3  0  0  0  0  0  0
  161.9920  207.4800  149.7090 N   0  0  0  0  0  0  0  0  0  0  0  0
  160.8530  201.3950  149.2950 C   0  0  0  0  0  3  0  0  0  0  0  0
  161.0660  208.9680  153.7770 C   0  0  0  0  0  2  0  0  0  0  0  0
  160.4730  210.1940  151.7940 N   0  0  0  0  0  2  0  0  0  0  0  0
  161.2510  202.8270  147.4610 F   0  0  0  0  0  0  0  0  0  0  0  0
  161.2220  204.5940  151.9700 C   0  0  0  0  0  0  0  0  0  0  0  0
  160.7060  201.1770  150.6650 C   0  0  0  0  0  3  0  0  0  0  0  0
  161.2460  203.7680  149.6930 C   0  0  0  0  0  0  0  0  0  0  0  0
  161.4600  205.8680  151.5390 C   0  0  0  0  0  0  0  0  0  0  0  0
  160.3410  206.1590  154.7180 O   0  0  0  0  0  1  0  0  0  0  0  0
  161.6530  206.7640  152.7240 C   0  0  1  0  0  3  0  0  0  0  0  0
  160.5140  210.2720  153.2510 C   0  0  0  0  0  2  0  0  0  0  0  0
  162.8170  209.4730  150.6150 O   0  0  0  0  0  0  0  0  0  0  0  0
  160.8240  202.2400  151.5590 C   0  0  0  0  0  3  0  0  0  0  0  0
  161.0870  203.5280  151.0850 C   0  0  0  0  0  0  0  0  0  0  0  0
  161.8850  208.6240  150.5710 C   0  0  0  0  0  0  0  0  0  0  0  0
  160.5820  207.0820  146.8400 O   0  0  0  0  0  0  0  0  0  0  0  0
  160.7340  205.8510  144.8440 C   0  0  0  0  0  2  0  0  0  0  0  0
  159.9840  206.4320  145.7660 C   0  0  0  0  0  3  0  0  0  0  0  0
  1 19  2  0  0  0  0
  1  4  1  0  0  0  0
  2 13  2  0  0  0  0
  2 19  1  0  0  0  0
  3 10  1  0  0  0  0
  4 20  2  0  0  0  0
  5  1  1  0  0  0  0
  6  8  2  0  0  0  0
  7 27  1  1  0  0  0
  7 15  1  0  0  0  0
  7  9  1  0  0  0  0
  8 12  1  0  0  0  0
  9 22  1  0  0  0  0
  9 14  1  1  0  0  0
 10 21  1  6  0  0  0
 11 28  1  1  0  0  0
 11  5  1  0  0  0  0
 11  8  1  0  0  0  0
 12  4  1  0  0  0  0
 12 27  1  0  0  0  0
 13 18  1  0  0  0  0
 15 23  1  0  0  0  0
 16  2  1  0  0  0  0
 17  3  1  0  0  0  0
 18 25  2  0  0  0  0
 19 26  1  0  0  0  0
 20 17  1  0  0  0  0
 22 20  1  6  0  0  0
 22 10  1  0  0  0  0
 23 14  1  0  0  0  0
 26 25  1  0  0  0  0
 26 17  2  0  0  0  0
 27 24  2  0  0  0  0
 29 30  2  0  0  0  0
 30 28  1  0  0  0  0
M  END
>  <MODEL>
1

>  <REMARK>
 VINA RESULT:      -8.6      0.000      0.000
  Name = 
  2 active torsions:
  status: ('A' for Active; 'I' for Inactive)
    1  A    between atoms: C_11  and  O_28
    2  A    between atoms: O_28  and  C_30
                            x       y       z     vdW  Elec       q    Type
                         _______ _______ _______ _____ _____    ______ ____

>  <TORSDO>
F 2

$$$$
=
 OpenBabel11122412433D

 30 35  0  0  1  0  0  0  0  0999 V2000
  161.8180  207.6270  149.2200 C   0  0  0  0  0  0  0  0  0  0  0  0
  161.6150  205.7990  147.5450 C   0  0  0  0  0  0  0  0  0  0  0  0
  161.1990  204.9790  152.3610 O   0  0  0  0  0  0  0  0  0  0  0  0
  161.7660  208.0510  150.5710 C   0  0  0  0  0  0  0  0  0  0  0  0
  162.1690  208.5810  148.2100 N   0  0  0  0  0  2  0  0  0  0  0  0
  163.0730  211.4090  150.1490 O   0  0  0  0  0  0  0  0  0  0  0  0
  160.5140  209.6090  152.9120 C   0  0  1  0  0  3  0  0  0  0  0  0
  162.4990  210.3240  149.8670 C   0  0  0  0  0  0  0  0  0  0  0  0
  160.5090  208.2340  153.5770 C   0  0  2  0  0  3  0  0  0  0  0  0
  161.3090  205.7670  153.5420 C   0  0  2  0  0  3  0  0  0  0  0  0
  162.1800  210.0220  148.4390 C   0  0  2  0  0  3  0  0  0  0  0  0
  162.0640  209.4270  150.9060 N   0  0  0  0  0  0  0  0  0  0  0  0
  161.4020  204.4450  147.2670 C   0  0  0  0  0  3  0  0  0  0  0  0
  160.7260  208.5350  155.0330 C   0  0  0  0  0  2  0  0  0  0  0  0
  160.1980  210.6070  153.9310 N   0  0  0  0  0  2  0  0  0  0  0  0
  161.8340  206.6360  146.5010 F   0  0  0  0  0  0  0  0  0  0  0  0
  161.3350  205.7680  151.2390 C   0  0  0  0  0  0  0  0  0  0  0  0
  161.1680  203.5370  148.2990 C   0  0  0  0  0  3  0  0  0  0  0  0
  161.5920  206.2630  148.8810 C   0  0  0  0  0  0  0  0  0  0  0  0
  161.5120  207.0830  151.5620 C   0  0  0  0  0  0  0  0  0  0  0  0
  160.1360  205.6360  154.2920 O   0  0  0  0  0  1  0  0  0  0  0  0
  161.5480  207.2270  153.0520 C   0  0  1  0  0  3  0  0  0  0  0  0
  160.1220  209.9080  155.2100 C   0  0  0  0  0  2  0  0  0  0  0  0
  162.6710  210.6640  152.7970 O   0  0  0  0  0  0  0  0  0  0  0  0
  161.1410  203.9740  149.6230 C   0  0  0  0  0  3  0  0  0  0  0  0
  161.3450  205.3240  149.9200 C   0  0  0  0  0  0  0  0  0  0  0  0
  161.8090  209.9450  152.2220 C   0  0  0  0  0  0  0  0  0  0  0  0
  160.9080  210.5670  148.1220 O   0  0  0  0  0  0  0  0  0  0  0  0
  160.5820  212.8930  148.0630 C   0  0  0  0  0  2  0  0  0  0  0  0
  160.8030  211.7600  147.4170 C   0  0  0  0  0  3  0  0  0  0  0  0
  1  4  1  0  0  0  0
  2 19  1  0  0  0  0
  3 10  1  0  0  0  0
  4 12  1  0  0  0  0
  4 20  2  0  0  0  0
  5 11  1  0  0  0  0
  5  1  1  0  0  0  0
  7 27  1  1  0  0  0
  7  9  1  0  0  0  0
  7 15  1  0  0  0  0
  8  6  2  0  0  0  0
  8 12  1  0  0  0  0
  9 14  1  1  0  0  0
 10 21  1  6  0  0  0
 11 28  1  1  0  0  0
 11  8  1  0  0  0  0
 12 27  1  0  0  0  0
 13  2  2  0  0  0  0
 13 18  1  0  0  0  0
 14 23  1  0  0  0  0
 15 23  1  0  0  0  0
 16  2  1  0  0  0  0
 17 20  1  0  0  0  0
 17  3  1  0  0  0  0
 18 25  2  0  0  0  0
 19  1  2  0  0  0  0
 19 26  1  0  0  0  0
 22 20  1  6  0  0  0
 22 10  1  0  0  0  0
 22  9  1  0  0  0  0
 25 26  1  0  0  0  0
 26 17  2  0  0  0  0
 27 24  2  0  0  0  0
 30 29  2  0  0  0  0
 30 28  1  0  0  0  0
M  END
>  <MODEL>
2

>  <REMARK>
 VINA RESULT:      -6.4      2.041      2.988
  Name = 
  2 active torsions:
  status: ('A' for Active; 'I' for Inactive)
    1  A    between atoms: C_11  and  O_28
    2  A    between atoms: O_28  and  C_30
                            x       y       z     vdW  Elec       q    Type
                         _______ _______ _______ _____ _____    ______ ____

>  <TORSDO>
F 2

$$$$
=
 OpenBabel11122412433D

 30 35  0  0  1  0  0  0  0  0999 V2000
  159.4440  211.6180  153.7070 C   0  0  0  0  0  0  0  0  0  0  0  0
  158.6030  213.6520  152.5470 C   0  0  0  0  0  0  0  0  0  0  0  0
  161.6900  210.5120  150.3920 O   0  0  0  0  0  0  0  0  0  0  0  0
  160.2080  210.4260  153.6720 C   0  0  0  0  0  0  0  0  0  0  0  0
  158.8060  211.9950  154.9340 N   0  0  0  0  0  2  0  0  0  0  0  0
  160.0970  209.5920  157.2010 O   0  0  0  0  0  0  0  0  0  0  0  0
  160.5170  207.3640  153.6970 C   0  0  1  0  0  3  0  0  0  0  0  0
  159.7470  210.0810  156.0940 C   0  0  0  0  0  0  0  0  0  0  0  0
  161.2670  207.6180  152.3910 C   0  0  2  0  0  3  0  0  0  0  0  0
  162.3740  209.3250  150.7820 C   0  0  2  0  0  3  0  0  0  0  0  0
  158.6400  211.0830  156.0610 C   0  0  2  0  0  3  0  0  0  0  0  0
  160.3300  209.6140  154.8640 N   0  0  0  0  0  0  0  0  0  0  0  0
  158.5740  214.4530  151.4010 C   0  0  0  0  0  3  0  0  0  0  0  0
  162.3210  206.5470  152.3640 C   0  0  0  0  0  2  0  0  0  0  0  0
  160.7430  205.9730  154.0870 N   0  0  0  0  0  2  0  0  0  0  0  0
  157.8750  214.0490  153.6200 F   0  0  0  0  0  0  0  0  0  0  0  0
  160.8630  210.9480  151.4040 C   0  0  0  0  0  0  0  0  0  0  0  0
  159.2990  214.0950  150.2650 C   0  0  0  0  0  3  0  0  0  0  0  0
  159.3680  212.4620  152.5630 C   0  0  0  0  0  0  0  0  0  0  0  0
  160.9050  210.1180  152.4880 C   0  0  0  0  0  0  0  0  0  0  0  0
  162.0670  208.3010  149.8820 O   0  0  0  0  0  1  0  0  0  0  0  0
  161.8880  209.0170  152.2310 C   0  0  1  0  0  3  0  0  0  0  0  0
  161.6970  205.4090  153.1380 C   0  0  0  0  0  2  0  0  0  0  0  0
  161.7380  207.9360  155.6880 O   0  0  0  0  0  0  0  0  0  0  0  0
  160.0590  212.9270  150.2600 C   0  0  0  0  0  3  0  0  0  0  0  0
  160.0950  212.1090  151.3930 C   0  0  0  0  0  0  0  0  0  0  0  0
  160.9050  208.2980  154.8120 C   0  0  0  0  0  0  0  0  0  0  0  0
  157.4000  210.4020  155.9460 O   0  0  0  0  0  0  0  0  0  0  0  0
  155.2650  210.3550  154.9640 C   0  0  0  0  0  2  0  0  0  0  0  0
  156.2760  211.0550  155.4530 C   0  0  0  0  0  3  0  0  0  0  0  0
  1  5  1  0  0  0  0
  2 19  1  0  0  0  0
  2 16  1  0  0  0  0
  3 10  1  0  0  0  0
  3 17  1  0  0  0  0
  4  1  1  0  0  0  0
  4 12  1  0  0  0  0
  5 11  1  0  0  0  0
  7 15  1  1  0  0  0
  7 27  1  0  0  0  0
  8  6  2  0  0  0  0
  9 14  1  1  0  0  0
  9  7  1  0  0  0  0
 10 21  1  6  0  0  0
 10 22  1  0  0  0  0
 11 28  1  6  0  0  0
 11  8  1  0  0  0  0
 12  8  1  0  0  0  0
 13  2  2  0  0  0  0
 14 23  1  0  0  0  0
 17 20  1  0  0  0  0
 18 13  1  0  0  0  0
 19  1  2  0  0  0  0
 20  4  2  0  0  0  0
 22  9  1  0  0  0  0
 22 20  1  6  0  0  0
 23 15  1  0  0  0  0
 25 18  2  0  0  0  0
 25 26  1  0  0  0  0
 26 17  2  0  0  0  0
 26 19  1  0  0  0  0
 27 12  1  0  0  0  0
 27 24  2  0  0  0  0
 29 30  2  0  0  0  0
 30 28  1  0  0  0  0
M  END
>  <MODEL>
3

>  <REMARK>
 VINA RESULT:      -6.0      4.311      8.403
  Name = 
  2 active torsions:
  status: ('A' for Active; 'I' for Inactive)
    1  A    between atoms: C_11  and  O_28
    2  A    between atoms: O_28  and  C_30
                            x       y       z     vdW  Elec       q    Type
                         _______ _______ _______ _____ _____    ______ ____

>  <TORSDO>
F 2

$$$$
=
 OpenBabel11122412433D

 30 35  0  0  1  0  0  0  0  0999 V2000
  161.6740  208.3900  151.2940 C   0  0  0  0  0  0  0  0  0  0  0  0
  161.6810  210.8240  150.7820 C   0  0  0  0  0  0  0  0  0  0  0  0
  162.0980  207.4230  147.2760 O   0  0  0  0  0  0  0  0  0  0  0  0
  161.7030  207.0500  150.8350 C   0  0  0  0  0  0  0  0  0  0  0  0
  161.6610  208.6370  152.7060 N   0  0  0  0  0  2  0  0  0  0  0  0
  162.1360  205.3800  154.0270 O   0  0  0  0  0  0  0  0  0  0  0  0
  160.4440  204.2800  150.3740 C   0  0  1  0  0  3  0  0  0  0  0  0
  161.7950  206.2630  153.1960 C   0  0  0  0  0  0  0  0  0  0  0  0
  160.8420  204.5490  148.9250 C   0  0  2  0  0  3  0  0  0  0  0  0
  162.1770  206.0010  147.2400 C   0  0  2  0  0  3  0  0  0  0  0  0
  161.3700  207.6050  153.6960 C   0  0  2  0  0  3  0  0  0  0  0  0
  161.7170  205.9620  151.7900 N   0  0  0  0  0  0  0  0  0  0  0  0
  161.7500  211.8500  149.8340 C   0  0  0  0  0  3  0  0  0  0  0  0
  161.1730  203.1880  148.3800 C   0  0  0  0  0  2  0  0  0  0  0  0
  160.0420  202.8780  150.4820 N   0  0  0  0  0  2  0  0  0  0  0  0
  161.5630  211.1710  152.0880 F   0  0  0  0  0  0  0  0  0  0  0  0
  161.9000  207.8630  148.5680 C   0  0  0  0  0  0  0  0  0  0  0  0
  161.8690  211.5560  148.4760 C   0  0  0  0  0  3  0  0  0  0  0  0
  161.7260  209.4710  150.3710 C   0  0  0  0  0  0  0  0  0  0  0  0
  161.8100  206.8240  149.4500 C   0  0  0  0  0  0  0  0  0  0  0  0
  161.1740  205.5070  146.4000 O   0  0  0  0  0  1  0  0  0  0  0  0
  162.0080  205.5330  148.7170 C   0  0  1  0  0  3  0  0  0  0  0  0
  160.2980  202.2570  149.1860 C   0  0  0  0  0  2  0  0  0  0  0  0
  162.2650  203.6870  151.8260 O   0  0  0  0  0  0  0  0  0  0  0  0
  161.9150  210.2290  148.0500 C   0  0  0  0  0  3  0  0  0  0  0  0
  161.8400  209.1900  148.9820 C   0  0  0  0  0  0  0  0  0  0  0  0
  161.5240  204.6010  151.3710 C   0  0  0  0  0  0  0  0  0  0  0  0
  159.9770  207.5800  153.9660 O   0  0  0  0  0  0  0  0  0  0  0  0
  159.9600  207.1360  156.2730 C   0  0  0  0  0  2  0  0  0  0  0  0
  159.4980  207.8300  155.2460 C   0  0  0  0  0  3  0  0  0  0  0  0
  1  5  1  0  0  0  0
  2 16  1  0  0  0  0
  3 17  1  0  0  0  0
  4  1  1  0  0  0  0
  4 12  1  0  0  0  0
  5 11  1  0  0  0  0
  7 15  1  6  0  0  0
  7 27  1  0  0  0  0
  8 11  1  0  0  0  0
  8  6  2  0  0  0  0
  9 14  1  1  0  0  0
  9  7  1  0  0  0  0
 10 21  1  6  0  0  0
 10  3  1  0  0  0  0
 10 22  1  0  0  0  0
 11 28  1  6  0  0  0
 12  8  1  0  0  0  0
 13  2  2  0  0  0  0
 14 23  1  0  0  0  0
 17 26  2  0  0  0  0
 17 20  1  0  0  0  0
 18 13  1  0  0  0  0
 19  2  1  0  0  0  0
 19  1  2  0  0  0  0
 20  4  2  0  0  0  0
 22  9  1  0  0  0  0
 22 20  1  1  0  0  0
 23 15  1  0  0  0  0
 25 18  2  0  0  0  0
 25 26  1  0  0  0  0
 26 19  1  0  0  0  0
 27 12  1  0  0  0  0
 27 24  2  0  0  0  0
 28 30  1  0  0  0  0
 30 29  2  0  0  0  0
M  END
>  <MODEL>
4

>  <REMARK>
 VINA RESULT:      -6.0      2.572      7.048
  Name = 
  2 active torsions:
  status: ('A' for Active; 'I' for Inactive)
    1  A    between atoms: C_11  and  O_28
    2  A    between atoms: O_28  and  C_30
                            x       y       z     vdW  Elec       q    Type
                         _______ _______ _______ _____ _____    ______ ____

>  <TORSDO>
F 2

$$$$
=
 OpenBabel11122412433D

 30 35  0  0  1  0  0  0  0  0999 V2000
  160.9930  209.2260  153.3340 C   0  0  0  0  0  0  0  0  0  0  0  0
  161.2070  207.4170  155.0290 C   0  0  0  0  0  0  0  0  0  0  0  0
  158.9990  211.6790  156.0300 O   0  0  0  0  0  0  0  0  0  0  0  0
  160.5060  210.5070  152.9770 C   0  0  0  0  0  0  0  0  0  0  0  0
  161.7870  208.4990  152.3870 N   0  0  0  0  0  2  0  0  0  0  0  0
  162.2390  210.8970  149.8130 O   0  0  0  0  0  0  0  0  0  0  0  0
  158.6760  212.4000  151.3840 C   0  0  1  0  0  3  0  0  0  0  0  0
  161.6880  210.3280  150.7930 C   0  0  0  0  0  0  0  0  0  0  0  0
  158.2810  212.8850  152.7770 C   0  0  2  0  0  3  0  0  0  0  0  0
  158.7630  212.8940  155.3260 C   0  0  2  0  0  3  0  0  0  0  0  0
  161.8730  208.8570  150.9750 C   0  0  2  0  0  3  0  0  0  0  0  0
  160.8130  211.0560  151.6740 N   0  0  0  0  0  0  0  0  0  0  0  0
  160.9610  206.9530  156.3250 C   0  0  0  0  0  3  0  0  0  0  0  0
  157.9910  214.3470  152.5840 C   0  0  0  0  0  2  0  0  0  0  0  0
  158.1260  213.3360  150.4050 N   0  0  0  0  0  2  0  0  0  0  0  0
  161.8780  206.6020  154.1780 F   0  0  0  0  0  0  0  0  0  0  0  0
  159.6160  210.7570  155.2100 C   0  0  0  0  0  0  0  0  0  0  0  0
  160.2730  207.7440  157.2450 C   0  0  0  0  0  3  0  0  0  0  0  0
  160.7560  208.6990  154.6350 C   0  0  0  0  0  0  0  0  0  0  0  0
  159.8080  211.2470  153.9500 C   0  0  0  0  0  0  0  0  0  0  0  0
  157.3920  213.1700  155.3330 O   0  0  0  0  0  1  0  0  0  0  0  0
  159.3220  212.6630  153.8890 C   0  0  1  0  0  3  0  0  0  0  0  0
  157.5190  214.4340  151.1520 C   0  0  0  0  0  2  0  0  0  0  0  0
  160.8310  213.1510  150.6300 O   0  0  0  0  0  0  0  0  0  0  0  0
  159.8200  209.0100  156.8760 C   0  0  0  0  0  3  0  0  0  0  0  0
  160.0510  209.4890  155.5830 C   0  0  0  0  0  0  0  0  0  0  0  0
  160.1600  212.2430  151.1940 C   0  0  0  0  0  0  0  0  0  0  0  0
  160.8680  208.1690  150.2460 O   0  0  0  0  0  0  0  0  0  0  0  0
  160.5960  206.1800  149.0230 C   0  0  0  0  0  2  0  0  0  0  0  0
  161.2060  207.3440  149.1790 C   0  0  0  0  0  3  0  0  0  0  0  0
  1 19  1  0  0  0  0
  2 13  1  0  0  0  0
  4  1  2  0  0  0  0
  4 20  1  0  0  0  0
  5  1  1  0  0  0  0
  6  8  2  0  0  0  0
  7 15  1  6  0  0  0
  7  9  1  0  0  0  0
  8 11  1  0  0  0  0
  8 12  1  0  0  0  0
  9 14  1  6  0  0  0
  9 22  1  0  0  0  0
 10 21  1  6  0  0  0
 10  3  1  0  0  0  0
 11 28  1  6  0  0  0
 11  5  1  0  0  0  0
 12  4  1  0  0  0  0
 13 18  2  0  0  0  0
 15 23  1  0  0  0  0
 16  2  1  0  0  0  0
 17 26  1  0  0  0  0
 17  3  1  0  0  0  0
 19  2  2  0  0  0  0
 19 26  1  0  0  0  0
 20 17  2  0  0  0  0
 22 20  1  1  0  0  0
 22 10  1  0  0  0  0
 23 14  1  0  0  0  0
 24 27  2  0  0  0  0
 25 18  1  0  0  0  0
 26 25  2  0  0  0  0
 27  7  1  0  0  0  0
 27 12  1  0  0  0  0
 29 30  2  0  0  0  0
 30 28  1  0  0  0  0
M  END
>  <MODEL>
5

>  <REMARK>
 VINA RESULT:      -5.9      3.490      6.176
  Name = 
  2 active torsions:
  status: ('A' for Active; 'I' for Inactive)
    1  A    between atoms: C_11  and  O_28
    2  A    between atoms: O_28  and  C_30
                            x       y       z     vdW  Elec       q    Type
                         _______ _______ _______ _____ _____    ______ ____

>  <TORSDO>
F 2

$$$$
=
 OpenBabel11122412433D

 30 35  0  0  1  0  0  0  0  0999 V2000
  161.5810  209.8690  150.4500 C   0  0  0  0  0  0  0  0  0  0  0  0
  162.3480  207.5020  150.4650 C   0  0  0  0  0  0  0  0  0  0  0  0
  160.0570  209.5240  154.2990 O   0  0  0  0  0  0  0  0  0  0  0  0
  160.9100  210.9350  151.0980 C   0  0  0  0  0  0  0  0  0  0  0  0
  162.1950  210.1110  149.1770 N   0  0  0  0  0  2  0  0  0  0  0  0
  161.8150  213.6200  148.8330 O   0  0  0  0  0  0  0  0  0  0  0  0
  158.5950  212.9400  151.4000 C   0  0  1  0  0  3  0  0  0  0  0  0
  161.5620  212.4540  149.2370 C   0  0  0  0  0  0  0  0  0  0  0  0
  158.4940  212.3240  152.7940 C   0  0  2  0  0  3  0  0  0  0  0  0
  159.5540  210.8170  154.6200 C   0  0  2  0  0  3  0  0  0  0  0  0
  161.9170  211.2920  148.3670 C   0  0  2  0  0  3  0  0  0  0  0  0
  160.8540  212.2380  150.4710 N   0  0  0  0  0  0  0  0  0  0  0  0
  162.4530  206.2800  151.1360 C   0  0  0  0  0  3  0  0  0  0  0  0
  158.0360  213.4630  153.6610 C   0  0  0  0  0  2  0  0  0  0  0  0
  157.7500  214.1320  151.3680 N   0  0  0  0  0  2  0  0  0  0  0  0
  162.8720  207.5900  149.2170 F   0  0  0  0  0  0  0  0  0  0  0  0
  160.5460  209.5010  153.0100 C   0  0  0  0  0  0  0  0  0  0  0  0
  161.9300  206.1270  152.4200 C   0  0  0  0  0  3  0  0  0  0  0  0
  161.7030  208.6000  151.0820 C   0  0  0  0  0  0  0  0  0  0  0  0
  160.3940  210.7070  152.3890 C   0  0  0  0  0  0  0  0  0  0  0  0
  158.2040  210.7110  154.9660 O   0  0  0  0  0  1  0  0  0  0  0  0
  159.7810  211.6840  153.3440 C   0  0  1  0  0  3  0  0  0  0  0  0
  157.2370  214.3330  152.7190 C   0  0  0  0  0  2  0  0  0  0  0  0
  160.4380  214.4530  151.1000 O   0  0  0  0  0  0  0  0  0  0  0  0
  161.2910  207.1960  153.0460 C   0  0  0  0  0  3  0  0  0  0  0  0
  161.1690  208.4230  152.3880 C   0  0  0  0  0  0  0  0  0  0  0  0
  160.0020  213.2750  150.9850 C   0  0  0  0  0  0  0  0  0  0  0  0
  160.8360  211.0240  147.4860 O   0  0  0  0  0  0  0  0  0  0  0  0
  160.0130  212.1600  145.6000 C   0  0  0  0  0  2  0  0  0  0  0  0
  160.1120  212.0650  146.9160 C   0  0  0  0  0  3  0  0  0  0  0  0
  1 19  2  0  0  0  0
  1  4  1  0  0  0  0
  2 19  1  0  0  0  0
  2 13  2  0  0  0  0
  3 10  1  0  0  0  0
  4 20  2  0  0  0  0
  5  1  1  0  0  0  0
  6  8  2  0  0  0  0
  7 27  1  1  0  0  0
  7  9  1  0  0  0  0
  8 12  1  0  0  0  0
  9 22  1  0  0  0  0
  9 14  1  1  0  0  0
 10 21  1  6  0  0  0
 11 28  1  6  0  0  0
 11  5  1  0  0  0  0
 11  8  1  0  0  0  0
 12 27  1  0  0  0  0
 12  4  1  0  0  0  0
 13 18  1  0  0  0  0
 15  7  1  0  0  0  0
 15 23  1  0  0  0  0
 16  2  1  0  0  0  0
 17  3  1  0  0  0  0
 18 25  2  0  0  0  0
 19 26  1  0  0  0  0
 20 17  1  0  0  0  0
 22 20  1  6  0  0  0
 22 10  1  0  0  0  0
 23 14  1  0  0  0  0
 26 17  2  0  0  0  0
 26 25  1  0  0  0  0
 27 24  2  0  0  0  0
 29 30  2  0  0  0  0
 30 28  1  0  0  0  0
M  END
>  <MODEL>
6

>  <REMARK>
 VINA RESULT:      -5.9      3.476      5.150
  Name = 
  2 active torsions:
  status: ('A' for Active; 'I' for Inactive)
    1  A    between atoms: C_11  and  O_28
    2  A    between atoms: O_28  and  C_30
                            x       y       z     vdW  Elec       q    Type
                         _______ _______ _______ _____ _____    ______ ____

>  <TORSDO>
F 2

$$$$
=
 OpenBabel11122412433D

 30 35  0  0  1  0  0  0  0  0999 V2000
  161.0680  210.7440  151.6810 C   0  0  0  0  0  0  0  0  0  0  0  0
  160.8190  212.8620  150.4010 C   0  0  0  0  0  0  0  0  0  0  0  0
  162.4560  208.7370  148.3190 O   0  0  0  0  0  0  0  0  0  0  0  0
  161.3900  209.3640  151.7000 C   0  0  0  0  0  0  0  0  0  0  0  0
  160.7250  211.3910  152.9140 N   0  0  0  0  0  2  0  0  0  0  0  0
  161.3930  208.8450  155.2920 O   0  0  0  0  0  0  0  0  0  0  0  0
  160.6800  206.3850  151.9960 C   0  0  1  0  0  3  0  0  0  0  0  0
  161.1050  209.3510  154.1740 C   0  0  0  0  0  0  0  0  0  0  0  0
  161.3260  206.2880  150.6160 C   0  0  2  0  0  3  0  0  0  0  0  0
  162.7500  207.4170  148.7660 C   0  0  2  0  0  3  0  0  0  0  0  0
  160.3910  210.6620  154.1330 C   0  0  2  0  0  3  0  0  0  0  0  0
  161.3670  208.6370  152.9520 N   0  0  0  0  0  0  0  0  0  0  0  0
  160.9310  213.5520  149.1900 C   0  0  0  0  0  3  0  0  0  0  0  0
  161.9600  204.9260  150.6080 C   0  0  0  0  0  2  0  0  0  0  0  0
  160.4770  205.0270  152.4990 N   0  0  0  0  0  2  0  0  0  0  0  0
  160.3820  213.5490  151.4860 F   0  0  0  0  0  0  0  0  0  0  0  0
  161.9310  209.4900  149.3480 C   0  0  0  0  0  0  0  0  0  0  0  0
  161.3710  212.8990  148.0390 C   0  0  0  0  0  3  0  0  0  0  0  0
  161.1490  211.4880  150.4710 C   0  0  0  0  0  0  0  0  0  0  0  0
  161.8150  208.7650  150.4990 C   0  0  0  0  0  0  0  0  0  0  0  0
  162.0300  206.4990  147.9960 O   0  0  0  0  0  1  0  0  0  0  0  0
  162.3500  207.3840  150.2720 C   0  0  1  0  0  3  0  0  0  0  0  0
  161.0850  204.1160  151.5350 C   0  0  0  0  0  2  0  0  0  0  0  0
  162.2270  206.6410  153.8180 O   0  0  0  0  0  0  0  0  0  0  0  0
  161.7020  211.5450  148.0860 C   0  0  0  0  0  3  0  0  0  0  0  0
  161.5900  210.8380  149.2860 C   0  0  0  0  0  0  0  0  0  0  0  0
  161.4690  207.2040  152.9810 C   0  0  0  0  0  0  0  0  0  0  0  0
  158.9920  210.4310  154.1840 O   0  0  0  0  0  0  0  0  0  0  0  0
  157.1150  211.7170  154.7730 C   0  0  0  0  0  2  0  0  0  0  0  0
  158.0930  211.4590  153.9210 C   0  0  0  0  0  3  0  0  0  0  0  0
  1  4  1  0  0  0  0
  1  5  1  0  0  0  0
  2 19  1  0  0  0  0
  2 16  1  0  0  0  0
  3 10  1  0  0  0  0
  3 17  1  0  0  0  0
  4 12  1  0  0  0  0
  5 11  1  0  0  0  0
  7 15  1  1  0  0  0
  7 27  1  0  0  0  0
  8  6  2  0  0  0  0
  9 14  1  1  0  0  0
  9  7  1  0  0  0  0
 10 21  1  6  0  0  0
 10 22  1  0  0  0  0
 11  8  1  0  0  0  0
 11 28  1  6  0  0  0
 12 27  1  0  0  0  0
 12  8  1  0  0  0  0
 13  2  2  0  0  0  0
 14 23  1  0  0  0  0
 17 20  1  0  0  0  0
 18 25  2  0  0  0  0
 18 13  1  0  0  0  0
 19  1  2  0  0  0  0
 20  4  2  0  0  0  0
 22 20  1  6  0  0  0
 22  9  1  0  0  0  0
 23 15  1  0  0  0  0
 25 26  1  0  0  0  0
 26 17  2  0  0  0  0
 26 19  1  0  0  0  0
 27 24  2  0  0  0  0
 30 28  1  0  0  0  0
 30 29  2  0  0  0  0
M  END
>  <MODEL>
7

>  <REMARK>
 VINA RESULT:      -5.8      3.303      7.416
  Name = 
  2 active torsions:
  status: ('A' for Active; 'I' for Inactive)
    1  A    between atoms: C_11  and  O_28
    2  A    between atoms: O_28  and  C_30
                            x       y       z     vdW  Elec       q    Type
                         _______ _______ _______ _____ _____    ______ ____

>  <TORSDO>
F 2

$$$$
=
 OpenBabel11122412433D

 30 35  0  0  1  0  0  0  0  0999 V2000
  161.5040  209.1450  151.6240 C   0  0  0  0  0  0  0  0  0  0  0  0
  161.9040  206.9690  152.7600 C   0  0  0  0  0  0  0  0  0  0  0  0
  159.4080  210.6050  154.9000 O   0  0  0  0  0  0  0  0  0  0  0  0
  160.9100  210.4310  151.6330 C   0  0  0  0  0  0  0  0  0  0  0  0
  162.3230  208.7700  150.5090 N   0  0  0  0  0  2  0  0  0  0  0  0
  162.5150  211.8040  148.6830 O   0  0  0  0  0  0  0  0  0  0  0  0
  158.8950  212.5300  150.6300 C   0  0  1  0  0  3  0  0  0  0  0  0
  162.0390  210.9470  149.4740 C   0  0  0  0  0  0  0  0  0  0  0  0
  158.5050  212.5850  152.1050 C   0  0  2  0  0  3  0  0  0  0  0  0
  159.0590  211.9420  154.5560 C   0  0  2  0  0  3  0  0  0  0  0  0
  162.3400  209.5020  149.2470 C   0  0  2  0  0  3  0  0  0  0  0  0
  161.1360  211.3360  150.5270 N   0  0  0  0  0  0  0  0  0  0  0  0
  161.7320  206.1520  153.8820 C   0  0  0  0  0  3  0  0  0  0  0  0
  158.0990  214.0160  152.3200 C   0  0  0  0  0  2  0  0  0  0  0  0
  158.2480  213.6480  149.9470 N   0  0  0  0  0  2  0  0  0  0  0  0
  162.6100  206.4720  151.7140 F   0  0  0  0  0  0  0  0  0  0  0  0
  160.0690  209.9940  153.8560 C   0  0  0  0  0  0  0  0  0  0  0  0
  161.0130  206.6060  154.9880 C   0  0  0  0  0  3  0  0  0  0  0  0
  161.3460  208.2680  152.7340 C   0  0  0  0  0  0  0  0  0  0  0  0
  160.1860  210.8210  152.7760 C   0  0  0  0  0  0  0  0  0  0  0  0
  157.6720  212.0930  154.6480 O   0  0  0  0  0  1  0  0  0  0  0  0
  159.5920  212.1550  153.1070 C   0  0  1  0  0  3  0  0  0  0  0  0
  157.5810  214.4490  150.9680 C   0  0  0  0  0  2  0  0  0  0  0  0
  160.9650  213.6290  150.0930 O   0  0  0  0  0  0  0  0  0  0  0  0
  160.4540  207.8830  154.9820 C   0  0  0  0  0  3  0  0  0  0  0  0
  160.6100  208.7110  153.8670 C   0  0  0  0  0  0  0  0  0  0  0  0
  160.3810  212.5520  150.3930 C   0  0  0  0  0  0  0  0  0  0  0  0
  161.3700  208.9580  148.3650 O   0  0  0  0  0  0  0  0  0  0  0  0
  162.0340  206.8730  147.5090 C   0  0  0  0  0  2  0  0  0  0  0  0
  161.2040  207.5830  148.2560 C   0  0  0  0  0  3  0  0  0  0  0  0
  1  4  2  0  0  0  0
  1 19  1  0  0  0  0
  2 13  1  0  0  0  0
  4 20  1  0  0  0  0
  5  1  1  0  0  0  0
  6  8  2  0  0  0  0
  7 15  1  6  0  0  0
  7  9  1  0  0  0  0
  8 12  1  0  0  0  0
  9 14  1  1  0  0  0
  9 22  1  0  0  0  0
 10 21  1  6  0  0  0
 10  3  1  0  0  0  0
 11 28  1  6  0  0  0
 11  8  1  0  0  0  0
 11  5  1  0  0  0  0
 12  4  1  0  0  0  0
 13 18  2  0  0  0  0
 15 23  1  0  0  0  0
 16  2  1  0  0  0  0
 17 26  1  0  0  0  0
 17  3  1  0  0  0  0
 19  2  2  0  0  0  0
 19 26  1  0  0  0  0
 20 17  2  0  0  0  0
 22 20  1  6  0  0  0
 22 10  1  0  0  0  0
 23 14  1  0  0  0  0
 24 27  2  0  0  0  0
 25 18  1  0  0  0  0
 26 25  2  0  0  0  0
 27 12  1  0  0  0  0
 27  7  1  0  0  0  0
 29 30  2  0  0  0  0
 30 28  1  0  0  0  0
M  END
>  <MODEL>
8

>  <REMARK>
 VINA RESULT:      -5.6      3.291      5.169
  Name = 
  2 active torsions:
  status: ('A' for Active; 'I' for Inactive)
    1  A    between atoms: C_11  and  O_28
    2  A    between atoms: O_28  and  C_30
                            x       y       z     vdW  Elec       q    Type
                         _______ _______ _______ _____ _____    ______ ____

>  <TORSDO>
F 2

$$$$
