=
 OpenBabel11122412553D

 32 36  0  0  1  0  0  0  0  0999 V2000
  159.1220  210.6030  156.4700 C   0  0  0  0  0  2  0  0  0  0  0  0
  161.2940  208.7280  152.1190 C   0  0  0  0  0  0  0  0  0  0  0  0
  161.1580  212.4690  149.0330 C   0  0  0  0  0  3  0  0  0  0  0  0
  161.7780  211.6470  147.9750 C   0  0  0  0  0  3  0  0  0  0  0  0
  161.7690  206.4300  151.2740 C   0  0  1  0  0  3  0  0  0  0  0  0
  161.2790  205.7130  150.0400 C   0  0  0  0  0  0  0  0  0  0  0  0
  160.8700  209.0970  154.5650 C   0  0  1  0  0  3  0  0  0  0  0  0
  160.9450  211.0600  153.0480 C   0  0  0  0  0  2  0  0  0  0  0  0
  159.9150  211.3040  155.3520 C   0  0  2  0  0  3  0  0  0  0  0  0
  161.1210  212.0480  150.3010 C   0  0  0  0  0  3  0  0  0  0  0  0
  161.1940  210.1620  151.9120 N   0  0  0  0  0  0  0  0  0  0  0  0
  161.8090  210.7700  150.7240 C   0  0  1  0  0  3  0  0  0  0  0  0
  161.9820  208.4840  149.7740 C   0  0  0  0  0  0  0  0  0  0  0  0
  158.9700  209.0910  156.2670 C   0  0  0  0  0  2  0  0  0  0  0  0
  160.1480  210.3780  154.1490 C   0  0  2  0  0  3  0  0  0  0  0  0
  160.2970  208.4610  155.8400 C   0  0  0  0  0  2  0  0  0  0  0  0
  162.1430  210.3840  148.2160 C   0  0  0  0  0  3  0  0  0  0  0  0
  161.9570  209.8080  149.5640 C   0  0  0  0  0  0  0  0  0  0  0  0
  162.2680  207.5170  148.6560 C   0  0  0  0  0  2  0  0  0  0  0  0
  160.8180  208.1090  153.4130 C   0  0  0  0  0  2  0  0  0  0  0  0
  163.1970  206.0180  151.5930 C   0  0  0  0  0  1  0  0  0  0  0  0
  161.6860  207.9270  151.1110 C   0  0  0  0  0  0  0  0  0  0  0  0
  161.4830  206.2400  148.8030 C   0  0  0  0  0  0  0  0  0  0  0  0
  161.0180  205.6480  147.5270 C   0  0  0  0  0  3  0  0  0  0  0  0
  160.9800  206.2690  146.3550 C   0  0  0  0  0  2  0  0  0  0  0  0
  160.5090  204.1400  151.7030 N   0  0  0  0  0  1  0  0  0  0  0  0
  160.5650  204.4190  150.2780 C   0  0  0  0  0  2  0  0  0  0  0  0
  161.1330  211.7610  155.8670 O   0  0  0  0  0  0  0  0  0  0  0  0
  160.8520  212.1370  157.1810 C   0  0  0  0  0  2  0  0  0  0  0  0
  160.4920  213.5800  157.2220 C   0  0  0  0  0  0  0  0  0  0  0  0
  161.3980  214.4530  157.2600 O   0  0  0  0  0  0  0  0  0  0  0  0
  159.1260  213.9720  157.2600 N   0  0  0  0  0  1  0  0  0  0  0  0
  2 20  1  0  0  0  0
  3 10  2  0  0  0  0
  4 17  2  0  0  0  0
  4  3  1  0  0  0  0
  5 21  1  6  0  0  0
  6 27  1  0  0  0  0
  6  5  1  0  0  0  0
  7 20  1  6  0  0  0
  7 16  1  0  0  0  0
  9 28  1  1  0  0  0
  9  1  1  0  0  0  0
 11  2  1  0  0  0  0
 11  8  1  0  0  0  0
 12 10  1  6  0  0  0
 12 11  1  0  0  0  0
 13 22  1  0  0  0  0
 14  1  1  0  0  0  0
 15  8  1  6  0  0  0
 15  7  1  0  0  0  0
 15  9  1  0  0  0  0
 16 14  1  0  0  0  0
 17 18  1  0  0  0  0
 18 13  2  0  0  0  0
 18 12  1  0  0  0  0
 19 23  1  0  0  0  0
 19 13  1  0  0  0  0
 22  5  1  0  0  0  0
 22  2  2  0  0  0  0
 23  6  2  0  0  0  0
 24 23  1  0  0  0  0
 25 24  2  0  0  0  0
 27 26  1  0  0  0  0
 28 29  1  0  0  0  0
 29 30  1  0  0  0  0
 30 31  2  0  0  0  0
 30 32  1  0  0  0  0
M  END
>  <MODEL>
1

>  <REMARK>
 VINA RESULT:      -5.9      0.000      0.000
  Name = 
  5 active torsions:
  status: ('A' for Active; 'I' for Inactive)
    1  A    between atoms: C_6  and  C_18
    2  A    between atoms: C_9  and  C_28
    3  A    between atoms: C_10  and  O_20
    4  A    between atoms: O_20  and  C_29
    5  A    between atoms: C_29  and  C_30
                            x       y       z     vdW  Elec       q    Type
                         _______ _______ _______ _____ _____    ______ ____

>  <TORSDO>
F 5

$$$$
=
 OpenBabel11122412553D

 32 36  0  0  1  0  0  0  0  0999 V2000
  160.3600  213.7210  147.3720 C   0  0  0  0  0  2  0  0  0  0  0  0
  161.3260  210.2780  151.1640 C   0  0  0  0  0  0  0  0  0  0  0  0
  161.2930  205.9910  148.8910 C   0  0  0  0  0  3  0  0  0  0  0  0
  161.5510  205.2890  150.1650 C   0  0  0  0  0  3  0  0  0  0  0  0
  161.2200  210.3700  153.6530 C   0  0  1  0  0  3  0  0  0  0  0  0
  160.3910  209.5780  154.6350 C   0  0  0  0  0  0  0  0  0  0  0  0
  161.4310  212.4050  149.8370 C   0  0  1  0  0  3  0  0  0  0  0  0
  161.5750  210.2350  148.6420 C   0  0  0  0  0  2  0  0  0  0  0  0
  161.0470  212.3440  147.3360 C   0  0  2  0  0  3  0  0  0  0  0  0
  161.4160  207.3190  148.7980 C   0  0  0  0  0  3  0  0  0  0  0  0
  161.4460  209.5300  149.9240 N   0  0  0  0  0  0  0  0  0  0  0  0
  161.9310  208.1420  149.9560 C   0  0  1  0  0  3  0  0  0  0  0  0
  161.5150  208.1650  152.4020 C   0  0  0  0  0  0  0  0  0  0  0  0
  159.9070  214.1520  148.7720 C   0  0  0  0  0  2  0  0  0  0  0  0
  160.8850  211.5900  148.6650 C   0  0  2  0  0  3  0  0  0  0  0  0
  160.9980  213.8780  149.8080 C   0  0  0  0  0  2  0  0  0  0  0  0
  161.7230  205.9730  151.3000 C   0  0  0  0  0  3  0  0  0  0  0  0
  161.6880  207.4510  151.2810 C   0  0  0  0  0  0  0  0  0  0  0  0
  161.4140  207.5000  153.7500 C   0  0  0  0  0  2  0  0  0  0  0  0
  160.9930  211.7510  151.1350 C   0  0  0  0  0  2  0  0  0  0  0  0
  162.5850  210.6810  154.2440 C   0  0  0  0  0  1  0  0  0  0  0  0
  161.3760  209.6360  152.3450 C   0  0  0  0  0  0  0  0  0  0  0  0
  160.4540  208.2190  154.6610 C   0  0  0  0  0  0  0  0  0  0  0  0
  159.6640  207.3380  155.5510 C   0  0  0  0  0  3  0  0  0  0  0  0
  160.0110  206.9670  156.7770 C   0  0  0  0  0  2  0  0  0  0  0  0
  158.5550  211.1420  154.7620 N   0  0  0  0  0  1  0  0  0  0  0  0
  159.5140  210.3800  155.5440 C   0  0  0  0  0  2  0  0  0  0  0  0
  162.4000  212.5090  147.0240 O   0  0  0  0  0  0  0  0  0  0  0  0
  162.4440  213.6300  146.1930 C   0  0  0  0  0  2  0  0  0  0  0  0
  162.6590  213.2010  144.7860 C   0  0  0  0  0  0  0  0  0  0  0  0
  163.8200  213.2040  144.2970 O   0  0  0  0  0  0  0  0  0  0  0  0
  161.5500  212.8270  143.9780 N   0  0  0  0  0  1  0  0  0  0  0  0
  1 14  1  0  0  0  0
  2 22  2  0  0  0  0
  3  4  1  0  0  0  0
  4 17  2  0  0  0  0
  5 21  1  1  0  0  0
  5  6  1  0  0  0  0
  6 23  2  0  0  0  0
  6 27  1  0  0  0  0
  7 16  1  1  0  0  0
  7 20  1  0  0  0  0
  8 11  1  0  0  0  0
  9 28  1  1  0  0  0
  9  1  1  0  0  0  0
  9 15  1  0  0  0  0
 10  3  2  0  0  0  0
 11 12  1  0  0  0  0
 11  2  1  0  0  0  0
 12 10  1  6  0  0  0
 12 18  1  0  0  0  0
 13 19  1  0  0  0  0
 14 16  1  0  0  0  0
 15  8  1  6  0  0  0
 15  7  1  0  0  0  0
 18 17  1  0  0  0  0
 18 13  2  0  0  0  0
 19 23  1  0  0  0  0
 20  2  1  0  0  0  0
 22 13  1  0  0  0  0
 22  5  1  0  0  0  0
 23 24  1  0  0  0  0
 24 25  2  0  0  0  0
 26 27  1  0  0  0  0
 29 28  1  0  0  0  0
 30 29  1  0  0  0  0
 31 30  2  0  0  0  0
 32 30  1  0  0  0  0
M  END
>  <MODEL>
2

>  <REMARK>
 VINA RESULT:      -5.7      3.387      7.447
  Name = 
  5 active torsions:
  status: ('A' for Active; 'I' for Inactive)
    1  A    between atoms: C_6  and  C_18
    2  A    between atoms: C_9  and  C_28
    3  A    between atoms: C_10  and  O_20
    4  A    between atoms: O_20  and  C_29
    5  A    between atoms: C_29  and  C_30
                            x       y       z     vdW  Elec       q    Type
                         _______ _______ _______ _____ _____    ______ ____

>  <TORSDO>
F 5

$$$$
=
 OpenBabel11122412553D

 32 36  0  0  1  0  0  0  0  0999 V2000
  161.9330  201.9370  150.2670 C   0  0  0  0  0  2  0  0  0  0  0  0
  161.0080  206.6220  152.3540 C   0  0  0  0  0  0  0  0  0  0  0  0
  162.3440  209.7370  148.8820 C   0  0  0  0  0  3  0  0  0  0  0  0
  162.0030  210.8830  149.7490 C   0  0  0  0  0  3  0  0  0  0  0  0
  160.6270  207.4350  154.6800 C   0  0  1  0  0  3  0  0  0  0  0  0
  161.4040  208.4200  155.5200 C   0  0  0  0  0  0  0  0  0  0  0  0
  160.7160  204.1880  151.8170 C   0  0  1  0  0  3  0  0  0  0  0  0
  161.2470  205.7690  149.9790 C   0  0  0  0  0  2  0  0  0  0  0  0
  161.5640  203.2800  149.6120 C   0  0  2  0  0  3  0  0  0  0  0  0
  161.9710  208.4940  149.2030 C   0  0  0  0  0  3  0  0  0  0  0  0
  161.2770  206.8730  150.9480 N   0  0  0  0  0  0  0  0  0  0  0  0
  161.0910  208.2250  150.4020 C   0  0  1  0  0  3  0  0  0  0  0  0
  161.0300  209.0470  152.7420 C   0  0  0  0  0  0  0  0  0  0  0  0
  162.0200  201.9950  151.7960 C   0  0  0  0  0  2  0  0  0  0  0  0
  161.6270  204.4410  150.6150 C   0  0  2  0  0  3  0  0  0  0  0  0
  160.8340  202.7640  152.3810 C   0  0  0  0  0  2  0  0  0  0  0  0
  161.4860  210.6900  150.9660 C   0  0  0  0  0  3  0  0  0  0  0  0
  161.2190  209.3170  151.4430 C   0  0  0  0  0  0  0  0  0  0  0  0
  161.0130  210.1410  153.7770 C   0  0  0  0  0  2  0  0  0  0  0  0
  161.0300  205.2110  152.8940 C   0  0  0  0  0  2  0  0  0  0  0  0
  159.1420  207.5380  154.9840 C   0  0  0  0  0  1  0  0  0  0  0  0
  160.8710  207.6530  153.2080 C   0  0  0  0  0  0  0  0  0  0  0  0
  161.6180  209.6900  155.0810 C   0  0  0  0  0  0  0  0  0  0  0  0
  162.3920  210.7290  155.7980 C   0  0  0  0  0  3  0  0  0  0  0  0
  161.9630  211.4320  156.8390 C   0  0  0  0  0  2  0  0  0  0  0  0
  161.1070  206.7730  157.2610 N   0  0  0  0  0  1  0  0  0  0  0  0
  161.9120  207.9030  156.8280 C   0  0  0  0  0  2  0  0  0  0  0  0
  160.2880  203.1840  149.0470 O   0  0  0  0  0  0  0  0  0  0  0  0
  160.3450  202.0650  148.2150 C   0  0  0  0  0  2  0  0  0  0  0  0
  160.8200  202.4700  146.8650 C   0  0  0  0  0  0  0  0  0  0  0  0
  161.5130  203.5120  146.7290 O   0  0  0  0  0  0  0  0  0  0  0  0
  160.4570  201.7050  145.7230 N   0  0  0  0  0  1  0  0  0  0  0  0
  1 14  1  0  0  0  0
  2 20  1  0  0  0  0
  2 22  2  0  0  0  0
  3 10  2  0  0  0  0
  3  4  1  0  0  0  0
  4 17  2  0  0  0  0
  5 21  1  6  0  0  0
  5  6  1  0  0  0  0
  6 27  1  0  0  0  0
  7 16  1  1  0  0  0
  7 20  1  0  0  0  0
  8 11  1  0  0  0  0
  9 28  1  1  0  0  0
  9  1  1  0  0  0  0
  9 15  1  0  0  0  0
 11  2  1  0  0  0  0
 12 10  1  6  0  0  0
 12 11  1  0  0  0  0
 12 18  1  0  0  0  0
 13 22  1  0  0  0  0
 13 19  1  0  0  0  0
 14 16  1  0  0  0  0
 15  8  1  6  0  0  0
 15  7  1  0  0  0  0
 17 18  1  0  0  0  0
 18 13  2  0  0  0  0
 19 23  1  0  0  0  0
 22  5  1  0  0  0  0
 23  6  2  0  0  0  0
 23 24  1  0  0  0  0
 24 25  2  0  0  0  0
 27 26  1  0  0  0  0
 29 28  1  0  0  0  0
 30 29  1  0  0  0  0
 31 30  2  0  0  0  0
 32 30  1  0  0  0  0
M  END
>  <MODEL>
3

>  <REMARK>
 VINA RESULT:      -5.4      3.829      8.097
  Name = 
  5 active torsions:
  status: ('A' for Active; 'I' for Inactive)
    1  A    between atoms: C_6  and  C_18
    2  A    between atoms: C_9  and  C_28
    3  A    between atoms: C_10  and  O_20
    4  A    between atoms: O_20  and  C_29
    5  A    between atoms: C_29  and  C_30
                            x       y       z     vdW  Elec       q    Type
                         _______ _______ _______ _____ _____    ______ ____

>  <TORSDO>
F 5

$$$$
=
 OpenBabel11122412553D

 32 36  0  0  1  0  0  0  0  0999 V2000
  161.1370  205.9520  152.4750 C   0  0  0  0  0  2  0  0  0  0  0  0
  161.0070  210.7980  150.5610 C   0  0  0  0  0  0  0  0  0  0  0  0
  157.9840  213.1540  153.5370 C   0  0  0  0  0  3  0  0  0  0  0  0
  158.1420  214.3940  152.7510 C   0  0  0  0  0  3  0  0  0  0  0  0
  161.6480  211.8120  148.3760 C   0  0  1  0  0  3  0  0  0  0  0  0
  160.8220  212.5510  147.3520 C   0  0  0  0  0  0  0  0  0  0  0  0
  161.9130  208.5500  151.2090 C   0  0  1  0  0  3  0  0  0  0  0  0
  160.4970  209.7860  152.8290 C   0  0  0  0  0  2  0  0  0  0  0  0
  160.9010  207.3060  153.1680 C   0  0  2  0  0  3  0  0  0  0  0  0
  158.7940  212.1070  153.3450 C   0  0  0  0  0  3  0  0  0  0  0  0
  160.3510  210.8770  151.8550 N   0  0  0  0  0  0  0  0  0  0  0  0
  159.9690  212.1880  152.3980 C   0  0  1  0  0  3  0  0  0  0  0  0
  160.3160  213.1140  150.1220 C   0  0  0  0  0  0  0  0  0  0  0  0
  161.3980  206.0630  150.9690 C   0  0  0  0  0  2  0  0  0  0  0  0
  160.7140  208.4430  152.1520 C   0  0  2  0  0  3  0  0  0  0  0  0
  162.3840  207.1920  150.6670 C   0  0  0  0  0  2  0  0  0  0  0  0
  158.9640  214.4360  151.6980 C   0  0  0  0  0  3  0  0  0  0  0  0
  159.7530  213.2410  151.3320 C   0  0  0  0  0  0  0  0  0  0  0  0
  160.2310  214.2120  149.0960 C   0  0  0  0  0  2  0  0  0  0  0  0
  161.5560  209.4810  150.0650 C   0  0  0  0  0  2  0  0  0  0  0  0
  163.0540  212.3870  148.4350 C   0  0  0  0  0  1  0  0  0  0  0  0
  161.0090  211.8640  149.7410 C   0  0  0  0  0  0  0  0  0  0  0  0
  160.1230  213.6670  147.6960 C   0  0  0  0  0  0  0  0  0  0  0  0
  159.2530  214.4510  146.7900 C   0  0  0  0  0  3  0  0  0  0  0  0
  157.9370  214.3180  146.6760 C   0  0  0  0  0  2  0  0  0  0  0  0
  161.2960  212.9650  145.0200 N   0  0  0  0  0  1  0  0  0  0  0  0
  160.8240  211.9730  145.9720 C   0  0  0  0  0  2  0  0  0  0  0  0
  161.9720  207.5810  154.0240 O   0  0  0  0  0  0  0  0  0  0  0  0
  161.5270  207.2020  155.2920 C   0  0  0  0  0  2  0  0  0  0  0  0
  160.9710  208.3860  156.0000 C   0  0  0  0  0  0  0  0  0  0  0  0
  159.7350  208.6200  155.9590 O   0  0  0  0  0  0  0  0  0  0  0  0
  161.8400  209.2770  156.6880 N   0  0  0  0  0  1  0  0  0  0  0  0
  1  9  1  0  0  0  0
  2 11  1  0  0  0  0
  4  3  1  0  0  0  0
  5 21  1  1  0  0  0
  5 22  1  0  0  0  0
  6 23  2  0  0  0  0
  6  5  1  0  0  0  0
  7 20  1  6  0  0  0
  7 15  1  0  0  0  0
  9 28  1  1  0  0  0
 10  3  2  0  0  0  0
 11 12  1  0  0  0  0
 11  8  1  0  0  0  0
 12 10  1  6  0  0  0
 13 18  2  0  0  0  0
 14  1  1  0  0  0  0
 15  8  1  1  0  0  0
 15  9  1  0  0  0  0
 16 14  1  0  0  0  0
 16  7  1  0  0  0  0
 17  4  2  0  0  0  0
 18 17  1  0  0  0  0
 18 12  1  0  0  0  0
 19 13  1  0  0  0  0
 20  2  1  0  0  0  0
 22 13  1  0  0  0  0
 22  2  2  0  0  0  0
 23 19  1  0  0  0  0
 24 23  1  0  0  0  0
 25 24  2  0  0  0  0
 26 27  1  0  0  0  0
 27  6  1  0  0  0  0
 28 29  1  0  0  0  0
 29 30  1  0  0  0  0
 30 32  1  0  0  0  0
 31 30  2  0  0  0  0
M  END
>  <MODEL>
4

>  <REMARK>
 VINA RESULT:      -4.7      2.777      5.947
  Name = 
  5 active torsions:
  status: ('A' for Active; 'I' for Inactive)
    1  A    between atoms: C_6  and  C_18
    2  A    between atoms: C_9  and  C_28
    3  A    between atoms: C_10  and  O_20
    4  A    between atoms: O_20  and  C_29
    5  A    between atoms: C_29  and  C_30
                            x       y       z     vdW  Elec       q    Type
                         _______ _______ _______ _____ _____    ______ ____

>  <TORSDO>
F 5

$$$$
=
 OpenBabel11122412553D

 32 36  0  0  1  0  0  0  0  0999 V2000
  161.0530  204.0720  148.7280 C   0  0  0  0  0  2  0  0  0  0  0  0
  161.5420  209.1710  149.6860 C   0  0  0  0  0  0  0  0  0  0  0  0
  159.5520  209.7370  154.0760 C   0  0  0  0  0  3  0  0  0  0  0  0
  159.8130  211.1890  154.0310 C   0  0  0  0  0  3  0  0  0  0  0  0
  162.0000  211.1640  148.2590 C   0  0  1  0  0  3  0  0  0  0  0  0
  161.1750  212.4000  147.9970 C   0  0  0  0  0  0  0  0  0  0  0  0
  162.0950  206.8750  148.8410 C   0  0  1  0  0  3  0  0  0  0  0  0
  161.2250  207.1280  151.1510 C   0  0  0  0  0  2  0  0  0  0  0  0
  161.1970  204.8420  150.0530 C   0  0  2  0  0  3  0  0  0  0  0  0
  160.1040  208.9090  153.1820 C   0  0  0  0  0  3  0  0  0  0  0  0
  161.1330  208.5800  150.9480 N   0  0  0  0  0  0  0  0  0  0  0  0
  161.1030  209.4070  152.1630 C   0  0  1  0  0  3  0  0  0  0  0  0
  161.2450  211.3950  150.6860 C   0  0  0  0  0  0  0  0  0  0  0  0
  161.0810  204.9670  147.4840 C   0  0  0  0  0  2  0  0  0  0  0  0
  161.0680  206.3590  149.8490 C   0  0  2  0  0  3  0  0  0  0  0  0
  162.2030  206.0030  147.5810 C   0  0  0  0  0  2  0  0  0  0  0  0
  160.4460  211.7390  152.9900 C   0  0  0  0  0  3  0  0  0  0  0  0
  160.9210  210.8830  151.8820 C   0  0  0  0  0  0  0  0  0  0  0  0
  161.2050  212.8790  150.4300 C   0  0  0  0  0  2  0  0  0  0  0  0
  161.7410  208.3020  148.4660 C   0  0  0  0  0  2  0  0  0  0  0  0
  163.4800  211.5090  148.2660 C   0  0  0  0  0  1  0  0  0  0  0  0
  161.6140  210.5090  149.5620 C   0  0  0  0  0  0  0  0  0  0  0  0
  160.7680  213.1950  149.0240 C   0  0  0  0  0  0  0  0  0  0  0  0
  159.9280  214.4070  148.8930 C   0  0  0  0  0  3  0  0  0  0  0  0
  158.6050  214.4460  149.0000 C   0  0  0  0  0  2  0  0  0  0  0  0
  159.5140  212.1630  146.2600 N   0  0  0  0  0  1  0  0  0  0  0  0
  160.8410  212.6700  146.5630 C   0  0  0  0  0  2  0  0  0  0  0  0
  162.4260  204.5260  150.6410 O   0  0  0  0  0  0  0  0  0  0  0  0
  162.1840  203.3690  151.3830 C   0  0  0  0  0  2  0  0  0  0  0  0
  161.1180  203.6330  152.3860 C   0  0  0  0  0  0  0  0  0  0  0  0
  160.1290  202.8590  152.4710 O   0  0  0  0  0  0  0  0  0  0  0  0
  161.1950  204.7820  153.2210 N   0  0  0  0  0  1  0  0  0  0  0  0
  1  9  1  0  0  0  0
  2 11  1  0  0  0  0
  4  3  1  0  0  0  0
  5 21  1  1  0  0  0
  5 22  1  0  0  0  0
  6  5  1  0  0  0  0
  6 23  2  0  0  0  0
  7 16  1  6  0  0  0
  7 15  1  0  0  0  0
  9 28  1  6  0  0  0
 10  3  2  0  0  0  0
 11  8  1  0  0  0  0
 11 12  1  0  0  0  0
 12 10  1  1  0  0  0
 13 18  2  0  0  0  0
 14 16  1  0  0  0  0
 14  1  1  0  0  0  0
 15  9  1  0  0  0  0
 15  8  1  1  0  0  0
 17  4  2  0  0  0  0
 18 12  1  0  0  0  0
 18 17  1  0  0  0  0
 19 13  1  0  0  0  0
 20  7  1  0  0  0  0
 20  2  1  0  0  0  0
 22  2  2  0  0  0  0
 22 13  1  0  0  0  0
 23 19  1  0  0  0  0
 24 25  2  0  0  0  0
 24 23  1  0  0  0  0
 26 27  1  0  0  0  0
 27  6  1  0  0  0  0
 28 29  1  0  0  0  0
 29 30  1  0  0  0  0
 30 31  2  0  0  0  0
 30 32  1  0  0  0  0
M  END
>  <MODEL>
5

>  <REMARK>
 VINA RESULT:      -3.7      3.421      7.410
  Name = 
  5 active torsions:
  status: ('A' for Active; 'I' for Inactive)
    1  A    between atoms: C_6  and  C_18
    2  A    between atoms: C_9  and  C_28
    3  A    between atoms: C_10  and  O_20
    4  A    between atoms: O_20  and  C_29
    5  A    between atoms: C_29  and  C_30
                            x       y       z     vdW  Elec       q    Type
                         _______ _______ _______ _____ _____    ______ ____

>  <TORSDO>
F 5

$$$$
=
 OpenBabel11122412553D

 32 36  0  0  1  0  0  0  0  0999 V2000
  159.6070  202.8230  144.5300 C   0  0  0  0  0  2  0  0  0  0  0  0
  161.5610  205.8410  148.3030 C   0  0  0  0  0  0  0  0  0  0  0  0
  160.4100  203.4980  152.3930 C   0  0  0  0  0  3  0  0  0  0  0  0
  161.0400  204.5590  153.2040 C   0  0  0  0  0  3  0  0  0  0  0  0
  162.3350  208.2090  148.3980 C   0  0  1  0  0  3  0  0  0  0  0  0
  161.8410  209.3760  149.2180 C   0  0  0  0  0  0  0  0  0  0  0  0
  161.3630  204.6790  146.0880 C   0  0  1  0  0  3  0  0  0  0  0  0
  160.9140  203.3940  148.1640 C   0  0  0  0  0  2  0  0  0  0  0  0
  160.1290  202.4740  145.9350 C   0  0  2  0  0  3  0  0  0  0  0  0
  160.5950  203.4390  151.0700 C   0  0  0  0  0  3  0  0  0  0  0  0
  161.1850  204.6000  148.9580 N   0  0  0  0  0  0  0  0  0  0  0  0
  161.5420  204.3850  150.3680 C   0  0  1  0  0  3  0  0  0  0  0  0
  162.0060  206.8180  150.5130 C   0  0  0  0  0  0  0  0  0  0  0  0
  159.7030  204.3140  144.1850 C   0  0  0  0  0  2  0  0  0  0  0  0
  160.3820  203.7320  146.7800 C   0  0  2  0  0  3  0  0  0  0  0  0
  161.0620  204.8830  144.5960 C   0  0  0  0  0  2  0  0  0  0  0  0
  161.6480  205.5960  152.6200 C   0  0  0  0  0  3  0  0  0  0  0  0
  161.7230  205.6710  151.1460 C   0  0  0  0  0  0  0  0  0  0  0  0
  162.3280  208.0770  151.2730 C   0  0  0  0  0  2  0  0  0  0  0  0
  161.3540  206.0110  146.8160 C   0  0  0  0  0  2  0  0  0  0  0  0
  163.8400  208.2970  148.2070 C   0  0  0  0  0  1  0  0  0  0  0  0
  161.9700  206.8920  149.0360 C   0  0  0  0  0  0  0  0  0  0  0  0
  161.8040  209.3040  150.5770 C   0  0  0  0  0  0  0  0  0  0  0  0
  161.3070  210.3670  151.4810 C   0  0  0  0  0  3  0  0  0  0  0  0
  160.5730  210.1740  152.5690 C   0  0  0  0  0  2  0  0  0  0  0  0
  162.4580  211.5730  148.4290 N   0  0  0  0  0  1  0  0  0  0  0  0
  161.4000  210.5770  148.4430 C   0  0  0  0  0  2  0  0  0  0  0  0
  161.2980  201.7140  145.8190 O   0  0  0  0  0  0  0  0  0  0  0  0
  160.8960  200.5250  145.2080 C   0  0  0  0  0  2  0  0  0  0  0  0
  161.3120  199.3680  146.0450 C   0  0  0  0  0  0  0  0  0  0  0  0
  161.6350  199.5470  147.2480 O   0  0  0  0  0  0  0  0  0  0  0  0
  161.3870  198.0670  145.4750 N   0  0  0  0  0  1  0  0  0  0  0  0
  1  9  1  0  0  0  0
  2 11  1  0  0  0  0
  2 22  2  0  0  0  0
  3  4  1  0  0  0  0
  5 21  1  1  0  0  0
  5 22  1  0  0  0  0
  5  6  1  0  0  0  0
  6 23  2  0  0  0  0
  7 16  1  6  0  0  0
  7 15  1  0  0  0  0
  7 20  1  0  0  0  0
  8 11  1  0  0  0  0
  9 28  1  6  0  0  0
  9 15  1  0  0  0  0
 10  3  2  0  0  0  0
 11 12  1  0  0  0  0
 12 10  1  1  0  0  0
 12 18  1  0  0  0  0
 13 18  2  0  0  0  0
 13 19  1  0  0  0  0
 14  1  1  0  0  0  0
 14 16  1  0  0  0  0
 15  8  1  1  0  0  0
 17  4  2  0  0  0  0
 18 17  1  0  0  0  0
 20  2  1  0  0  0  0
 22 13  1  0  0  0  0
 23 19  1  0  0  0  0
 23 24  1  0  0  0  0
 24 25  2  0  0  0  0
 26 27  1  0  0  0  0
 27  6  1  0  0  0  0
 29 28  1  0  0  0  0
 29 30  1  0  0  0  0
 30 31  2  0  0  0  0
 32 30  1  0  0  0  0
M  END
>  <MODEL>
6

>  <REMARK>
 VINA RESULT:      -3.6      4.898     10.022
  Name = 
  5 active torsions:
  status: ('A' for Active; 'I' for Inactive)
    1  A    between atoms: C_6  and  C_18
    2  A    between atoms: C_9  and  C_28
    3  A    between atoms: C_10  and  O_20
    4  A    between atoms: O_20  and  C_29
    5  A    between atoms: C_29  and  C_30
                            x       y       z     vdW  Elec       q    Type
                         _______ _______ _______ _____ _____    ______ ____

>  <TORSDO>
F 5

$$$$
=
 OpenBabel11122412553D

 32 36  0  0  1  0  0  0  0  0999 V2000
  159.6380  208.6800  155.9210 C   0  0  0  0  0  2  0  0  0  0  0  0
  161.3120  205.8380  151.8850 C   0  0  0  0  0  0  0  0  0  0  0  0
  161.6980  209.0490  148.2680 C   0  0  0  0  0  3  0  0  0  0  0  0
  162.1350  207.9860  147.3420 C   0  0  0  0  0  3  0  0  0  0  0  0
  161.3660  203.3940  151.3940 C   0  0  1  0  0  3  0  0  0  0  0  0
  160.7200  202.5960  150.2880 C   0  0  0  0  0  0  0  0  0  0  0  0
  161.0410  206.6320  154.2500 C   0  0  1  0  0  3  0  0  0  0  0  0
  161.3920  208.3070  152.4530 C   0  0  0  0  0  2  0  0  0  0  0  0
  160.4990  209.0620  154.7030 C   0  0  2  0  0  3  0  0  0  0  0  0
  161.6360  208.8330  149.5860 C   0  0  0  0  0  3  0  0  0  0  0  0
  161.4470  207.2220  151.4640 N   0  0  0  0  0  0  0  0  0  0  0  0
  162.1140  207.5330  150.1910 C   0  0  1  0  0  3  0  0  0  0  0  0
  161.8670  205.1360  149.5980 C   0  0  0  0  0  0  0  0  0  0  0  0
  159.2280  207.2030  155.9510 C   0  0  0  0  0  2  0  0  0  0  0  0
  160.5310  207.9420  153.6520 C   0  0  2  0  0  3  0  0  0  0  0  0
  160.4140  206.2990  155.6120 C   0  0  0  0  0  2  0  0  0  0  0  0
  162.2910  206.7290  147.7680 C   0  0  0  0  0  3  0  0  0  0  0  0
  162.0570  206.3990  149.1890 C   0  0  0  0  0  0  0  0  0  0  0  0
  161.9480  203.9800  148.6370 C   0  0  0  0  0  2  0  0  0  0  0  0
  160.7840  205.5080  153.2620 C   0  0  0  0  0  2  0  0  0  0  0  0
  162.7140  202.7950  151.7580 C   0  0  0  0  0  1  0  0  0  0  0  0
  161.5290  204.8420  151.0070 C   0  0  0  0  0  0  0  0  0  0  0  0
  160.9660  202.8920  148.9830 C   0  0  0  0  0  0  0  0  0  0  0  0
  160.3630  202.2060  147.8160 C   0  0  0  0  0  3  0  0  0  0  0  0
  160.5490  200.9340  147.4880 C   0  0  0  0  0  2  0  0  0  0  0  0
  160.4570  200.2080  150.5340 N   0  0  0  0  0  1  0  0  0  0  0  0
  159.8080  201.4940  150.7260 C   0  0  0  0  0  2  0  0  0  0  0  0
  161.7930  209.3750  155.1300 O   0  0  0  0  0  0  0  0  0  0  0  0
  161.6810  209.5710  156.5080 C   0  0  0  0  0  2  0  0  0  0  0  0
  162.2850  210.8780  156.8770 C   0  0  0  0  0  0  0  0  0  0  0  0
  161.5650  211.9090  156.9390 O   0  0  0  0  0  0  0  0  0  0  0  0
  163.6830  210.9730  157.1200 N   0  0  0  0  0  1  0  0  0  0  0  0
  1 14  1  0  0  0  0
  2 20  1  0  0  0  0
  3 10  2  0  0  0  0
  4 17  2  0  0  0  0
  4  3  1  0  0  0  0
  5 21  1  6  0  0  0
  6 27  1  0  0  0  0
  6  5  1  0  0  0  0
  7 20  1  6  0  0  0
  7 16  1  0  0  0  0
  9 28  1  1  0  0  0
  9  1  1  0  0  0  0
 11  2  1  0  0  0  0
 11  8  1  0  0  0  0
 12 10  1  6  0  0  0
 12 11  1  0  0  0  0
 13 22  1  0  0  0  0
 15  8  1  6  0  0  0
 15  7  1  0  0  0  0
 15  9  1  0  0  0  0
 16 14  1  0  0  0  0
 17 18  1  0  0  0  0
 18 13  2  0  0  0  0
 18 12  1  0  0  0  0
 19 23  1  0  0  0  0
 19 13  1  0  0  0  0
 22  5  1  0  0  0  0
 22  2  2  0  0  0  0
 23  6  2  0  0  0  0
 24 23  1  0  0  0  0
 25 24  2  0  0  0  0
 26 27  1  0  0  0  0
 28 29  1  0  0  0  0
 29 30  1  0  0  0  0
 30 31  2  0  0  0  0
 30 32  1  0  0  0  0
M  END
>  <MODEL>
7

>  <REMARK>
 VINA RESULT:      -3.5      2.263      3.269
  Name = 
  5 active torsions:
  status: ('A' for Active; 'I' for Inactive)
    1  A    between atoms: C_6  and  C_18
    2  A    between atoms: C_9  and  C_28
    3  A    between atoms: C_10  and  O_20
    4  A    between atoms: O_20  and  C_29
    5  A    between atoms: C_29  and  C_30
                            x       y       z     vdW  Elec       q    Type
                         _______ _______ _______ _____ _____    ______ ____

>  <TORSDO>
F 5

$$$$
=
 OpenBabel11122412553D

 32 36  0  0  1  0  0  0  0  0999 V2000
  162.8050  212.5610  149.0300 C   0  0  0  0  0  2  0  0  0  0  0  0
  161.2440  207.5900  148.9500 C   0  0  0  0  0  0  0  0  0  0  0  0
  161.6230  206.1660  153.5740 C   0  0  0  0  0  3  0  0  0  0  0  0
  161.1650  204.8090  153.2160 C   0  0  0  0  0  3  0  0  0  0  0  0
  160.9560  205.8950  147.1440 C   0  0  1  0  0  3  0  0  0  0  0  0
  161.6170  204.5550  146.9340 C   0  0  0  0  0  0  0  0  0  0  0  0
  161.3550  210.0280  148.3710 C   0  0  1  0  0  3  0  0  0  0  0  0
  161.3960  209.3580  150.7600 C   0  0  0  0  0  2  0  0  0  0  0  0
  162.1290  211.6960  150.1090 C   0  0  2  0  0  3  0  0  0  0  0  0
  161.5200  207.1800  152.7070 C   0  0  0  0  0  3  0  0  0  0  0  0
  161.3190  207.9470  150.3560 N   0  0  0  0  0  0  0  0  0  0  0  0
  160.8310  207.0040  151.3730 C   0  0  1  0  0  3  0  0  0  0  0  0
  160.8550  205.2560  149.6130 C   0  0  0  0  0  0  0  0  0  0  0  0
  163.0330  211.8300  147.7020 C   0  0  0  0  0  2  0  0  0  0  0  0
  162.0770  210.2160  149.7050 C   0  0  2  0  0  3  0  0  0  0  0  0
  161.7910  211.0350  147.2960 C   0  0  0  0  0  2  0  0  0  0  0  0
  160.8180  204.5130  151.9600 C   0  0  0  0  0  3  0  0  0  0  0  0
  160.8590  205.5610  150.9180 C   0  0  0  0  0  0  0  0  0  0  0  0
  160.7410  203.8320  149.1390 C   0  0  0  0  0  2  0  0  0  0  0  0
  161.5810  208.6080  147.8860 C   0  0  0  0  0  2  0  0  0  0  0  0
  159.5150  205.8550  146.6610 C   0  0  0  0  0  1  0  0  0  0  0  0
  161.0050  206.3150  148.5910 C   0  0  0  0  0  0  0  0  0  0  0  0
  161.5470  203.5890  147.8900 C   0  0  0  0  0  0  0  0  0  0  0  0
  162.1840  202.2540  147.8120 C   0  0  0  0  0  3  0  0  0  0  0  0
  161.5810  201.0950  148.0480 C   0  0  0  0  0  2  0  0  0  0  0  0
  162.6960  205.6790  145.0890 N   0  0  0  0  0  1  0  0  0  0  0  0
  162.3410  204.3810  145.6370 C   0  0  0  0  0  2  0  0  0  0  0  0
  160.8430  212.1870  150.3570 O   0  0  0  0  0  0  0  0  0  0  0  0
  160.8170  213.4490  149.7610 C   0  0  0  0  0  2  0  0  0  0  0  0
  159.4680  213.7030  149.1880 C   0  0  0  0  0  0  0  0  0  0  0  0
  159.2420  213.4500  147.9760 O   0  0  0  0  0  0  0  0  0  0  0  0
  158.4460  214.2710  149.9980 N   0  0  0  0  0  1  0  0  0  0  0  0
  1  9  1  0  0  0  0
  2 11  1  0  0  0  0
  4  3  1  0  0  0  0
  5 21  1  1  0  0  0
  5 22  1  0  0  0  0
  6  5  1  0  0  0  0
  6 23  2  0  0  0  0
  7 16  1  6  0  0  0
  7 15  1  0  0  0  0
  9 28  1  6  0  0  0
 10  3  2  0  0  0  0
 11  8  1  0  0  0  0
 11 12  1  0  0  0  0
 12 10  1  1  0  0  0
 13 18  2  0  0  0  0
 14  1  1  0  0  0  0
 15  9  1  0  0  0  0
 15  8  1  1  0  0  0
 16 14  1  0  0  0  0
 17  4  2  0  0  0  0
 18 12  1  0  0  0  0
 18 17  1  0  0  0  0
 19 13  1  0  0  0  0
 20  7  1  0  0  0  0
 20  2  1  0  0  0  0
 22  2  2  0  0  0  0
 22 13  1  0  0  0  0
 23 19  1  0  0  0  0
 24 23  1  0  0  0  0
 24 25  2  0  0  0  0
 26 27  1  0  0  0  0
 27  6  1  0  0  0  0
 29 28  1  0  0  0  0
 30 29  1  0  0  0  0
 30 32  1  0  0  0  0
 31 30  2  0  0  0  0
M  END
>  <MODEL>
8

>  <REMARK>
 VINA RESULT:      -3.4      3.579      6.089
  Name = 
  5 active torsions:
  status: ('A' for Active; 'I' for Inactive)
    1  A    between atoms: C_6  and  C_18
    2  A    between atoms: C_9  and  C_28
    3  A    between atoms: C_10  and  O_20
    4  A    between atoms: O_20  and  C_29
    5  A    between atoms: C_29  and  C_30
                            x       y       z     vdW  Elec       q    Type
                         _______ _______ _______ _____ _____    ______ ____

>  <TORSDO>
F 5

$$$$
=
 OpenBabel11122412553D

 32 36  0  0  1  0  0  0  0  0999 V2000
  160.5120  203.6720  146.4860 C   0  0  0  0  0  2  0  0  0  0  0  0
  161.6830  208.1090  148.9570 C   0  0  0  0  0  0  0  0  0  0  0  0
  160.5270  207.2150  153.5840 C   0  0  0  0  0  3  0  0  0  0  0  0
  160.9270  208.5830  153.9710 C   0  0  0  0  0  3  0  0  0  0  0  0
  162.1020  210.4490  148.2060 C   0  0  1  0  0  3  0  0  0  0  0  0
  161.3770  211.7330  148.5300 C   0  0  0  0  0  0  0  0  0  0  0  0
  161.8450  206.2210  147.3130 C   0  0  1  0  0  3  0  0  0  0  0  0
  161.4050  205.7010  149.6990 C   0  0  0  0  0  2  0  0  0  0  0  0
  160.9550  203.9350  147.9370 C   0  0  2  0  0  3  0  0  0  0  0  0
  160.8320  206.7220  152.3790 C   0  0  0  0  0  3  0  0  0  0  0  0
  161.4320  207.1380  150.0080 N   0  0  0  0  0  0  0  0  0  0  0  0
  161.6920  207.4980  151.4090 C   0  0  1  0  0  3  0  0  0  0  0  0
  161.7920  209.8650  150.6710 C   0  0  0  0  0  0  0  0  0  0  0  0
  160.4250  204.9380  145.6250 C   0  0  0  0  0  2  0  0  0  0  0  0
  160.9530  205.4340  148.2720 C   0  0  2  0  0  3  0  0  0  0  0  0
  161.6490  205.8300  145.8400 C   0  0  0  0  0  2  0  0  0  0  0  0
  161.4300  209.4300  153.0680 C   0  0  0  0  0  3  0  0  0  0  0  0
  161.6210  208.9880  151.6700 C   0  0  0  0  0  0  0  0  0  0  0  0
  161.8650  211.3470  150.9310 C   0  0  0  0  0  2  0  0  0  0  0  0
  161.5840  207.7040  147.5050 C   0  0  0  0  0  2  0  0  0  0  0  0
  163.5900  210.7100  148.0410 C   0  0  0  0  0  1  0  0  0  0  0  0
  161.8730  209.4040  149.2690 C   0  0  0  0  0  0  0  0  0  0  0  0
  161.2340  212.1440  149.8200 C   0  0  0  0  0  0  0  0  0  0  0  0
  160.5140  213.3610  150.2600 C   0  0  0  0  0  3  0  0  0  0  0  0
  159.5990  213.4130  151.2200 C   0  0  0  0  0  2  0  0  0  0  0  0
  161.8110  213.4780  146.9170 N   0  0  0  0  0  1  0  0  0  0  0  0
  160.8390  212.4920  147.3590 C   0  0  0  0  0  2  0  0  0  0  0  0
  162.2260  203.3860  148.1390 O   0  0  0  0  0  0  0  0  0  0  0  0
  161.9950  202.0400  148.4320 C   0  0  0  0  0  2  0  0  0  0  0  0
  161.0410  201.9330  149.5670 C   0  0  0  0  0  0  0  0  0  0  0  0
  161.3740  202.3450  150.7090 O   0  0  0  0  0  0  0  0  0  0  0  0
  159.7700  201.3260  149.3740 N   0  0  0  0  0  1  0  0  0  0  0  0
  1  9  1  0  0  0  0
  2 22  2  0  0  0  0
  2 11  1  0  0  0  0
  3  4  1  0  0  0  0
  5 21  1  1  0  0  0
  5  6  1  0  0  0  0
  5 22  1  0  0  0  0
  6 23  2  0  0  0  0
  7 16  1  6  0  0  0
  7 20  1  0  0  0  0
  7 15  1  0  0  0  0
  8 11  1  0  0  0  0
  9 28  1  6  0  0  0
  9 15  1  0  0  0  0
 10  3  2  0  0  0  0
 11 12  1  0  0  0  0
 12 18  1  0  0  0  0
 12 10  1  1  0  0  0
 13 19  1  0  0  0  0
 13 18  2  0  0  0  0
 14 16  1  0  0  0  0
 14  1  1  0  0  0  0
 15  8  1  1  0  0  0
 17  4  2  0  0  0  0
 18 17  1  0  0  0  0
 20  2  1  0  0  0  0
 22 13  1  0  0  0  0
 23 24  1  0  0  0  0
 23 19  1  0  0  0  0
 24 25  2  0  0  0  0
 26 27  1  0  0  0  0
 27  6  1  0  0  0  0
 28 29  1  0  0  0  0
 29 30  1  0  0  0  0
 30 31  2  0  0  0  0
 32 30  1  0  0  0  0
M  END
>  <MODEL>
9

>  <REMARK>
 VINA RESULT:      -3.4      4.160      8.480
  Name = 
  5 active torsions:
  status: ('A' for Active; 'I' for Inactive)
    1  A    between atoms: C_6  and  C_18
    2  A    between atoms: C_9  and  C_28
    3  A    between atoms: C_10  and  O_20
    4  A    between atoms: O_20  and  C_29
    5  A    between atoms: C_29  and  C_30
                            x       y       z     vdW  Elec       q    Type
                         _______ _______ _______ _____ _____    ______ ____

>  <TORSDO>
F 5

$$$$
