=
 OpenBabel11122413273D

 31 35  0  0  1  0  0  0  0  0999 V2000
  161.7960  208.2850  151.4700 C   0  0  0  0  0  0  0  0  0  0  0  0
  160.9820  211.0890  153.9080 C   0  0  2  0  0  3  0  0  0  0  0  0
  159.8140  211.8420  153.2540 C   0  0  2  0  0  3  0  0  0  0  0  0
  159.3770  213.1560  151.2050 C   0  0  0  0  0  0  0  0  0  0  0  0
  161.1290  209.6960  153.3330 C   0  0  0  0  0  0  0  0  0  0  0  0
  161.3290  207.1580  152.1480 C   0  0  0  0  0  3  0  0  0  0  0  0
  160.0180  212.1410  151.7930 C   0  0  0  0  0  3  0  0  0  0  0  0
  159.7440  210.0080  155.8810 C   0  0  1  0  0  3  0  0  0  0  0  0
  162.3410  208.1560  150.2370 F   0  0  0  0  0  0  0  0  0  0  0  0
  159.6780  213.2640  155.2570 N   0  0  0  0  0  0  0  0  0  0  0  0
  159.5200  213.3630  149.8750 F   0  0  0  0  0  0  0  0  0  0  0  0
  160.1720  208.6100  155.4420 C   0  0  0  0  0  2  0  0  0  0  0  0
  160.7950  211.0320  155.4340 C   0  0  2  0  0  3  0  0  0  0  0  0
  161.6960  209.5460  152.0600 C   0  0  0  0  0  3  0  0  0  0  0  0
  158.5710  214.0960  152.0110 C   0  0  0  0  0  3  0  0  0  0  0  0
  160.6600  208.5490  154.0200 C   0  0  0  0  0  0  0  0  0  0  0  0
  160.7730  207.2900  153.4220 C   0  0  0  0  0  3  0  0  0  0  0  0
  160.5750  212.4160  156.0460 C   0  0  0  0  0  2  0  0  0  0  0  0
  159.3990  213.0890  154.0000 C   0  0  0  0  0  0  0  0  0  0  0  0
  158.6010  214.0580  153.3110 N   0  0  0  0  0  0  0  0  0  0  0  0
  157.6660  211.4250  157.2590 O   0  0  0  0  0  0  0  0  0  0  0  0
  157.4130  210.9890  156.1040 C   0  0  0  0  0  0  0  0  0  0  0  0
  158.4250  210.3230  155.3460 N   0  0  0  0  0  2  0  0  0  0  0  0
  154.7160  213.4540  156.7620 C   0  0  0  0  0  0  0  0  0  0  0  0
  155.8660  212.4550  154.7990 C   0  0  0  0  0  2  0  0  0  0  0  0
  154.6640  209.8360  157.0320 O   0  0  0  0  0  0  0  0  0  0  0  0
  154.1390  214.4530  157.2610 O   0  0  0  0  0  0  0  0  0  0  0  0
  155.8000  213.6510  155.7490 C   0  0  0  0  0  2  0  0  0  0  0  0
  154.9840  210.9820  156.6230 C   0  0  0  0  0  0  0  0  0  0  0  0
  156.0290  211.1300  155.5520 C   0  0  2  0  0  3  0  0  0  0  0  0
  154.3710  212.1380  157.2010 N   0  0  0  0  0  2  0  0  0  0  0  0
  1 14  2  0  0  0  0
  1  6  1  0  0  0  0
  2  5  1  6  0  0  0
  2 13  1  0  0  0  0
  3  7  1  6  0  0  0
  3  2  1  0  0  0  0
  3 19  1  0  0  0  0
  4  7  2  0  0  0  0
  4 15  1  0  0  0  0
  5 16  2  0  0  0  0
  6 17  2  0  0  0  0
  8 23  1  6  0  0  0
  9  1  1  0  0  0  0
 10 18  1  0  0  0  0
 11  4  1  0  0  0  0
 12  8  1  0  0  0  0
 13  8  1  0  0  0  0
 13 18  1  6  0  0  0
 14  5  1  0  0  0  0
 15 20  2  0  0  0  0
 16 12  1  0  0  0  0
 17 16  1  0  0  0  0
 19 10  2  0  0  0  0
 20 19  1  0  0  0  0
 22 21  2  0  0  0  0
 23 22  1  0  0  0  0
 24 31  1  0  0  0  0
 24 27  2  0  0  0  0
 25 30  1  0  0  0  0
 25 28  1  0  0  0  0
 28 24  1  0  0  0  0
 29 26  2  0  0  0  0
 29 31  1  0  0  0  0
 30 22  1  1  0  0  0
 30 29  1  0  0  0  0
M  END
>  <MODEL>
1

>  <REMARK>
 VINA RESULT:      -5.5      0.000      0.000
  Name = 
  2 active torsions:
  status: ('A' for Active; 'I' for Inactive)
    1  A    between atoms: C_5  and  C_30
    2  A    between atoms: C_10  and  N_16
                            x       y       z     vdW  Elec       q    Type
                         _______ _______ _______ _____ _____    ______ ____

>  <TORSDO>
F 2

$$$$
=
 OpenBabel11122413273D

 31 35  0  0  1  0  0  0  0  0999 V2000
  160.1030  212.2370  143.8900 C   0  0  0  0  0  0  0  0  0  0  0  0
  161.2360  212.5400  140.2720 C   0  0  2  0  0  3  0  0  0  0  0  0
  160.9120  211.1740  139.6500 C   0  0  2  0  0  3  0  0  0  0  0  0
  161.5850  208.8100  139.9270 C   0  0  0  0  0  0  0  0  0  0  0  0
  160.4460  212.7670  141.5430 C   0  0  0  0  0  0  0  0  0  0  0  0
  158.9640  213.0430  143.9130 C   0  0  0  0  0  3  0  0  0  0  0  0
  161.3470  210.0000  140.4870 C   0  0  0  0  0  3  0  0  0  0  0  0
  159.4830  213.9830  139.0730 C   0  0  1  0  0  3  0  0  0  0  0  0
  160.4910  211.5820  145.0100 F   0  0  0  0  0  0  0  0  0  0  0  0
  161.6480  212.0480  137.4720 N   0  0  0  0  0  0  0  0  0  0  0  0
  161.9050  207.7500  140.7070 F   0  0  0  0  0  0  0  0  0  0  0  0
  158.8900  214.4460  140.4020 C   0  0  0  0  0  2  0  0  0  0  0  0
  160.9720  213.6660  139.2570 C   0  0  2  0  0  3  0  0  0  0  0  0
  160.8390  212.1000  142.7120 C   0  0  0  0  0  3  0  0  0  0  0  0
  161.5700  208.6600  138.4570 C   0  0  0  0  0  3  0  0  0  0  0  0
  159.2920  213.5880  141.5710 C   0  0  0  0  0  0  0  0  0  0  0  0
  158.5670  213.7230  142.7590 C   0  0  0  0  0  3  0  0  0  0  0  0
  161.7010  213.4380  137.9320 C   0  0  0  0  0  2  0  0  0  0  0  0
  161.3960  211.0210  138.2270 C   0  0  0  0  0  0  0  0  0  0  0  0
  161.4930  209.7010  137.6800 N   0  0  0  0  0  0  0  0  0  0  0  0
  157.4790  214.0390  137.0220 O   0  0  0  0  0  0  0  0  0  0  0  0
  157.7210  212.9340  137.5760 C   0  0  0  0  0  0  0  0  0  0  0  0
  158.7470  212.8310  138.5660 N   0  0  0  0  0  2  0  0  0  0  0  0
  154.8550  211.3100  139.2880 C   0  0  0  0  0  0  0  0  0  0  0  0
  155.4250  212.1270  137.0110 C   0  0  0  0  0  2  0  0  0  0  0  0
  158.0340  209.9010  138.2480 O   0  0  0  0  0  0  0  0  0  0  0  0
  153.9670  211.1150  140.1560 O   0  0  0  0  0  0  0  0  0  0  0  0
  154.7190  212.4510  138.3280 C   0  0  0  0  0  2  0  0  0  0  0  0
  157.0210  210.6490  138.2520 C   0  0  0  0  0  0  0  0  0  0  0  0
  156.8920  211.7390  137.2240 C   0  0  2  0  0  3  0  0  0  0  0  0
  156.0150  210.4750  139.2530 N   0  0  0  0  0  2  0  0  0  0  0  0
  1  6  1  0  0  0  0
  1  9  1  0  0  0  0
  2  5  1  1  0  0  0
  3  2  1  0  0  0  0
  3  7  1  1  0  0  0
  4  7  2  0  0  0  0
  4 11  1  0  0  0  0
  5 16  2  0  0  0  0
  5 14  1  0  0  0  0
  8 23  1  1  0  0  0
  8 13  1  0  0  0  0
  8 12  1  0  0  0  0
 10 18  1  0  0  0  0
 10 19  2  0  0  0  0
 12 16  1  0  0  0  0
 13 18  1  6  0  0  0
 13  2  1  0  0  0  0
 14  1  2  0  0  0  0
 15  4  1  0  0  0  0
 16 17  1  0  0  0  0
 17  6  2  0  0  0  0
 19  3  1  0  0  0  0
 20 19  1  0  0  0  0
 20 15  2  0  0  0  0
 21 22  2  0  0  0  0
 22 23  1  0  0  0  0
 24 27  2  0  0  0  0
 25 30  1  0  0  0  0
 25 28  1  0  0  0  0
 26 29  2  0  0  0  0
 28 24  1  0  0  0  0
 29 31  1  0  0  0  0
 30 22  1  1  0  0  0
 30 29  1  0  0  0  0
 31 24  1  0  0  0  0
M  END
>  <MODEL>
2

>  <REMARK>
 VINA RESULT:      -4.5     12.959     15.538
  Name = 
  2 active torsions:
  status: ('A' for Active; 'I' for Inactive)
    1  A    between atoms: C_5  and  C_30
    2  A    between atoms: C_10  and  N_16
                            x       y       z     vdW  Elec       q    Type
                         _______ _______ _______ _____ _____    ______ ____

>  <TORSDO>
F 2

$$$$
=
 OpenBabel11122413273D

 31 35  0  0  1  0  0  0  0  0999 V2000
  161.7710  206.3740  152.4020 C   0  0  0  0  0  0  0  0  0  0  0  0
  161.4190  209.6570  154.2890 C   0  0  2  0  0  3  0  0  0  0  0  0
  160.5350  210.5300  153.3840 C   0  0  2  0  0  3  0  0  0  0  0  0
  160.6290  211.5440  151.1310 C   0  0  0  0  0  0  0  0  0  0  0  0
  161.2820  208.1900  153.9410 C   0  0  0  0  0  0  0  0  0  0  0  0
  160.9830  205.5080  153.1630 C   0  0  0  0  0  3  0  0  0  0  0  0
  160.9470  210.5260  151.9360 C   0  0  0  0  0  3  0  0  0  0  0  0
  159.7700  209.2260  156.2100 C   0  0  1  0  0  3  0  0  0  0  0  0
  162.3870  205.9210  151.2840 F   0  0  0  0  0  0  0  0  0  0  0  0
  160.5490  212.2620  155.1300 N   0  0  0  0  0  0  0  0  0  0  0  0
  160.9470  211.4870  149.8160 F   0  0  0  0  0  0  0  0  0  0  0  0
  159.8920  207.7140  156.0340 C   0  0  0  0  0  2  0  0  0  0  0  0
  161.0750  209.9010  155.7690 C   0  0  2  0  0  3  0  0  0  0  0  0
  161.9190  207.7070  152.7900 C   0  0  0  0  0  3  0  0  0  0  0  0
  159.9970  212.7610  151.6800 C   0  0  0  0  0  3  0  0  0  0  0  0
  160.4880  207.3080  154.7130 C   0  0  0  0  0  0  0  0  0  0  0  0
  160.3530  205.9730  154.3190 C   0  0  0  0  0  3  0  0  0  0  0  0
  161.1350  211.3820  156.1440 C   0  0  0  0  0  2  0  0  0  0  0  0
  160.3610  211.9440  153.8840 C   0  0  0  0  0  0  0  0  0  0  0  0
  159.8900  212.9360  152.9650 N   0  0  0  0  0  0  0  0  0  0  0  0
  158.0170  211.3350  157.0460 O   0  0  0  0  0  0  0  0  0  0  0  0
  157.7570  210.7520  155.9600 C   0  0  0  0  0  0  0  0  0  0  0  0
  158.6250  209.7300  155.4630 N   0  0  0  0  0  2  0  0  0  0  0  0
  155.2490  213.4430  156.4560 C   0  0  0  0  0  0  0  0  0  0  0  0
  156.6040  212.5010  154.5980 C   0  0  0  0  0  2  0  0  0  0  0  0
  154.7910  209.8460  156.3170 O   0  0  0  0  0  0  0  0  0  0  0  0
  154.6990  214.4530  156.9650 O   0  0  0  0  0  0  0  0  0  0  0  0
  156.5000  213.6050  155.6520 C   0  0  0  0  0  2  0  0  0  0  0  0
  155.2870  210.9810  156.0910 C   0  0  0  0  0  0  0  0  0  0  0  0
  156.5060  211.1030  155.2180 C   0  0  2  0  0  3  0  0  0  0  0  0
  154.7060  212.1420  156.6900 N   0  0  0  0  0  2  0  0  0  0  0  0
  1 14  2  0  0  0  0
  1  6  1  0  0  0  0
  2  5  1  6  0  0  0
  2 13  1  0  0  0  0
  3  7  1  6  0  0  0
  3 19  1  0  0  0  0
  3  2  1  0  0  0  0
  4 15  1  0  0  0  0
  4  7  2  0  0  0  0
  5 16  2  0  0  0  0
  6 17  2  0  0  0  0
  8 23  1  6  0  0  0
  9  1  1  0  0  0  0
 10 18  1  0  0  0  0
 11  4  1  0  0  0  0
 12  8  1  0  0  0  0
 13 18  1  6  0  0  0
 13  8  1  0  0  0  0
 14  5  1  0  0  0  0
 15 20  2  0  0  0  0
 16 12  1  0  0  0  0
 17 16  1  0  0  0  0
 19 10  2  0  0  0  0
 20 19  1  0  0  0  0
 22 21  2  0  0  0  0
 23 22  1  0  0  0  0
 24 31  1  0  0  0  0
 24 27  2  0  0  0  0
 25 30  1  0  0  0  0
 25 28  1  0  0  0  0
 28 24  1  0  0  0  0
 29 26  2  0  0  0  0
 29 31  1  0  0  0  0
 30 22  1  1  0  0  0
 30 29  1  0  0  0  0
M  END
>  <MODEL>
3

>  <REMARK>
 VINA RESULT:      -3.9      1.149      1.435
  Name = 
  2 active torsions:
  status: ('A' for Active; 'I' for Inactive)
    1  A    between atoms: C_5  and  C_30
    2  A    between atoms: C_10  and  N_16
                            x       y       z     vdW  Elec       q    Type
                         _______ _______ _______ _____ _____    ______ ____

>  <TORSDO>
F 2

$$$$
=
 OpenBabel11122413273D

 31 35  0  0  1  0  0  0  0  0999 V2000
  161.3240  214.0030  143.8220 C   0  0  0  0  0  0  0  0  0  0  0  0
  160.8180  214.2880  147.5800 C   0  0  2  0  0  3  0  0  0  0  0  0
  159.5940  213.4060  147.8730 C   0  0  2  0  0  3  0  0  0  0  0  0
  157.1890  213.3320  147.3000 C   0  0  0  0  0  0  0  0  0  0  0  0
  161.4440  213.9350  146.2480 C   0  0  0  0  0  0  0  0  0  0  0  0
  162.4770  213.2220  143.7360 C   0  0  0  0  0  3  0  0  0  0  0  0
  158.4400  213.6270  146.9320 C   0  0  0  0  0  3  0  0  0  0  0  0
  162.6480  212.8580  148.6770 C   0  0  1  0  0  3  0  0  0  0  0  0
  160.6990  214.4150  142.6920 F   0  0  0  0  0  0  0  0  0  0  0  0
  159.9140  213.8480  150.2710 N   0  0  0  0  0  0  0  0  0  0  0  0
  156.1750  213.4710  146.4140 F   0  0  0  0  0  0  0  0  0  0  0  0
  163.4290  212.7750  147.3680 C   0  0  0  0  0  2  0  0  0  0  0  0
  161.8480  214.1670  148.7160 C   0  0  2  0  0  3  0  0  0  0  0  0
  160.8110  214.3580  145.0710 C   0  0  0  0  0  3  0  0  0  0  0  0
  156.8980  212.9240  148.6900 C   0  0  0  0  0  3  0  0  0  0  0  0
  162.6160  213.1460  146.1570 C   0  0  0  0  0  0  0  0  0  0  0  0
  163.1250  212.8040  144.9000 C   0  0  0  0  0  3  0  0  0  0  0  0
  161.2370  214.4500  150.0890 C   0  0  0  0  0  2  0  0  0  0  0  0
  159.1290  213.4660  149.3090 C   0  0  0  0  0  0  0  0  0  0  0  0
  157.8090  213.0040  149.6150 N   0  0  0  0  0  0  0  0  0  0  0  0
  162.9840  210.7390  150.5790 O   0  0  0  0  0  0  0  0  0  0  0  0
  162.0330  210.6450  149.7580 C   0  0  0  0  0  0  0  0  0  0  0  0
  161.7810  211.6950  148.8210 N   0  0  0  0  0  2  0  0  0  0  0  0
  162.5320  207.2960  151.2800 C   0  0  0  0  0  0  0  0  0  0  0  0
  160.7450  209.0170  151.1490 C   0  0  0  0  0  2  0  0  0  0  0  0
  161.9680  208.2040  147.8120 O   0  0  0  0  0  0  0  0  0  0  0  0
  163.0810  206.3820  151.9470 O   0  0  0  0  0  0  0  0  0  0  0  0
  161.8910  208.4480  151.9870 C   0  0  0  0  0  2  0  0  0  0  0  0
  161.9180  208.2610  149.0690 C   0  0  0  0  0  0  0  0  0  0  0  0
  161.2000  209.4020  149.7370 C   0  0  2  0  0  3  0  0  0  0  0  0
  162.5680  207.2560  149.8520 N   0  0  0  0  0  2  0  0  0  0  0  0
  1 14  1  0  0  0  0
  2  5  1  6  0  0  0
  2  3  1  0  0  0  0
  2 13  1  0  0  0  0
  3  7  1  6  0  0  0
  3 19  1  0  0  0  0
  4 15  1  0  0  0  0
  6  1  2  0  0  0  0
  6 17  1  0  0  0  0
  7  4  2  0  0  0  0
  8 13  1  0  0  0  0
  8 23  1  6  0  0  0
  9  1  1  0  0  0  0
 11  4  1  0  0  0  0
 12  8  1  0  0  0  0
 13 18  1  1  0  0  0
 14  5  2  0  0  0  0
 15 20  2  0  0  0  0
 16  5  1  0  0  0  0
 16 12  1  0  0  0  0
 17 16  2  0  0  0  0
 18 10  1  0  0  0  0
 19 20  1  0  0  0  0
 19 10  2  0  0  0  0
 22 21  2  0  0  0  0
 23 22  1  0  0  0  0
 24 27  2  0  0  0  0
 24 28  1  0  0  0  0
 25 28  1  0  0  0  0
 26 29  2  0  0  0  0
 29 30  1  0  0  0  0
 29 31  1  0  0  0  0
 30 22  1  1  0  0  0
 30 25  1  0  0  0  0
 31 24  1  0  0  0  0
M  END
>  <MODEL>
4

>  <REMARK>
 VINA RESULT:      -2.8      5.839      8.438
  Name = 
  2 active torsions:
  status: ('A' for Active; 'I' for Inactive)
    1  A    between atoms: C_5  and  C_30
    2  A    between atoms: C_10  and  N_16
                            x       y       z     vdW  Elec       q    Type
                         _______ _______ _______ _____ _____    ______ ____

>  <TORSDO>
F 2

$$$$
