=
 OpenBabel11122414033D

 28 32  0  0  1  0  0  0  0  0999 V2000
  162.2500  205.7800  151.0980 C   0  0  0  0  0  0  0  0  0  0  0  0
  160.7020  201.7610  150.9130 O   0  0  0  0  0  1  0  0  0  0  0  0
  159.8430  206.7470  145.5270 O   0  0  0  0  0  0  0  0  0  0  0  0
  160.3820  204.8260  152.9620 C   0  0  0  0  0  3  0  0  0  0  0  0
  161.0590  204.7750  145.9160 N   0  0  0  0  0  0  0  0  0  0  0  0
  163.1970  206.4750  150.1700 C   0  0  0  0  0  2  0  0  0  0  0  0
  159.1440  202.1460  149.3010 O   0  0  0  0  0  1  0  0  0  0  0  0
  160.4940  201.8750  149.5400 C   0  0  0  0  0  0  0  0  0  0  0  0
  161.4850  200.4960  147.6870 C   0  0  0  0  0  0  0  0  0  0  0  0
  161.3710  203.0050  148.9730 C   0  0  1  0  0  3  0  0  0  0  0  0
  161.3980  209.4420  149.0040 O   0  0  0  0  0  0  0  0  0  0  0  0
  161.7150  205.2100  148.1520 C   0  0  1  0  0  3  0  0  0  0  0  0
  162.0660  201.6950  146.9930 C   0  0  0  0  0  2  0  0  0  0  0  0
  160.8380  200.6200  148.9290 O   0  0  0  0  0  0  0  0  0  0  0  0
  161.9930  208.3400  148.8960 C   0  0  0  0  0  0  0  0  0  0  0  0
  161.1950  204.9270  150.6640 C   0  0  0  0  0  0  0  0  0  0  0  0
  160.5490  206.0370  146.2920 C   0  0  0  0  0  0  0  0  0  0  0  0
  161.6380  199.3570  147.1780 O   0  0  0  0  0  0  0  0  0  0  0  0
  161.9090  207.6020  147.5960 C   0  0  0  0  0  2  0  0  0  0  0  0
  160.2620  204.4870  151.6140 C   0  0  0  0  0  3  0  0  0  0  0  0
  162.3600  206.1080  152.4560 C   0  0  0  0  0  3  0  0  0  0  0  0
  161.4390  205.6270  153.3850 C   0  0  0  0  0  3  0  0  0  0  0  0
  162.7710  207.8590  149.9980 N   0  0  0  0  0  2  0  0  0  0  0  0
  161.8920  204.2370  146.9700 C   0  0  1  0  0  3  0  0  0  0  0  0
  160.9380  206.4340  147.6650 C   0  0  2  0  0  3  0  0  0  0  0  0
  161.3230  202.9260  147.4670 C   0  0  2  0  0  3  0  0  0  0  0  0
  161.0920  204.3140  144.5940 N   0  0  0  0  0  1  0  0  0  0  0  0
  160.9650  204.4500  149.2400 C   0  0  2  0  0  3  0  0  0  0  0  0
  1 21  1  0  0  0  0
  3 17  2  0  0  0  0
  4 22  1  0  0  0  0
  5 17  1  0  0  0  0
  5 24  1  0  0  0  0
  6  1  1  0  0  0  0
  7  8  1  0  0  0  0
  8  2  1  0  0  0  0
  9 14  1  0  0  0  0
 10 28  1  0  0  0  0
 10  8  1  1  0  0  0
 12 28  1  0  0  0  0
 13 26  1  0  0  0  0
 13  9  1  0  0  0  0
 14  8  1  0  0  0  0
 15 11  2  0  0  0  0
 15 23  1  0  0  0  0
 16  1  2  0  0  0  0
 16 20  1  0  0  0  0
 17 25  1  0  0  0  0
 18  9  2  0  0  0  0
 19 25  1  0  0  0  0
 19 15  1  0  0  0  0
 20  4  2  0  0  0  0
 21 22  2  0  0  0  0
 23  6  1  0  0  0  0
 24 26  1  0  0  0  0
 24 12  1  0  0  0  0
 25 12  1  0  0  0  0
 26 10  1  0  0  0  0
 27  5  1  0  0  0  0
 28 16  1  0  0  0  0
M  END
>  <MODEL>
1

>  <REMARK>
 VINA RESULT:      -6.6      0.000      0.000
  Name = 
  0 active torsions:
  status: ('A' for Active; 'I' for Inactive)
                            x       y       z     vdW  Elec       q    Type
                         _______ _______ _______ _____ _____    ______ ____

>  <TORSDO>
F 0

$$$$
=
 OpenBabel11122414033D

 28 32  0  0  1  0  0  0  0  0999 V2000
  158.6310  212.3370  152.2920 C   0  0  0  0  0  0  0  0  0  0  0  0
  161.3070  209.8110  150.0470 O   0  0  0  0  0  1  0  0  0  0  0  0
  162.0740  211.2250  157.2590 O   0  0  0  0  0  0  0  0  0  0  0  0
  160.1090  213.3110  150.1140 C   0  0  0  0  0  3  0  0  0  0  0  0
  161.4520  209.4300  155.8790 N   0  0  0  0  0  0  0  0  0  0  0  0
  157.8130  212.0120  153.5030 C   0  0  0  0  0  2  0  0  0  0  0  0
  163.0580  209.9170  151.4950 O   0  0  0  0  0  1  0  0  0  0  0  0
  161.8410  209.2860  151.2220 C   0  0  0  0  0  0  0  0  0  0  0  0
  161.8640  206.8960  152.0010 C   0  0  0  0  0  0  0  0  0  0  0  0
  160.8560  209.5040  152.3840 C   0  0  1  0  0  3  0  0  0  0  0  0
  158.8830  214.4090  156.0550 O   0  0  0  0  0  0  0  0  0  0  0  0
  160.1040  210.6270  154.3400 C   0  0  1  0  0  3  0  0  0  0  0  0
  161.1640  207.2220  153.2890 C   0  0  0  0  0  2  0  0  0  0  0  0
  162.0750  207.8820  151.0200 O   0  0  0  0  0  0  0  0  0  0  0  0
  158.7010  213.2740  155.5450 C   0  0  0  0  0  0  0  0  0  0  0  0
  159.9710  211.8950  152.0960 C   0  0  0  0  0  0  0  0  0  0  0  0
  161.4330  210.7880  156.2670 C   0  0  0  0  0  0  0  0  0  0  0  0
  162.2090  205.7090  151.7710 O   0  0  0  0  0  0  0  0  0  0  0  0
  159.3590  212.0880  156.1790 C   0  0  0  0  0  2  0  0  0  0  0  0
  160.6930  212.4190  151.0140 C   0  0  0  0  0  3  0  0  0  0  0  0
  158.0570  213.2300  151.3770 C   0  0  0  0  0  3  0  0  0  0  0  0
  158.7850  213.7070  150.2890 C   0  0  0  0  0  3  0  0  0  0  0  0
  157.8320  213.1510  154.4140 N   0  0  0  0  0  2  0  0  0  0  0  0
  160.5630  209.2160  154.7580 C   0  0  1  0  0  3  0  0  0  0  0  0
  160.5790  211.6270  155.3960 C   0  0  2  0  0  3  0  0  0  0  0  0
  161.3400  208.7000  153.5660 C   0  0  2  0  0  3  0  0  0  0  0  0
  161.9250  208.3950  156.6960 N   0  0  0  0  0  1  0  0  0  0  0  0
  160.7180  210.9040  152.9720 C   0  0  2  0  0  3  0  0  0  0  0  0
  1  6  1  0  0  0  0
  2  8  1  0  0  0  0
  4 22  2  0  0  0  0
  4 20  1  0  0  0  0
  5 17  1  0  0  0  0
  5 27  1  0  0  0  0
  6 23  1  0  0  0  0
  8  7  1  0  0  0  0
  9 13  1  0  0  0  0
 10  8  1  6  0  0  0
 10 28  1  0  0  0  0
 10 26  1  0  0  0  0
 12 24  1  0  0  0  0
 12 25  1  0  0  0  0
 13 26  1  0  0  0  0
 14  8  1  0  0  0  0
 14  9  1  0  0  0  0
 15 11  2  0  0  0  0
 15 19  1  0  0  0  0
 16  1  1  0  0  0  0
 16 28  1  0  0  0  0
 17  3  2  0  0  0  0
 18  9  2  0  0  0  0
 20 16  2  0  0  0  0
 21  1  2  0  0  0  0
 22 21  1  0  0  0  0
 23 15  1  0  0  0  0
 24  5  1  0  0  0  0
 25 19  1  0  0  0  0
 25 17  1  0  0  0  0
 26 24  1  0  0  0  0
 28 12  1  0  0  0  0
M  END
>  <MODEL>
2

>  <REMARK>
 VINA RESULT:      -6.3      5.680      8.986
  Name = 
  0 active torsions:
  status: ('A' for Active; 'I' for Inactive)
                            x       y       z     vdW  Elec       q    Type
                         _______ _______ _______ _____ _____    ______ ____

>  <TORSDO>
F 0

$$$$
=
 OpenBabel11122414033D

 28 32  0  0  1  0  0  0  0  0999 V2000
  161.0560  207.1350  149.6020 C   0  0  0  0  0  0  0  0  0  0  0  0
  161.9420  205.4890  145.7180 O   0  0  0  0  0  1  0  0  0  0  0  0
  162.6220  201.7130  152.0340 O   0  0  0  0  0  0  0  0  0  0  0  0
  163.0460  208.2250  147.9500 C   0  0  0  0  0  3  0  0  0  0  0  0
  161.2100  201.7550  150.1570 N   0  0  0  0  0  0  0  0  0  0  0  0
  160.0810  206.6590  150.6340 C   0  0  0  0  0  2  0  0  0  0  0  0
  163.2500  203.7750  146.4430 O   0  0  0  0  0  1  0  0  0  0  0  0
  161.9330  204.1940  146.2340 C   0  0  0  0  0  0  0  0  0  0  0  0
  160.4560  202.2630  145.5960 C   0  0  0  0  0  0  0  0  0  0  0  0
  161.1510  204.1680  147.5590 C   0  0  1  0  0  3  0  0  0  0  0  0
  162.0810  206.0600  153.6410 O   0  0  0  0  0  0  0  0  0  0  0  0
  161.0040  204.1050  149.9320 C   0  0  1  0  0  3  0  0  0  0  0  0
  159.9520  202.0780  146.9990 C   0  0  0  0  0  2  0  0  0  0  0  0
  161.3120  203.3300  145.2680 O   0  0  0  0  0  0  0  0  0  0  0  0
  161.3190  205.7620  152.6860 C   0  0  0  0  0  0  0  0  0  0  0  0
  161.8870  206.2690  148.8350 C   0  0  0  0  0  0  0  0  0  0  0  0
  161.9560  202.3680  151.1880 C   0  0  0  0  0  0  0  0  0  0  0  0
  160.0550  201.4900  144.6910 O   0  0  0  0  0  0  0  0  0  0  0  0
  161.0760  204.3160  152.3850 C   0  0  0  0  0  2  0  0  0  0  0  0
  162.8900  206.8420  148.0390 C   0  0  0  0  0  3  0  0  0  0  0  0
  161.2230  208.5230  149.4990 C   0  0  0  0  0  3  0  0  0  0  0  0
  162.2030  209.0670  148.6710 C   0  0  0  0  0  3  0  0  0  0  0  0
  160.6720  206.8120  151.9580 N   0  0  0  0  0  2  0  0  0  0  0  0
  160.4930  202.7540  149.3950 C   0  0  1  0  0  3  0  0  0  0  0  0
  161.8630  203.8450  151.1710 C   0  0  2  0  0  3  0  0  0  0  0  0
  160.9370  202.7260  147.9490 C   0  0  2  0  0  3  0  0  0  0  0  0
  160.8900  200.3910  150.1360 N   0  0  0  0  0  1  0  0  0  0  0  0
  161.8040  204.7520  148.8060 C   0  0  2  0  0  3  0  0  0  0  0  0
  1  6  1  0  0  0  0
  2  8  1  0  0  0  0
  4 20  2  0  0  0  0
  4 22  1  0  0  0  0
  5 17  1  0  0  0  0
  6 23  1  0  0  0  0
  8  7  1  0  0  0  0
  9 13  1  0  0  0  0
 10  8  1  6  0  0  0
 10 26  1  0  0  0  0
 10 28  1  0  0  0  0
 12 25  1  0  0  0  0
 13 26  1  0  0  0  0
 14  9  1  0  0  0  0
 14  8  1  0  0  0  0
 15 11  2  0  0  0  0
 16  1  2  0  0  0  0
 17  3  2  0  0  0  0
 18  9  2  0  0  0  0
 19 15  1  0  0  0  0
 20 16  1  0  0  0  0
 21  1  1  0  0  0  0
 22 21  2  0  0  0  0
 23 15  1  0  0  0  0
 24 12  1  0  0  0  0
 24  5  1  0  0  0  0
 25 17  1  0  0  0  0
 25 19  1  0  0  0  0
 26 24  1  0  0  0  0
 27  5  1  0  0  0  0
 28 16  1  0  0  0  0
 28 12  1  0  0  0  0
M  END
>  <MODEL>
3

>  <REMARK>
 VINA RESULT:      -5.2      2.636      4.640
  Name = 
  0 active torsions:
  status: ('A' for Active; 'I' for Inactive)
                            x       y       z     vdW  Elec       q    Type
                         _______ _______ _______ _____ _____    ______ ____

>  <TORSDO>
F 0

$$$$
=
 OpenBabel11122414033D

 28 32  0  0  1  0  0  0  0  0999 V2000
  160.9400  212.4270  149.8060 C   0  0  0  0  0  0  0  0  0  0  0  0
  158.6190  214.0850  153.0380 O   0  0  0  0  0  1  0  0  0  0  0  0
  160.5950  206.9770  152.6230 O   0  0  0  0  0  0  0  0  0  0  0  0
  158.4330  213.6120  149.3730 C   0  0  0  0  0  3  0  0  0  0  0  0
  161.1420  208.8790  153.8870 N   0  0  0  0  0  0  0  0  0  0  0  0
  162.2560  211.7140  149.8520 C   0  0  0  0  0  2  0  0  0  0  0  0
  157.7470  212.1200  153.7800 O   0  0  0  0  0  1  0  0  0  0  0  0
  158.8620  212.9610  153.8260 C   0  0  0  0  0  0  0  0  0  0  0  0
  160.0070  212.8310  156.0600 C   0  0  0  0  0  0  0  0  0  0  0  0
  160.1070  212.2220  153.3070 C   0  0  1  0  0  3  0  0  0  0  0  0
  161.6330  208.4490  148.3190 O   0  0  0  0  0  0  0  0  0  0  0  0
  161.1880  210.4640  152.1240 C   0  0  1  0  0  3  0  0  0  0  0  0
  161.0320  211.8490  155.5700 C   0  0  0  0  0  2  0  0  0  0  0  0
  159.0670  213.3980  155.1800 O   0  0  0  0  0  0  0  0  0  0  0  0
  161.9580  209.2490  149.2330 C   0  0  0  0  0  0  0  0  0  0  0  0
  159.8920  212.2220  150.7490 C   0  0  0  0  0  0  0  0  0  0  0  0
  160.8550  208.2080  152.6780 C   0  0  0  0  0  0  0  0  0  0  0  0
  160.0320  213.2010  157.2610 O   0  0  0  0  0  0  0  0  0  0  0  0
  162.0930  208.7270  150.6290 C   0  0  0  0  0  2  0  0  0  0  0  0
  158.6430  212.8070  150.4930 C   0  0  0  0  0  3  0  0  0  0  0  0
  160.7150  213.2420  148.6890 C   0  0  0  0  0  3  0  0  0  0  0  0
  159.4740  213.8400  148.4770 C   0  0  0  0  0  3  0  0  0  0  0  0
  162.2370  210.6130  148.8970 N   0  0  0  0  0  2  0  0  0  0  0  0
  161.4740  210.2630  153.6250 C   0  0  1  0  0  3  0  0  0  0  0  0
  160.9000  209.0990  151.4960 C   0  0  2  0  0  3  0  0  0  0  0  0
  160.4920  211.1770  154.3260 C   0  0  2  0  0  3  0  0  0  0  0  0
  161.4580  208.2230  155.0830 N   0  0  0  0  0  1  0  0  0  0  0  0
  159.9910  211.4040  152.0250 C   0  0  2  0  0  3  0  0  0  0  0  0
  1  6  1  0  0  0  0
  1 16  1  0  0  0  0
  2  8  1  0  0  0  0
  3 17  2  0  0  0  0
  4 20  1  0  0  0  0
  5 27  1  0  0  0  0
  7  8  1  0  0  0  0
  8 14  1  0  0  0  0
  9 18  2  0  0  0  0
 10  8  1  1  0  0  0
 10 26  1  0  0  0  0
 11 15  2  0  0  0  0
 12 24  1  0  0  0  0
 13  9  1  0  0  0  0
 14  9  1  0  0  0  0
 15 19  1  0  0  0  0
 16 28  1  0  0  0  0
 17  5  1  0  0  0  0
 19 25  1  0  0  0  0
 20 16  2  0  0  0  0
 21  1  2  0  0  0  0
 22 21  1  0  0  0  0
 22  4  2  0  0  0  0
 23 15  1  0  0  0  0
 23  6  1  0  0  0  0
 24  5  1  0  0  0  0
 24 26  1  0  0  0  0
 25 12  1  0  0  0  0
 25 17  1  0  0  0  0
 26 13  1  0  0  0  0
 28 12  1  0  0  0  0
 28 10  1  0  0  0  0
M  END
>  <MODEL>
4

>  <REMARK>
 VINA RESULT:      -4.8      5.374      9.524
  Name = 
  0 active torsions:
  status: ('A' for Active; 'I' for Inactive)
                            x       y       z     vdW  Elec       q    Type
                         _______ _______ _______ _____ _____    ______ ____

>  <TORSDO>
F 0

$$$$
=
 OpenBabel11122414033D

 28 32  0  0  1  0  0  0  0  0999 V2000
  160.7850  209.7070  154.9410 C   0  0  0  0  0  0  0  0  0  0  0  0
  158.5720  212.5880  157.2610 O   0  0  0  0  0  1  0  0  0  0  0  0
  160.4610  213.5870  150.1870 O   0  0  0  0  0  0  0  0  0  0  0  0
  161.8530  210.8780  157.2570 C   0  0  0  0  0  3  0  0  0  0  0  0
  158.5230  213.1590  151.4420 N   0  0  0  0  0  0  0  0  0  0  0  0
  160.4070  209.0260  153.6620 C   0  0  0  0  0  2  0  0  0  0  0  0
  159.0140  214.3900  155.9460 O   0  0  0  0  0  1  0  0  0  0  0  0
  158.1950  213.2690  156.1050 C   0  0  0  0  0  0  0  0  0  0  0  0
  155.8790  213.7050  155.2290 C   0  0  0  0  0  0  0  0  0  0  0  0
  158.3240  212.3380  154.8870 C   0  0  1  0  0  3  0  0  0  0  0  0
  163.0660  209.8790  151.2950 O   0  0  0  0  0  0  0  0  0  0  0  0
  159.4230  211.5500  152.9310 C   0  0  1  0  0  3  0  0  0  0  0  0
  156.1650  213.0460  153.9100 C   0  0  0  0  0  2  0  0  0  0  0  0
  156.8330  213.7000  156.2640 O   0  0  0  0  0  0  0  0  0  0  0  0
  161.8920  209.8400  151.7430 C   0  0  0  0  0  0  0  0  0  0  0  0
  160.5390  211.0830  155.2120 C   0  0  0  0  0  0  0  0  0  0  0  0
  159.8810  212.9580  151.1120 C   0  0  0  0  0  0  0  0  0  0  0  0
  154.7470  214.2110  155.4330 O   0  0  0  0  0  0  0  0  0  0  0  0
  160.8520  210.7090  151.1080 C   0  0  0  0  0  2  0  0  0  0  0  0
  161.1070  211.6470  156.3640 C   0  0  0  0  0  3  0  0  0  0  0  0
  161.5340  208.9470  155.8500 C   0  0  0  0  0  3  0  0  0  0  0  0
  162.0560  209.5230  157.0060 C   0  0  0  0  0  3  0  0  0  0  0  0
  161.5820  208.9300  152.8040 N   0  0  0  0  0  2  0  0  0  0  0  0
  158.1210  212.2430  152.4880 C   0  0  1  0  0  3  0  0  0  0  0  0
  160.5370  211.9330  151.9550 C   0  0  2  0  0  3  0  0  0  0  0  0
  157.6650  213.0130  153.7090 C   0  0  2  0  0  3  0  0  0  0  0  0
  157.6140  213.8350  150.6180 N   0  0  0  0  0  1  0  0  0  0  0  0
  159.7170  212.0260  154.3500 C   0  0  2  0  0  3  0  0  0  0  0  0
  1 16  2  0  0  0  0
  1 21  1  0  0  0  0
  3 17  2  0  0  0  0
  5 24  1  0  0  0  0
  6  1  1  0  0  0  0
  7  8  1  0  0  0  0
  8 14  1  0  0  0  0
  8  2  1  0  0  0  0
  9 18  2  0  0  0  0
  9 14  1  0  0  0  0
 10  8  1  1  0  0  0
 11 15  2  0  0  0  0
 12 28  1  0  0  0  0
 13  9  1  0  0  0  0
 15 23  1  0  0  0  0
 16 20  1  0  0  0  0
 17  5  1  0  0  0  0
 17 25  1  0  0  0  0
 19 15  1  0  0  0  0
 19 25  1  0  0  0  0
 20  4  2  0  0  0  0
 21 22  2  0  0  0  0
 22  4  1  0  0  0  0
 23  6  1  0  0  0  0
 24 12  1  0  0  0  0
 24 26  1  0  0  0  0
 25 12  1  0  0  0  0
 26 13  1  0  0  0  0
 26 10  1  0  0  0  0
 27  5  1  0  0  0  0
 28 10  1  0  0  0  0
 28 16  1  0  0  0  0
M  END
>  <MODEL>
5

>  <REMARK>
 VINA RESULT:      -4.4      6.929     10.211
  Name = 
  0 active torsions:
  status: ('A' for Active; 'I' for Inactive)
                            x       y       z     vdW  Elec       q    Type
                         _______ _______ _______ _____ _____    ______ ____

>  <TORSDO>
F 0

$$$$
=
 OpenBabel11122414033D

 28 32  0  0  1  0  0  0  0  0999 V2000
  161.5370  209.6630  156.0200 C   0  0  0  0  0  0  0  0  0  0  0  0
  161.9450  206.9790  152.6720 O   0  0  0  0  0  1  0  0  0  0  0  0
  157.5840  212.9440  152.6490 O   0  0  0  0  0  0  0  0  0  0  0  0
  160.8490  206.9490  156.2060 C   0  0  0  0  0  3  0  0  0  0  0  0
  159.6020  212.2420  151.6760 N   0  0  0  0  0  0  0  0  0  0  0  0
  161.7960  211.1360  156.0930 C   0  0  0  0  0  2  0  0  0  0  0  0
  160.0170  207.5670  151.6180 O   0  0  0  0  0  1  0  0  0  0  0  0
  161.3560  207.9110  151.8190 C   0  0  0  0  0  0  0  0  0  0  0  0
  162.3310  208.9940  149.7710 C   0  0  0  0  0  0  0  0  0  0  0  0
  161.4580  209.3170  152.4340 C   0  0  1  0  0  3  0  0  0  0  0  0
  158.6320  212.6180  157.1840 O   0  0  0  0  0  0  0  0  0  0  0  0
  160.5590  211.1990  153.5760 C   0  0  1  0  0  3  0  0  0  0  0  0
  162.1150  210.3820  150.3010 C   0  0  0  0  0  2  0  0  0  0  0  0
  162.0480  207.8640  150.5590 O   0  0  0  0  0  0  0  0  0  0  0  0
  159.6030  212.4150  156.4110 C   0  0  0  0  0  0  0  0  0  0  0  0
  160.8970  209.0220  154.9210 C   0  0  0  0  0  0  0  0  0  0  0  0
  158.7040  212.3780  152.7570 C   0  0  0  0  0  0  0  0  0  0  0  0
  162.8340  208.8420  148.6290 O   0  0  0  0  0  0  0  0  0  0  0  0
  159.5170  212.9170  155.0040 C   0  0  0  0  0  2  0  0  0  0  0  0
  160.5420  207.6710  155.0530 C   0  0  0  0  0  3  0  0  0  0  0  0
  161.8410  208.9220  157.1700 C   0  0  0  0  0  3  0  0  0  0  0  0
  161.5100  207.5710  157.2610 C   0  0  0  0  0  3  0  0  0  0  0  0
  160.7720  211.7630  156.9200 N   0  0  0  0  0  2  0  0  0  0  0  0
  160.8310  211.6220  152.1200 C   0  0  1  0  0  3  0  0  0  0  0  0
  159.2210  211.7980  154.0160 C   0  0  2  0  0  3  0  0  0  0  0  0
  161.0560  210.3210  151.3810 C   0  0  2  0  0  3  0  0  0  0  0  0
  159.4890  212.9590  150.4770 N   0  0  0  0  0  1  0  0  0  0  0  0
  160.5380  209.6750  153.5970 C   0  0  2  0  0  3  0  0  0  0  0  0
  1  6  1  0  0  0  0
  1 21  1  0  0  0  0
  3 17  2  0  0  0  0
  4 22  1  0  0  0  0
  5 24  1  0  0  0  0
  5 17  1  0  0  0  0
  6 23  1  0  0  0  0
  7  8  1  0  0  0  0
  8  2  1  0  0  0  0
  9 13  1  0  0  0  0
  9 14  1  0  0  0  0
 10  8  1  6  0  0  0
 10 28  1  0  0  0  0
 12 28  1  0  0  0  0
 12 25  1  0  0  0  0
 13 26  1  0  0  0  0
 14  8  1  0  0  0  0
 15 23  1  0  0  0  0
 15 11  2  0  0  0  0
 16 20  1  0  0  0  0
 16  1  2  0  0  0  0
 17 25  1  0  0  0  0
 18  9  2  0  0  0  0
 19 15  1  0  0  0  0
 20  4  2  0  0  0  0
 21 22  2  0  0  0  0
 24 12  1  0  0  0  0
 25 19  1  0  0  0  0
 26 24  1  0  0  0  0
 26 10  1  0  0  0  0
 27  5  1  0  0  0  0
 28 16  1  0  0  0  0
M  END
>  <MODEL>
6

>  <REMARK>
 VINA RESULT:      -4.4      5.638      7.872
  Name = 
  0 active torsions:
  status: ('A' for Active; 'I' for Inactive)
                            x       y       z     vdW  Elec       q    Type
                         _______ _______ _______ _____ _____    ______ ____

>  <TORSDO>
F 0

$$$$
=
 OpenBabel11122414033D

 28 32  0  0  1  0  0  0  0  0999 V2000
  159.9610  211.0910  152.0070 C   0  0  0  0  0  0  0  0  0  0  0  0
  161.8120  207.7780  149.9620 O   0  0  0  0  0  1  0  0  0  0  0  0
  162.2680  208.8790  157.2550 O   0  0  0  0  0  0  0  0  0  0  0  0
  161.9030  211.4770  150.0180 C   0  0  0  0  0  3  0  0  0  0  0  0
  161.2090  207.4040  155.7660 N   0  0  0  0  0  0  0  0  0  0  0  0
  158.9600  211.0790  153.1200 C   0  0  0  0  0  2  0  0  0  0  0  0
  163.3300  207.2760  151.5800 O   0  0  0  0  0  1  0  0  0  0  0  0
  162.0060  207.1060  151.1680 C   0  0  0  0  0  0  0  0  0  0  0  0
  161.1170  204.8630  151.8720 C   0  0  0  0  0  0  0  0  0  0  0  0
  161.0430  207.6610  152.2320 C   0  0  1  0  0  3  0  0  0  0  0  0
  160.5240  212.9680  155.8390 O   0  0  0  0  0  0  0  0  0  0  0  0
  160.5280  208.9870  154.1380 C   0  0  1  0  0  3  0  0  0  0  0  0
  160.4440  205.4200  153.0930 C   0  0  0  0  0  2  0  0  0  0  0  0
  161.7570  205.7080  150.9470 O   0  0  0  0  0  0  0  0  0  0  0  0
  160.0140  211.9640  155.2780 C   0  0  0  0  0  0  0  0  0  0  0  0
  161.0770  210.2090  151.9320 C   0  0  0  0  0  0  0  0  0  0  0  0
  161.6220  208.6860  156.1910 C   0  0  0  0  0  0  0  0  0  0  0  0
  161.0500  203.6300  151.6410 O   0  0  0  0  0  0  0  0  0  0  0  0
  160.1490  210.6270  155.9370 C   0  0  0  0  0  2  0  0  0  0  0  0
  162.0440  210.4430  150.9430 C   0  0  0  0  0  3  0  0  0  0  0  0
  159.8310  212.1230  151.0670 C   0  0  0  0  0  3  0  0  0  0  0  0
  160.7890  212.3100  150.0720 C   0  0  0  0  0  3  0  0  0  0  0  0
  159.2790  212.1450  154.0620 N   0  0  0  0  0  2  0  0  0  0  0  0
  160.4230  207.5070  154.5550 C   0  0  1  0  0  3  0  0  0  0  0  0
  161.2080  209.7650  155.2660 C   0  0  2  0  0  3  0  0  0  0  0  0
  161.0920  206.7460  153.4320 C   0  0  2  0  0  3  0  0  0  0  0  0
  161.2060  206.2740  156.5940 N   0  0  0  0  0  1  0  0  0  0  0  0
  161.3380  209.0250  152.8470 C   0  0  2  0  0  3  0  0  0  0  0  0
  1  6  1  0  0  0  0
  2  8  1  0  0  0  0
  4 22  2  0  0  0  0
  4 20  1  0  0  0  0
  5 17  1  0  0  0  0
  5 27  1  0  0  0  0
  6 23  1  0  0  0  0
  8  7  1  0  0  0  0
  9 13  1  0  0  0  0
 10  8  1  6  0  0  0
 10 28  1  0  0  0  0
 10 26  1  0  0  0  0
 12 24  1  0  0  0  0
 12 25  1  0  0  0  0
 13 26  1  0  0  0  0
 14  8  1  0  0  0  0
 14  9  1  0  0  0  0
 15 11  2  0  0  0  0
 15 19  1  0  0  0  0
 16  1  1  0  0  0  0
 16 28  1  0  0  0  0
 17  3  2  0  0  0  0
 18  9  2  0  0  0  0
 20 16  2  0  0  0  0
 21  1  2  0  0  0  0
 22 21  1  0  0  0  0
 23 15  1  0  0  0  0
 24  5  1  0  0  0  0
 25 19  1  0  0  0  0
 25 17  1  0  0  0  0
 26 24  1  0  0  0  0
 28 12  1  0  0  0  0
M  END
>  <MODEL>
7

>  <REMARK>
 VINA RESULT:      -3.8      4.673      7.667
  Name = 
  0 active torsions:
  status: ('A' for Active; 'I' for Inactive)
                            x       y       z     vdW  Elec       q    Type
                         _______ _______ _______ _____ _____    ______ ____

>  <TORSDO>
F 0

$$$$
=
 OpenBabel11122414033D

 28 32  0  0  1  0  0  0  0  0999 V2000
  160.5990  204.0210  149.7440 C   0  0  0  0  0  0  0  0  0  0  0  0
  161.0570  205.2390  153.8540 O   0  0  0  0  0  1  0  0  0  0  0  0
  163.7960  209.0110  148.1210 O   0  0  0  0  0  0  0  0  0  0  0  0
  161.9270  202.4160  151.6240 C   0  0  0  0  0  3  0  0  0  0  0  0
  162.0730  209.2270  149.7010 N   0  0  0  0  0  0  0  0  0  0  0  0
  159.9780  204.7600  148.5990 C   0  0  0  0  0  2  0  0  0  0  0  0
  162.8350  206.6200  153.5300 O   0  0  0  0  0  1  0  0  0  0  0  0
  161.4430  206.5190  153.4600 C   0  0  0  0  0  0  0  0  0  0  0  0
  160.3460  208.7170  153.9890 C   0  0  0  0  0  0  0  0  0  0  0  0
  160.9610  206.7880  152.0240 C   0  0  1  0  0  3  0  0  0  0  0  0
  162.6100  204.9940  146.0660 O   0  0  0  0  0  0  0  0  0  0  0  0
  161.3000  206.9870  149.6790 C   0  0  1  0  0  3  0  0  0  0  0  0
  160.1810  209.0780  152.5410 C   0  0  0  0  0  2  0  0  0  0  0  0
  160.8570  207.4630  154.3710 O   0  0  0  0  0  0  0  0  0  0  0  0
  161.7640  205.4240  146.8910 C   0  0  0  0  0  0  0  0  0  0  0  0
  161.4380  204.6300  150.7210 C   0  0  0  0  0  0  0  0  0  0  0  0
  162.8480  208.4990  148.7720 C   0  0  0  0  0  0  0  0  0  0  0  0
  159.9610  209.5240  154.8730 O   0  0  0  0  0  0  0  0  0  0  0  0
  161.8010  206.8720  147.2690 C   0  0  0  0  0  2  0  0  0  0  0  0
  162.1090  203.7990  151.6310 C   0  0  0  0  0  3  0  0  0  0  0  0
  160.4240  202.6310  149.7530 C   0  0  0  0  0  3  0  0  0  0  0  0
  161.0740  201.8330  150.6920 C   0  0  0  0  0  3  0  0  0  0  0  0
  160.7670  204.5290  147.3950 N   0  0  0  0  0  2  0  0  0  0  0  0
  161.0130  208.3960  150.2310 C   0  0  1  0  0  3  0  0  0  0  0  0
  162.4200  207.0880  148.6420 C   0  0  2  0  0  3  0  0  0  0  0  0
  161.1600  208.2560  151.7300 C   0  0  2  0  0  3  0  0  0  0  0  0
  162.0720  210.6260  149.7850 N   0  0  0  0  0  1  0  0  0  0  0  0
  161.6970  206.1190  150.8680 C   0  0  2  0  0  3  0  0  0  0  0  0
  1 21  2  0  0  0  0
  1 16  1  0  0  0  0
  3 17  2  0  0  0  0
  4 20  1  0  0  0  0
  5 27  1  0  0  0  0
  5 24  1  0  0  0  0
  6  1  1  0  0  0  0
  8  7  1  0  0  0  0
  8  2  1  0  0  0  0
  8 14  1  0  0  0  0
  9 14  1  0  0  0  0
  9 18  2  0  0  0  0
 10  8  1  1  0  0  0
 11 15  2  0  0  0  0
 12 24  1  0  0  0  0
 12 28  1  0  0  0  0
 13  9  1  0  0  0  0
 15 19  1  0  0  0  0
 15 23  1  0  0  0  0
 16 28  1  0  0  0  0
 16 20  2  0  0  0  0
 17  5  1  0  0  0  0
 19 25  1  0  0  0  0
 21 22  1  0  0  0  0
 22  4  2  0  0  0  0
 23  6  1  0  0  0  0
 24 26  1  0  0  0  0
 25 17  1  0  0  0  0
 25 12  1  0  0  0  0
 26 10  1  0  0  0  0
 26 13  1  0  0  0  0
 28 10  1  0  0  0  0
M  END
>  <MODEL>
8

>  <REMARK>
 VINA RESULT:      -3.7      2.746      5.853
  Name = 
  0 active torsions:
  status: ('A' for Active; 'I' for Inactive)
                            x       y       z     vdW  Elec       q    Type
                         _______ _______ _______ _____ _____    ______ ____

>  <TORSDO>
F 0

$$$$
