=
 OpenBabel11122414293D

 34 40  0  0  1  0  0  0  0  0999 V2000
  161.0440  205.4840  152.1270 C   0  0  0  0  0  0  0  0  0  0  0  0
  161.1760  206.8600  154.2670 C   0  0  0  0  0  2  0  0  0  0  0  0
  162.2370  204.4440  145.3030 O   0  0  0  0  0  0  0  0  0  0  0  0
  161.5300  204.2010  150.0370 C   0  0  1  0  0  3  0  0  0  0  0  0
  161.7560  205.5480  147.8990 N   0  0  1  0  0  0  0  0  0  0  0  0
  161.2490  206.5820  145.7390 C   0  0  0  0  0  2  0  0  0  0  0  0
  161.3130  205.3730  144.8140 C   0  0  0  0  0  2  0  0  0  0  0  0
  160.7400  202.9720  146.5100 C   0  0  0  0  0  2  0  0  0  0  0  0
  161.0570  208.0090  152.1500 C   0  0  2  0  0  3  0  0  0  0  0  0
  161.4200  211.0700  151.7310 C   0  0  0  0  0  2  0  0  0  0  0  0
  162.3250  206.5490  148.8170 C   0  0  0  0  0  2  0  0  0  0  0  0
  161.5680  203.1010  147.7770 C   0  0  0  0  0  2  0  0  0  0  0  0
  161.9730  207.9090  150.9290 C   0  0  1  0  0  3  0  0  0  0  0  0
  161.3180  208.3520  154.5350 C   0  0  0  0  0  2  0  0  0  0  0  0
  161.1630  204.3570  148.5480 C   0  0  1  0  0  3  0  0  0  0  0  0
  161.5880  203.2030  145.2610 C   0  0  0  0  0  2  0  0  0  0  0  0
  160.9410  210.3810  153.0140 C   0  0  2  0  0  3  0  0  0  0  0  0
  161.2870  205.4860  150.7940 C   0  0  0  0  0  0  0  0  0  0  0  0
  160.7140  206.2010  147.1140 C   0  0  0  0  0  2  0  0  0  0  0  0
  161.4320  206.7880  150.0360 C   0  0  2  0  0  3  0  0  0  0  0  0
  161.2070  202.9460  152.1380 C   0  0  0  0  0  2  0  0  0  0  0  0
  161.0720  210.3000  150.4540 C   0  0  0  0  0  2  0  0  0  0  0  0
  160.7880  203.0320  150.6800 C   0  0  0  0  0  2  0  0  0  0  0  0
  162.1300  209.2370  150.1580 C   0  0  0  0  0  2  0  0  0  0  0  0
  161.5810  208.9930  153.1760 C   0  0  2  0  0  3  0  0  0  0  0  0
  160.7640  204.2030  152.8810 C   0  0  0  0  0  2  0  0  0  0  0  0
  160.9860  206.7350  152.8330 N   0  0  0  0  0  0  0  0  0  0  0  0
  159.4140  210.3650  153.0730 C   0  0  0  0  0  2  0  0  0  0  0  0
  158.8610  211.7710  152.9250 C   0  0  0  0  0  2  0  0  0  0  0  0
  155.9610  212.4380  154.7970 N   0  0  0  0  0  2  0  0  0  0  0  0
  157.9010  211.0910  155.1190 C   0  0  0  0  0  2  0  0  0  0  0  0
  158.3020  212.2590  154.2500 C   0  0  2  0  0  3  0  0  0  0  0  0
  156.3920  211.0770  155.0710 C   0  0  0  0  0  2  0  0  0  0  0  0
  157.0220  213.0330  153.9970 C   0  0  0  0  0  2  0  0  0  0  0  0
  1 27  1  0  0  0  0
  1 26  1  0  0  0  0
  2 14  1  0  0  0  0
  4 23  1  1  0  0  0
  4 18  1  0  0  0  0
  5 19  1  1  0  0  0
  5 15  1  0  0  0  0
  5 11  1  0  0  0  0
  6 19  1  0  0  0  0
  7  3  1  0  0  0  0
  7  6  1  0  0  0  0
  8 12  1  0  0  0  0
  9 27  1  1  0  0  0
  9 25  1  0  0  0  0
 10 17  1  0  0  0  0
 13 24  1  6  0  0  0
 13  9  1  0  0  0  0
 15 12  1  6  0  0  0
 15  4  1  0  0  0  0
 16  3  1  0  0  0  0
 16  8  1  0  0  0  0
 17 28  1  6  0  0  0
 17 25  1  0  0  0  0
 18  1  2  0  0  0  0
 20 11  1  6  0  0  0
 20 18  1  0  0  0  0
 20 13  1  0  0  0  0
 21 26  1  0  0  0  0
 22 10  1  0  0  0  0
 23 21  1  0  0  0  0
 24 22  1  0  0  0  0
 25 14  1  1  0  0  0
 27  2  1  0  0  0  0
 29 28  1  0  0  0  0
 30 33  1  0  0  0  0
 32 29  1  6  0  0  0
 32 31  1  0  0  0  0
 33 31  1  0  0  0  0
 34 32  1  0  0  0  0
 34 30  1  0  0  0  0
M  END
>  <MODEL>
1

>  <REMARK>
 VINA RESULT:      -8.4      0.000      0.000
  Name = 
  3 active torsions:
  status: ('A' for Active; 'I' for Inactive)
    1  A    between atoms: C_17  and  C_28
    2  A    between atoms: C_28  and  C_29
    3  A    between atoms: C_29  and  C_32
                            x       y       z     vdW  Elec       q    Type
                         _______ _______ _______ _____ _____    ______ ____

>  <TORSDO>
F 3

$$$$
=
 OpenBabel11122414293D

 34 40  0  0  1  0  0  0  0  0999 V2000
  161.0000  205.5710  152.0350 C   0  0  0  0  0  0  0  0  0  0  0  0
  161.2220  207.0410  154.1030 C   0  0  0  0  0  2  0  0  0  0  0  0
  162.0170  204.1690  145.2460 O   0  0  0  0  0  0  0  0  0  0  0  0
  161.4000  204.1750  150.0000 C   0  0  1  0  0  3  0  0  0  0  0  0
  161.6270  205.4110  147.7950 N   0  0  1  0  0  0  0  0  0  0  0  0
  161.1100  206.3580  145.5980 C   0  0  0  0  0  2  0  0  0  0  0  0
  161.1150  205.1060  144.7320 C   0  0  0  0  0  2  0  0  0  0  0  0
  160.4970  202.8090  146.5500 C   0  0  0  0  0  2  0  0  0  0  0  0
  161.0980  208.0930  151.9360 C   0  0  2  0  0  3  0  0  0  0  0  0
  161.5550  211.1160  151.3640 C   0  0  0  0  0  2  0  0  0  0  0  0
  162.2480  206.4340  148.6530 C   0  0  0  0  0  2  0  0  0  0  0  0
  161.3550  202.9690  147.7950 C   0  0  0  0  0  2  0  0  0  0  0  0
  161.9850  207.9040  150.7040 C   0  0  1  0  0  3  0  0  0  0  0  0
  161.4200  208.5390  154.2970 C   0  0  0  0  0  2  0  0  0  0  0  0
  161.0070  204.2730  148.5120 C   0  0  1  0  0  3  0  0  0  0  0  0
  161.3260  202.9500  145.2760 C   0  0  0  0  0  2  0  0  0  0  0  0
  161.0800  210.5050  152.6870 C   0  0  2  0  0  3  0  0  0  0  0  0
  161.2160  205.5020  150.6990 C   0  0  0  0  0  0  0  0  0  0  0  0
  160.5910  206.0610  147.0000 C   0  0  0  0  0  2  0  0  0  0  0  0
  161.3880  206.7600  149.8760 C   0  0  2  0  0  3  0  0  0  0  0  0
  161.0780  203.0320  152.1640 C   0  0  0  0  0  2  0  0  0  0  0  0
  161.1550  210.2980  150.1320 C   0  0  0  0  0  2  0  0  0  0  0  0
  160.6330  203.0640  150.7110 C   0  0  0  0  0  2  0  0  0  0  0  0
  162.1710  209.1870  149.8680 C   0  0  0  0  0  2  0  0  0  0  0  0
  161.6760  209.1050  152.9040 C   0  0  2  0  0  3  0  0  0  0  0  0
  160.6930  204.3370  152.8540 C   0  0  0  0  0  2  0  0  0  0  0  0
  160.9990  206.8550  152.6810 N   0  0  0  0  0  0  0  0  0  0  0  0
  159.5540  210.5440  152.7760 C   0  0  0  0  0  2  0  0  0  0  0  0
  159.1090  211.4980  153.8710 C   0  0  0  0  0  2  0  0  0  0  0  0
  157.2640  213.9570  152.1660 N   0  0  0  0  0  2  0  0  0  0  0  0
  158.3300  213.8240  154.2940 C   0  0  0  0  0  2  0  0  0  0  0  0
  159.0920  212.9250  153.3510 C   0  0  2  0  0  3  0  0  0  0  0  0
  157.0200  214.0930  153.5920 C   0  0  0  0  0  2  0  0  0  0  0  0
  158.3270  212.9690  152.0420 C   0  0  0  0  0  2  0  0  0  0  0  0
  1 27  1  0  0  0  0
  1 26  1  0  0  0  0
  2 14  1  0  0  0  0
  3 16  1  0  0  0  0
  4 18  1  0  0  0  0
  4 23  1  1  0  0  0
  5 19  1  1  0  0  0
  5 15  1  0  0  0  0
  5 11  1  0  0  0  0
  6 19  1  0  0  0  0
  7  3  1  0  0  0  0
  7  6  1  0  0  0  0
  8 12  1  0  0  0  0
  9 27  1  1  0  0  0
  9 25  1  0  0  0  0
 10 17  1  0  0  0  0
 13 24  1  6  0  0  0
 13  9  1  0  0  0  0
 15 12  1  6  0  0  0
 15  4  1  0  0  0  0
 16  8  1  0  0  0  0
 17 28  1  6  0  0  0
 17 25  1  0  0  0  0
 18  1  2  0  0  0  0
 20 11  1  6  0  0  0
 20 18  1  0  0  0  0
 20 13  1  0  0  0  0
 21 26  1  0  0  0  0
 22 10  1  0  0  0  0
 23 21  1  0  0  0  0
 24 22  1  0  0  0  0
 25 14  1  1  0  0  0
 27  2  1  0  0  0  0
 28 29  1  0  0  0  0
 30 33  1  0  0  0  0
 32 29  1  1  0  0  0
 32 31  1  0  0  0  0
 33 31  1  0  0  0  0
 34 30  1  0  0  0  0
 34 32  1  0  0  0  0
M  END
>  <MODEL>
2

>  <REMARK>
 VINA RESULT:      -8.3      0.920      1.103
  Name = 
  3 active torsions:
  status: ('A' for Active; 'I' for Inactive)
    1  A    between atoms: C_17  and  C_28
    2  A    between atoms: C_28  and  C_29
    3  A    between atoms: C_29  and  C_32
                            x       y       z     vdW  Elec       q    Type
                         _______ _______ _______ _____ _____    ______ ____

>  <TORSDO>
F 3

$$$$
=
 OpenBabel11122414293D

 34 40  0  0  1  0  0  0  0  0999 V2000
  160.0110  211.8600  151.9070 C   0  0  0  0  0  0  0  0  0  0  0  0
  161.9400  210.5560  150.8740 C   0  0  0  0  0  2  0  0  0  0  0  0
  155.7750  213.5580  157.2230 O   0  0  0  0  0  0  0  0  0  0  0  0
  158.5550  213.3160  153.3250 C   0  0  1  0  0  3  0  0  0  0  0  0
  157.5450  212.2490  155.3940 N   0  0  1  0  0  0  0  0  0  0  0  0
  155.9510  211.1880  156.9200 C   0  0  0  0  0  2  0  0  0  0  0  0
  155.0460  212.3650  157.2600 C   0  0  0  0  0  2  0  0  0  0  0  0
  155.2510  214.2870  154.9740 C   0  0  0  0  0  2  0  0  0  0  0  0
  160.6650  209.5370  152.6500 C   0  0  2  0  0  3  0  0  0  0  0  0
  161.3780  206.8730  154.0890 C   0  0  0  0  0  2  0  0  0  0  0  0
  158.8180  211.5080  155.3980 C   0  0  0  0  0  2  0  0  0  0  0  0
  156.7250  214.4360  154.6340 C   0  0  0  0  0  2  0  0  0  0  0  0
  160.3990  210.0320  154.0720 C   0  0  1  0  0  3  0  0  0  0  0  0
  162.5950  209.2240  151.2160 C   0  0  0  0  0  2  0  0  0  0  0  0
  157.3050  213.0910  154.2000 C   0  0  1  0  0  3  0  0  0  0  0  0
  155.0020  214.4530  156.4710 C   0  0  0  0  0  2  0  0  0  0  0  0
  161.7830  207.2710  152.6650 C   0  0  2  0  0  3  0  0  0  0  0  0
  159.2410  212.0070  153.0120 C   0  0  0  0  0  0  0  0  0  0  0  0
  156.4610  211.2770  155.4860 C   0  0  0  0  0  2  0  0  0  0  0  0
  159.1320  210.8940  154.0320 C   0  0  2  0  0  3  0  0  0  0  0  0
  159.4950  214.2620  151.2480 C   0  0  0  0  0  2  0  0  0  0  0  0
  160.0590  207.5010  154.5500 C   0  0  0  0  0  2  0  0  0  0  0  0
  158.2160  214.0810  152.0480 C   0  0  0  0  0  2  0  0  0  0  0  0
  160.2960  208.9010  155.1160 C   0  0  0  0  0  2  0  0  0  0  0  0
  161.9790  208.7910  152.5430 C   0  0  2  0  0  3  0  0  0  0  0  0
  160.0320  212.9020  150.8110 C   0  0  0  0  0  2  0  0  0  0  0  0
  160.7780  210.6560  151.7390 N   0  0  0  0  0  0  0  0  0  0  0  0
  160.7980  206.6940  151.6490 C   0  0  0  0  0  2  0  0  0  0  0  0
  161.4070  205.4990  150.9370 C   0  0  0  0  0  2  0  0  0  0  0  0
  160.8690  205.7690  147.4730 N   0  0  0  0  0  2  0  0  0  0  0  0
  161.1830  203.9600  148.9930 C   0  0  0  0  0  2  0  0  0  0  0  0
  160.5370  205.0870  149.7620 C   0  0  2  0  0  3  0  0  0  0  0  0
  161.6990  204.6030  147.7290 C   0  0  0  0  0  2  0  0  0  0  0  0
  160.4430  206.2420  148.7830 C   0  0  0  0  0  2  0  0  0  0  0  0
  1 18  2  0  0  0  0
  2 14  1  0  0  0  0
  2 27  1  0  0  0  0
  3  7  1  0  0  0  0
  4 23  1  6  0  0  0
  4 15  1  0  0  0  0
  5 11  1  6  0  0  0
  5 19  1  0  0  0  0
  6  7  1  0  0  0  0
  8 16  1  0  0  0  0
  9 27  1  6  0  0  0
  9 13  1  0  0  0  0
 10 22  1  0  0  0  0
 12  8  1  0  0  0  0
 13 24  1  1  0  0  0
 15 12  1  1  0  0  0
 15  5  1  0  0  0  0
 16  3  1  0  0  0  0
 17 28  1  6  0  0  0
 17 10  1  0  0  0  0
 18  4  1  0  0  0  0
 18 20  1  0  0  0  0
 19  6  1  0  0  0  0
 20 13  1  0  0  0  0
 20 11  1  1  0  0  0
 21 23  1  0  0  0  0
 22 24  1  0  0  0  0
 25 14  1  6  0  0  0
 25  9  1  0  0  0  0
 25 17  1  0  0  0  0
 26 21  1  0  0  0  0
 26  1  1  0  0  0  0
 27  1  1  0  0  0  0
 29 28  1  0  0  0  0
 30 33  1  0  0  0  0
 30 34  1  0  0  0  0
 31 32  1  0  0  0  0
 32 29  1  1  0  0  0
 33 31  1  0  0  0  0
 34 32  1  0  0  0  0
M  END
>  <MODEL>
3

>  <REMARK>
 VINA RESULT:      -7.5      3.285      9.639
  Name = 
  3 active torsions:
  status: ('A' for Active; 'I' for Inactive)
    1  A    between atoms: C_17  and  C_28
    2  A    between atoms: C_28  and  C_29
    3  A    between atoms: C_29  and  C_32
                            x       y       z     vdW  Elec       q    Type
                         _______ _______ _______ _____ _____    ______ ____

>  <TORSDO>
F 3

$$$$
=
 OpenBabel11122414293D

 34 40  0  0  1  0  0  0  0  0999 V2000
  160.8300  210.8340  151.0740 C   0  0  0  0  0  0  0  0  0  0  0  0
  162.2400  209.1580  149.7730 C   0  0  0  0  0  2  0  0  0  0  0  0
  158.1300  213.4440  156.9880 O   0  0  0  0  0  0  0  0  0  0  0  0
  159.9790  212.5770  152.6520 C   0  0  1  0  0  3  0  0  0  0  0  0
  159.2270  211.7750  154.9380 N   0  0  1  0  0  0  0  0  0  0  0  0
  157.8040  211.0770  156.8050 C   0  0  0  0  0  2  0  0  0  0  0  0
  157.2170  212.4140  157.2390 C   0  0  0  0  0  2  0  0  0  0  0  0
  157.3080  214.2050  154.8410 C   0  0  0  0  0  2  0  0  0  0  0  0
  161.1830  208.4470  151.8210 C   0  0  2  0  0  3  0  0  0  0  0  0
  161.6690  205.7330  153.2590 C   0  0  0  0  0  2  0  0  0  0  0  0
  160.3170  210.8040  154.7440 C   0  0  0  0  0  2  0  0  0  0  0  0
  158.6860  214.0590  154.2160 C   0  0  0  0  0  2  0  0  0  0  0  0
  161.3030  209.0200  153.2340 C   0  0  1  0  0  3  0  0  0  0  0  0
  162.6950  207.7350  150.0650 C   0  0  0  0  0  2  0  0  0  0  0  0
  158.9110  212.6170  153.7630 C   0  0  1  0  0  3  0  0  0  0  0  0
  157.3990  214.4520  156.3450 C   0  0  0  0  0  2  0  0  0  0  0  0
  161.8470  206.0100  151.7610 C   0  0  2  0  0  3  0  0  0  0  0  0
  160.3380  211.1530  152.2950 C   0  0  0  0  0  0  0  0  0  0  0  0
  158.0240  211.0310  155.2970 C   0  0  0  0  0  2  0  0  0  0  0  0
  160.2330  210.1070  153.3840 C   0  0  2  0  0  3  0  0  0  0  0  0
  160.6420  213.2730  150.3780 C   0  0  0  0  0  2  0  0  0  0  0  0
  160.6070  206.6130  153.9240 C   0  0  0  0  0  2  0  0  0  0  0  0
  159.5380  213.3600  151.4190 C   0  0  0  0  0  2  0  0  0  0  0  0
  161.2050  207.9550  154.3470 C   0  0  0  0  0  2  0  0  0  0  0  0
  162.2890  207.4600  151.5090 C   0  0  2  0  0  3  0  0  0  0  0  0
  160.8220  211.8250  149.9320 C   0  0  0  0  0  2  0  0  0  0  0  0
  161.3140  209.5010  150.8370 N   0  0  0  0  0  0  0  0  0  0  0  0
  160.5890  205.6080  150.9910 C   0  0  0  0  0  2  0  0  0  0  0  0
  160.3140  204.1240  151.1590 C   0  0  0  0  0  2  0  0  0  0  0  0
  160.8560  201.2580  149.1960 N   0  0  0  0  0  2  0  0  0  0  0  0
  161.2060  203.5970  148.8960 C   0  0  0  0  0  2  0  0  0  0  0  0
  161.3260  203.3090  150.3730 C   0  0  2  0  0  3  0  0  0  0  0  0
  160.5370  202.3730  148.3190 C   0  0  0  0  0  2  0  0  0  0  0  0
  161.0050  201.8350  150.5250 C   0  0  0  0  0  2  0  0  0  0  0  0
  1 18  2  0  0  0  0
  2 14  1  0  0  0  0
  2 27  1  0  0  0  0
  3  7  1  0  0  0  0
  4 23  1  6  0  0  0
  4 15  1  0  0  0  0
  5 11  1  6  0  0  0
  5 19  1  0  0  0  0
  6  7  1  0  0  0  0
  8 16  1  0  0  0  0
  9 27  1  6  0  0  0
  9 13  1  0  0  0  0
 10 22  1  0  0  0  0
 12  8  1  0  0  0  0
 13 20  1  0  0  0  0
 13 24  1  1  0  0  0
 15 12  1  1  0  0  0
 15  5  1  0  0  0  0
 16  3  1  0  0  0  0
 17 28  1  6  0  0  0
 17 10  1  0  0  0  0
 18  4  1  0  0  0  0
 18 20  1  0  0  0  0
 19  6  1  0  0  0  0
 20 11  1  1  0  0  0
 21 23  1  0  0  0  0
 22 24  1  0  0  0  0
 25 14  1  6  0  0  0
 25 17  1  0  0  0  0
 25  9  1  0  0  0  0
 26 21  1  0  0  0  0
 26  1  1  0  0  0  0
 27  1  1  0  0  0  0
 28 29  1  0  0  0  0
 30 34  1  0  0  0  0
 31 32  1  0  0  0  0
 32 34  1  0  0  0  0
 32 29  1  1  0  0  0
 33 31  1  0  0  0  0
 33 30  1  0  0  0  0
M  END
>  <MODEL>
4

>  <REMARK>
 VINA RESULT:      -7.3      3.304      9.399
  Name = 
  3 active torsions:
  status: ('A' for Active; 'I' for Inactive)
    1  A    between atoms: C_17  and  C_28
    2  A    between atoms: C_28  and  C_29
    3  A    between atoms: C_29  and  C_32
                            x       y       z     vdW  Elec       q    Type
                         _______ _______ _______ _____ _____    ______ ____

>  <TORSDO>
F 3

$$$$
=
 OpenBabel11122414293D

 34 40  0  0  1  0  0  0  0  0999 V2000
  160.9310  210.7640  151.0230 C   0  0  0  0  0  0  0  0  0  0  0  0
  162.4880  209.0820  149.9130 C   0  0  0  0  0  2  0  0  0  0  0  0
  157.5940  213.4550  156.5640 O   0  0  0  0  0  0  0  0  0  0  0  0
  159.9010  212.5270  152.4660 C   0  0  1  0  0  3  0  0  0  0  0  0
  158.9180  211.7600  154.6770 N   0  0  1  0  0  0  0  0  0  0  0  0
  157.3140  211.0820  156.3970 C   0  0  0  0  0  2  0  0  0  0  0  0
  156.6700  212.4190  156.7390 C   0  0  0  0  0  2  0  0  0  0  0  0
  156.9960  214.1640  154.3270 C   0  0  0  0  0  2  0  0  0  0  0  0
  161.2270  208.3970  151.8520 C   0  0  2  0  0  3  0  0  0  0  0  0
  161.5860  205.7170  153.3890 C   0  0  0  0  0  2  0  0  0  0  0  0
  160.0330  210.7990  154.6180 C   0  0  0  0  0  2  0  0  0  0  0  0
  158.4340  214.0240  153.8540 C   0  0  0  0  0  2  0  0  0  0  0  0
  161.1910  208.9980  153.2580 C   0  0  1  0  0  3  0  0  0  0  0  0
  162.9240  207.6690  150.2810 C   0  0  0  0  0  2  0  0  0  0  0  0
  158.7210  212.5760  153.4570 C   0  0  1  0  0  3  0  0  0  0  0  0
  156.9250  214.4420  155.8270 C   0  0  0  0  0  2  0  0  0  0  0  0
  161.9190  205.9680  151.9140 C   0  0  2  0  0  3  0  0  0  0  0  0
  160.3090  211.1010  152.1790 C   0  0  0  0  0  0  0  0  0  0  0  0
  157.6920  211.0090  154.9220 C   0  0  0  0  0  2  0  0  0  0  0  0
  160.1010  210.0750  153.2720 C   0  0  2  0  0  3  0  0  0  0  0  0
  160.7930  213.1870  150.2610 C   0  0  0  0  0  2  0  0  0  0  0  0
  160.4510  206.5970  153.9210 C   0  0  0  0  0  2  0  0  0  0  0  0
  159.5840  213.2810  151.1770 C   0  0  0  0  0  2  0  0  0  0  0  0
  160.9880  207.9550  154.3760 C   0  0  0  0  0  2  0  0  0  0  0  0
  162.3700  207.4180  151.6800 C   0  0  2  0  0  3  0  0  0  0  0  0
  161.0330  211.7330  149.8660 C   0  0  0  0  0  2  0  0  0  0  0  0
  161.4510  209.4330  150.8660 N   0  0  0  0  0  0  0  0  0  0  0  0
  160.7540  205.5360  151.0230 C   0  0  0  0  0  2  0  0  0  0  0  0
  161.1570  204.3560  150.1560 C   0  0  0  0  0  2  0  0  0  0  0  0
  161.6530  206.0900  147.1380 N   0  0  0  0  0  2  0  0  0  0  0  0
  161.5420  203.7920  147.7620 C   0  0  0  0  0  2  0  0  0  0  0  0
  160.6780  204.5650  148.7290 C   0  0  2  0  0  3  0  0  0  0  0  0
  162.3940  204.8400  147.0870 C   0  0  0  0  0  2  0  0  0  0  0  0
  160.8530  206.0230  148.3530 C   0  0  0  0  0  2  0  0  0  0  0  0
  1 18  2  0  0  0  0
  2 14  1  0  0  0  0
  2 27  1  0  0  0  0
  3  7  1  0  0  0  0
  4 23  1  6  0  0  0
  4 15  1  0  0  0  0
  5 11  1  6  0  0  0
  5 19  1  0  0  0  0
  6  7  1  0  0  0  0
  8 16  1  0  0  0  0
  9 27  1  6  0  0  0
  9 13  1  0  0  0  0
 10 22  1  0  0  0  0
 12  8  1  0  0  0  0
 13 20  1  0  0  0  0
 13 24  1  1  0  0  0
 15 12  1  1  0  0  0
 15  5  1  0  0  0  0
 16  3  1  0  0  0  0
 17 28  1  6  0  0  0
 17 10  1  0  0  0  0
 18  4  1  0  0  0  0
 18 20  1  0  0  0  0
 19  6  1  0  0  0  0
 20 11  1  1  0  0  0
 21 23  1  0  0  0  0
 22 24  1  0  0  0  0
 25 14  1  6  0  0  0
 25  9  1  0  0  0  0
 25 17  1  0  0  0  0
 26 21  1  0  0  0  0
 26  1  1  0  0  0  0
 27  1  1  0  0  0  0
 29 28  1  0  0  0  0
 30 34  1  0  0  0  0
 31 32  1  0  0  0  0
 32 29  1  1  0  0  0
 33 30  1  0  0  0  0
 33 31  1  0  0  0  0
 34 32  1  0  0  0  0
M  END
>  <MODEL>
5

>  <REMARK>
 VINA RESULT:      -7.1      2.994      9.162
  Name = 
  3 active torsions:
  status: ('A' for Active; 'I' for Inactive)
    1  A    between atoms: C_17  and  C_28
    2  A    between atoms: C_28  and  C_29
    3  A    between atoms: C_29  and  C_32
                            x       y       z     vdW  Elec       q    Type
                         _______ _______ _______ _____ _____    ______ ____

>  <TORSDO>
F 3

$$$$
=
 OpenBabel11122414293D

 34 40  0  0  1  0  0  0  0  0999 V2000
  160.8840  207.2680  152.8060 C   0  0  0  0  0  0  0  0  0  0  0  0
  160.9070  209.1840  154.4840 C   0  0  0  0  0  2  0  0  0  0  0  0
  162.2130  204.4710  146.5220 O   0  0  0  0  0  0  0  0  0  0  0  0
  161.4730  205.4940  151.1460 C   0  0  1  0  0  3  0  0  0  0  0  0
  161.6350  206.2130  148.7180 N   0  0  1  0  0  0  0  0  0  0  0  0
  161.0870  206.5790  146.3600 C   0  0  0  0  0  2  0  0  0  0  0  0
  161.2370  205.1700  145.8030 C   0  0  0  0  0  2  0  0  0  0  0  0
  160.7980  203.2960  148.0970 C   0  0  0  0  0  2  0  0  0  0  0  0
  160.7380  209.6980  152.1330 C   0  0  2  0  0  3  0  0  0  0  0  0
  160.9120  212.5420  150.8870 C   0  0  0  0  0  2  0  0  0  0  0  0
  162.1300  207.4620  149.3210 C   0  0  0  0  0  2  0  0  0  0  0  0
  161.6040  203.8210  149.2750 C   0  0  0  0  0  2  0  0  0  0  0  0
  161.6710  209.3250  150.9810 C   0  0  1  0  0  3  0  0  0  0  0  0
  160.9520  210.6990  154.3310 C   0  0  0  0  0  2  0  0  0  0  0  0
  161.1110  205.2110  149.6740 C   0  0  1  0  0  3  0  0  0  0  0  0
  161.6430  203.2270  146.8270 C   0  0  0  0  0  2  0  0  0  0  0  0
  160.4640  212.2030  152.3130 C   0  0  2  0  0  3  0  0  0  0  0  0
  161.1400  206.9190  151.5220 C   0  0  0  0  0  0  0  0  0  0  0  0
  160.5620  206.5580  147.7920 C   0  0  0  0  0  2  0  0  0  0  0  0
  161.2110  207.9690  150.4340 C   0  0  2  0  0  3  0  0  0  0  0  0
  161.2070  204.8460  153.5130 C   0  0  0  0  0  2  0  0  0  0  0  0
  160.6270  211.4310  149.8730 C   0  0  0  0  0  2  0  0  0  0  0  0
  160.7990  204.5020  152.0900 C   0  0  0  0  0  2  0  0  0  0  0  0
  161.7530  210.3960  149.8740 C   0  0  0  0  0  2  0  0  0  0  0  0
  161.1880  210.9570  152.8460 C   0  0  2  0  0  3  0  0  0  0  0  0
  160.6780  206.2280  153.8850 C   0  0  0  0  0  2  0  0  0  0  0  0
  160.7400  208.6590  153.1410 N   0  0  0  0  0  0  0  0  0  0  0  0
  158.9400  212.1070  152.3860 C   0  0  0  0  0  2  0  0  0  0  0  0
  158.3590  213.3480  153.0400 C   0  0  0  0  0  2  0  0  0  0  0  0
  157.5610  211.1680  155.6800 N   0  0  0  0  0  2  0  0  0  0  0  0
  157.6900  213.5350  155.4310 C   0  0  0  0  0  2  0  0  0  0  0  0
  157.3260  212.9590  154.0840 C   0  0  2  0  0  3  0  0  0  0  0  0
  158.1930  212.3560  156.2290 C   0  0  0  0  0  2  0  0  0  0  0  0
  157.3470  211.4540  154.2680 C   0  0  0  0  0  2  0  0  0  0  0  0
  1 27  1  0  0  0  0
  1 26  1  0  0  0  0
  3 16  1  0  0  0  0
  4 18  1  0  0  0  0
  4 23  1  1  0  0  0
  5 19  1  6  0  0  0
  5 11  1  0  0  0  0
  5 15  1  0  0  0  0
  6 19  1  0  0  0  0
  7  6  1  0  0  0  0
  7  3  1  0  0  0  0
  8 12  1  0  0  0  0
  9 25  1  0  0  0  0
  9 27  1  1  0  0  0
 10 17  1  0  0  0  0
 13 24  1  6  0  0  0
 13  9  1  0  0  0  0
 14  2  1  0  0  0  0
 15 12  1  6  0  0  0
 15  4  1  0  0  0  0
 16  8  1  0  0  0  0
 17 28  1  6  0  0  0
 17 25  1  0  0  0  0
 18  1  2  0  0  0  0
 20 11  1  6  0  0  0
 20 13  1  0  0  0  0
 20 18  1  0  0  0  0
 21 26  1  0  0  0  0
 22 24  1  0  0  0  0
 22 10  1  0  0  0  0
 23 21  1  0  0  0  0
 25 14  1  1  0  0  0
 27  2  1  0  0  0  0
 28 29  1  0  0  0  0
 30 33  1  0  0  0  0
 31 33  1  0  0  0  0
 32 29  1  6  0  0  0
 32 34  1  0  0  0  0
 32 31  1  0  0  0  0
 34 30  1  0  0  0  0
M  END
>  <MODEL>
6

>  <REMARK>
 VINA RESULT:      -7.0      1.188      1.748
  Name = 
  3 active torsions:
  status: ('A' for Active; 'I' for Inactive)
    1  A    between atoms: C_17  and  C_28
    2  A    between atoms: C_28  and  C_29
    3  A    between atoms: C_29  and  C_32
                            x       y       z     vdW  Elec       q    Type
                         _______ _______ _______ _____ _____    ______ ____

>  <TORSDO>
F 3

$$$$
=
 OpenBabel11122414293D

 34 40  0  0  1  0  0  0  0  0999 V2000
  161.0340  210.8350  150.2390 C   0  0  0  0  0  0  0  0  0  0  0  0
  162.5080  209.1640  149.0050 C   0  0  0  0  0  2  0  0  0  0  0  0
  158.0680  213.4480  156.0240 O   0  0  0  0  0  0  0  0  0  0  0  0
  160.1060  212.5780  151.7730 C   0  0  1  0  0  3  0  0  0  0  0  0
  159.2610  211.7790  154.0290 N   0  0  1  0  0  0  0  0  0  0  0  0
  157.7650  211.0790  155.8360 C   0  0  0  0  0  2  0  0  0  0  0  0
  157.1520  212.4130  156.2400 C   0  0  0  0  0  2  0  0  0  0  0  0
  157.3330  214.1960  153.8410 C   0  0  0  0  0  2  0  0  0  0  0  0
  161.3690  208.4530  151.0090 C   0  0  2  0  0  3  0  0  0  0  0  0
  161.8100  205.7470  152.4760 C   0  0  0  0  0  2  0  0  0  0  0  0
  160.3640  210.8140  153.8840 C   0  0  0  0  0  2  0  0  0  0  0  0
  158.7380  214.0570  153.2760 C   0  0  0  0  0  2  0  0  0  0  0  0
  161.4250  209.0310  152.4240 C   0  0  1  0  0  3  0  0  0  0  0  0
  162.9590  207.7440  149.3220 C   0  0  0  0  0  2  0  0  0  0  0  0
  158.9910  212.6150  152.8380 C   0  0  1  0  0  3  0  0  0  0  0  0
  157.3590  214.4490  155.3470 C   0  0  0  0  0  2  0  0  0  0  0  0
  162.0490  206.0200  150.9870 C   0  0  2  0  0  3  0  0  0  0  0  0
  160.4880  211.1550  151.4380 C   0  0  0  0  0  0  0  0  0  0  0  0
  158.0490  211.0290  154.3390 C   0  0  0  0  0  2  0  0  0  0  0  0
  160.3430  210.1120  152.5250 C   0  0  2  0  0  3  0  0  0  0  0  0
  160.8600  213.2710  149.5280 C   0  0  0  0  0  2  0  0  0  0  0  0
  160.7160  206.6230  153.0930 C   0  0  0  0  0  2  0  0  0  0  0  0
  159.7120  213.3550  150.5200 C   0  0  0  0  0  2  0  0  0  0  0  0
  161.2870  207.9700  153.5350 C   0  0  0  0  0  2  0  0  0  0  0  0
  162.4930  207.4720  150.7490 C   0  0  2  0  0  3  0  0  0  0  0  0
  161.0670  211.8230  149.0940 C   0  0  0  0  0  2  0  0  0  0  0  0
  161.5350  209.5050  150.0280 N   0  0  0  0  0  0  0  0  0  0  0  0
  160.8280  205.6080  150.1650 C   0  0  0  0  0  2  0  0  0  0  0  0
  161.1790  204.4650  149.2290 C   0  0  0  0  0  2  0  0  0  0  0  0
  160.7850  200.9810  148.9620 N   0  0  0  0  0  2  0  0  0  0  0  0
  160.6740  202.5580  150.7470 C   0  0  0  0  0  2  0  0  0  0  0  0
  160.2670  203.2770  149.4840 C   0  0  2  0  0  3  0  0  0  0  0  0
  161.3420  201.2920  150.2680 C   0  0  0  0  0  2  0  0  0  0  0  0
  160.4410  202.2660  148.3680 C   0  0  0  0  0  2  0  0  0  0  0  0
  1 18  2  0  0  0  0
  2 14  1  0  0  0  0
  2 27  1  0  0  0  0
  3  7  1  0  0  0  0
  4 23  1  6  0  0  0
  4 15  1  0  0  0  0
  5 11  1  6  0  0  0
  5 19  1  0  0  0  0
  6  7  1  0  0  0  0
  8 16  1  0  0  0  0
  9 27  1  6  0  0  0
  9 13  1  0  0  0  0
 10 22  1  0  0  0  0
 12  8  1  0  0  0  0
 13 20  1  0  0  0  0
 13 24  1  1  0  0  0
 15 12  1  1  0  0  0
 15  5  1  0  0  0  0
 16  3  1  0  0  0  0
 17 28  1  6  0  0  0
 17 10  1  0  0  0  0
 18  4  1  0  0  0  0
 18 20  1  0  0  0  0
 19  6  1  0  0  0  0
 20 11  1  1  0  0  0
 21 23  1  0  0  0  0
 22 24  1  0  0  0  0
 25 14  1  6  0  0  0
 25 17  1  0  0  0  0
 25  9  1  0  0  0  0
 26 21  1  0  0  0  0
 26  1  1  0  0  0  0
 27  1  1  0  0  0  0
 29 28  1  0  0  0  0
 30 33  1  0  0  0  0
 32 29  1  6  0  0  0
 32 31  1  0  0  0  0
 33 31  1  0  0  0  0
 34 30  1  0  0  0  0
 34 32  1  0  0  0  0
M  END
>  <MODEL>
7

>  <REMARK>
 VINA RESULT:      -6.2      3.226      9.211
  Name = 
  3 active torsions:
  status: ('A' for Active; 'I' for Inactive)
    1  A    between atoms: C_17  and  C_28
    2  A    between atoms: C_28  and  C_29
    3  A    between atoms: C_29  and  C_32
                            x       y       z     vdW  Elec       q    Type
                         _______ _______ _______ _____ _____    ______ ____

>  <TORSDO>
F 3

$$$$
=
 OpenBabel11122414293D

 34 40  0  0  1  0  0  0  0  0999 V2000
  161.5800  207.4610  149.7860 C   0  0  0  0  0  0  0  0  0  0  0  0
  162.0560  205.8650  147.8590 C   0  0  0  0  0  2  0  0  0  0  0  0
  161.2970  209.1090  156.5890 O   0  0  0  0  0  0  0  0  0  0  0  0
  161.7040  208.9130  151.8170 C   0  0  1  0  0  3  0  0  0  0  0  0
  161.3090  207.7810  154.0540 N   0  0  1  0  0  0  0  0  0  0  0  0
  160.2290  207.0180  156.1140 C   0  0  0  0  0  2  0  0  0  0  0  0
  160.2000  208.3080  156.9230 C   0  0  0  0  0  2  0  0  0  0  0  0
  160.2620  210.5570  154.9470 C   0  0  0  0  0  2  0  0  0  0  0  0
  161.3510  204.9530  149.9770 C   0  0  2  0  0  3  0  0  0  0  0  0
  161.3090  201.9340  150.7230 C   0  0  0  0  0  2  0  0  0  0  0  0
  161.9700  206.6510  153.3810 C   0  0  0  0  0  2  0  0  0  0  0  0
  161.3390  210.2340  153.9230 C   0  0  0  0  0  2  0  0  0  0  0  0
  161.9730  205.1090  151.3660 C   0  0  1  0  0  3  0  0  0  0  0  0
  162.1090  204.3460  147.7560 C   0  0  0  0  0  2  0  0  0  0  0  0
  160.9970  208.9400  153.1860 C   0  0  1  0  0  3  0  0  0  0  0  0
  160.7790  210.3930  156.3740 C   0  0  0  0  0  2  0  0  0  0  0  0
  161.2020  202.5210  149.3100 C   0  0  2  0  0  3  0  0  0  0  0  0
  161.5140  207.5790  151.1340 C   0  0  0  0  0  0  0  0  0  0  0  0
  160.0580  207.2940  154.6240 C   0  0  0  0  0  2  0  0  0  0  0  0
  161.3560  206.3550  152.0100 C   0  0  2  0  0  3  0  0  0  0  0  0
  161.9880  209.9650  149.6020 C   0  0  0  0  0  2  0  0  0  0  0  0
  160.7590  202.8560  151.8140 C   0  0  0  0  0  2  0  0  0  0  0  0
  161.2440  210.0620  150.9240 C   0  0  0  0  0  2  0  0  0  0  0  0
  161.8220  203.8610  152.2590 C   0  0  0  0  0  2  0  0  0  0  0  0
  161.9940  203.8320  149.1870 C   0  0  2  0  0  3  0  0  0  0  0  0
  161.6030  208.6740  148.8840 C   0  0  0  0  0  2  0  0  0  0  0  0
  161.5610  206.1510  149.1920 N   0  0  0  0  0  0  0  0  0  0  0  0
  159.7360  202.6460  148.8940 C   0  0  0  0  0  2  0  0  0  0  0  0
  159.4140  201.6660  147.7810 C   0  0  0  0  0  2  0  0  0  0  0  0
  161.1830  199.4840  145.6660 N   0  0  0  0  0  2  0  0  0  0  0  0
  160.2010  201.6420  145.4190 C   0  0  0  0  0  2  0  0  0  0  0  0
  160.6130  201.4970  146.8640 C   0  0  2  0  0  3  0  0  0  0  0  0
  160.2280  200.2370  144.8700 C   0  0  0  0  0  2  0  0  0  0  0  0
  161.1440  200.0830  146.9930 C   0  0  0  0  0  2  0  0  0  0  0  0
  1 18  2  0  0  0  0
  2 27  1  0  0  0  0
  3  7  1  0  0  0  0
  4 23  1  6  0  0  0
  4 15  1  0  0  0  0
  5 11  1  6  0  0  0
  5 19  1  0  0  0  0
  6  7  1  0  0  0  0
  8 16  1  0  0  0  0
  9 27  1  6  0  0  0
  9 13  1  0  0  0  0
 10 22  1  0  0  0  0
 12  8  1  0  0  0  0
 13 20  1  0  0  0  0
 13 24  1  1  0  0  0
 14  2  1  0  0  0  0
 15 12  1  1  0  0  0
 15  5  1  0  0  0  0
 16  3  1  0  0  0  0
 17 28  1  1  0  0  0
 17 10  1  0  0  0  0
 18  4  1  0  0  0  0
 18 20  1  0  0  0  0
 19  6  1  0  0  0  0
 20 11  1  1  0  0  0
 21 23  1  0  0  0  0
 22 24  1  0  0  0  0
 25 14  1  6  0  0  0
 25 17  1  0  0  0  0
 25  9  1  0  0  0  0
 26 21  1  0  0  0  0
 26  1  1  0  0  0  0
 27  1  1  0  0  0  0
 29 28  1  0  0  0  0
 30 34  1  0  0  0  0
 31 32  1  0  0  0  0
 32 34  1  0  0  0  0
 32 29  1  1  0  0  0
 33 31  1  0  0  0  0
 33 30  1  0  0  0  0
M  END
>  <MODEL>
8

>  <REMARK>
 VINA RESULT:      -6.2      3.013      9.258
  Name = 
  3 active torsions:
  status: ('A' for Active; 'I' for Inactive)
    1  A    between atoms: C_17  and  C_28
    2  A    between atoms: C_28  and  C_29
    3  A    between atoms: C_29  and  C_32
                            x       y       z     vdW  Elec       q    Type
                         _______ _______ _______ _____ _____    ______ ____

>  <TORSDO>
F 3

$$$$
