=
 OpenBabel11122414173D

 34 40  0  0  1  0  0  0  0  0999 V2000
  160.8490  204.7900  151.7850 C   0  0  0  0  0  0  0  0  0  0  0  0
  161.0150  206.0970  153.9490 C   0  0  0  0  0  2  0  0  0  0  0  0
  162.4790  204.4900  145.4900 C   0  0  1  0  0  3  0  0  0  0  0  0
  161.1420  203.6760  149.6730 C   0  0  0  0  0  0  0  0  0  0  0  0
  161.0940  205.1700  147.6560 C   0  0  2  0  0  3  0  0  0  0  0  0
  160.2220  205.6300  145.3430 C   0  0  0  0  0  1  0  0  0  0  0  0
  163.8940  204.9010  145.8430 C   0  0  0  0  0  1  0  0  0  0  0  0
  160.9210  202.6750  145.9380 C   0  0  0  0  0  2  0  0  0  0  0  0
  160.5510  207.2960  151.8900 C   0  0  2  0  0  3  0  0  0  0  0  0
  161.8970  210.1140  151.7460 C   0  0  0  0  0  2  0  0  0  0  0  0
  161.6890  206.1340  148.4930 O   0  0  0  0  0  0  0  0  0  0  0  0
  160.5910  202.6780  147.4320 C   0  0  0  0  0  2  0  0  0  0  0  0
  161.3440  207.3420  150.5660 C   0  0  1  0  0  3  0  0  0  0  0  0
  160.9640  207.5770  154.2820 C   0  0  0  0  0  2  0  0  0  0  0  0
  161.3850  203.7470  148.1870 C   0  0  2  0  0  3  0  0  0  0  0  0
  162.3170  203.0450  145.7260 N   0  0  0  0  0  2  0  0  0  0  0  0
  162.1980  209.0170  152.6600 N   0  0  0  0  0  0  0  0  0  0  0  0
  160.9810  204.8620  150.3970 C   0  0  0  0  0  0  0  0  0  0  0  0
  161.4670  205.4340  146.1870 C   0  0  2  0  0  3  0  0  0  0  0  0
  160.9020  206.1820  149.6630 C   0  0  2  0  0  3  0  0  0  0  0  0
  161.0840  202.4390  151.6900 C   0  0  0  0  0  3  0  0  0  0  0  0
  162.1460  209.6930  150.3060 C   0  0  0  0  0  2  0  0  0  0  0  0
  161.2070  202.4910  150.3360 N   0  0  0  0  0  0  0  0  0  0  0  0
  161.1210  208.6670  149.8490 C   0  0  0  0  0  2  0  0  0  0  0  0
  160.9210  208.3470  152.9540 C   0  0  1  0  0  3  0  0  0  0  0  0
  160.9090  203.5830  152.4060 N   0  0  0  0  0  0  0  0  0  0  0  0
  160.7200  206.0040  152.5360 N   0  0  0  0  0  0  0  0  0  0  0  0
  162.6560  209.6030  153.7970 O   0  0  0  0  0  0  0  0  0  0  0  0
  161.7990  210.6860  154.0130 C   0  0  0  0  0  2  0  0  0  0  0  0
  160.4110  209.7510  156.7910 O   0  0  0  0  0  0  0  0  0  0  0  0
  162.6790  210.1290  156.2560 C   0  0  0  0  0  2  0  0  0  0  0  0
  161.8420  211.1010  155.4740 C   0  0  2  0  0  3  0  0  0  0  0  0
  161.7150  209.5460  157.2610 C   0  0  0  0  0  2  0  0  0  0  0  0
  160.4640  210.9570  156.0770 C   0  0  0  0  0  2  0  0  0  0  0  0
  1 26  1  0  0  0  0
  1 27  1  0  0  0  0
  2 14  1  0  0  0  0
  3 16  1  0  0  0  0
  3  7  1  1  0  0  0
  3 19  1  0  0  0  0
  4 23  2  0  0  0  0
  4 18  1  0  0  0  0
  5 15  1  0  0  0  0
  5 11  1  1  0  0  0
  8 12  1  0  0  0  0
  9 27  1  1  0  0  0
  9 25  1  0  0  0  0
 10 17  1  0  0  0  0
 13 24  1  6  0  0  0
 13  9  1  0  0  0  0
 15 12  1  6  0  0  0
 15  4  1  0  0  0  0
 16  8  1  0  0  0  0
 17 25  1  0  0  0  0
 17 28  1  0  0  0  0
 18  1  2  0  0  0  0
 19  6  1  6  0  0  0
 19  5  1  0  0  0  0
 20 11  1  6  0  0  0
 20 18  1  0  0  0  0
 20 13  1  0  0  0  0
 21 26  2  0  0  0  0
 22 10  1  0  0  0  0
 23 21  1  0  0  0  0
 24 22  1  0  0  0  0
 25 14  1  1  0  0  0
 27  2  1  0  0  0  0
 28 29  1  0  0  0  0
 30 33  1  0  0  0  0
 31 33  1  0  0  0  0
 32 29  1  6  0  0  0
 32 34  1  0  0  0  0
 32 31  1  0  0  0  0
 34 30  1  0  0  0  0
M  END
>  <MODEL>
1

>  <REMARK>
 VINA RESULT:      -7.1      0.000      0.000
  Name = 
  3 active torsions:
  status: ('A' for Active; 'I' for Inactive)
    1  A    between atoms: N_17  and  O_28
    2  A    between atoms: O_28  and  C_29
    3  A    between atoms: C_29  and  C_32
                            x       y       z     vdW  Elec       q    Type
                         _______ _______ _______ _____ _____    ______ ____

>  <TORSDO>
F 3

$$$$
=
 OpenBabel11122414173D

 34 40  0  0  1  0  0  0  0  0999 V2000
  160.7050  208.5370  153.9470 C   0  0  0  0  0  0  0  0  0  0  0  0
  161.4830  206.1640  153.5250 C   0  0  0  0  0  2  0  0  0  0  0  0
  158.1320  213.9400  151.3850 C   0  0  1  0  0  3  0  0  0  0  0  0
  159.6160  210.6800  154.0520 C   0  0  0  0  0  0  0  0  0  0  0  0
  160.0000  212.1770  152.0750 C   0  0  2  0  0  3  0  0  0  0  0  0
  160.6050  214.4500  151.1860 C   0  0  0  0  0  1  0  0  0  0  0  0
  157.1230  213.0960  150.6350 C   0  0  0  0  0  1  0  0  0  0  0  0
  158.7730  214.4410  153.6800 C   0  0  0  0  0  2  0  0  0  0  0  0
  162.0960  207.8960  151.9390 C   0  0  2  0  0  3  0  0  0  0  0  0
  162.1360  206.9230  148.9680 C   0  0  0  0  0  2  0  0  0  0  0  0
  160.0360  210.9880  151.3210 O   0  0  0  0  0  0  0  0  0  0  0  0
  159.3030  213.1600  154.3240 C   0  0  0  0  0  2  0  0  0  0  0  0
  161.2070  208.8730  151.1400 C   0  0  1  0  0  3  0  0  0  0  0  0
  162.2380  205.4980  152.3880 C   0  0  0  0  0  2  0  0  0  0  0  0
  159.1970  211.9610  153.3780 C   0  0  2  0  0  3  0  0  0  0  0  0
  157.6720  214.1340  152.7720 N   0  0  0  0  0  2  0  0  0  0  0  0
  161.5300  206.2690  150.1230 N   0  0  0  0  0  0  0  0  0  0  0  0
  160.4000  209.7610  153.3480 C   0  0  0  0  0  0  0  0  0  0  0  0
  159.5540  213.3560  151.1930 C   0  0  2  0  0  3  0  0  0  0  0  0
  160.9380  210.1280  151.9830 C   0  0  2  0  0  3  0  0  0  0  0  0
  159.4410  209.1490  155.8490 C   0  0  0  0  0  3  0  0  0  0  0  0
  161.5010  208.2850  148.7310 C   0  0  0  0  0  2  0  0  0  0  0  0
  159.1390  210.3480  155.2820 N   0  0  0  0  0  0  0  0  0  0  0  0
  161.8770  209.2650  149.8310 C   0  0  0  0  0  2  0  0  0  0  0  0
  162.4060  206.5420  151.2740 C   0  0  1  0  0  3  0  0  0  0  0  0
  160.2160  208.2510  155.1820 N   0  0  0  0  0  0  0  0  0  0  0  0
  161.4770  207.5760  153.2150 N   0  0  0  0  0  0  0  0  0  0  0  0
  161.5670  204.9380  149.8500 O   0  0  0  0  0  0  0  0  0  0  0  0
  161.0470  204.8230  148.5570 C   0  0  0  0  0  2  0  0  0  0  0  0
  160.4540  202.2430  146.6830 O   0  0  0  0  0  0  0  0  0  0  0  0
  161.7900  204.1500  146.2970 C   0  0  0  0  0  2  0  0  0  0  0  0
  161.8580  203.8170  147.7590 C   0  0  2  0  0  3  0  0  0  0  0  0
  161.1370  202.9380  145.6770 C   0  0  0  0  0  2  0  0  0  0  0  0
  161.2020  202.4580  147.8510 C   0  0  0  0  0  2  0  0  0  0  0  0
  1 26  1  0  0  0  0
  3  7  1  1  0  0  0
  3 16  1  0  0  0  0
  4 23  2  0  0  0  0
  5 11  1  6  0  0  0
  5 15  1  0  0  0  0
  8 12  1  0  0  0  0
  9 27  1  1  0  0  0
 10 17  1  0  0  0  0
 13 24  1  6  0  0  0
 13  9  1  0  0  0  0
 13 20  1  0  0  0  0
 14  2  1  0  0  0  0
 15  4  1  0  0  0  0
 15 12  1  1  0  0  0
 16  8  1  0  0  0  0
 17 25  1  0  0  0  0
 18  1  2  0  0  0  0
 18  4  1  0  0  0  0
 19  6  1  1  0  0  0
 19  3  1  0  0  0  0
 19  5  1  0  0  0  0
 20 11  1  6  0  0  0
 20 18  1  0  0  0  0
 22 10  1  0  0  0  0
 22 24  1  0  0  0  0
 23 21  1  0  0  0  0
 25  9  1  0  0  0  0
 25 14  1  1  0  0  0
 26 21  2  0  0  0  0
 27  2  1  0  0  0  0
 27  1  1  0  0  0  0
 28 17  1  0  0  0  0
 29 28  1  0  0  0  0
 30 34  1  0  0  0  0
 31 32  1  0  0  0  0
 32 34  1  0  0  0  0
 32 29  1  1  0  0  0
 33 31  1  0  0  0  0
 33 30  1  0  0  0  0
M  END
>  <MODEL>
2

>  <REMARK>
 VINA RESULT:      -6.7      2.972      8.514
  Name = 
  3 active torsions:
  status: ('A' for Active; 'I' for Inactive)
    1  A    between atoms: N_17  and  O_28
    2  A    between atoms: O_28  and  C_29
    3  A    between atoms: C_29  and  C_32
                            x       y       z     vdW  Elec       q    Type
                         _______ _______ _______ _____ _____    ______ ____

>  <TORSDO>
F 3

$$$$
=
 OpenBabel11122414173D

 34 40  0  0  1  0  0  0  0  0999 V2000
  161.7360  207.5910  149.4900 C   0  0  0  0  0  0  0  0  0  0  0  0
  161.7140  209.7940  150.7400 C   0  0  0  0  0  2  0  0  0  0  0  0
  159.7330  201.3980  149.3740 C   0  0  1  0  0  3  0  0  0  0  0  0
  161.3050  205.4710  148.4360 C   0  0  0  0  0  0  0  0  0  0  0  0
  161.2510  203.4950  149.9820 C   0  0  2  0  0  3  0  0  0  0  0  0
  161.9900  201.1470  150.4950 C   0  0  0  0  0  1  0  0  0  0  0  0
  158.3460  201.8450  149.7890 C   0  0  0  0  0  1  0  0  0  0  0  0
  161.2930  201.7060  147.5320 C   0  0  0  0  0  2  0  0  0  0  0  0
  162.0690  207.7430  151.9890 C   0  0  2  0  0  3  0  0  0  0  0  0
  160.7500  207.7530  154.8230 C   0  0  0  0  0  2  0  0  0  0  0  0
  160.7180  204.3900  150.9300 O   0  0  0  0  0  0  0  0  0  0  0  0
  161.7100  203.1760  147.4920 C   0  0  0  0  0  2  0  0  0  0  0  0
  161.2000  206.4690  152.0790 C   0  0  1  0  0  3  0  0  0  0  0  0
  161.8020  210.1620  152.2100 C   0  0  0  0  0  2  0  0  0  0  0  0
  160.9760  204.0050  148.5490 C   0  0  2  0  0  3  0  0  0  0  0  0
  159.8920  201.5870  147.9210 N   0  0  0  0  0  2  0  0  0  0  0  0
  160.4910  208.6540  153.7060 N   0  0  0  0  0  0  0  0  0  0  0  0
  161.5230  206.2150  149.6000 C   0  0  0  0  0  0  0  0  0  0  0  0
  160.7940  202.0580  150.2880 C   0  0  2  0  0  3  0  0  0  0  0  0
  161.5740  205.5120  150.9380 C   0  0  2  0  0  3  0  0  0  0  0  0
  161.4690  207.4490  147.1450 C   0  0  0  0  0  3  0  0  0  0  0  0
  160.4110  206.3190  154.4430 C   0  0  0  0  0  2  0  0  0  0  0  0
  161.2660  206.1060  147.2340 N   0  0  0  0  0  0  0  0  0  0  0  0
  161.3950  205.7760  153.4190 C   0  0  0  0  0  2  0  0  0  0  0  0
  161.7760  208.8530  153.0150 C   0  0  1  0  0  3  0  0  0  0  0  0
  161.6990  208.1830  148.2670 N   0  0  0  0  0  0  0  0  0  0  0  0
  161.9240  208.3640  150.6830 N   0  0  0  0  0  0  0  0  0  0  0  0
  160.1080  209.8310  154.2660 O   0  0  0  0  0  0  0  0  0  0  0  0
  160.4290  209.7040  155.6210 C   0  0  0  0  0  2  0  0  0  0  0  0
  159.9990  212.9190  155.6430 O   0  0  0  0  0  0  0  0  0  0  0  0
  158.4290  211.1570  155.6740 C   0  0  0  0  0  2  0  0  0  0  0  0
  159.6440  210.7170  156.4370 C   0  0  2  0  0  3  0  0  0  0  0  0
  158.6350  212.6410  155.4840 C   0  0  0  0  0  2  0  0  0  0  0  0
  160.4580  211.9830  156.5820 C   0  0  0  0  0  2  0  0  0  0  0  0
  1 18  1  0  0  0  0
  1 27  1  0  0  0  0
  2 14  1  0  0  0  0
  3  7  1  1  0  0  0
  3 19  1  0  0  0  0
  4 15  1  0  0  0  0
  4 18  2  0  0  0  0
  5 19  1  0  0  0  0
  5 11  1  1  0  0  0
  8 16  1  0  0  0  0
  9 27  1  6  0  0  0
  9 13  1  0  0  0  0
  9 25  1  0  0  0  0
 11 20  1  0  0  0  0
 12  8  1  0  0  0  0
 13 24  1  1  0  0  0
 15 12  1  6  0  0  0
 15  5  1  0  0  0  0
 16  3  1  0  0  0  0
 17 28  1  0  0  0  0
 17 10  1  0  0  0  0
 19  6  1  6  0  0  0
 20 18  1  6  0  0  0
 20 13  1  0  0  0  0
 21 23  2  0  0  0  0
 21 26  1  0  0  0  0
 22 10  1  0  0  0  0
 23  4  1  0  0  0  0
 24 22  1  0  0  0  0
 25 14  1  6  0  0  0
 25 17  1  0  0  0  0
 26  1  2  0  0  0  0
 27  2  1  0  0  0  0
 28 29  1  0  0  0  0
 30 34  1  0  0  0  0
 31 32  1  0  0  0  0
 32 29  1  6  0  0  0
 32 34  1  0  0  0  0
 33 30  1  0  0  0  0
 33 31  1  0  0  0  0
M  END
>  <MODEL>
3

>  <REMARK>
 VINA RESULT:      -6.5      2.088      3.960
  Name = 
  3 active torsions:
  status: ('A' for Active; 'I' for Inactive)
    1  A    between atoms: N_17  and  O_28
    2  A    between atoms: O_28  and  C_29
    3  A    between atoms: C_29  and  C_32
                            x       y       z     vdW  Elec       q    Type
                         _______ _______ _______ _____ _____    ______ ____

>  <TORSDO>
F 3

$$$$
=
 OpenBabel11122414173D

 34 40  0  0  1  0  0  0  0  0999 V2000
  160.9160  207.8070  154.2290 C   0  0  0  0  0  0  0  0  0  0  0  0
  161.9770  206.1930  152.5910 C   0  0  0  0  0  2  0  0  0  0  0  0
  157.3690  213.2130  154.9950 C   0  0  1  0  0  3  0  0  0  0  0  0
  159.5500  209.3450  155.4780 C   0  0  0  0  0  0  0  0  0  0  0  0
  159.5250  211.7020  154.6160 C   0  0  2  0  0  3  0  0  0  0  0  0
  159.7150  214.1650  155.0890 C   0  0  0  0  0  1  0  0  0  0  0  0
  156.4210  212.7370  153.9130 C   0  0  0  0  0  1  0  0  0  0  0  0
  158.1510  212.5220  157.1950 C   0  0  0  0  0  2  0  0  0  0  0  0
  162.1830  208.5770  152.1850 C   0  0  2  0  0  3  0  0  0  0  0  0
  162.0730  209.3510  149.1580 C   0  0  0  0  0  2  0  0  0  0  0  0
  159.6560  211.1210  153.3410 O   0  0  0  0  0  0  0  0  0  0  0  0
  158.9160  211.2070  157.0450 C   0  0  0  0  0  2  0  0  0  0  0  0
  161.0910  209.6600  152.0430 C   0  0  1  0  0  3  0  0  0  0  0  0
  162.7050  206.3720  151.2710 C   0  0  0  0  0  2  0  0  0  0  0  0
  158.8900  210.6950  155.6020 C   0  0  2  0  0  3  0  0  0  0  0  0
  157.0220  212.5600  156.2700 N   0  0  0  0  0  2  0  0  0  0  0  0
  161.6800  208.0920  149.7810 N   0  0  0  0  0  0  0  0  0  0  0  0
  160.3840  209.0890  154.3850 C   0  0  0  0  0  0  0  0  0  0  0  0
  158.8340  213.0730  154.5110 C   0  0  2  0  0  3  0  0  0  0  0  0
  160.7310  210.2100  153.4300 C   0  0  2  0  0  3  0  0  0  0  0  0
  159.7670  207.0910  156.1680 C   0  0  0  0  0  3  0  0  0  0  0  0
  161.2320  210.4980  149.6950 C   0  0  0  0  0  2  0  0  0  0  0  0
  159.2450  208.3360  156.3380 N   0  0  0  0  0  0  0  0  0  0  0  0
  161.5700  210.7940  151.1470 C   0  0  0  0  0  2  0  0  0  0  0  0
  162.6150  207.8580  150.8930 C   0  0  1  0  0  3  0  0  0  0  0  0
  160.5930  206.8320  155.1190 N   0  0  0  0  0  0  0  0  0  0  0  0
  161.7410  207.5300  153.0910 N   0  0  0  0  0  0  0  0  0  0  0  0
  161.8780  207.1370  148.8350 O   0  0  0  0  0  0  0  0  0  0  0  0
  160.6090  206.5950  148.6020 C   0  0  0  0  0  2  0  0  0  0  0  0
  162.2180  206.1590  145.8200 O   0  0  0  0  0  0  0  0  0  0  0  0
  161.9440  204.7300  147.6790 C   0  0  0  0  0  2  0  0  0  0  0  0
  160.6880  205.5360  147.5160 C   0  0  2  0  0  3  0  0  0  0  0  0
  162.7060  204.9800  146.3990 C   0  0  0  0  0  2  0  0  0  0  0  0
  160.8610  206.2070  146.1730 C   0  0  0  0  0  2  0  0  0  0  0  0
  1 18  2  0  0  0  0
  1 26  1  0  0  0  0
  2 27  1  0  0  0  0
  3  7  1  6  0  0  0
  3 16  1  0  0  0  0
  4 15  1  0  0  0  0
  4 23  2  0  0  0  0
  5 11  1  6  0  0  0
  5 15  1  0  0  0  0
  9 27  1  1  0  0  0
 10 22  1  0  0  0  0
 10 17  1  0  0  0  0
 12  8  1  0  0  0  0
 13 24  1  6  0  0  0
 13  9  1  0  0  0  0
 13 20  1  0  0  0  0
 14  2  1  0  0  0  0
 15 12  1  1  0  0  0
 16  8  1  0  0  0  0
 17 25  1  0  0  0  0
 18  4  1  0  0  0  0
 19  5  1  0  0  0  0
 19  3  1  0  0  0  0
 19  6  1  1  0  0  0
 20 11  1  6  0  0  0
 20 18  1  0  0  0  0
 21 23  1  0  0  0  0
 22 24  1  0  0  0  0
 25 14  1  1  0  0  0
 25  9  1  0  0  0  0
 26 21  2  0  0  0  0
 27  1  1  0  0  0  0
 28 17  1  0  0  0  0
 29 28  1  0  0  0  0
 30 34  1  0  0  0  0
 30 33  1  0  0  0  0
 32 31  1  0  0  0  0
 32 29  1  1  0  0  0
 33 31  1  0  0  0  0
 34 32  1  0  0  0  0
M  END
>  <MODEL>
4

>  <REMARK>
 VINA RESULT:      -6.2      2.588      8.719
  Name = 
  3 active torsions:
  status: ('A' for Active; 'I' for Inactive)
    1  A    between atoms: N_17  and  O_28
    2  A    between atoms: O_28  and  C_29
    3  A    between atoms: C_29  and  C_32
                            x       y       z     vdW  Elec       q    Type
                         _______ _______ _______ _____ _____    ______ ____

>  <TORSDO>
F 3

$$$$
=
 OpenBabel11122414173D

 34 40  0  0  1  0  0  0  0  0999 V2000
  161.0590  209.2670  152.2820 C   0  0  0  0  0  0  0  0  0  0  0  0
  160.8390  206.9130  153.1910 C   0  0  0  0  0  2  0  0  0  0  0  0
  160.7350  213.1120  147.0390 C   0  0  1  0  0  3  0  0  0  0  0  0
  160.8960  211.3870  151.1550 C   0  0  0  0  0  0  0  0  0  0  0  0
  161.7830  211.4260  148.8080 C   0  0  2  0  0  3  0  0  0  0  0  0
  163.2050  212.5530  147.0660 C   0  0  0  0  0  1  0  0  0  0  0  0
  159.4580  212.4160  146.6150 C   0  0  0  0  0  1  0  0  0  0  0  0
  161.5770  214.4520  148.8880 C   0  0  0  0  0  2  0  0  0  0  0  0
  162.0400  207.2570  151.1100 C   0  0  2  0  0  3  0  0  0  0  0  0
  161.6230  204.9650  149.0250 C   0  0  0  0  0  2  0  0  0  0  0  0
  161.3340  210.0930  148.7330 O   0  0  0  0  0  0  0  0  0  0  0  0
  161.5810  213.5870  150.1500 C   0  0  0  0  0  2  0  0  0  0  0  0
  161.5820  207.9280  149.7960 C   0  0  1  0  0  3  0  0  0  0  0  0
  161.2460  205.5480  152.6660 C   0  0  0  0  0  2  0  0  0  0  0  0
  160.9930  212.1980  149.8890 C   0  0  2  0  0  3  0  0  0  0  0  0
  160.4210  214.1300  148.0570 N   0  0  0  0  0  2  0  0  0  0  0  0
  160.8390  205.2480  150.2220 N   0  0  0  0  0  0  0  0  0  0  0  0
  161.2410  210.0320  151.1280 C   0  0  0  0  0  0  0  0  0  0  0  0
  161.8110  212.0600  147.4060 C   0  0  2  0  0  3  0  0  0  0  0  0
  161.8460  209.4390  149.8750 C   0  0  2  0  0  3  0  0  0  0  0  0
  160.1820  211.1570  153.4000 C   0  0  0  0  0  3  0  0  0  0  0  0
  161.5630  206.1370  148.0580 C   0  0  0  0  0  2  0  0  0  0  0  0
  160.3570  211.9180  152.2860 N   0  0  0  0  0  0  0  0  0  0  0  0
  162.3190  207.3380  148.6030 C   0  0  0  0  0  2  0  0  0  0  0  0
  161.7800  205.7440  151.2390 C   0  0  1  0  0  3  0  0  0  0  0  0
  160.5280  209.8410  153.3940 N   0  0  0  0  0  0  0  0  0  0  0  0
  161.3770  207.8700  152.2490 N   0  0  0  0  0  0  0  0  0  0  0  0
  160.3460  204.0490  150.6300 O   0  0  0  0  0  0  0  0  0  0  0  0
  161.4350  203.1730  150.5630 C   0  0  0  0  0  2  0  0  0  0  0  0
  160.0790  201.6810  148.0220 O   0  0  0  0  0  0  0  0  0  0  0  0
  161.9560  201.0950  149.3290 C   0  0  0  0  0  2  0  0  0  0  0  0
  160.9560  201.7730  150.2200 C   0  0  2  0  0  3  0  0  0  0  0  0
  161.1870  200.8230  148.0590 C   0  0  0  0  0  2  0  0  0  0  0  0
  159.7130  201.8640  149.3640 C   0  0  0  0  0  2  0  0  0  0  0  0
  1 26  1  0  0  0  0
  3  7  1  1  0  0  0
  3 19  1  0  0  0  0
  3 16  1  0  0  0  0
  4 23  2  0  0  0  0
  5 11  1  6  0  0  0
  5 15  1  0  0  0  0
  8 12  1  0  0  0  0
  9 25  1  0  0  0  0
  9 27  1  1  0  0  0
 10 17  1  0  0  0  0
 13 24  1  6  0  0  0
 13 20  1  0  0  0  0
 13  9  1  0  0  0  0
 14  2  1  0  0  0  0
 15 12  1  1  0  0  0
 15  4  1  0  0  0  0
 16  8  1  0  0  0  0
 17 28  1  0  0  0  0
 17 25  1  0  0  0  0
 18  4  1  0  0  0  0
 18  1  2  0  0  0  0
 19  6  1  1  0  0  0
 19  5  1  0  0  0  0
 20 11  1  6  0  0  0
 20 18  1  0  0  0  0
 22 24  1  0  0  0  0
 22 10  1  0  0  0  0
 23 21  1  0  0  0  0
 25 14  1  1  0  0  0
 26 21  2  0  0  0  0
 27  1  1  0  0  0  0
 27  2  1  0  0  0  0
 29 28  1  0  0  0  0
 30 33  1  0  0  0  0
 30 34  1  0  0  0  0
 31 32  1  0  0  0  0
 32 29  1  6  0  0  0
 33 31  1  0  0  0  0
 34 32  1  0  0  0  0
M  END
>  <MODEL>
5

>  <REMARK>
 VINA RESULT:      -5.9      2.999      7.730
  Name = 
  3 active torsions:
  status: ('A' for Active; 'I' for Inactive)
    1  A    between atoms: N_17  and  O_28
    2  A    between atoms: O_28  and  C_29
    3  A    between atoms: C_29  and  C_32
                            x       y       z     vdW  Elec       q    Type
                         _______ _______ _______ _____ _____    ______ ____

>  <TORSDO>
F 3

$$$$
=
 OpenBabel11122414173D

 34 40  0  0  1  0  0  0  0  0999 V2000
  161.4690  210.5250  151.0980 C   0  0  0  0  0  0  0  0  0  0  0  0
  162.1020  210.6200  148.6470 C   0  0  0  0  0  2  0  0  0  0  0  0
  157.0650  212.0900  155.6290 C   0  0  1  0  0  3  0  0  0  0  0  0
  160.4320  210.3570  153.2630 C   0  0  0  0  0  0  0  0  0  0  0  0
  159.1430  212.3820  153.9950 C   0  0  2  0  0  3  0  0  0  0  0  0
  158.6330  214.0730  155.7850 C   0  0  0  0  0  1  0  0  0  0  0  0
  155.9570  211.6390  154.6990 C   0  0  0  0  0  1  0  0  0  0  0  0
  159.0040  211.1630  156.7710 C   0  0  0  0  0  2  0  0  0  0  0  0
  161.2080  212.6140  149.7030 C   0  0  2  0  0  3  0  0  0  0  0  0
  159.3720  214.3130  147.8290 C   0  0  0  0  0  2  0  0  0  0  0  0
  158.8380  212.5460  152.6300 O   0  0  0  0  0  0  0  0  0  0  0  0
  160.0160  210.7120  155.7170 C   0  0  0  0  0  2  0  0  0  0  0  0
  159.8780  212.8290  150.4590 C   0  0  1  0  0  3  0  0  0  0  0  0
  161.9760  211.6890  147.5760 C   0  0  0  0  0  2  0  0  0  0  0  0
  159.4800  210.9030  154.2960 C   0  0  2  0  0  3  0  0  0  0  0  0
  157.6430  210.9160  156.3060 N   0  0  0  0  0  2  0  0  0  0  0  0
  159.8160  212.9360  147.6470 N   0  0  0  0  0  0  0  0  0  0  0  0
  160.6590  211.0830  152.0890 C   0  0  0  0  0  0  0  0  0  0  0  0
  158.0460  213.0160  154.8680 C   0  0  2  0  0  3  0  0  0  0  0  0
  160.0660  212.4670  151.9390 C   0  0  2  0  0  3  0  0  0  0  0  0
  161.7540  208.5840  152.4180 C   0  0  0  0  0  3  0  0  0  0  0  0
  158.5470  214.4460  149.1000 C   0  0  0  0  0  2  0  0  0  0  0  0
  160.9710  209.1150  153.3960 N   0  0  0  0  0  0  0  0  0  0  0  0
  159.4150  214.2730  150.3370 C   0  0  0  0  0  2  0  0  0  0  0  0
  161.1850  212.8580  148.1820 C   0  0  1  0  0  3  0  0  0  0  0  0
  161.9960  209.2860  151.2770 N   0  0  0  0  0  0  0  0  0  0  0  0
  161.6740  211.2490  149.8780 N   0  0  0  0  0  0  0  0  0  0  0  0
  159.8590  212.7380  146.3040 O   0  0  0  0  0  0  0  0  0  0  0  0
  159.7220  214.0150  145.7500 C   0  0  0  0  0  2  0  0  0  0  0  0
  160.0360  211.9710  143.2500 O   0  0  0  0  0  0  0  0  0  0  0  0
  159.2420  214.1930  143.3300 C   0  0  0  0  0  2  0  0  0  0  0  0
  160.3280  214.0450  144.3570 C   0  0  2  0  0  3  0  0  0  0  0  0
  159.3510  212.9370  142.5010 C   0  0  0  0  0  2  0  0  0  0  0  0
  160.9360  212.6960  144.0460 C   0  0  0  0  0  2  0  0  0  0  0  0
  1 26  2  0  0  0  0
  1 18  1  0  0  0  0
  2 27  1  0  0  0  0
  3  7  1  6  0  0  0
  3 16  1  0  0  0  0
  4 23  1  0  0  0  0
  4 15  1  0  0  0  0
  5 11  1  6  0  0  0
  5 15  1  0  0  0  0
  5 19  1  0  0  0  0
  9 27  1  6  0  0  0
  9 13  1  0  0  0  0
 10 22  1  0  0  0  0
 12  8  1  0  0  0  0
 13 24  1  1  0  0  0
 13 20  1  0  0  0  0
 14  2  1  0  0  0  0
 15 12  1  1  0  0  0
 16  8  1  0  0  0  0
 17 10  1  0  0  0  0
 17 25  1  0  0  0  0
 18  4  2  0  0  0  0
 19  3  1  0  0  0  0
 19  6  1  1  0  0  0
 20 18  1  6  0  0  0
 20 11  1  0  0  0  0
 21 23  2  0  0  0  0
 22 24  1  0  0  0  0
 25 14  1  6  0  0  0
 25  9  1  0  0  0  0
 26 21  1  0  0  0  0
 27  1  1  0  0  0  0
 28 17  1  0  0  0  0
 29 28  1  0  0  0  0
 30 34  1  0  0  0  0
 31 32  1  0  0  0  0
 32 29  1  1  0  0  0
 33 30  1  0  0  0  0
 33 31  1  0  0  0  0
 34 32  1  0  0  0  0
M  END
>  <MODEL>
6

>  <REMARK>
 VINA RESULT:      -5.2      4.872      9.792
  Name = 
  3 active torsions:
  status: ('A' for Active; 'I' for Inactive)
    1  A    between atoms: N_17  and  O_28
    2  A    between atoms: O_28  and  C_29
    3  A    between atoms: C_29  and  C_32
                            x       y       z     vdW  Elec       q    Type
                         _______ _______ _______ _____ _____    ______ ____

>  <TORSDO>
F 3

$$$$
=
 OpenBabel11122414173D

 34 40  0  0  1  0  0  0  0  0999 V2000
  161.4680  208.5150  149.6740 C   0  0  0  0  0  0  0  0  0  0  0  0
  161.7890  207.1440  147.5690 C   0  0  0  0  0  2  0  0  0  0  0  0
  161.4360  208.5340  156.1840 C   0  0  1  0  0  3  0  0  0  0  0  0
  161.5260  209.5640  151.8400 C   0  0  0  0  0  0  0  0  0  0  0  0
  160.5180  208.2240  153.7070 C   0  0  2  0  0  3  0  0  0  0  0  0
  158.9830  208.1270  155.6980 C   0  0  0  0  0  1  0  0  0  0  0  0
  162.7050  207.7080  156.1870 C   0  0  0  0  0  1  0  0  0  0  0  0
  160.6590  210.7160  155.4340 C   0  0  0  0  0  2  0  0  0  0  0  0
  160.4750  206.2120  149.3850 C   0  0  2  0  0  3  0  0  0  0  0  0
  160.8370  203.1270  149.7410 C   0  0  0  0  0  2  0  0  0  0  0  0
  160.9930  207.0980  153.0090 O   0  0  0  0  0  0  0  0  0  0  0  0
  160.7400  210.7590  153.9070 C   0  0  0  0  0  2  0  0  0  0  0  0
  160.8490  205.9760  150.8640 C   0  0  1  0  0  3  0  0  0  0  0  0
  161.3870  205.7370  147.1670 C   0  0  0  0  0  2  0  0  0  0  0  0
  161.3460  209.4760  153.3330 C   0  0  2  0  0  3  0  0  0  0  0  0
  161.7780  209.9530  155.9790 N   0  0  0  0  0  2  0  0  0  0  0  0
  161.6750  204.0510  148.9850 N   0  0  0  0  0  0  0  0  0  0  0  0
  161.2110  208.4570  151.0460 C   0  0  0  0  0  0  0  0  0  0  0  0
  160.4040  207.9130  155.2100 C   0  0  2  0  0  3  0  0  0  0  0  0
  160.5560  207.2470  151.6750 C   0  0  2  0  0  3  0  0  0  0  0  0
  162.3590  210.6910  149.9320 C   0  0  0  0  0  3  0  0  0  0  0  0
  160.8200  203.5040  151.2150 C   0  0  0  0  0  2  0  0  0  0  0  0
  162.1090  210.6520  151.2690 N   0  0  0  0  0  0  0  0  0  0  0  0
  160.0660  204.8050  151.4400 C   0  0  0  0  0  2  0  0  0  0  0  0
  160.7760  205.0620  148.4050 C   0  0  1  0  0  3  0  0  0  0  0  0
  162.0430  209.6270  149.1440 N   0  0  0  0  0  0  0  0  0  0  0  0
  161.1810  207.3700  148.8620 N   0  0  0  0  0  0  0  0  0  0  0  0
  162.2150  203.3150  147.9780 O   0  0  0  0  0  0  0  0  0  0  0  0
  161.2070  202.4180  147.6100 C   0  0  0  0  0  2  0  0  0  0  0  0
  159.3060  201.3220  145.2220 O   0  0  0  0  0  0  0  0  0  0  0  0
  160.8320  203.1210  145.2690 C   0  0  0  0  0  2  0  0  0  0  0  0
  161.3660  202.0290  146.1500 C   0  0  2  0  0  3  0  0  0  0  0  0
  159.7060  202.4610  144.5110 C   0  0  0  0  0  2  0  0  0  0  0  0
  160.4710  200.8500  145.8460 C   0  0  0  0  0  2  0  0  0  0  0  0
  1 18  1  0  0  0  0
  2 27  1  0  0  0  0
  3  7  1  6  0  0  0
  4 15  1  0  0  0  0
  5 11  1  6  0  0  0
  5 19  1  0  0  0  0
  8 16  1  0  0  0  0
  9 27  1  6  0  0  0
  9 13  1  0  0  0  0
 10 22  1  0  0  0  0
 12  8  1  0  0  0  0
 13 24  1  1  0  0  0
 13 20  1  0  0  0  0
 14  2  1  0  0  0  0
 15  5  1  0  0  0  0
 15 12  1  6  0  0  0
 16  3  1  0  0  0  0
 17 10  1  0  0  0  0
 18  4  2  0  0  0  0
 19  6  1  1  0  0  0
 19  3  1  0  0  0  0
 20 18  1  6  0  0  0
 20 11  1  0  0  0  0
 21 23  2  0  0  0  0
 22 24  1  0  0  0  0
 23  4  1  0  0  0  0
 25 14  1  6  0  0  0
 25 17  1  0  0  0  0
 25  9  1  0  0  0  0
 26  1  2  0  0  0  0
 26 21  1  0  0  0  0
 27  1  1  0  0  0  0
 28 17  1  0  0  0  0
 29 28  1  0  0  0  0
 30 34  1  0  0  0  0
 31 32  1  0  0  0  0
 32 29  1  1  0  0  0
 33 30  1  0  0  0  0
 33 31  1  0  0  0  0
 34 32  1  0  0  0  0
M  END
>  <MODEL>
7

>  <REMARK>
 VINA RESULT:      -5.1      2.091      8.947
  Name = 
  3 active torsions:
  status: ('A' for Active; 'I' for Inactive)
    1  A    between atoms: N_17  and  O_28
    2  A    between atoms: O_28  and  C_29
    3  A    between atoms: C_29  and  C_32
                            x       y       z     vdW  Elec       q    Type
                         _______ _______ _______ _____ _____    ______ ____

>  <TORSDO>
F 3

$$$$
=
 OpenBabel11122414173D

 34 40  0  0  1  0  0  0  0  0999 V2000
  158.7710  214.1300  146.0310 C   0  0  0  0  0  0  0  0  0  0  0  0
  158.7730  213.8860  148.5520 C   0  0  0  0  0  2  0  0  0  0  0  0
  161.3310  212.1400  140.3850 C   0  0  1  0  0  3  0  0  0  0  0  0
  158.8200  213.8920  143.6370 C   0  0  0  0  0  0  0  0  0  0  0  0
  161.0950  213.5300  142.6400 C   0  0  2  0  0  3  0  0  0  0  0  0
  162.7980  214.1410  140.8940 C   0  0  0  0  0  1  0  0  0  0  0  0
  161.2350  210.7030  140.8550 C   0  0  0  0  0  1  0  0  0  0  0  0
  159.8660  214.0250  139.9100 C   0  0  0  0  0  2  0  0  0  0  0  0
  160.8990  213.9820  147.3830 C   0  0  2  0  0  3  0  0  0  0  0  0
  163.1020  212.1480  148.6300 C   0  0  0  0  0  2  0  0  0  0  0  0
  161.3840  212.8330  143.8290 O   0  0  0  0  0  0  0  0  0  0  0  0
  159.1900  214.4530  141.2140 C   0  0  0  0  0  2  0  0  0  0  0  0
  161.4450  213.1020  146.2370 C   0  0  1  0  0  3  0  0  0  0  0  0
  159.8710  213.6960  149.5820 C   0  0  0  0  0  2  0  0  0  0  0  0
  159.5710  213.5360  142.3790 C   0  0  2  0  0  3  0  0  0  0  0  0
  160.0190  212.5740  139.8710 N   0  0  0  0  0  2  0  0  0  0  0  0
  161.6620  212.1130  148.8630 N   0  0  0  0  0  0  0  0  0  0  0  0
  159.4950  213.8900  144.8610 C   0  0  0  0  0  0  0  0  0  0  0  0
  161.9760  213.0130  141.4900 C   0  0  2  0  0  3  0  0  0  0  0  0
  160.9930  213.6800  144.8880 C   0  0  2  0  0  3  0  0  0  0  0  0
  156.7820  214.3130  144.7650 C   0  0  0  0  0  3  0  0  0  0  0  0
  163.4120  211.8770  147.1650 C   0  0  0  0  0  2  0  0  0  0  0  0
  157.4740  214.0870  143.6150 N   0  0  0  0  0  0  0  0  0  0  0  0
  162.9640  213.0340  146.2860 C   0  0  0  0  0  2  0  0  0  0  0  0
  161.1910  213.5070  148.8190 C   0  0  1  0  0  3  0  0  0  0  0  0
  157.4290  214.3310  145.9620 N   0  0  0  0  0  0  0  0  0  0  0  0
  159.4520  214.0930  147.2910 N   0  0  0  0  0  0  0  0  0  0  0  0
  161.5070  211.6380  150.1270 O   0  0  0  0  0  0  0  0  0  0  0  0
  161.9770  210.3220  150.0750 C   0  0  0  0  0  2  0  0  0  0  0  0
  160.2120  209.4910  152.6660 O   0  0  0  0  0  0  0  0  0  0  0  0
  161.9420  208.3370  151.5490 C   0  0  0  0  0  2  0  0  0  0  0  0
  162.2370  209.8080  151.4810 C   0  0  2  0  0  3  0  0  0  0  0  0
  160.8260  208.2360  152.5610 C   0  0  0  0  0  2  0  0  0  0  0  0
  161.2360  210.4210  152.4320 C   0  0  0  0  0  2  0  0  0  0  0  0
  1 27  1  0  0  0  0
  2 14  1  0  0  0  0
  3  7  1  1  0  0  0
  3 19  1  0  0  0  0
  4 18  1  0  0  0  0
  5 11  1  1  0  0  0
  8 12  1  0  0  0  0
  9 27  1  6  0  0  0
  9 25  1  0  0  0  0
 10 17  1  0  0  0  0
 13 24  1  6  0  0  0
 13  9  1  0  0  0  0
 15 12  1  6  0  0  0
 15  5  1  0  0  0  0
 15  4  1  0  0  0  0
 16  8  1  0  0  0  0
 16  3  1  0  0  0  0
 17 28  1  0  0  0  0
 18 20  1  0  0  0  0
 18  1  2  0  0  0  0
 19  6  1  6  0  0  0
 19  5  1  0  0  0  0
 20 11  1  6  0  0  0
 20 13  1  0  0  0  0
 21 26  2  0  0  0  0
 22 10  1  0  0  0  0
 23  4  2  0  0  0  0
 23 21  1  0  0  0  0
 24 22  1  0  0  0  0
 25 17  1  0  0  0  0
 25 14  1  1  0  0  0
 26  1  1  0  0  0  0
 27  2  1  0  0  0  0
 29 28  1  0  0  0  0
 31 33  1  0  0  0  0
 32 29  1  6  0  0  0
 32 31  1  0  0  0  0
 32 34  1  0  0  0  0
 33 30  1  0  0  0  0
 34 30  1  0  0  0  0
M  END
>  <MODEL>
8

>  <REMARK>
 VINA RESULT:      -4.7      6.955      9.028
  Name = 
  3 active torsions:
  status: ('A' for Active; 'I' for Inactive)
    1  A    between atoms: N_17  and  O_28
    2  A    between atoms: O_28  and  C_29
    3  A    between atoms: C_29  and  C_32
                            x       y       z     vdW  Elec       q    Type
                         _______ _______ _______ _____ _____    ______ ____

>  <TORSDO>
F 3

$$$$
=
 OpenBabel11122414173D

 34 40  0  0  1  0  0  0  0  0999 V2000
  161.4570  208.1740  150.0010 C   0  0  0  0  0  0  0  0  0  0  0  0
  161.7270  206.3190  148.2990 C   0  0  0  0  0  2  0  0  0  0  0  0
  161.5490  209.8140  156.3010 C   0  0  1  0  0  3  0  0  0  0  0  0
  161.5630  209.7280  151.8360 C   0  0  0  0  0  0  0  0  0  0  0  0
  160.5820  208.9070  153.9950 C   0  0  2  0  0  3  0  0  0  0  0  0
  159.0860  209.3260  155.9730 C   0  0  0  0  0  1  0  0  0  0  0  0
  162.8130  209.0000  156.4880 C   0  0  0  0  0  1  0  0  0  0  0  0
  160.7730  211.7490  155.0440 C   0  0  0  0  0  2  0  0  0  0  0  0
  160.4430  205.8820  150.3120 C   0  0  2  0  0  3  0  0  0  0  0  0
  160.7910  202.9800  151.4190 C   0  0  0  0  0  2  0  0  0  0  0  0
  161.0360  207.6370  153.5910 O   0  0  0  0  0  0  0  0  0  0  0  0
  160.8250  211.4090  153.5540 C   0  0  0  0  0  2  0  0  0  0  0  0
  160.8440  206.0190  151.7970 C   0  0  1  0  0  3  0  0  0  0  0  0
  161.3080  204.8600  148.2670 C   0  0  0  0  0  2  0  0  0  0  0  0
  161.4110  210.0170  153.3070 C   0  0  2  0  0  3  0  0  0  0  0  0
  161.8970  211.1330  155.7430 N   0  0  0  0  0  2  0  0  0  0  0  0
  161.6200  203.6770  150.4420 N   0  0  0  0  0  0  0  0  0  0  0  0
  161.2250  208.4620  151.3480 C   0  0  0  0  0  0  0  0  0  0  0  0
  160.4960  208.9810  155.5300 C   0  0  2  0  0  3  0  0  0  0  0  0
  160.5750  207.4540  152.2700 C   0  0  2  0  0  3  0  0  0  0  0  0
  162.3670  210.3350  149.6940 C   0  0  0  0  0  3  0  0  0  0  0  0
  160.8050  203.7120  152.7520 C   0  0  0  0  0  2  0  0  0  0  0  0
  162.1420  210.6330  151.0020 N   0  0  0  0  0  0  0  0  0  0  0  0
  160.0640  205.0370  152.6590 C   0  0  0  0  0  2  0  0  0  0  0  0
  160.7170  204.5210  149.6450 C   0  0  1  0  0  3  0  0  0  0  0  0
  162.0280  209.1130  149.2010 N   0  0  0  0  0  0  0  0  0  0  0  0
  161.1460  206.8660  149.5050 N   0  0  0  0  0  0  0  0  0  0  0  0
  162.1360  202.7080  149.6420 O   0  0  0  0  0  0  0  0  0  0  0  0
  161.6290  201.5100  150.1570 C   0  0  0  0  0  2  0  0  0  0  0  0
  159.9130  202.0460  147.4560 O   0  0  0  0  0  0  0  0  0  0  0  0
  161.8760  200.7830  147.8060 C   0  0  0  0  0  2  0  0  0  0  0  0
  161.0240  200.6790  149.0380 C   0  0  2  0  0  3  0  0  0  0  0  0
  160.9590  201.4040  146.7810 C   0  0  0  0  0  2  0  0  0  0  0  0
  159.7060  201.2860  148.6180 C   0  0  0  0  0  2  0  0  0  0  0  0
  1 18  1  0  0  0  0
  2 27  1  0  0  0  0
  3  7  1  6  0  0  0
  4 15  1  0  0  0  0
  5 11  1  1  0  0  0
  5 19  1  0  0  0  0
  8 16  1  0  0  0  0
  9 27  1  6  0  0  0
  9 13  1  0  0  0  0
 10 22  1  0  0  0  0
 12  8  1  0  0  0  0
 13 20  1  0  0  0  0
 13 24  1  1  0  0  0
 14  2  1  0  0  0  0
 15 12  1  6  0  0  0
 15  5  1  0  0  0  0
 16  3  1  0  0  0  0
 17 10  1  0  0  0  0
 18  4  2  0  0  0  0
 19  6  1  6  0  0  0
 19  3  1  0  0  0  0
 20 18  1  6  0  0  0
 20 11  1  0  0  0  0
 21 23  2  0  0  0  0
 23  4  1  0  0  0  0
 24 22  1  0  0  0  0
 25 14  1  6  0  0  0
 25  9  1  0  0  0  0
 25 17  1  0  0  0  0
 26 21  1  0  0  0  0
 26  1  2  0  0  0  0
 27  1  1  0  0  0  0
 28 29  1  0  0  0  0
 28 17  1  0  0  0  0
 30 34  1  0  0  0  0
 31 32  1  0  0  0  0
 32 29  1  1  0  0  0
 33 30  1  0  0  0  0
 33 31  1  0  0  0  0
 34 32  1  0  0  0  0
M  END
>  <MODEL>
9

>  <REMARK>
 VINA RESULT:      -4.5      2.055      8.703
  Name = 
  3 active torsions:
  status: ('A' for Active; 'I' for Inactive)
    1  A    between atoms: N_17  and  O_28
    2  A    between atoms: O_28  and  C_29
    3  A    between atoms: C_29  and  C_32
                            x       y       z     vdW  Elec       q    Type
                         _______ _______ _______ _____ _____    ______ ____

>  <TORSDO>
F 3

$$$$
