=
 OpenBabel11122414373D

 34 40  0  0  1  0  0  0  0  0999 V2000
  161.1480  207.7810  154.1960 C   0  0  1  0  0  3  0  0  0  0  0  0
  161.8720  205.7550  153.0200 O   0  0  0  0  0  0  0  0  0  0  0  0
  157.4720  213.4200  154.1720 C   0  0  0  0  0  0  0  0  0  0  0  0
  160.3290  209.9400  155.1700 C   0  0  2  0  0  3  0  0  0  0  0  0
  159.0390  211.5240  153.5670 C   0  0  1  0  0  3  0  0  0  0  0  0
  158.1880  213.1900  151.7990 C   0  0  0  0  0  1  0  0  0  0  0  0
  156.2790  213.4520  153.7660 O   0  0  0  0  0  0  0  0  0  0  0  0
  159.0000  213.4890  156.0850 C   0  0  0  0  0  2  0  0  0  0  0  0
  161.9850  207.7850  151.9010 C   0  0  2  0  0  3  0  0  0  0  0  0
  161.3750  207.8010  148.8620 C   0  0  0  0  0  3  0  0  0  0  0  0
  159.8850  210.9930  152.3800 C   0  0  0  0  0  2  0  0  0  0  0  0
  159.1760  211.9840  156.1620 C   0  0  0  0  0  2  0  0  0  0  0  0
  161.1430  208.9980  151.4770 C   0  0  1  0  0  3  0  0  0  0  0  0
  162.2390  205.4390  151.6930 C   0  0  0  0  0  2  0  0  0  0  0  0
  159.8290  211.3880  154.9060 C   0  0  1  0  0  3  0  0  0  0  0  0
  157.7460  213.7740  155.4890 O   0  0  0  0  0  0  0  0  0  0  0  0
  161.4020  206.7330  149.6730 C   0  0  0  0  0  0  0  0  0  0  0  0
  160.3650  209.0740  153.9120 C   0  0  1  0  0  3  0  0  0  0  0  0
  158.5830  212.9720  153.2610 C   0  0  1  0  0  3  0  0  0  0  0  0
  160.8880  209.8830  152.7150 C   0  0  2  0  0  3  0  0  0  0  0  0
  160.2730  207.8440  156.5510 C   0  0  0  0  0  2  0  0  0  0  0  0
  162.2310  209.0080  149.1160 C   0  0  0  0  0  2  0  0  0  0  0  0
  159.5620  209.1650  156.2510 C   0  0  0  0  0  2  0  0  0  0  0  0
  161.8050  209.8140  150.3540 C   0  0  0  0  0  2  0  0  0  0  0  0
  162.3260  206.7290  150.8740 C   0  0  1  0  0  3  0  0  0  0  0  0
  160.4110  206.9970  155.2830 C   0  0  0  0  0  2  0  0  0  0  0  0
  161.2160  206.9850  152.9040 C   0  0  2  0  0  3  0  0  0  0  0  0
  160.5570  205.6060  149.4130 N   0  0  0  0  0  2  0  0  0  0  0  0
  160.7650  204.6840  148.3050 C   0  0  0  0  0  2  0  0  0  0  0  0
  160.5220  201.5570  149.8630 C   0  0  0  0  0  2  0  0  0  0  0  0
  161.2110  202.3940  147.8110 O   0  0  0  0  0  0  0  0  0  0  0  0
  161.2730  203.3540  148.8300 C   0  0  0  0  0  3  0  0  0  0  0  0
  160.9880  201.1970  148.4830 C   0  0  0  0  0  2  0  0  0  0  0  0
  160.5000  202.9470  149.9280 O   0  0  0  0  0  0  0  0  0  0  0  0
  1 26  1  1  0  0  0
  3 16  1  0  0  0  0
  4 23  1  1  0  0  0
  5 11  1  6  0  0  0
  5 15  1  0  0  0  0
  6 19  1  0  0  0  0
  7  3  2  0  0  0  0
  8 12  1  0  0  0  0
  9 27  1  0  0  0  0
 10 22  1  0  0  0  0
 10 17  2  0  0  0  0
 11 20  1  0  0  0  0
 13  9  1  0  0  0  0
 13 20  1  0  0  0  0
 14  2  1  0  0  0  0
 15  4  1  0  0  0  0
 15 12  1  0  0  0  0
 16  8  1  0  0  0  0
 17 25  1  0  0  0  0
 18  1  1  0  0  0  0
 18  4  1  0  0  0  0
 19  5  1  0  0  0  0
 19  3  1  0  0  0  0
 20 18  1  0  0  0  0
 22 24  1  0  0  0  0
 23 21  1  0  0  0  0
 24 13  1  0  0  0  0
 25 14  1  0  0  0  0
 25  9  1  0  0  0  0
 26 21  1  0  0  0  0
 27  2  1  0  0  0  0
 27  1  1  0  0  0  0
 28 17  1  0  0  0  0
 29 32  1  0  0  0  0
 29 28  1  0  0  0  0
 30 34  1  0  0  0  0
 31 33  1  0  0  0  0
 31 32  1  0  0  0  0
 32 34  1  0  0  0  0
 33 30  1  0  0  0  0
M  END
>  <MODEL>
1

>  <REMARK>
 VINA RESULT:      -9.7      0.000      0.000
  Name = 
  3 active torsions:
  status: ('A' for Active; 'I' for Inactive)
    1  A    between atoms: C_17  and  N_28
    2  A    between atoms: N_28  and  C_29
    3  A    between atoms: C_29  and  C_32
                            x       y       z     vdW  Elec       q    Type
                         _______ _______ _______ _____ _____    ______ ____

>  <TORSDO>
F 3

$$$$
=
 OpenBabel11122414373D

 34 40  0  0  1  0  0  0  0  0999 V2000
  161.1150  207.8390  154.2650 C   0  0  1  0  0  3  0  0  0  0  0  0
  161.7090  205.8070  153.0280 O   0  0  0  0  0  0  0  0  0  0  0  0
  157.8530  213.7270  154.3890 C   0  0  0  0  0  0  0  0  0  0  0  0
  160.4370  210.0170  155.3030 C   0  0  2  0  0  3  0  0  0  0  0  0
  159.2900  211.7440  153.7390 C   0  0  1  0  0  3  0  0  0  0  0  0
  158.5880  213.5270  152.0190 C   0  0  0  0  0  1  0  0  0  0  0  0
  156.6720  213.8590  153.9690 O   0  0  0  0  0  0  0  0  0  0  0  0
  159.3530  213.6200  156.3230 C   0  0  0  0  0  2  0  0  0  0  0  0
  161.9850  207.8600  151.9820 C   0  0  2  0  0  3  0  0  0  0  0  0
  161.4250  208.0230  148.9380 C   0  0  0  0  0  3  0  0  0  0  0  0
  160.1140  211.1940  152.5460 C   0  0  0  0  0  2  0  0  0  0  0  0
  159.4180  212.1040  156.3510 C   0  0  0  0  0  2  0  0  0  0  0  0
  161.2390  209.1440  151.5900 C   0  0  1  0  0  3  0  0  0  0  0  0
  162.0730  205.5100  151.6960 C   0  0  0  0  0  2  0  0  0  0  0  0
  160.0470  211.5060  155.0830 C   0  0  1  0  0  3  0  0  0  0  0  0
  158.1320  214.0150  155.7220 O   0  0  0  0  0  0  0  0  0  0  0  0
  161.3630  206.9300  149.7110 C   0  0  0  0  0  0  0  0  0  0  0  0
  160.4310  209.1940  154.0160 C   0  0  1  0  0  3  0  0  0  0  0  0
  158.9440  213.2300  153.4780 C   0  0  1  0  0  3  0  0  0  0  0  0
  161.0290  210.0040  152.8550 C   0  0  2  0  0  3  0  0  0  0  0  0
  160.2100  207.8850  156.6080 C   0  0  0  0  0  2  0  0  0  0  0  0
  162.3620  209.1560  149.2450 C   0  0  0  0  0  2  0  0  0  0  0  0
  159.6000  209.2640  156.3450 C   0  0  0  0  0  2  0  0  0  0  0  0
  161.9760  209.9480  150.5050 C   0  0  0  0  0  2  0  0  0  0  0  0
  162.2660  206.8180  150.9240 C   0  0  1  0  0  3  0  0  0  0  0  0
  160.3060  207.0740  155.3130 C   0  0  0  0  0  2  0  0  0  0  0  0
  161.1450  207.0840  152.9460 C   0  0  2  0  0  3  0  0  0  0  0  0
  160.4430  205.8760  149.4010 N   0  0  0  0  0  2  0  0  0  0  0  0
  160.8140  204.6780  148.6600 C   0  0  0  0  0  2  0  0  0  0  0  0
  161.8720  204.2500  145.3490 C   0  0  0  0  0  2  0  0  0  0  0  0
  160.6020  205.7750  146.5530 O   0  0  0  0  0  0  0  0  0  0  0  0
  161.4990  205.0650  147.3630 C   0  0  0  0  0  3  0  0  0  0  0  0
  160.9950  205.4640  145.2550 C   0  0  0  0  0  2  0  0  0  0  0  0
  161.9490  203.9160  146.6980 O   0  0  0  0  0  0  0  0  0  0  0  0
  1 26  1  1  0  0  0
  3 16  1  0  0  0  0
  4 23  1  1  0  0  0
  5 11  1  6  0  0  0
  5 15  1  0  0  0  0
  6 19  1  0  0  0  0
  7  3  2  0  0  0  0
  8 12  1  0  0  0  0
  9 27  1  0  0  0  0
 10 22  1  0  0  0  0
 10 17  2  0  0  0  0
 11 20  1  0  0  0  0
 13  9  1  0  0  0  0
 13 20  1  0  0  0  0
 14  2  1  0  0  0  0
 15  4  1  0  0  0  0
 15 12  1  0  0  0  0
 16  8  1  0  0  0  0
 17 25  1  0  0  0  0
 18  1  1  0  0  0  0
 18  4  1  0  0  0  0
 19  5  1  0  0  0  0
 19  3  1  0  0  0  0
 20 18  1  0  0  0  0
 22 24  1  0  0  0  0
 23 21  1  0  0  0  0
 24 13  1  0  0  0  0
 25 14  1  0  0  0  0
 25  9  1  0  0  0  0
 26 21  1  0  0  0  0
 27  2  1  0  0  0  0
 27  1  1  0  0  0  0
 28 17  1  0  0  0  0
 29 28  1  0  0  0  0
 30 34  1  0  0  0  0
 31 32  1  0  0  0  0
 32 29  1  0  0  0  0
 33 30  1  0  0  0  0
 33 31  1  0  0  0  0
 34 32  1  0  0  0  0
M  END
>  <MODEL>
2

>  <REMARK>
 VINA RESULT:      -9.2      1.162      1.654
  Name = 
  3 active torsions:
  status: ('A' for Active; 'I' for Inactive)
    1  A    between atoms: C_17  and  N_28
    2  A    between atoms: N_28  and  C_29
    3  A    between atoms: C_29  and  C_32
                            x       y       z     vdW  Elec       q    Type
                         _______ _______ _______ _____ _____    ______ ____

>  <TORSDO>
F 3

$$$$
