=
 OpenBabel11122413433D

 37 43  0  0  1  0  0  0  0  0999 V2000
  160.9340  209.3770  154.7130 C   0  0  0  0  0  2  0  0  0  0  0  0
  161.5270  205.7240  151.8680 C   0  0  0  0  0  0  0  0  0  0  0  0
  161.4120  209.5410  150.2160 C   0  0  0  0  0  0  0  0  0  0  0  0
  160.3260  209.3810  156.1220 C   0  0  2  0  0  3  0  0  0  0  0  0
  160.0040  212.4900  152.4100 C   0  0  0  0  0  2  0  0  0  0  0  0
  161.8530  207.2040  149.8370 C   0  0  0  0  0  0  0  0  0  0  0  0
  160.8330  210.2790  151.2630 C   0  0  0  0  0  0  0  0  0  0  0  0
  160.2230  212.0190  156.2230 C   0  0  2  0  0  3  0  0  0  0  0  0
  161.3060  208.2300  150.5780 C   0  0  0  0  0  0  0  0  0  0  0  0
  160.9490  211.7860  151.4300 C   0  0  1  0  0  3  0  0  0  0  0  0
  162.4830  207.5140  148.6700 N   0  0  0  0  0  0  0  0  0  0  0  0
  159.5520  210.6600  156.5120 C   0  0  0  0  0  2  0  0  0  0  0  0
  160.7340  208.0720  151.7680 N   0  0  0  0  0  0  0  0  0  0  0  0
  162.8710  205.9410  152.5400 C   0  0  0  0  0  1  0  0  0  0  0  0
  162.1740  211.2570  148.4130 C   0  0  0  0  0  2  0  0  0  0  0  0
  162.6030  208.8130  148.2520 C   0  0  0  0  0  3  0  0  0  0  0  0
  160.5160  206.7680  152.3970 C   0  0  0  0  0  2  0  0  0  0  0  0
  159.7370  212.6720  154.9240 C   0  0  0  0  0  2  0  0  0  0  0  0
  160.0290  211.7800  153.7330 C   0  0  1  0  0  3  0  0  0  0  0  0
  162.0880  209.8820  149.0190 C   0  0  0  0  0  0  0  0  0  0  0  0
  160.4360  209.3080  152.2220 C   0  0  0  0  0  0  0  0  0  0  0  0
  161.6990  205.7920  150.3300 C   0  0  0  0  0  2  0  0  0  0  0  0
  160.9530  212.4510  150.1330 N   0  0  0  0  0  0  0  0  0  0  0  0
  161.0290  204.3430  152.2360 C   0  0  0  0  0  1  0  0  0  0  0  0
  159.1230  210.7150  153.6960 O   0  0  0  0  0  0  0  0  0  0  0  0
  161.6170  211.9470  156.2630 O   0  0  0  0  0  1  0  0  0  0  0  0
  159.8740  209.5310  153.6050 C   0  0  2  0  0  3  0  0  0  0  0  0
  162.2180  212.3950  149.4190 C   0  0  0  0  0  2  0  0  0  0  0  0
  159.6750  212.7680  148.0420 C   0  0  0  0  0  3  0  0  0  0  0  0
  159.7390  212.8190  149.4430 C   0  0  0  0  0  0  0  0  0  0  0  0
  158.6370  213.2050  150.1460 N   0  0  0  0  0  0  0  0  0  0  0  0
  156.0940  214.0390  150.4900 Cl  0  0  0  0  0  0  0  0  0  0  0  0
  157.3790  213.5120  148.1400 C   0  0  0  0  0  3  0  0  0  0  0  0
  157.4730  213.5490  149.5320 C   0  0  0  0  0  0  0  0  0  0  0  0
  158.4900  213.1170  147.3930 C   0  0  0  0  0  3  0  0  0  0  0  0
  161.6100  207.5690  157.2610 C   0  0  0  0  0  1  0  0  0  0  0  0
  161.3870  209.0660  157.1650 C   0  0  0  0  0  2  0  0  0  0  0  0
  1  4  1  0  0  0  0
  2 24  1  0  0  0  0
  2 17  1  0  0  0  0
  2 14  1  0  0  0  0
  3  9  1  0  0  0  0
  3  7  1  0  0  0  0
  4 12  1  0  0  0  0
  4 37  1  1  0  0  0
  6 22  1  0  0  0  0
  6  9  2  0  0  0  0
  7 10  1  0  0  0  0
  7 21  2  0  0  0  0
  8 26  1  6  0  0  0
  8 12  1  0  0  0  0
  9 13  1  0  0  0  0
 10  5  1  1  0  0  0
 11  6  1  0  0  0  0
 13 21  1  0  0  0  0
 13 17  1  0  0  0  0
 15 20  1  0  0  0  0
 15 28  1  0  0  0  0
 16 11  2  0  0  0  0
 16 20  1  0  0  0  0
 18  8  1  0  0  0  0
 19  5  1  6  0  0  0
 19 18  1  0  0  0  0
 20  3  2  0  0  0  0
 21 27  1  0  0  0  0
 22  2  1  0  0  0  0
 23 10  1  0  0  0  0
 25 19  1  0  0  0  0
 27 25  1  0  0  0  0
 27  1  1  1  0  0  0
 28 23  1  0  0  0  0
 29 30  1  0  0  0  0
 30 23  1  0  0  0  0
 30 31  2  0  0  0  0
 33 34  2  0  0  0  0
 34 31  1  0  0  0  0
 34 32  1  0  0  0  0
 35 29  2  0  0  0  0
 35 33  1  0  0  0  0
 37 36  1  0  0  0  0
M  END
>  <MODEL>
1

>  <REMARK>
 VINA RESULT:      -3.9      0.000      0.000
  Name = 
  2 active torsions:
  status: ('A' for Active; 'I' for Inactive)
    1  A    between atoms: C_4  and  C_37
    2  A    between atoms: N_23  and  C_30
                            x       y       z     vdW  Elec       q    Type
                         _______ _______ _______ _____ _____    ______ ____

>  <TORSDO>
F 2

$$$$
=
 OpenBabel11122413433D

 37 43  0  0  1  0  0  0  0  0999 V2000
  159.6600  211.6040  154.6270 C   0  0  0  0  0  2  0  0  0  0  0  0
  161.6820  208.0490  152.3790 C   0  0  0  0  0  0  0  0  0  0  0  0
  160.9020  211.5550  150.2770 C   0  0  0  0  0  0  0  0  0  0  0  0
  158.8210  211.5480  155.9120 C   0  0  2  0  0  3  0  0  0  0  0  0
  158.4070  214.1620  151.8460 C   0  0  0  0  0  2  0  0  0  0  0  0
  161.9880  209.4050  150.2590 C   0  0  0  0  0  0  0  0  0  0  0  0
  159.9700  212.1820  151.1220 C   0  0  0  0  0  0  0  0  0  0  0  0
  158.0300  214.0570  155.6740 C   0  0  2  0  0  3  0  0  0  0  0  0
  161.0700  210.2950  150.7740 C   0  0  0  0  0  0  0  0  0  0  0  0
  159.6650  213.6720  151.1200 C   0  0  1  0  0  3  0  0  0  0  0  0
  162.7230  209.7860  149.1780 N   0  0  0  0  0  0  0  0  0  0  0  0
  157.6880  212.5920  156.0160 C   0  0  0  0  0  2  0  0  0  0  0  0
  160.3480  210.0770  151.8700 N   0  0  0  0  0  0  0  0  0  0  0  0
  162.7780  208.6750  153.2230 C   0  0  0  0  0  1  0  0  0  0  0  0
  161.5190  213.2720  148.4210 C   0  0  0  0  0  2  0  0  0  0  0  0
  162.5820  211.0340  148.6290 C   0  0  0  0  0  3  0  0  0  0  0  0
  160.3590  208.8140  152.6100 C   0  0  0  0  0  2  0  0  0  0  0  0
  157.6430  214.4530  154.2450 C   0  0  0  0  0  2  0  0  0  0  0  0
  158.3670  213.5880  153.2320 C   0  0  1  0  0  3  0  0  0  0  0  0
  161.6780  211.9760  149.1690 C   0  0  0  0  0  0  0  0  0  0  0  0
  159.6650  211.2150  152.1170 C   0  0  0  0  0  0  0  0  0  0  0  0
  162.1120  208.0460  150.8900 C   0  0  0  0  0  2  0  0  0  0  0  0
  159.7370  214.2130  149.7680 N   0  0  0  0  0  0  0  0  0  0  0  0
  161.4950  206.6170  152.8290 C   0  0  0  0  0  1  0  0  0  0  0  0
  157.7870  212.3160  153.1820 O   0  0  0  0  0  0  0  0  0  0  0  0
  159.3650  214.3720  155.9420 O   0  0  0  0  0  1  0  0  0  0  0  0
  158.8190  211.3790  153.3560 C   0  0  2  0  0  3  0  0  0  0  0  0
  161.0840  214.4520  149.2750 C   0  0  0  0  0  2  0  0  0  0  0  0
  157.3050  214.1370  149.3430 C   0  0  0  0  0  3  0  0  0  0  0  0
  158.6190  214.1830  148.8560 C   0  0  0  0  0  0  0  0  0  0  0  0
  158.8290  214.2150  147.5090 N   0  0  0  0  0  0  0  0  0  0  0  0
  158.1350  214.2400  144.9020 Cl  0  0  0  0  0  0  0  0  0  0  0  0
  156.4830  214.1500  147.0730 C   0  0  0  0  0  3  0  0  0  0  0  0
  157.8010  214.1990  146.6180 C   0  0  0  0  0  0  0  0  0  0  0  0
  156.2370  214.1190  148.4460 C   0  0  0  0  0  3  0  0  0  0  0  0
  160.7320  210.4870  157.1190 C   0  0  0  0  0  1  0  0  0  0  0  0
  159.7160  211.6140  157.1400 C   0  0  0  0  0  2  0  0  0  0  0  0
  1  4  1  0  0  0  0
  2 17  1  0  0  0  0
  2 24  1  0  0  0  0
  2 14  1  0  0  0  0
  3  9  1  0  0  0  0
  3  7  1  0  0  0  0
  4 12  1  0  0  0  0
  4 37  1  1  0  0  0
  6  9  2  0  0  0  0
  6 22  1  0  0  0  0
  7 21  2  0  0  0  0
  8 26  1  6  0  0  0
  8 12  1  0  0  0  0
  9 13  1  0  0  0  0
 10  7  1  0  0  0  0
 10  5  1  6  0  0  0
 11  6  1  0  0  0  0
 13 21  1  0  0  0  0
 13 17  1  0  0  0  0
 15 20  1  0  0  0  0
 15 28  1  0  0  0  0
 16 20  1  0  0  0  0
 16 11  2  0  0  0  0
 18  8  1  0  0  0  0
 19  5  1  6  0  0  0
 19 18  1  0  0  0  0
 20  3  2  0  0  0  0
 21 27  1  0  0  0  0
 22  2  1  0  0  0  0
 23 10  1  0  0  0  0
 25 19  1  0  0  0  0
 25 27  1  0  0  0  0
 27  1  1  1  0  0  0
 28 23  1  0  0  0  0
 30 29  1  0  0  0  0
 30 23  1  0  0  0  0
 31 30  2  0  0  0  0
 32 34  1  0  0  0  0
 33 35  1  0  0  0  0
 34 33  2  0  0  0  0
 34 31  1  0  0  0  0
 35 29  2  0  0  0  0
 36 37  1  0  0  0  0
M  END
>  <MODEL>
2

>  <REMARK>
 VINA RESULT:      -1.8      1.972      2.624
  Name = 
  2 active torsions:
  status: ('A' for Active; 'I' for Inactive)
    1  A    between atoms: C_4  and  C_37
    2  A    between atoms: N_23  and  C_30
                            x       y       z     vdW  Elec       q    Type
                         _______ _______ _______ _____ _____    ______ ____

>  <TORSDO>
F 2

$$$$
=
 OpenBabel11122413433D

 37 43  0  0  1  0  0  0  0  0999 V2000
  160.5870  210.9870  148.5060 C   0  0  0  0  0  2  0  0  0  0  0  0
  162.0740  206.5770  148.1530 C   0  0  0  0  0  0  0  0  0  0  0  0
  161.1710  208.0820  151.9250 C   0  0  0  0  0  0  0  0  0  0  0  0
  160.7960  212.1320  147.5040 C   0  0  2  0  0  3  0  0  0  0  0  0
  160.8320  211.9800  152.3540 C   0  0  0  0  0  2  0  0  0  0  0  0
  161.7240  206.1330  150.6230 C   0  0  0  0  0  0  0  0  0  0  0  0
  161.1720  209.4660  151.6780 C   0  0  0  0  0  0  0  0  0  0  0  0
  159.8960  213.9580  149.1880 C   0  0  2  0  0  3  0  0  0  0  0  0
  161.6620  207.5000  150.7930 C   0  0  0  0  0  0  0  0  0  0  0  0
  160.4740  210.5010  152.5470 C   0  0  1  0  0  3  0  0  0  0  0  0
  161.3220  205.3350  151.6500 N   0  0  0  0  0  0  0  0  0  0  0  0
  160.9290  213.5420  148.1200 C   0  0  0  0  0  2  0  0  0  0  0  0
  161.9500  208.3870  149.8440 N   0  0  0  0  0  0  0  0  0  0  0  0
  160.6260  206.5570  147.6980 C   0  0  0  0  0  1  0  0  0  0  0  0
  160.2890  207.7460  154.3510 C   0  0  0  0  0  2  0  0  0  0  0  0
  160.8380  205.8680  152.8160 C   0  0  0  0  0  3  0  0  0  0  0  0
  162.4730  208.0240  148.5260 C   0  0  0  0  0  2  0  0  0  0  0  0
  160.4040  213.7820  150.6240 C   0  0  0  0  0  2  0  0  0  0  0  0
  160.7530  212.3320  150.8970 C   0  0  1  0  0  3  0  0  0  0  0  0
  160.7250  207.2650  152.9920 C   0  0  0  0  0  0  0  0  0  0  0  0
  161.6550  209.6030  150.3490 C   0  0  0  0  0  0  0  0  0  0  0  0
  162.2620  205.5870  149.3290 C   0  0  0  0  0  2  0  0  0  0  0  0
  160.5370  210.1240  153.9530 N   0  0  0  0  0  0  0  0  0  0  0  0
  162.9400  206.1220  146.9980 C   0  0  0  0  0  1  0  0  0  0  0  0
  161.9680  212.0060  150.2830 O   0  0  0  0  0  0  0  0  0  0  0  0
  158.6590  213.3340  149.0090 O   0  0  0  0  0  1  0  0  0  0  0  0
  161.7490  210.8540  149.5100 C   0  0  2  0  0  3  0  0  0  0  0  0
  159.5910  209.0960  154.3550 C   0  0  0  0  0  2  0  0  0  0  0  0
  161.5050  210.5090  156.1930 C   0  0  0  0  0  3  0  0  0  0  0  0
  161.6580  210.4570  154.8000 C   0  0  0  0  0  0  0  0  0  0  0  0
  162.8820  210.7080  154.2550 N   0  0  0  0  0  0  0  0  0  0  0  0
  165.5070  211.3300  154.2610 Cl  0  0  0  0  0  0  0  0  0  0  0  0
  163.8420  211.0780  156.4090 C   0  0  0  0  0  3  0  0  0  0  0  0
  163.9640  211.0150  155.0200 C   0  0  0  0  0  0  0  0  0  0  0  0
  162.6030  210.8220  156.9960 C   0  0  0  0  0  3  0  0  0  0  0  0
  160.2520  212.6220  145.1180 C   0  0  0  0  0  1  0  0  0  0  0  0
  159.7080  212.1190  146.4420 C   0  0  0  0  0  2  0  0  0  0  0  0
  2 17  1  0  0  0  0
  2 22  1  0  0  0  0
  3 20  1  0  0  0  0
  4 37  1  6  0  0  0
  4 12  1  0  0  0  0
  4  1  1  0  0  0  0
  6  9  1  0  0  0  0
  6 11  2  0  0  0  0
  7  3  1  0  0  0  0
  7 10  1  0  0  0  0
  8 26  1  1  0  0  0
  8 18  1  0  0  0  0
  9  3  2  0  0  0  0
 10  5  1  1  0  0  0
 10 23  1  0  0  0  0
 11 16  1  0  0  0  0
 12  8  1  0  0  0  0
 13 21  1  0  0  0  0
 13  9  1  0  0  0  0
 14  2  1  0  0  0  0
 15 28  1  0  0  0  0
 16 20  2  0  0  0  0
 17 13  1  0  0  0  0
 19 18  1  1  0  0  0
 19  5  1  0  0  0  0
 20 15  1  0  0  0  0
 21  7  2  0  0  0  0
 22  6  1  0  0  0  0
 23 28  1  0  0  0  0
 23 30  1  0  0  0  0
 24  2  1  0  0  0  0
 25 19  1  0  0  0  0
 27  1  1  1  0  0  0
 27 25  1  0  0  0  0
 27 21  1  0  0  0  0
 29 35  1  0  0  0  0
 30 29  2  0  0  0  0
 31 30  1  0  0  0  0
 31 34  2  0  0  0  0
 32 34  1  0  0  0  0
 33 35  2  0  0  0  0
 34 33  1  0  0  0  0
 36 37  1  0  0  0  0
M  END
>  <MODEL>
3

>  <REMARK>
 VINA RESULT:      -1.5      2.839      6.528
  Name = 
  2 active torsions:
  status: ('A' for Active; 'I' for Inactive)
    1  A    between atoms: C_4  and  C_37
    2  A    between atoms: N_23  and  C_30
                            x       y       z     vdW  Elec       q    Type
                         _______ _______ _______ _____ _____    ______ ____

>  <TORSDO>
F 2

$$$$
