=
 OpenBabel11122413103D

 31 35  0  0  1  0  0  0  0  0999 V2000
  161.6720  207.9870  138.1040 C   0  0  0  0  0  0  0  0  0  0  0  0
  160.0890  211.4380  138.2550 C   0  0  2  0  0  3  0  0  0  0  0  0
  158.5720  211.2110  138.0260 C   0  0  1  0  0  3  0  0  0  0  0  0
  156.4530  209.9830  138.4610 C   0  0  0  0  0  0  0  0  0  0  0  0
  160.8430  210.1970  138.6640 C   0  0  0  0  0  0  0  0  0  0  0  0
  162.1270  207.8230  139.4140 C   0  0  0  0  0  3  0  0  0  0  0  0
  157.9290  210.0340  138.7700 C   0  0  0  0  0  2  0  0  0  0  0  0
  160.1800  212.2050  140.6290 C   0  0  2  0  0  3  0  0  0  0  0  0
  161.8550  206.9750  137.1720 O   0  0  0  0  0  1  0  0  0  0  0  0
  158.4570  213.5980  137.8890 O   0  0  0  0  0  0  0  0  0  0  0  0
  155.8170  208.9120  138.6320 O   0  0  0  0  0  0  0  0  0  0  0  0
  161.2080  211.1340  141.0030 C   0  0  0  0  0  2  0  0  0  0  0  0
  160.3850  212.6440  139.1730 C   0  0  2  0  0  3  0  0  0  0  0  0
  161.0300  209.1710  137.7310 C   0  0  0  0  0  3  0  0  0  0  0  0
  155.7440  211.1880  137.9730 C   0  0  0  0  0  3  0  0  0  0  0  0
  161.2950  210.0260  139.9910 C   0  0  0  0  0  0  0  0  0  0  0  0
  161.9450  208.8420  140.3510 C   0  0  0  0  0  3  0  0  0  0  0  0
  159.5010  213.8720  138.8060 C   0  0  0  0  0  2  0  0  0  0  0  0
  157.7880  212.4730  138.3800 C   0  0  1  0  0  3  0  0  0  0  0  0
  156.3770  212.3640  137.8890 C   0  0  0  0  0  3  0  0  0  0  0  0
  160.2660  213.3670  141.6130 C   0  0  0  0  0  2  0  0  0  0  0  0
  157.9600  213.9170  141.7330 O   0  0  0  0  0  0  0  0  0  0  0  0
  158.9740  213.4970  142.3520 C   0  0  0  0  0  0  0  0  0  0  0  0
  159.1950  213.2230  146.5660 N   0  0  0  0  0  0  0  0  0  0  0  0
  158.0580  214.1160  144.5880 C   0  0  0  0  0  2  0  0  0  0  0  0
  160.3950  211.4080  143.6130 O   0  0  0  0  0  1  0  0  0  0  0  0
  159.9160  213.6240  147.7590 C   0  0  0  0  0  1  0  0  0  0  0  0
  158.8020  214.4530  145.8780 C   0  0  0  0  0  2  0  0  0  0  0  0
  159.4710  212.0670  144.4260 C   0  0  2  0  0  3  0  0  0  0  0  0
  158.8980  213.2500  143.7670 N   0  0  0  0  0  0  0  0  0  0  0  0
  160.1460  212.4960  145.7260 C   0  0  0  0  0  2  0  0  0  0  0  0
  1  6  1  0  0  0  0
  2  5  1  1  0  0  0
  2 13  1  0  0  0  0
  3  2  1  0  0  0  0
  3 19  1  0  0  0  0
  3  7  1  1  0  0  0
  4 11  2  0  0  0  0
  4  7  1  0  0  0  0
  5 16  2  0  0  0  0
  6 17  2  0  0  0  0
  8 12  1  0  0  0  0
  8 21  1  1  0  0  0
  9  1  1  0  0  0  0
 10 19  1  0  0  0  0
 10 18  1  0  0  0  0
 13 18  1  6  0  0  0
 13  8  1  0  0  0  0
 14  1  2  0  0  0  0
 14  5  1  0  0  0  0
 15  4  1  0  0  0  0
 16 17  1  0  0  0  0
 16 12  1  0  0  0  0
 19 20  1  6  0  0  0
 20 15  2  0  0  0  0
 21 23  1  0  0  0  0
 22 23  2  0  0  0  0
 23 30  1  0  0  0  0
 24 27  1  0  0  0  0
 25 28  1  0  0  0  0
 28 24  1  0  0  0  0
 29 26  1  6  0  0  0
 29 31  1  0  0  0  0
 30 29  1  0  0  0  0
 30 25  1  0  0  0  0
 31 24  1  0  0  0  0
M  END
>  <MODEL>
1

>  <REMARK>
 VINA RESULT:      -4.9      0.000      0.000
  Name = 
  2 active torsions:
  status: ('A' for Active; 'I' for Inactive)
    1  A    between atoms: C_5  and  C_16
    2  A    between atoms: C_10  and  C_16
                            x       y       z     vdW  Elec       q    Type
                         _______ _______ _______ _____ _____    ______ ____

>  <TORSDO>
F 2

$$$$
=
 OpenBabel11122413103D

 31 35  0  0  1  0  0  0  0  0999 V2000
  161.2810  200.5780  148.6460 C   0  0  0  0  0  0  0  0  0  0  0  0
  162.1890  204.1140  147.5930 C   0  0  2  0  0  3  0  0  0  0  0  0
  161.6270  204.2780  146.1570 C   0  0  1  0  0  3  0  0  0  0  0  0
  159.8180  204.0090  144.4710 C   0  0  0  0  0  0  0  0  0  0  0  0
  161.5830  202.9690  148.3650 C   0  0  0  0  0  0  0  0  0  0  0  0
  160.3810  200.8110  149.6890 C   0  0  0  0  0  3  0  0  0  0  0  0
  160.2150  203.7350  145.9010 C   0  0  0  0  0  2  0  0  0  0  0  0
  160.7740  205.6830  148.9230 C   0  0  2  0  0  3  0  0  0  0  0  0
  161.5810  199.2780  148.2650 O   0  0  0  0  0  1  0  0  0  0  0  0
  162.8470  206.3380  146.1490 O   0  0  0  0  0  0  0  0  0  0  0  0
  158.9010  203.3320  143.9380 O   0  0  0  0  0  0  0  0  0  0  0  0
  160.3900  204.5900  149.9240 C   0  0  0  0  0  2  0  0  0  0  0  0
  162.1930  205.4350  148.3920 C   0  0  2  0  0  3  0  0  0  0  0  0
  161.8790  201.6540  147.9850 C   0  0  0  0  0  3  0  0  0  0  0  0
  160.4860  205.0790  143.6950 C   0  0  0  0  0  3  0  0  0  0  0  0
  160.6660  203.2040  149.4130 C   0  0  0  0  0  0  0  0  0  0  0  0
  160.0810  202.1200  150.0740 C   0  0  0  0  0  3  0  0  0  0  0  0
  162.7060  206.6250  147.5290 C   0  0  0  0  0  2  0  0  0  0  0  0
  161.6440  205.7490  145.7460 C   0  0  1  0  0  3  0  0  0  0  0  0
  161.3850  205.8820  144.2760 C   0  0  0  0  0  3  0  0  0  0  0  0
  160.6170  207.0540  149.5710 C   0  0  0  0  0  2  0  0  0  0  0  0
  161.6220  205.9560  151.4210 O   0  0  0  0  0  0  0  0  0  0  0  0
  161.2830  207.0570  150.9090 C   0  0  0  0  0  0  0  0  0  0  0  0
  161.1330  210.6920  153.0630 N   0  0  0  0  0  0  0  0  0  0  0  0
  161.2530  208.2450  153.1010 C   0  0  0  0  0  2  0  0  0  0  0  0
  161.9560  209.5130  149.6890 O   0  0  0  0  0  1  0  0  0  0  0  0
  160.3060  211.8110  153.4750 C   0  0  0  0  0  1  0  0  0  0  0  0
  160.4560  209.4790  153.5220 C   0  0  0  0  0  2  0  0  0  0  0  0
  161.9750  209.5220  151.0850 C   0  0  2  0  0  3  0  0  0  0  0  0
  161.4470  208.2750  151.6550 N   0  0  0  0  0  0  0  0  0  0  0  0
  161.1500  210.6990  151.6010 C   0  0  0  0  0  2  0  0  0  0  0  0
  1  6  1  0  0  0  0
  2  5  1  1  0  0  0
  2 13  1  0  0  0  0
  3  7  1  1  0  0  0
  3  2  1  0  0  0  0
  4  7  1  0  0  0  0
  5 16  2  0  0  0  0
  6 17  2  0  0  0  0
  8 21  1  1  0  0  0
  8 12  1  0  0  0  0
  9  1  1  0  0  0  0
 10 18  1  0  0  0  0
 11  4  2  0  0  0  0
 13 18  1  6  0  0  0
 13  8  1  0  0  0  0
 14  5  1  0  0  0  0
 14  1  2  0  0  0  0
 15 20  2  0  0  0  0
 15  4  1  0  0  0  0
 16 12  1  0  0  0  0
 16 17  1  0  0  0  0
 19 20  1  6  0  0  0
 19 10  1  0  0  0  0
 19  3  1  0  0  0  0
 21 23  1  0  0  0  0
 23 22  2  0  0  0  0
 23 30  1  0  0  0  0
 24 27  1  0  0  0  0
 24 28  1  0  0  0  0
 25 28  1  0  0  0  0
 29 26  1  6  0  0  0
 29 31  1  0  0  0  0
 29 30  1  0  0  0  0
 30 25  1  0  0  0  0
 31 24  1  0  0  0  0
M  END
>  <MODEL>
2

>  <REMARK>
 VINA RESULT:      -4.4      8.259     10.622
  Name = 
  2 active torsions:
  status: ('A' for Active; 'I' for Inactive)
    1  A    between atoms: C_5  and  C_16
    2  A    between atoms: C_10  and  C_16
                            x       y       z     vdW  Elec       q    Type
                         _______ _______ _______ _____ _____    ______ ____

>  <TORSDO>
F 2

$$$$
=
 OpenBabel11122413103D

 31 35  0  0  1  0  0  0  0  0999 V2000
  161.3420  208.5450  156.4020 C   0  0  0  0  0  0  0  0  0  0  0  0
  161.5990  210.1880  152.9850 C   0  0  2  0  0  3  0  0  0  0  0  0
  161.7460  209.0230  151.9730 C   0  0  1  0  0  3  0  0  0  0  0  0
  161.0820  206.7930  151.0910 C   0  0  0  0  0  0  0  0  0  0  0  0
  161.0540  209.7720  154.3290 C   0  0  0  0  0  0  0  0  0  0  0  0
  160.0380  208.8710  156.7790 C   0  0  0  0  0  3  0  0  0  0  0  0
  160.8310  207.8080  152.1790 C   0  0  0  0  0  2  0  0  0  0  0  0
  159.3520  211.1240  152.4280 C   0  0  2  0  0  3  0  0  0  0  0  0
  162.1370  207.7750  157.2400 O   0  0  0  0  0  1  0  0  0  0  0  0
  162.1950  210.7520  150.3800 O   0  0  0  0  0  0  0  0  0  0  0  0
  160.7490  205.5940  151.2690 O   0  0  0  0  0  0  0  0  0  0  0  0
  158.8740  211.0070  153.8780 C   0  0  0  0  0  2  0  0  0  0  0  0
  160.8600  211.4080  152.3950 C   0  0  2  0  0  3  0  0  0  0  0  0
  161.8480  208.9940  155.1790 C   0  0  0  0  0  3  0  0  0  0  0  0
  161.7030  207.2000  149.8090 C   0  0  0  0  0  3  0  0  0  0  0  0
  159.7320  210.0930  154.7070 C   0  0  0  0  0  0  0  0  0  0  0  0
  159.2390  209.6480  155.9370 C   0  0  0  0  0  3  0  0  0  0  0  0
  161.3580  211.7370  150.9560 C   0  0  0  0  0  2  0  0  0  0  0  0
  161.5370  209.5290  150.5470 C   0  0  1  0  0  3  0  0  0  0  0  0
  161.9620  208.4890  149.5570 C   0  0  0  0  0  3  0  0  0  0  0  0
  158.5350  212.1840  151.7000 C   0  0  0  0  0  2  0  0  0  0  0  0
  159.5130  214.3100  152.1020 O   0  0  0  0  0  0  0  0  0  0  0  0
  158.6230  213.4820  152.4360 C   0  0  0  0  0  0  0  0  0  0  0  0
  156.4130  213.7460  156.0300 N   0  0  0  0  0  0  0  0  0  0  0  0
  158.3570  214.4530  154.7170 C   0  0  0  0  0  2  0  0  0  0  0  0
  155.9140  212.6950  152.5520 O   0  0  0  0  0  1  0  0  0  0  0  0
  156.0350  213.0750  157.2610 C   0  0  0  0  0  1  0  0  0  0  0  0
  157.8750  213.7840  156.0030 C   0  0  0  0  0  2  0  0  0  0  0  0
  156.3330  213.5240  153.5940 C   0  0  2  0  0  3  0  0  0  0  0  0
  157.7850  213.7500  153.5730 N   0  0  0  0  0  0  0  0  0  0  0  0
  155.9410  212.9030  154.9320 C   0  0  0  0  0  2  0  0  0  0  0  0
  1  6  1  0  0  0  0
  1  9  1  0  0  0  0
  2  5  1  1  0  0  0
  3  7  1  1  0  0  0
  3  2  1  0  0  0  0
  4 11  2  0  0  0  0
  4  7  1  0  0  0  0
  5 16  2  0  0  0  0
  5 14  1  0  0  0  0
  8 21  1  1  0  0  0
  8 12  1  0  0  0  0
 10 19  1  0  0  0  0
 10 18  1  0  0  0  0
 12 16  1  0  0  0  0
 13 18  1  6  0  0  0
 13  8  1  0  0  0  0
 13  2  1  0  0  0  0
 14  1  2  0  0  0  0
 15  4  1  0  0  0  0
 16 17  1  0  0  0  0
 17  6  2  0  0  0  0
 19 20  1  6  0  0  0
 19  3  1  0  0  0  0
 20 15  2  0  0  0  0
 21 23  1  0  0  0  0
 22 23  2  0  0  0  0
 23 30  1  0  0  0  0
 24 27  1  0  0  0  0
 25 28  1  0  0  0  0
 28 24  1  0  0  0  0
 29 26  1  6  0  0  0
 29 31  1  0  0  0  0
 30 29  1  0  0  0  0
 30 25  1  0  0  0  0
 31 24  1  0  0  0  0
M  END
>  <MODEL>
3

>  <REMARK>
 VINA RESULT:      -4.2     10.540     13.403
  Name = 
  2 active torsions:
  status: ('A' for Active; 'I' for Inactive)
    1  A    between atoms: C_5  and  C_16
    2  A    between atoms: C_10  and  C_16
                            x       y       z     vdW  Elec       q    Type
                         _______ _______ _______ _____ _____    ______ ____

>  <TORSDO>
F 2

$$$$
=
 OpenBabel11122413103D

 31 35  0  0  1  0  0  0  0  0999 V2000
  162.3620  212.3370  148.6360 C   0  0  0  0  0  0  0  0  0  0  0  0
  162.5430  209.0850  150.5930 C   0  0  2  0  0  3  0  0  0  0  0  0
  161.7280  209.3330  151.8880 C   0  0  1  0  0  3  0  0  0  0  0  0
  159.7200  210.1900  153.0800 C   0  0  0  0  0  0  0  0  0  0  0  0
  162.2530  210.0670  149.4850 C   0  0  0  0  0  0  0  0  0  0  0  0
  161.6280  211.9550  147.5110 C   0  0  0  0  0  3  0  0  0  0  0  0
  160.3900  210.0670  151.7330 C   0  0  0  0  0  2  0  0  0  0  0  0
  161.1570  207.3990  149.3810 C   0  0  2  0  0  3  0  0  0  0  0  0
  162.7830  213.6520  148.7770 O   0  0  0  0  0  1  0  0  0  0  0  0
  162.6090  207.2200  152.5870 O   0  0  0  0  0  0  0  0  0  0  0  0
  158.8370  211.0680  153.2590 O   0  0  0  0  0  0  0  0  0  0  0  0
  161.1150  208.2520  148.1110 C   0  0  0  0  0  2  0  0  0  0  0  0
  162.4860  207.6180  150.1170 C   0  0  2  0  0  3  0  0  0  0  0  0
  162.6730  211.3960  149.6200 C   0  0  0  0  0  3  0  0  0  0  0  0
  160.0810  209.2750  154.1880 C   0  0  0  0  0  3  0  0  0  0  0  0
  161.5030  209.6830  148.3520 C   0  0  0  0  0  0  0  0  0  0  0  0
  161.2060  210.6310  147.3680 C   0  0  0  0  0  3  0  0  0  0  0  0
  162.6640  206.6250  151.3030 C   0  0  0  0  0  2  0  0  0  0  0  0
  161.4560  208.0120  152.6040 C   0  0  1  0  0  3  0  0  0  0  0  0
  160.9350  208.2650  153.9860 C   0  0  0  0  0  3  0  0  0  0  0  0
  160.9110  205.9360  149.0290 C   0  0  0  0  0  2  0  0  0  0  0  0
  162.7070  206.3390  147.5300 O   0  0  0  0  0  0  0  0  0  0  0  0
  161.8420  205.5180  147.9380 C   0  0  0  0  0  0  0  0  0  0  0  0
  160.8310  201.9670  145.8770 N   0  0  0  0  0  0  0  0  0  0  0  0
  161.9120  204.1660  145.8430 C   0  0  0  0  0  2  0  0  0  0  0  0
  161.1520  203.1600  149.3300 O   0  0  0  0  0  1  0  0  0  0  0  0
  159.7660  201.1970  145.2610 C   0  0  0  0  0  1  0  0  0  0  0  0
  160.8310  203.2780  145.2280 C   0  0  0  0  0  2  0  0  0  0  0  0
  161.5250  202.9710  147.9990 C   0  0  2  0  0  3  0  0  0  0  0  0
  161.6980  204.2450  147.2850 N   0  0  0  0  0  0  0  0  0  0  0  0
  160.4670  202.1360  147.2830 C   0  0  0  0  0  2  0  0  0  0  0  0
  1  9  1  0  0  0  0
  1 14  1  0  0  0  0
  2  5  1  6  0  0  0
  2  3  1  0  0  0  0
  3  7  1  6  0  0  0
  3 19  1  0  0  0  0
  4 11  2  0  0  0  0
  4 15  1  0  0  0  0
  5 14  2  0  0  0  0
  6  1  2  0  0  0  0
  7  4  1  0  0  0  0
  8 21  1  6  0  0  0
  8 13  1  0  0  0  0
 10 19  1  0  0  0  0
 12 16  1  0  0  0  0
 12  8  1  0  0  0  0
 13  2  1  0  0  0  0
 13 18  1  1  0  0  0
 16  5  1  0  0  0  0
 17  6  1  0  0  0  0
 17 16  2  0  0  0  0
 18 10  1  0  0  0  0
 19 20  1  1  0  0  0
 20 15  2  0  0  0  0
 22 23  2  0  0  0  0
 23 21  1  0  0  0  0
 24 31  1  0  0  0  0
 25 30  1  0  0  0  0
 27 24  1  0  0  0  0
 28 25  1  0  0  0  0
 28 24  1  0  0  0  0
 29 26  1  1  0  0  0
 30 23  1  0  0  0  0
 30 29  1  0  0  0  0
 31 29  1  0  0  0  0
M  END
>  <MODEL>
4

>  <REMARK>
 VINA RESULT:      -3.7      8.358     12.279
  Name = 
  2 active torsions:
  status: ('A' for Active; 'I' for Inactive)
    1  A    between atoms: C_5  and  C_16
    2  A    between atoms: C_10  and  C_16
                            x       y       z     vdW  Elec       q    Type
                         _______ _______ _______ _____ _____    ______ ____

>  <TORSDO>
F 2

$$$$
=
 OpenBabel11122413103D

 31 35  0  0  1  0  0  0  0  0999 V2000
  162.3460  207.6030  151.4840 C   0  0  0  0  0  0  0  0  0  0  0  0
  159.9010  209.5120  153.6780 C   0  0  2  0  0  3  0  0  0  0  0  0
  160.6950  209.8900  154.9560 C   0  0  1  0  0  3  0  0  0  0  0  0
  162.7290  210.7630  156.0890 C   0  0  0  0  0  0  0  0  0  0  0  0
  160.7680  209.1390  152.5010 C   0  0  0  0  0  0  0  0  0  0  0  0
  162.4880  208.4650  150.3950 C   0  0  0  0  0  3  0  0  0  0  0  0
  162.1220  210.4140  154.7530 C   0  0  0  0  0  2  0  0  0  0  0  0
  159.4970  211.7290  152.6030 C   0  0  2  0  0  3  0  0  0  0  0  0
  163.0570  206.4110  151.5250 O   0  0  0  0  0  1  0  0  0  0  0  0
  158.5690  210.5890  155.8060 O   0  0  0  0  0  0  0  0  0  0  0  0
  163.9790  210.8340  156.2070 O   0  0  0  0  0  0  0  0  0  0  0  0
  160.0940  211.2640  151.2720 C   0  0  0  0  0  2  0  0  0  0  0  0
  158.8180  210.5500  153.3140 C   0  0  2  0  0  3  0  0  0  0  0  0
  161.4890  207.9400  152.5350 C   0  0  0  0  0  3  0  0  0  0  0  0
  161.8650  211.0390  157.2610 C   0  0  0  0  0  3  0  0  0  0  0  0
  160.9190  210.0150  151.4040 C   0  0  0  0  0  0  0  0  0  0  0  0
  161.7720  209.6630  150.3530 C   0  0  0  0  0  3  0  0  0  0  0  0
  158.0210  211.0100  154.5700 C   0  0  0  0  0  2  0  0  0  0  0  0
  159.9260  210.9280  155.7700 C   0  0  1  0  0  3  0  0  0  0  0  0
  160.5330  211.0770  157.1310 C   0  0  0  0  0  3  0  0  0  0  0  0
  158.5490  212.8980  152.3620 C   0  0  0  0  0  2  0  0  0  0  0  0
  159.8050  214.4500  153.6460 O   0  0  0  0  0  0  0  0  0  0  0  0
  158.6880  213.8950  153.4670 C   0  0  0  0  0  0  0  0  0  0  0  0
  155.5350  214.0170  156.2810 N   0  0  0  0  0  0  0  0  0  0  0  0
  157.9130  214.3500  155.7930 C   0  0  0  0  0  2  0  0  0  0  0  0
  155.9900  214.0060  152.6420 O   0  0  0  0  0  1  0  0  0  0  0  0
  154.6260  213.2370  157.1000 C   0  0  0  0  0  1  0  0  0  0  0  0
  156.8890  213.5930  156.6370 C   0  0  0  0  0  2  0  0  0  0  0  0
  156.2200  214.3960  153.9620 C   0  0  2  0  0  3  0  0  0  0  0  0
  157.6070  214.1470  154.3800 N   0  0  0  0  0  0  0  0  0  0  0  0
  155.2730  213.6420  154.8920 C   0  0  0  0  0  2  0  0  0  0  0  0
  1  9  1  0  0  0  0
  1 14  1  0  0  0  0
  2  5  1  6  0  0  0
  2  3  1  0  0  0  0
  3  7  1  6  0  0  0
  3 19  1  0  0  0  0
  4 11  2  0  0  0  0
  4 15  1  0  0  0  0
  5 14  2  0  0  0  0
  6  1  2  0  0  0  0
  7  4  1  0  0  0  0
  8 21  1  6  0  0  0
  8 13  1  0  0  0  0
 12 16  1  0  0  0  0
 12  8  1  0  0  0  0
 13  2  1  0  0  0  0
 13 18  1  1  0  0  0
 16  5  1  0  0  0  0
 17  6  1  0  0  0  0
 17 16  2  0  0  0  0
 18 10  1  0  0  0  0
 19 10  1  0  0  0  0
 19 20  1  1  0  0  0
 20 15  2  0  0  0  0
 21 23  1  0  0  0  0
 23 22  2  0  0  0  0
 23 30  1  0  0  0  0
 24 28  1  0  0  0  0
 24 27  1  0  0  0  0
 25 28  1  0  0  0  0
 29 26  1  6  0  0  0
 29 30  1  0  0  0  0
 29 31  1  0  0  0  0
 30 25  1  0  0  0  0
 31 24  1  0  0  0  0
M  END
>  <MODEL>
5

>  <REMARK>
 VINA RESULT:      -3.5     11.180     14.076
  Name = 
  2 active torsions:
  status: ('A' for Active; 'I' for Inactive)
    1  A    between atoms: C_5  and  C_16
    2  A    between atoms: C_10  and  C_16
                            x       y       z     vdW  Elec       q    Type
                         _______ _______ _______ _____ _____    ______ ____

>  <TORSDO>
F 2

$$$$
=
 OpenBabel11122413103D

 31 35  0  0  1  0  0  0  0  0999 V2000
  160.9720  201.3450  149.0850 C   0  0  0  0  0  0  0  0  0  0  0  0
  162.3670  204.6680  150.2890 C   0  0  2  0  0  3  0  0  0  0  0  0
  162.0630  205.6820  149.1560 C   0  0  1  0  0  3  0  0  0  0  0  0
  160.5350  206.6880  147.4710 C   0  0  0  0  0  0  0  0  0  0  0  0
  161.5380  203.4090  150.2270 C   0  0  0  0  0  0  0  0  0  0  0  0
  159.9410  201.1180  149.9990 C   0  0  0  0  0  3  0  0  0  0  0  0
  160.6670  205.6140  148.5230 C   0  0  0  0  0  2  0  0  0  0  0  0
  160.9080  205.4670  152.1510 C   0  0  2  0  0  3  0  0  0  0  0  0
  161.2070  200.4360  148.0630 O   0  0  0  0  0  1  0  0  0  0  0  0
  163.4560  207.1700  150.4120 O   0  0  0  0  0  0  0  0  0  0  0  0
  159.6580  206.5780  146.5760 O   0  0  0  0  0  0  0  0  0  0  0  0
  160.2660  204.0880  152.3250 C   0  0  0  0  0  2  0  0  0  0  0  0
  162.3640  205.3140  151.6910 C   0  0  2  0  0  3  0  0  0  0  0  0
  161.7670  202.4880  149.1980 C   0  0  0  0  0  3  0  0  0  0  0  0
  161.4180  207.8770  147.4910 C   0  0  0  0  0  3  0  0  0  0  0  0
  160.4900  203.1840  151.1460 C   0  0  0  0  0  0  0  0  0  0  0  0
  159.7060  202.0320  151.0290 C   0  0  0  0  0  3  0  0  0  0  0  0
  163.1210  206.6750  151.6950 C   0  0  0  0  0  2  0  0  0  0  0  0
  162.2850  207.1100  149.6490 C   0  0  1  0  0  3  0  0  0  0  0  0
  162.2810  208.0670  148.4960 C   0  0  0  0  0  3  0  0  0  0  0  0
  160.7770  206.2630  153.4440 C   0  0  0  0  0  2  0  0  0  0  0  0
  160.4430  208.0610  151.9300 O   0  0  0  0  0  0  0  0  0  0  0  0
  160.6280  207.7160  153.1280 C   0  0  0  0  0  0  0  0  0  0  0  0
  161.6990  210.4160  156.2010 N   0  0  0  0  0  0  0  0  0  0  0  0
  161.4880  209.9580  153.8030 C   0  0  0  0  0  2  0  0  0  0  0  0
  159.6810  207.3840  155.7670 O   0  0  0  0  0  1  0  0  0  0  0  0
  162.6680  210.7410  157.2310 C   0  0  0  0  0  1  0  0  0  0  0  0
  162.4370  210.3270  154.9410 C   0  0  0  0  0  2  0  0  0  0  0  0
  160.1570  208.6610  155.4680 C   0  0  2  0  0  3  0  0  0  0  0  0
  160.7960  208.7190  154.1450 N   0  0  0  0  0  0  0  0  0  0  0  0
  161.1650  209.0950  156.5300 C   0  0  0  0  0  2  0  0  0  0  0  0
  1 14  2  0  0  0  0
  1  6  1  0  0  0  0
  2  5  1  1  0  0  0
  2 13  1  0  0  0  0
  3  7  1  1  0  0  0
  3 19  1  0  0  0  0
  3  2  1  0  0  0  0
  4 15  1  0  0  0  0
  4  7  1  0  0  0  0
  5 16  2  0  0  0  0
  6 17  2  0  0  0  0
  8 12  1  0  0  0  0
  8 21  1  1  0  0  0
  9  1  1  0  0  0  0
 10 18  1  0  0  0  0
 11  4  2  0  0  0  0
 13 18  1  6  0  0  0
 13  8  1  0  0  0  0
 14  5  1  0  0  0  0
 15 20  2  0  0  0  0
 16 12  1  0  0  0  0
 17 16  1  0  0  0  0
 19 20  1  6  0  0  0
 19 10  1  0  0  0  0
 22 23  2  0  0  0  0
 23 21  1  0  0  0  0
 23 30  1  0  0  0  0
 24 31  1  0  0  0  0
 24 27  1  0  0  0  0
 25 30  1  0  0  0  0
 25 28  1  0  0  0  0
 28 24  1  0  0  0  0
 29 26  1  1  0  0  0
 29 31  1  0  0  0  0
 30 29  1  0  0  0  0
M  END
>  <MODEL>
6

>  <REMARK>
 VINA RESULT:      -2.8      9.344     12.504
  Name = 
  2 active torsions:
  status: ('A' for Active; 'I' for Inactive)
    1  A    between atoms: C_5  and  C_16
    2  A    between atoms: C_10  and  C_16
                            x       y       z     vdW  Elec       q    Type
                         _______ _______ _______ _____ _____    ______ ____

>  <TORSDO>
F 2

$$$$
=
 OpenBabel11122413103D

 31 35  0  0  1  0  0  0  0  0999 V2000
  161.1110  213.1380  148.4150 C   0  0  0  0  0  0  0  0  0  0  0  0
  161.9800  211.2430  151.5920 C   0  0  2  0  0  3  0  0  0  0  0  0
  160.7730  211.4480  152.5430 C   0  0  1  0  0  3  0  0  0  0  0  0
  158.3270  211.5120  152.9920 C   0  0  0  0  0  0  0  0  0  0  0  0
  161.6790  211.5320  150.1420 C   0  0  0  0  0  0  0  0  0  0  0  0
  160.9920  212.1020  147.4860 C   0  0  0  0  0  3  0  0  0  0  0  0
  159.3750  211.3180  151.9240 C   0  0  0  0  0  2  0  0  0  0  0  0
  161.8630  208.8040  151.0700 C   0  0  2  0  0  3  0  0  0  0  0  0
  160.8890  214.4510  148.0240 O   0  0  0  0  0  1  0  0  0  0  0  0
  162.1720  210.4160  154.1880 O   0  0  0  0  0  0  0  0  0  0  0  0
  157.1560  211.8330  152.6660 O   0  0  0  0  0  0  0  0  0  0  0  0
  161.8780  209.0620  149.5610 C   0  0  0  0  0  2  0  0  0  0  0  0
  162.6810  209.8820  151.7940 C   0  0  2  0  0  3  0  0  0  0  0  0
  161.4520  212.8530  149.7400 C   0  0  0  0  0  3  0  0  0  0  0  0
  158.6620  211.3130  154.4220 C   0  0  0  0  0  3  0  0  0  0  0  0
  161.5490  210.4840  149.2050 C   0  0  0  0  0  0  0  0  0  0  0  0
  161.2170  210.7810  147.8790 C   0  0  0  0  0  3  0  0  0  0  0  0
  162.8660  209.5530  153.3050 C   0  0  0  0  0  2  0  0  0  0  0  0
  160.8550  210.4800  153.7210 C   0  0  1  0  0  3  0  0  0  0  0  0
  159.8710  210.8650  154.7820 C   0  0  0  0  0  3  0  0  0  0  0  0
  162.3610  207.3920  151.3570 C   0  0  0  0  0  2  0  0  0  0  0  0
  160.7900  206.9990  153.0920 O   0  0  0  0  0  0  0  0  0  0  0  0
  161.2730  206.5950  152.0000 C   0  0  0  0  0  0  0  0  0  0  0  0
  160.6300  202.7160  150.4460 N   0  0  0  0  0  0  0  0  0  0  0  0
  160.5300  204.2420  152.3600 C   0  0  0  0  0  2  0  0  0  0  0  0
  161.0390  206.1490  149.2210 O   0  0  0  0  0  1  0  0  0  0  0  0
  161.2510  201.4900  149.9810 C   0  0  0  0  0  1  0  0  0  0  0  0
  161.1180  202.9460  151.8050 C   0  0  0  0  0  2  0  0  0  0  0  0
  160.5370  205.1260  150.0270 C   0  0  2  0  0  3  0  0  0  0  0  0
  160.8480  205.3370  151.4490 N   0  0  0  0  0  0  0  0  0  0  0  0
  161.1200  203.7880  149.5800 C   0  0  0  0  0  2  0  0  0  0  0  0
  1 14  1  0  0  0  0
  2  5  1  6  0  0  0
  2 13  1  0  0  0  0
  2  3  1  0  0  0  0
  3  7  1  6  0  0  0
  3 19  1  0  0  0  0
  4 15  1  0  0  0  0
  6 17  1  0  0  0  0
  6  1  2  0  0  0  0
  7  4  1  0  0  0  0
  8 21  1  6  0  0  0
  8 13  1  0  0  0  0
  9  1  1  0  0  0  0
 11  4  2  0  0  0  0
 12  8  1  0  0  0  0
 13 18  1  1  0  0  0
 14  5  2  0  0  0  0
 15 20  2  0  0  0  0
 16 12  1  0  0  0  0
 16  5  1  0  0  0  0
 17 16  2  0  0  0  0
 18 10  1  0  0  0  0
 19 10  1  0  0  0  0
 19 20  1  1  0  0  0
 21 23  1  0  0  0  0
 23 22  2  0  0  0  0
 24 28  1  0  0  0  0
 27 24  1  0  0  0  0
 28 25  1  0  0  0  0
 29 26  1  6  0  0  0
 29 30  1  0  0  0  0
 30 23  1  0  0  0  0
 30 25  1  0  0  0  0
 31 29  1  0  0  0  0
 31 24  1  0  0  0  0
M  END
>  <MODEL>
7

>  <REMARK>
 VINA RESULT:      -2.7      8.520     12.702
  Name = 
  2 active torsions:
  status: ('A' for Active; 'I' for Inactive)
    1  A    between atoms: C_5  and  C_16
    2  A    between atoms: C_10  and  C_16
                            x       y       z     vdW  Elec       q    Type
                         _______ _______ _______ _____ _____    ______ ____

>  <TORSDO>
F 2

$$$$
=
 OpenBabel11122413103D

 31 35  0  0  1  0  0  0  0  0999 V2000
  162.2650  211.5940  149.1320 C   0  0  0  0  0  0  0  0  0  0  0  0
  161.8980  209.8930  152.5090 C   0  0  2  0  0  3  0  0  0  0  0  0
  160.7220  210.6170  153.2150 C   0  0  1  0  0  3  0  0  0  0  0  0
  158.4310  211.5860  153.2120 C   0  0  0  0  0  0  0  0  0  0  0  0
  161.9430  210.1010  151.0160 C   0  0  0  0  0  0  0  0  0  0  0  0
  161.9150  210.5660  148.2530 C   0  0  0  0  0  3  0  0  0  0  0  0
  159.4820  210.9150  152.3620 C   0  0  0  0  0  2  0  0  0  0  0  0
  160.9780  207.6080  152.1060 C   0  0  2  0  0  3  0  0  0  0  0  0
  162.5990  212.8470  148.6370 O   0  0  0  0  0  1  0  0  0  0  0  0
  161.3860  209.3560  155.1380 O   0  0  0  0  0  0  0  0  0  0  0  0
  157.5210  212.2570  152.6620 O   0  0  0  0  0  0  0  0  0  0  0  0
  161.3110  207.6680  150.6130 C   0  0  0  0  0  2  0  0  0  0  0  0
  162.0150  208.4060  152.9070 C   0  0  2  0  0  3  0  0  0  0  0  0
  162.2770  211.3620  150.5090 C   0  0  0  0  0  3  0  0  0  0  0  0
  158.4530  211.4480  154.6860 C   0  0  0  0  0  3  0  0  0  0  0  0
  161.5810  209.0650  150.1280 C   0  0  0  0  0  0  0  0  0  0  0  0
  161.5810  209.3050  148.7500 C   0  0  0  0  0  3  0  0  0  0  0  0
  161.8400  208.2090  154.4420 C   0  0  0  0  0  2  0  0  0  0  0  0
  160.2690  209.8230  154.4380 C   0  0  1  0  0  3  0  0  0  0  0  0
  159.3470  210.6490  155.2820 C   0  0  0  0  0  3  0  0  0  0  0  0
  160.8770  206.1540  152.5530 C   0  0  0  0  0  2  0  0  0  0  0  0
  163.0410  205.8200  151.6350 O   0  0  0  0  0  0  0  0  0  0  0  0
  161.8950  205.3330  151.8290 C   0  0  0  0  0  0  0  0  0  0  0  0
  160.4510  201.8850  149.8530 N   0  0  0  0  0  0  0  0  0  0  0  0
  162.1080  203.6860  149.9690 C   0  0  0  0  0  2  0  0  0  0  0  0
  160.1900  203.5000  153.1360 O   0  0  0  0  0  1  0  0  0  0  0  0
  159.4080  201.3320  149.0100 C   0  0  0  0  0  1  0  0  0  0  0  0
  161.0140  203.0260  149.1310 C   0  0  0  0  0  2  0  0  0  0  0  0
  160.8270  203.0040  151.9970 C   0  0  2  0  0  3  0  0  0  0  0  0
  161.5550  204.0530  151.2680 N   0  0  0  0  0  0  0  0  0  0  0  0
  159.7960  202.3710  151.0670 C   0  0  0  0  0  2  0  0  0  0  0  0
  1 14  1  0  0  0  0
  2  5  1  6  0  0  0
  2 13  1  0  0  0  0
  2  3  1  0  0  0  0
  3  7  1  6  0  0  0
  3 19  1  0  0  0  0
  4 15  1  0  0  0  0
  6 17  1  0  0  0  0
  6  1  2  0  0  0  0
  7  4  1  0  0  0  0
  8 21  1  1  0  0  0
  8 13  1  0  0  0  0
  9  1  1  0  0  0  0
 11  4  2  0  0  0  0
 12  8  1  0  0  0  0
 13 18  1  1  0  0  0
 14  5  2  0  0  0  0
 15 20  2  0  0  0  0
 16 12  1  0  0  0  0
 16  5  1  0  0  0  0
 17 16  2  0  0  0  0
 18 10  1  0  0  0  0
 19 10  1  0  0  0  0
 19 20  1  1  0  0  0
 22 23  2  0  0  0  0
 23 21  1  0  0  0  0
 24 31  1  0  0  0  0
 25 30  1  0  0  0  0
 27 24  1  0  0  0  0
 28 24  1  0  0  0  0
 28 25  1  0  0  0  0
 29 26  1  1  0  0  0
 30 23  1  0  0  0  0
 30 29  1  0  0  0  0
 31 29  1  0  0  0  0
M  END
>  <MODEL>
8

>  <REMARK>
 VINA RESULT:      -2.6      9.425     13.431
  Name = 
  2 active torsions:
  status: ('A' for Active; 'I' for Inactive)
    1  A    between atoms: C_5  and  C_16
    2  A    between atoms: C_10  and  C_16
                            x       y       z     vdW  Elec       q    Type
                         _______ _______ _______ _____ _____    ______ ____

>  <TORSDO>
F 2

$$$$
=
 OpenBabel11122413103D

 31 35  0  0  1  0  0  0  0  0999 V2000
  156.0430  211.6760  156.2960 C   0  0  0  0  0  0  0  0  0  0  0  0
  159.7840  211.0440  156.0910 C   0  0  2  0  0  3  0  0  0  0  0  0
  159.9710  209.5390  156.4160 C   0  0  1  0  0  3  0  0  0  0  0  0
  159.3340  207.1490  156.1570 C   0  0  0  0  0  0  0  0  0  0  0  0
  158.3780  211.4180  155.6920 C   0  0  0  0  0  0  0  0  0  0  0  0
  155.7310  211.9830  154.9700 C   0  0  0  0  0  3  0  0  0  0  0  0
  158.9860  208.5630  155.7610 C   0  0  0  0  0  2  0  0  0  0  0  0
  160.4390  211.1740  153.6850 C   0  0  2  0  0  3  0  0  0  0  0  0
  155.0420  211.6490  157.2580 O   0  0  0  0  0  1  0  0  0  0  0  0
  162.3070  210.0620  156.4590 O   0  0  0  0  0  0  0  0  0  0  0  0
  158.4650  206.2450  156.0680 O   0  0  0  0  0  0  0  0  0  0  0  0
  159.1250  211.8590  153.2990 C   0  0  0  0  0  2  0  0  0  0  0  0
  160.8450  211.5830  155.1080 C   0  0  2  0  0  3  0  0  0  0  0  0
  157.3630  211.3920  156.6560 C   0  0  0  0  0  3  0  0  0  0  0  0
  160.6960  206.8130  156.6340 C   0  0  0  0  0  3  0  0  0  0  0  0
  158.0600  211.7200  154.3500 C   0  0  0  0  0  0  0  0  0  0  0  0
  156.7380  212.0120  154.0030 C   0  0  0  0  0  3  0  0  0  0  0  0
  162.2720  211.0770  155.4730 C   0  0  0  0  0  2  0  0  0  0  0  0
  161.3850  209.0910  156.0550 C   0  0  1  0  0  3  0  0  0  0  0  0
  161.6650  207.7360  156.6310 C   0  0  0  0  0  3  0  0  0  0  0  0
  161.5110  211.4950  152.6500 C   0  0  0  0  0  2  0  0  0  0  0  0
  161.1640  209.4380  151.5170 O   0  0  0  0  0  0  0  0  0  0  0  0
  161.2740  210.6890  151.4140 C   0  0  0  0  0  0  0  0  0  0  0  0
  161.8580  212.6940  147.7370 N   0  0  0  0  0  0  0  0  0  0  0  0
  161.8900  210.5940  148.9990 C   0  0  0  0  0  2  0  0  0  0  0  0
  160.1340  213.2270  150.9310 O   0  0  0  0  0  1  0  0  0  0  0  0
  162.7060  213.5980  146.9830 C   0  0  0  0  0  1  0  0  0  0  0  0
  162.7060  211.5830  148.1690 C   0  0  0  0  0  2  0  0  0  0  0  0
  160.5310  212.5310  149.7880 C   0  0  2  0  0  3  0  0  0  0  0  0
  161.2730  211.3050  150.1140 N   0  0  0  0  0  0  0  0  0  0  0  0
  161.4060  213.4300  148.9170 C   0  0  0  0  0  2  0  0  0  0  0  0
  1 14  1  0  0  0  0
  1  9  1  0  0  0  0
  2  5  1  6  0  0  0
  2  3  1  0  0  0  0
  3  7  1  6  0  0  0
  4 15  1  0  0  0  0
  5 14  2  0  0  0  0
  6  1  2  0  0  0  0
  7  4  1  0  0  0  0
  8 21  1  6  0  0  0
  8 13  1  0  0  0  0
 11  4  2  0  0  0  0
 12  8  1  0  0  0  0
 12 16  1  0  0  0  0
 13 18  1  1  0  0  0
 13  2  1  0  0  0  0
 16  5  1  0  0  0  0
 17 16  2  0  0  0  0
 17  6  1  0  0  0  0
 18 10  1  0  0  0  0
 19  3  1  0  0  0  0
 19 10  1  0  0  0  0
 19 20  1  1  0  0  0
 20 15  2  0  0  0  0
 23 22  2  0  0  0  0
 23 21  1  0  0  0  0
 24 28  1  0  0  0  0
 24 31  1  0  0  0  0
 25 30  1  0  0  0  0
 27 24  1  0  0  0  0
 28 25  1  0  0  0  0
 29 30  1  0  0  0  0
 29 26  1  1  0  0  0
 30 23  1  0  0  0  0
 31 29  1  0  0  0  0
M  END
>  <MODEL>
9

>  <REMARK>
 VINA RESULT:      -2.5      8.875     14.847
  Name = 
  2 active torsions:
  status: ('A' for Active; 'I' for Inactive)
    1  A    between atoms: C_5  and  C_16
    2  A    between atoms: C_10  and  C_16
                            x       y       z     vdW  Elec       q    Type
                         _______ _______ _______ _____ _____    ______ ____

>  <TORSDO>
F 2

$$$$
