=
 OpenBabel11122412463D

 32 38  0  0  1  0  0  0  0  0999 V2000
  160.1820  208.3700  156.5070 C   0  0  1  0  0  3  0  0  0  0  0  0
  161.2550  207.1470  151.4950 C   0  0  0  0  0  0  0  0  0  0  0  0
  162.1580  211.4770  149.5200 C   0  0  0  0  0  3  0  0  0  0  0  0
  162.2450  210.8960  148.2570 C   0  0  0  0  0  3  0  0  0  0  0  0
  161.1890  205.1090  150.0290 C   0  0  0  0  0  0  0  0  0  0  0  0
  161.2960  204.6180  148.7340 C   0  0  0  0  0  0  0  0  0  0  0  0
  161.1640  206.9920  154.0170 C   0  0  1  0  0  3  0  0  0  0  0  0
  161.4620  209.1700  152.9360 C   0  0  0  0  0  2  0  0  0  0  0  0
  161.5970  204.6370  146.5850 C   0  0  0  0  0  0  0  0  0  0  0  0
  160.7140  209.1820  155.3260 C   0  0  2  0  0  3  0  0  0  0  0  0
  161.8900  210.6830  150.6360 C   0  0  0  0  0  3  0  0  0  0  0  0
  161.4360  208.5150  151.6130 N   0  0  0  0  0  0  0  0  0  0  0  0
  161.7040  209.2900  150.5120 C   0  0  0  0  0  0  0  0  0  0  0  0
  161.6240  207.3320  149.0770 C   0  0  0  0  0  0  0  0  0  0  0  0
  161.3710  203.3620  146.9820 N   0  0  0  0  0  0  0  0  0  0  0  0
  159.6910  206.9580  156.1230 C   0  0  0  0  0  2  0  0  0  0  0  0
  160.6540  208.4280  153.9810 C   0  0  2  0  0  3  0  0  0  0  0  0
  161.1870  203.3480  148.3020 N   0  0  0  0  0  0  0  0  0  0  0  0
  160.6040  206.1660  155.1780 C   0  0  0  0  0  2  0  0  0  0  0  0
  161.6820  208.5790  156.3410 C   0  0  1  0  0  3  0  0  0  0  0  0
  162.0650  209.5210  148.1120 C   0  0  0  0  0  3  0  0  0  0  0  0
  161.7940  208.7100  149.2270 C   0  0  0  0  0  0  0  0  0  0  0  0
  161.7190  206.7710  147.8290 N   0  0  0  0  0  0  0  0  0  0  0  0
  160.8220  206.3340  152.6980 C   0  0  0  0  0  2  0  0  0  0  0  0
  160.9430  204.2190  151.0690 O   0  0  0  0  0  1  0  0  0  0  0  0
  161.8500  205.0560  145.1810 C   0  0  0  0  0  1  0  0  0  0  0  0
  161.3510  206.5180  150.2240 C   0  0  0  0  0  0  0  0  0  0  0  0
  161.5510  205.4390  147.6920 C   0  0  0  0  0  0  0  0  0  0  0  0
  162.1270  209.6180  157.2540 N   0  0  0  0  0  2  0  0  0  0  0  0
  162.2540  210.8420  156.4800 C   0  0  0  0  0  3  0  0  0  0  0  0
  163.7180  211.1260  156.2090 C   0  0  0  0  0  1  0  0  0  0  0  0
  161.6570  211.9930  157.2610 C   0  0  0  0  0  1  0  0  0  0  0  0
  1 16  1  6  0  0  0
  2 12  1  0  0  0  0
  2 24  1  0  0  0  0
  3 11  1  0  0  0  0
  4  3  2  0  0  0  0
  5 27  1  0  0  0  0
  5 25  1  0  0  0  0
  6  5  2  0  0  0  0
  7 24  1  6  0  0  0
  7 19  1  0  0  0  0
  8 17  1  0  0  0  0
  9 15  1  0  0  0  0
  9 28  2  0  0  0  0
 10 20  1  0  0  0  0
 10  1  1  0  0  0  0
 12  8  1  0  0  0  0
 13 11  2  0  0  0  0
 13 12  1  0  0  0  0
 14 22  1  0  0  0  0
 14 27  1  0  0  0  0
 15 18  2  0  0  0  0
 17  7  1  0  0  0  0
 17 10  1  0  0  0  0
 18  6  1  0  0  0  0
 19 16  1  0  0  0  0
 20  1  1  0  0  0  0
 20 29  1  0  0  0  0
 21  4  1  0  0  0  0
 21 22  2  0  0  0  0
 22 13  1  0  0  0  0
 23 14  2  0  0  0  0
 26  9  1  0  0  0  0
 27  2  2  0  0  0  0
 28 23  1  0  0  0  0
 28  6  1  0  0  0  0
 30 29  1  0  0  0  0
 30 32  1  0  0  0  0
 31 30  1  0  0  0  0
M  END
>  <MODEL>
1

>  <REMARK>
 VINA RESULT:      -8.8      0.000      0.000
  Name = 
  2 active torsions:
  status: ('A' for Active; 'I' for Inactive)
    1  A    between atoms: C_20  and  N_29
    2  A    between atoms: N_29  and  C_30
                            x       y       z     vdW  Elec       q    Type
                         _______ _______ _______ _____ _____    ______ ____

>  <TORSDO>
F 2

$$$$
=
 OpenBabel11122412463D

 32 38  0  0  1  0  0  0  0  0999 V2000
  161.2780  201.6030  149.0030 C   0  0  1  0  0  3  0  0  0  0  0  0
  161.1310  206.1140  151.7210 C   0  0  0  0  0  0  0  0  0  0  0  0
  161.9900  209.4370  148.3040 C   0  0  0  0  0  3  0  0  0  0  0  0
  162.0470  210.4360  149.2720 C   0  0  0  0  0  3  0  0  0  0  0  0
  160.9650  206.8260  154.1250 C   0  0  0  0  0  0  0  0  0  0  0  0
  161.0360  207.8870  155.0180 C   0  0  0  0  0  0  0  0  0  0  0  0
  160.5700  203.7640  150.9750 C   0  0  1  0  0  3  0  0  0  0  0  0
  161.1680  205.4660  149.3150 C   0  0  0  0  0  2  0  0  0  0  0  0
  161.2740  209.9270  155.7180 C   0  0  0  0  0  0  0  0  0  0  0  0
  161.2960  203.0730  148.5860 C   0  0  2  0  0  3  0  0  0  0  0  0
  161.7480  208.1150  148.6780 C   0  0  0  0  0  3  0  0  0  0  0  0
  161.3220  206.4610  150.3950 N   0  0  0  0  0  0  0  0  0  0  0  0
  161.5560  207.7640  150.0320 C   0  0  0  0  0  0  0  0  0  0  0  0
  161.4180  208.4670  152.3530 C   0  0  0  0  0  0  0  0  0  0  0  0
  161.0290  209.1280  156.7830 N   0  0  0  0  0  0  0  0  0  0  0  0
  161.4260  201.3840  150.5240 C   0  0  0  0  0  2  0  0  0  0  0  0
  161.4590  204.0490  149.7700 C   0  0  2  0  0  3  0  0  0  0  0  0
  160.8810  207.8740  156.3560 N   0  0  0  0  0  0  0  0  0  0  0  0
  160.5790  202.2990  151.4180 C   0  0  0  0  0  2  0  0  0  0  0  0
  159.9840  202.2920  148.5920 C   0  0  1  0  0  3  0  0  0  0  0  0
  161.8590  210.1120  150.6160 C   0  0  0  0  0  3  0  0  0  0  0  0
  161.6140  208.7850  151.0060 C   0  0  0  0  0  0  0  0  0  0  0  0
  161.4690  209.4610  153.2960 N   0  0  0  0  0  0  0  0  0  0  0  0
  161.0160  204.6550  152.1140 C   0  0  0  0  0  2  0  0  0  0  0  0
  160.6940  205.5520  154.6110 O   0  0  0  0  0  1  0  0  0  0  0  0
  161.4940  211.3960  155.7910 C   0  0  0  0  0  1  0  0  0  0  0  0
  161.1680  207.1100  152.7360 C   0  0  0  0  0  0  0  0  0  0  0  0
  161.2810  209.1460  154.5950 C   0  0  0  0  0  0  0  0  0  0  0  0
  159.6460  201.9120  147.2310 N   0  0  0  0  0  2  0  0  0  0  0  0
  160.8970  201.7520  146.5090 C   0  0  0  0  0  3  0  0  0  0  0  0
  160.9420  202.7210  145.3440 C   0  0  0  0  0  1  0  0  0  0  0  0
  160.9970  200.3350  145.9850 C   0  0  0  0  0  1  0  0  0  0  0  0
  1 16  1  1  0  0  0
  2 24  1  0  0  0  0
  2 27  2  0  0  0  0
  3 11  2  0  0  0  0
  3  4  1  0  0  0  0
  4 21  2  0  0  0  0
  5 25  1  0  0  0  0
  5  6  2  0  0  0  0
  6 18  1  0  0  0  0
  7 19  1  1  0  0  0
  7 24  1  0  0  0  0
  8 17  1  0  0  0  0
  8 12  1  0  0  0  0
  9 26  1  0  0  0  0
  9 15  1  0  0  0  0
 10 20  1  0  0  0  0
 10  1  1  0  0  0  0
 10 17  1  0  0  0  0
 11 13  1  0  0  0  0
 12  2  1  0  0  0  0
 13 12  1  0  0  0  0
 13 22  2  0  0  0  0
 14 27  1  0  0  0  0
 14 23  2  0  0  0  0
 16 19  1  0  0  0  0
 17  7  1  0  0  0  0
 18 15  2  0  0  0  0
 20  1  1  0  0  0  0
 21 22  1  0  0  0  0
 22 14  1  0  0  0  0
 23 28  1  0  0  0  0
 27  5  1  0  0  0  0
 28  6  1  0  0  0  0
 28  9  2  0  0  0  0
 29 20  1  0  0  0  0
 30 29  1  0  0  0  0
 31 30  1  0  0  0  0
 32 30  1  0  0  0  0
M  END
>  <MODEL>
2

>  <REMARK>
 VINA RESULT:      -8.3      2.030      7.903
  Name = 
  2 active torsions:
  status: ('A' for Active; 'I' for Inactive)
    1  A    between atoms: C_20  and  N_29
    2  A    between atoms: N_29  and  C_30
                            x       y       z     vdW  Elec       q    Type
                         _______ _______ _______ _____ _____    ______ ____

>  <TORSDO>
F 2

$$$$
=
 OpenBabel11122412463D

 32 38  0  0  1  0  0  0  0  0999 V2000
  160.6050  209.2500  156.9230 C   0  0  1  0  0  3  0  0  0  0  0  0
  161.2870  206.8540  152.2800 C   0  0  0  0  0  0  0  0  0  0  0  0
  162.2590  210.5560  149.3120 C   0  0  0  0  0  3  0  0  0  0  0  0
  162.2350  209.6980  148.2150 C   0  0  0  0  0  3  0  0  0  0  0  0
  161.0280  204.5430  151.3310 C   0  0  0  0  0  0  0  0  0  0  0  0
  161.0270  203.7650  150.1810 C   0  0  0  0  0  0  0  0  0  0  0  0
  161.3550  207.2830  154.7710 C   0  0  1  0  0  3  0  0  0  0  0  0
  161.6830  209.1360  153.2010 C   0  0  0  0  0  2  0  0  0  0  0  0
  161.1850  203.2740  148.0730 C   0  0  0  0  0  0  0  0  0  0  0  0
  161.0960  209.7370  155.5610 C   0  0  2  0  0  3  0  0  0  0  0  0
  162.0280  210.0560  150.5940 C   0  0  0  0  0  3  0  0  0  0  0  0
  161.5390  208.1980  152.0690 N   0  0  0  0  0  0  0  0  0  0  0  0
  161.7690  208.6850  150.8060 C   0  0  0  0  0  0  0  0  0  0  0  0
  161.5030  206.4600  149.8680 C   0  0  0  0  0  0  0  0  0  0  0  0
  160.9260  202.1390  148.7650 N   0  0  0  0  0  0  0  0  0  0  0  0
  160.0250  207.8200  156.9030 C   0  0  0  0  0  2  0  0  0  0  0  0
  160.9120  208.7010  154.4310 C   0  0  2  0  0  3  0  0  0  0  0  0
  160.8290  202.4380  150.0600 N   0  0  0  0  0  0  0  0  0  0  0  0
  160.8350  206.7790  156.1200 C   0  0  0  0  0  2  0  0  0  0  0  0
  162.0990  209.3230  156.6340 C   0  0  1  0  0  3  0  0  0  0  0  0
  161.9820  208.3400  148.4020 C   0  0  0  0  0  3  0  0  0  0  0  0
  161.7480  207.8230  149.6870 C   0  0  0  0  0  0  0  0  0  0  0  0
  161.4890  205.6250  148.7810 N   0  0  0  0  0  0  0  0  0  0  0  0
  160.8960  206.3640  153.6600 C   0  0  0  0  0  2  0  0  0  0  0  0
  160.8100  203.9300  152.5600 O   0  0  0  0  0  1  0  0  0  0  0  0
  161.3640  203.3460  146.5980 C   0  0  0  0  0  1  0  0  0  0  0  0
  161.2690  205.9470  151.1860 C   0  0  0  0  0  0  0  0  0  0  0  0
  161.2500  204.3090  148.9650 C   0  0  0  0  0  0  0  0  0  0  0  0
  162.6520  210.5140  157.2560 N   0  0  0  0  0  2  0  0  0  0  0  0
  163.9420  210.7630  156.6340 C   0  0  0  0  0  3  0  0  0  0  0  0
  164.5850  211.9850  157.2610 C   0  0  0  0  0  1  0  0  0  0  0  0
  163.7470  211.0040  155.1520 C   0  0  0  0  0  1  0  0  0  0  0  0
  1 16  1  6  0  0  0
  2 24  1  0  0  0  0
  3 11  1  0  0  0  0
  4 21  1  0  0  0  0
  4  3  2  0  0  0  0
  5 25  1  0  0  0  0
  6  5  2  0  0  0  0
  7 24  1  6  0  0  0
  7 19  1  0  0  0  0
  8 17  1  0  0  0  0
  9 15  1  0  0  0  0
  9 28  2  0  0  0  0
 10 20  1  0  0  0  0
 10  1  1  0  0  0  0
 11 13  2  0  0  0  0
 12  2  1  0  0  0  0
 12  8  1  0  0  0  0
 13 12  1  0  0  0  0
 14 27  1  0  0  0  0
 15 18  2  0  0  0  0
 17  7  1  0  0  0  0
 17 10  1  0  0  0  0
 18  6  1  0  0  0  0
 19 16  1  0  0  0  0
 20  1  1  0  0  0  0
 20 29  1  0  0  0  0
 21 22  2  0  0  0  0
 22 14  1  0  0  0  0
 22 13  1  0  0  0  0
 23 28  1  0  0  0  0
 23 14  2  0  0  0  0
 26  9  1  0  0  0  0
 27  5  1  0  0  0  0
 27  2  2  0  0  0  0
 28  6  1  0  0  0  0
 30 29  1  0  0  0  0
 30 31  1  0  0  0  0
 32 30  1  0  0  0  0
M  END
>  <MODEL>
3

>  <REMARK>
 VINA RESULT:      -7.9      1.197      1.413
  Name = 
  2 active torsions:
  status: ('A' for Active; 'I' for Inactive)
    1  A    between atoms: C_20  and  N_29
    2  A    between atoms: N_29  and  C_30
                            x       y       z     vdW  Elec       q    Type
                         _______ _______ _______ _____ _____    ______ ____

>  <TORSDO>
F 2

$$$$
=
 OpenBabel11122412463D

 32 38  0  0  1  0  0  0  0  0999 V2000
  161.6250  210.0450  154.6480 C   0  0  1  0  0  3  0  0  0  0  0  0
  161.1150  206.8270  150.5070 C   0  0  0  0  0  0  0  0  0  0  0  0
  160.8550  202.4600  152.5860 C   0  0  0  0  0  3  0  0  0  0  0  0
  160.8840  201.8500  151.3350 C   0  0  0  0  0  3  0  0  0  0  0  0
  161.1960  207.0010  148.0020 C   0  0  0  0  0  0  0  0  0  0  0  0
  161.2180  206.3060  146.8000 C   0  0  0  0  0  0  0  0  0  0  0  0
  160.8620  208.8610  151.9870 C   0  0  1  0  0  3  0  0  0  0  0  0
  160.8960  206.6210  152.9800 C   0  0  0  0  0  2  0  0  0  0  0  0
  161.2030  204.6100  145.4460 C   0  0  0  0  0  0  0  0  0  0  0  0
  161.3240  208.5520  154.5180 C   0  0  2  0  0  3  0  0  0  0  0  0
  160.9050  203.8510  152.6850 C   0  0  0  0  0  3  0  0  0  0  0  0
  161.0380  206.0290  151.6350 N   0  0  0  0  0  0  0  0  0  0  0  0
  160.9850  204.6610  151.5320 C   0  0  0  0  0  0  0  0  0  0  0  0
  161.0830  204.8100  149.1100 C   0  0  0  0  0  0  0  0  0  0  0  0
  161.2650  205.7480  144.7160 N   0  0  0  0  0  0  0  0  0  0  0  0
  162.0380  210.7160  153.3200 C   0  0  0  0  0  2  0  0  0  0  0  0
  161.4940  208.0100  153.0830 C   0  0  2  0  0  3  0  0  0  0  0  0
  161.2730  206.7920  145.5450 N   0  0  0  0  0  0  0  0  0  0  0  0
  161.1920  210.3520  152.0940 C   0  0  0  0  0  2  0  0  0  0  0  0
  160.1830  209.5540  154.6790 C   0  0  1  0  0  3  0  0  0  0  0  0
  160.9620  202.6310  150.1830 C   0  0  0  0  0  3  0  0  0  0  0  0
  161.0140  204.0320  150.2680 C   0  0  0  0  0  0  0  0  0  0  0  0
  161.1040  204.1970  147.8830 N   0  0  0  0  0  0  0  0  0  0  0  0
  161.3160  208.3220  150.6470 C   0  0  0  0  0  2  0  0  0  0  0  0
  161.2270  208.3910  147.9770 O   0  0  0  0  0  1  0  0  0  0  0  0
  161.1730  203.2360  144.8760 C   0  0  0  0  0  1  0  0  0  0  0  0
  161.1320  206.2390  149.2120 C   0  0  0  0  0  0  0  0  0  0  0  0
  161.1730  204.9560  146.7690 C   0  0  0  0  0  0  0  0  0  0  0  0
  159.7130  209.5270  156.0530 N   0  0  0  0  0  2  0  0  0  0  0  0
  158.7990  210.6450  156.2160 C   0  0  0  0  0  3  0  0  0  0  0  0
  158.3730  211.1590  154.8540 C   0  0  0  0  0  1  0  0  0  0  0  0
  159.4920  211.7550  156.9760 C   0  0  0  0  0  1  0  0  0  0  0  0
  1 16  1  6  0  0  0
  1 20  1  0  0  0  0
  2 24  1  0  0  0  0
  2 12  1  0  0  0  0
  3 11  1  0  0  0  0
  4  3  2  0  0  0  0
  5 27  1  0  0  0  0
  6  5  2  0  0  0  0
  7 24  1  6  0  0  0
  7 19  1  0  0  0  0
  7 17  1  0  0  0  0
  8 17  1  0  0  0  0
  9 28  2  0  0  0  0
 10  1  1  0  0  0  0
 10 20  1  0  0  0  0
 12  8  1  0  0  0  0
 13 12  1  0  0  0  0
 13 11  2  0  0  0  0
 14 27  1  0  0  0  0
 14 22  1  0  0  0  0
 15  9  1  0  0  0  0
 15 18  2  0  0  0  0
 17 10  1  0  0  0  0
 18  6  1  0  0  0  0
 19 16  1  0  0  0  0
 20 29  1  0  0  0  0
 21 22  2  0  0  0  0
 21  4  1  0  0  0  0
 22 13  1  0  0  0  0
 23 14  2  0  0  0  0
 25  5  1  0  0  0  0
 26  9  1  0  0  0  0
 27  2  2  0  0  0  0
 28  6  1  0  0  0  0
 28 23  1  0  0  0  0
 29 30  1  0  0  0  0
 30 32  1  0  0  0  0
 31 30  1  0  0  0  0
M  END
>  <MODEL>
4

>  <REMARK>
 VINA RESULT:      -7.8      2.116      4.283
  Name = 
  2 active torsions:
  status: ('A' for Active; 'I' for Inactive)
    1  A    between atoms: C_20  and  N_29
    2  A    between atoms: N_29  and  C_30
                            x       y       z     vdW  Elec       q    Type
                         _______ _______ _______ _____ _____    ______ ____

>  <TORSDO>
F 2

$$$$
=
 OpenBabel11122412463D

 32 38  0  0  1  0  0  0  0  0999 V2000
  161.9600  203.0460  147.1280 C   0  0  1  0  0  3  0  0  0  0  0  0
  161.2890  206.5920  150.9670 C   0  0  0  0  0  0  0  0  0  0  0  0
  162.3310  210.7670  148.7450 C   0  0  0  0  0  3  0  0  0  0  0  0
  162.2320  211.4500  149.9550 C   0  0  0  0  0  3  0  0  0  0  0  0
  160.8310  206.5860  153.4380 C   0  0  0  0  0  0  0  0  0  0  0  0
  160.7510  207.3490  154.5950 C   0  0  0  0  0  0  0  0  0  0  0  0
  160.9340  204.5410  149.5310 C   0  0  1  0  0  3  0  0  0  0  0  0
  161.6150  206.6570  148.4980 C   0  0  0  0  0  2  0  0  0  0  0  0
  160.8070  209.1100  155.8620 C   0  0  0  0  0  0  0  0  0  0  0  0
  161.9440  204.5740  147.1450 C   0  0  2  0  0  3  0  0  0  0  0  0
  162.1200  209.3890  148.7030 C   0  0  0  0  0  3  0  0  0  0  0  0
  161.6010  207.3060  149.8240 N   0  0  0  0  0  0  0  0  0  0  0  0
  161.8040  208.6630  149.8710 C   0  0  0  0  0  0  0  0  0  0  0  0
  161.3830  208.6730  152.2630 C   0  0  0  0  0  0  0  0  0  0  0  0
  160.4920  208.0360  156.6240 N   0  0  0  0  0  0  0  0  0  0  0  0
  161.9560  202.4060  148.5330 C   0  0  0  0  0  2  0  0  0  0  0  0
  161.9290  205.1760  148.5670 C   0  0  2  0  0  3  0  0  0  0  0  0
  160.4560  206.9530  155.8480 N   0  0  0  0  0  0  0  0  0  0  0  0
  160.9720  203.0110  149.5420 C   0  0  0  0  0  2  0  0  0  0  0  0
  160.6810  203.7980  146.7800 C   0  0  1  0  0  3  0  0  0  0  0  0
  161.9190  210.7530  151.1220 C   0  0  0  0  0  3  0  0  0  0  0  0
  161.7050  209.3650  151.0930 C   0  0  0  0  0  0  0  0  0  0  0  0
  161.2820  209.3580  153.4470 N   0  0  0  0  0  0  0  0  0  0  0  0
  161.2090  205.0790  150.9190 C   0  0  0  0  0  2  0  0  0  0  0  0
  160.5770  205.2210  153.5110 O   0  0  0  0  0  1  0  0  0  0  0  0
  160.9400  210.5020  156.3700 C   0  0  0  0  0  1  0  0  0  0  0  0
  161.1650  207.2580  152.2180 C   0  0  0  0  0  0  0  0  0  0  0  0
  160.9730  208.6820  154.5740 C   0  0  0  0  0  0  0  0  0  0  0  0
  160.5110  203.8150  145.3370 N   0  0  0  0  0  2  0  0  0  0  0  0
  161.0250  205.0880  144.8590 C   0  0  0  0  0  3  0  0  0  0  0  0
  160.0810  206.2040  145.2610 C   0  0  0  0  0  1  0  0  0  0  0  0
  161.1410  205.0490  143.3500 C   0  0  0  0  0  1  0  0  0  0  0  0
  1 10  1  0  0  0  0
  1 16  1  1  0  0  0
  2 27  2  0  0  0  0
  3  4  1  0  0  0  0
  4 21  2  0  0  0  0
  5 25  1  0  0  0  0
  5  6  2  0  0  0  0
  6 18  1  0  0  0  0
  7 19  1  1  0  0  0
  7 24  1  0  0  0  0
  8 17  1  0  0  0  0
  8 12  1  0  0  0  0
  9 26  1  0  0  0  0
  9 15  1  0  0  0  0
 10 17  1  0  0  0  0
 11  3  2  0  0  0  0
 11 13  1  0  0  0  0
 12 13  1  0  0  0  0
 12  2  1  0  0  0  0
 13 22  2  0  0  0  0
 14 23  2  0  0  0  0
 16 19  1  0  0  0  0
 17  7  1  0  0  0  0
 18 15  2  0  0  0  0
 20  1  1  0  0  0  0
 20 10  1  0  0  0  0
 22 21  1  0  0  0  0
 22 14  1  0  0  0  0
 23 28  1  0  0  0  0
 24  2  1  0  0  0  0
 27 14  1  0  0  0  0
 27  5  1  0  0  0  0
 28  6  1  0  0  0  0
 28  9  2  0  0  0  0
 29 20  1  0  0  0  0
 30 31  1  0  0  0  0
 30 29  1  0  0  0  0
 32 30  1  0  0  0  0
M  END
>  <MODEL>
5

>  <REMARK>
 VINA RESULT:      -7.2      1.478      7.808
  Name = 
  2 active torsions:
  status: ('A' for Active; 'I' for Inactive)
    1  A    between atoms: C_20  and  N_29
    2  A    between atoms: N_29  and  C_30
                            x       y       z     vdW  Elec       q    Type
                         _______ _______ _______ _____ _____    ______ ____

>  <TORSDO>
F 2

$$$$
=
 OpenBabel11122412463D

 32 38  0  0  1  0  0  0  0  0999 V2000
  162.2080  212.9420  149.0180 C   0  0  1  0  0  3  0  0  0  0  0  0
  161.4170  207.7460  149.3900 C   0  0  0  0  0  0  0  0  0  0  0  0
  161.1210  207.0610  154.1760 C   0  0  0  0  0  3  0  0  0  0  0  0
  161.0760  205.6820  153.9880 C   0  0  0  0  0  3  0  0  0  0  0  0
  161.3900  205.7590  147.8530 C   0  0  0  0  0  0  0  0  0  0  0  0
  161.3370  204.3750  147.7620 C   0  0  0  0  0  0  0  0  0  0  0  0
  161.2910  210.1180  148.5230 C   0  0  1  0  0  3  0  0  0  0  0  0
  161.3040  209.6960  150.9370 C   0  0  0  0  0  2  0  0  0  0  0  0
  161.2110  202.3100  148.4190 C   0  0  0  0  0  0  0  0  0  0  0  0
  161.8570  212.0210  150.1870 C   0  0  2  0  0  3  0  0  0  0  0  0
  161.2170  207.9120  153.0750 C   0  0  0  0  0  3  0  0  0  0  0  0
  161.3680  208.2430  150.6810 N   0  0  0  0  0  0  0  0  0  0  0  0
  161.2690  207.4010  151.7610 C   0  0  0  0  0  0  0  0  0  0  0  0
  161.2620  205.4680  150.2900 C   0  0  0  0  0  0  0  0  0  0  0  0
  161.2730  202.3330  147.0670 N   0  0  0  0  0  0  0  0  0  0  0  0
  162.5810  212.1910  147.7220 C   0  0  0  0  0  2  0  0  0  0  0  0
  161.9460  210.5200  149.8390 C   0  0  2  0  0  3  0  0  0  0  0  0
  161.3500  203.6000  146.6600 N   0  0  0  0  0  0  0  0  0  0  0  0
  161.6700  211.0160  147.3430 C   0  0  0  0  0  2  0  0  0  0  0  0
  160.7550  212.7730  149.4440 C   0  0  1  0  0  3  0  0  0  0  0  0
  161.1250  205.1550  152.6980 C   0  0  0  0  0  3  0  0  0  0  0  0
  161.2220  206.0010  151.5800 C   0  0  0  0  0  0  0  0  0  0  0  0
  161.2100  204.1090  150.1170 N   0  0  0  0  0  0  0  0  0  0  0  0
  161.6680  208.6820  148.2260 C   0  0  0  0  0  2  0  0  0  0  0  0
  161.4610  206.5090  146.6840 O   0  0  0  0  0  1  0  0  0  0  0  0
  161.1140  201.0760  149.2440 C   0  0  0  0  0  1  0  0  0  0  0  0
  161.3580  206.3440  149.1590 C   0  0  0  0  0  0  0  0  0  0  0  0
  161.2510  203.6020  148.8670 C   0  0  0  0  0  0  0  0  0  0  0  0
  160.3470  213.9240  150.2310 N   0  0  0  0  0  2  0  0  0  0  0  0
  158.9320  214.1360  149.9780 C   0  0  0  0  0  3  0  0  0  0  0  0
  158.1100  213.3350  150.9690 C   0  0  0  0  0  1  0  0  0  0  0  0
  158.6000  213.6850  148.5720 C   0  0  0  0  0  1  0  0  0  0  0  0
  1 16  1  6  0  0  0
  1 20  1  0  0  0  0
  1 10  1  0  0  0  0
  2 12  1  0  0  0  0
  4  3  1  0  0  0  0
  5 27  1  0  0  0  0
  6  5  2  0  0  0  0
  6 28  1  0  0  0  0
  7 19  1  6  0  0  0
  7 17  1  0  0  0  0
  9 28  2  0  0  0  0
  9 26  1  0  0  0  0
 11  3  2  0  0  0  0
 12  8  1  0  0  0  0
 12 13  1  0  0  0  0
 13 11  1  0  0  0  0
 14 22  1  0  0  0  0
 15  9  1  0  0  0  0
 17 10  1  0  0  0  0
 17  8  1  0  0  0  0
 18 15  2  0  0  0  0
 18  6  1  0  0  0  0
 19 16  1  0  0  0  0
 20 10  1  0  0  0  0
 20 29  1  0  0  0  0
 21  4  2  0  0  0  0
 22 13  2  0  0  0  0
 22 21  1  0  0  0  0
 23 14  2  0  0  0  0
 24  7  1  0  0  0  0
 24  2  1  0  0  0  0
 25  5  1  0  0  0  0
 27  2  2  0  0  0  0
 27 14  1  0  0  0  0
 28 23  1  0  0  0  0
 30 29  1  0  0  0  0
 30 31  1  0  0  0  0
 32 30  1  0  0  0  0
M  END
>  <MODEL>
6

>  <REMARK>
 VINA RESULT:      -7.1      2.601      5.698
  Name = 
  2 active torsions:
  status: ('A' for Active; 'I' for Inactive)
    1  A    between atoms: C_20  and  N_29
    2  A    between atoms: N_29  and  C_30
                            x       y       z     vdW  Elec       q    Type
                         _______ _______ _______ _____ _____    ______ ____

>  <TORSDO>
F 2

$$$$
=
 OpenBabel11122412463D

 32 38  0  0  1  0  0  0  0  0999 V2000
  160.3800  208.9550  155.3650 C   0  0  1  0  0  3  0  0  0  0  0  0
  161.0460  205.5110  151.4330 C   0  0  0  0  0  0  0  0  0  0  0  0
  161.5420  208.3950  147.5740 C   0  0  0  0  0  3  0  0  0  0  0  0
  161.5410  207.2870  146.7300 C   0  0  0  0  0  3  0  0  0  0  0  0
  160.9480  203.0210  151.1120 C   0  0  0  0  0  0  0  0  0  0  0  0
  160.9600  201.9780  150.1960 C   0  0  0  0  0  0  0  0  0  0  0  0
  161.1960  206.5650  153.7270 C   0  0  1  0  0  3  0  0  0  0  0  0
  161.2830  207.9740  151.7240 C   0  0  0  0  0  2  0  0  0  0  0  0
  161.0590  200.9790  148.2720 C   0  0  0  0  0  0  0  0  0  0  0  0
  160.7590  209.1130  153.8930 C   0  0  2  0  0  3  0  0  0  0  0  0
  161.4190  208.2220  148.9530 C   0  0  0  0  0  3  0  0  0  0  0  0
  161.1680  206.7720  150.8750 N   0  0  0  0  0  0  0  0  0  0  0  0
  161.2930  206.9350  149.5180 C   0  0  0  0  0  0  0  0  0  0  0  0
  161.1800  204.5320  149.1870 C   0  0  0  0  0  0  0  0  0  0  0  0
  160.9350  200.0420  149.2420 N   0  0  0  0  0  0  0  0  0  0  0  0
  159.9280  207.5280  155.7430 C   0  0  0  0  0  2  0  0  0  0  0  0
  160.6140  207.8130  153.0740 C   0  0  2  0  0  3  0  0  0  0  0  0
  160.8750  200.6530  150.4250 N   0  0  0  0  0  0  0  0  0  0  0  0
  160.7890  206.3840  155.1910 C   0  0  0  0  0  2  0  0  0  0  0  0
  161.8460  209.0610  154.9640 C   0  0  1  0  0  3  0  0  0  0  0  0
  161.4190  206.0060  147.2680 C   0  0  0  0  0  3  0  0  0  0  0  0
  161.2940  205.8180  148.6540 C   0  0  0  0  0  0  0  0  0  0  0  0
  161.1870  203.4480  148.3470 N   0  0  0  0  0  0  0  0  0  0  0  0
  160.7680  205.3610  152.9150 C   0  0  0  0  0  2  0  0  0  0  0  0
  160.8440  202.7280  152.4670 O   0  0  0  0  0  1  0  0  0  0  0  0
  161.1600  200.6860  146.8170 C   0  0  0  0  0  1  0  0  0  0  0  0
  161.0560  204.3560  150.6040 C   0  0  0  0  0  0  0  0  0  0  0  0
  161.0750  202.2090  148.8700 C   0  0  0  0  0  0  0  0  0  0  0  0
  162.3210  210.4090  155.2290 N   0  0  0  0  0  2  0  0  0  0  0  0
  161.3770  211.0230  156.1470 C   0  0  0  0  0  3  0  0  0  0  0  0
  160.5340  212.0430  155.4080 C   0  0  0  0  0  1  0  0  0  0  0  0
  162.1360  211.7130  157.2610 C   0  0  0  0  0  1  0  0  0  0  0  0
  1 16  1  6  0  0  0
  2 24  1  0  0  0  0
  3 11  1  0  0  0  0
  4 21  1  0  0  0  0
  4  3  2  0  0  0  0
  5 25  1  0  0  0  0
  6 18  1  0  0  0  0
  6  5  2  0  0  0  0
  7 24  1  6  0  0  0
  7 19  1  0  0  0  0
  8 17  1  0  0  0  0
  9 28  2  0  0  0  0
  9 15  1  0  0  0  0
 10 20  1  0  0  0  0
 10  1  1  0  0  0  0
 11 13  2  0  0  0  0
 12  2  1  0  0  0  0
 12  8  1  0  0  0  0
 13 12  1  0  0  0  0
 14 27  1  0  0  0  0
 15 18  2  0  0  0  0
 17  7  1  0  0  0  0
 17 10  1  0  0  0  0
 19 16  1  0  0  0  0
 20 29  1  0  0  0  0
 20  1  1  0  0  0  0
 21 22  2  0  0  0  0
 22 14  1  0  0  0  0
 22 13  1  0  0  0  0
 23 28  1  0  0  0  0
 23 14  2  0  0  0  0
 26  9  1  0  0  0  0
 27  5  1  0  0  0  0
 27  2  2  0  0  0  0
 28  6  1  0  0  0  0
 29 30  1  0  0  0  0
 30 32  1  0  0  0  0
 31 30  1  0  0  0  0
M  END
>  <MODEL>
7

>  <REMARK>
 VINA RESULT:      -6.9      1.856      2.659
  Name = 
  2 active torsions:
  status: ('A' for Active; 'I' for Inactive)
    1  A    between atoms: C_20  and  N_29
    2  A    between atoms: N_29  and  C_30
                            x       y       z     vdW  Elec       q    Type
                         _______ _______ _______ _____ _____    ______ ____

>  <TORSDO>
F 2

$$$$
=
 OpenBabel11122412463D

 32 38  0  0  1  0  0  0  0  0999 V2000
  162.1970  209.9360  153.6860 C   0  0  1  0  0  3  0  0  0  0  0  0
  161.2190  206.4270  149.8780 C   0  0  0  0  0  0  0  0  0  0  0  0
  160.8940  202.2650  152.3340 C   0  0  0  0  0  3  0  0  0  0  0  0
  160.7990  201.5540  151.1400 C   0  0  0  0  0  3  0  0  0  0  0  0
  161.1230  206.3930  147.3680 C   0  0  0  0  0  0  0  0  0  0  0  0
  161.0200  205.6020  146.2310 C   0  0  0  0  0  0  0  0  0  0  0  0
  161.1800  208.5850  151.1950 C   0  0  1  0  0  3  0  0  0  0  0  0
  161.1740  206.4350  152.3700 C   0  0  0  0  0  2  0  0  0  0  0  0
  160.8190  203.8050  145.0300 C   0  0  0  0  0  0  0  0  0  0  0  0
  161.8120  208.4570  153.7040 C   0  0  2  0  0  3  0  0  0  0  0  0
  161.0210  203.6540  152.3100 C   0  0  0  0  0  3  0  0  0  0  0  0
  161.1860  205.7290  151.0730 N   0  0  0  0  0  0  0  0  0  0  0  0
  161.0570  204.3620  151.0900 C   0  0  0  0  0  0  0  0  0  0  0  0
  160.9820  204.3090  148.6630 C   0  0  0  0  0  0  0  0  0  0  0  0
  160.8840  204.8760  144.2040 N   0  0  0  0  0  0  0  0  0  0  0  0
  162.5440  210.4730  152.2800 C   0  0  0  0  0  2  0  0  0  0  0  0
  161.8470  207.7920  152.3120 C   0  0  2  0  0  3  0  0  0  0  0  0
  161.0070  205.9810  144.9390 N   0  0  0  0  0  0  0  0  0  0  0  0
  161.5920  210.0590  151.1510 C   0  0  0  0  0  2  0  0  0  0  0  0
  160.7380  209.5310  153.8590 C   0  0  1  0  0  3  0  0  0  0  0  0
  160.8310  202.2340  149.9230 C   0  0  0  0  0  3  0  0  0  0  0  0
  160.9590  203.6320  149.8850 C   0  0  0  0  0  0  0  0  0  0  0  0
  160.8810  203.5980  147.4940 N   0  0  0  0  0  0  0  0  0  0  0  0
  161.5050  207.9150  149.8770 C   0  0  0  0  0  2  0  0  0  0  0  0
  161.2220  207.7720  147.2240 O   0  0  0  0  0  1  0  0  0  0  0  0
  160.6780  202.3940  144.5820 C   0  0  0  0  0  1  0  0  0  0  0  0
  161.1110  205.7360  148.6400 C   0  0  0  0  0  0  0  0  0  0  0  0
  160.9050  204.2590  146.3180 C   0  0  0  0  0  0  0  0  0  0  0  0
  160.3710  209.6420  155.2600 N   0  0  0  0  0  2  0  0  0  0  0  0
  160.1230  211.0490  155.5280 C   0  0  0  0  0  3  0  0  0  0  0  0
  159.6670  211.2230  156.9630 C   0  0  0  0  0  1  0  0  0  0  0  0
  159.0430  211.5550  154.5950 C   0  0  0  0  0  1  0  0  0  0  0  0
  1 16  1  6  0  0  0
  1 10  1  0  0  0  0
  1 20  1  0  0  0  0
  2 12  1  0  0  0  0
  4  3  2  0  0  0  0
  5 27  1  0  0  0  0
  6 28  1  0  0  0  0
  6  5  2  0  0  0  0
  7 24  1  6  0  0  0
  7 17  1  0  0  0  0
  9 28  2  0  0  0  0
 10 20  1  0  0  0  0
 11  3  1  0  0  0  0
 12 13  1  0  0  0  0
 12  8  1  0  0  0  0
 13 11  2  0  0  0  0
 14 22  1  0  0  0  0
 15 18  2  0  0  0  0
 15  9  1  0  0  0  0
 17  8  1  0  0  0  0
 17 10  1  0  0  0  0
 18  6  1  0  0  0  0
 19  7  1  0  0  0  0
 19 16  1  0  0  0  0
 20 29  1  0  0  0  0
 21  4  1  0  0  0  0
 22 21  2  0  0  0  0
 22 13  1  0  0  0  0
 23 14  2  0  0  0  0
 24  2  1  0  0  0  0
 25  5  1  0  0  0  0
 26  9  1  0  0  0  0
 27 14  1  0  0  0  0
 27  2  2  0  0  0  0
 28 23  1  0  0  0  0
 29 30  1  0  0  0  0
 30 31  1  0  0  0  0
 32 30  1  0  0  0  0
M  END
>  <MODEL>
8

>  <REMARK>
 VINA RESULT:      -6.7      2.199      4.508
  Name = 
  2 active torsions:
  status: ('A' for Active; 'I' for Inactive)
    1  A    between atoms: C_20  and  N_29
    2  A    between atoms: N_29  and  C_30
                            x       y       z     vdW  Elec       q    Type
                         _______ _______ _______ _____ _____    ______ ____

>  <TORSDO>
F 2

$$$$
