=
 OpenBabel11122414163D

 34 40  0  0  1  0  0  0  0  0999 V2000
  160.7970  207.2830  154.2210 C   0  0  0  0  0  0  0  0  0  0  0  0
  161.4500  205.0900  153.1150 C   0  0  0  0  0  2  0  0  0  0  0  0
  158.2300  213.2930  154.2580 C   0  0  0  0  0  0  0  0  0  0  0  0
  159.8870  209.3570  155.0510 C   0  0  0  0  0  0  0  0  0  0  0  0
  159.9170  211.4570  153.5460 C   0  0  2  0  0  3  0  0  0  0  0  0
  159.7480  213.6390  152.3280 C   0  0  0  0  0  1  0  0  0  0  0  0
  157.0480  213.6680  154.0460 O   0  0  0  0  0  0  0  0  0  0  0  0
  160.1650  213.1200  155.8910 C   0  0  0  0  0  2  0  0  0  0  0  0
  161.9730  207.1660  151.9940 C   0  0  2  0  0  3  0  0  0  0  0  0
  161.0990  207.0780  148.8750 C   0  0  0  0  0  3  0  0  0  0  0  0
  159.9580  210.4340  152.4140 C   0  0  0  0  0  2  0  0  0  0  0  0
  160.2130  211.6020  156.0660 C   0  0  0  0  0  2  0  0  0  0  0  0
  161.0930  208.3550  151.5760 C   0  0  1  0  0  3  0  0  0  0  0  0
  162.1160  204.7570  151.7900 C   0  0  0  0  0  2  0  0  0  0  0  0
  159.5580  210.8260  154.9150 C   0  0  2  0  0  3  0  0  0  0  0  0
  158.8250  213.5610  155.5330 N   0  0  0  0  0  2  0  0  0  0  0  0
  160.9360  206.0340  149.9510 C   0  0  2  0  0  3  0  0  0  0  0  0
  160.5320  208.6470  154.0230 C   0  0  0  0  0  0  0  0  0  0  0  0
  158.9830  212.6110  153.1420 C   0  0  2  0  0  3  0  0  0  0  0  0
  160.9610  209.3390  152.7500 C   0  0  2  0  0  3  0  0  0  0  0  0
  159.7600  207.3730  156.3430 C   0  0  0  0  0  3  0  0  0  0  0  0
  161.4020  208.3740  149.0650 C   0  0  0  0  0  3  0  0  0  0  0  0
  159.5080  208.6980  156.1790 N   0  0  0  0  0  0  0  0  0  0  0  0
  161.7350  209.0370  150.3760 C   0  0  0  0  0  2  0  0  0  0  0  0
  162.1050  206.0410  150.9550 C   0  0  1  0  0  3  0  0  0  0  0  0
  160.3990  206.6750  155.3700 N   0  0  0  0  0  0  0  0  0  0  0  0
  161.4440  206.5350  153.1870 N   0  0  0  0  0  0  0  0  0  0  0  0
  160.8060  204.7810  149.3430 O   0  0  0  0  0  0  0  0  0  0  0  0
  161.0770  205.0090  147.9920 C   0  0  0  0  0  2  0  0  0  0  0  0
  160.4550  201.9510  147.0470 O   0  0  0  0  0  0  0  0  0  0  0  0
  161.5660  203.7160  145.9430 C   0  0  0  0  0  2  0  0  0  0  0  0
  161.8470  203.8340  147.4120 C   0  0  2  0  0  3  0  0  0  0  0  0
  160.9600  202.3400  145.7990 C   0  0  0  0  0  2  0  0  0  0  0  0
  161.3080  202.5450  147.9900 C   0  0  0  0  0  2  0  0  0  0  0  0
  1 26  1  0  0  0  0
  2 27  1  0  0  0  0
  3 16  1  0  0  0  0
  4 23  2  0  0  0  0
  5 11  1  6  0  0  0
  5 15  1  0  0  0  0
  7  3  2  0  0  0  0
  8 12  1  0  0  0  0
  9 27  1  1  0  0  0
 10 22  2  0  0  0  0
 10 17  1  0  0  0  0
 13 24  1  6  0  0  0
 13  9  1  0  0  0  0
 13 20  1  0  0  0  0
 14  2  1  0  0  0  0
 15  4  1  0  0  0  0
 15 12  1  1  0  0  0
 16  8  1  0  0  0  0
 17 28  1  6  0  0  0
 17 25  1  0  0  0  0
 18  1  2  0  0  0  0
 18  4  1  0  0  0  0
 19  6  1  1  0  0  0
 19  5  1  0  0  0  0
 19  3  1  0  0  0  0
 20 11  1  6  0  0  0
 20 18  1  0  0  0  0
 22 24  1  0  0  0  0
 23 21  1  0  0  0  0
 25 14  1  1  0  0  0
 25  9  1  0  0  0  0
 26 21  2  0  0  0  0
 27  1  1  0  0  0  0
 29 28  1  0  0  0  0
 30 34  1  0  0  0  0
 31 32  1  0  0  0  0
 32 34  1  0  0  0  0
 32 29  1  1  0  0  0
 33 31  1  0  0  0  0
 33 30  1  0  0  0  0
M  END
>  <MODEL>
1

>  <REMARK>
 VINA RESULT:      -9.3      0.000      0.000
  Name = 
  3 active torsions:
  status: ('A' for Active; 'I' for Inactive)
    1  A    between atoms: C_17  and  O_28
    2  A    between atoms: O_28  and  C_29
    3  A    between atoms: C_29  and  C_32
                            x       y       z     vdW  Elec       q    Type
                         _______ _______ _______ _____ _____    ______ ____

>  <TORSDO>
F 3

$$$$
=
 OpenBabel11122414163D

 34 40  0  0  1  0  0  0  0  0999 V2000
  160.8810  207.9520  154.0980 C   0  0  0  0  0  0  0  0  0  0  0  0
  161.7530  205.8790  152.9130 C   0  0  0  0  0  2  0  0  0  0  0  0
  157.9220  213.7750  154.3090 C   0  0  0  0  0  0  0  0  0  0  0  0
  159.7810  209.9070  154.9830 C   0  0  0  0  0  0  0  0  0  0  0  0
  159.7720  212.0970  153.6110 C   0  0  2  0  0  3  0  0  0  0  0  0
  159.5400  214.3380  152.5170 C   0  0  0  0  0  1  0  0  0  0  0  0
  156.7340  214.0880  154.0350 O   0  0  0  0  0  0  0  0  0  0  0  0
  159.7490  213.6190  156.0630 C   0  0  0  0  0  2  0  0  0  0  0  0
  162.2110  208.0510  151.9580 C   0  0  2  0  0  3  0  0  0  0  0  0
  161.5580  208.1090  148.7850 C   0  0  0  0  0  3  0  0  0  0  0  0
  159.9580  211.1540  152.4270 C   0  0  0  0  0  2  0  0  0  0  0  0
  159.8860  212.0990  156.1500 C   0  0  0  0  0  2  0  0  0  0  0  0
  161.2840  209.2080  151.5500 C   0  0  1  0  0  3  0  0  0  0  0  0
  162.5290  205.6740  151.6220 C   0  0  0  0  0  2  0  0  0  0  0  0
  159.3640  211.3590  154.9110 C   0  0  2  0  0  3  0  0  0  0  0  0
  158.4100  213.9970  155.6370 N   0  0  0  0  0  2  0  0  0  0  0  0
  161.3930  206.9900  149.7830 C   0  0  2  0  0  3  0  0  0  0  0  0
  160.5400  209.3070  153.9630 C   0  0  0  0  0  0  0  0  0  0  0  0
  158.7920  213.2140  153.2100 C   0  0  2  0  0  3  0  0  0  0  0  0
  161.0070  210.1040  152.7680 C   0  0  2  0  0  3  0  0  0  0  0  0
  159.7000  207.8400  156.1420 C   0  0  0  0  0  3  0  0  0  0  0  0
  161.7610  209.4070  149.0730 C   0  0  0  0  0  3  0  0  0  0  0  0
  159.3710  209.1550  156.0400 N   0  0  0  0  0  0  0  0  0  0  0  0
  161.9590  210.0030  150.4420 C   0  0  0  0  0  2  0  0  0  0  0  0
  162.4880  207.0060  150.8660 C   0  0  1  0  0  3  0  0  0  0  0  0
  160.4480  207.2470  155.1770 N   0  0  0  0  0  0  0  0  0  0  0  0
  161.6460  207.3130  153.0700 N   0  0  0  0  0  0  0  0  0  0  0  0
  161.3880  205.7730  149.0930 O   0  0  0  0  0  0  0  0  0  0  0  0
  160.5840  205.9990  147.9740 C   0  0  0  0  0  2  0  0  0  0  0  0
  162.5500  205.8820  145.3760 O   0  0  0  0  0  0  0  0  0  0  0  0
  162.2620  204.3740  147.1670 C   0  0  0  0  0  2  0  0  0  0  0  0
  160.9350  205.0100  146.8750 C   0  0  2  0  0  3  0  0  0  0  0  0
  163.1140  204.7510  145.9780 C   0  0  0  0  0  2  0  0  0  0  0  0
  161.1670  205.7570  145.5810 C   0  0  0  0  0  2  0  0  0  0  0  0
  1 26  1  0  0  0  0
  2 27  1  0  0  0  0
  3 16  1  0  0  0  0
  4 23  2  0  0  0  0
  5 11  1  6  0  0  0
  5 15  1  0  0  0  0
  7  3  2  0  0  0  0
  8 12  1  0  0  0  0
  9 27  1  1  0  0  0
 10 22  2  0  0  0  0
 10 17  1  0  0  0  0
 13 24  1  6  0  0  0
 13  9  1  0  0  0  0
 13 20  1  0  0  0  0
 14  2  1  0  0  0  0
 15  4  1  0  0  0  0
 15 12  1  1  0  0  0
 16  8  1  0  0  0  0
 17 28  1  6  0  0  0
 17 25  1  0  0  0  0
 18  1  2  0  0  0  0
 18  4  1  0  0  0  0
 19  6  1  1  0  0  0
 19  5  1  0  0  0  0
 19  3  1  0  0  0  0
 20 11  1  6  0  0  0
 20 18  1  0  0  0  0
 22 24  1  0  0  0  0
 23 21  1  0  0  0  0
 25 14  1  1  0  0  0
 25  9  1  0  0  0  0
 26 21  2  0  0  0  0
 27  1  1  0  0  0  0
 29 28  1  0  0  0  0
 30 34  1  0  0  0  0
 30 33  1  0  0  0  0
 32 31  1  0  0  0  0
 32 29  1  1  0  0  0
 33 31  1  0  0  0  0
 34 32  1  0  0  0  0
M  END
>  <MODEL>
2

>  <REMARK>
 VINA RESULT:      -8.7      1.244      1.468
  Name = 
  3 active torsions:
  status: ('A' for Active; 'I' for Inactive)
    1  A    between atoms: C_17  and  O_28
    2  A    between atoms: O_28  and  C_29
    3  A    between atoms: C_29  and  C_32
                            x       y       z     vdW  Elec       q    Type
                         _______ _______ _______ _____ _____    ______ ____

>  <TORSDO>
F 3

$$$$
=
 OpenBabel11122414163D

 34 40  0  0  1  0  0  0  0  0999 V2000
  161.5610  208.4930  149.7340 C   0  0  0  0  0  0  0  0  0  0  0  0
  161.7260  207.2170  147.5420 C   0  0  0  0  0  2  0  0  0  0  0  0
  161.7500  209.0060  156.2460 C   0  0  0  0  0  0  0  0  0  0  0  0
  161.6710  209.4850  151.9300 C   0  0  0  0  0  0  0  0  0  0  0  0
  160.8330  208.1490  153.9760 C   0  0  2  0  0  3  0  0  0  0  0  0
  160.1580  207.1080  156.1520 C   0  0  0  0  0  1  0  0  0  0  0  0
  162.7060  208.8260  157.0430 O   0  0  0  0  0  0  0  0  0  0  0  0
  160.0580  210.6180  155.2550 C   0  0  0  0  0  2  0  0  0  0  0  0
  160.4480  206.2610  149.3570 C   0  0  2  0  0  3  0  0  0  0  0  0
  161.2080  203.1470  149.8270 C   0  0  0  0  0  3  0  0  0  0  0  0
  161.1380  206.9410  153.0970 C   0  0  0  0  0  2  0  0  0  0  0  0
  160.5740  210.6720  153.8170 C   0  0  0  0  0  2  0  0  0  0  0  0
  160.8200  205.9400  150.8140 C   0  0  1  0  0  3  0  0  0  0  0  0
  161.1910  205.8690  147.0860 C   0  0  0  0  0  2  0  0  0  0  0  0
  161.4350  209.4650  153.4230 C   0  0  2  0  0  3  0  0  0  0  0  0
  161.1330  210.2980  156.1820 N   0  0  0  0  0  2  0  0  0  0  0  0
  161.7710  204.1380  148.8390 C   0  0  2  0  0  3  0  0  0  0  0  0
  161.3030  208.4030  151.1110 C   0  0  0  0  0  0  0  0  0  0  0  0
  161.2690  207.8380  155.4190 C   0  0  2  0  0  3  0  0  0  0  0  0
  160.6150  207.1880  151.6890 C   0  0  2  0  0  3  0  0  0  0  0  0
  162.5510  210.6170  150.0410 C   0  0  0  0  0  3  0  0  0  0  0  0
  160.4570  203.4380  150.9030 C   0  0  0  0  0  3  0  0  0  0  0  0
  162.2960  210.5580  151.3740 N   0  0  0  0  0  0  0  0  0  0  0  0
  159.9400  204.7970  151.2990 C   0  0  0  0  0  2  0  0  0  0  0  0
  160.7090  205.1370  148.3430 C   0  0  1  0  0  3  0  0  0  0  0  0
  162.1850  209.5910  149.2310 N   0  0  0  0  0  0  0  0  0  0  0  0
  161.2040  207.4020  148.8780 N   0  0  0  0  0  0  0  0  0  0  0  0
  162.3340  203.4330  147.7700 O   0  0  0  0  0  0  0  0  0  0  0  0
  161.4210  202.4120  147.4930 C   0  0  0  0  0  2  0  0  0  0  0  0
  159.3480  201.3470  145.2140 O   0  0  0  0  0  0  0  0  0  0  0  0
  160.8310  203.1820  145.2190 C   0  0  0  0  0  2  0  0  0  0  0  0
  161.4580  202.0720  146.0130 C   0  0  2  0  0  3  0  0  0  0  0  0
  159.6770  202.5140  144.5110 C   0  0  0  0  0  2  0  0  0  0  0  0
  160.5610  200.8850  145.7470 C   0  0  0  0  0  2  0  0  0  0  0  0
  1 18  1  0  0  0  0
  2 27  1  0  0  0  0
  3  7  2  0  0  0  0
  4 15  1  0  0  0  0
  5 11  1  6  0  0  0
  5 19  1  0  0  0  0
  8 16  1  0  0  0  0
  9 27  1  6  0  0  0
  9 13  1  0  0  0  0
 10 22  2  0  0  0  0
 12  8  1  0  0  0  0
 13 24  1  1  0  0  0
 13 20  1  0  0  0  0
 14  2  1  0  0  0  0
 15 12  1  6  0  0  0
 15  5  1  0  0  0  0
 16  3  1  0  0  0  0
 17 28  1  6  0  0  0
 17 10  1  0  0  0  0
 18 20  1  0  0  0  0
 18  4  2  0  0  0  0
 19  6  1  1  0  0  0
 19  3  1  0  0  0  0
 20 11  1  1  0  0  0
 21 23  2  0  0  0  0
 22 24  1  0  0  0  0
 23  4  1  0  0  0  0
 25 14  1  6  0  0  0
 25 17  1  0  0  0  0
 25  9  1  0  0  0  0
 26  1  2  0  0  0  0
 26 21  1  0  0  0  0
 27  1  1  0  0  0  0
 29 28  1  0  0  0  0
 30 34  1  0  0  0  0
 31 32  1  0  0  0  0
 32 29  1  1  0  0  0
 33 30  1  0  0  0  0
 33 31  1  0  0  0  0
 34 32  1  0  0  0  0
M  END
>  <MODEL>
3

>  <REMARK>
 VINA RESULT:      -8.1      2.403      4.404
  Name = 
  3 active torsions:
  status: ('A' for Active; 'I' for Inactive)
    1  A    between atoms: C_17  and  O_28
    2  A    between atoms: O_28  and  C_29
    3  A    between atoms: C_29  and  C_32
                            x       y       z     vdW  Elec       q    Type
                         _______ _______ _______ _____ _____    ______ ____

>  <TORSDO>
F 3

$$$$
=
 OpenBabel11122414163D

 34 40  0  0  1  0  0  0  0  0999 V2000
  161.5760  207.7310  149.1920 C   0  0  0  0  0  0  0  0  0  0  0  0
  161.7680  210.0390  150.2400 C   0  0  0  0  0  2  0  0  0  0  0  0
  159.6670  201.4830  149.0870 C   0  0  0  0  0  0  0  0  0  0  0  0
  161.0650  205.5290  148.3530 C   0  0  0  0  0  0  0  0  0  0  0  0
  160.9820  203.5290  149.9860 C   0  0  2  0  0  3  0  0  0  0  0  0
  160.7730  201.4090  151.3040 C   0  0  0  0  0  1  0  0  0  0  0  0
  158.5090  200.9920  149.0830 O   0  0  0  0  0  0  0  0  0  0  0  0
  161.8750  201.7800  147.8710 C   0  0  0  0  0  2  0  0  0  0  0  0
  162.2440  208.0960  151.5960 C   0  0  2  0  0  3  0  0  0  0  0  0
  160.7320  208.2540  154.4580 C   0  0  0  0  0  3  0  0  0  0  0  0
  160.6870  204.6080  151.0230 C   0  0  0  0  0  2  0  0  0  0  0  0
  161.8110  203.2820  147.5960 C   0  0  0  0  0  2  0  0  0  0  0  0
  161.4150  206.8410  151.9150 C   0  0  1  0  0  3  0  0  0  0  0  0
  162.1080  210.5140  151.6430 C   0  0  0  0  0  2  0  0  0  0  0  0
  160.8580  204.0420  148.5290 C   0  0  2  0  0  3  0  0  0  0  0  0
  160.5380  201.2140  147.9820 N   0  0  0  0  0  2  0  0  0  0  0  0
  160.6990  209.2150  153.2960 C   0  0  2  0  0  3  0  0  0  0  0  0
  161.4090  206.3590  149.4340 C   0  0  0  0  0  0  0  0  0  0  0  0
  160.1000  202.3020  150.2780 C   0  0  2  0  0  3  0  0  0  0  0  0
  161.6270  205.7870  150.8160 C   0  0  2  0  0  3  0  0  0  0  0  0
  161.0200  207.4150  146.9170 C   0  0  0  0  0  3  0  0  0  0  0  0
  161.1930  206.9910  154.4310 C   0  0  0  0  0  3  0  0  0  0  0  0
  160.8680  206.0810  147.1250 N   0  0  0  0  0  0  0  0  0  0  0  0
  161.8550  206.3000  153.2670 C   0  0  0  0  0  2  0  0  0  0  0  0
  162.0470  209.2820  152.5530 C   0  0  1  0  0  3  0  0  0  0  0  0
  161.3710  208.2300  147.9450 N   0  0  0  0  0  0  0  0  0  0  0  0
  161.9180  208.6010  150.2770 N   0  0  0  0  0  0  0  0  0  0  0  0
  160.3230  210.4760  153.7700 O   0  0  0  0  0  0  0  0  0  0  0  0
  159.7310  210.2310  155.0110 C   0  0  0  0  0  2  0  0  0  0  0  0
  157.7080  212.3750  153.6190 O   0  0  0  0  0  0  0  0  0  0  0  0
  157.4570  211.0380  155.5460 C   0  0  0  0  0  2  0  0  0  0  0  0
  158.9020  211.4310  155.4360 C   0  0  2  0  0  3  0  0  0  0  0  0
  156.7600  211.9350  154.5520 C   0  0  0  0  0  2  0  0  0  0  0  0
  158.9130  212.4660  154.3340 C   0  0  0  0  0  2  0  0  0  0  0  0
  1 18  1  0  0  0  0
  1 27  1  0  0  0  0
  2 27  1  0  0  0  0
  2 14  1  0  0  0  0
  3 19  1  0  0  0  0
  4 15  1  0  0  0  0
  4 18  2  0  0  0  0
  5 19  1  0  0  0  0
  5 11  1  1  0  0  0
  7  3  2  0  0  0  0
  8 16  1  0  0  0  0
  9 27  1  6  0  0  0
  9 13  1  0  0  0  0
  9 25  1  0  0  0  0
 12  8  1  0  0  0  0
 13 24  1  1  0  0  0
 15 12  1  6  0  0  0
 15  5  1  0  0  0  0
 16  3  1  0  0  0  0
 17 28  1  1  0  0  0
 17 10  1  0  0  0  0
 18 20  1  0  0  0  0
 19  6  1  1  0  0  0
 20 11  1  1  0  0  0
 20 13  1  0  0  0  0
 21 23  2  0  0  0  0
 21 26  1  0  0  0  0
 22 10  2  0  0  0  0
 23  4  1  0  0  0  0
 24 22  1  0  0  0  0
 25 14  1  6  0  0  0
 25 17  1  0  0  0  0
 26  1  2  0  0  0  0
 28 29  1  0  0  0  0
 30 34  1  0  0  0  0
 30 33  1  0  0  0  0
 32 29  1  6  0  0  0
 32 31  1  0  0  0  0
 33 31  1  0  0  0  0
 34 32  1  0  0  0  0
M  END
>  <MODEL>
4

>  <REMARK>
 VINA RESULT:      -7.9      2.608      9.167
  Name = 
  3 active torsions:
  status: ('A' for Active; 'I' for Inactive)
    1  A    between atoms: C_17  and  O_28
    2  A    between atoms: O_28  and  C_29
    3  A    between atoms: C_29  and  C_32
                            x       y       z     vdW  Elec       q    Type
                         _______ _______ _______ _____ _____    ______ ____

>  <TORSDO>
F 3

$$$$
