=
 OpenBabel11122413063D

 31 35  0  0  1  0  0  0  0  0999 V2000
  161.1770  200.9840  149.1540 C   0  0  0  0  0  0  0  0  0  0  0  0
  161.5250  204.7020  148.6470 N   0  0  0  0  0  0  0  0  0  0  0  0
  161.8430  204.7850  147.2040 C   0  0  0  0  0  0  0  0  0  0  0  0
  160.7100  204.2770  145.1150 C   0  0  0  0  0  0  0  0  0  0  0  0
  161.3210  203.4130  149.2740 C   0  0  0  0  0  0  0  0  0  0  0  0
  160.8130  200.9330  150.5010 C   0  0  0  0  0  3  0  0  0  0  0  0
  160.8860  204.0320  146.3820 N   0  0  0  0  0  0  0  0  0  0  0  0
  161.5650  205.7740  150.9920 C   0  0  1  0  0  3  0  0  0  0  0  0
  161.2760  199.8400  148.4350 F   0  0  0  0  0  0  0  0  0  0  0  0
  162.0830  207.2390  147.5020 C   0  0  0  0  0  3  0  0  0  0  0  0
  159.7940  203.4200  144.3200 C   0  0  0  0  0  1  0  0  0  0  0  0
  160.9170  204.5380  151.4120 N   0  0  0  0  0  2  0  0  0  0  0  0
  161.6490  205.8800  149.4880 C   0  0  0  0  0  0  0  0  0  0  0  0
  161.4250  202.2160  148.5450 C   0  0  0  0  0  3  0  0  0  0  0  0
  161.3380  205.4570  144.4800 C   0  0  0  0  0  3  0  0  0  0  0  0
  160.9870  203.3440  150.6380 C   0  0  0  0  0  0  0  0  0  0  0  0
  160.7180  202.1130  151.2420 C   0  0  0  0  0  3  0  0  0  0  0  0
  161.9640  207.0640  148.9500 C   0  0  0  0  0  3  0  0  0  0  0  0
  161.9760  206.1980  146.6850 C   0  0  0  0  0  0  0  0  0  0  0  0
  161.9300  206.3900  145.2310 C   0  0  0  0  0  2  0  0  0  0  0  0
  161.9860  206.8950  153.5890 O   0  0  0  0  0  0  0  0  0  0  0  0
  161.1020  207.4230  152.8630 C   0  0  0  0  0  0  0  0  0  0  0  0
  160.8460  206.9100  151.5510 N   0  0  0  0  0  2  0  0  0  0  0  0
  161.9640  210.3470  154.8420 C   0  0  1  0  0  3  0  0  0  0  0  0
  160.9060  209.9250  152.8790 C   0  0  0  0  0  2  0  0  0  0  0  0
  159.8060  207.3610  155.4100 C   0  0  0  0  0  1  0  0  0  0  0  0
  163.2120  210.7510  155.4640 N   0  0  0  0  0  1  0  0  0  0  0  0
  162.1670  210.1660  153.4610 O   0  0  0  0  0  0  0  0  0  0  0  0
  160.2100  208.6500  154.8650 N   0  0  0  0  0  0  0  0  0  0  0  0
  160.3210  208.6000  153.3920 C   0  0  2  0  0  3  0  0  0  0  0  0
  161.4820  209.0400  155.4740 C   0  0  0  0  0  2  0  0  0  0  0  0
  1  6  1  0  0  0  0
  2  5  1  0  0  0  0
  2 13  1  0  0  0  0
  3  2  1  0  0  0  0
  4  7  1  0  0  0  0
  5 16  2  0  0  0  0
  6 17  2  0  0  0  0
  7  3  2  0  0  0  0
  8 12  1  0  0  0  0
  8 23  1  6  0  0  0
  9  1  1  0  0  0  0
 10 18  1  0  0  0  0
 11  4  1  0  0  0  0
 13  8  1  0  0  0  0
 14  1  2  0  0  0  0
 14  5  1  0  0  0  0
 15  4  2  0  0  0  0
 15 20  1  0  0  0  0
 16 17  1  0  0  0  0
 16 12  1  0  0  0  0
 18 13  2  0  0  0  0
 19  3  1  0  0  0  0
 19 10  2  0  0  0  0
 20 19  1  0  0  0  0
 22 21  2  0  0  0  0
 23 22  1  0  0  0  0
 24 27  1  1  0  0  0
 24 31  1  0  0  0  0
 25 30  1  0  0  0  0
 25 28  1  0  0  0  0
 28 24  1  0  0  0  0
 29 26  1  0  0  0  0
 29 31  1  0  0  0  0
 30 22  1  1  0  0  0
 30 29  1  0  0  0  0
M  END
>  <MODEL>
1

>  <REMARK>
 VINA RESULT:      -8.0      0.000      0.000
  Name = 
  2 active torsions:
  status: ('A' for Active; 'I' for Inactive)
    1  A    between atoms: C_5  and  C_30
    2  A    between atoms: C_10  and  N_16
                            x       y       z     vdW  Elec       q    Type
                         _______ _______ _______ _____ _____    ______ ____

>  <TORSDO>
F 2

$$$$
=
 OpenBabel11122413063D

 31 35  0  0  1  0  0  0  0  0999 V2000
  161.2870  203.0260  150.8860 C   0  0  0  0  0  0  0  0  0  0  0  0
  161.5540  206.7560  151.3480 N   0  0  0  0  0  0  0  0  0  0  0  0
  162.0090  207.1980  150.0100 C   0  0  0  0  0  0  0  0  0  0  0  0
  161.1040  207.2150  147.7540 C   0  0  0  0  0  0  0  0  0  0  0  0
  161.3340  205.3500  151.6140 C   0  0  0  0  0  0  0  0  0  0  0  0
  160.7950  202.6390  152.1330 C   0  0  0  0  0  3  0  0  0  0  0  0
  161.1630  206.6640  148.9340 N   0  0  0  0  0  0  0  0  0  0  0  0
  161.3280  207.2130  153.8750 C   0  0  1  0  0  3  0  0  0  0  0  0
  161.4960  202.0980  149.9220 F   0  0  0  0  0  0  0  0  0  0  0  0
  162.1330  209.5040  150.9250 C   0  0  0  0  0  3  0  0  0  0  0  0
  160.3000  206.5730  146.6830 C   0  0  0  0  0  1  0  0  0  0  0  0
  160.6840  205.9050  153.9090 N   0  0  0  0  0  2  0  0  0  0  0  0
  161.5550  207.6900  152.4600 C   0  0  0  0  0  0  0  0  0  0  0  0
  161.5510  204.3730  150.6270 C   0  0  0  0  0  3  0  0  0  0  0  0
  161.7500  208.5210  147.4980 C   0  0  0  0  0  3  0  0  0  0  0  0
  160.8710  204.9420  152.8760 C   0  0  0  0  0  0  0  0  0  0  0  0
  160.5870  203.5970  153.1280 C   0  0  0  0  0  3  0  0  0  0  0  0
  161.8800  208.9730  152.2650 C   0  0  0  0  0  3  0  0  0  0  0  0
  162.1420  208.6970  149.8710 C   0  0  0  0  0  0  0  0  0  0  0  0
  162.2330  209.2430  148.5120 C   0  0  0  0  0  2  0  0  0  0  0  0
  162.1270  208.5690  156.2630 O   0  0  0  0  0  0  0  0  0  0  0  0
  160.9760  208.8120  155.8130 C   0  0  0  0  0  0  0  0  0  0  0  0
  160.5180  208.1680  154.6190 N   0  0  0  0  0  2  0  0  0  0  0  0
  159.3100  211.9040  154.8800 C   0  0  1  0  0  3  0  0  0  0  0  0
  158.7310  209.9330  155.8440 C   0  0  0  0  0  2  0  0  0  0  0  0
  162.0430  211.0340  157.2600 C   0  0  0  0  0  1  0  0  0  0  0  0
  159.3300  212.6710  153.6480 N   0  0  0  0  0  1  0  0  0  0  0  0
  158.8800  210.5920  154.6070 O   0  0  0  0  0  0  0  0  0  0  0  0
  160.6860  211.1280  156.7410 N   0  0  0  0  0  0  0  0  0  0  0  0
  160.0900  209.7890  156.5450 C   0  0  2  0  0  3  0  0  0  0  0  0
  160.7150  211.8780  155.4840 C   0  0  0  0  0  2  0  0  0  0  0  0
  1  6  1  0  0  0  0
  2  5  1  0  0  0  0
  2 13  1  0  0  0  0
  3  2  1  0  0  0  0
  4  7  1  0  0  0  0
  5 16  2  0  0  0  0
  6 17  2  0  0  0  0
  7  3  2  0  0  0  0
  8 12  1  0  0  0  0
  8 23  1  1  0  0  0
  9  1  1  0  0  0  0
 10 18  1  0  0  0  0
 11  4  1  0  0  0  0
 13  8  1  0  0  0  0
 14  1  2  0  0  0  0
 14  5  1  0  0  0  0
 15  4  2  0  0  0  0
 15 20  1  0  0  0  0
 16 17  1  0  0  0  0
 16 12  1  0  0  0  0
 18 13  2  0  0  0  0
 19  3  1  0  0  0  0
 19 10  2  0  0  0  0
 20 19  1  0  0  0  0
 22 21  2  0  0  0  0
 23 22  1  0  0  0  0
 24 27  1  6  0  0  0
 24 31  1  0  0  0  0
 25 30  1  0  0  0  0
 28 24  1  0  0  0  0
 28 25  1  0  0  0  0
 29 26  1  0  0  0  0
 30 22  1  6  0  0  0
 30 29  1  0  0  0  0
 31 29  1  0  0  0  0
M  END
>  <MODEL>
2

>  <REMARK>
 VINA RESULT:      -5.7      2.166      3.498
  Name = 
  2 active torsions:
  status: ('A' for Active; 'I' for Inactive)
    1  A    between atoms: C_5  and  C_30
    2  A    between atoms: C_10  and  N_16
                            x       y       z     vdW  Elec       q    Type
                         _______ _______ _______ _____ _____    ______ ____

>  <TORSDO>
F 2

$$$$
=
 OpenBabel11122413063D

 31 35  0  0  1  0  0  0  0  0999 V2000
  161.2990  205.3070  152.3100 C   0  0  0  0  0  0  0  0  0  0  0  0
  160.8560  209.0350  152.6330 N   0  0  0  0  0  0  0  0  0  0  0  0
  160.2450  209.1550  153.9750 C   0  0  1  0  0  3  0  0  0  0  0  0
  160.9180  208.7080  156.2680 C   0  0  0  0  0  0  0  0  0  0  0  0
  161.1850  207.7310  152.0970 C   0  0  0  0  0  0  0  0  0  0  0  0
  161.9350  205.2220  151.0700 C   0  0  0  0  0  3  0  0  0  0  0  0
  161.0100  208.4290  154.9980 N   0  0  0  0  0  0  0  0  0  0  0  0
  161.3050  210.0450  150.3030 C   0  0  1  0  0  3  0  0  0  0  0  0
  161.0510  204.1820  153.0230 F   0  0  0  0  0  0  0  0  0  0  0  0
  160.0740  211.5990  153.5690 C   0  0  0  0  0  3  0  0  0  0  0  0
  161.6480  207.8770  157.2590 C   0  0  0  0  0  1  0  0  0  0  0  0
  162.0260  208.8010  150.0600 N   0  0  0  0  0  2  0  0  0  0  0  0
  160.9100  210.1900  151.7540 C   0  0  0  0  0  0  0  0  0  0  0  0
  160.9300  206.5540  152.8210 C   0  0  0  0  0  3  0  0  0  0  0  0
  160.1730  209.9020  156.7260 C   0  0  0  0  0  3  0  0  0  0  0  0
  161.7950  207.6280  150.8350 C   0  0  0  0  0  0  0  0  0  0  0  0
  162.1820  206.3820  150.3330 C   0  0  0  0  0  3  0  0  0  0  0  0
  160.4910  211.3860  152.1820 C   0  0  0  0  0  3  0  0  0  0  0  0
  160.0080  210.5800  154.4180 C   0  0  0  0  0  0  0  0  0  0  0  0
  159.7510  210.8110  155.8440 C   0  0  0  0  0  3  0  0  0  0  0  0
  160.7240  211.7910  148.1140 O   0  0  0  0  0  0  0  0  0  0  0  0
  161.7800  212.0050  148.7660 C   0  0  0  0  0  0  0  0  0  0  0  0
  162.1260  211.1690  149.8750 N   0  0  0  0  0  2  0  0  0  0  0  0
  161.8340  214.3050  145.9520 C   0  0  1  0  0  3  0  0  0  0  0  0
  161.8660  214.4530  148.2160 C   0  0  0  0  0  2  0  0  0  0  0  0
  164.1180  211.6220  147.1660 C   0  0  0  0  0  1  0  0  0  0  0  0
  161.0070  214.3840  144.7620 N   0  0  0  0  0  1  0  0  0  0  0  0
  161.0160  214.3800  147.0950 O   0  0  0  0  0  0  0  0  0  0  0  0
  163.4580  212.9200  147.1350 N   0  0  0  0  0  0  0  0  0  0  0  0
  162.6730  213.1540  148.3650 C   0  0  2  0  0  3  0  0  0  0  0  0
  162.6050  212.9830  145.9480 C   0  0  0  0  0  2  0  0  0  0  0  0
  1 14  1  0  0  0  0
  1  9  1  0  0  0  0
  2  3  1  0  0  0  0
  3 19  1  1  0  0  0
  3  7  1  0  0  0  0
  4 15  1  0  0  0  0
  4 11  1  0  0  0  0
  5  2  1  0  0  0  0
  5 14  2  0  0  0  0
  6  1  2  0  0  0  0
  7  4  2  0  0  0  0
  8 23  1  1  0  0  0
  8 13  1  0  0  0  0
 10 19  2  0  0  0  0
 12  8  1  0  0  0  0
 12 16  1  0  0  0  0
 13 18  2  0  0  0  0
 13  2  1  0  0  0  0
 16  5  1  0  0  0  0
 17 16  2  0  0  0  0
 17  6  1  0  0  0  0
 18 10  1  0  0  0  0
 19 20  1  0  0  0  0
 20 15  2  0  0  0  0
 21 22  2  0  0  0  0
 22 23  1  0  0  0  0
 24 27  1  6  0  0  0
 24 28  1  0  0  0  0
 25 30  1  0  0  0  0
 28 25  1  0  0  0  0
 29 26  1  0  0  0  0
 29 30  1  0  0  0  0
 30 22  1  6  0  0  0
 31 24  1  0  0  0  0
 31 29  1  0  0  0  0
M  END
>  <MODEL>
3

>  <REMARK>
 VINA RESULT:      -5.4      4.353      8.169
  Name = 
  2 active torsions:
  status: ('A' for Active; 'I' for Inactive)
    1  A    between atoms: C_5  and  C_30
    2  A    between atoms: C_10  and  N_16
                            x       y       z     vdW  Elec       q    Type
                         _______ _______ _______ _____ _____    ______ ____

>  <TORSDO>
F 2

$$$$
=
 OpenBabel11122413063D

 31 35  0  0  1  0  0  0  0  0999 V2000
  161.0320  205.6110  153.7380 C   0  0  0  0  0  0  0  0  0  0  0  0
  161.5000  208.6820  151.6060 N   0  0  0  0  0  0  0  0  0  0  0  0
  162.0320  208.1040  150.3510 C   0  0  0  0  0  0  0  0  0  0  0  0
  161.2180  206.6190  148.6070 C   0  0  0  0  0  0  0  0  0  0  0  0
  161.1870  207.8220  152.7280 C   0  0  0  0  0  0  0  0  0  0  0  0
  160.4690  206.1690  154.8870 C   0  0  0  0  0  3  0  0  0  0  0  0
  161.1990  207.0010  149.8530 N   0  0  0  0  0  0  0  0  0  0  0  0
  161.2020  210.7200  153.1570 C   0  0  1  0  0  3  0  0  0  0  0  0
  161.2230  204.2720  153.6590 F   0  0  0  0  0  0  0  0  0  0  0  0
  162.2560  210.4250  149.4960 C   0  0  0  0  0  3  0  0  0  0  0  0
  160.4210  205.4390  148.1870 C   0  0  0  0  0  1  0  0  0  0  0  0
  160.4810  209.7840  154.0120 N   0  0  0  0  0  2  0  0  0  0  0  0
  161.5120  210.1200  151.8060 C   0  0  0  0  0  0  0  0  0  0  0  0
  161.3850  206.4310  152.6650 C   0  0  0  0  0  3  0  0  0  0  0  0
  161.9500  207.4050  147.5880 C   0  0  0  0  0  3  0  0  0  0  0  0
  160.6520  208.3730  153.9040 C   0  0  0  0  0  0  0  0  0  0  0  0
  160.2800  207.5500  154.9700 C   0  0  0  0  0  3  0  0  0  0  0  0
  161.9190  210.9350  150.8260 C   0  0  0  0  0  3  0  0  0  0  0  0
  162.2580  209.1200  149.2560 C   0  0  0  0  0  0  0  0  0  0  0  0
  162.4340  208.6120  147.8900 C   0  0  0  0  0  2  0  0  0  0  0  0
  159.5650  211.8960  155.1870 O   0  0  0  0  0  0  0  0  0  0  0  0
  159.6180  212.4770  154.0710 C   0  0  0  0  0  0  0  0  0  0  0  0
  160.4210  211.9410  153.0140 N   0  0  0  0  0  2  0  0  0  0  0  0
  156.4230  213.6940  155.3050 C   0  0  1  0  0  3  0  0  0  0  0  0
  158.5590  214.4530  155.2010 C   0  0  0  0  0  2  0  0  0  0  0  0
  157.7290  212.7540  151.9420 C   0  0  0  0  0  1  0  0  0  0  0  0
  155.4170  213.0690  156.1430 N   0  0  0  0  0  1  0  0  0  0  0  0
  157.6560  213.7060  155.9830 O   0  0  0  0  0  0  0  0  0  0  0  0
  157.5480  213.5580  153.1430 N   0  0  0  0  0  0  0  0  0  0  0  0
  158.8260  213.7450  153.8630 C   0  0  2  0  0  3  0  0  0  0  0  0
  156.5540  212.9090  153.9980 C   0  0  0  0  0  2  0  0  0  0  0  0
  1  6  1  0  0  0  0
  2 13  1  0  0  0  0
  2  5  1  0  0  0  0
  3  2  1  0  0  0  0
  4  7  1  0  0  0  0
  5 16  2  0  0  0  0
  6 17  2  0  0  0  0
  7  3  2  0  0  0  0
  8 23  1  6  0  0  0
  8 12  1  0  0  0  0
  9  1  1  0  0  0  0
 10 18  1  0  0  0  0
 11  4  1  0  0  0  0
 13  8  1  0  0  0  0
 14  5  1  0  0  0  0
 14  1  2  0  0  0  0
 15 20  1  0  0  0  0
 15  4  2  0  0  0  0
 16 12  1  0  0  0  0
 16 17  1  0  0  0  0
 18 13  2  0  0  0  0
 19 10  2  0  0  0  0
 19  3  1  0  0  0  0
 20 19  1  0  0  0  0
 22 21  2  0  0  0  0
 23 22  1  0  0  0  0
 24 28  1  0  0  0  0
 24 27  1  1  0  0  0
 25 28  1  0  0  0  0
 26 29  1  0  0  0  0
 29 30  1  0  0  0  0
 29 31  1  0  0  0  0
 30 22  1  1  0  0  0
 30 25  1  0  0  0  0
 31 24  1  0  0  0  0
M  END
>  <MODEL>
4

>  <REMARK>
 VINA RESULT:      -5.0      3.543      5.584
  Name = 
  2 active torsions:
  status: ('A' for Active; 'I' for Inactive)
    1  A    between atoms: C_5  and  C_30
    2  A    between atoms: C_10  and  N_16
                            x       y       z     vdW  Elec       q    Type
                         _______ _______ _______ _____ _____    ______ ____

>  <TORSDO>
F 2

$$$$
