=
 OpenBabel11122414403D

 34 40  0  0  1  0  0  0  0  0999 V2000
  161.2190  207.9350  154.2400 N   0  0  1  0  0  0  0  0  0  0  0  0
  162.3490  206.1130  152.9170 C   0  0  0  0  0  2  0  0  0  0  0  0
  157.1530  212.9860  154.0520 C   0  0  1  0  0  3  0  0  0  0  0  0
  159.8520  209.6520  155.3670 C   0  0  2  0  0  3  0  0  0  0  0  0
  159.5060  211.8270  154.1580 C   0  0  2  0  0  3  0  0  0  0  0  0
  159.0890  213.9220  152.7330 C   0  0  0  0  0  1  0  0  0  0  0  0
  156.6710  211.8520  153.3920 O   0  0  0  0  0  1  0  0  0  0  0  0
  156.9500  211.7780  156.3160 C   0  0  0  0  0  2  0  0  0  0  0  0
  162.1600  208.2940  152.0710 C   0  0  2  0  0  3  0  0  0  0  0  0
  161.5930  208.8520  148.9770 C   0  0  0  0  0  2  0  0  0  0  0  0
  159.8280  211.0920  152.8580 C   0  0  0  0  0  2  0  0  0  0  0  0
  158.4350  211.4590  156.4260 C   0  0  0  0  0  2  0  0  0  0  0  0
  161.2330  209.4800  151.8140 C   0  0  1  0  0  3  0  0  0  0  0  0
  162.8320  206.0550  151.4670 C   0  0  0  0  0  2  0  0  0  0  0  0
  158.8890  210.8140  155.1270 C   0  0  2  0  0  3  0  0  0  0  0  0
  156.6790  213.0470  155.5060 C   0  0  0  0  0  2  0  0  0  0  0  0
  161.7170  207.4790  149.6680 C   0  0  1  0  0  3  0  0  0  0  0  0
  160.2730  209.0480  154.0060 C   0  0  1  0  0  3  0  0  0  0  0  0
  158.6760  213.1150  153.9540 C   0  0  1  0  0  3  0  0  0  0  0  0
  160.8590  210.0820  153.1110 N   0  0  2  0  0  0  0  0  0  0  0  0
  160.1590  207.6620  156.4200 C   0  0  0  0  0  2  0  0  0  0  0  0
  162.4670  209.9510  149.5880 C   0  0  0  0  0  2  0  0  0  0  0  0
  159.2100  208.6620  156.1380 O   0  0  0  0  0  0  0  0  0  0  0  0
  161.8990  210.5210  150.8950 C   0  0  0  0  0  2  0  0  0  0  0  0
  162.6590  207.4640  150.8930 C   0  0  1  0  0  3  0  0  0  0  0  0
  160.5700  206.9640  155.1230 C   0  0  0  0  0  2  0  0  0  0  0  0
  161.4320  207.3160  152.9360 C   0  0  2  0  0  3  0  0  0  0  0  0
  160.4430  207.0090  150.0030 O   0  0  0  0  0  0  0  0  0  0  0  0
  160.0550  206.2040  148.9290 C   0  0  0  0  0  2  0  0  0  0  0  0
  161.1430  202.9010  148.2090 C   0  0  0  0  0  2  0  0  0  0  0  0
  161.2520  205.0120  147.1170 C   0  0  0  0  0  2  0  0  0  0  0  0
  161.1590  205.2110  148.6080 C   0  0  2  0  0  3  0  0  0  0  0  0
  161.6870  203.5830  146.9750 C   0  0  0  0  0  2  0  0  0  0  0  0
  160.8720  203.9190  149.2190 N   0  0  0  0  0  2  0  0  0  0  0  0
  1 26  1  1  0  0  0
  2 27  1  0  0  0  0
  3  7  1  1  0  0  0
  3 16  1  0  0  0  0
  4 23  1  1  0  0  0
  5 11  1  6  0  0  0
  5 15  1  0  0  0  0
  6 19  1  0  0  0  0
  8 12  1  0  0  0  0
  9 27  1  0  0  0  0
 10 22  1  0  0  0  0
 10 17  1  0  0  0  0
 11 20  1  0  0  0  0
 13  9  1  0  0  0  0
 13 20  1  0  0  0  0
 14  2  1  0  0  0  0
 15  4  1  0  0  0  0
 15 12  1  0  0  0  0
 16  8  1  0  0  0  0
 17 28  1  0  0  0  0
 17 25  1  0  0  0  0
 18  1  1  0  0  0  0
 18  4  1  0  0  0  0
 19  3  1  0  0  0  0
 19  5  1  0  0  0  0
 20 18  1  0  0  0  0
 22 24  1  0  0  0  0
 23 21  1  0  0  0  0
 24 13  1  0  0  0  0
 25 14  1  0  0  0  0
 25  9  1  0  0  0  0
 26 21  1  0  0  0  0
 27  1  1  0  0  0  0
 29 28  1  0  0  0  0
 30 34  1  0  0  0  0
 31 32  1  0  0  0  0
 32 29  1  0  0  0  0
 32 34  1  0  0  0  0
 33 31  1  0  0  0  0
 33 30  1  0  0  0  0
M  END
>  <MODEL>
1

>  <REMARK>
 VINA RESULT:      -7.1      0.000      0.000
  Name = 
  3 active torsions:
  status: ('A' for Active; 'I' for Inactive)
    1  A    between atoms: C_17  and  O_28
    2  A    between atoms: O_28  and  C_29
    3  A    between atoms: C_29  and  C_32
                            x       y       z     vdW  Elec       q    Type
                         _______ _______ _______ _____ _____    ______ ____

>  <TORSDO>
F 3

$$$$
=
 OpenBabel11122414403D

 34 40  0  0  1  0  0  0  0  0999 V2000
  161.8680  210.1060  152.3080 N   0  0  1  0  0  0  0  0  0  0  0  0
  161.2330  211.7440  154.1130 C   0  0  0  0  0  2  0  0  0  0  0  0
  160.6560  204.3270  149.6200 C   0  0  1  0  0  3  0  0  0  0  0  0
  162.1780  208.4550  150.5000 C   0  0  2  0  0  3  0  0  0  0  0  0
  161.9900  206.0260  151.1130 C   0  0  2  0  0  3  0  0  0  0  0  0
  161.5940  203.5970  151.8450 C   0  0  0  0  0  1  0  0  0  0  0  0
  159.5090  205.0910  149.8500 O   0  0  0  0  0  1  0  0  0  0  0  0
  161.4280  205.9920  147.8150 C   0  0  0  0  0  2  0  0  0  0  0  0
  161.3760  209.4430  154.5520 C   0  0  2  0  0  3  0  0  0  0  0  0
  159.3230  207.9740  156.5110 C   0  0  0  0  0  2  0  0  0  0  0  0
  161.1800  206.4530  152.3350 C   0  0  0  0  0  2  0  0  0  0  0  0
  162.4440  206.6910  148.7080 C   0  0  0  0  0  2  0  0  0  0  0  0
  160.9850  208.0380  154.1000 C   0  0  1  0  0  3  0  0  0  0  0  0
  160.6930  211.5420  155.5290 C   0  0  0  0  0  2  0  0  0  0  0  0
  161.7620  207.0680  150.0130 C   0  0  2  0  0  3  0  0  0  0  0  0
  161.2060  204.5300  148.2060 C   0  0  0  0  0  2  0  0  0  0  0  0
  159.3310  209.4660  156.1170 C   0  0  1  0  0  3  0  0  0  0  0  0
  161.4500  208.7700  151.8290 C   0  0  1  0  0  3  0  0  0  0  0  0
  161.7360  204.5640  150.6800 C   0  0  1  0  0  3  0  0  0  0  0  0
  161.7080  207.7200  152.8510 N   0  0  2  0  0  0  0  0  0  0  0  0
  162.3100  210.6620  149.9740 C   0  0  0  0  0  2  0  0  0  0  0  0
  160.7110  207.3280  156.5750 C   0  0  0  0  0  2  0  0  0  0  0  0
  161.8220  209.4170  149.5340 O   0  0  0  0  0  0  0  0  0  0  0  0
  161.2880  206.9940  155.1930 C   0  0  0  0  0  2  0  0  0  0  0  0
  160.7330  210.0350  155.8010 C   0  0  1  0  0  3  0  0  0  0  0  0
  161.5790  211.0780  151.2510 C   0  0  0  0  0  2  0  0  0  0  0  0
  161.0190  210.3970  153.4580 C   0  0  2  0  0  3  0  0  0  0  0  0
  158.4490  209.6720  155.0520 O   0  0  0  0  0  0  0  0  0  0  0  0
  157.3490  210.3280  155.6090 C   0  0  0  0  0  2  0  0  0  0  0  0
  157.8110  213.6430  154.4210 C   0  0  0  0  0  2  0  0  0  0  0  0
  157.7470  211.4730  153.4480 C   0  0  0  0  0  2  0  0  0  0  0  0
  156.9380  211.4880  154.7180 C   0  0  2  0  0  3  0  0  0  0  0  0
  157.8810  212.9240  153.0930 C   0  0  0  0  0  2  0  0  0  0  0  0
  157.1800  212.7570  155.3940 N   0  0  0  0  0  2  0  0  0  0  0  0
  1 26  1  6  0  0  0
  1 27  1  0  0  0  0
  2 14  1  0  0  0  0
  3  7  1  1  0  0  0
  3 19  1  0  0  0  0
  4 23  1  6  0  0  0
  4 18  1  0  0  0  0
  5 11  1  1  0  0  0
  8 16  1  0  0  0  0
  8 12  1  0  0  0  0
  9 25  1  0  0  0  0
 10 22  1  0  0  0  0
 11 20  1  0  0  0  0
 12 15  1  0  0  0  0
 13  9  1  0  0  0  0
 13 24  1  0  0  0  0
 14 25  1  0  0  0  0
 15  4  1  0  0  0  0
 15  5  1  0  0  0  0
 16  3  1  0  0  0  0
 17 10  1  0  0  0  0
 18  1  1  0  0  0  0
 18 20  1  0  0  0  0
 19  5  1  0  0  0  0
 19  6  1  0  0  0  0
 20 13  1  0  0  0  0
 21 26  1  0  0  0  0
 23 21  1  0  0  0  0
 24 22  1  0  0  0  0
 25 17  1  0  0  0  0
 27  2  1  0  0  0  0
 27  9  1  0  0  0  0
 28 29  1  0  0  0  0
 28 17  1  0  0  0  0
 30 34  1  0  0  0  0
 31 32  1  0  0  0  0
 32 34  1  0  0  0  0
 32 29  1  0  0  0  0
 33 31  1  0  0  0  0
 33 30  1  0  0  0  0
M  END
>  <MODEL>
2

>  <REMARK>
 VINA RESULT:      -5.4      1.685      7.934
  Name = 
  3 active torsions:
  status: ('A' for Active; 'I' for Inactive)
    1  A    between atoms: C_17  and  O_28
    2  A    between atoms: O_28  and  C_29
    3  A    between atoms: C_29  and  C_32
                            x       y       z     vdW  Elec       q    Type
                         _______ _______ _______ _____ _____    ______ ____

>  <TORSDO>
F 3

$$$$
