=
 OpenBabel11122413163D

 31 35  0  0  1  0  0  0  0  0999 V2000
  160.8730  202.1350  150.8000 C   0  0  0  0  0  0  0  0  0  0  0  0
  161.2550  205.5530  149.2660 C   0  0  0  0  0  0  0  0  0  0  0  0
  161.3390  205.3760  147.8530 C   0  0  0  0  0  0  0  0  0  0  0  0
  161.1180  208.0540  153.9110 O   0  0  0  0  0  0  0  0  0  0  0  0
  161.2630  208.8970  152.9860 C   0  0  0  0  0  0  0  0  0  0  0  0
  161.3670  203.9910  145.8420 C   0  0  0  0  0  0  0  0  0  0  0  0
  161.1030  204.4950  150.2120 C   0  0  0  0  0  0  0  0  0  0  0  0
  160.8060  202.4660  152.1530 C   0  0  0  0  0  3  0  0  0  0  0  0
  161.2810  204.1170  147.2300 C   0  0  0  0  0  3  0  0  0  0  0  0
  161.2510  207.1320  151.1360 C   0  0  0  0  0  0  0  0  0  0  0  0
  160.7950  200.8400  150.4140 F   0  0  0  0  0  0  0  0  0  0  0  0
  161.5490  207.7500  147.5850 N   0  0  0  0  0  0  0  0  0  0  0  0
  161.3070  202.7350  145.2540 O   0  0  0  0  0  1  0  0  0  0  0  0
  161.1080  206.1000  152.0050 N   0  0  0  0  0  0  0  0  0  0  0  0
  161.3280  206.8820  149.7610 C   0  0  0  0  0  0  0  0  0  0  0  0
  161.3280  208.4830  151.6140 N   0  0  0  0  0  2  0  0  0  0  0  0
  161.0210  203.1410  149.8420 C   0  0  0  0  0  3  0  0  0  0  0  0
  161.5150  205.1280  145.0470 C   0  0  0  0  0  3  0  0  0  0  0  0
  161.0340  204.8120  151.5920 C   0  0  0  0  0  0  0  0  0  0  0  0
  160.8850  203.8020  152.5470 C   0  0  0  0  0  3  0  0  0  0  0  0
  161.4710  207.9240  148.9010 N   0  0  0  0  0  0  0  0  0  0  0  0
  161.4880  206.5180  147.0290 C   0  0  0  0  0  0  0  0  0  0  0  0
  161.5740  206.3880  145.6400 C   0  0  0  0  0  3  0  0  0  0  0  0
  160.3420  210.9280  156.0520 C   0  0  1  0  0  3  0  0  0  0  0  0
  162.3050  210.5910  154.5230 C   0  0  0  0  0  2  0  0  0  0  0  0
  159.1160  210.7490  152.5290 O   0  0  0  0  0  1  0  0  0  0  0  0
  159.7690  210.5350  157.2600 O   0  0  0  0  0  1  0  0  0  0  0  0
  161.6600  210.1870  155.8500 C   0  0  0  0  0  2  0  0  0  0  0  0
  159.9980  211.0270  153.5750 C   0  0  2  0  0  3  0  0  0  0  0  0
  161.3600  210.3530  153.3400 C   0  0  2  0  0  3  0  0  0  0  0  0
  159.3800  210.6150  154.9100 C   0  0  0  0  0  2  0  0  0  0  0  0
  1  8  1  0  0  0  0
  2 15  1  0  0  0  0
  2  7  1  0  0  0  0
  3  2  2  0  0  0  0
  5  4  2  0  0  0  0
  6  9  2  0  0  0  0
  7 19  2  0  0  0  0
  8 20  2  0  0  0  0
  9  3  1  0  0  0  0
 10 16  1  0  0  0  0
 10 14  2  0  0  0  0
 11  1  1  0  0  0  0
 12 21  1  0  0  0  0
 13  6  1  0  0  0  0
 15 10  1  0  0  0  0
 16  5  1  0  0  0  0
 17  7  1  0  0  0  0
 17  1  2  0  0  0  0
 18 23  2  0  0  0  0
 18  6  1  0  0  0  0
 19 14  1  0  0  0  0
 19 20  1  0  0  0  0
 21 15  2  0  0  0  0
 22 12  2  0  0  0  0
 22  3  1  0  0  0  0
 23 22  1  0  0  0  0
 24 27  1  1  0  0  0
 25 28  1  0  0  0  0
 28 24  1  0  0  0  0
 29 26  1  6  0  0  0
 29 31  1  0  0  0  0
 30  5  1  1  0  0  0
 30 29  1  0  0  0  0
 30 25  1  0  0  0  0
 31 24  1  0  0  0  0
M  END
>  <MODEL>
1

>  <REMARK>
 VINA RESULT:     -10.8      0.000      0.000
  Name = 
  1 active torsions:
  status: ('A' for Active; 'I' for Inactive)
    1  A    between atoms: C_5  and  C_30
                            x       y       z     vdW  Elec       q    Type
                         _______ _______ _______ _____ _____    ______ ____

>  <TORSDO>
F 1

$$$$
=
 OpenBabel11122413163D

 31 35  0  0  1  0  0  0  0  0999 V2000
  160.8740  202.0440  150.7340 C   0  0  0  0  0  0  0  0  0  0  0  0
  161.2330  205.4900  149.2570 C   0  0  0  0  0  0  0  0  0  0  0  0
  161.2800  205.3400  147.8400 C   0  0  0  0  0  0  0  0  0  0  0  0
  161.2270  207.8990  153.9520 O   0  0  0  0  0  0  0  0  0  0  0  0
  161.3530  208.7600  153.0400 C   0  0  0  0  0  0  0  0  0  0  0  0
  161.2500  203.9950  145.8020 C   0  0  0  0  0  0  0  0  0  0  0  0
  161.1010  204.4140  150.1860 C   0  0  0  0  0  0  0  0  0  0  0  0
  160.8430  202.3480  152.0940 C   0  0  0  0  0  3  0  0  0  0  0  0
  161.2000  204.0940  147.1930 C   0  0  0  0  0  3  0  0  0  0  0  0
  161.2850  207.0320  151.1570 C   0  0  0  0  0  0  0  0  0  0  0  0
  160.7800  200.7570  150.3240 F   0  0  0  0  0  0  0  0  0  0  0  0
  161.4950  207.7180  147.6120 N   0  0  0  0  0  0  0  0  0  0  0  0
  161.1690  202.7510  145.1910 O   0  0  0  0  0  1  0  0  0  0  0  0
  161.1590  205.9840  152.0100 N   0  0  0  0  0  0  0  0  0  0  0  0
  161.3250  206.8080  149.7760 C   0  0  0  0  0  0  0  0  0  0  0  0
  161.3800  208.3720  151.6600 N   0  0  0  0  0  2  0  0  0  0  0  0
  161.0020  203.0680  149.7910 C   0  0  0  0  0  3  0  0  0  0  0  0
  161.3830  205.1460  145.0250 C   0  0  0  0  0  3  0  0  0  0  0  0
  161.0680  204.7040  151.5730 C   0  0  0  0  0  0  0  0  0  0  0  0
  160.9390  203.6760  152.5120 C   0  0  0  0  0  3  0  0  0  0  0  0
  161.4520  207.8660  148.9330 N   0  0  0  0  0  0  0  0  0  0  0  0
  161.4140  206.4970  147.0340 C   0  0  0  0  0  0  0  0  0  0  0  0
  161.4640  206.3950  145.6410 C   0  0  0  0  0  3  0  0  0  0  0  0
  158.8640  211.3910  154.1610 C   0  0  1  0  0  3  0  0  0  0  0  0
  161.0760  210.4480  154.8830 C   0  0  0  0  0  2  0  0  0  0  0  0
  161.0070  210.8900  151.1460 O   0  0  0  0  0  1  0  0  0  0  0  0
  157.4860  211.3110  154.3500 O   0  0  0  0  0  1  0  0  0  0  0  0
  159.5610  210.3900  155.0790 C   0  0  0  0  0  2  0  0  0  0  0  0
  160.7040  211.1580  152.4810 C   0  0  2  0  0  3  0  0  0  0  0  0
  161.4660  210.2080  153.4200 C   0  0  2  0  0  3  0  0  0  0  0  0
  159.1940  211.0890  152.7030 C   0  0  0  0  0  2  0  0  0  0  0  0
  1  8  1  0  0  0  0
  2 15  1  0  0  0  0
  2  7  1  0  0  0  0
  3  2  2  0  0  0  0
  5  4  2  0  0  0  0
  6  9  2  0  0  0  0
  7 19  2  0  0  0  0
  8 20  2  0  0  0  0
  9  3  1  0  0  0  0
 10 16  1  0  0  0  0
 10 14  2  0  0  0  0
 11  1  1  0  0  0  0
 12 21  1  0  0  0  0
 13  6  1  0  0  0  0
 15 10  1  0  0  0  0
 16  5  1  0  0  0  0
 17  7  1  0  0  0  0
 17  1  2  0  0  0  0
 18 23  2  0  0  0  0
 18  6  1  0  0  0  0
 19 14  1  0  0  0  0
 19 20  1  0  0  0  0
 21 15  2  0  0  0  0
 22 12  2  0  0  0  0
 22  3  1  0  0  0  0
 23 22  1  0  0  0  0
 24 27  1  6  0  0  0
 24 28  1  0  0  0  0
 25 28  1  0  0  0  0
 29 26  1  6  0  0  0
 29 31  1  0  0  0  0
 29 30  1  0  0  0  0
 30  5  1  6  0  0  0
 30 25  1  0  0  0  0
 31 24  1  0  0  0  0
M  END
>  <MODEL>
2

>  <REMARK>
 VINA RESULT:     -10.7      0.925      1.131
  Name = 
  1 active torsions:
  status: ('A' for Active; 'I' for Inactive)
    1  A    between atoms: C_5  and  C_30
                            x       y       z     vdW  Elec       q    Type
                         _______ _______ _______ _____ _____    ______ ____

>  <TORSDO>
F 1

$$$$
=
 OpenBabel11122413163D

 31 35  0  0  1  0  0  0  0  0999 V2000
  161.1710  204.6480  152.4000 C   0  0  0  0  0  0  0  0  0  0  0  0
  161.4140  205.7130  148.7960 C   0  0  0  0  0  0  0  0  0  0  0  0
  161.3400  204.5320  148.0000 C   0  0  0  0  0  0  0  0  0  0  0  0
  161.8100  210.8440  149.9600 O   0  0  0  0  0  0  0  0  0  0  0  0
  161.8610  210.6940  148.7110 C   0  0  0  0  0  0  0  0  0  0  0  0
  161.1350  202.1140  147.7260 C   0  0  0  0  0  0  0  0  0  0  0  0
  161.3570  205.7390  150.2220 C   0  0  0  0  0  0  0  0  0  0  0  0
  161.2550  205.8830  153.0410 C   0  0  0  0  0  3  0  0  0  0  0  0
  161.2030  203.2430  148.5450 C   0  0  0  0  0  3  0  0  0  0  0  0
  161.6300  208.1510  148.8310 C   0  0  0  0  0  0  0  0  0  0  0  0
  161.0390  203.5140  153.1290 F   0  0  0  0  0  0  0  0  0  0  0  0
  161.5410  205.8730  146.0230 N   0  0  0  0  0  0  0  0  0  0  0  0
  160.9990  200.8540  148.2920 O   0  0  0  0  0  1  0  0  0  0  0  0
  161.5740  208.1350  150.1860 N   0  0  0  0  0  0  0  0  0  0  0  0
  161.5520  206.9500  148.1150 C   0  0  0  0  0  0  0  0  0  0  0  0
  161.7710  209.3890  148.1210 N   0  0  0  0  0  2  0  0  0  0  0  0
  161.2220  204.5780  151.0060 C   0  0  0  0  0  3  0  0  0  0  0  0
  161.2050  202.2530  146.3400 C   0  0  0  0  0  3  0  0  0  0  0  0
  161.4420  206.9860  150.8910 C   0  0  0  0  0  0  0  0  0  0  0  0
  161.3900  207.0500  152.2870 C   0  0  0  0  0  3  0  0  0  0  0  0
  161.6100  206.9790  146.7570 N   0  0  0  0  0  0  0  0  0  0  0  0
  161.4090  204.6530  146.5910 C   0  0  0  0  0  0  0  0  0  0  0  0
  161.3410  203.5200  145.7740 C   0  0  0  0  0  3  0  0  0  0  0  0
  159.9870  213.9770  148.4260 C   0  0  1  0  0  3  0  0  0  0  0  0
  162.3500  213.1590  148.6550 C   0  0  0  0  0  2  0  0  0  0  0  0
  160.4550  210.9980  146.2250 O   0  0  0  0  0  1  0  0  0  0  0  0
  158.8820  214.4530  149.1290 O   0  0  0  0  0  1  0  0  0  0  0  0
  161.1260  213.6950  149.4010 C   0  0  0  0  0  2  0  0  0  0  0  0
  160.8070  212.1590  146.9140 C   0  0  2  0  0  3  0  0  0  0  0  0
  162.0100  211.9080  147.8390 C   0  0  2  0  0  3  0  0  0  0  0  0
  159.6030  212.7030  147.6800 C   0  0  0  0  0  2  0  0  0  0  0  0
  1  8  1  0  0  0  0
  1 11  1  0  0  0  0
  2  7  1  0  0  0  0
  3  9  1  0  0  0  0
  3  2  2  0  0  0  0
  5  4  2  0  0  0  0
  6 13  1  0  0  0  0
  6  9  2  0  0  0  0
  7 19  2  0  0  0  0
  7 17  1  0  0  0  0
 10 14  2  0  0  0  0
 12 22  2  0  0  0  0
 12 21  1  0  0  0  0
 14 19  1  0  0  0  0
 15  2  1  0  0  0  0
 15 10  1  0  0  0  0
 16  5  1  0  0  0  0
 16 10  1  0  0  0  0
 17  1  2  0  0  0  0
 18  6  1  0  0  0  0
 19 20  1  0  0  0  0
 20  8  2  0  0  0  0
 21 15  2  0  0  0  0
 22  3  1  0  0  0  0
 23 18  2  0  0  0  0
 23 22  1  0  0  0  0
 24 27  1  1  0  0  0
 24 28  1  0  0  0  0
 25 28  1  0  0  0  0
 29 26  1  1  0  0  0
 29 31  1  0  0  0  0
 29 30  1  0  0  0  0
 30 25  1  0  0  0  0
 30  5  1  1  0  0  0
 31 24  1  0  0  0  0
M  END
>  <MODEL>
3

>  <REMARK>
 VINA RESULT:     -10.1      3.357      4.447
  Name = 
  1 active torsions:
  status: ('A' for Active; 'I' for Inactive)
    1  A    between atoms: C_5  and  C_30
                            x       y       z     vdW  Elec       q    Type
                         _______ _______ _______ _____ _____    ______ ____

>  <TORSDO>
F 1

$$$$
=
 OpenBabel11122413163D

 31 35  0  0  1  0  0  0  0  0999 V2000
  161.6490  206.8710  147.1690 C   0  0  0  0  0  0  0  0  0  0  0  0
  161.2220  205.1710  150.5030 C   0  0  0  0  0  0  0  0  0  0  0  0
  161.0900  203.7740  150.2510 C   0  0  0  0  0  0  0  0  0  0  0  0
  161.5220  209.6690  153.2450 O   0  0  0  0  0  0  0  0  0  0  0  0
  161.3470  208.7070  154.0380 C   0  0  0  0  0  0  0  0  0  0  0  0
  160.9910  201.8410  148.7620 C   0  0  0  0  0  0  0  0  0  0  0  0
  161.4030  206.1660  149.4960 C   0  0  0  0  0  0  0  0  0  0  0  0
  161.7630  208.2010  147.5710 C   0  0  0  0  0  3  0  0  0  0  0  0
  161.1240  203.2160  148.9610 C   0  0  0  0  0  3  0  0  0  0  0  0
  161.2920  206.9540  152.1780 C   0  0  0  0  0  0  0  0  0  0  0  0
  161.7110  206.5520  145.8540 F   0  0  0  0  0  0  0  0  0  0  0  0
  160.8760  203.3870  152.6080 N   0  0  0  0  0  0  0  0  0  0  0  0
  161.0280  201.3190  147.4760 O   0  0  0  0  0  1  0  0  0  0  0  0
  161.4630  207.8710  151.1930 N   0  0  0  0  0  0  0  0  0  0  0  0
  161.1690  205.5970  151.8550 C   0  0  0  0  0  0  0  0  0  0  0  0
  161.2350  207.3620  153.5520 N   0  0  0  0  0  2  0  0  0  0  0  0
  161.4710  205.8660  148.1230 C   0  0  0  0  0  3  0  0  0  0  0  0
  160.8180  200.9920  149.8550 C   0  0  0  0  0  3  0  0  0  0  0  0
  161.5200  207.5250  149.8850 C   0  0  0  0  0  0  0  0  0  0  0  0
  161.6990  208.5270  148.9260 C   0  0  0  0  0  3  0  0  0  0  0  0
  160.9980  204.6880  152.8510 N   0  0  0  0  0  0  0  0  0  0  0  0
  160.9150  202.8960  151.3480 C   0  0  0  0  0  0  0  0  0  0  0  0
  160.7810  201.5190  151.1450 C   0  0  0  0  0  3  0  0  0  0  0  0
  159.5140  211.2830  156.1300 C   0  0  1  0  0  3  0  0  0  0  0  0
  159.8430  208.7950  156.0510 C   0  0  0  0  0  2  0  0  0  0  0  0
  163.0960  210.5600  155.3640 O   0  0  0  0  0  1  0  0  0  0  0  0
  158.6700  212.3240  155.7490 O   0  0  0  0  0  1  0  0  0  0  0  0
  158.9290  209.9560  155.6560 C   0  0  0  0  0  2  0  0  0  0  0  0
  161.8300  210.3590  155.9150 C   0  0  2  0  0  3  0  0  0  0  0  0
  161.2640  208.9860  155.5110 C   0  0  2  0  0  3  0  0  0  0  0  0
  160.8950  211.5000  155.5190 C   0  0  0  0  0  2  0  0  0  0  0  0
  1  8  2  0  0  0  0
  1 17  1  0  0  0  0
  2 15  1  0  0  0  0
  3  2  2  0  0  0  0
  3 22  1  0  0  0  0
  4  5  2  0  0  0  0
  6  9  2  0  0  0  0
  6 18  1  0  0  0  0
  7 19  1  0  0  0  0
  7  2  1  0  0  0  0
  8 20  1  0  0  0  0
  9  3  1  0  0  0  0
 10 16  1  0  0  0  0
 11  1  1  0  0  0  0
 12 21  1  0  0  0  0
 13  6  1  0  0  0  0
 14 10  2  0  0  0  0
 15 10  1  0  0  0  0
 15 21  2  0  0  0  0
 16  5  1  0  0  0  0
 17  7  2  0  0  0  0
 18 23  2  0  0  0  0
 19 14  1  0  0  0  0
 20 19  2  0  0  0  0
 22 12  2  0  0  0  0
 23 22  1  0  0  0  0
 24 27  1  6  0  0  0
 28 25  1  0  0  0  0
 28 24  1  0  0  0  0
 29 26  1  6  0  0  0
 30  5  1  6  0  0  0
 30 29  1  0  0  0  0
 30 25  1  0  0  0  0
 31 29  1  0  0  0  0
 31 24  1  0  0  0  0
M  END
>  <MODEL>
4

>  <REMARK>
 VINA RESULT:     -10.0      2.158      4.131
  Name = 
  1 active torsions:
  status: ('A' for Active; 'I' for Inactive)
    1  A    between atoms: C_5  and  C_30
                            x       y       z     vdW  Elec       q    Type
                         _______ _______ _______ _____ _____    ______ ____

>  <TORSDO>
F 1

$$$$
=
 OpenBabel11122413163D

 31 35  0  0  1  0  0  0  0  0999 V2000
  161.8580  206.8730  147.1980 C   0  0  0  0  0  0  0  0  0  0  0  0
  161.3020  205.7070  150.7360 C   0  0  0  0  0  0  0  0  0  0  0  0
  161.1540  204.2890  150.6960 C   0  0  0  0  0  0  0  0  0  0  0  0
  161.5970  210.5670  152.7700 O   0  0  0  0  0  0  0  0  0  0  0  0
  161.3820  209.7390  153.6950 C   0  0  0  0  0  0  0  0  0  0  0  0
  161.0660  202.1530  149.5150 C   0  0  0  0  0  0  0  0  0  0  0  0
  161.5310  206.5350  149.5950 C   0  0  0  0  0  0  0  0  0  0  0  0
  161.9830  208.2470  147.3960 C   0  0  0  0  0  3  0  0  0  0  0  0
  161.2170  203.5410  149.5070 C   0  0  0  0  0  3  0  0  0  0  0  0
  161.3530  207.7230  152.1220 C   0  0  0  0  0  0  0  0  0  0  0  0
  161.9540  206.3560  145.9500 F   0  0  0  0  0  0  0  0  0  0  0  0
  160.8620  204.2690  153.0760 N   0  0  0  0  0  0  0  0  0  0  0  0
  161.1330  201.4410  148.3260 O   0  0  0  0  0  1  0  0  0  0  0  0
  161.5680  208.4780  151.0150 N   0  0  0  0  0  0  0  0  0  0  0  0
  161.2160  206.3350  152.0050 C   0  0  0  0  0  0  0  0  0  0  0  0
  161.2610  208.3370  153.4150 N   0  0  0  0  0  2  0  0  0  0  0  0
  161.6340  206.0270  148.2870 C   0  0  0  0  0  3  0  0  0  0  0  0
  160.8460  201.4830  150.7180 C   0  0  0  0  0  3  0  0  0  0  0  0
  161.6590  207.9350  149.7770 C   0  0  0  0  0  0  0  0  0  0  0  0
  161.8840  208.7760  148.6830 C   0  0  0  0  0  3  0  0  0  0  0  0
  161.0000  205.5910  153.1220 N   0  0  0  0  0  0  0  0  0  0  0  0
  160.9310  203.5910  151.9070 C   0  0  0  0  0  0  0  0  0  0  0  0
  160.7800  202.2010  151.9120 C   0  0  0  0  0  3  0  0  0  0  0  0
  160.3450  208.1480  156.9760 C   0  0  1  0  0  3  0  0  0  0  0  0
  162.2290  209.5260  156.0520 C   0  0  0  0  0  2  0  0  0  0  0  0
  158.9320  210.7960  154.7560 O   0  0  0  0  0  1  0  0  0  0  0  0
  159.9290  206.8490  157.2600 O   0  0  0  0  0  1  0  0  0  0  0  0
  161.7520  208.1120  156.3850 C   0  0  0  0  0  2  0  0  0  0  0  0
  159.8230  210.2070  155.6540 C   0  0  2  0  0  3  0  0  0  0  0  0
  161.2600  210.2410  155.1050 C   0  0  2  0  0  3  0  0  0  0  0  0
  159.3740  208.7860  155.9870 C   0  0  0  0  0  2  0  0  0  0  0  0
  1  8  2  0  0  0  0
  1 17  1  0  0  0  0
  2 15  1  0  0  0  0
  3  2  2  0  0  0  0
  3 22  1  0  0  0  0
  4  5  2  0  0  0  0
  6 18  1  0  0  0  0
  7 19  1  0  0  0  0
  7  2  1  0  0  0  0
  8 20  1  0  0  0  0
  9  6  2  0  0  0  0
  9  3  1  0  0  0  0
 10 16  1  0  0  0  0
 11  1  1  0  0  0  0
 12 21  1  0  0  0  0
 13  6  1  0  0  0  0
 14 10  2  0  0  0  0
 15 10  1  0  0  0  0
 15 21  2  0  0  0  0
 16  5  1  0  0  0  0
 17  7  2  0  0  0  0
 18 23  2  0  0  0  0
 19 14  1  0  0  0  0
 20 19  2  0  0  0  0
 22 23  1  0  0  0  0
 22 12  2  0  0  0  0
 24 27  1  6  0  0  0
 25 28  1  0  0  0  0
 28 24  1  0  0  0  0
 29 26  1  6  0  0  0
 29 31  1  0  0  0  0
 30  5  1  6  0  0  0
 30 29  1  0  0  0  0
 30 25  1  0  0  0  0
 31 24  1  0  0  0  0
M  END
>  <MODEL>
5

>  <REMARK>
 VINA RESULT:      -9.2      2.149      4.161
  Name = 
  1 active torsions:
  status: ('A' for Active; 'I' for Inactive)
    1  A    between atoms: C_5  and  C_30
                            x       y       z     vdW  Elec       q    Type
                         _______ _______ _______ _____ _____    ______ ____

>  <TORSDO>
F 1

$$$$
=
 OpenBabel11122413163D

 31 35  0  0  1  0  0  0  0  0999 V2000
  161.2490  205.1140  151.8520 C   0  0  0  0  0  0  0  0  0  0  0  0
  161.1300  208.6800  153.0580 C   0  0  0  0  0  0  0  0  0  0  0  0
  160.9020  208.6440  154.4650 C   0  0  0  0  0  0  0  0  0  0  0  0
  161.9660  210.7130  148.2610 O   0  0  0  0  0  0  0  0  0  0  0  0
  161.8380  211.6490  149.0950 C   0  0  0  0  0  0  0  0  0  0  0  0
  160.5360  207.4600  156.5700 C   0  0  0  0  0  0  0  0  0  0  0  0
  161.2410  207.5290  152.2200 C   0  0  0  0  0  0  0  0  0  0  0  0
  161.4730  205.3100  150.4890 C   0  0  0  0  0  3  0  0  0  0  0  0
  160.7580  207.4480  155.1910 C   0  0  0  0  0  3  0  0  0  0  0  0
  161.4820  210.0710  151.0750 C   0  0  0  0  0  0  0  0  0  0  0  0
  161.1410  203.8590  152.3480 F   0  0  0  0  0  0  0  0  0  0  0  0
  160.9450  211.0410  154.5170 N   0  0  0  0  0  0  0  0  0  0  0  0
  160.3980  206.2650  157.2610 O   0  0  0  0  0  1  0  0  0  0  0  0
  161.5810  208.9540  150.3100 N   0  0  0  0  0  0  0  0  0  0  0  0
  161.2560  209.9570  152.4520 C   0  0  0  0  0  0  0  0  0  0  0  0
  161.6050  211.3720  150.4830 N   0  0  0  0  0  2  0  0  0  0  0  0
  161.1340  206.2130  152.7060 C   0  0  0  0  0  3  0  0  0  0  0  0
  160.4510  208.6740  157.2520 C   0  0  0  0  0  3  0  0  0  0  0  0
  161.4690  207.7080  150.8320 C   0  0  0  0  0  0  0  0  0  0  0  0
  161.5840  206.6050  149.9820 C   0  0  0  0  0  3  0  0  0  0  0  0
  161.1590  211.0840  153.2050 N   0  0  0  0  0  0  0  0  0  0  0  0
  160.8140  209.8660  155.1750 C   0  0  0  0  0  0  0  0  0  0  0  0
  160.5910  209.8740  156.5550 C   0  0  0  0  0  3  0  0  0  0  0  0
  160.0210  213.6750  146.4550 C   0  0  1  0  0  3  0  0  0  0  0  0
  160.6540  213.8550  148.8780 C   0  0  0  0  0  2  0  0  0  0  0  0
  163.5110  212.4210  146.8920 O   0  0  0  0  0  1  0  0  0  0  0  0
  159.0020  213.3110  145.5770 O   0  0  0  0  0  1  0  0  0  0  0  0
  159.5490  213.4750  147.8920 C   0  0  0  0  0  2  0  0  0  0  0  0
  162.3790  213.1970  147.1460 C   0  0  2  0  0  3  0  0  0  0  0  0
  161.9420  213.0680  148.6150 C   0  0  2  0  0  3  0  0  0  0  0  0
  161.2550  212.8200  146.1820 C   0  0  0  0  0  2  0  0  0  0  0  0
  1 11  1  0  0  0  0
  1 17  1  0  0  0  0
  2  3  1  0  0  0  0
  3 22  2  0  0  0  0
  3  9  1  0  0  0  0
  4  5  2  0  0  0  0
  5 16  1  0  0  0  0
  6 18  1  0  0  0  0
  6 13  1  0  0  0  0
  7 17  2  0  0  0  0
  7  2  1  0  0  0  0
  8  1  2  0  0  0  0
  9  6  2  0  0  0  0
 10 15  1  0  0  0  0
 12 22  1  0  0  0  0
 14 19  1  0  0  0  0
 14 10  2  0  0  0  0
 15  2  2  0  0  0  0
 15 21  1  0  0  0  0
 16 10  1  0  0  0  0
 19  7  1  0  0  0  0
 20  8  1  0  0  0  0
 20 19  2  0  0  0  0
 21 12  2  0  0  0  0
 22 23  1  0  0  0  0
 23 18  2  0  0  0  0
 24 27  1  6  0  0  0
 24 28  1  0  0  0  0
 28 25  1  0  0  0  0
 29 26  1  1  0  0  0
 29 30  1  0  0  0  0
 30 25  1  0  0  0  0
 30  5  1  6  0  0  0
 31 24  1  0  0  0  0
 31 29  1  0  0  0  0
M  END
>  <MODEL>
6

>  <REMARK>
 VINA RESULT:      -8.4      4.005      7.376
  Name = 
  1 active torsions:
  status: ('A' for Active; 'I' for Inactive)
    1  A    between atoms: C_5  and  C_30
                            x       y       z     vdW  Elec       q    Type
                         _______ _______ _______ _____ _____    ______ ____

>  <TORSDO>
F 1

$$$$
=
 OpenBabel11122413163D

 31 35  0  0  1  0  0  0  0  0999 V2000
  161.5550  203.9860  146.0210 C   0  0  0  0  0  0  0  0  0  0  0  0
  161.3950  205.7360  149.3520 C   0  0  0  0  0  0  0  0  0  0  0  0
  161.2200  204.7320  150.3490 C   0  0  0  0  0  0  0  0  0  0  0  0
  162.0030  210.5440  147.2650 O   0  0  0  0  0  0  0  0  0  0  0  0
  161.8830  210.6430  148.5150 C   0  0  0  0  0  0  0  0  0  0  0  0
  160.9610  202.4110  151.0640 C   0  0  0  0  0  0  0  0  0  0  0  0
  161.5030  205.4820  147.9510 C   0  0  0  0  0  0  0  0  0  0  0  0
  161.7240  205.0740  145.1650 C   0  0  0  0  0  3  0  0  0  0  0  0
  161.1320  203.3590  150.0540 C   0  0  0  0  0  3  0  0  0  0  0  0
  161.6390  208.1220  148.8680 C   0  0  0  0  0  0  0  0  0  0  0  0
  161.4960  202.7300  145.5170 F   0  0  0  0  0  0  0  0  0  0  0  0
  161.2060  206.4350  152.0370 N   0  0  0  0  0  0  0  0  0  0  0  0
  160.8770  201.0630  150.7440 O   0  0  0  0  0  1  0  0  0  0  0  0
  161.7370  207.8430  147.5440 N   0  0  0  0  0  0  0  0  0  0  0  0
  161.4670  207.0830  149.7900 C   0  0  0  0  0  0  0  0  0  0  0  0
  161.7080  209.4780  149.3330 N   0  0  0  0  0  2  0  0  0  0  0  0
  161.4450  204.1900  147.3980 C   0  0  0  0  0  3  0  0  0  0  0  0
  160.8710  202.8180  152.3960 C   0  0  0  0  0  3  0  0  0  0  0  0
  161.6740  206.5760  147.0660 C   0  0  0  0  0  0  0  0  0  0  0  0
  161.7840  206.3660  145.6880 C   0  0  0  0  0  3  0  0  0  0  0  0
  161.3700  207.3770  151.1140 N   0  0  0  0  0  0  0  0  0  0  0  0
  161.1280  205.1250  151.7060 C   0  0  0  0  0  0  0  0  0  0  0  0
  160.9560  204.1730  152.7150 C   0  0  0  0  0  3  0  0  0  0  0  0
  160.5620  214.0530  147.5170 C   0  0  1  0  0  3  0  0  0  0  0  0
  160.5370  212.5210  149.5060 C   0  0  0  0  0  2  0  0  0  0  0  0
  163.9530  212.5440  147.9250 O   0  0  0  0  0  1  0  0  0  0  0  0
  159.8480  214.4530  146.3890 O   0  0  0  0  0  1  0  0  0  0  0  0
  159.7700  212.9870  148.2680 C   0  0  0  0  0  2  0  0  0  0  0  0
  162.7090  213.0440  148.3140 C   0  0  2  0  0  3  0  0  0  0  0  0
  161.9340  212.0060  149.1440 C   0  0  2  0  0  3  0  0  0  0  0  0
  161.9180  213.5000  147.0890 C   0  0  0  0  0  2  0  0  0  0  0  0
  1 17  1  0  0  0  0
  2 15  2  0  0  0  0
  2  3  1  0  0  0  0
  3 22  1  0  0  0  0
  4  5  2  0  0  0  0
  5 16  1  0  0  0  0
  6 18  2  0  0  0  0
  7  2  1  0  0  0  0
  8 20  1  0  0  0  0
  8  1  2  0  0  0  0
  9  3  2  0  0  0  0
  9  6  1  0  0  0  0
 10 16  1  0  0  0  0
 10 15  1  0  0  0  0
 11  1  1  0  0  0  0
 13  6  1  0  0  0  0
 14 10  2  0  0  0  0
 15 21  1  0  0  0  0
 17  7  2  0  0  0  0
 18 23  1  0  0  0  0
 19 14  1  0  0  0  0
 19  7  1  0  0  0  0
 20 19  2  0  0  0  0
 21 12  2  0  0  0  0
 22 12  1  0  0  0  0
 22 23  2  0  0  0  0
 24 27  1  6  0  0  0
 24 28  1  0  0  0  0
 28 25  1  0  0  0  0
 29 26  1  6  0  0  0
 29 30  1  0  0  0  0
 30  5  1  6  0  0  0
 30 25  1  0  0  0  0
 31 24  1  0  0  0  0
 31 29  1  0  0  0  0
M  END
>  <MODEL>
7

>  <REMARK>
 VINA RESULT:      -8.0      3.879      5.844
  Name = 
  1 active torsions:
  status: ('A' for Active; 'I' for Inactive)
    1  A    between atoms: C_5  and  C_30
                            x       y       z     vdW  Elec       q    Type
                         _______ _______ _______ _____ _____    ______ ____

>  <TORSDO>
F 1

$$$$
=
 OpenBabel11122413163D

 31 35  0  0  1  0  0  0  0  0999 V2000
  160.8320  207.2260  154.2390 C   0  0  0  0  0  0  0  0  0  0  0  0
  161.2920  207.6240  150.5220 C   0  0  0  0  0  0  0  0  0  0  0  0
  161.3270  206.3160  149.9570 C   0  0  0  0  0  0  0  0  0  0  0  0
  161.3870  212.8960  150.7320 O   0  0  0  0  0  0  0  0  0  0  0  0
  161.5350  212.5220  149.5380 C   0  0  0  0  0  0  0  0  0  0  0  0
  161.2430  203.8810  150.1270 C   0  0  0  0  0  0  0  0  0  0  0  0
  161.1310  207.9080  151.9120 C   0  0  0  0  0  0  0  0  0  0  0  0
  160.8180  208.5610  154.6420 C   0  0  0  0  0  3  0  0  0  0  0  0
  161.2040  205.1420  150.7230 C   0  0  0  0  0  3  0  0  0  0  0  0
  161.4030  210.0350  150.1150 C   0  0  0  0  0  0  0  0  0  0  0  0
  160.6960  206.2390  155.1570 F   0  0  0  0  0  0  0  0  0  0  0  0
  161.6150  207.2810  147.7810 N   0  0  0  0  0  0  0  0  0  0  0  0
  161.1200  202.7400  150.9070 O   0  0  0  0  0  1  0  0  0  0  0  0
  161.2490  210.2660  151.4440 N   0  0  0  0  0  0  0  0  0  0  0  0
  161.4280  208.7210  149.6320 C   0  0  0  0  0  0  0  0  0  0  0  0
  161.5430  211.1290  149.1980 N   0  0  0  0  0  2  0  0  0  0  0  0
  160.9880  206.9050  152.8880 C   0  0  0  0  0  3  0  0  0  0  0  0
  161.4080  203.7670  148.7460 C   0  0  0  0  0  3  0  0  0  0  0  0
  161.1150  209.2590  152.3410 C   0  0  0  0  0  0  0  0  0  0  0  0
  160.9580  209.5750  153.6940 C   0  0  0  0  0  3  0  0  0  0  0  0
  161.5840  208.5050  148.3000 N   0  0  0  0  0  0  0  0  0  0  0  0
  161.4920  206.1800  148.5580 C   0  0  0  0  0  0  0  0  0  0  0  0
  161.5320  204.9150  147.9640 C   0  0  0  0  0  3  0  0  0  0  0  0
  159.8390  213.1560  146.2070 C   0  0  1  0  0  3  0  0  0  0  0  0
  160.4320  214.4110  148.2990 C   0  0  0  0  0  2  0  0  0  0  0  0
  163.2740  212.1640  147.2810 O   0  0  0  0  0  1  0  0  0  0  0  0
  158.8240  212.4540  145.5600 O   0  0  0  0  0  1  0  0  0  0  0  0
  159.3320  213.6460  147.5610 C   0  0  0  0  0  2  0  0  0  0  0  0
  162.1650  212.9940  147.1160 C   0  0  2  0  0  3  0  0  0  0  0  0
  161.6960  213.5620  148.4670 C   0  0  2  0  0  3  0  0  0  0  0  0
  161.0470  212.2440  146.3950 C   0  0  0  0  0  2  0  0  0  0  0  0
  1  8  1  0  0  0  0
  1 11  1  0  0  0  0
  2  7  1  0  0  0  0
  3  2  1  0  0  0  0
  3  9  1  0  0  0  0
  5  4  2  0  0  0  0
  6  9  2  0  0  0  0
  6 13  1  0  0  0  0
  7 19  2  0  0  0  0
  7 17  1  0  0  0  0
 10 14  2  0  0  0  0
 12 21  2  0  0  0  0
 12 22  1  0  0  0  0
 14 19  1  0  0  0  0
 15 10  1  0  0  0  0
 15  2  2  0  0  0  0
 16  5  1  0  0  0  0
 16 10  1  0  0  0  0
 17  1  2  0  0  0  0
 18  6  1  0  0  0  0
 19 20  1  0  0  0  0
 20  8  2  0  0  0  0
 21 15  1  0  0  0  0
 22  3  2  0  0  0  0
 23 22  1  0  0  0  0
 23 18  2  0  0  0  0
 24 27  1  1  0  0  0
 24 31  1  0  0  0  0
 24 28  1  0  0  0  0
 25 30  1  0  0  0  0
 28 25  1  0  0  0  0
 29 26  1  1  0  0  0
 29 30  1  0  0  0  0
 30  5  1  1  0  0  0
 31 29  1  0  0  0  0
M  END
>  <MODEL>
8

>  <REMARK>
 VINA RESULT:      -7.9      4.018      5.750
  Name = 
  1 active torsions:
  status: ('A' for Active; 'I' for Inactive)
    1  A    between atoms: C_5  and  C_30
                            x       y       z     vdW  Elec       q    Type
                         _______ _______ _______ _____ _____    ______ ____

>  <TORSDO>
F 1

$$$$
