=
 OpenBabel11122412503D

 32 37  0  0  1  0  0  0  0  0999 V2000
  161.9710  201.9460  149.2540 O   0  0  0  0  0  0  0  0  0  0  0  0
  161.0130  206.4150  151.5260 N   0  0  1  0  0  0  0  0  0  0  0  0
  162.3430  209.9960  148.3790 C   0  0  0  0  0  3  0  0  0  0  0  0
  162.1220  210.9420  149.3810 C   0  0  0  0  0  3  0  0  0  0  0  0
  161.2630  206.8410  154.0170 C   0  0  0  0  0  0  0  0  0  0  0  0
  160.5870  207.8180  154.8590 C   0  0  0  0  0  0  0  0  0  0  0  0
  160.5060  204.1550  150.7530 C   0  0  1  0  0  3  0  0  0  0  0  0
  161.0480  205.9520  149.0960 C   0  0  0  0  0  2  0  0  0  0  0  0
  159.8190  209.8780  155.3790 C   0  0  0  0  0  0  0  0  0  0  0  0
  160.5570  203.6210  148.2460 C   0  0  0  0  0  2  0  0  0  0  0  0
  162.2030  208.6340  148.6580 C   0  0  0  0  0  3  0  0  0  0  0  0
  161.7180  206.7130  150.2490 C   0  0  1  0  0  3  0  0  0  0  0  0
  161.8270  208.2040  149.9410 C   0  0  0  0  0  0  0  0  0  0  0  0
  161.2830  208.6990  152.2950 C   0  0  0  0  0  0  0  0  0  0  0  0
  160.3800  209.3150  156.4380 C   0  0  0  0  0  3  0  0  0  0  0  0
  161.6170  201.7870  150.6190 C   0  0  0  0  0  2  0  0  0  0  0  0
  161.1340  204.4610  149.3860 C   0  0  2  0  0  3  0  0  0  0  0  0
  160.9010  208.0350  156.0940 N   0  0  0  0  0  0  0  0  0  0  0  0
  160.4550  202.6690  151.1360 C   0  0  0  0  0  2  0  0  0  0  0  0
  160.8080  202.1260  148.4790 C   0  0  1  0  0  3  0  0  0  0  0  0
  161.7760  210.5290  150.6690 C   0  0  0  0  0  3  0  0  0  0  0  0
  161.6510  209.1640  150.9580 C   0  0  0  0  0  0  0  0  0  0  0  0
  160.5340  209.4430  153.0690 N   0  0  0  0  0  0  0  0  0  0  0  0
  161.2130  204.9890  151.8140 C   0  0  0  0  0  2  0  0  0  0  0  0
  161.6950  205.7650  154.5090 O   0  0  0  0  0  0  0  0  0  0  0  0
  159.1400  211.2010  155.3930 C   0  0  0  0  0  1  0  0  0  0  0  0
  161.6010  207.2440  152.5930 C   0  0  2  0  0  3  0  0  0  0  0  0
  159.8250  208.9240  154.2390 C   0  0  1  0  0  3  0  0  0  0  0  0
  160.9470  201.4670  147.2280 O   0  0  0  0  0  0  0  0  0  0  0  0
  160.8500  202.1470  146.0130 C   0  0  0  0  0  0  0  0  0  0  0  0
  161.6130  203.1150  145.7490 O   0  0  0  0  0  0  0  0  0  0  0  0
  159.8350  201.7200  145.0160 C   0  0  0  0  0  1  0  0  0  0  0  0
  1 16  1  0  0  0  0
  2 24  1  1  0  0  0
  2 27  1  0  0  0  0
  3 11  2  0  0  0  0
  3  4  1  0  0  0  0
  4 21  2  0  0  0  0
  5 25  2  0  0  0  0
  5  6  1  0  0  0  0
  6 18  2  0  0  0  0
  7 19  1  1  0  0  0
  7 24  1  0  0  0  0
  8 17  1  0  0  0  0
  9 26  1  0  0  0  0
  9 15  2  0  0  0  0
 10 20  1  0  0  0  0
 11 13  1  0  0  0  0
 12  8  1  6  0  0  0
 12  2  1  0  0  0  0
 13 12  1  0  0  0  0
 13 22  2  0  0  0  0
 14 23  2  0  0  0  0
 16 19  1  0  0  0  0
 17 10  1  6  0  0  0
 17  7  1  0  0  0  0
 18 15  1  0  0  0  0
 20 29  1  6  0  0  0
 20  1  1  0  0  0  0
 21 22  1  0  0  0  0
 22 14  1  0  0  0  0
 27 14  1  6  0  0  0
 27  5  1  0  0  0  0
 28 23  1  6  0  0  0
 28  6  1  0  0  0  0
 28  9  1  0  0  0  0
 30 29  1  0  0  0  0
 31 30  2  0  0  0  0
 32 30  1  0  0  0  0
M  END
>  <MODEL>
1

>  <REMARK>
 VINA RESULT:      -8.3      0.000      0.000
  Name = 
  2 active torsions:
  status: ('A' for Active; 'I' for Inactive)
    1  A    between atoms: C_20  and  O_29
    2  A    between atoms: O_29  and  C_30
                            x       y       z     vdW  Elec       q    Type
                         _______ _______ _______ _____ _____    ______ ____

>  <TORSDO>
F 2

$$$$
=
 OpenBabel11122412503D

 32 37  0  0  1  0  0  0  0  0999 V2000
  162.3960  209.6140  153.6910 O   0  0  0  0  0  0  0  0  0  0  0  0
  161.3010  206.3940  149.8850 N   0  0  1  0  0  0  0  0  0  0  0  0
  160.9440  201.8580  151.8330 C   0  0  0  0  0  3  0  0  0  0  0  0
  160.8470  201.3270  150.5460 C   0  0  0  0  0  3  0  0  0  0  0  0
  162.1790  206.6260  147.5140 C   0  0  0  0  0  0  0  0  0  0  0  0
  161.6030  206.1460  146.2650 C   0  0  0  0  0  0  0  0  0  0  0  0
  161.0350  208.3990  151.2540 C   0  0  1  0  0  3  0  0  0  0  0  0
  160.7160  206.1370  152.2750 C   0  0  0  0  0  2  0  0  0  0  0  0
  160.6390  204.6060  144.9230 C   0  0  0  0  0  0  0  0  0  0  0  0
  160.4560  208.1810  153.7410 C   0  0  0  0  0  2  0  0  0  0  0  0
  161.1550  203.2280  152.0110 C   0  0  0  0  0  3  0  0  0  0  0  0
  161.5320  205.5720  151.1040 C   0  0  1  0  0  3  0  0  0  0  0  0
  161.2590  204.0840  150.9020 C   0  0  0  0  0  0  0  0  0  0  0  0
  161.3390  204.4310  148.4610 C   0  0  0  0  0  0  0  0  0  0  0  0
  161.5810  205.2640  144.2660 C   0  0  0  0  0  3  0  0  0  0  0  0
  162.4920  210.2370  152.4200 C   0  0  0  0  0  2  0  0  0  0  0  0
  161.1670  207.5660  152.5350 C   0  0  2  0  0  3  0  0  0  0  0  0
  162.2140  206.2030  145.1270 N   0  0  0  0  0  0  0  0  0  0  0  0
  161.3840  209.8880  151.3970 C   0  0  0  0  0  2  0  0  0  0  0  0
  161.0460  209.5520  154.0900 C   0  0  1  0  0  3  0  0  0  0  0  0
  160.9770  202.1600  149.4330 C   0  0  0  0  0  3  0  0  0  0  0  0
  161.2060  203.5310  149.6060 C   0  0  0  0  0  0  0  0  0  0  0  0
  160.7200  204.1680  147.3400 N   0  0  0  0  0  0  0  0  0  0  0  0
  161.8460  207.7320  150.1500 C   0  0  0  0  0  2  0  0  0  0  0  0
  162.9330  207.6340  147.5220 O   0  0  0  0  0  0  0  0  0  0  0  0
  159.7520  203.5790  144.3140 C   0  0  0  0  0  1  0  0  0  0  0  0
  162.0040  205.7660  148.7530 C   0  0  2  0  0  3  0  0  0  0  0  0
  160.4960  205.1650  146.2930 C   0  0  1  0  0  3  0  0  0  0  0  0
  160.9390  209.7740  155.4890 O   0  0  0  0  0  0  0  0  0  0  0  0
  161.9020  209.3180  156.3910 C   0  0  0  0  0  0  0  0  0  0  0  0
  161.9590  208.1020  156.7200 O   0  0  0  0  0  0  0  0  0  0  0  0
  162.8750  210.2800  156.9680 C   0  0  0  0  0  1  0  0  0  0  0  0
  1 20  1  0  0  0  0
  2 24  1  1  0  0  0
  2 12  1  0  0  0  0
  3 11  1  0  0  0  0
  4  3  2  0  0  0  0
  5 25  2  0  0  0  0
  6 28  1  0  0  0  0
  6  5  1  0  0  0  0
  7 24  1  6  0  0  0
  7 19  1  0  0  0  0
  7 17  1  0  0  0  0
 10 20  1  0  0  0  0
 12  8  1  1  0  0  0
 13 12  1  0  0  0  0
 13 11  2  0  0  0  0
 14 27  1  0  0  0  0
 14 22  1  0  0  0  0
 15  9  2  0  0  0  0
 15 18  1  0  0  0  0
 16  1  1  0  0  0  0
 17  8  1  6  0  0  0
 17 10  1  0  0  0  0
 18  6  2  0  0  0  0
 19 16  1  0  0  0  0
 20 29  1  1  0  0  0
 21 22  2  0  0  0  0
 21  4  1  0  0  0  0
 22 13  1  0  0  0  0
 23 14  2  0  0  0  0
 26  9  1  0  0  0  0
 27  5  1  6  0  0  0
 27  2  1  0  0  0  0
 28  9  1  6  0  0  0
 28 23  1  0  0  0  0
 29 30  1  0  0  0  0
 30 31  2  0  0  0  0
 30 32  1  0  0  0  0
M  END
>  <MODEL>
2

>  <REMARK>
 VINA RESULT:      -8.2      2.723      8.645
  Name = 
  2 active torsions:
  status: ('A' for Active; 'I' for Inactive)
    1  A    between atoms: C_20  and  O_29
    2  A    between atoms: O_29  and  C_30
                            x       y       z     vdW  Elec       q    Type
                         _______ _______ _______ _____ _____    ______ ____

>  <TORSDO>
F 2

$$$$
=
 OpenBabel11122412503D

 32 37  0  0  1  0  0  0  0  0999 V2000
  162.0420  203.2020  150.4070 O   0  0  0  0  0  0  0  0  0  0  0  0
  160.9010  207.9480  151.8970 N   0  0  1  0  0  0  0  0  0  0  0  0
  162.2370  211.0130  148.2470 C   0  0  0  0  0  3  0  0  0  0  0  0
  161.9610  212.1010  149.0770 C   0  0  0  0  0  3  0  0  0  0  0  0
  161.0620  208.7780  154.2920 C   0  0  0  0  0  0  0  0  0  0  0  0
  160.3360  209.8570  154.9460 C   0  0  0  0  0  0  0  0  0  0  0  0
  160.4760  205.5790  151.4870 C   0  0  1  0  0  3  0  0  0  0  0  0
  161.0230  207.1000  149.5760 C   0  0  0  0  0  2  0  0  0  0  0  0
  159.5000  211.9500  155.1050 C   0  0  0  0  0  0  0  0  0  0  0  0
  160.6180  204.6490  149.1030 C   0  0  0  0  0  2  0  0  0  0  0  0
  162.1220  209.7100  148.7400 C   0  0  0  0  0  3  0  0  0  0  0  0
  161.6370  208.0570  150.6080 C   0  0  1  0  0  3  0  0  0  0  0  0
  161.7180  209.4810  150.0650 C   0  0  0  0  0  0  0  0  0  0  0  0
  161.0880  210.3340  152.2930 C   0  0  0  0  0  0  0  0  0  0  0  0
  160.0420  211.5820  156.2550 C   0  0  0  0  0  3  0  0  0  0  0  0
  161.6500  203.2540  151.7700 C   0  0  0  0  0  2  0  0  0  0  0  0
  161.1370  205.6790  150.1070 C   0  0  2  0  0  3  0  0  0  0  0  0
  160.6050  210.2800  156.1380 N   0  0  0  0  0  0  0  0  0  0  0  0
  160.4500  204.1730  152.1050 C   0  0  0  0  0  2  0  0  0  0  0  0
  160.8990  203.2200  149.5820 C   0  0  1  0  0  3  0  0  0  0  0  0
  161.5850  211.8910  150.4050 C   0  0  0  0  0  3  0  0  0  0  0  0
  161.4860  210.5870  150.9080 C   0  0  0  0  0  0  0  0  0  0  0  0
  160.2970  211.1690  152.9150 N   0  0  0  0  0  0  0  0  0  0  0  0
  161.1280  206.5940  152.4170 C   0  0  0  0  0  2  0  0  0  0  0  0
  161.5060  207.8090  154.9630 O   0  0  0  0  0  0  0  0  0  0  0  0
  158.7870  213.2360  154.8860 C   0  0  0  0  0  1  0  0  0  0  0  0
  161.4340  208.9550  152.8310 C   0  0  2  0  0  3  0  0  0  0  0  0
  159.5660  210.8250  154.1350 C   0  0  1  0  0  3  0  0  0  0  0  0
  161.0940  202.3720  148.4590 O   0  0  0  0  0  0  0  0  0  0  0  0
  161.1590  200.9820  148.5770 C   0  0  0  0  0  0  0  0  0  0  0  0
  160.9440  200.4150  149.6810 O   0  0  0  0  0  0  0  0  0  0  0  0
  161.4820  200.1620  147.3810 C   0  0  0  0  0  1  0  0  0  0  0  0
  1 16  1  0  0  0  0
  2 24  1  1  0  0  0
  2 27  1  0  0  0  0
  3 11  2  0  0  0  0
  3  4  1  0  0  0  0
  4 21  2  0  0  0  0
  5  6  1  0  0  0  0
  5 25  2  0  0  0  0
  6 18  2  0  0  0  0
  7 19  1  1  0  0  0
  7 24  1  0  0  0  0
  8 17  1  0  0  0  0
  9 15  2  0  0  0  0
 10 20  1  0  0  0  0
 11 13  1  0  0  0  0
 12  8  1  6  0  0  0
 12  2  1  0  0  0  0
 13 12  1  0  0  0  0
 13 22  2  0  0  0  0
 14 23  2  0  0  0  0
 16 19  1  0  0  0  0
 17 10  1  6  0  0  0
 17  7  1  0  0  0  0
 18 15  1  0  0  0  0
 20 29  1  6  0  0  0
 20  1  1  0  0  0  0
 21 22  1  0  0  0  0
 22 14  1  0  0  0  0
 26  9  1  0  0  0  0
 27 14  1  6  0  0  0
 27  5  1  0  0  0  0
 28 23  1  6  0  0  0
 28  6  1  0  0  0  0
 28  9  1  0  0  0  0
 29 30  1  0  0  0  0
 30 31  2  0  0  0  0
 32 30  1  0  0  0  0
M  END
>  <MODEL>
3

>  <REMARK>
 VINA RESULT:      -8.2      1.512      1.980
  Name = 
  2 active torsions:
  status: ('A' for Active; 'I' for Inactive)
    1  A    between atoms: C_20  and  O_29
    2  A    between atoms: O_29  and  C_30
                            x       y       z     vdW  Elec       q    Type
                         _______ _______ _______ _____ _____    ______ ____

>  <TORSDO>
F 2

$$$$
=
 OpenBabel11122412503D

 32 37  0  0  1  0  0  0  0  0999 V2000
  161.9570  202.5690  150.2740 O   0  0  0  0  0  0  0  0  0  0  0  0
  160.9420  207.2840  151.9440 N   0  0  1  0  0  0  0  0  0  0  0  0
  162.2620  210.4420  148.3690 C   0  0  0  0  0  3  0  0  0  0  0  0
  162.0260  211.5080  149.2400 C   0  0  0  0  0  3  0  0  0  0  0  0
  161.1700  208.0300  154.3610 C   0  0  0  0  0  0  0  0  0  0  0  0
  160.4790  209.1010  155.0660 C   0  0  0  0  0  0  0  0  0  0  0  0
  160.4610  204.9380  151.4660 C   0  0  1  0  0  3  0  0  0  0  0  0
  160.9990  206.5110  149.5940 C   0  0  0  0  0  2  0  0  0  0  0  0
  159.6890  211.2030  155.3110 C   0  0  0  0  0  0  0  0  0  0  0  0
  160.5350  204.0860  149.0500 C   0  0  0  0  0  2  0  0  0  0  0  0
  162.1320  209.1260  148.8210 C   0  0  0  0  0  3  0  0  0  0  0  0
  161.6530  207.4220  150.6430 C   0  0  1  0  0  3  0  0  0  0  0  0
  161.7510  208.8610  150.1470 C   0  0  0  0  0  0  0  0  0  0  0  0
  161.1850  209.6510  152.4140 C   0  0  0  0  0  0  0  0  0  0  0  0
  160.2470  210.7870  156.4370 C   0  0  0  0  0  3  0  0  0  0  0  0
  161.5940  202.5840  151.6460 C   0  0  0  0  0  2  0  0  0  0  0  0
  161.0960  205.0720  150.0750 C   0  0  2  0  0  3  0  0  0  0  0  0
  160.7820  209.4790  156.2640 N   0  0  0  0  0  0  0  0  0  0  0  0
  160.4200  203.5130  152.0380 C   0  0  0  0  0  2  0  0  0  0  0  0
  160.7970  202.6360  149.4750 C   0  0  1  0  0  3  0  0  0  0  0  0
  161.6740  211.2610  150.5680 C   0  0  0  0  0  3  0  0  0  0  0  0
  161.5590  209.9430  151.0300 C   0  0  0  0  0  0  0  0  0  0  0  0
  160.4240  210.4800  153.0800 N   0  0  0  0  0  0  0  0  0  0  0  0
  161.1520  205.9090  152.4140 C   0  0  0  0  0  2  0  0  0  0  0  0
  161.6080  207.0310  154.9900 O   0  0  0  0  0  0  0  0  0  0  0  0
  158.9980  212.5100  155.1500 C   0  0  0  0  0  1  0  0  0  0  0  0
  161.5150  208.2490  152.8980 C   0  0  2  0  0  3  0  0  0  0  0  0
  159.7120  210.1100  154.3030 C   0  0  1  0  0  3  0  0  0  0  0  0
  160.9520  201.8230  148.3210 O   0  0  0  0  0  0  0  0  0  0  0  0
  161.1430  202.3640  147.0480 C   0  0  0  0  0  0  0  0  0  0  0  0
  161.8910  203.3630  146.8740 O   0  0  0  0  0  0  0  0  0  0  0  0
  160.4570  201.7490  145.8820 C   0  0  0  0  0  1  0  0  0  0  0  0
  1 16  1  0  0  0  0
  2 24  1  1  0  0  0
  2 27  1  0  0  0  0
  3 11  2  0  0  0  0
  3  4  1  0  0  0  0
  4 21  2  0  0  0  0
  5 25  2  0  0  0  0
  5  6  1  0  0  0  0
  6 18  2  0  0  0  0
  7 19  1  1  0  0  0
  7 24  1  0  0  0  0
  8 17  1  0  0  0  0
  9 15  2  0  0  0  0
 10 20  1  0  0  0  0
 11 13  1  0  0  0  0
 12  8  1  6  0  0  0
 12  2  1  0  0  0  0
 13 12  1  0  0  0  0
 13 22  2  0  0  0  0
 14 23  2  0  0  0  0
 16 19  1  0  0  0  0
 17 10  1  6  0  0  0
 17  7  1  0  0  0  0
 18 15  1  0  0  0  0
 20 29  1  6  0  0  0
 20  1  1  0  0  0  0
 21 22  1  0  0  0  0
 22 14  1  0  0  0  0
 26  9  1  0  0  0  0
 27 14  1  6  0  0  0
 27  5  1  0  0  0  0
 28 23  1  6  0  0  0
 28  6  1  0  0  0  0
 28  9  1  0  0  0  0
 30 29  1  0  0  0  0
 31 30  2  0  0  0  0
 32 30  1  0  0  0  0
M  END
>  <MODEL>
4

>  <REMARK>
 VINA RESULT:      -8.0      0.996      1.078
  Name = 
  2 active torsions:
  status: ('A' for Active; 'I' for Inactive)
    1  A    between atoms: C_20  and  O_29
    2  A    between atoms: O_29  and  C_30
                            x       y       z     vdW  Elec       q    Type
                         _______ _______ _______ _____ _____    ______ ____

>  <TORSDO>
F 2

$$$$
=
 OpenBabel11122412503D

 32 37  0  0  1  0  0  0  0  0999 V2000
  162.1980  203.3530  148.4100 O   0  0  0  0  0  0  0  0  0  0  0  0
  161.0620  207.6400  150.9370 N   0  0  1  0  0  0  0  0  0  0  0  0
  162.4450  211.4490  148.0960 C   0  0  0  0  0  3  0  0  0  0  0  0
  162.1660  212.3210  149.1500 C   0  0  0  0  0  3  0  0  0  0  0  0
  161.2040  207.8990  153.4590 C   0  0  0  0  0  0  0  0  0  0  0  0
  160.4760  208.8050  154.3370 C   0  0  0  0  0  0  0  0  0  0  0  0
  160.6310  205.4290  149.9930 C   0  0  1  0  0  3  0  0  0  0  0  0
  161.2030  207.3440  148.4850 C   0  0  0  0  0  2  0  0  0  0  0  0
  159.6470  210.8110  154.9630 C   0  0  0  0  0  0  0  0  0  0  0  0
  160.7920  205.0690  147.4600 C   0  0  0  0  0  2  0  0  0  0  0  0
  162.3210  210.0690  148.2770 C   0  0  0  0  0  3  0  0  0  0  0  0
  161.8100  208.0360  149.7130 C   0  0  1  0  0  3  0  0  0  0  0  0
  161.9030  209.5460  149.5110 C   0  0  0  0  0  0  0  0  0  0  0  0
  161.2550  209.8710  151.8690 C   0  0  0  0  0  0  0  0  0  0  0  0
  160.1770  210.1870  156.0030 C   0  0  0  0  0  3  0  0  0  0  0  0
  161.7930  203.0950  149.7460 C   0  0  0  0  0  2  0  0  0  0  0  0
  161.3060  205.8390  148.6770 C   0  0  2  0  0  3  0  0  0  0  0  0
  160.7350  208.9420  155.5960 N   0  0  0  0  0  0  0  0  0  0  0  0
  160.5940  203.9200  150.2730 C   0  0  0  0  0  2  0  0  0  0  0  0
  161.0630  203.5660  147.6020 C   0  0  1  0  0  3  0  0  0  0  0  0
  161.7770  211.8150  150.3920 C   0  0  0  0  0  3  0  0  0  0  0  0
  161.6670  210.4320  150.5830 C   0  0  0  0  0  0  0  0  0  0  0  0
  160.4620  210.5460  152.6590 N   0  0  0  0  0  0  0  0  0  0  0  0
  161.2780  206.2010  151.1360 C   0  0  0  0  0  2  0  0  0  0  0  0
  161.6370  206.8000  153.8950 O   0  0  0  0  0  0  0  0  0  0  0  0
  158.9420  212.1180  155.0380 C   0  0  0  0  0  1  0  0  0  0  0  0
  161.5900  208.4040  152.0810 C   0  0  2  0  0  3  0  0  0  0  0  0
  159.7170  209.9380  153.7620 C   0  0  1  0  0  3  0  0  0  0  0  0
  161.2650  202.9960  146.3170 O   0  0  0  0  0  0  0  0  0  0  0  0
  160.7760  201.7330  145.9760 C   0  0  0  0  0  0  0  0  0  0  0  0
  160.9910  200.7350  146.7140 O   0  0  0  0  0  0  0  0  0  0  0  0
  159.9880  201.5670  144.7280 C   0  0  0  0  0  1  0  0  0  0  0  0
  1 16  1  0  0  0  0
  2 24  1  1  0  0  0
  2 27  1  0  0  0  0
  3 11  2  0  0  0  0
  3  4  1  0  0  0  0
  4 21  2  0  0  0  0
  5 25  2  0  0  0  0
  5  6  1  0  0  0  0
  6 18  2  0  0  0  0
  7 19  1  1  0  0  0
  7 24  1  0  0  0  0
  8 17  1  0  0  0  0
  9 26  1  0  0  0  0
  9 15  2  0  0  0  0
 10 20  1  0  0  0  0
 11 13  1  0  0  0  0
 12  8  1  6  0  0  0
 12  2  1  0  0  0  0
 13 12  1  0  0  0  0
 13 22  2  0  0  0  0
 14 23  2  0  0  0  0
 16 19  1  0  0  0  0
 17 10  1  6  0  0  0
 17  7  1  0  0  0  0
 18 15  1  0  0  0  0
 20 29  1  6  0  0  0
 20  1  1  0  0  0  0
 21 22  1  0  0  0  0
 22 14  1  0  0  0  0
 27 14  1  6  0  0  0
 27  5  1  0  0  0  0
 28 23  1  6  0  0  0
 28  6  1  0  0  0  0
 28  9  1  0  0  0  0
 30 29  1  0  0  0  0
 30 31  2  0  0  0  0
 32 30  1  0  0  0  0
M  END
>  <MODEL>
5

>  <REMARK>
 VINA RESULT:      -7.3      1.058      1.399
  Name = 
  2 active torsions:
  status: ('A' for Active; 'I' for Inactive)
    1  A    between atoms: C_20  and  O_29
    2  A    between atoms: O_29  and  C_30
                            x       y       z     vdW  Elec       q    Type
                         _______ _______ _______ _____ _____    ______ ____

>  <TORSDO>
F 2

$$$$
=
 OpenBabel11122412503D

 32 37  0  0  1  0  0  0  0  0999 V2000
  162.1790  203.3880  147.6260 O   0  0  0  0  0  0  0  0  0  0  0  0
  161.1330  207.1900  150.8670 N   0  0  1  0  0  0  0  0  0  0  0  0
  162.1990  211.4400  148.5640 C   0  0  0  0  0  3  0  0  0  0  0  0
  161.9800  212.1280  149.7580 C   0  0  0  0  0  3  0  0  0  0  0  0
  161.4620  207.0630  153.3810 C   0  0  0  0  0  0  0  0  0  0  0  0
  160.7800  207.7960  154.4400 C   0  0  0  0  0  0  0  0  0  0  0  0
  160.6860  205.1370  149.6220 C   0  0  1  0  0  3  0  0  0  0  0  0
  161.0930  207.2800  148.3940 C   0  0  0  0  0  2  0  0  0  0  0  0
  159.9520  209.6500  155.4300 C   0  0  0  0  0  0  0  0  0  0  0  0
  160.6620  205.1770  147.0590 C   0  0  0  0  0  2  0  0  0  0  0  0
  162.1240  210.0440  148.5350 C   0  0  0  0  0  3  0  0  0  0  0  0
  161.7760  207.7980  149.6690 C   0  0  1  0  0  3  0  0  0  0  0  0
  161.8140  209.3220  149.7000 C   0  0  0  0  0  0  0  0  0  0  0  0
  161.3420  209.2560  152.1200 C   0  0  0  0  0  0  0  0  0  0  0  0
  160.5750  208.8930  156.3190 C   0  0  0  0  0  3  0  0  0  0  0  0
  161.8840  202.9130  148.9300 C   0  0  0  0  0  2  0  0  0  0  0  0
  161.2480  205.7690  148.3410 C   0  0  2  0  0  3  0  0  0  0  0  0
  161.1320  207.7470  155.6830 N   0  0  0  0  0  0  0  0  0  0  0  0
  160.7080  203.6020  149.6650 C   0  0  0  0  0  2  0  0  0  0  0  0
  160.9800  203.6810  146.9450 C   0  0  1  0  0  3  0  0  0  0  0  0
  161.7000  211.4230  150.9300 C   0  0  0  0  0  3  0  0  0  0  0  0
  161.6400  210.0230  150.9110 C   0  0  0  0  0  0  0  0  0  0  0  0
  160.5940  209.7730  153.0600 N   0  0  0  0  0  0  0  0  0  0  0  0
  161.4000  205.7470  150.8220 C   0  0  0  0  0  2  0  0  0  0  0  0
  161.9540  205.9260  153.6080 O   0  0  0  0  0  0  0  0  0  0  0  0
  159.2220  210.9030  155.7590 C   0  0  0  0  0  1  0  0  0  0  0  0
  161.7280  207.7880  152.0740 C   0  0  2  0  0  3  0  0  0  0  0  0
  159.9520  208.9750  154.1050 C   0  0  1  0  0  3  0  0  0  0  0  0
  161.0970  203.3240  145.5750 O   0  0  0  0  0  0  0  0  0  0  0  0
  160.5150  204.0800  144.5550 C   0  0  0  0  0  0  0  0  0  0  0  0
  159.3610  203.8110  144.1270 O   0  0  0  0  0  0  0  0  0  0  0  0
  161.2670  205.2190  143.9700 C   0  0  0  0  0  1  0  0  0  0  0  0
  1 16  1  0  0  0  0
  2 24  1  1  0  0  0
  2 27  1  0  0  0  0
  3  4  1  0  0  0  0
  4 21  2  0  0  0  0
  5 25  2  0  0  0  0
  5  6  1  0  0  0  0
  6 18  2  0  0  0  0
  7 19  1  6  0  0  0
  7 24  1  0  0  0  0
  9 26  1  0  0  0  0
  9 15  2  0  0  0  0
 11  3  2  0  0  0  0
 11 13  1  0  0  0  0
 12  8  1  6  0  0  0
 12 13  1  0  0  0  0
 12  2  1  0  0  0  0
 13 22  2  0  0  0  0
 14 23  2  0  0  0  0
 16 19  1  0  0  0  0
 17 10  1  6  0  0  0
 17  8  1  0  0  0  0
 17  7  1  0  0  0  0
 18 15  1  0  0  0  0
 20 29  1  6  0  0  0
 20 10  1  0  0  0  0
 20  1  1  0  0  0  0
 22 21  1  0  0  0  0
 22 14  1  0  0  0  0
 27 14  1  1  0  0  0
 27  5  1  0  0  0  0
 28 23  1  6  0  0  0
 28  6  1  0  0  0  0
 28  9  1  0  0  0  0
 30 29  1  0  0  0  0
 31 30  2  0  0  0  0
 32 30  1  0  0  0  0
M  END
>  <MODEL>
6

>  <REMARK>
 VINA RESULT:      -7.2      1.320      1.582
  Name = 
  2 active torsions:
  status: ('A' for Active; 'I' for Inactive)
    1  A    between atoms: C_20  and  O_29
    2  A    between atoms: O_29  and  C_30
                            x       y       z     vdW  Elec       q    Type
                         _______ _______ _______ _____ _____    ______ ____

>  <TORSDO>
F 2

$$$$
