=
 OpenBabel11122413283D

 31 35  0  0  1  0  0  0  0  0999 V2000
  160.9650  204.3340  145.0790 C   0  0  0  0  0  0  0  0  0  0  0  0
  160.4930  205.0470  148.7880 C   0  0  2  0  0  3  0  0  0  0  0  0
  160.9120  203.7810  149.5250 C   0  0  0  0  0  0  0  0  0  0  0  0
  161.2490  201.3680  149.5210 C   0  0  0  0  0  0  0  0  0  0  0  0
  161.0300  205.1270  147.3760 C   0  0  0  0  0  0  0  0  0  0  0  0
  162.0380  205.1640  144.7570 C   0  0  0  0  0  3  0  0  0  0  0  0
  160.9470  202.5520  148.8460 C   0  0  0  0  0  3  0  0  0  0  0  0
  162.2910  206.6860  149.4660 C   0  0  2  0  0  3  0  0  0  0  0  0
  160.4120  203.5400  144.1310 F   0  0  0  0  0  0  0  0  0  0  0  0
  161.1230  205.0590  151.7240 C   0  0  0  0  0  2  0  0  0  0  0  0
  161.2930  200.1950  148.8450 F   0  0  0  0  0  0  0  0  0  0  0  0
  162.6580  206.9810  148.0130 C   0  0  0  0  0  2  0  0  0  0  0  0
  160.8000  206.3330  149.5780 C   0  0  2  0  0  3  0  0  0  0  0  0
  160.4610  204.3180  146.3820 C   0  0  0  0  0  3  0  0  0  0  0  0
  161.4990  201.3910  150.8930 C   0  0  0  0  0  3  0  0  0  0  0  0
  162.1120  205.9730  147.0430 C   0  0  0  0  0  0  0  0  0  0  0  0
  162.6020  205.9880  145.7330 C   0  0  0  0  0  3  0  0  0  0  0  0
  160.3460  206.1720  151.0290 C   0  0  0  0  0  2  0  0  0  0  0  0
  161.1300  203.7880  150.9250 C   0  0  0  0  0  0  0  0  0  0  0  0
  161.4410  202.5990  151.5910 C   0  0  0  0  0  3  0  0  0  0  0  0
  161.4850  209.3610  148.8990 O   0  0  0  0  0  0  0  0  0  0  0  0
  162.1590  209.1650  149.9470 C   0  0  0  0  0  0  0  0  0  0  0  0
  162.6010  207.8500  150.2850 N   0  0  0  0  0  2  0  0  0  0  0  0
  160.2220  211.2670  152.4330 C   0  0  1  0  0  3  0  0  0  0  0  0
  162.3570  209.9500  152.3300 C   0  0  0  0  0  2  0  0  0  0  0  0
  161.8770  211.9050  149.1490 O   0  0  0  0  0  1  0  0  0  0  0  0
  158.8810  211.2200  152.8110 O   0  0  0  0  0  1  0  0  0  0  0  0
  160.8840  209.9280  152.7450 C   0  0  0  0  0  2  0  0  0  0  0  0
  161.7830  211.6170  150.5110 C   0  0  2  0  0  3  0  0  0  0  0  0
  162.5210  210.3100  150.8490 C   0  0  2  0  0  3  0  0  0  0  0  0
  160.3180  211.5680  150.9400 C   0  0  0  0  0  2  0  0  0  0  0  0
  1 14  1  0  0  0  0
  2  5  1  6  0  0  0
  2  3  1  0  0  0  0
  2 13  1  0  0  0  0
  3 19  1  0  0  0  0
  4 15  2  0  0  0  0
  6  1  2  0  0  0  0
  6 17  1  0  0  0  0
  7  4  1  0  0  0  0
  7  3  2  0  0  0  0
  8 13  1  0  0  0  0
  8 23  1  1  0  0  0
  9  1  1  0  0  0  0
 11  4  1  0  0  0  0
 12  8  1  0  0  0  0
 13 18  1  1  0  0  0
 14  5  2  0  0  0  0
 15 20  1  0  0  0  0
 16  5  1  0  0  0  0
 16 12  1  0  0  0  0
 17 16  2  0  0  0  0
 18 10  1  0  0  0  0
 19 20  2  0  0  0  0
 19 10  1  0  0  0  0
 21 22  2  0  0  0  0
 22 23  1  0  0  0  0
 24 28  1  0  0  0  0
 24 27  1  6  0  0  0
 25 28  1  0  0  0  0
 29 26  1  6  0  0  0
 29 30  1  0  0  0  0
 29 31  1  0  0  0  0
 30 22  1  6  0  0  0
 30 25  1  0  0  0  0
 31 24  1  0  0  0  0
M  END
>  <MODEL>
1

>  <REMARK>
 VINA RESULT:      -7.8      0.000      0.000
  Name = 
  2 active torsions:
  status: ('A' for Active; 'I' for Inactive)
    1  A    between atoms: C_5  and  C_30
    2  A    between atoms: C_10  and  N_16
                            x       y       z     vdW  Elec       q    Type
                         _______ _______ _______ _____ _____    ______ ____

>  <TORSDO>
F 2

$$$$
=
 OpenBabel11122413283D

 31 35  0  0  1  0  0  0  0  0999 V2000
  160.8850  206.3750  146.4460 C   0  0  0  0  0  0  0  0  0  0  0  0
  160.3000  205.0170  149.9530 C   0  0  2  0  0  3  0  0  0  0  0  0
  160.7700  203.5670  149.9350 C   0  0  0  0  0  0  0  0  0  0  0  0
  161.2350  201.5300  148.6820 C   0  0  0  0  0  0  0  0  0  0  0  0
  160.8610  205.8450  148.8180 C   0  0  0  0  0  0  0  0  0  0  0  0
  161.9200  207.2880  146.6560 C   0  0  0  0  0  3  0  0  0  0  0  0
  160.8840  202.8800  148.7150 C   0  0  0  0  0  3  0  0  0  0  0  0
  161.9950  206.1150  151.4700 C   0  0  2  0  0  3  0  0  0  0  0  0
  160.3950  206.1810  145.1980 F   0  0  0  0  0  0  0  0  0  0  0  0
  160.8680  203.5050  152.4840 C   0  0  0  0  0  2  0  0  0  0  0  0
  161.3550  200.8900  147.4940 F   0  0  0  0  0  0  0  0  0  0  0  0
  162.3750  207.1420  150.4050 C   0  0  0  0  0  2  0  0  0  0  0  0
  160.5220  205.7050  151.3120 C   0  0  2  0  0  3  0  0  0  0  0  0
  160.3560  205.6600  147.5230 C   0  0  0  0  0  3  0  0  0  0  0  0
  161.4550  200.8370  149.8730 C   0  0  0  0  0  3  0  0  0  0  0  0
  161.9040  206.7760  149.0270 C   0  0  0  0  0  0  0  0  0  0  0  0
  162.4190  207.4940  147.9430 C   0  0  0  0  0  3  0  0  0  0  0  0
  160.0470  204.7900  152.4420 C   0  0  0  0  0  2  0  0  0  0  0  0
  160.9580  202.8450  151.1400 C   0  0  0  0  0  0  0  0  0  0  0  0
  161.3180  201.4950  151.0970 C   0  0  0  0  0  3  0  0  0  0  0  0
  160.5310  208.2800  152.6080 O   0  0  0  0  0  0  0  0  0  0  0  0
  161.4490  207.7670  153.3050 C   0  0  0  0  0  0  0  0  0  0  0  0
  162.2250  206.6840  152.7900 N   0  0  0  0  0  2  0  0  0  0  0  0
  159.4700  209.7470  155.8570 C   0  0  1  0  0  3  0  0  0  0  0  0
  160.8570  207.6570  155.7480 C   0  0  0  0  0  2  0  0  0  0  0  0
  162.4820  210.4040  153.7530 O   0  0  0  0  0  1  0  0  0  0  0  0
  158.1690  210.2460  155.8090 O   0  0  0  0  0  1  0  0  0  0  0  0
  159.4380  208.2290  155.7090 C   0  0  0  0  0  2  0  0  0  0  0  0
  161.7210  209.8280  154.7710 C   0  0  2  0  0  3  0  0  0  0  0  0
  161.7520  208.2930  154.6790 C   0  0  2  0  0  3  0  0  0  0  0  0
  160.2940  210.3700  154.7330 C   0  0  0  0  0  2  0  0  0  0  0  0
  1  6  2  0  0  0  0
  1 14  1  0  0  0  0
  2  5  1  6  0  0  0
  2 13  1  0  0  0  0
  3  2  1  0  0  0  0
  3 19  1  0  0  0  0
  4  7  1  0  0  0  0
  4 15  2  0  0  0  0
  5 16  1  0  0  0  0
  6 17  1  0  0  0  0
  7  3  2  0  0  0  0
  8 23  1  1  0  0  0
  9  1  1  0  0  0  0
 11  4  1  0  0  0  0
 12  8  1  0  0  0  0
 13  8  1  0  0  0  0
 13 18  1  1  0  0  0
 14  5  2  0  0  0  0
 15 20  1  0  0  0  0
 16 12  1  0  0  0  0
 17 16  2  0  0  0  0
 18 10  1  0  0  0  0
 19 10  1  0  0  0  0
 20 19  2  0  0  0  0
 21 22  2  0  0  0  0
 23 22  1  0  0  0  0
 24 27  1  6  0  0  0
 28 25  1  0  0  0  0
 28 24  1  0  0  0  0
 29 26  1  6  0  0  0
 30 22  1  6  0  0  0
 30 29  1  0  0  0  0
 30 25  1  0  0  0  0
 31 29  1  0  0  0  0
 31 24  1  0  0  0  0
M  END
>  <MODEL>
2

>  <REMARK>
 VINA RESULT:      -7.8      2.289      2.810
  Name = 
  2 active torsions:
  status: ('A' for Active; 'I' for Inactive)
    1  A    between atoms: C_5  and  C_30
    2  A    between atoms: C_10  and  N_16
                            x       y       z     vdW  Elec       q    Type
                         _______ _______ _______ _____ _____    ______ ____

>  <TORSDO>
F 2

$$$$
=
 OpenBabel11122413283D

 31 35  0  0  1  0  0  0  0  0999 V2000
  161.2270  203.8120  145.6510 C   0  0  0  0  0  0  0  0  0  0  0  0
  160.5620  205.6880  148.8960 C   0  0  2  0  0  3  0  0  0  0  0  0
  160.9460  204.7400  150.0250 C   0  0  0  0  0  0  0  0  0  0  0  0
  161.2910  202.4660  150.8270 C   0  0  0  0  0  0  0  0  0  0  0  0
  161.1720  205.3130  147.5630 C   0  0  0  0  0  0  0  0  0  0  0  0
  162.3130  204.5130  145.1270 C   0  0  0  0  0  3  0  0  0  0  0  0
  161.0210  203.3580  149.7880 C   0  0  0  0  0  3  0  0  0  0  0  0
  162.3180  207.4940  149.0850 C   0  0  2  0  0  3  0  0  0  0  0  0
  160.7270  202.7420  144.9890 F   0  0  0  0  0  0  0  0  0  0  0  0
  161.0400  206.6700  151.6930 C   0  0  0  0  0  2  0  0  0  0  0  0
  161.3740  201.1380  150.5740 F   0  0  0  0  0  0  0  0  0  0  0  0
  162.7590  207.3060  147.6350 C   0  0  0  0  0  2  0  0  0  0  0  0
  160.8240  207.1670  149.2350 C   0  0  2  0  0  3  0  0  0  0  0  0
  160.6570  204.2130  146.8620 C   0  0  0  0  0  3  0  0  0  0  0  0
  161.4700  202.9410  152.1260 C   0  0  0  0  0  3  0  0  0  0  0  0
  162.2670  206.0260  147.0230 C   0  0  0  0  0  0  0  0  0  0  0  0
  162.8230  205.6220  145.8050 C   0  0  0  0  0  3  0  0  0  0  0  0
  160.2960  207.4800  150.6360 C   0  0  0  0  0  2  0  0  0  0  0  0
  161.0920  205.2090  151.3550 C   0  0  0  0  0  0  0  0  0  0  0  0
  161.3720  204.3090  152.3870 C   0  0  0  0  0  3  0  0  0  0  0  0
  161.3450  209.8210  147.7570 O   0  0  0  0  0  0  0  0  0  0  0  0
  162.0560  209.9910  148.7850 C   0  0  0  0  0  0  0  0  0  0  0  0
  162.5810  208.8670  149.4930 N   0  0  0  0  0  2  0  0  0  0  0  0
  160.8780  213.4590  147.8150 C   0  0  1  0  0  3  0  0  0  0  0  0
  161.1500  212.0650  149.8860 C   0  0  0  0  0  2  0  0  0  0  0  0
  164.1120  211.6070  147.6080 O   0  0  0  0  0  1  0  0  0  0  0  0
  159.9710  213.8700  146.8400 O   0  0  0  0  0  1  0  0  0  0  0  0
  160.1730  212.5390  148.8080 C   0  0  0  0  0  2  0  0  0  0  0  0
  163.0400  212.2660  148.2110 C   0  0  2  0  0  3  0  0  0  0  0  0
  162.3750  211.3750  149.2740 C   0  0  2  0  0  3  0  0  0  0  0  0
  162.0410  212.7270  147.1520 C   0  0  0  0  0  2  0  0  0  0  0  0
  1 14  1  0  0  0  0
  2  5  1  6  0  0  0
  2 13  1  0  0  0  0
  2  3  1  0  0  0  0
  3 19  1  0  0  0  0
  4 15  2  0  0  0  0
  6  1  2  0  0  0  0
  6 17  1  0  0  0  0
  7  3  2  0  0  0  0
  7  4  1  0  0  0  0
  8 13  1  0  0  0  0
  8 23  1  6  0  0  0
  9  1  1  0  0  0  0
 11  4  1  0  0  0  0
 12  8  1  0  0  0  0
 13 18  1  1  0  0  0
 14  5  2  0  0  0  0
 15 20  1  0  0  0  0
 16  5  1  0  0  0  0
 16 12  1  0  0  0  0
 17 16  2  0  0  0  0
 18 10  1  0  0  0  0
 19 10  1  0  0  0  0
 19 20  2  0  0  0  0
 21 22  2  0  0  0  0
 22 23  1  0  0  0  0
 24 27  1  6  0  0  0
 24 28  1  0  0  0  0
 28 25  1  0  0  0  0
 29 26  1  6  0  0  0
 29 30  1  0  0  0  0
 30 22  1  6  0  0  0
 30 25  1  0  0  0  0
 31 24  1  0  0  0  0
 31 29  1  0  0  0  0
M  END
>  <MODEL>
3

>  <REMARK>
 VINA RESULT:      -7.6      1.804      2.388
  Name = 
  2 active torsions:
  status: ('A' for Active; 'I' for Inactive)
    1  A    between atoms: C_5  and  C_30
    2  A    between atoms: C_10  and  N_16
                            x       y       z     vdW  Elec       q    Type
                         _______ _______ _______ _____ _____    ______ ____

>  <TORSDO>
F 2

$$$$
=
 OpenBabel11122413283D

 31 35  0  0  1  0  0  0  0  0999 V2000
  160.8010  207.4610  156.3800 C   0  0  0  0  0  0  0  0  0  0  0  0
  161.8560  208.5950  152.9030 C   0  0  2  0  0  3  0  0  0  0  0  0
  161.4050  207.5030  151.9410 C   0  0  0  0  0  0  0  0  0  0  0  0
  160.8030  205.1760  151.5440 C   0  0  0  0  0  0  0  0  0  0  0  0
  161.1420  208.5550  154.2360 C   0  0  0  0  0  0  0  0  0  0  0  0
  159.7920  208.3730  156.6910 C   0  0  0  0  0  3  0  0  0  0  0  0
  161.1390  206.2100  152.4200 C   0  0  0  0  0  3  0  0  0  0  0  0
  160.3630  210.5290  152.2660 C   0  0  2  0  0  3  0  0  0  0  0  0
  161.1250  206.4830  157.2590 F   0  0  0  0  0  0  0  0  0  0  0  0
  161.6420  209.0800  149.9480 C   0  0  0  0  0  2  0  0  0  0  0  0
  160.5350  203.9390  152.0280 F   0  0  0  0  0  0  0  0  0  0  0  0
  159.8340  210.6730  153.6910 C   0  0  0  0  0  2  0  0  0  0  0  0
  161.8060  210.0030  152.2830 C   0  0  2  0  0  3  0  0  0  0  0  0
  161.4740  207.5530  155.1600 C   0  0  0  0  0  3  0  0  0  0  0  0
  160.7490  205.4140  150.1710 C   0  0  0  0  0  3  0  0  0  0  0  0
  160.1250  209.4830  154.5590 C   0  0  0  0  0  0  0  0  0  0  0  0
  159.4640  209.3870  155.7880 C   0  0  0  0  0  3  0  0  0  0  0  0
  162.4350  209.9800  150.8890 C   0  0  0  0  0  2  0  0  0  0  0  0
  161.3840  207.7260  150.5410 C   0  0  0  0  0  0  0  0  0  0  0  0
  161.0370  206.6870  149.6730 C   0  0  0  0  0  3  0  0  0  0  0  0
  157.9940  212.0640  151.8650 O   0  0  0  0  0  0  0  0  0  0  0  0
  159.0790  212.5440  151.4360 C   0  0  0  0  0  0  0  0  0  0  0  0
  160.3010  211.8220  151.5980 N   0  0  0  0  0  2  0  0  0  0  0  0
  157.7210  213.8000  148.1300 C   0  0  1  0  0  3  0  0  0  0  0  0
  157.6970  214.4530  150.5540 C   0  0  0  0  0  2  0  0  0  0  0  0
  161.1260  213.2600  149.5600 O   0  0  0  0  0  1  0  0  0  0  0  0
  157.0110  213.1380  147.1290 O   0  0  0  0  0  1  0  0  0  0  0  0
  156.9330  213.7420  149.4350 C   0  0  0  0  0  2  0  0  0  0  0  0
  159.8720  213.8520  149.4040 C   0  0  2  0  0  3  0  0  0  0  0  0
  159.1040  213.8730  150.7360 C   0  0  2  0  0  3  0  0  0  0  0  0
  159.0850  213.1390  148.3070 C   0  0  0  0  0  2  0  0  0  0  0  0
  1  6  1  0  0  0  0
  1  9  1  0  0  0  0
  2  3  1  6  0  0  0
  2  5  1  0  0  0  0
  3  7  1  0  0  0  0
  4 11  1  0  0  0  0
  4  7  2  0  0  0  0
  5 16  2  0  0  0  0
  5 14  1  0  0  0  0
  8 23  1  1  0  0  0
  8 13  1  0  0  0  0
  8 12  1  0  0  0  0
 10 19  1  0  0  0  0
 10 18  1  0  0  0  0
 12 16  1  0  0  0  0
 13 18  1  6  0  0  0
 13  2  1  0  0  0  0
 14  1  2  0  0  0  0
 15  4  1  0  0  0  0
 16 17  1  0  0  0  0
 17  6  2  0  0  0  0
 19  3  2  0  0  0  0
 20 15  2  0  0  0  0
 20 19  1  0  0  0  0
 22 23  1  0  0  0  0
 22 21  2  0  0  0  0
 24 27  1  6  0  0  0
 24 31  1  0  0  0  0
 24 28  1  0  0  0  0
 25 30  1  0  0  0  0
 28 25  1  0  0  0  0
 29 26  1  1  0  0  0
 29 30  1  0  0  0  0
 30 22  1  6  0  0  0
 31 29  1  0  0  0  0
M  END
>  <MODEL>
4

>  <REMARK>
 VINA RESULT:      -7.4      3.407      6.752
  Name = 
  2 active torsions:
  status: ('A' for Active; 'I' for Inactive)
    1  A    between atoms: C_5  and  C_30
    2  A    between atoms: C_10  and  N_16
                            x       y       z     vdW  Elec       q    Type
                         _______ _______ _______ _____ _____    ______ ____

>  <TORSDO>
F 2

$$$$
=
 OpenBabel11122413283D

 31 35  0  0  1  0  0  0  0  0999 V2000
  161.5640  205.9270  152.2230 C   0  0  0  0  0  0  0  0  0  0  0  0
  160.1300  209.3490  153.0730 C   0  0  2  0  0  3  0  0  0  0  0  0
  160.7800  209.7720  154.3850 C   0  0  0  0  0  0  0  0  0  0  0  0
  161.8840  209.1620  156.4700 C   0  0  0  0  0  0  0  0  0  0  0  0
  160.8910  208.2590  152.3500 C   0  0  0  0  0  0  0  0  0  0  0  0
  162.3480  206.2090  151.1040 C   0  0  0  0  0  3  0  0  0  0  0  0
  161.3560  208.8070  155.2270 C   0  0  0  0  0  3  0  0  0  0  0  0
  161.1110  210.9970  151.4290 C   0  0  2  0  0  3  0  0  0  0  0  0
  161.5110  204.6650  152.7130 F   0  0  0  0  0  0  0  0  0  0  0  0
  160.1020  212.2030  154.0050 C   0  0  0  0  0  2  0  0  0  0  0  0
  162.4480  208.2190  157.2610 F   0  0  0  0  0  0  0  0  0  0  0  0
  161.6520  209.8810  150.5370 C   0  0  0  0  0  2  0  0  0  0  0  0
  159.8290  210.5360  152.1400 C   0  0  2  0  0  3  0  0  0  0  0  0
  160.8360  206.9470  152.8400 C   0  0  0  0  0  3  0  0  0  0  0  0
  161.8240  210.4880  156.9000 C   0  0  0  0  0  3  0  0  0  0  0  0
  161.6790  208.5390  151.2100 C   0  0  0  0  0  0  0  0  0  0  0  0
  162.3960  207.5080  150.5940 C   0  0  0  0  0  3  0  0  0  0  0  0
  159.1640  211.6630  152.9310 C   0  0  0  0  0  2  0  0  0  0  0  0
  160.6900  211.1090  154.8470 C   0  0  0  0  0  0  0  0  0  0  0  0
  161.2300  211.4570  156.0890 C   0  0  0  0  0  3  0  0  0  0  0  0
  162.3510  211.5870  148.9300 O   0  0  0  0  0  0  0  0  0  0  0  0
  161.4980  212.4080  149.3660 C   0  0  0  0  0  0  0  0  0  0  0  0
  160.8460  212.1750  150.6160 N   0  0  0  0  0  2  0  0  0  0  0  0
  158.8760  213.2560  146.7670 C   0  0  1  0  0  3  0  0  0  0  0  0
  159.7660  214.1790  148.9260 C   0  0  0  0  0  2  0  0  0  0  0  0
  162.5960  212.9450  146.7720 O   0  0  0  0  0  1  0  0  0  0  0  0
  157.8730  212.4720  146.2000 O   0  0  0  0  0  1  0  0  0  0  0  0
  158.6700  213.3310  148.2770 C   0  0  0  0  0  2  0  0  0  0  0  0
  161.3470  213.4920  147.0700 C   0  0  2  0  0  3  0  0  0  0  0  0
  161.1640  213.6490  148.5890 C   0  0  2  0  0  3  0  0  0  0  0  0
  160.2380  212.6450  146.4500 C   0  0  0  0  0  2  0  0  0  0  0  0
  1  9  1  0  0  0  0
  1 14  1  0  0  0  0
  2  5  1  6  0  0  0
  2  3  1  0  0  0  0
  3 19  2  0  0  0  0
  3  7  1  0  0  0  0
  4 15  1  0  0  0  0
  4 11  1  0  0  0  0
  5 14  2  0  0  0  0
  6  1  2  0  0  0  0
  7  4  2  0  0  0  0
  8 23  1  6  0  0  0
  8 13  1  0  0  0  0
 10 19  1  0  0  0  0
 12 16  1  0  0  0  0
 12  8  1  0  0  0  0
 13 18  1  1  0  0  0
 13  2  1  0  0  0  0
 16  5  1  0  0  0  0
 17  6  1  0  0  0  0
 17 16  2  0  0  0  0
 18 10  1  0  0  0  0
 19 20  1  0  0  0  0
 20 15  2  0  0  0  0
 21 22  2  0  0  0  0
 22 23  1  0  0  0  0
 24 27  1  6  0  0  0
 24 28  1  0  0  0  0
 28 25  1  0  0  0  0
 29 26  1  1  0  0  0
 29 30  1  0  0  0  0
 30 25  1  0  0  0  0
 30 22  1  1  0  0  0
 31 24  1  0  0  0  0
 31 29  1  0  0  0  0
M  END
>  <MODEL>
5

>  <REMARK>
 VINA RESULT:      -6.6      3.900      6.791
  Name = 
  2 active torsions:
  status: ('A' for Active; 'I' for Inactive)
    1  A    between atoms: C_5  and  C_30
    2  A    between atoms: C_10  and  N_16
                            x       y       z     vdW  Elec       q    Type
                         _______ _______ _______ _____ _____    ______ ____

>  <TORSDO>
F 2

$$$$
=
 OpenBabel11122413283D

 31 35  0  0  1  0  0  0  0  0999 V2000
  160.5990  208.0040  154.9840 C   0  0  0  0  0  0  0  0  0  0  0  0
  162.0920  208.9120  151.6030 C   0  0  2  0  0  3  0  0  0  0  0  0
  161.5390  207.9020  150.6050 C   0  0  0  0  0  0  0  0  0  0  0  0
  160.5880  205.7050  150.1550 C   0  0  0  0  0  0  0  0  0  0  0  0
  161.2810  209.0050  152.8770 C   0  0  0  0  0  0  0  0  0  0  0  0
  159.7370  209.0750  155.2200 C   0  0  0  0  0  3  0  0  0  0  0  0
  161.0240  206.6760  151.0570 C   0  0  0  0  0  3  0  0  0  0  0  0
  160.9960  211.0630  150.8590 C   0  0  2  0  0  3  0  0  0  0  0  0
  160.6870  206.9940  155.8820 F   0  0  0  0  0  0  0  0  0  0  0  0
  162.1880  209.3980  148.6410 C   0  0  0  0  0  2  0  0  0  0  0  0
  160.0810  204.5350  150.6120 F   0  0  0  0  0  0  0  0  0  0  0  0
  160.3920  211.3070  152.2400 C   0  0  0  0  0  2  0  0  0  0  0  0
  162.3260  210.3030  150.9860 C   0  0  2  0  0  3  0  0  0  0  0  0
  161.3700  207.9710  153.8200 C   0  0  0  0  0  3  0  0  0  0  0  0
  160.6790  205.9360  148.7820 C   0  0  0  0  0  3  0  0  0  0  0  0
  160.4130  210.0930  153.1230 C   0  0  0  0  0  0  0  0  0  0  0  0
  159.6530  210.1200  154.2970 C   0  0  0  0  0  3  0  0  0  0  0  0
  163.0470  210.1620  149.6440 C   0  0  0  0  0  2  0  0  0  0  0  0
  161.6630  208.1120  149.2090 C   0  0  0  0  0  0  0  0  0  0  0  0
  161.2140  207.1370  148.3130 C   0  0  0  0  0  3  0  0  0  0  0  0
  160.2440  211.6620  148.1750 O   0  0  0  0  0  0  0  0  0  0  0  0
  160.7940  212.5780  148.8440 C   0  0  0  0  0  0  0  0  0  0  0  0
  161.2030  212.3410  150.1920 N   0  0  0  0  0  2  0  0  0  0  0  0
  160.8990  213.8750  145.2860 C   0  0  1  0  0  3  0  0  0  0  0  0
  159.8170  214.4520  147.4780 C   0  0  0  0  0  2  0  0  0  0  0  0
  163.4030  213.4400  148.0210 O   0  0  0  0  0  1  0  0  0  0  0  0
  160.7140  213.2130  144.0730 O   0  0  0  0  0  1  0  0  0  0  0  0
  159.6370  213.7420  146.1340 C   0  0  0  0  0  2  0  0  0  0  0  0
  162.3030  213.9820  147.3530 C   0  0  2  0  0  3  0  0  0  0  0  0
  161.0430  213.9280  148.2340 C   0  0  2  0  0  3  0  0  0  0  0  0
  162.0930  213.2690  146.0190 C   0  0  0  0  0  2  0  0  0  0  0  0
  1  6  1  0  0  0  0
  1  9  1  0  0  0  0
  2  3  1  6  0  0  0
  2  5  1  0  0  0  0
  3  7  1  0  0  0  0
  4 11  1  0  0  0  0
  4  7  2  0  0  0  0
  5 16  2  0  0  0  0
  5 14  1  0  0  0  0
  8 23  1  1  0  0  0
  8 13  1  0  0  0  0
  8 12  1  0  0  0  0
 10 19  1  0  0  0  0
 10 18  1  0  0  0  0
 12 16  1  0  0  0  0
 13 18  1  6  0  0  0
 13  2  1  0  0  0  0
 14  1  2  0  0  0  0
 15  4  1  0  0  0  0
 16 17  1  0  0  0  0
 17  6  2  0  0  0  0
 19  3  2  0  0  0  0
 20 15  2  0  0  0  0
 20 19  1  0  0  0  0
 21 22  2  0  0  0  0
 22 23  1  0  0  0  0
 24 27  1  6  0  0  0
 24 31  1  0  0  0  0
 24 28  1  0  0  0  0
 25 30  1  0  0  0  0
 28 25  1  0  0  0  0
 29 26  1  1  0  0  0
 29 30  1  0  0  0  0
 30 22  1  6  0  0  0
 31 29  1  0  0  0  0
M  END
>  <MODEL>
6

>  <REMARK>
 VINA RESULT:      -5.6      3.404      6.624
  Name = 
  2 active torsions:
  status: ('A' for Active; 'I' for Inactive)
    1  A    between atoms: C_5  and  C_30
    2  A    between atoms: C_10  and  N_16
                            x       y       z     vdW  Elec       q    Type
                         _______ _______ _______ _____ _____    ______ ____

>  <TORSDO>
F 2

$$$$
=
 OpenBabel11122413283D

 31 35  0  0  1  0  0  0  0  0999 V2000
  162.1290  206.4720  147.5500 C   0  0  0  0  0  0  0  0  0  0  0  0
  162.4200  209.1350  150.2540 C   0  0  2  0  0  3  0  0  0  0  0  0
  161.7730  210.3930  149.6890 C   0  0  0  0  0  0  0  0  0  0  0  0
  161.0980  211.7160  147.7570 C   0  0  0  0  0  0  0  0  0  0  0  0
  162.0060  207.8700  149.5350 C   0  0  0  0  0  0  0  0  0  0  0  0
  161.2120  205.5850  148.1120 C   0  0  0  0  0  3  0  0  0  0  0  0
  161.6140  210.5380  148.3010 C   0  0  0  0  0  3  0  0  0  0  0  0
  160.8270  208.4930  152.1060 C   0  0  2  0  0  3  0  0  0  0  0  0
  162.6330  206.2350  146.3150 F   0  0  0  0  0  0  0  0  0  0  0  0
  161.5810  211.4140  152.0200 C   0  0  0  0  0  2  0  0  0  0  0  0
  160.9380  211.8300  146.4170 F   0  0  0  0  0  0  0  0  0  0  0  0
  160.6150  207.0960  151.5250 C   0  0  0  0  0  2  0  0  0  0  0  0
  162.2400  208.9970  151.7770 C   0  0  2  0  0  3  0  0  0  0  0  0
  162.5270  207.6070  148.2600 C   0  0  0  0  0  3  0  0  0  0  0  0
  160.7520  212.7770  148.5940 C   0  0  0  0  0  3  0  0  0  0  0  0
  161.0830  206.9640  150.1040 C   0  0  0  0  0  0  0  0  0  0  0  0
  160.6990  205.8250  149.3890 C   0  0  0  0  0  3  0  0  0  0  0  0
  162.5580  210.3280  152.4600 C   0  0  0  0  0  2  0  0  0  0  0  0
  161.4540  211.4900  150.5270 C   0  0  0  0  0  0  0  0  0  0  0  0
  160.9290  212.6620  149.9740 C   0  0  0  0  0  3  0  0  0  0  0  0
  159.2060  210.3030  153.5980 O   0  0  0  0  0  0  0  0  0  0  0  0
  159.7920  209.3840  154.2340 C   0  0  0  0  0  0  0  0  0  0  0  0
  160.6250  208.4480  153.5480 N   0  0  0  0  0  2  0  0  0  0  0  0
  162.1190  209.9370  157.1720 C   0  0  1  0  0  3  0  0  0  0  0  0
  159.8180  210.6140  156.4290 C   0  0  0  0  0  2  0  0  0  0  0  0
  160.4170  206.9770  155.6630 O   0  0  0  0  0  1  0  0  0  0  0  0
  163.4560  210.3280  157.2100 O   0  0  0  0  0  1  0  0  0  0  0  0
  161.2900  211.0240  156.4930 C   0  0  0  0  0  2  0  0  0  0  0  0
  160.5340  208.1850  156.3520 C   0  0  2  0  0  3  0  0  0  0  0  0
  159.6360  209.2650  155.7240 C   0  0  2  0  0  3  0  0  0  0  0  0
  161.9950  208.6230  156.4050 C   0  0  0  0  0  2  0  0  0  0  0  0
  1  6  2  0  0  0  0
  1 14  1  0  0  0  0
  2  5  1  6  0  0  0
  2 13  1  0  0  0  0
  3  2  1  0  0  0  0
  3 19  1  0  0  0  0
  4  7  1  0  0  0  0
  4 15  2  0  0  0  0
  5 16  1  0  0  0  0
  6 17  1  0  0  0  0
  7  3  2  0  0  0  0
  8 23  1  1  0  0  0
  9  1  1  0  0  0  0
 10 18  1  0  0  0  0
 11  4  1  0  0  0  0
 12  8  1  0  0  0  0
 13  8  1  0  0  0  0
 13 18  1  1  0  0  0
 14  5  2  0  0  0  0
 15 20  1  0  0  0  0
 16 12  1  0  0  0  0
 17 16  2  0  0  0  0
 19 10  1  0  0  0  0
 20 19  2  0  0  0  0
 21 22  2  0  0  0  0
 23 22  1  0  0  0  0
 24 27  1  6  0  0  0
 25 28  1  0  0  0  0
 28 24  1  0  0  0  0
 29 26  1  6  0  0  0
 29 31  1  0  0  0  0
 30 22  1  6  0  0  0
 30 29  1  0  0  0  0
 30 25  1  0  0  0  0
 31 24  1  0  0  0  0
M  END
>  <MODEL>
7

>  <REMARK>
 VINA RESULT:      -5.6      3.165      6.369
  Name = 
  2 active torsions:
  status: ('A' for Active; 'I' for Inactive)
    1  A    between atoms: C_5  and  C_30
    2  A    between atoms: C_10  and  N_16
                            x       y       z     vdW  Elec       q    Type
                         _______ _______ _______ _____ _____    ______ ____

>  <TORSDO>
F 2

$$$$
=
 OpenBabel11122413283D

 31 35  0  0  1  0  0  0  0  0999 V2000
  160.8180  201.4110  149.0700 C   0  0  0  0  0  0  0  0  0  0  0  0
  162.2690  204.8060  149.9970 C   0  0  2  0  0  3  0  0  0  0  0  0
  161.7070  205.8010  148.9890 C   0  0  0  0  0  0  0  0  0  0  0  0
  160.7570  206.2480  146.7900 C   0  0  0  0  0  0  0  0  0  0  0  0
  161.4720  203.5220  150.0820 C   0  0  0  0  0  0  0  0  0  0  0  0
  159.9560  201.1610  150.1380 C   0  0  0  0  0  3  0  0  0  0  0  0
  161.2020  205.3480  147.7600 C   0  0  0  0  0  3  0  0  0  0  0  0
  161.1580  205.5280  152.1470 C   0  0  2  0  0  3  0  0  0  0  0  0
  160.9200  200.5180  148.0570 F   0  0  0  0  0  0  0  0  0  0  0  0
  162.3290  207.7660  150.4940 C   0  0  0  0  0  2  0  0  0  0  0  0
  160.2600  205.7900  145.6170 F   0  0  0  0  0  0  0  0  0  0  0  0
  160.5690  204.1390  152.3840 C   0  0  0  0  0  2  0  0  0  0  0  0
  162.4910  205.4200  151.3910 C   0  0  2  0  0  3  0  0  0  0  0  0
  161.5760  202.5840  149.0440 C   0  0  0  0  0  3  0  0  0  0  0  0
  160.8320  207.6210  147.0270 C   0  0  0  0  0  3  0  0  0  0  0  0
  160.6040  203.2610  151.1660 C   0  0  0  0  0  0  0  0  0  0  0  0
  159.8580  202.0780  151.1860 C   0  0  0  0  0  3  0  0  0  0  0  0
  163.1970  206.7710  151.2570 C   0  0  0  0  0  2  0  0  0  0  0  0
  161.8140  207.1980  149.2050 C   0  0  0  0  0  0  0  0  0  0  0  0
  161.3570  208.0930  148.2320 C   0  0  0  0  0  3  0  0  0  0  0  0
  160.4550  208.2300  152.7260 O   0  0  0  0  0  0  0  0  0  0  0  0
  160.9700  207.5490  153.6550 C   0  0  0  0  0  0  0  0  0  0  0  0
  161.3520  206.1920  153.4290 N   0  0  0  0  0  2  0  0  0  0  0  0
  159.0620  210.0300  155.7900 C   0  0  1  0  0  3  0  0  0  0  0  0
  160.1150  207.7620  156.0120 C   0  0  0  0  0  2  0  0  0  0  0  0
  162.3440  210.0420  154.0110 O   0  0  0  0  0  1  0  0  0  0  0  0
  157.8650  210.7030  155.5490 O   0  0  0  0  0  1  0  0  0  0  0  0
  158.8130  208.5250  155.7610 C   0  0  0  0  0  2  0  0  0  0  0  0
  161.4000  209.6820  154.9740 C   0  0  2  0  0  3  0  0  0  0  0  0
  161.2050  208.1570  155.0090 C   0  0  2  0  0  3  0  0  0  0  0  0
  160.0850  210.4160  154.7250 C   0  0  0  0  0  2  0  0  0  0  0  0
  1  6  1  0  0  0  0
  2  3  1  6  0  0  0
  2  5  1  0  0  0  0
  2 13  1  0  0  0  0
  3 19  1  0  0  0  0
  4 15  2  0  0  0  0
  4  7  1  0  0  0  0
  5 16  2  0  0  0  0
  6 17  2  0  0  0  0
  7  3  2  0  0  0  0
  8 12  1  0  0  0  0
  8 23  1  1  0  0  0
  9  1  1  0  0  0  0
 10 18  1  0  0  0  0
 11  4  1  0  0  0  0
 13 18  1  6  0  0  0
 13  8  1  0  0  0  0
 14  1  2  0  0  0  0
 14  5  1  0  0  0  0
 15 20  1  0  0  0  0
 16 17  1  0  0  0  0
 16 12  1  0  0  0  0
 19 10  1  0  0  0  0
 20 19  2  0  0  0  0
 21 22  2  0  0  0  0
 23 22  1  0  0  0  0
 24 27  1  6  0  0  0
 28 24  1  0  0  0  0
 28 25  1  0  0  0  0
 29 26  1  6  0  0  0
 29 30  1  0  0  0  0
 30 22  1  6  0  0  0
 30 25  1  0  0  0  0
 31 29  1  0  0  0  0
 31 24  1  0  0  0  0
M  END
>  <MODEL>
8

>  <REMARK>
 VINA RESULT:      -5.4      2.360      4.653
  Name = 
  2 active torsions:
  status: ('A' for Active; 'I' for Inactive)
    1  A    between atoms: C_5  and  C_30
    2  A    between atoms: C_10  and  N_16
                            x       y       z     vdW  Elec       q    Type
                         _______ _______ _______ _____ _____    ______ ____

>  <TORSDO>
F 2

$$$$
=
 OpenBabel11122413283D

 31 35  0  0  1  0  0  0  0  0999 V2000
  160.7890  207.3980  155.4000 C   0  0  0  0  0  0  0  0  0  0  0  0
  162.0350  207.9950  151.8540 C   0  0  2  0  0  3  0  0  0  0  0  0
  161.4110  206.9040  150.9910 C   0  0  0  0  0  0  0  0  0  0  0  0
  160.4290  204.6820  150.8070 C   0  0  0  0  0  0  0  0  0  0  0  0
  161.3180  208.2050  153.1690 C   0  0  0  0  0  0  0  0  0  0  0  0
  159.9470  208.4920  155.6010 C   0  0  0  0  0  3  0  0  0  0  0  0
  160.9300  205.7270  151.5860 C   0  0  0  0  0  3  0  0  0  0  0  0
  160.8890  210.0790  151.0030 C   0  0  2  0  0  3  0  0  0  0  0  0
  160.9420  206.4710  156.3760 F   0  0  0  0  0  0  0  0  0  0  0  0
  161.9180  208.2160  148.8610 C   0  0  0  0  0  2  0  0  0  0  0  0
  159.9570  203.5610  151.4010 F   0  0  0  0  0  0  0  0  0  0  0  0
  160.3860  210.4470  152.3970 C   0  0  0  0  0  2  0  0  0  0  0  0
  162.2240  209.3240  151.1000 C   0  0  2  0  0  3  0  0  0  0  0  0
  161.4740  207.2570  154.1910 C   0  0  0  0  0  3  0  0  0  0  0  0
  160.4220  204.7900  149.4160 C   0  0  0  0  0  3  0  0  0  0  0  0
  160.4700  209.3160  153.3800 C   0  0  0  0  0  0  0  0  0  0  0  0
  159.7970  209.4520  154.5990 C   0  0  0  0  0  3  0  0  0  0  0  0
  162.8460  209.0600  149.7280 C   0  0  0  0  0  2  0  0  0  0  0  0
  161.4340  206.9890  149.5760 C   0  0  0  0  0  0  0  0  0  0  0  0
  160.9210  205.9420  148.8050 C   0  0  0  0  0  3  0  0  0  0  0  0
  159.5560  212.5500  151.4960 O   0  0  0  0  0  0  0  0  0  0  0  0
  160.3530  212.5020  150.5190 C   0  0  0  0  0  0  0  0  0  0  0  0
  161.0470  211.2920  150.2130 N   0  0  0  0  0  2  0  0  0  0  0  0
  159.2230  213.4870  147.0400 C   0  0  1  0  0  3  0  0  0  0  0  0
  159.2690  214.4530  149.3570 C   0  0  0  0  0  2  0  0  0  0  0  0
  162.5010  212.6670  148.6260 O   0  0  0  0  0  1  0  0  0  0  0  0
  158.4340  212.8050  146.1150 O   0  0  0  0  0  1  0  0  0  0  0  0
  158.4220  213.7140  148.3190 C   0  0  0  0  0  2  0  0  0  0  0  0
  161.3470  213.4040  148.3570 C   0  0  2  0  0  3  0  0  0  0  0  0
  160.5760  213.7100  149.6530 C   0  0  2  0  0  3  0  0  0  0  0  0
  160.4760  212.6700  147.3400 C   0  0  0  0  0  2  0  0  0  0  0  0
  1  6  1  0  0  0  0
  1  9  1  0  0  0  0
  2  3  1  6  0  0  0
  2  5  1  0  0  0  0
  3  7  1  0  0  0  0
  4 11  1  0  0  0  0
  4  7  2  0  0  0  0
  5 16  2  0  0  0  0
  5 14  1  0  0  0  0
  8 23  1  6  0  0  0
  8 13  1  0  0  0  0
  8 12  1  0  0  0  0
 10 19  1  0  0  0  0
 10 18  1  0  0  0  0
 12 16  1  0  0  0  0
 13 18  1  6  0  0  0
 13  2  1  0  0  0  0
 14  1  2  0  0  0  0
 15  4  1  0  0  0  0
 16 17  1  0  0  0  0
 17  6  2  0  0  0  0
 19  3  2  0  0  0  0
 20 15  2  0  0  0  0
 20 19  1  0  0  0  0
 22 21  2  0  0  0  0
 23 22  1  0  0  0  0
 24 27  1  6  0  0  0
 24 31  1  0  0  0  0
 24 28  1  0  0  0  0
 25 30  1  0  0  0  0
 28 25  1  0  0  0  0
 29 26  1  1  0  0  0
 29 30  1  0  0  0  0
 30 22  1  6  0  0  0
 31 29  1  0  0  0  0
M  END
>  <MODEL>
9

>  <REMARK>
 VINA RESULT:      -5.4      3.072      6.104
  Name = 
  2 active torsions:
  status: ('A' for Active; 'I' for Inactive)
    1  A    between atoms: C_5  and  C_30
    2  A    between atoms: C_10  and  N_16
                            x       y       z     vdW  Elec       q    Type
                         _______ _______ _______ _____ _____    ______ ____

>  <TORSDO>
F 2

$$$$
