=
 OpenBabel11122414263D

 34 41  0  0  1  0  0  0  0  0999 V2000
  161.7230  208.3570  152.6400 C   0  0  1  0  0  3  0  0  0  0  0  0
  161.3110  206.0330  153.1780 C   0  0  0  0  0  2  0  0  0  0  0  0
  161.8240  213.6650  148.6360 C   0  0  0  0  0  0  0  0  0  0  0  0
  160.9580  210.5600  151.7310 C   0  0  0  0  0  0  0  0  0  0  0  0
  161.7660  211.3360  149.4300 C   0  0  2  0  0  3  0  0  0  0  0  0
  162.7920  212.2080  147.3300 C   0  0  0  0  0  2  0  0  0  0  0  0
  163.0320  213.6260  147.7270 C   0  0  0  0  0  2  0  0  0  0  0  0
  159.9820  213.8780  150.1180 C   0  0  0  0  0  2  0  0  0  0  0  0
  161.9580  206.6270  151.0850 C   0  0  2  0  0  3  0  0  0  0  0  0
  160.8010  205.1410  148.5450 C   0  0  0  0  0  2  0  0  0  0  0  0
  161.6150  209.8760  149.0320 C   0  0  0  0  0  2  0  0  0  0  0  0
  160.2620  212.7010  150.9460 N   0  0  0  0  0  0  0  0  0  0  0  0
  161.7430  207.5030  149.8390 C   0  0  1  0  0  3  0  0  0  0  0  0
  161.3980  204.7270  152.4000 C   0  0  0  0  0  2  0  0  0  0  0  0
  160.9240  211.6010  150.6800 C   0  0  0  0  0  0  0  0  0  0  0  0
  161.2080  214.4520  149.4960 C   0  0  0  0  0  3  0  0  0  0  0  0
  160.5830  204.7370  150.0170 C   0  0  2  0  0  3  0  0  0  0  0  0
  161.5740  209.3760  151.5220 C   0  0  0  0  0  0  0  0  0  0  0  0
  161.5840  212.2430  148.2120 C   0  0  2  0  0  3  0  0  0  0  0  0
  162.1140  208.9660  150.1580 C   0  0  2  0  0  3  0  0  0  0  0  0
  159.9750  209.7410  153.8310 C   0  0  0  0  0  2  0  0  0  0  0  0
  162.2390  205.5530  148.2250 C   0  0  0  0  0  2  0  0  0  0  0  0
  160.3150  210.8050  152.9510 O   0  0  0  0  0  0  0  0  0  0  0  0
  162.5420  207.0020  148.6270 C   0  0  0  0  0  2  0  0  0  0  0  0
  161.7330  205.1230  150.9710 C   0  0  1  0  0  3  0  0  0  0  0  0
  161.1770  208.8280  154.0010 C   0  0  0  0  0  2  0  0  0  0  0  0
  161.1360  207.0920  152.1940 N   0  0  2  0  0  0  0  0  0  0  0  0
  160.3580  203.3580  150.0770 O   0  0  0  0  0  0  0  0  0  0  0  0
  161.0830  202.8290  149.0070 C   0  0  0  0  0  2  0  0  0  0  0  0
  160.8240  201.3060  146.4260 O   0  0  0  0  0  0  0  0  0  0  0  0
  161.5360  200.4540  148.4440 C   0  0  0  0  0  2  0  0  0  0  0  0
  160.4760  201.5030  148.5770 C   0  0  2  0  0  3  0  0  0  0  0  0
  161.4920  200.2060  146.9740 C   0  0  0  0  0  2  0  0  0  0  0  0
  159.8870  201.6340  147.3100 O   0  0  0  0  0  0  0  0  0  0  0  0
  1 26  1  1  0  0  0
  3 16  2  0  0  0  0
  4 23  1  0  0  0  0
  5 11  1  6  0  0  0
  5 15  1  0  0  0  0
  6  7  1  0  0  0  0
  6 19  1  0  0  0  0
  7  3  1  0  0  0  0
  8 12  1  0  0  0  0
  9 27  1  0  0  0  0
 10 17  1  0  0  0  0
 11 20  1  0  0  0  0
 13 20  1  0  0  0  0
 13  9  1  0  0  0  0
 14  2  1  0  0  0  0
 15 12  2  0  0  0  0
 15  4  1  0  0  0  0
 16  8  1  0  0  0  0
 17 28  1  0  0  0  0
 17 25  1  0  0  0  0
 18  4  2  0  0  0  0
 18  1  1  0  0  0  0
 19  3  1  0  0  0  0
 19  5  1  0  0  0  0
 20 18  1  0  0  0  0
 21 26  1  0  0  0  0
 22 10  1  0  0  0  0
 22 24  1  0  0  0  0
 23 21  1  0  0  0  0
 24 13  1  0  0  0  0
 25  9  1  0  0  0  0
 25 14  1  0  0  0  0
 27  1  1  0  0  0  0
 27  2  1  0  0  0  0
 29 28  1  0  0  0  0
 30 33  1  0  0  0  0
 30 34  1  0  0  0  0
 31 32  1  0  0  0  0
 32 29  1  0  0  0  0
 33 31  1  0  0  0  0
 34 32  1  0  0  0  0
M  END
>  <MODEL>
1

>  <REMARK>
 VINA RESULT:      -8.2      0.000      0.000
  Name = 
  3 active torsions:
  status: ('A' for Active; 'I' for Inactive)
    1  A    between atoms: C_17  and  O_28
    2  A    between atoms: O_28  and  C_29
    3  A    between atoms: C_29  and  C_32
                            x       y       z     vdW  Elec       q    Type
                         _______ _______ _______ _____ _____    ______ ____

>  <TORSDO>
F 3

$$$$
=
 OpenBabel11122414263D

 34 41  0  0  1  0  0  0  0  0999 V2000
  162.3260  208.9850  151.7390 C   0  0  1  0  0  3  0  0  0  0  0  0
  161.8390  210.8940  153.1460 C   0  0  0  0  0  2  0  0  0  0  0  0
  161.3060  202.8530  149.3770 C   0  0  0  0  0  0  0  0  0  0  0  0
  161.6120  207.2560  150.0750 C   0  0  0  0  0  0  0  0  0  0  0  0
  161.2480  204.8390  150.8300 C   0  0  2  0  0  3  0  0  0  0  0  0
  161.1860  202.4410  151.5170 C   0  0  0  0  0  2  0  0  0  0  0  0
  161.8450  201.8150  150.3350 C   0  0  0  0  0  2  0  0  0  0  0  0
  160.5610  204.4160  147.7530 C   0  0  0  0  0  2  0  0  0  0  0  0
  161.4120  208.7900  153.8830 C   0  0  2  0  0  3  0  0  0  0  0  0
  158.8700  208.1740  155.6580 C   0  0  0  0  0  2  0  0  0  0  0  0
  160.6530  205.4600  152.0850 C   0  0  0  0  0  2  0  0  0  0  0  0
  161.0100  205.6340  148.4350 N   0  0  0  0  0  0  0  0  0  0  0  0
  160.7490  207.4210  153.6480 C   0  0  1  0  0  3  0  0  0  0  0  0
  161.2760  211.0670  154.5510 C   0  0  0  0  0  2  0  0  0  0  0  0
  161.2310  205.8760  149.7040 C   0  0  0  0  0  0  0  0  0  0  0  0
  161.3730  203.2200  148.1120 C   0  0  0  0  0  3  0  0  0  0  0  0
  159.3700  209.5700  155.2330 C   0  0  2  0  0  3  0  0  0  0  0  0
  161.8090  207.6060  151.3660 C   0  0  0  0  0  0  0  0  0  0  0  0
  160.6320  203.4620  150.5750 C   0  0  2  0  0  3  0  0  0  0  0  0
  161.4870  206.6680  152.5220 C   0  0  2  0  0  3  0  0  0  0  0  0
  161.7200  209.6090  149.3660 C   0  0  0  0  0  2  0  0  0  0  0  0
  159.9850  207.2280  156.1040 C   0  0  0  0  0  2  0  0  0  0  0  0
  161.7440  208.2180  149.0660 O   0  0  0  0  0  0  0  0  0  0  0  0
  160.7070  206.5670  154.9230 C   0  0  0  0  0  2  0  0  0  0  0  0
  160.8940  209.6700  155.0140 C   0  0  1  0  0  3  0  0  0  0  0  0
  162.6520  209.8860  150.5320 C   0  0  0  0  0  2  0  0  0  0  0  0
  161.3760  209.5970  152.6710 N   0  0  2  0  0  0  0  0  0  0  0  0
  158.9650  210.5050  156.1900 O   0  0  0  0  0  0  0  0  0  0  0  0
  157.6710  210.8710  155.8110 C   0  0  0  0  0  2  0  0  0  0  0  0
  156.0340  213.2680  155.0230 O   0  0  0  0  0  0  0  0  0  0  0  0
  158.3270  213.1950  155.2330 C   0  0  0  0  0  2  0  0  0  0  0  0
  157.7320  211.9220  154.7150 C   0  0  2  0  0  3  0  0  0  0  0  0
  157.1490  214.1050  155.1400 C   0  0  0  0  0  2  0  0  0  0  0  0
  156.4340  212.2380  154.2820 O   0  0  0  0  0  0  0  0  0  0  0  0
  1 26  1  6  0  0  0
  1 27  1  0  0  0  0
  2 14  1  0  0  0  0
  3  7  1  0  0  0  0
  3 19  1  0  0  0  0
  4 18  2  0  0  0  0
  5 11  1  1  0  0  0
  7  6  1  0  0  0  0
  8 16  1  0  0  0  0
  8 12  1  0  0  0  0
  9 25  1  0  0  0  0
 10 22  1  0  0  0  0
 11 20  1  0  0  0  0
 12 15  2  0  0  0  0
 13  9  1  0  0  0  0
 13 24  1  0  0  0  0
 14 25  1  0  0  0  0
 15  4  1  0  0  0  0
 15  5  1  0  0  0  0
 16  3  2  0  0  0  0
 17 10  1  0  0  0  0
 17 28  1  0  0  0  0
 18  1  1  0  0  0  0
 18 20  1  0  0  0  0
 19  5  1  0  0  0  0
 19  6  1  0  0  0  0
 20 13  1  0  0  0  0
 21 26  1  0  0  0  0
 23 21  1  0  0  0  0
 23  4  1  0  0  0  0
 24 22  1  0  0  0  0
 25 17  1  0  0  0  0
 27  2  1  0  0  0  0
 27  9  1  0  0  0  0
 29 28  1  0  0  0  0
 30 33  1  0  0  0  0
 32 31  1  0  0  0  0
 32 29  1  0  0  0  0
 33 31  1  0  0  0  0
 34 32  1  0  0  0  0
 34 30  1  0  0  0  0
M  END
>  <MODEL>
2

>  <REMARK>
 VINA RESULT:      -7.8      3.055      8.732
  Name = 
  3 active torsions:
  status: ('A' for Active; 'I' for Inactive)
    1  A    between atoms: C_17  and  O_28
    2  A    between atoms: O_28  and  C_29
    3  A    between atoms: C_29  and  C_32
                            x       y       z     vdW  Elec       q    Type
                         _______ _______ _______ _____ _____    ______ ____

>  <TORSDO>
F 3

$$$$
=
 OpenBabel11122414263D

 34 41  0  0  1  0  0  0  0  0999 V2000
  161.3870  207.5560  154.2910 C   0  0  1  0  0  3  0  0  0  0  0  0
  161.9700  205.3410  153.5080 C   0  0  0  0  0  2  0  0  0  0  0  0
  158.4960  213.5250  153.8080 C   0  0  0  0  0  0  0  0  0  0  0  0
  159.6850  209.3270  154.7730 C   0  0  0  0  0  0  0  0  0  0  0  0
  159.4730  211.3460  153.2150 C   0  0  2  0  0  3  0  0  0  0  0  0
  159.4810  213.4410  151.8620 C   0  0  0  0  0  2  0  0  0  0  0  0
  159.3250  214.4520  152.9480 C   0  0  0  0  0  2  0  0  0  0  0  0
  157.2080  212.1850  155.2840 C   0  0  0  0  0  2  0  0  0  0  0  0
  161.7370  207.0520  152.0350 C   0  0  2  0  0  3  0  0  0  0  0  0
  160.4740  206.5730  149.1760 C   0  0  0  0  0  2  0  0  0  0  0  0
  159.7220  210.3420  152.0990 C   0  0  0  0  0  2  0  0  0  0  0  0
  158.1020  211.0230  155.3220 N   0  0  0  0  0  0  0  0  0  0  0  0
  160.8830  208.2050  151.4800 C   0  0  1  0  0  3  0  0  0  0  0  0
  162.2690  204.7370  152.1430 C   0  0  0  0  0  2  0  0  0  0  0  0
  158.9920  210.5960  154.4600 C   0  0  0  0  0  0  0  0  0  0  0  0
  157.9260  213.4580  154.9960 C   0  0  0  0  0  3  0  0  0  0  0  0
  160.8450  205.4840  150.2040 C   0  0  2  0  0  3  0  0  0  0  0  0
  160.5800  208.7880  153.9170 C   0  0  0  0  0  0  0  0  0  0  0  0
  158.6460  212.5230  152.6970 C   0  0  2  0  0  3  0  0  0  0  0  0
  160.8060  209.3450  152.5170 C   0  0  2  0  0  3  0  0  0  0  0  0
  159.6970  207.2900  156.1520 C   0  0  0  0  0  2  0  0  0  0  0  0
  161.5250  207.6750  149.0390 C   0  0  0  0  0  2  0  0  0  0  0  0
  159.3810  208.6650  155.9700 O   0  0  0  0  0  0  0  0  0  0  0  0
  161.4170  208.7360  150.1420 C   0  0  0  0  0  2  0  0  0  0  0  0
  162.0180  205.8510  151.1380 C   0  0  1  0  0  3  0  0  0  0  0  0
  161.1330  207.0460  155.7220 C   0  0  0  0  0  2  0  0  0  0  0  0
  161.1660  206.5310  153.2690 N   0  0  2  0  0  0  0  0  0  0  0  0
  161.1340  204.2990  149.5220 O   0  0  0  0  0  0  0  0  0  0  0  0
  160.8700  204.5830  148.1800 C   0  0  0  0  0  2  0  0  0  0  0  0
  161.1560  203.9170  145.2610 O   0  0  0  0  0  0  0  0  0  0  0  0
  162.6960  205.0320  146.5590 C   0  0  0  0  0  2  0  0  0  0  0  0
  161.9470  203.9690  147.3000 C   0  0  2  0  0  3  0  0  0  0  0  0
  162.2920  204.7250  145.1560 C   0  0  0  0  0  2  0  0  0  0  0  0
  161.3580  203.1470  146.3250 O   0  0  0  0  0  0  0  0  0  0  0  0
  1 26  1  1  0  0  0
  3 16  2  0  0  0  0
  4 23  1  0  0  0  0
  5 11  1  6  0  0  0
  5 15  1  0  0  0  0
  6 19  1  0  0  0  0
  6  7  1  0  0  0  0
  7  3  1  0  0  0  0
  8 12  1  0  0  0  0
  9 27  1  0  0  0  0
 10 17  1  0  0  0  0
 11 20  1  0  0  0  0
 13  9  1  0  0  0  0
 13 20  1  0  0  0  0
 14  2  1  0  0  0  0
 15  4  1  0  0  0  0
 15 12  2  0  0  0  0
 16  8  1  0  0  0  0
 17 25  1  0  0  0  0
 18  1  1  0  0  0  0
 18  4  2  0  0  0  0
 19  5  1  0  0  0  0
 19  3  1  0  0  0  0
 20 18  1  0  0  0  0
 22 10  1  0  0  0  0
 22 24  1  0  0  0  0
 23 21  1  0  0  0  0
 24 13  1  0  0  0  0
 25  9  1  0  0  0  0
 25 14  1  0  0  0  0
 26 21  1  0  0  0  0
 27  2  1  0  0  0  0
 27  1  1  0  0  0  0
 28 17  1  0  0  0  0
 29 28  1  0  0  0  0
 30 34  1  0  0  0  0
 31 32  1  0  0  0  0
 32 29  1  0  0  0  0
 33 30  1  0  0  0  0
 33 31  1  0  0  0  0
 34 32  1  0  0  0  0
M  END
>  <MODEL>
3

>  <REMARK>
 VINA RESULT:      -7.5      2.565      3.700
  Name = 
  3 active torsions:
  status: ('A' for Active; 'I' for Inactive)
    1  A    between atoms: C_17  and  O_28
    2  A    between atoms: O_28  and  C_29
    3  A    between atoms: C_29  and  C_32
                            x       y       z     vdW  Elec       q    Type
                         _______ _______ _______ _____ _____    ______ ____

>  <TORSDO>
F 3

$$$$
=
 OpenBabel11122414263D

 34 41  0  0  1  0  0  0  0  0999 V2000
  162.5390  207.8420  150.0440 C   0  0  1  0  0  3  0  0  0  0  0  0
  162.3310  209.9430  151.2290 C   0  0  0  0  0  2  0  0  0  0  0  0
  160.9810  201.5120  148.7300 C   0  0  0  0  0  0  0  0  0  0  0  0
  161.5280  205.9470  148.7580 C   0  0  0  0  0  0  0  0  0  0  0  0
  161.2060  203.6720  149.8860 C   0  0  2  0  0  3  0  0  0  0  0  0
  161.1740  201.3940  150.9010 C   0  0  0  0  0  2  0  0  0  0  0  0
  161.6260  200.5830  149.7340 C   0  0  0  0  0  2  0  0  0  0  0  0
  160.0470  202.8820  147.0320 C   0  0  0  0  0  2  0  0  0  0  0  0
  161.9550  207.9790  152.3050 C   0  0  2  0  0  3  0  0  0  0  0  0
  159.6940  207.7370  154.5000 C   0  0  0  0  0  2  0  0  0  0  0  0
  160.8290  204.4850  151.1160 C   0  0  0  0  0  2  0  0  0  0  0  0
  160.6330  204.1550  147.4650 N   0  0  0  0  0  0  0  0  0  0  0  0
  161.2220  206.6280  152.3610 C   0  0  1  0  0  3  0  0  0  0  0  0
  161.9940  210.3280  152.6630 C   0  0  0  0  0  2  0  0  0  0  0  0
  161.0510  204.5510  148.6430 C   0  0  0  0  0  0  0  0  0  0  0  0
  160.8670  201.7030  147.4300 C   0  0  0  0  0  3  0  0  0  0  0  0
  160.1670  209.0360  153.8180 C   0  0  2  0  0  3  0  0  0  0  0  0
  161.9290  206.4530  149.9450 C   0  0  0  0  0  0  0  0  0  0  0  0
  160.5160  202.3080  149.9170 C   0  0  2  0  0  3  0  0  0  0  0  0
  161.7560  205.6950  151.2550 C   0  0  2  0  0  3  0  0  0  0  0  0
  161.6000  208.1760  147.7210 C   0  0  0  0  0  2  0  0  0  0  0  0
  160.8340  206.8020  154.9060 C   0  0  0  0  0  2  0  0  0  0  0  0
  161.5350  206.7590  147.6170 O   0  0  0  0  0  0  0  0  0  0  0  0
  161.3470  205.9530  153.7350 C   0  0  0  0  0  2  0  0  0  0  0  0
  161.6430  209.0270  153.3660 C   0  0  1  0  0  3  0  0  0  0  0  0
  162.7060  208.5560  148.6900 C   0  0  0  0  0  2  0  0  0  0  0  0
  161.7610  208.6200  151.0110 N   0  0  2  0  0  0  0  0  0  0  0  0
  159.9420  210.1090  154.6840 O   0  0  0  0  0  0  0  0  0  0  0  0
  159.0290  210.9270  154.0140 C   0  0  0  0  0  2  0  0  0  0  0  0
  156.6910  212.8150  153.9000 O   0  0  0  0  0  0  0  0  0  0  0  0
  156.9660  211.0780  155.3860 C   0  0  0  0  0  2  0  0  0  0  0  0
  158.2470  211.7600  155.0180 C   0  0  2  0  0  3  0  0  0  0  0  0
  155.9730  212.0290  154.8080 C   0  0  0  0  0  2  0  0  0  0  0  0
  157.8900  212.9910  154.4440 O   0  0  0  0  0  0  0  0  0  0  0  0
  1 26  1  6  0  0  0
  1 27  1  0  0  0  0
  2 14  1  0  0  0  0
  3  7  1  0  0  0  0
  3 19  1  0  0  0  0
  4 18  2  0  0  0  0
  5 19  1  0  0  0  0
  5 11  1  1  0  0  0
  7  6  1  0  0  0  0
  8 16  1  0  0  0  0
  8 12  1  0  0  0  0
  9 13  1  0  0  0  0
  9 25  1  0  0  0  0
 10 22  1  0  0  0  0
 11 20  1  0  0  0  0
 12 15  2  0  0  0  0
 13 24  1  0  0  0  0
 14 25  1  0  0  0  0
 15  4  1  0  0  0  0
 15  5  1  0  0  0  0
 16  3  2  0  0  0  0
 17 10  1  0  0  0  0
 17 28  1  0  0  0  0
 18  1  1  0  0  0  0
 18 20  1  0  0  0  0
 19  6  1  0  0  0  0
 20 13  1  0  0  0  0
 21 26  1  0  0  0  0
 23 21  1  0  0  0  0
 23  4  1  0  0  0  0
 24 22  1  0  0  0  0
 25 17  1  0  0  0  0
 27  2  1  0  0  0  0
 27  9  1  0  0  0  0
 29 28  1  0  0  0  0
 29 32  1  0  0  0  0
 30 34  1  0  0  0  0
 30 33  1  0  0  0  0
 32 31  1  0  0  0  0
 33 31  1  0  0  0  0
 34 32  1  0  0  0  0
M  END
>  <MODEL>
4

>  <REMARK>
 VINA RESULT:      -6.9      2.794      8.791
  Name = 
  3 active torsions:
  status: ('A' for Active; 'I' for Inactive)
    1  A    between atoms: C_17  and  O_28
    2  A    between atoms: O_28  and  C_29
    3  A    between atoms: C_29  and  C_32
                            x       y       z     vdW  Elec       q    Type
                         _______ _______ _______ _____ _____    ______ ____

>  <TORSDO>
F 3

$$$$
=
 OpenBabel11122414263D

 34 41  0  0  1  0  0  0  0  0999 V2000
  161.4700  207.6710  154.3300 C   0  0  1  0  0  3  0  0  0  0  0  0
  162.3580  205.7370  153.1770 C   0  0  0  0  0  2  0  0  0  0  0  0
  157.9420  213.2900  154.7920 C   0  0  0  0  0  0  0  0  0  0  0  0
  159.5450  209.1240  155.0030 C   0  0  0  0  0  0  0  0  0  0  0  0
  159.2030  211.3900  153.8650 C   0  0  2  0  0  3  0  0  0  0  0  0
  159.0560  213.7110  152.9630 C   0  0  0  0  0  2  0  0  0  0  0  0
  158.7120  214.4530  154.2100 C   0  0  0  0  0  2  0  0  0  0  0  0
  156.7240  211.5500  155.8520 C   0  0  0  0  0  2  0  0  0  0  0  0
  162.0240  207.6850  152.0590 C   0  0  2  0  0  3  0  0  0  0  0  0
  161.0170  207.6850  149.0620 C   0  0  0  0  0  2  0  0  0  0  0  0
  159.6400  210.6700  152.5980 C   0  0  0  0  0  2  0  0  0  0  0  0
  157.7430  210.5020  155.7360 N   0  0  0  0  0  0  0  0  0  0  0  0
  161.0800  208.8360  151.6710 C   0  0  1  0  0  3  0  0  0  0  0  0
  162.8130  205.4640  151.7500 C   0  0  0  0  0  2  0  0  0  0  0  0
  158.7320  210.3540  154.8890 C   0  0  0  0  0  0  0  0  0  0  0  0
  157.3070  212.9210  155.8870 C   0  0  0  0  0  3  0  0  0  0  0  0
  161.4440  206.4500  149.8810 C   0  0  2  0  0  3  0  0  0  0  0  0
  160.5520  208.8670  154.1390 C   0  0  0  0  0  0  0  0  0  0  0  0
  158.2810  212.5610  153.5220 C   0  0  2  0  0  3  0  0  0  0  0  0
  160.8030  209.7220  152.9030 C   0  0  2  0  0  3  0  0  0  0  0  0
  159.7040  206.8570  155.9440 C   0  0  0  0  0  2  0  0  0  0  0  0
  161.9390  208.8920  149.2400 C   0  0  0  0  0  2  0  0  0  0  0  0
  159.2420  208.2010  156.0120 O   0  0  0  0  0  0  0  0  0  0  0  0
  161.6360  209.6840  150.5180 C   0  0  0  0  0  2  0  0  0  0  0  0
  162.5010  206.7310  150.9690 C   0  0  1  0  0  3  0  0  0  0  0  0
  161.1830  206.8520  155.6030 C   0  0  0  0  0  2  0  0  0  0  0  0
  161.4370  206.8640  153.1090 N   0  0  2  0  0  0  0  0  0  0  0  0
  161.9130  205.4670  149.0050 O   0  0  0  0  0  0  0  0  0  0  0  0
  160.8600  204.5560  148.8880 C   0  0  0  0  0  2  0  0  0  0  0  0
  159.6130  201.8870  149.4940 O   0  0  0  0  0  0  0  0  0  0  0  0
  161.2280  202.3060  147.9070 C   0  0  0  0  0  2  0  0  0  0  0  0
  161.3670  203.1450  149.1390 C   0  0  2  0  0  3  0  0  0  0  0  0
  160.2060  201.3190  148.3620 C   0  0  0  0  0  2  0  0  0  0  0  0
  160.5900  202.5260  150.1310 O   0  0  0  0  0  0  0  0  0  0  0  0
  1 26  1  1  0  0  0
  3 16  2  0  0  0  0
  4 23  1  0  0  0  0
  5 11  1  6  0  0  0
  5 15  1  0  0  0  0
  6 19  1  0  0  0  0
  6  7  1  0  0  0  0
  7  3  1  0  0  0  0
  8 16  1  0  0  0  0
  9 27  1  0  0  0  0
 10 22  1  0  0  0  0
 10 17  1  0  0  0  0
 11 20  1  0  0  0  0
 12  8  1  0  0  0  0
 13  9  1  0  0  0  0
 13 20  1  0  0  0  0
 14  2  1  0  0  0  0
 15  4  1  0  0  0  0
 15 12  2  0  0  0  0
 17 25  1  0  0  0  0
 18  1  1  0  0  0  0
 18  4  2  0  0  0  0
 19  5  1  0  0  0  0
 19  3  1  0  0  0  0
 20 18  1  0  0  0  0
 21 23  1  0  0  0  0
 22 24  1  0  0  0  0
 24 13  1  0  0  0  0
 25 14  1  0  0  0  0
 25  9  1  0  0  0  0
 26 21  1  0  0  0  0
 27  2  1  0  0  0  0
 27  1  1  0  0  0  0
 28 17  1  0  0  0  0
 29 28  1  0  0  0  0
 29 32  1  0  0  0  0
 30 34  1  0  0  0  0
 31 33  1  0  0  0  0
 31 32  1  0  0  0  0
 32 34  1  0  0  0  0
 33 30  1  0  0  0  0
M  END
>  <MODEL>
5

>  <REMARK>
 VINA RESULT:      -6.8      2.459      4.122
  Name = 
  3 active torsions:
  status: ('A' for Active; 'I' for Inactive)
    1  A    between atoms: C_17  and  O_28
    2  A    between atoms: O_28  and  C_29
    3  A    between atoms: C_29  and  C_32
                            x       y       z     vdW  Elec       q    Type
                         _______ _______ _______ _____ _____    ______ ____

>  <TORSDO>
F 3

$$$$
=
 OpenBabel11122414263D

 34 41  0  0  1  0  0  0  0  0999 V2000
  162.5210  207.8320  150.0020 C   0  0  1  0  0  3  0  0  0  0  0  0
  162.3060  209.8960  151.2490 C   0  0  0  0  0  2  0  0  0  0  0  0
  160.9890  201.5360  148.5030 C   0  0  0  0  0  0  0  0  0  0  0  0
  161.5160  205.9710  148.6620 C   0  0  0  0  0  0  0  0  0  0  0  0
  161.2060  203.6630  149.7220 C   0  0  2  0  0  3  0  0  0  0  0  0
  161.1860  201.3550  150.6690 C   0  0  0  0  0  2  0  0  0  0  0  0
  161.6400  200.5820  149.4770 C   0  0  0  0  0  2  0  0  0  0  0  0
  160.0470  202.9530  146.8470 C   0  0  0  0  0  2  0  0  0  0  0  0
  161.9400  207.8990  152.2660 C   0  0  2  0  0  3  0  0  0  0  0  0
  159.6830  207.5820  154.4570 C   0  0  0  0  0  2  0  0  0  0  0  0
  160.8270  204.4370  150.9760 C   0  0  0  0  0  2  0  0  0  0  0  0
  160.6270  204.2140  147.3170 N   0  0  0  0  0  0  0  0  0  0  0  0
  161.2130  206.5440  152.2840 C   0  0  1  0  0  3  0  0  0  0  0  0
  161.9690  210.2370  152.6940 C   0  0  0  0  0  2  0  0  0  0  0  0
  161.0460  204.5770  148.5050 C   0  0  0  0  0  0  0  0  0  0  0  0
  160.8720  201.7660  147.2090 C   0  0  0  0  0  3  0  0  0  0  0  0
  160.1500  208.9030  153.8120 C   0  0  2  0  0  3  0  0  0  0  0  0
  161.9170  206.4440  149.8630 C   0  0  0  0  0  0  0  0  0  0  0  0
  160.5220  202.2950  149.7130 C   0  0  2  0  0  3  0  0  0  0  0  0
  161.7500  205.6460  151.1500 C   0  0  2  0  0  3  0  0  0  0  0  0
  161.5770  208.2310  147.6910 C   0  0  0  0  0  2  0  0  0  0  0  0
  160.8280  206.6400  154.8330 C   0  0  0  0  0  2  0  0  0  0  0  0
  161.5180  206.8170  147.5450 O   0  0  0  0  0  0  0  0  0  0  0  0
  161.3430  205.8290  153.6370 C   0  0  0  0  0  2  0  0  0  0  0  0
  161.6250  208.9140  153.3590 C   0  0  1  0  0  3  0  0  0  0  0  0
  162.6830  208.5870  148.6690 C   0  0  0  0  0  2  0  0  0  0  0  0
  161.7410  208.5770  150.9930 N   0  0  2  0  0  0  0  0  0  0  0  0
  159.9210  209.9490  154.7110 O   0  0  0  0  0  0  0  0  0  0  0  0
  160.7490  209.6740  155.8020 C   0  0  0  0  0  2  0  0  0  0  0  0
  160.7600  212.5760  156.5920 O   0  0  0  0  0  0  0  0  0  0  0  0
  158.9750  211.1290  156.7480 C   0  0  0  0  0  2  0  0  0  0  0  0
  160.2980  210.4790  157.0100 C   0  0  2  0  0  3  0  0  0  0  0  0
  159.3710  212.5670  156.7560 C   0  0  0  0  0  2  0  0  0  0  0  0
  161.2080  211.5180  157.2610 O   0  0  0  0  0  0  0  0  0  0  0  0
  1 26  1  6  0  0  0
  1 27  1  0  0  0  0
  2 14  1  0  0  0  0
  3  7  1  0  0  0  0
  3 19  1  0  0  0  0
  4 18  2  0  0  0  0
  5 11  1  1  0  0  0
  7  6  1  0  0  0  0
  8 16  1  0  0  0  0
  8 12  1  0  0  0  0
  9 13  1  0  0  0  0
  9 25  1  0  0  0  0
 10 22  1  0  0  0  0
 11 20  1  0  0  0  0
 12 15  2  0  0  0  0
 13 24  1  0  0  0  0
 14 25  1  0  0  0  0
 15  4  1  0  0  0  0
 15  5  1  0  0  0  0
 16  3  2  0  0  0  0
 17 10  1  0  0  0  0
 17 28  1  0  0  0  0
 18  1  1  0  0  0  0
 18 20  1  0  0  0  0
 19  5  1  0  0  0  0
 19  6  1  0  0  0  0
 20 13  1  0  0  0  0
 21 26  1  0  0  0  0
 23 21  1  0  0  0  0
 23  4  1  0  0  0  0
 24 22  1  0  0  0  0
 25 17  1  0  0  0  0
 27  2  1  0  0  0  0
 27  9  1  0  0  0  0
 28 29  1  0  0  0  0
 29 32  1  0  0  0  0
 30 33  1  0  0  0  0
 30 34  1  0  0  0  0
 31 33  1  0  0  0  0
 31 32  1  0  0  0  0
 32 34  1  0  0  0  0
M  END
>  <MODEL>
6

>  <REMARK>
 VINA RESULT:      -6.5      2.808      8.883
  Name = 
  3 active torsions:
  status: ('A' for Active; 'I' for Inactive)
    1  A    between atoms: C_17  and  O_28
    2  A    between atoms: O_28  and  C_29
    3  A    between atoms: C_29  and  C_32
                            x       y       z     vdW  Elec       q    Type
                         _______ _______ _______ _____ _____    ______ ____

>  <TORSDO>
F 3

$$$$
=
 OpenBabel11122414263D

 34 41  0  0  1  0  0  0  0  0999 V2000
  161.2190  208.2890  154.2570 C   0  0  1  0  0  3  0  0  0  0  0  0
  161.4680  205.8850  154.3810 C   0  0  0  0  0  2  0  0  0  0  0  0
  159.6290  214.0150  151.2710 C   0  0  0  0  0  0  0  0  0  0  0  0
  159.8400  210.3240  153.7810 C   0  0  0  0  0  0  0  0  0  0  0  0
  160.2400  211.6590  151.6360 C   0  0  2  0  0  3  0  0  0  0  0  0
  160.8410  213.1100  149.6980 C   0  0  0  0  0  2  0  0  0  0  0  0
  160.7320  214.4530  150.3350 C   0  0  0  0  0  2  0  0  0  0  0  0
  157.9130  213.4740  152.8200 C   0  0  0  0  0  2  0  0  0  0  0  0
  161.7770  206.9690  152.4100 C   0  0  2  0  0  3  0  0  0  0  0  0
  160.8570  205.6680  149.6790 C   0  0  0  0  0  2  0  0  0  0  0  0
  160.4440  210.2980  150.9860 C   0  0  0  0  0  2  0  0  0  0  0  0
  158.5530  212.2970  153.4150 N   0  0  0  0  0  0  0  0  0  0  0  0
  161.2470  207.9480  151.3490 C   0  0  1  0  0  3  0  0  0  0  0  0
  161.8320  204.7980  153.3780 C   0  0  0  0  0  2  0  0  0  0  0  0
  159.4550  211.4760  152.9370 C   0  0  0  0  0  0  0  0  0  0  0  0
  158.8970  214.4530  152.2770 C   0  0  0  0  0  3  0  0  0  0  0  0
  160.8640  204.9820  151.0610 C   0  0  2  0  0  3  0  0  0  0  0  0
  160.7250  209.4010  153.3450 C   0  0  0  0  0  0  0  0  0  0  0  0
  159.7360  212.6710  150.6060 C   0  0  2  0  0  3  0  0  0  0  0  0
  161.2470  209.3840  151.9140 C   0  0  2  0  0  3  0  0  0  0  0  0
  159.2670  208.9340  155.7280 C   0  0  0  0  0  2  0  0  0  0  0  0
  162.1090  206.4990  149.3970 C   0  0  0  0  0  2  0  0  0  0  0  0
  159.2500  210.1810  155.0440 O   0  0  0  0  0  0  0  0  0  0  0  0
  162.0540  207.8890  150.0440 C   0  0  0  0  0  2  0  0  0  0  0  0
  161.9430  205.5010  152.0340 C   0  0  1  0  0  3  0  0  0  0  0  0
  160.6740  208.3640  155.6960 C   0  0  0  0  0  2  0  0  0  0  0  0
  160.9490  207.0050  153.6080 N   0  0  2  0  0  0  0  0  0  0  0  0
  161.0110  203.6040  150.8790 O   0  0  0  0  0  0  0  0  0  0  0  0
  160.4340  203.3410  149.6340 C   0  0  0  0  0  2  0  0  0  0  0  0
  160.7930  201.1630  147.5910 O   0  0  0  0  0  0  0  0  0  0  0  0
  161.2570  201.0090  149.8410 C   0  0  0  0  0  2  0  0  0  0  0  0
  160.0710  201.8680  149.5320 C   0  0  2  0  0  3  0  0  0  0  0  0
  161.4880  200.3730  148.5120 C   0  0  0  0  0  2  0  0  0  0  0  0
  159.6890  201.5590  148.2170 O   0  0  0  0  0  0  0  0  0  0  0  0
  1 26  1  1  0  0  0
  3 16  2  0  0  0  0
  4 23  1  0  0  0  0
  5 11  1  6  0  0  0
  5 15  1  0  0  0  0
  6  7  1  0  0  0  0
  6 19  1  0  0  0  0
  7  3  1  0  0  0  0
  8 12  1  0  0  0  0
  9 27  1  0  0  0  0
 10 17  1  0  0  0  0
 11 20  1  0  0  0  0
 13 20  1  0  0  0  0
 13  9  1  0  0  0  0
 14  2  1  0  0  0  0
 15 12  2  0  0  0  0
 15  4  1  0  0  0  0
 16  8  1  0  0  0  0
 17 25  1  0  0  0  0
 18  4  2  0  0  0  0
 18  1  1  0  0  0  0
 19  3  1  0  0  0  0
 19  5  1  0  0  0  0
 20 18  1  0  0  0  0
 22 10  1  0  0  0  0
 22 24  1  0  0  0  0
 23 21  1  0  0  0  0
 24 13  1  0  0  0  0
 25  9  1  0  0  0  0
 25 14  1  0  0  0  0
 26 21  1  0  0  0  0
 27  1  1  0  0  0  0
 27  2  1  0  0  0  0
 28 17  1  0  0  0  0
 29 28  1  0  0  0  0
 30 34  1  0  0  0  0
 30 33  1  0  0  0  0
 32 29  1  0  0  0  0
 32 31  1  0  0  0  0
 33 31  1  0  0  0  0
 34 32  1  0  0  0  0
M  END
>  <MODEL>
7

>  <REMARK>
 VINA RESULT:      -5.5      1.525      2.154
  Name = 
  3 active torsions:
  status: ('A' for Active; 'I' for Inactive)
    1  A    between atoms: C_17  and  O_28
    2  A    between atoms: O_28  and  C_29
    3  A    between atoms: C_29  and  C_32
                            x       y       z     vdW  Elec       q    Type
                         _______ _______ _______ _____ _____    ______ ____

>  <TORSDO>
F 3

$$$$
