=
 OpenBabel11122412373D

 30 35  0  0  1  0  0  0  0  0999 V2000
  161.4030  206.1900  150.4040 C   0  0  0  0  0  0  0  0  0  0  0  0
  161.0910  203.7090  150.3230 C   0  0  0  0  0  0  0  0  0  0  0  0
  160.7250  206.1560  154.9530 S   0  0  0  0  0  0  0  0  0  0  0  0
  161.4330  207.3980  151.1640 C   0  0  0  0  0  0  0  0  0  0  0  0
  161.6380  206.2540  149.0270 C   0  0  0  0  0  3  0  0  0  0  0  0
  162.1060  209.9390  148.3680 C   0  0  0  0  0  1  0  0  0  0  0  0
  160.3130  210.0920  152.0100 N   0  0  1  0  0  0  0  0  0  0  0  0
  161.8750  208.6510  149.0980 C   0  0  0  0  0  0  0  0  0  0  0  0
  160.4200  209.5420  153.3720 C   0  0  2  0  0  3  0  0  0  0  0  0
  161.4090  207.8000  154.8810 C   0  0  0  0  0  0  0  0  0  0  0  0
  161.8830  207.4590  148.3700 C   0  0  0  0  0  0  0  0  0  0  0  0
  161.6340  208.6400  150.4880 C   0  0  0  0  0  0  0  0  0  0  0  0
  160.8210  202.5130  150.9920 C   0  0  0  0  0  3  0  0  0  0  0  0
  160.6550  210.7030  154.3120 C   0  0  0  0  0  2  0  0  0  0  0  0
  160.0020  211.5130  152.1550 C   0  0  0  0  0  2  0  0  0  0  0  0
  161.2960  203.6380  148.9840 F   0  0  0  0  0  0  0  0  0  0  0  0
  160.9620  206.0940  153.1770 C   0  0  0  0  0  0  0  0  0  0  0  0
  160.5970  202.5040  152.3650 C   0  0  0  0  0  3  0  0  0  0  0  0
  161.1400  204.9390  151.0360 C   0  0  0  0  0  0  0  0  0  0  0  0
  161.2470  207.3120  152.5650 C   0  0  0  0  0  0  0  0  0  0  0  0
  161.8880  208.3350  155.8690 O   0  0  0  0  0  0  0  0  0  0  0  0
  161.4710  208.4340  153.5300 C   0  0  1  0  0  3  0  0  0  0  0  0
  159.9640  211.8520  153.6320 C   0  0  0  0  0  2  0  0  0  0  0  0
  162.8340  210.4300  151.8470 C   0  0  0  0  0  1  0  0  0  0  0  0
  160.6430  203.6960  153.0820 C   0  0  0  0  0  3  0  0  0  0  0  0
  160.9110  204.9100  152.4360 C   0  0  0  0  0  0  0  0  0  0  0  0
  161.5300  209.9770  151.1840 C   0  0  2  0  0  3  0  0  0  0  0  0
  162.1270  207.4880  146.9910 O   0  0  0  0  0  0  0  0  0  0  0  0
  160.6260  206.1950  145.6410 C   0  0  0  0  0  1  0  0  0  0  0  0
  162.0390  206.3330  146.1680 C   0  0  0  0  0  2  0  0  0  0  0  0
  1 19  2  0  0  0  0
  1  4  1  0  0  0  0
  2 13  2  0  0  0  0
  2 19  1  0  0  0  0
  4 20  2  0  0  0  0
  5  1  1  0  0  0  0
  6  8  1  0  0  0  0
  7 15  1  1  0  0  0
  7  9  1  0  0  0  0
  8 12  2  0  0  0  0
  9 22  1  0  0  0  0
  9 14  1  1  0  0  0
 10  3  1  0  0  0  0
 10 21  2  0  0  0  0
 11  5  2  0  0  0  0
 11  8  1  0  0  0  0
 12  4  1  0  0  0  0
 12 27  1  0  0  0  0
 13 18  1  0  0  0  0
 15 23  1  0  0  0  0
 16  2  1  0  0  0  0
 17  3  1  0  0  0  0
 18 25  2  0  0  0  0
 19 26  1  0  0  0  0
 20 17  1  0  0  0  0
 22 20  1  6  0  0  0
 22 10  1  0  0  0  0
 23 14  1  0  0  0  0
 26 25  1  0  0  0  0
 26 17  2  0  0  0  0
 27 24  1  1  0  0  0
 27  7  1  0  0  0  0
 28 11  1  0  0  0  0
 29 30  1  0  0  0  0
 30 28  1  0  0  0  0
M  END
>  <MODEL>
1

>  <REMARK>
 VINA RESULT:      -6.9      0.000      0.000
  Name = 
  2 active torsions:
  status: ('A' for Active; 'I' for Inactive)
    1  A    between atoms: C_11  and  O_28
    2  A    between atoms: O_28  and  C_30
                            x       y       z     vdW  Elec       q    Type
                         _______ _______ _______ _____ _____    ______ ____

>  <TORSDO>
F 2

$$$$
=
 OpenBabel11122412373D

 30 35  0  0  1  0  0  0  0  0999 V2000
  161.0080  210.2710  151.5330 C   0  0  0  0  0  0  0  0  0  0  0  0
  162.2300  208.3040  150.5840 C   0  0  0  0  0  0  0  0  0  0  0  0
  160.1590  207.9190  155.3930 S   0  0  0  0  0  0  0  0  0  0  0  0
  160.2650  210.8530  152.6030 C   0  0  0  0  0  0  0  0  0  0  0  0
  161.2580  211.0390  150.3910 C   0  0  0  0  0  3  0  0  0  0  0  0
  159.5040  214.3020  151.1030 C   0  0  0  0  0  1  0  0  0  0  0  0
  157.7130  211.9180  153.8610 N   0  0  1  0  0  0  0  0  0  0  0  0
  160.0270  212.9100  151.2810 C   0  0  0  0  0  0  0  0  0  0  0  0
  158.0260  210.9690  154.9430 C   0  0  2  0  0  3  0  0  0  0  0  0
  159.7420  209.5190  156.0580 C   0  0  0  0  0  0  0  0  0  0  0  0
  160.7900  212.3450  150.2570 C   0  0  0  0  0  0  0  0  0  0  0  0
  159.7410  212.1730  152.4500 C   0  0  0  0  0  0  0  0  0  0  0  0
  162.6720  206.9870  150.7250 C   0  0  0  0  0  3  0  0  0  0  0  0
  157.4620  211.5410  156.2240 C   0  0  0  0  0  2  0  0  0  0  0  0
  156.6130  212.7520  154.3410 C   0  0  0  0  0  2  0  0  0  0  0  0
  162.5330  208.9390  149.4250 F   0  0  0  0  0  0  0  0  0  0  0  0
  160.5130  208.7670  153.8530 C   0  0  0  0  0  0  0  0  0  0  0  0
  162.3990  206.2680  151.8840 C   0  0  0  0  0  3  0  0  0  0  0  0
  161.4920  208.9330  151.6250 C   0  0  0  0  0  0  0  0  0  0  0  0
  160.0660  210.0840  153.7750 C   0  0  0  0  0  0  0  0  0  0  0  0
  159.7400  209.7290  157.2600 O   0  0  0  0  0  0  0  0  0  0  0  0
  159.5140  210.6100  155.0630 C   0  0  1  0  0  3  0  0  0  0  0  0
  156.2770  212.3410  155.7610 C   0  0  0  0  0  2  0  0  0  0  0  0
  159.5500  213.5190  154.6040 C   0  0  0  0  0  1  0  0  0  0  0  0
  161.6800  206.8640  152.9160 C   0  0  0  0  0  3  0  0  0  0  0  0
  161.2240  208.1840  152.8010 C   0  0  0  0  0  0  0  0  0  0  0  0
  158.8170  212.8100  153.4620 C   0  0  2  0  0  3  0  0  0  0  0  0
  161.0680  213.0920  149.1040 O   0  0  0  0  0  0  0  0  0  0  0  0
  163.0210  212.7020  147.7700 C   0  0  0  0  0  1  0  0  0  0  0  0
  161.5250  212.5020  147.8950 C   0  0  0  0  0  2  0  0  0  0  0  0
  1 19  2  0  0  0  0
  1  4  1  0  0  0  0
  2 13  2  0  0  0  0
  2 19  1  0  0  0  0
  3 10  1  0  0  0  0
  4 20  2  0  0  0  0
  5  1  1  0  0  0  0
  6  8  1  0  0  0  0
  7 15  1  1  0  0  0
  7  9  1  0  0  0  0
  8 12  2  0  0  0  0
  9 22  1  0  0  0  0
  9 14  1  1  0  0  0
 10 21  2  0  0  0  0
 11  5  2  0  0  0  0
 11  8  1  0  0  0  0
 12  4  1  0  0  0  0
 12 27  1  0  0  0  0
 13 18  1  0  0  0  0
 15 23  1  0  0  0  0
 16  2  1  0  0  0  0
 17  3  1  0  0  0  0
 18 25  2  0  0  0  0
 19 26  1  0  0  0  0
 20 17  1  0  0  0  0
 22 20  1  6  0  0  0
 22 10  1  0  0  0  0
 23 14  1  0  0  0  0
 26 25  1  0  0  0  0
 26 17  2  0  0  0  0
 27  7  1  0  0  0  0
 27 24  1  1  0  0  0
 28 11  1  0  0  0  0
 29 30  1  0  0  0  0
 30 28  1  0  0  0  0
M  END
>  <MODEL>
2

>  <REMARK>
 VINA RESULT:      -6.4      2.864      4.475
  Name = 
  2 active torsions:
  status: ('A' for Active; 'I' for Inactive)
    1  A    between atoms: C_11  and  O_28
    2  A    between atoms: O_28  and  C_30
                            x       y       z     vdW  Elec       q    Type
                         _______ _______ _______ _____ _____    ______ ____

>  <TORSDO>
F 2

$$$$
=
 OpenBabel11122412373D

 30 35  0  0  1  0  0  0  0  0999 V2000
  161.0040  209.8500  152.0990 C   0  0  0  0  0  0  0  0  0  0  0  0
  162.0460  209.8330  149.8240 C   0  0  0  0  0  0  0  0  0  0  0  0
  159.4920  214.1370  151.4080 S   0  0  0  0  0  0  0  0  0  0  0  0
  160.2680  210.5430  153.1060 C   0  0  0  0  0  0  0  0  0  0  0  0
  161.4210  208.5380  152.3530 C   0  0  0  0  0  3  0  0  0  0  0  0
  160.2280  207.8830  155.8710 C   0  0  0  0  0  1  0  0  0  0  0  0
  160.0090  211.9380  155.7920 N   0  0  1  0  0  0  0  0  0  0  0  0
  160.4720  208.5790  154.5670 C   0  0  0  0  0  0  0  0  0  0  0  0
  159.4590  213.0480  154.9950 C   0  0  2  0  0  3  0  0  0  0  0  0
  158.4600  213.8040  152.8220 C   0  0  0  0  0  0  0  0  0  0  0  0
  161.1560  207.8950  153.5600 C   0  0  0  0  0  0  0  0  0  0  0  0
  160.0380  209.9070  154.3630 C   0  0  0  0  0  0  0  0  0  0  0  0
  162.3220  210.4990  148.6290 C   0  0  0  0  0  3  0  0  0  0  0  0
  158.4830  213.7960  155.8750 C   0  0  0  0  0  2  0  0  0  0  0  0
  159.7770  212.2740  157.1960 C   0  0  0  0  0  2  0  0  0  0  0  0
  162.5100  208.5650  149.9490 F   0  0  0  0  0  0  0  0  0  0  0  0
  160.1280  212.4730  151.6130 C   0  0  0  0  0  0  0  0  0  0  0  0
  161.8810  211.8030  148.4250 C   0  0  0  0  0  3  0  0  0  0  0  0
  161.3080  210.4780  150.8560 C   0  0  0  0  0  0  0  0  0  0  0  0
  159.8060  211.8500  152.8160 C   0  0  0  0  0  0  0  0  0  0  0  0
  157.4460  214.4490  153.0380 O   0  0  0  0  0  0  0  0  0  0  0  0
  158.8390  212.6240  153.6560 C   0  0  1  0  0  3  0  0  0  0  0  0
  159.0290  213.5910  157.2600 C   0  0  0  0  0  2  0  0  0  0  0  0
  157.8750  210.5700  155.5340 C   0  0  0  0  0  1  0  0  0  0  0  0
  161.1560  212.4520  149.4210 C   0  0  0  0  0  3  0  0  0  0  0  0
  160.8650  211.8070  150.6300 C   0  0  0  0  0  0  0  0  0  0  0  0
  159.4050  210.6170  155.5370 C   0  0  2  0  0  3  0  0  0  0  0  0
  161.5770  206.5770  153.7780 O   0  0  0  0  0  0  0  0  0  0  0  0
  161.0930  204.7780  152.2700 C   0  0  0  0  0  1  0  0  0  0  0  0
  162.1340  205.7660  152.7530 C   0  0  0  0  0  2  0  0  0  0  0  0
  1  5  2  0  0  0  0
  1  4  1  0  0  0  0
  2 16  1  0  0  0  0
  2 19  1  0  0  0  0
  3 17  1  0  0  0  0
  3 10  1  0  0  0  0
  4 12  2  0  0  0  0
  5 11  1  0  0  0  0
  7 15  1  1  0  0  0
  8  6  1  0  0  0  0
  9  7  1  0  0  0  0
  9 14  1  1  0  0  0
 10 21  2  0  0  0  0
 10 22  1  0  0  0  0
 11 28  1  0  0  0  0
 11  8  2  0  0  0  0
 12  8  1  0  0  0  0
 12 27  1  0  0  0  0
 13  2  2  0  0  0  0
 14 23  1  0  0  0  0
 15 23  1  0  0  0  0
 17 20  2  0  0  0  0
 18 13  1  0  0  0  0
 18 25  2  0  0  0  0
 19  1  1  0  0  0  0
 20  4  1  0  0  0  0
 22 20  1  6  0  0  0
 22  9  1  0  0  0  0
 25 26  1  0  0  0  0
 26 19  2  0  0  0  0
 26 17  1  0  0  0  0
 27 24  1  6  0  0  0
 27  7  1  0  0  0  0
 29 30  1  0  0  0  0
 30 28  1  0  0  0  0
M  END
>  <MODEL>
3

>  <REMARK>
 VINA RESULT:      -6.1      3.148      6.268
  Name = 
  2 active torsions:
  status: ('A' for Active; 'I' for Inactive)
    1  A    between atoms: C_11  and  O_28
    2  A    between atoms: O_28  and  C_30
                            x       y       z     vdW  Elec       q    Type
                         _______ _______ _______ _____ _____    ______ ____

>  <TORSDO>
F 2

$$$$
=
 OpenBabel11122412373D

 30 35  0  0  1  0  0  0  0  0999 V2000
  161.6060  207.9560  149.4540 C   0  0  0  0  0  0  0  0  0  0  0  0
  161.6420  206.1110  147.7650 C   0  0  0  0  0  0  0  0  0  0  0  0
  160.8310  204.9080  152.8100 S   0  0  0  0  0  0  0  0  0  0  0  0
  161.4520  208.3750  150.8090 C   0  0  0  0  0  0  0  0  0  0  0  0
  161.8640  208.9230  148.4760 C   0  0  0  0  0  3  0  0  0  0  0  0
  161.8340  212.1710  150.3950 C   0  0  0  0  0  1  0  0  0  0  0  0
  159.9510  209.7540  153.0620 N   0  0  1  0  0  0  0  0  0  0  0  0
  161.7660  210.7040  150.0950 C   0  0  0  0  0  0  0  0  0  0  0  0
  160.1000  208.4620  153.7530 C   0  0  2  0  0  3  0  0  0  0  0  0
  161.2830  206.2550  153.8860 C   0  0  0  0  0  0  0  0  0  0  0  0
  161.9560  210.2800  148.7780 C   0  0  0  0  0  0  0  0  0  0  0  0
  161.4960  209.7690  151.1170 C   0  0  0  0  0  0  0  0  0  0  0  0
  161.5240  204.7500  147.4750 C   0  0  0  0  0  3  0  0  0  0  0  0
  160.1490  208.7460  155.2370 C   0  0  0  0  0  2  0  0  0  0  0  0
  159.4430  210.7030  154.0510 C   0  0  0  0  0  2  0  0  0  0  0  0
  161.8880  206.9470  146.7260 F   0  0  0  0  0  0  0  0  0  0  0  0
  161.1170  206.0390  151.4480 C   0  0  0  0  0  0  0  0  0  0  0  0
  161.2710  203.8290  148.4860 C   0  0  0  0  0  3  0  0  0  0  0  0
  161.5040  206.5790  149.1010 C   0  0  0  0  0  0  0  0  0  0  0  0
  161.2450  207.3810  151.7970 C   0  0  0  0  0  0  0  0  0  0  0  0
  161.6590  206.0590  155.0300 O   0  0  0  0  0  0  0  0  0  0  0  0
  161.2890  207.6180  153.2750 C   0  0  1  0  0  3  0  0  0  0  0  0
  159.3230  209.9930  155.3860 C   0  0  0  0  0  2  0  0  0  0  0  0
  162.4030  210.3410  153.4270 C   0  0  0  0  0  1  0  0  0  0  0  0
  161.1340  204.2650  149.8010 C   0  0  0  0  0  3  0  0  0  0  0  0
  161.2480  205.6240  150.1200 C   0  0  0  0  0  0  0  0  0  0  0  0
  161.1910  210.3140  152.4930 C   0  0  2  0  0  3  0  0  0  0  0  0
  162.2260  211.2210  147.7770 O   0  0  0  0  0  0  0  0  0  0  0  0
  161.7970  213.3160  146.6930 C   0  0  0  0  0  1  0  0  0  0  0  0
  161.2120  211.9980  147.1550 C   0  0  0  0  0  2  0  0  0  0  0  0
  1  4  1  0  0  0  0
  2 19  1  0  0  0  0
  3 10  1  0  0  0  0
  4 12  1  0  0  0  0
  4 20  2  0  0  0  0
  5 11  2  0  0  0  0
  5  1  1  0  0  0  0
  7  9  1  0  0  0  0
  7 15  1  1  0  0  0
  8  6  1  0  0  0  0
  8 12  2  0  0  0  0
  9 14  1  1  0  0  0
 10 21  2  0  0  0  0
 11  8  1  0  0  0  0
 12 27  1  0  0  0  0
 13  2  2  0  0  0  0
 13 18  1  0  0  0  0
 14 23  1  0  0  0  0
 15 23  1  0  0  0  0
 16  2  1  0  0  0  0
 17 20  1  0  0  0  0
 17  3  1  0  0  0  0
 18 25  2  0  0  0  0
 19  1  2  0  0  0  0
 19 26  1  0  0  0  0
 22 20  1  6  0  0  0
 22  9  1  0  0  0  0
 22 10  1  0  0  0  0
 25 26  1  0  0  0  0
 26 17  2  0  0  0  0
 27  7  1  0  0  0  0
 27 24  1  1  0  0  0
 28 11  1  0  0  0  0
 29 30  1  0  0  0  0
 30 28  1  0  0  0  0
M  END
>  <MODEL>
4

>  <REMARK>
 VINA RESULT:      -6.1      1.838      3.000
  Name = 
  2 active torsions:
  status: ('A' for Active; 'I' for Inactive)
    1  A    between atoms: C_11  and  O_28
    2  A    between atoms: O_28  and  C_30
                            x       y       z     vdW  Elec       q    Type
                         _______ _______ _______ _____ _____    ______ ____

>  <TORSDO>
F 2

$$$$
=
 OpenBabel11122412373D

 30 35  0  0  1  0  0  0  0  0999 V2000
  161.2480  210.3170  151.1930 C   0  0  0  0  0  0  0  0  0  0  0  0
  161.9640  210.9060  148.8690 C   0  0  0  0  0  0  0  0  0  0  0  0
  159.2950  214.4530  151.6710 S   0  0  0  0  0  0  0  0  0  0  0  0
  160.6000  210.6910  152.4090 C   0  0  0  0  0  0  0  0  0  0  0  0
  161.8050  209.0370  151.0930 C   0  0  0  0  0  3  0  0  0  0  0  0
  161.1670  207.5140  154.4850 C   0  0  0  0  0  1  0  0  0  0  0  0
  160.5950  211.4400  155.3530 N   0  0  1  0  0  0  0  0  0  0  0  0
  161.1700  208.4960  153.3540 C   0  0  0  0  0  0  0  0  0  0  0  0
  159.8480  212.6260  154.8970 C   0  0  2  0  0  3  0  0  0  0  0  0
  158.5000  213.7110  153.0820 C   0  0  0  0  0  0  0  0  0  0  0  0
  161.7650  208.1250  152.1460 C   0  0  0  0  0  0  0  0  0  0  0  0
  160.6000  209.7780  153.5070 C   0  0  0  0  0  0  0  0  0  0  0  0
  162.0160  211.8390  147.8330 C   0  0  0  0  0  3  0  0  0  0  0  0
  158.9420  213.0530  156.0300 C   0  0  0  0  0  2  0  0  0  0  0  0
  160.5300  211.4400  156.8130 C   0  0  0  0  0  2  0  0  0  0  0  0
  162.5470  209.7010  148.6490 F   0  0  0  0  0  0  0  0  0  0  0  0
  160.0920  212.8670  151.4190 C   0  0  0  0  0  0  0  0  0  0  0  0
  161.4420  213.0980  147.9820 C   0  0  0  0  0  3  0  0  0  0  0  0
  161.3230  211.2270  150.0980 C   0  0  0  0  0  0  0  0  0  0  0  0
  159.9940  211.9690  152.4780 C   0  0  0  0  0  0  0  0  0  0  0  0
  157.4740  214.1750  153.5540 O   0  0  0  0  0  0  0  0  0  0  0  0
  159.0890  212.4300  153.5780 C   0  0  1  0  0  3  0  0  0  0  0  0
  159.6890  212.6190  157.2610 C   0  0  0  0  0  2  0  0  0  0  0  0
  158.5700  209.9260  155.0390 C   0  0  0  0  0  1  0  0  0  0  0  0
  160.8080  213.4320  149.1760 C   0  0  0  0  0  3  0  0  0  0  0  0
  160.7420  212.5150  150.2330 C   0  0  0  0  0  0  0  0  0  0  0  0
  160.0770  210.1450  154.8770 C   0  0  2  0  0  3  0  0  0  0  0  0
  162.3220  206.8470  152.0100 O   0  0  0  0  0  0  0  0  0  0  0  0
  161.2080  204.7270  152.1090 C   0  0  0  0  0  1  0  0  0  0  0  0
  161.7320  205.8290  151.2130 C   0  0  0  0  0  2  0  0  0  0  0  0
  1  4  1  0  0  0  0
  2 19  1  0  0  0  0
  3 10  1  0  0  0  0
  4 20  1  0  0  0  0
  4 12  2  0  0  0  0
  5  1  2  0  0  0  0
  5 11  1  0  0  0  0
  7 15  1  1  0  0  0
  8 12  1  0  0  0  0
  8  6  1  0  0  0  0
  9  7  1  0  0  0  0
  9 14  1  1  0  0  0
 10 21  2  0  0  0  0
 10 22  1  0  0  0  0
 11  8  2  0  0  0  0
 12 27  1  0  0  0  0
 13 18  1  0  0  0  0
 13  2  2  0  0  0  0
 14 23  1  0  0  0  0
 15 23  1  0  0  0  0
 16  2  1  0  0  0  0
 17  3  1  0  0  0  0
 17 20  2  0  0  0  0
 18 25  2  0  0  0  0
 19 26  2  0  0  0  0
 19  1  1  0  0  0  0
 22 20  1  6  0  0  0
 22  9  1  0  0  0  0
 25 26  1  0  0  0  0
 26 17  1  0  0  0  0
 27 24  1  6  0  0  0
 27  7  1  0  0  0  0
 28 11  1  0  0  0  0
 30 28  1  0  0  0  0
 30 29  1  0  0  0  0
M  END
>  <MODEL>
5

>  <REMARK>
 VINA RESULT:      -5.7      3.150      6.227
  Name = 
  2 active torsions:
  status: ('A' for Active; 'I' for Inactive)
    1  A    between atoms: C_11  and  O_28
    2  A    between atoms: O_28  and  C_30
                            x       y       z     vdW  Elec       q    Type
                         _______ _______ _______ _____ _____    ______ ____

>  <TORSDO>
F 2

$$$$
=
 OpenBabel11122412373D

 30 35  0  0  1  0  0  0  0  0999 V2000
  161.3210  210.4290  150.7370 C   0  0  0  0  0  0  0  0  0  0  0  0
  161.3600  212.2290  149.0000 C   0  0  0  0  0  0  0  0  0  0  0  0
  159.1630  213.2520  153.6570 S   0  0  0  0  0  0  0  0  0  0  0  0
  160.9720  210.0030  152.0540 C   0  0  0  0  0  0  0  0  0  0  0  0
  161.9560  209.5220  149.8820 C   0  0  0  0  0  3  0  0  0  0  0  0
  162.3550  206.4240  151.9960 C   0  0  0  0  0  1  0  0  0  0  0  0
  161.6450  209.1760  154.8980 N   0  0  1  0  0  0  0  0  0  0  0  0
  161.9730  207.8110  151.5780 C   0  0  0  0  0  0  0  0  0  0  0  0
  160.6960  210.2380  155.2740 C   0  0  2  0  0  3  0  0  0  0  0  0
  158.8300  211.7570  154.5680 C   0  0  0  0  0  0  0  0  0  0  0  0
  162.2740  208.2250  150.2780 C   0  0  0  0  0  0  0  0  0  0  0  0
  161.3410  208.6910  152.4820 C   0  0  0  0  0  0  0  0  0  0  0  0
  161.0540  213.5390  148.6260 C   0  0  0  0  0  3  0  0  0  0  0  0
  160.0720  209.8400  156.5930 C   0  0  0  0  0  2  0  0  0  0  0  0
  161.9560  208.4390  156.1220 C   0  0  0  0  0  2  0  0  0  0  0  0
  161.9810  211.4510  148.0800 F   0  0  0  0  0  0  0  0  0  0  0  0
  160.0200  212.2140  152.4720 C   0  0  0  0  0  0  0  0  0  0  0  0
  160.4180  214.4000  149.5150 C   0  0  0  0  0  3  0  0  0  0  0  0
  161.0260  211.7530  150.2980 C   0  0  0  0  0  0  0  0  0  0  0  0
  160.2820  210.9130  152.8910 C   0  0  0  0  0  0  0  0  0  0  0  0
  157.9190  211.6930  155.3770 O   0  0  0  0  0  0  0  0  0  0  0  0
  159.6480  210.5620  154.2010 C   0  0  1  0  0  3  0  0  0  0  0  0
  161.1460  209.0280  157.2600 C   0  0  0  0  0  2  0  0  0  0  0  0
  159.7640  207.6190  154.1700 C   0  0  0  0  0  1  0  0  0  0  0  0
  160.0810  213.9550  150.7890 C   0  0  0  0  0  3  0  0  0  0  0  0
  160.3760  212.6450  151.1910 C   0  0  0  0  0  0  0  0  0  0  0  0
  161.1510  208.2090  153.9010 C   0  0  2  0  0  3  0  0  0  0  0  0
  162.8990  207.3370  149.3930 O   0  0  0  0  0  0  0  0  0  0  0  0
  161.0500  206.1700  148.4110 C   0  0  0  0  0  1  0  0  0  0  0  0
  162.3220  206.9490  148.1540 C   0  0  0  0  0  2  0  0  0  0  0  0
  1  4  1  0  0  0  0
  2 19  1  0  0  0  0
  3 10  1  0  0  0  0
  4 12  1  0  0  0  0
  4 20  2  0  0  0  0
  5 11  2  0  0  0  0
  5  1  1  0  0  0  0
  7  9  1  0  0  0  0
  7 15  1  1  0  0  0
  8  6  1  0  0  0  0
  8 12  2  0  0  0  0
  9 14  1  1  0  0  0
 10 21  2  0  0  0  0
 11  8  1  0  0  0  0
 12 27  1  0  0  0  0
 13  2  2  0  0  0  0
 13 18  1  0  0  0  0
 14 23  1  0  0  0  0
 15 23  1  0  0  0  0
 16  2  1  0  0  0  0
 17 20  1  0  0  0  0
 17  3  1  0  0  0  0
 18 25  2  0  0  0  0
 19  1  2  0  0  0  0
 19 26  1  0  0  0  0
 22 20  1  6  0  0  0
 22 10  1  0  0  0  0
 22  9  1  0  0  0  0
 25 26  1  0  0  0  0
 26 17  2  0  0  0  0
 27 24  1  1  0  0  0
 27  7  1  0  0  0  0
 28 11  1  0  0  0  0
 30 29  1  0  0  0  0
 30 28  1  0  0  0  0
M  END
>  <MODEL>
6

>  <REMARK>
 VINA RESULT:      -5.6      2.984      5.778
  Name = 
  2 active torsions:
  status: ('A' for Active; 'I' for Inactive)
    1  A    between atoms: C_11  and  O_28
    2  A    between atoms: O_28  and  C_30
                            x       y       z     vdW  Elec       q    Type
                         _______ _______ _______ _____ _____    ______ ____

>  <TORSDO>
F 2

$$$$
=
 OpenBabel11122412373D

 30 35  0  0  1  0  0  0  0  0999 V2000
  161.4900  208.1920  151.4820 C   0  0  0  0  0  0  0  0  0  0  0  0
  161.4700  208.5050  153.9640 C   0  0  0  0  0  0  0  0  0  0  0  0
  160.8280  203.6730  152.0160 S   0  0  0  0  0  0  0  0  0  0  0  0
  161.4090  207.3200  150.3550 C   0  0  0  0  0  0  0  0  0  0  0  0
  161.6700  209.5620  151.2620 C   0  0  0  0  0  3  0  0  0  0  0  0
  161.9170  209.8430  147.5080 C   0  0  0  0  0  1  0  0  0  0  0  0
  162.5980  205.8650  147.9690 N   0  0  1  0  0  0  0  0  0  0  0  0
  161.7520  209.2500  148.8740 C   0  0  0  0  0  0  0  0  0  0  0  0
  162.0320  204.6640  148.6070 C   0  0  2  0  0  3  0  0  0  0  0  0
  160.4250  203.7140  150.2810 C   0  0  0  0  0  0  0  0  0  0  0  0
  161.7890  210.1000  149.9820 C   0  0  0  0  0  0  0  0  0  0  0  0
  161.5810  207.8590  149.0440 C   0  0  0  0  0  0  0  0  0  0  0  0
  161.3710  207.9480  155.2410 C   0  0  0  0  0  3  0  0  0  0  0  0
  161.7000  203.6810  147.5080 C   0  0  0  0  0  2  0  0  0  0  0  0
  163.0460  205.4600  146.6370 C   0  0  0  0  0  2  0  0  0  0  0  0
  161.6480  209.8470  153.8860 F   0  0  0  0  0  0  0  0  0  0  0  0
  161.1020  205.4400  151.8860 C   0  0  0  0  0  0  0  0  0  0  0  0
  161.1900  206.5780  155.4040 C   0  0  0  0  0  3  0  0  0  0  0  0
  161.3880  207.6800  152.8080 C   0  0  0  0  0  0  0  0  0  0  0  0
  161.1740  205.9440  150.5900 C   0  0  0  0  0  0  0  0  0  0  0  0
  159.7620  202.8310  149.7590 O   0  0  0  0  0  0  0  0  0  0  0  0
  160.8390  204.9380  149.5330 C   0  0  1  0  0  3  0  0  0  0  0  0
  162.7060  203.9960  146.4370 C   0  0  0  0  0  2  0  0  0  0  0  0
  160.3010  206.6550  147.2010 C   0  0  0  0  0  1  0  0  0  0  0  0
  161.1050  205.7530  154.2870 C   0  0  0  0  0  3  0  0  0  0  0  0
  161.2010  206.2850  152.9950 C   0  0  0  0  0  0  0  0  0  0  0  0
  161.6650  206.9950  147.8070 C   0  0  2  0  0  3  0  0  0  0  0  0
  161.9560  211.4780  149.7950 O   0  0  0  0  0  0  0  0  0  0  0  0
  160.9860  213.3170  148.6020 C   0  0  0  0  0  1  0  0  0  0  0  0
  160.8690  212.3940  149.7960 C   0  0  0  0  0  2  0  0  0  0  0  0
  1 19  1  0  0  0  0
  2 13  1  0  0  0  0
  4 20  1  0  0  0  0
  4  1  2  0  0  0  0
  5  1  1  0  0  0  0
  6  8  1  0  0  0  0
  7 15  1  6  0  0  0
  7  9  1  0  0  0  0
  8 12  2  0  0  0  0
  8 11  1  0  0  0  0
  9 14  1  6  0  0  0
  9 22  1  0  0  0  0
 10  3  1  0  0  0  0
 11  5  2  0  0  0  0
 12  4  1  0  0  0  0
 13 18  2  0  0  0  0
 16  2  1  0  0  0  0
 17  3  1  0  0  0  0
 17 26  1  0  0  0  0
 19 26  1  0  0  0  0
 19  2  2  0  0  0  0
 20 17  2  0  0  0  0
 21 10  2  0  0  0  0
 22 10  1  1  0  0  0
 22 20  1  0  0  0  0
 23 15  1  0  0  0  0
 23 14  1  0  0  0  0
 25 18  1  0  0  0  0
 26 25  2  0  0  0  0
 27 24  1  1  0  0  0
 27  7  1  0  0  0  0
 27 12  1  0  0  0  0
 28 30  1  0  0  0  0
 28 11  1  0  0  0  0
 29 30  1  0  0  0  0
M  END
>  <MODEL>
7

>  <REMARK>
 VINA RESULT:      -5.5      2.857      5.685
  Name = 
  2 active torsions:
  status: ('A' for Active; 'I' for Inactive)
    1  A    between atoms: C_11  and  O_28
    2  A    between atoms: O_28  and  C_30
                            x       y       z     vdW  Elec       q    Type
                         _______ _______ _______ _____ _____    ______ ____

>  <TORSDO>
F 2

$$$$
=
 OpenBabel11122412373D

 30 35  0  0  1  0  0  0  0  0999 V2000
  161.3540  209.1690  151.5470 C   0  0  0  0  0  0  0  0  0  0  0  0
  162.2760  206.9950  150.7200 C   0  0  0  0  0  0  0  0  0  0  0  0
  160.0900  207.1670  155.4900 S   0  0  0  0  0  0  0  0  0  0  0  0
  160.6910  209.9100  152.5710 C   0  0  0  0  0  0  0  0  0  0  0  0
  161.7380  209.8330  150.3770 C   0  0  0  0  0  3  0  0  0  0  0  0
  160.4920  213.3560  150.8950 C   0  0  0  0  0  1  0  0  0  0  0  0
  158.3110  211.4110  153.7160 N   0  0  1  0  0  0  0  0  0  0  0  0
  160.7930  211.9110  151.1500 C   0  0  0  0  0  0  0  0  0  0  0  0
  158.4570  210.4800  154.8480 C   0  0  2  0  0  3  0  0  0  0  0  0
  159.9120  208.8430  156.0700 C   0  0  0  0  0  0  0  0  0  0  0  0
  161.4780  211.1870  150.1710 C   0  0  0  0  0  0  0  0  0  0  0  0
  160.3780  211.2850  152.3450 C   0  0  0  0  0  0  0  0  0  0  0  0
  162.5090  205.6350  150.9320 C   0  0  0  0  0  3  0  0  0  0  0  0
  157.9660  211.1940  156.0870 C   0  0  0  0  0  2  0  0  0  0  0  0
  157.3440  212.4260  154.1300 C   0  0  0  0  0  2  0  0  0  0  0  0
  162.6920  207.5190  149.5400 F   0  0  0  0  0  0  0  0  0  0  0  0
  160.5960  207.8750  153.9220 C   0  0  0  0  0  0  0  0  0  0  0  0
  162.1100  205.0240  152.1170 C   0  0  0  0  0  3  0  0  0  0  0  0
  161.6260  207.7800  151.7130 C   0  0  0  0  0  0  0  0  0  0  0  0
  160.3560  209.2390  153.7720 C   0  0  0  0  0  0  0  0  0  0  0  0
  159.9220  209.1100  157.2610 O   0  0  0  0  0  0  0  0  0  0  0  0
  159.8700  209.9060  155.0210 C   0  0  1  0  0  3  0  0  0  0  0  0
  156.9240  212.1410  155.5590 C   0  0  0  0  0  2  0  0  0  0  0  0
  160.3590  212.7500  154.4280 C   0  0  0  0  0  1  0  0  0  0  0  0
  161.4740  205.7730  153.1020 C   0  0  0  0  0  3  0  0  0  0  0  0
  161.2270  207.1390  152.9160 C   0  0  0  0  0  0  0  0  0  0  0  0
  159.5450  212.1040  153.3030 C   0  0  2  0  0  3  0  0  0  0  0  0
  161.8850  211.8240  148.9920 O   0  0  0  0  0  0  0  0  0  0  0  0
  161.2090  213.1810  147.1350 C   0  0  0  0  0  1  0  0  0  0  0  0
  161.1010  211.8280  147.8070 C   0  0  0  0  0  2  0  0  0  0  0  0
  1 19  2  0  0  0  0
  1  4  1  0  0  0  0
  2 13  2  0  0  0  0
  2 19  1  0  0  0  0
  3 10  1  0  0  0  0
  4 20  2  0  0  0  0
  5  1  1  0  0  0  0
  6  8  1  0  0  0  0
  7 15  1  1  0  0  0
  7  9  1  0  0  0  0
  8 12  2  0  0  0  0
  9 22  1  0  0  0  0
  9 14  1  1  0  0  0
 10 21  2  0  0  0  0
 11  5  2  0  0  0  0
 11  8  1  0  0  0  0
 12  4  1  0  0  0  0
 12 27  1  0  0  0  0
 13 18  1  0  0  0  0
 15 23  1  0  0  0  0
 16  2  1  0  0  0  0
 17  3  1  0  0  0  0
 18 25  2  0  0  0  0
 19 26  1  0  0  0  0
 20 17  1  0  0  0  0
 22 20  1  6  0  0  0
 22 10  1  0  0  0  0
 23 14  1  0  0  0  0
 26 25  1  0  0  0  0
 26 17  2  0  0  0  0
 27  7  1  0  0  0  0
 27 24  1  1  0  0  0
 28 11  1  0  0  0  0
 29 30  1  0  0  0  0
 30 28  1  0  0  0  0
M  END
>  <MODEL>
8

>  <REMARK>
 VINA RESULT:      -5.3      2.384      3.603
  Name = 
  2 active torsions:
  status: ('A' for Active; 'I' for Inactive)
    1  A    between atoms: C_11  and  O_28
    2  A    between atoms: O_28  and  C_30
                            x       y       z     vdW  Elec       q    Type
                         _______ _______ _______ _____ _____    ______ ____

>  <TORSDO>
F 2

$$$$
=
 OpenBabel11122412373D

 30 35  0  0  1  0  0  0  0  0999 V2000
  160.2980  209.7030  153.4560 C   0  0  0  0  0  0  0  0  0  0  0  0
  159.3630  211.8220  154.4040 C   0  0  0  0  0  0  0  0  0  0  0  0
  161.1730  211.8360  149.4760 S   0  0  0  0  0  0  0  0  0  0  0  0
  160.8800  209.0040  152.3570 C   0  0  0  0  0  0  0  0  0  0  0  0
  160.0740  209.0120  154.6510 C   0  0  0  0  0  3  0  0  0  0  0  0
  161.2100  205.4980  153.8810 C   0  0  0  0  0  1  0  0  0  0  0  0
  160.8180  206.9590  150.1120 N   0  0  1  0  0  0  0  0  0  0  0  0
  160.9160  206.9580  153.7150 C   0  0  0  0  0  0  0  0  0  0  0  0
  161.2260  208.0940  149.2660 C   0  0  2  0  0  3  0  0  0  0  0  0
  162.1860  210.4070  149.1460 C   0  0  0  0  0  0  0  0  0  0  0  0
  160.3830  207.6610  154.7980 C   0  0  0  0  0  0  0  0  0  0  0  0
  161.1530  207.6080  152.4850 C   0  0  0  0  0  0  0  0  0  0  0  0
  159.0380  213.1690  154.2340 C   0  0  0  0  0  3  0  0  0  0  0  0
  162.0420  207.5350  148.1220 C   0  0  0  0  0  2  0  0  0  0  0  0
  160.9400  205.7570  149.2880 C   0  0  0  0  0  2  0  0  0  0  0  0
  159.0910  211.2660  155.6110 F   0  0  0  0  0  0  0  0  0  0  0  0
  160.7880  211.0670  151.0500 C   0  0  0  0  0  0  0  0  0  0  0  0
  159.2850  213.8110  153.0240 C   0  0  0  0  0  3  0  0  0  0  0  0
  159.9530  211.0820  153.3420 C   0  0  0  0  0  0  0  0  0  0  0  0
  161.1510  209.7290  151.1710 C   0  0  0  0  0  0  0  0  0  0  0  0
  163.0810  210.4380  148.3170 O   0  0  0  0  0  0  0  0  0  0  0  0
  161.9560  209.2160  150.0170 C   0  0  1  0  0  3  0  0  0  0  0  0
  161.4780  206.1560  147.9270 C   0  0  0  0  0  2  0  0  0  0  0  0
  163.1420  206.7640  151.1370 C   0  0  0  0  0  1  0  0  0  0  0  0
  159.8630  213.1060  151.9720 C   0  0  0  0  0  3  0  0  0  0  0  0
  160.1990  211.7540  152.1150 C   0  0  0  0  0  0  0  0  0  0  0  0
  161.6230  206.7560  151.3300 C   0  0  2  0  0  3  0  0  0  0  0  0
  160.1570  207.0010  156.0120 O   0  0  0  0  0  0  0  0  0  0  0  0
  161.9450  208.1960  157.0710 C   0  0  0  0  0  1  0  0  0  0  0  0
  160.6110  207.5060  157.2610 C   0  0  0  0  0  2  0  0  0  0  0  0
  1  5  1  0  0  0  0
  2 16  1  0  0  0  0
  3 17  1  0  0  0  0
  4 12  1  0  0  0  0
  4  1  2  0  0  0  0
  5 11  2  0  0  0  0
  7 15  1  6  0  0  0
  7 27  1  0  0  0  0
  8  6  1  0  0  0  0
  8 11  1  0  0  0  0
  9 14  1  6  0  0  0
  9 22  1  0  0  0  0
  9  7  1  0  0  0  0
 10  3  1  0  0  0  0
 11 28  1  0  0  0  0
 12  8  2  0  0  0  0
 13  2  1  0  0  0  0
 17 20  2  0  0  0  0
 17 26  1  0  0  0  0
 18 13  2  0  0  0  0
 19  1  1  0  0  0  0
 19  2  2  0  0  0  0
 20  4  1  0  0  0  0
 21 10  2  0  0  0  0
 22 10  1  6  0  0  0
 22 20  1  0  0  0  0
 23 14  1  0  0  0  0
 23 15  1  0  0  0  0
 25 26  2  0  0  0  0
 25 18  1  0  0  0  0
 26 19  1  0  0  0  0
 27 24  1  6  0  0  0
 27 12  1  0  0  0  0
 28 30  1  0  0  0  0
 29 30  1  0  0  0  0
M  END
>  <MODEL>
9

>  <REMARK>
 VINA RESULT:      -5.3      2.970      7.320
  Name = 
  2 active torsions:
  status: ('A' for Active; 'I' for Inactive)
    1  A    between atoms: C_11  and  O_28
    2  A    between atoms: O_28  and  C_30
                            x       y       z     vdW  Elec       q    Type
                         _______ _______ _______ _____ _____    ______ ____

>  <TORSDO>
F 2

$$$$
