=
 OpenBabel11122412543D

 32 37  0  0  1  0  0  0  0  0999 V2000
  160.8200  201.3060  149.9190 C   0  0  0  0  0  2  0  0  0  0  0  0
  161.2500  206.4910  151.9540 C   0  0  0  0  0  0  0  0  0  0  0  0
  162.0490  209.8450  148.5060 C   0  0  0  0  0  3  0  0  0  0  0  0
  161.6420  210.9170  149.4790 C   0  0  0  0  0  2  0  0  0  0  0  0
  160.7130  207.2570  154.3210 C   0  0  0  0  0  0  0  0  0  0  0  0
  160.6040  208.3670  155.2640 C   0  0  0  0  0  0  0  0  0  0  0  0
  161.1760  204.1340  151.2060 C   0  0  0  0  0  0  0  0  0  0  0  0
  161.6340  205.8400  149.5680 N   0  0  0  0  0  2  0  0  0  0  0  0
  160.7330  210.4250  156.0630 N   0  0  0  0  0  0  0  0  0  0  0  0
  161.5820  203.4510  148.8110 C   0  0  0  0  0  2  0  0  0  0  0  0
  162.0620  208.5570  148.8620 C   0  0  0  0  0  3  0  0  0  0  0  0
  161.5620  206.8690  150.5640 C   0  0  0  0  0  0  0  0  0  0  0  0
  161.7660  208.1530  150.2510 C   0  0  0  0  0  0  0  0  0  0  0  0
  161.4450  208.9010  152.5830 C   0  0  0  0  0  0  0  0  0  0  0  0
  160.2480  209.7130  157.1730 N   0  0  0  0  0  0  0  0  0  0  0  0
  161.6450  201.7990  150.9460 O   0  0  0  0  0  0  0  0  0  0  0  0
  161.4200  204.4670  149.9130 C   0  0  0  0  0  0  0  0  0  0  0  0
  160.1420  208.3260  156.6830 C   0  0  0  0  0  3  0  0  0  0  0  0
  160.8760  202.7300  151.6550 C   0  0  0  0  0  2  0  0  0  0  0  0
  160.5090  202.3650  148.8510 C   0  0  1  0  0  3  0  0  0  0  0  0
  162.1310  210.6020  150.8930 C   0  0  0  0  0  2  0  0  0  0  0  0
  161.7290  209.2060  151.3000 C   0  0  0  0  0  0  0  0  0  0  0  0
  161.4950  210.0030  153.6270 C   0  0  0  0  0  2  0  0  0  0  0  0
  161.0730  205.1920  152.2330 C   0  0  0  0  0  3  0  0  0  0  0  0
  160.4160  206.0940  154.7030 O   0  0  0  0  0  0  0  0  0  0  0  0
  161.0090  211.8490  156.0990 C   0  0  0  0  0  1  0  0  0  0  0  0
  161.1430  207.5280  152.9630 N   0  0  0  0  0  0  0  0  0  0  0  0
  160.9240  209.5880  154.9470 C   0  0  0  0  0  0  0  0  0  0  0  0
  160.4000  201.7200  147.5520 N   0  0  0  0  0  2  0  0  0  0  0  0
  160.7880  202.3720  146.3430 C   0  0  0  0  0  0  0  0  0  0  0  0
  161.2700  203.6760  146.3650 O   0  0  0  0  0  1  0  0  0  0  0  0
  160.6900  201.7630  145.2460 O   0  0  0  0  0  0  0  0  0  0  0  0
  1 16  1  0  0  0  0
  2 24  2  0  0  0  0
  2 27  1  0  0  0  0
  3 11  2  0  0  0  0
  3  4  1  0  0  0  0
  4 21  1  0  0  0  0
  5 25  2  0  0  0  0
  5  6  1  0  0  0  0
  6 18  1  0  0  0  0
  7 19  1  0  0  0  0
  7 24  1  0  0  0  0
  8 17  1  0  0  0  0
  8 12  1  0  0  0  0
  9 26  1  0  0  0  0
  9 15  1  0  0  0  0
 10 20  1  0  0  0  0
 10 17  1  0  0  0  0
 11 13  1  0  0  0  0
 12  2  1  0  0  0  0
 13 12  2  0  0  0  0
 13 22  1  0  0  0  0
 14 27  1  0  0  0  0
 14 23  1  0  0  0  0
 16 19  1  0  0  0  0
 17  7  2  0  0  0  0
 18 15  2  0  0  0  0
 20 29  1  6  0  0  0
 20  1  1  0  0  0  0
 21 22  1  0  0  0  0
 22 14  2  0  0  0  0
 23 28  1  0  0  0  0
 27  5  1  0  0  0  0
 28  6  2  0  0  0  0
 28  9  1  0  0  0  0
 30 31  1  0  0  0  0
 30 29  1  0  0  0  0
 32 30  2  0  0  0  0
M  END
>  <MODEL>
1

>  <REMARK>
 VINA RESULT:     -10.1      0.000      0.000
  Name = 
  1 active torsions:
  status: ('A' for Active; 'I' for Inactive)
    1  A    between atoms: C_20  and  N_29
                            x       y       z     vdW  Elec       q    Type
                         _______ _______ _______ _____ _____    ______ ____

>  <TORSDO>
F 1

$$$$
=
 OpenBabel11122412543D

 32 37  0  0  1  0  0  0  0  0999 V2000
  161.4450  212.7930  148.9340 C   0  0  0  0  0  2  0  0  0  0  0  0
  161.4600  207.2080  149.0480 C   0  0  2  0  0  3  0  0  0  0  0  0
  161.1260  205.3810  153.5570 C   0  0  0  0  0  3  0  0  0  0  0  0
  160.7460  204.0490  152.9700 C   0  0  0  0  0  2  0  0  0  0  0  0
  161.2470  205.6340  147.0590 C   0  0  0  0  0  0  0  0  0  0  0  0
  161.1450  204.2580  146.5790 C   0  0  0  0  0  0  0  0  0  0  0  0
  161.6030  209.6700  148.8630 C   0  0  0  0  0  0  0  0  0  0  0  0
  161.5030  208.6930  151.0620 N   0  0  0  0  0  0  0  0  0  0  0  0
  161.1090  202.0480  146.6230 N   0  0  0  0  0  0  0  0  0  0  0  0
  161.6710  211.1870  150.8780 C   0  0  0  0  0  2  0  0  0  0  0  0
  161.3920  206.4300  152.7740 C   0  0  0  0  0  3  0  0  0  0  0  0
  161.4600  207.3690  150.5130 C   0  0  0  0  0  0  0  0  0  0  0  0
  161.4130  206.2920  151.3030 C   0  0  0  0  0  0  0  0  0  0  0  0
  161.4050  204.7330  149.3880 C   0  0  0  0  0  0  0  0  0  0  0  0
  160.9410  202.3130  145.2530 N   0  0  0  0  0  0  0  0  0  0  0  0
  162.3580  211.8890  148.3620 O   0  0  0  0  0  0  0  0  0  0  0  0
  161.5600  209.8420  150.2090 C   0  0  0  0  0  0  0  0  0  0  0  0
  160.9550  203.7860  145.1760 C   0  0  0  0  0  3  0  0  0  0  0  0
  161.5990  210.8130  147.8840 C   0  0  0  0  0  2  0  0  0  0  0  0
  160.7950  212.2470  150.2140 C   0  0  1  0  0  3  0  0  0  0  0  0
  161.5200  203.7640  151.6830 C   0  0  0  0  0  2  0  0  0  0  0  0
  161.4080  204.9230  150.7230 C   0  0  0  0  0  0  0  0  0  0  0  0
  161.4780  203.3150  148.8490 C   0  0  0  0  0  2  0  0  0  0  0  0
  161.5300  208.3100  148.2900 C   0  0  0  0  0  3  0  0  0  0  0  0
  161.1980  206.5800  146.2290 O   0  0  0  0  0  0  0  0  0  0  0  0
  161.1730  200.7020  147.1640 C   0  0  0  0  0  1  0  0  0  0  0  0
  161.3830  205.8740  148.4830 N   0  0  0  0  0  0  0  0  0  0  0  0
  161.2190  203.2330  147.3760 C   0  0  0  0  0  0  0  0  0  0  0  0
  160.5520  213.3460  151.1360 N   0  0  0  0  0  2  0  0  0  0  0  0
  159.3170  213.4940  151.8360 C   0  0  0  0  0  0  0  0  0  0  0  0
  158.2790  212.5900  151.6390 O   0  0  0  0  0  0  0  0  0  0  0  0
  159.1640  214.4530  152.6360 O   0  0  0  0  0  1  0  0  0  0  0  0
  1 20  1  0  0  0  0
  2 24  1  6  0  0  0
  2 12  1  0  0  0  0
  4  3  1  0  0  0  0
  5 27  1  0  0  0  0
  6  5  1  0  0  0  0
  6 28  2  0  0  0  0
  7 17  1  0  0  0  0
  9 26  1  0  0  0  0
  9 28  1  0  0  0  0
 11  3  2  0  0  0  0
 12  8  1  0  0  0  0
 12 13  2  0  0  0  0
 13 11  1  0  0  0  0
 14 22  2  0  0  0  0
 15  9  1  0  0  0  0
 16  1  1  0  0  0  0
 17 10  1  0  0  0  0
 17  8  2  0  0  0  0
 18 15  2  0  0  0  0
 18  6  1  0  0  0  0
 19 16  1  0  0  0  0
 19  7  1  0  0  0  0
 20 10  1  0  0  0  0
 20 29  1  1  0  0  0
 21  4  1  0  0  0  0
 22 13  1  0  0  0  0
 22 21  1  0  0  0  0
 23 14  1  0  0  0  0
 24  7  2  0  0  0  0
 25  5  2  0  0  0  0
 27  2  1  0  0  0  0
 27 14  1  0  0  0  0
 28 23  1  0  0  0  0
 29 30  1  0  0  0  0
 30 32  1  0  0  0  0
 31 30  2  0  0  0  0
M  END
>  <MODEL>
2

>  <REMARK>
 VINA RESULT:      -9.2      3.153      8.986
  Name = 
  1 active torsions:
  status: ('A' for Active; 'I' for Inactive)
    1  A    between atoms: C_20  and  N_29
                            x       y       z     vdW  Elec       q    Type
                         _______ _______ _______ _____ _____    ______ ____

>  <TORSDO>
F 1

$$$$
=
 OpenBabel11122412543D

 32 37  0  0  1  0  0  0  0  0999 V2000
  161.2010  211.0790  153.6690 C   0  0  0  0  0  2  0  0  0  0  0  0
  161.2080  206.6370  150.2800 C   0  0  2  0  0  3  0  0  0  0  0  0
  160.4790  202.4290  152.6330 C   0  0  0  0  0  3  0  0  0  0  0  0
  160.1530  201.7720  151.3200 C   0  0  0  0  0  2  0  0  0  0  0  0
  161.1700  206.6520  147.7350 C   0  0  0  0  0  0  0  0  0  0  0  0
  161.1120  205.8790  146.4970 C   0  0  0  0  0  0  0  0  0  0  0  0
  161.3660  208.6710  151.6790 C   0  0  0  0  0  0  0  0  0  0  0  0
  161.0740  206.5470  152.7770 N   0  0  0  0  0  0  0  0  0  0  0  0
  161.0730  204.1240  145.1520 N   0  0  0  0  0  0  0  0  0  0  0  0
  161.2570  208.6030  154.1990 C   0  0  0  0  0  2  0  0  0  0  0  0
  160.8130  203.7210  152.6940 C   0  0  0  0  0  3  0  0  0  0  0  0
  161.0790  205.8550  151.5220 C   0  0  0  0  0  0  0  0  0  0  0  0
  160.9630  204.5240  151.4640 C   0  0  0  0  0  0  0  0  0  0  0  0
  161.1240  204.4940  148.9990 C   0  0  0  0  0  0  0  0  0  0  0  0
  161.0260  205.1910  144.2380 N   0  0  0  0  0  0  0  0  0  0  0  0
  162.1610  210.6760  152.7230 O   0  0  0  0  0  0  0  0  0  0  0  0
  161.2050  207.9720  152.8320 C   0  0  0  0  0  0  0  0  0  0  0  0
  161.0460  206.3910  145.0960 C   0  0  0  0  0  3  0  0  0  0  0  0
  161.4480  210.1730  151.6280 C   0  0  0  0  0  2  0  0  0  0  0  0
  160.4410  209.8930  154.2820 C   0  0  1  0  0  3  0  0  0  0  0  0
  161.0370  202.3050  150.1930 C   0  0  0  0  0  2  0  0  0  0  0  0
  161.0090  203.8140  150.1590 C   0  0  0  0  0  0  0  0  0  0  0  0
  161.2450  203.7150  147.7020 C   0  0  0  0  0  2  0  0  0  0  0  0
  161.3440  207.9670  150.3800 C   0  0  0  0  0  3  0  0  0  0  0  0
  161.1950  207.9100  147.6740 O   0  0  0  0  0  0  0  0  0  0  0  0
  161.0900  202.7330  144.7400 C   0  0  0  0  0  1  0  0  0  0  0  0
  161.1810  205.9490  149.0030 N   0  0  0  0  0  0  0  0  0  0  0  0
  161.1160  204.5780  146.4850 C   0  0  0  0  0  0  0  0  0  0  0  0
  160.1180  210.1940  155.6680 N   0  0  0  0  0  2  0  0  0  0  0  0
  158.8980  210.8310  156.0440 C   0  0  0  0  0  0  0  0  0  0  0  0
  157.9720  211.2130  155.0800 O   0  0  0  0  0  0  0  0  0  0  0  0
  158.6580  211.0530  157.2590 O   0  0  0  0  0  1  0  0  0  0  0  0
  1 20  1  0  0  0  0
  2 24  1  6  0  0  0
  2 12  1  0  0  0  0
  3 11  2  0  0  0  0
  4  3  1  0  0  0  0
  5 27  1  0  0  0  0
  6  5  1  0  0  0  0
  7 17  1  0  0  0  0
  8 17  2  0  0  0  0
  9 28  1  0  0  0  0
 10 20  1  0  0  0  0
 12  8  1  0  0  0  0
 13 12  2  0  0  0  0
 13 11  1  0  0  0  0
 14 27  1  0  0  0  0
 14 22  2  0  0  0  0
 15 18  2  0  0  0  0
 15  9  1  0  0  0  0
 16  1  1  0  0  0  0
 17 10  1  0  0  0  0
 18  6  1  0  0  0  0
 19  7  1  0  0  0  0
 19 16  1  0  0  0  0
 20 29  1  1  0  0  0
 21  4  1  0  0  0  0
 22 21  1  0  0  0  0
 22 13  1  0  0  0  0
 23 14  1  0  0  0  0
 24  7  2  0  0  0  0
 25  5  2  0  0  0  0
 26  9  1  0  0  0  0
 27  2  1  0  0  0  0
 28  6  2  0  0  0  0
 28 23  1  0  0  0  0
 29 30  1  0  0  0  0
 30 32  1  0  0  0  0
 31 30  2  0  0  0  0
M  END
>  <MODEL>
3

>  <REMARK>
 VINA RESULT:      -8.1      2.601      8.953
  Name = 
  1 active torsions:
  status: ('A' for Active; 'I' for Inactive)
    1  A    between atoms: C_20  and  N_29
                            x       y       z     vdW  Elec       q    Type
                         _______ _______ _______ _____ _____    ______ ____

>  <TORSDO>
F 1

$$$$
