=
 OpenBabel11122413233D

 31 35  0  0  1  0  0  0  0  0999 V2000
  161.2170  203.8920  145.6090 C   0  0  0  0  0  0  0  0  0  0  0  0
  160.5180  205.7810  148.8400 C   0  0  2  0  0  3  0  0  0  0  0  0
  160.8750  204.8230  149.9640 C   0  0  0  0  0  0  0  0  0  0  0  0
  161.1110  202.5480  150.7970 C   0  0  0  0  0  0  0  0  0  0  0  0
  161.1350  205.4070  147.5080 C   0  0  0  0  0  0  0  0  0  0  0  0
  162.2800  204.6170  145.0690 C   0  0  0  0  0  3  0  0  0  0  0  0
  160.8590  203.4360  149.7500 C   0  0  0  0  0  3  0  0  0  0  0  0
  162.2840  207.6000  149.0130 C   0  0  2  0  0  3  0  0  0  0  0  0
  160.7420  202.8020  144.9600 F   0  0  0  0  0  0  0  0  0  0  0  0
  161.1290  206.7750  151.5570 C   0  0  0  0  0  2  0  0  0  0  0  0
  161.1050  201.0830  150.5470 C   0  0  0  0  0  1  0  0  0  0  0  0
  162.6660  207.4450  147.5450 C   0  0  0  0  0  2  0  0  0  0  0  0
  160.8020  207.2500  149.2130 C   0  0  2  0  0  3  0  0  0  0  0  0
  160.6470  204.2870  146.8200 C   0  0  0  0  0  3  0  0  0  0  0  0
  161.3640  203.0360  152.0800 C   0  0  0  0  0  3  0  0  0  0  0  0
  162.2050  206.1450  146.9520 C   0  0  0  0  0  0  0  0  0  0  0  0
  162.7640  205.7470  145.7330 C   0  0  0  0  0  3  0  0  0  0  0  0
  160.3420  207.5320  150.5790 N   0  0  0  0  0  2  0  0  0  0  0  0
  161.0920  205.3050  151.2740 C   0  0  0  0  0  0  0  0  0  0  0  0
  161.3550  204.4120  152.3160 C   0  0  0  0  0  3  0  0  0  0  0  0
  161.2960  209.9360  147.7120 O   0  0  0  0  0  0  0  0  0  0  0  0
  162.0040  210.0990  148.7430 C   0  0  0  0  0  0  0  0  0  0  0  0
  162.5380  208.9700  149.4370 N   0  0  0  0  0  2  0  0  0  0  0  0
  161.0430  213.6380  147.7630 N   0  0  0  0  0  0  0  0  0  0  0  0
  161.0480  212.1910  149.7460 C   0  0  0  0  0  2  0  0  0  0  0  0
  164.1290  211.6480  147.6590 O   0  0  0  0  0  1  0  0  0  0  0  0
  160.1980  214.1020  146.6790 C   0  0  0  0  0  1  0  0  0  0  0  0
  160.2300  212.7290  148.5690 C   0  0  0  0  0  2  0  0  0  0  0  0
  163.0690  212.3510  148.2350 C   0  0  2  0  0  3  0  0  0  0  0  0
  162.3110  211.4790  149.2500 C   0  0  2  0  0  3  0  0  0  0  0  0
  162.1270  212.8710  147.1500 C   0  0  0  0  0  2  0  0  0  0  0  0
  1 14  1  0  0  0  0
  2  5  1  6  0  0  0
  2 13  1  0  0  0  0
  2  3  1  0  0  0  0
  3 19  1  0  0  0  0
  4 15  2  0  0  0  0
  6  1  2  0  0  0  0
  6 17  1  0  0  0  0
  7  3  2  0  0  0  0
  7  4  1  0  0  0  0
  8 13  1  0  0  0  0
  8 23  1  6  0  0  0
  9  1  1  0  0  0  0
 11  4  1  0  0  0  0
 12  8  1  0  0  0  0
 13 18  1  1  0  0  0
 14  5  2  0  0  0  0
 15 20  1  0  0  0  0
 16  5  1  0  0  0  0
 16 12  1  0  0  0  0
 17 16  2  0  0  0  0
 18 10  1  0  0  0  0
 19 10  1  0  0  0  0
 19 20  2  0  0  0  0
 21 22  2  0  0  0  0
 22 23  1  0  0  0  0
 24 28  1  0  0  0  0
 27 24  1  0  0  0  0
 28 25  1  0  0  0  0
 29 26  1  6  0  0  0
 29 30  1  0  0  0  0
 30 22  1  6  0  0  0
 30 25  1  0  0  0  0
 31 24  1  0  0  0  0
 31 29  1  0  0  0  0
M  END
>  <MODEL>
1

>  <REMARK>
 VINA RESULT:      -7.8      0.000      0.000
  Name = 
  2 active torsions:
  status: ('A' for Active; 'I' for Inactive)
    1  A    between atoms: C_5  and  C_30
    2  A    between atoms: C_10  and  N_16
                            x       y       z     vdW  Elec       q    Type
                         _______ _______ _______ _____ _____    ______ ____

>  <TORSDO>
F 2

$$$$
=
 OpenBabel11122413233D

 31 35  0  0  1  0  0  0  0  0999 V2000
  160.7460  207.5340  156.3700 C   0  0  0  0  0  0  0  0  0  0  0  0
  161.9070  208.6230  152.9120 C   0  0  2  0  0  3  0  0  0  0  0  0
  161.4920  207.5070  151.9670 C   0  0  0  0  0  0  0  0  0  0  0  0
  160.9950  205.1570  151.5730 C   0  0  0  0  0  0  0  0  0  0  0  0
  161.1600  208.6080  154.2290 C   0  0  0  0  0  0  0  0  0  0  0  0
  159.7620  208.4810  156.6610 C   0  0  0  0  0  3  0  0  0  0  0  0
  161.3010  206.2020  152.4460 C   0  0  0  0  0  3  0  0  0  0  0  0
  160.4270  210.5730  152.2300 C   0  0  2  0  0  3  0  0  0  0  0  0
  161.0210  206.5500  157.2580 F   0  0  0  0  0  0  0  0  0  0  0  0
  161.6160  209.1100  150.0100 C   0  0  0  0  0  2  0  0  0  0  0  0
  160.7810  203.7860  152.1010 C   0  0  0  0  0  1  0  0  0  0  0  0
  159.9340  210.7690  153.6600 C   0  0  0  0  0  2  0  0  0  0  0  0
  161.8560  210.0080  152.2370 C   0  0  2  0  0  3  0  0  0  0  0  0
  161.4420  207.6010  155.1620 C   0  0  0  0  0  3  0  0  0  0  0  0
  160.8960  205.4010  150.2020 C   0  0  0  0  0  3  0  0  0  0  0  0
  160.1700  209.5710  154.5330 C   0  0  0  0  0  0  0  0  0  0  0  0
  159.4840  209.5020  155.7500 C   0  0  0  0  0  3  0  0  0  0  0  0
  162.4370  209.9470  150.8890 N   0  0  0  0  0  2  0  0  0  0  0  0
  161.4300  207.7360  150.5740 C   0  0  0  0  0  0  0  0  0  0  0  0
  161.1120  206.6880  149.7050 C   0  0  0  0  0  3  0  0  0  0  0  0
  158.0760  212.0810  151.6610 O   0  0  0  0  0  0  0  0  0  0  0  0
  159.1800  212.5580  151.2810 C   0  0  0  0  0  0  0  0  0  0  0  0
  160.3950  211.8490  151.5270 N   0  0  0  0  0  2  0  0  0  0  0  0
  157.9370  213.8800  147.9480 N   0  0  0  0  0  0  0  0  0  0  0  0
  157.8370  214.4530  150.3330 C   0  0  0  0  0  2  0  0  0  0  0  0
  161.2290  213.1290  149.3930 O   0  0  0  0  0  1  0  0  0  0  0  0
  157.2040  213.2010  146.8960 C   0  0  0  0  0  1  0  0  0  0  0  0
  157.1360  213.7560  149.1650 C   0  0  0  0  0  2  0  0  0  0  0  0
  160.0180  213.8040  149.2300 C   0  0  2  0  0  3  0  0  0  0  0  0
  159.2370  213.8710  150.5540 C   0  0  2  0  0  3  0  0  0  0  0  0
  159.1840  213.1410  148.1350 C   0  0  0  0  0  2  0  0  0  0  0  0
  1  6  1  0  0  0  0
  1  9  1  0  0  0  0
  2  3  1  6  0  0  0
  2  5  1  0  0  0  0
  3  7  1  0  0  0  0
  4 11  1  0  0  0  0
  4  7  2  0  0  0  0
  5 16  2  0  0  0  0
  5 14  1  0  0  0  0
  8 23  1  6  0  0  0
  8 13  1  0  0  0  0
  8 12  1  0  0  0  0
 10 19  1  0  0  0  0
 10 18  1  0  0  0  0
 12 16  1  0  0  0  0
 13 18  1  6  0  0  0
 13  2  1  0  0  0  0
 14  1  2  0  0  0  0
 15  4  1  0  0  0  0
 16 17  1  0  0  0  0
 17  6  2  0  0  0  0
 19  3  2  0  0  0  0
 20 15  2  0  0  0  0
 20 19  1  0  0  0  0
 22 23  1  0  0  0  0
 22 21  2  0  0  0  0
 24 31  1  0  0  0  0
 24 28  1  0  0  0  0
 25 30  1  0  0  0  0
 27 24  1  0  0  0  0
 28 25  1  0  0  0  0
 29 26  1  1  0  0  0
 29 30  1  0  0  0  0
 30 22  1  6  0  0  0
 31 29  1  0  0  0  0
M  END
>  <MODEL>
2

>  <REMARK>
 VINA RESULT:      -7.8      3.872      6.133
  Name = 
  2 active torsions:
  status: ('A' for Active; 'I' for Inactive)
    1  A    between atoms: C_5  and  C_30
    2  A    between atoms: C_10  and  N_16
                            x       y       z     vdW  Elec       q    Type
                         _______ _______ _______ _____ _____    ______ ____

>  <TORSDO>
F 2

$$$$
=
 OpenBabel11122413233D

 31 35  0  0  1  0  0  0  0  0999 V2000
  161.0860  206.5070  146.6850 C   0  0  0  0  0  0  0  0  0  0  0  0
  160.3390  205.1540  150.1640 C   0  0  2  0  0  3  0  0  0  0  0  0
  160.7680  203.6960  150.1410 C   0  0  0  0  0  0  0  0  0  0  0  0
  161.1430  201.6310  148.9080 C   0  0  0  0  0  0  0  0  0  0  0  0
  160.9530  205.9820  149.0540 C   0  0  0  0  0  0  0  0  0  0  0  0
  162.0980  207.4340  146.9420 C   0  0  0  0  0  3  0  0  0  0  0  0
  160.8250  202.9900  148.9290 C   0  0  0  0  0  3  0  0  0  0  0  0
  162.0040  206.2480  151.7410 C   0  0  2  0  0  3  0  0  0  0  0  0
  160.6620  206.3030  145.4150 F   0  0  0  0  0  0  0  0  0  0  0  0
  160.9400  203.6990  152.6670 C   0  0  0  0  0  2  0  0  0  0  0  0
  161.2140  200.9040  147.6140 C   0  0  0  0  0  1  0  0  0  0  0  0
  162.3690  207.3080  150.7080 C   0  0  0  0  0  2  0  0  0  0  0  0
  160.5470  205.8010  151.5470 C   0  0  2  0  0  3  0  0  0  0  0  0
  160.5160  205.7890  147.7370 C   0  0  0  0  0  3  0  0  0  0  0  0
  161.3900  200.9540  150.1040 C   0  0  0  0  0  3  0  0  0  0  0  0
  161.9710  206.9300  149.3110 C   0  0  0  0  0  0  0  0  0  0  0  0
  162.5290  207.6520  148.2520 C   0  0  0  0  0  3  0  0  0  0  0  0
  160.0950  204.8960  152.6130 N   0  0  0  0  0  2  0  0  0  0  0  0
  160.9790  202.9930  151.3470 C   0  0  0  0  0  0  0  0  0  0  0  0
  161.3100  201.6350  151.3200 C   0  0  0  0  0  3  0  0  0  0  0  0
  160.5420  208.4320  152.8460 O   0  0  0  0  0  0  0  0  0  0  0  0
  161.4140  207.8860  153.5760 C   0  0  0  0  0  0  0  0  0  0  0  0
  162.1880  206.7920  153.0800 N   0  0  0  0  0  2  0  0  0  0  0  0
  159.5700  210.0910  156.0550 N   0  0  0  0  0  0  0  0  0  0  0  0
  160.6080  207.8680  155.9510 C   0  0  0  0  0  2  0  0  0  0  0  0
  162.6400  210.4070  154.0620 O   0  0  0  0  0  1  0  0  0  0  0  0
  158.2980  210.7730  155.9200 C   0  0  0  0  0  1  0  0  0  0  0  0
  159.3110  208.6700  155.8240 C   0  0  0  0  0  2  0  0  0  0  0  0
  161.7980  209.9130  155.0610 C   0  0  2  0  0  3  0  0  0  0  0  0
  161.6660  208.3830  154.9700 C   0  0  2  0  0  3  0  0  0  0  0  0
  160.4290  210.5860  154.9810 C   0  0  0  0  0  2  0  0  0  0  0  0
  1  6  2  0  0  0  0
  1 14  1  0  0  0  0
  2  5  1  6  0  0  0
  2 13  1  0  0  0  0
  3  2  1  0  0  0  0
  3 19  1  0  0  0  0
  4  7  1  0  0  0  0
  4 15  2  0  0  0  0
  5 16  1  0  0  0  0
  6 17  1  0  0  0  0
  7  3  2  0  0  0  0
  8 23  1  1  0  0  0
  9  1  1  0  0  0  0
 11  4  1  0  0  0  0
 12  8  1  0  0  0  0
 13  8  1  0  0  0  0
 13 18  1  1  0  0  0
 14  5  2  0  0  0  0
 15 20  1  0  0  0  0
 16 12  1  0  0  0  0
 17 16  2  0  0  0  0
 18 10  1  0  0  0  0
 19 10  1  0  0  0  0
 20 19  2  0  0  0  0
 21 22  2  0  0  0  0
 23 22  1  0  0  0  0
 27 24  1  0  0  0  0
 28 25  1  0  0  0  0
 28 24  1  0  0  0  0
 29 26  1  6  0  0  0
 30 22  1  6  0  0  0
 30 29  1  0  0  0  0
 30 25  1  0  0  0  0
 31 29  1  0  0  0  0
 31 24  1  0  0  0  0
M  END
>  <MODEL>
3

>  <REMARK>
 VINA RESULT:      -7.7      3.598      4.888
  Name = 
  2 active torsions:
  status: ('A' for Active; 'I' for Inactive)
    1  A    between atoms: C_5  and  C_30
    2  A    between atoms: C_10  and  N_16
                            x       y       z     vdW  Elec       q    Type
                         _______ _______ _______ _____ _____    ______ ____

>  <TORSDO>
F 2

$$$$
=
 OpenBabel11122413233D

 31 35  0  0  1  0  0  0  0  0999 V2000
  161.1580  204.4640  145.2760 C   0  0  0  0  0  0  0  0  0  0  0  0
  160.5170  205.3180  148.9300 C   0  0  2  0  0  3  0  0  0  0  0  0
  160.8940  204.0730  149.7170 C   0  0  0  0  0  0  0  0  0  0  0  0
  161.1440  201.6550  149.8400 C   0  0  0  0  0  0  0  0  0  0  0  0
  161.1100  205.3540  147.5370 C   0  0  0  0  0  0  0  0  0  0  0  0
  162.2110  205.3220  144.9550 C   0  0  0  0  0  3  0  0  0  0  0  0
  160.8740  202.8100  149.1050 C   0  0  0  0  0  3  0  0  0  0  0  0
  162.2850  207.0140  149.6010 C   0  0  2  0  0  3  0  0  0  0  0  0
  160.6720  203.6110  144.3440 F   0  0  0  0  0  0  0  0  0  0  0  0
  161.1760  205.4720  151.8090 C   0  0  0  0  0  2  0  0  0  0  0  0
  161.1330  200.3290  149.1710 C   0  0  0  0  0  1  0  0  0  0  0  0
  162.6410  207.2990  148.1460 C   0  0  0  0  0  2  0  0  0  0  0  0
  160.8070  206.6130  149.7130 C   0  0  2  0  0  3  0  0  0  0  0  0
  160.6090  204.4840  146.5590 C   0  0  0  0  0  3  0  0  0  0  0  0
  161.4190  201.7460  151.2060 C   0  0  0  0  0  3  0  0  0  0  0  0
  162.1700  206.2290  147.2040 C   0  0  0  0  0  0  0  0  0  0  0  0
  162.7070  206.2090  145.9130 C   0  0  0  0  0  3  0  0  0  0  0  0
  160.3710  206.4790  151.1100 N   0  0  0  0  0  2  0  0  0  0  0  0
  161.1330  204.1500  151.1070 C   0  0  0  0  0  0  0  0  0  0  0  0
  161.4150  202.9920  151.8360 C   0  0  0  0  0  3  0  0  0  0  0  0
  161.5050  209.6700  148.9180 O   0  0  0  0  0  0  0  0  0  0  0  0
  162.1200  209.5050  150.0070 C   0  0  0  0  0  0  0  0  0  0  0  0
  162.5460  208.2010  150.4040 N   0  0  0  0  0  2  0  0  0  0  0  0
  160.2490  211.4730  152.6600 N   0  0  0  0  0  0  0  0  0  0  0  0
  162.3790  210.2840  152.3780 C   0  0  0  0  0  2  0  0  0  0  0  0
  161.4470  212.1660  149.2580 O   0  0  0  0  0  1  0  0  0  0  0  0
  158.8960  211.3060  153.1560 C   0  0  0  0  0  1  0  0  0  0  0  0
  160.9330  210.1970  152.8720 C   0  0  0  0  0  2  0  0  0  0  0  0
  161.5370  211.9010  150.6260 C   0  0  2  0  0  3  0  0  0  0  0  0
  162.4260  210.6750  150.8980 C   0  0  2  0  0  3  0  0  0  0  0  0
  160.1440  211.7090  151.2220 C   0  0  0  0  0  2  0  0  0  0  0  0
  1 14  1  0  0  0  0
  2  5  1  6  0  0  0
  2 13  1  0  0  0  0
  2  3  1  0  0  0  0
  3 19  1  0  0  0  0
  4 15  2  0  0  0  0
  6  1  2  0  0  0  0
  6 17  1  0  0  0  0
  7  3  2  0  0  0  0
  7  4  1  0  0  0  0
  8 13  1  0  0  0  0
  8 23  1  1  0  0  0
  9  1  1  0  0  0  0
 11  4  1  0  0  0  0
 12  8  1  0  0  0  0
 13 18  1  1  0  0  0
 14  5  2  0  0  0  0
 15 20  1  0  0  0  0
 16  5  1  0  0  0  0
 16 12  1  0  0  0  0
 17 16  2  0  0  0  0
 18 10  1  0  0  0  0
 19 10  1  0  0  0  0
 19 20  2  0  0  0  0
 21 22  2  0  0  0  0
 22 23  1  0  0  0  0
 24 28  1  0  0  0  0
 24 27  1  0  0  0  0
 25 28  1  0  0  0  0
 29 26  1  6  0  0  0
 29 30  1  0  0  0  0
 29 31  1  0  0  0  0
 30 22  1  6  0  0  0
 30 25  1  0  0  0  0
 31 24  1  0  0  0  0
M  END
>  <MODEL>
4

>  <REMARK>
 VINA RESULT:      -6.9      1.890      2.451
  Name = 
  2 active torsions:
  status: ('A' for Active; 'I' for Inactive)
    1  A    between atoms: C_5  and  C_30
    2  A    between atoms: C_10  and  N_16
                            x       y       z     vdW  Elec       q    Type
                         _______ _______ _______ _____ _____    ______ ____

>  <TORSDO>
F 2

$$$$
=
 OpenBabel11122413233D

 31 35  0  0  1  0  0  0  0  0999 V2000
  160.7870  208.4630  154.6390 C   0  0  0  0  0  0  0  0  0  0  0  0
  162.1340  209.3130  151.1810 C   0  0  2  0  0  3  0  0  0  0  0  0
  161.6210  208.2200  150.2580 C   0  0  0  0  0  0  0  0  0  0  0  0
  160.8790  205.9270  149.9180 C   0  0  0  0  0  0  0  0  0  0  0  0
  161.3620  209.4200  152.4790 C   0  0  0  0  0  0  0  0  0  0  0  0
  159.9070  209.5190  154.8790 C   0  0  0  0  0  3  0  0  0  0  0  0
  161.2780  206.9590  150.7690 C   0  0  0  0  0  3  0  0  0  0  0  0
  160.8910  211.3900  150.4090 C   0  0  2  0  0  3  0  0  0  0  0  0
  160.9350  207.4820  155.5610 F   0  0  0  0  0  0  0  0  0  0  0  0
  161.9600  209.7390  148.2600 C   0  0  0  0  0  2  0  0  0  0  0  0
  160.5050  204.6030  150.4790 C   0  0  0  0  0  1  0  0  0  0  0  0
  160.3910  211.6820  151.8200 C   0  0  0  0  0  2  0  0  0  0  0  0
  162.2490  210.6750  150.4670 C   0  0  2  0  0  3  0  0  0  0  0  0
  161.5130  208.4160  153.4470 C   0  0  0  0  0  3  0  0  0  0  0  0
  160.8360  206.1380  148.5390 C   0  0  0  0  0  3  0  0  0  0  0  0
  160.4770  210.4930  152.7310 C   0  0  0  0  0  0  0  0  0  0  0  0
  159.7620  210.5360  153.9330 C   0  0  0  0  0  3  0  0  0  0  0  0
  162.8490  210.5090  149.1360 N   0  0  0  0  0  2  0  0  0  0  0  0
  161.6130  208.4110  148.8580 C   0  0  0  0  0  0  0  0  0  0  0  0
  161.2010  207.3790  148.0120 C   0  0  0  0  0  3  0  0  0  0  0  0
  159.6090  211.9700  147.9290 O   0  0  0  0  0  0  0  0  0  0  0  0
  160.3350  212.8690  148.4340 C   0  0  0  0  0  0  0  0  0  0  0  0
  161.0130  212.6400  149.6700 N   0  0  0  0  0  2  0  0  0  0  0  0
  160.9080  214.0110  144.8590 N   0  0  0  0  0  0  0  0  0  0  0  0
  159.3860  214.4530  146.7350 C   0  0  0  0  0  2  0  0  0  0  0  0
  162.9160  213.9570  147.9350 O   0  0  0  0  0  1  0  0  0  0  0  0
  161.0410  213.2270  143.6460 C   0  0  0  0  0  1  0  0  0  0  0  0
  159.6130  213.6630  145.4440 C   0  0  0  0  0  2  0  0  0  0  0  0
  161.8890  214.3510  147.0730 C   0  0  2  0  0  3  0  0  0  0  0  0
  160.5120  214.1890  147.7390 C   0  0  2  0  0  3  0  0  0  0  0  0
  161.9620  213.5630  145.7670 C   0  0  0  0  0  2  0  0  0  0  0  0
  1  6  1  0  0  0  0
  1  9  1  0  0  0  0
  2  3  1  6  0  0  0
  2  5  1  0  0  0  0
  3  7  1  0  0  0  0
  4 11  1  0  0  0  0
  4  7  2  0  0  0  0
  5 16  2  0  0  0  0
  5 14  1  0  0  0  0
  8 23  1  6  0  0  0
  8 13  1  0  0  0  0
  8 12  1  0  0  0  0
 10 19  1  0  0  0  0
 10 18  1  0  0  0  0
 12 16  1  0  0  0  0
 13 18  1  6  0  0  0
 13  2  1  0  0  0  0
 14  1  2  0  0  0  0
 15  4  1  0  0  0  0
 16 17  1  0  0  0  0
 17  6  2  0  0  0  0
 19  3  2  0  0  0  0
 20 15  2  0  0  0  0
 20 19  1  0  0  0  0
 21 22  2  0  0  0  0
 22 23  1  0  0  0  0
 24 28  1  0  0  0  0
 24 31  1  0  0  0  0
 25 30  1  0  0  0  0
 27 24  1  0  0  0  0
 28 25  1  0  0  0  0
 29 30  1  0  0  0  0
 29 26  1  1  0  0  0
 30 22  1  6  0  0  0
 31 29  1  0  0  0  0
M  END
>  <MODEL>
5

>  <REMARK>
 VINA RESULT:      -6.2      3.043      5.620
  Name = 
  2 active torsions:
  status: ('A' for Active; 'I' for Inactive)
    1  A    between atoms: C_5  and  C_30
    2  A    between atoms: C_10  and  N_16
                            x       y       z     vdW  Elec       q    Type
                         _______ _______ _______ _____ _____    ______ ____

>  <TORSDO>
F 2

$$$$
=
 OpenBabel11122413233D

 31 35  0  0  1  0  0  0  0  0999 V2000
  157.6380  213.7630  152.3520 C   0  0  0  0  0  0  0  0  0  0  0  0
  160.6920  213.4690  150.0970 C   0  0  2  0  0  3  0  0  0  0  0  0
  161.1060  212.0080  150.1510 C   0  0  0  0  0  0  0  0  0  0  0  0
  161.2040  209.8900  151.3460 C   0  0  0  0  0  0  0  0  0  0  0  0
  159.2660  213.7100  150.5470 C   0  0  0  0  0  0  0  0  0  0  0  0
  156.6290  214.0750  151.4390 C   0  0  0  0  0  3  0  0  0  0  0  0
  160.7620  211.2110  151.2540 C   0  0  0  0  0  3  0  0  0  0  0  0
  159.8660  213.7750  147.7140 C   0  0  2  0  0  3  0  0  0  0  0  0
  157.3440  213.6290  153.6670 F   0  0  0  0  0  0  0  0  0  0  0  0
  162.3480  212.2720  147.9610 C   0  0  0  0  0  2  0  0  0  0  0  0
  160.8170  209.0570  152.5140 C   0  0  0  0  0  1  0  0  0  0  0  0
  158.5370  214.3510  148.1900 C   0  0  0  0  0  2  0  0  0  0  0  0
  160.9760  214.1060  148.7230 C   0  0  2  0  0  3  0  0  0  0  0  0
  158.9490  213.5850  151.9070 C   0  0  0  0  0  3  0  0  0  0  0  0
  162.0140  209.3540  150.3440 C   0  0  0  0  0  3  0  0  0  0  0  0
  158.2420  214.0370  149.6280 C   0  0  0  0  0  0  0  0  0  0  0  0
  156.9330  214.2230  150.0850 C   0  0  0  0  0  3  0  0  0  0  0  0
  162.3060  213.7110  148.2370 N   0  0  0  0  0  2  0  0  0  0  0  0
  161.9590  211.4690  149.1630 C   0  0  0  0  0  0  0  0  0  0  0  0
  162.3880  210.1420  149.2540 C   0  0  0  0  0  3  0  0  0  0  0  0
  159.8910  212.3170  145.2640 O   0  0  0  0  0  0  0  0  0  0  0  0
  160.1790  213.5440  145.2140 C   0  0  0  0  0  0  0  0  0  0  0  0
  160.1930  214.3300  146.4070 N   0  0  0  0  0  2  0  0  0  0  0  0
  161.0140  212.3490  141.7100 N   0  0  0  0  0  0  0  0  0  0  0  0
  159.4740  213.8970  142.8330 C   0  0  0  0  0  2  0  0  0  0  0  0
  162.8790  213.9700  144.4280 O   0  0  0  0  0  1  0  0  0  0  0  0
  161.1110  210.9980  141.1900 C   0  0  0  0  0  1  0  0  0  0  0  0
  159.6670  212.4900  142.2610 C   0  0  0  0  0  2  0  0  0  0  0  0
  161.9370  213.8520  143.4040 C   0  0  2  0  0  3  0  0  0  0  0  0
  160.5240  214.1970  143.9070 C   0  0  2  0  0  3  0  0  0  0  0  0
  161.9760  212.4470  142.8060 C   0  0  0  0  0  2  0  0  0  0  0  0
  1  9  1  0  0  0  0
  2  3  1  6  0  0  0
  2  5  1  0  0  0  0
  3  7  1  0  0  0  0
  4 11  1  0  0  0  0
  5 14  2  0  0  0  0
  6  1  2  0  0  0  0
  7  4  2  0  0  0  0
  8 23  1  6  0  0  0
  8 12  1  0  0  0  0
  8 13  1  0  0  0  0
 10 18  1  0  0  0  0
 10 19  1  0  0  0  0
 12 16  1  0  0  0  0
 13 18  1  6  0  0  0
 13  2  1  0  0  0  0
 14  1  1  0  0  0  0
 15  4  1  0  0  0  0
 16 17  2  0  0  0  0
 16  5  1  0  0  0  0
 17  6  1  0  0  0  0
 19 20  1  0  0  0  0
 19  3  2  0  0  0  0
 20 15  2  0  0  0  0
 22 21  2  0  0  0  0
 22 23  1  0  0  0  0
 24 28  1  0  0  0  0
 24 31  1  0  0  0  0
 25 30  1  0  0  0  0
 27 24  1  0  0  0  0
 28 25  1  0  0  0  0
 29 30  1  0  0  0  0
 29 26  1  1  0  0  0
 30 22  1  1  0  0  0
 31 29  1  0  0  0  0
M  END
>  <MODEL>
6

>  <REMARK>
 VINA RESULT:      -5.8      5.158      7.963
  Name = 
  2 active torsions:
  status: ('A' for Active; 'I' for Inactive)
    1  A    between atoms: C_5  and  C_30
    2  A    between atoms: C_10  and  N_16
                            x       y       z     vdW  Elec       q    Type
                         _______ _______ _______ _____ _____    ______ ____

>  <TORSDO>
F 2

$$$$
=
 OpenBabel11122413233D

 31 35  0  0  1  0  0  0  0  0999 V2000
  160.7760  201.6110  149.1470 C   0  0  0  0  0  0  0  0  0  0  0  0
  162.2910  205.0000  149.9900 C   0  0  2  0  0  3  0  0  0  0  0  0
  161.7460  205.9660  148.9500 C   0  0  0  0  0  0  0  0  0  0  0  0
  160.8810  206.3850  146.7140 C   0  0  0  0  0  0  0  0  0  0  0  0
  161.4820  203.7260  150.1140 C   0  0  0  0  0  0  0  0  0  0  0  0
  159.9520  201.3750  150.2490 C   0  0  0  0  0  3  0  0  0  0  0  0
  161.3110  205.4970  147.7010 C   0  0  0  0  0  3  0  0  0  0  0  0
  161.2020  205.7640  152.1540 C   0  0  2  0  0  3  0  0  0  0  0  0
  160.8320  200.7080  148.1390 F   0  0  0  0  0  0  0  0  0  0  0  0
  162.2450  207.9140  150.4890 C   0  0  0  0  0  2  0  0  0  0  0  0
  160.4090  205.8690  145.4040 C   0  0  0  0  0  1  0  0  0  0  0  0
  160.6720  204.3640  152.4450 C   0  0  0  0  0  2  0  0  0  0  0  0
  162.5120  205.6770  151.3570 C   0  0  2  0  0  3  0  0  0  0  0  0
  161.5380  202.7780  149.0830 C   0  0  0  0  0  3  0  0  0  0  0  0
  160.8990  207.7600  146.9580 C   0  0  0  0  0  3  0  0  0  0  0  0
  160.6540  203.4780  151.2340 C   0  0  0  0  0  0  0  0  0  0  0  0
  159.9020  202.3010  151.2930 C   0  0  0  0  0  3  0  0  0  0  0  0
  163.1480  206.9900  151.1850 N   0  0  0  0  0  2  0  0  0  0  0  0
  161.7990  207.3600  149.1720 C   0  0  0  0  0  0  0  0  0  0  0  0
  161.3560  208.2440  148.1850 C   0  0  0  0  0  3  0  0  0  0  0  0
  160.2730  208.3910  152.7570 O   0  0  0  0  0  0  0  0  0  0  0  0
  160.9230  207.7830  153.6510 C   0  0  0  0  0  0  0  0  0  0  0  0
  161.4250  206.4680  153.4100 N   0  0  0  0  0  2  0  0  0  0  0  0
  159.1600  210.3300  155.8450 N   0  0  0  0  0  0  0  0  0  0  0  0
  160.1220  208.0780  156.0100 C   0  0  0  0  0  2  0  0  0  0  0  0
  162.2340  210.3010  153.8340 O   0  0  0  0  0  1  0  0  0  0  0  0
  157.9110  211.0350  155.6270 C   0  0  0  0  0  1  0  0  0  0  0  0
  158.8520  208.9020  155.7850 C   0  0  0  0  0  2  0  0  0  0  0  0
  161.3780  209.9600  154.8830 C   0  0  2  0  0  3  0  0  0  0  0  0
  161.1940  208.4350  154.9760 C   0  0  2  0  0  3  0  0  0  0  0  0
  160.0320  210.6640  154.7200 C   0  0  0  0  0  2  0  0  0  0  0  0
  1  6  1  0  0  0  0
  2  3  1  6  0  0  0
  2  5  1  0  0  0  0
  2 13  1  0  0  0  0
  3 19  1  0  0  0  0
  4 15  2  0  0  0  0
  4  7  1  0  0  0  0
  5 16  2  0  0  0  0
  6 17  2  0  0  0  0
  7  3  2  0  0  0  0
  8 12  1  0  0  0  0
  8 23  1  1  0  0  0
  9  1  1  0  0  0  0
 10 18  1  0  0  0  0
 11  4  1  0  0  0  0
 13 18  1  6  0  0  0
 13  8  1  0  0  0  0
 14  1  2  0  0  0  0
 14  5  1  0  0  0  0
 15 20  1  0  0  0  0
 16 17  1  0  0  0  0
 16 12  1  0  0  0  0
 19 10  1  0  0  0  0
 20 19  2  0  0  0  0
 21 22  2  0  0  0  0
 23 22  1  0  0  0  0
 27 24  1  0  0  0  0
 28 24  1  0  0  0  0
 28 25  1  0  0  0  0
 29 26  1  6  0  0  0
 29 30  1  0  0  0  0
 30 22  1  6  0  0  0
 30 25  1  0  0  0  0
 31 29  1  0  0  0  0
 31 24  1  0  0  0  0
M  END
>  <MODEL>
7

>  <REMARK>
 VINA RESULT:      -5.6      3.284      5.744
  Name = 
  2 active torsions:
  status: ('A' for Active; 'I' for Inactive)
    1  A    between atoms: C_5  and  C_30
    2  A    between atoms: C_10  and  N_16
                            x       y       z     vdW  Elec       q    Type
                         _______ _______ _______ _____ _____    ______ ____

>  <TORSDO>
F 2

$$$$
=
 OpenBabel11122413233D

 31 35  0  0  1  0  0  0  0  0999 V2000
  161.3450  202.3000  151.0610 C   0  0  0  0  0  0  0  0  0  0  0  0
  162.2820  205.6750  149.5690 C   0  0  2  0  0  3  0  0  0  0  0  0
  161.6430  205.7080  148.1910 C   0  0  0  0  0  0  0  0  0  0  0  0
  160.8250  204.5380  146.2190 C   0  0  0  0  0  0  0  0  0  0  0  0
  161.6730  204.6400  150.4930 C   0  0  0  0  0  0  0  0  0  0  0  0
  160.5190  202.6680  152.1240 C   0  0  0  0  0  3  0  0  0  0  0  0
  161.3420  204.5150  147.5160 C   0  0  0  0  0  3  0  0  0  0  0  0
  160.9920  207.4300  150.8770 C   0  0  2  0  0  3  0  0  0  0  0  0
  161.5850  200.9900  150.8130 F   0  0  0  0  0  0  0  0  0  0  0  0
  161.7670  208.2380  148.1880 C   0  0  0  0  0  2  0  0  0  0  0  0
  160.4990  203.2650  145.5270 C   0  0  0  0  0  1  0  0  0  0  0  0
  160.6710  206.4410  151.9920 C   0  0  0  0  0  2  0  0  0  0  0  0
  162.3350  207.0700  150.2230 C   0  0  2  0  0  3  0  0  0  0  0  0
  161.9210  203.2810  150.2530 C   0  0  0  0  0  3  0  0  0  0  0  0
  160.6210  205.7580  145.5710 C   0  0  0  0  0  3  0  0  0  0  0  0
  160.8440  205.0090  151.5770 C   0  0  0  0  0  0  0  0  0  0  0  0
  160.2790  204.0180  152.3870 C   0  0  0  0  0  3  0  0  0  0  0  0
  162.7680  208.0800  149.2480 N   0  0  0  0  0  2  0  0  0  0  0  0
  161.4710  206.9350  147.5120 C   0  0  0  0  0  0  0  0  0  0  0  0
  160.9420  206.9530  146.2180 C   0  0  0  0  0  3  0  0  0  0  0  0
  161.2370  208.0720  153.6430 O   0  0  0  0  0  0  0  0  0  0  0  0
  161.1790  209.0310  152.8250 C   0  0  0  0  0  0  0  0  0  0  0  0
  161.0470  208.7780  151.4260 N   0  0  0  0  0  2  0  0  0  0  0  0
  160.2700  210.8580  156.0260 N   0  0  0  0  0  0  0  0  0  0  0  0
  162.1780  210.6070  154.5020 C   0  0  0  0  0  2  0  0  0  0  0  0
  158.9350  210.7660  152.6050 O   0  0  0  0  0  1  0  0  0  0  0  0
  159.7070  210.3420  157.2600 C   0  0  0  0  0  1  0  0  0  0  0  0
  161.5110  210.1210  155.7910 C   0  0  0  0  0  2  0  0  0  0  0  0
  159.8480  211.0450  153.6240 C   0  0  2  0  0  3  0  0  0  0  0  0
  161.2320  210.4520  153.3070 C   0  0  2  0  0  3  0  0  0  0  0  0
  159.3240  210.5260  154.9620 C   0  0  0  0  0  2  0  0  0  0  0  0
  1  6  1  0  0  0  0
  2  3  1  6  0  0  0
  2 13  1  0  0  0  0
  2  5  1  0  0  0  0
  4  7  2  0  0  0  0
  5 16  2  0  0  0  0
  6 17  2  0  0  0  0
  7  3  1  0  0  0  0
  8 23  1  1  0  0  0
  8 12  1  0  0  0  0
  9  1  1  0  0  0  0
 10 18  1  0  0  0  0
 11  4  1  0  0  0  0
 13 18  1  6  0  0  0
 13  8  1  0  0  0  0
 14  5  1  0  0  0  0
 14  1  2  0  0  0  0
 15 20  2  0  0  0  0
 15  4  1  0  0  0  0
 16 12  1  0  0  0  0
 16 17  1  0  0  0  0
 19 10  1  0  0  0  0
 19  3  2  0  0  0  0
 20 19  1  0  0  0  0
 22 21  2  0  0  0  0
 23 22  1  0  0  0  0
 24 27  1  0  0  0  0
 25 28  1  0  0  0  0
 28 24  1  0  0  0  0
 29 26  1  6  0  0  0
 29 31  1  0  0  0  0
 30 22  1  1  0  0  0
 30 29  1  0  0  0  0
 30 25  1  0  0  0  0
 31 24  1  0  0  0  0
M  END
>  <MODEL>
8

>  <REMARK>
 VINA RESULT:      -5.5      3.336      5.694
  Name = 
  2 active torsions:
  status: ('A' for Active; 'I' for Inactive)
    1  A    between atoms: C_5  and  C_30
    2  A    between atoms: C_10  and  N_16
                            x       y       z     vdW  Elec       q    Type
                         _______ _______ _______ _____ _____    ______ ____

>  <TORSDO>
F 2

$$$$
=
 OpenBabel11122413233D

 31 35  0  0  1  0  0  0  0  0999 V2000
  161.5810  202.6660  151.6360 C   0  0  0  0  0  0  0  0  0  0  0  0
  162.3700  206.1120  150.2240 C   0  0  2  0  0  3  0  0  0  0  0  0
  161.8150  206.1160  148.8090 C   0  0  0  0  0  0  0  0  0  0  0  0
  161.2020  204.9110  146.7840 C   0  0  0  0  0  0  0  0  0  0  0  0
  161.7800  205.0290  151.1020 C   0  0  0  0  0  0  0  0  0  0  0  0
  160.6680  202.9660  152.6480 C   0  0  0  0  0  3  0  0  0  0  0  0
  161.6390  204.9110  148.1100 C   0  0  0  0  0  3  0  0  0  0  0  0
  160.8840  207.7610  151.4600 C   0  0  2  0  0  3  0  0  0  0  0  0
  161.9260  201.3790  151.3950 F   0  0  0  0  0  0  0  0  0  0  0  0
  161.7630  208.6470  148.8280 C   0  0  0  0  0  2  0  0  0  0  0  0
  161.0070  203.6260  146.0660 C   0  0  0  0  0  1  0  0  0  0  0  0
  160.5650  206.7410  152.5480 C   0  0  0  0  0  2  0  0  0  0  0  0
  162.2860  207.5010  150.8870 C   0  0  2  0  0  3  0  0  0  0  0  0
  162.1360  203.6930  150.8710 C   0  0  0  0  0  3  0  0  0  0  0  0
  160.9540  206.1200  146.1320 C   0  0  0  0  0  3  0  0  0  0  0  0
  160.8620  205.3290  152.1360 C   0  0  0  0  0  0  0  0  0  0  0  0
  160.3190  204.2940  152.9040 C   0  0  0  0  0  3  0  0  0  0  0  0
  162.7060  208.5480  149.9460 N   0  0  0  0  0  2  0  0  0  0  0  0
  161.6000  207.3340  148.1280 C   0  0  0  0  0  0  0  0  0  0  0  0
  161.1510  207.3280  146.8040 C   0  0  0  0  0  3  0  0  0  0  0  0
  161.2070  208.4180  154.2150 O   0  0  0  0  0  0  0  0  0  0  0  0
  160.9910  209.3660  153.4120 C   0  0  0  0  0  0  0  0  0  0  0  0
  160.8120  209.1040  152.0190 N   0  0  0  0  0  2  0  0  0  0  0  0
  158.2140  211.6900  154.5500 N   0  0  0  0  0  0  0  0  0  0  0  0
  160.3800  210.8470  155.3420 C   0  0  0  0  0  2  0  0  0  0  0  0
  160.4560  211.5300  151.6450 O   0  0  0  0  0  1  0  0  0  0  0  0
  156.7860  211.4530  154.6390 C   0  0  0  0  0  1  0  0  0  0  0  0
  158.8600  210.6690  155.3750 C   0  0  0  0  0  2  0  0  0  0  0  0
  160.0900  211.7040  152.9810 C   0  0  2  0  0  3  0  0  0  0  0  0
  160.9050  210.7820  153.9040 C   0  0  2  0  0  3  0  0  0  0  0  0
  158.5910  211.4670  153.1560 C   0  0  0  0  0  2  0  0  0  0  0  0
  1  6  1  0  0  0  0
  2  3  1  6  0  0  0
  2 13  1  0  0  0  0
  2  5  1  0  0  0  0
  4  7  1  0  0  0  0
  5 16  2  0  0  0  0
  6 17  2  0  0  0  0
  7  3  2  0  0  0  0
  8 23  1  1  0  0  0
  8 12  1  0  0  0  0
  9  1  1  0  0  0  0
 10 18  1  0  0  0  0
 11  4  1  0  0  0  0
 13 18  1  6  0  0  0
 13  8  1  0  0  0  0
 14  5  1  0  0  0  0
 14  1  2  0  0  0  0
 15  4  2  0  0  0  0
 15 20  1  0  0  0  0
 16 12  1  0  0  0  0
 16 17  1  0  0  0  0
 19  3  1  0  0  0  0
 19 10  1  0  0  0  0
 20 19  2  0  0  0  0
 22 21  2  0  0  0  0
 23 22  1  0  0  0  0
 24 27  1  0  0  0  0
 24 28  1  0  0  0  0
 25 28  1  0  0  0  0
 29 26  1  6  0  0  0
 29 31  1  0  0  0  0
 29 30  1  0  0  0  0
 30 22  1  6  0  0  0
 30 25  1  0  0  0  0
 31 24  1  0  0  0  0
M  END
>  <MODEL>
9

>  <REMARK>
 VINA RESULT:      -5.5      3.335      5.474
  Name = 
  2 active torsions:
  status: ('A' for Active; 'I' for Inactive)
    1  A    between atoms: C_5  and  C_30
    2  A    between atoms: C_10  and  N_16
                            x       y       z     vdW  Elec       q    Type
                         _______ _______ _______ _____ _____    ______ ____

>  <TORSDO>
F 2

$$$$
