=
 OpenBabel11122412383D

 30 35  0  0  1  0  0  0  0  0999 V2000
  161.3520  206.2510  150.4620 C   0  0  0  0  0  0  0  0  0  0  0  0
  161.0700  203.7280  150.4290 C   0  0  0  0  0  0  0  0  0  0  0  0
  160.7170  206.2940  154.6090 N   0  0  0  0  0  2  0  0  0  0  0  0
  161.3500  207.4600  151.2260 C   0  0  0  0  0  0  0  0  0  0  0  0
  161.6160  206.3410  149.0910 C   0  0  0  0  0  3  0  0  0  0  0  0
  162.0880  209.9580  148.5740 O   0  0  0  0  0  1  0  0  0  0  0  0
  160.2330  210.2230  152.1210 C   0  0  1  0  0  3  0  0  0  0  0  0
  161.8460  208.7420  149.2080 C   0  0  0  0  0  0  0  0  0  0  0  0
  160.0890  209.4660  153.3860 N   0  0  2  0  0  0  0  0  0  0  0  0
  160.8640  207.7030  154.9560 C   0  0  1  0  0  3  0  0  0  0  0  0
  161.8610  207.5590  148.4640 C   0  0  0  0  0  0  0  0  0  0  0  0
  161.5830  208.7070  150.5870 C   0  0  0  0  0  0  0  0  0  0  0  0
  160.8240  202.5610  151.1540 C   0  0  0  0  0  3  0  0  0  0  0  0
  160.1610  210.4810  154.4220 C   0  0  0  0  0  2  0  0  0  0  0  0
  160.0220  211.6460  152.3690 N   0  0  0  0  0  2  0  0  0  0  0  0
  161.3210  203.4810  148.7030 Cl  0  0  0  0  0  0  0  0  0  0  0  0
  160.8780  206.1730  153.2110 C   0  0  0  0  0  0  0  0  0  0  0  0
  160.6060  202.6180  152.5250 C   0  0  0  0  0  3  0  0  0  0  0  0
  161.0980  204.9890  151.0990 C   0  0  0  0  0  0  0  0  0  0  0  0
  161.1030  207.3730  152.6050 C   0  0  0  0  0  0  0  0  0  0  0  0
  162.0420  207.8750  155.8950 C   0  0  0  0  0  1  0  0  0  0  0  0
  161.1360  208.4620  153.6340 C   0  0  1  0  0  3  0  0  0  0  0  0
  159.7200  211.7660  153.7820 C   0  0  0  0  0  2  0  0  0  0  0  0
  162.8190  210.3400  152.0750 C   0  0  0  0  0  1  0  0  0  0  0  0
  160.6290  203.8120  153.1640 N   0  0  0  0  0  0  0  0  0  0  0  0
  160.8610  204.9770  152.5030 C   0  0  0  0  0  0  0  0  0  0  0  0
  161.5340  210.0190  151.3220 C   0  0  2  0  0  3  0  0  0  0  0  0
  162.1560  207.5750  147.0000 C   0  0  0  0  0  2  0  0  0  0  0  0
  160.5950  206.1880  145.6740 C   0  0  0  0  0  1  0  0  0  0  0  0
  161.9200  206.1990  146.4070 C   0  0  0  0  0  2  0  0  0  0  0  0
  1 19  1  0  0  0  0
  1  4  1  0  0  0  0
  2 19  2  0  0  0  0
  2 13  1  0  0  0  0
  3 10  1  0  0  0  0
  4 20  1  0  0  0  0
  5  1  2  0  0  0  0
  6  8  1  0  0  0  0
  7 15  1  1  0  0  0
  7  9  1  0  0  0  0
  8 12  1  0  0  0  0
  9 22  1  0  0  0  0
  9 14  1  1  0  0  0
 10 21  1  1  0  0  0
 11  5  1  0  0  0  0
 11  8  2  0  0  0  0
 12  4  2  0  0  0  0
 12 27  1  0  0  0  0
 13 18  2  0  0  0  0
 15 23  1  0  0  0  0
 16  2  1  0  0  0  0
 17  3  1  0  0  0  0
 18 25  1  0  0  0  0
 19 26  1  0  0  0  0
 20 17  2  0  0  0  0
 22 20  1  6  0  0  0
 22 10  1  0  0  0  0
 23 14  1  0  0  0  0
 26 25  2  0  0  0  0
 26 17  1  0  0  0  0
 27 24  1  1  0  0  0
 27  7  1  0  0  0  0
 28 11  1  0  0  0  0
 29 30  1  0  0  0  0
 30 28  1  0  0  0  0
M  END
>  <MODEL>
1

>  <REMARK>
 VINA RESULT:      -6.7      0.000      0.000
  Name = 
  2 active torsions:
  status: ('A' for Active; 'I' for Inactive)
    1  A    between atoms: C_11  and  C_28
    2  A    between atoms: C_28  and  C_30
                            x       y       z     vdW  Elec       q    Type
                         _______ _______ _______ _____ _____    ______ ____

>  <TORSDO>
F 2

$$$$
=
 OpenBabel11122412383D

 30 35  0  0  1  0  0  0  0  0999 V2000
  161.4580  207.6120  151.3330 C   0  0  0  0  0  0  0  0  0  0  0  0
  161.6480  210.0920  150.8240 C   0  0  0  0  0  0  0  0  0  0  0  0
  162.1450  206.7040  147.2940 N   0  0  0  0  0  2  0  0  0  0  0  0
  161.4710  206.2690  150.8380 C   0  0  0  0  0  0  0  0  0  0  0  0
  161.2620  207.8040  152.7040 C   0  0  0  0  0  3  0  0  0  0  0  0
  160.8770  204.3690  153.9770 O   0  0  0  0  0  1  0  0  0  0  0  0
  160.2000  203.5230  150.1150 C   0  0  1  0  0  3  0  0  0  0  0  0
  161.0720  205.4290  153.0960 C   0  0  0  0  0  0  0  0  0  0  0  0
  160.5960  203.9860  148.7650 N   0  0  2  0  0  0  0  0  0  0  0  0
  162.1300  205.2460  147.2710 C   0  0  1  0  0  3  0  0  0  0  0  0
  161.0720  206.7400  153.5800 C   0  0  0  0  0  0  0  0  0  0  0  0
  161.2610  205.1820  151.7270 C   0  0  0  0  0  0  0  0  0  0  0  0
  161.8580  211.0850  149.8660 C   0  0  0  0  0  3  0  0  0  0  0  0
  160.7990  202.7610  148.0120 C   0  0  0  0  0  2  0  0  0  0  0  0
  159.8180  202.1150  150.0640 N   0  0  0  0  0  2  0  0  0  0  0  0
  161.3920  210.6930  152.4600 Cl  0  0  0  0  0  0  0  0  0  0  0  0
  161.8830  207.1200  148.6190 C   0  0  0  0  0  0  0  0  0  0  0  0
  162.0700  210.7440  148.5350 C   0  0  0  0  0  3  0  0  0  0  0  0
  161.6510  208.7170  150.4360 C   0  0  0  0  0  0  0  0  0  0  0  0
  161.6850  206.0700  149.4650 C   0  0  0  0  0  0  0  0  0  0  0  0
  163.4890  204.7320  146.8370 C   0  0  0  0  0  1  0  0  0  0  0  0
  161.8340  204.7800  148.7180 C   0  0  1  0  0  3  0  0  0  0  0  0
  159.9530  201.7140  148.6770 C   0  0  0  0  0  2  0  0  0  0  0  0
  162.5750  203.1230  151.0620 C   0  0  0  0  0  1  0  0  0  0  0  0
  162.0700  209.4430  148.1630 N   0  0  0  0  0  0  0  0  0  0  0  0
  161.8680  208.4380  149.0560 C   0  0  0  0  0  0  0  0  0  0  0  0
  161.2020  203.7520  151.2620 C   0  0  2  0  0  3  0  0  0  0  0  0
  160.8900  207.0230  155.0350 C   0  0  0  0  0  2  0  0  0  0  0  0
  161.6670  209.0950  156.1410 C   0  0  0  0  0  1  0  0  0  0  0  0
  160.6010  208.4970  155.2470 C   0  0  0  0  0  2  0  0  0  0  0  0
  1  5  2  0  0  0  0
  2 16  1  0  0  0  0
  3 17  1  0  0  0  0
  4  1  1  0  0  0  0
  4 12  2  0  0  0  0
  5 11  1  0  0  0  0
  7 15  1  6  0  0  0
  7 27  1  0  0  0  0
  8 11  2  0  0  0  0
  8  6  1  0  0  0  0
  9 14  1  6  0  0  0
  9  7  1  0  0  0  0
 10 21  1  1  0  0  0
 10  3  1  0  0  0  0
 10 22  1  0  0  0  0
 11 28  1  0  0  0  0
 12  8  1  0  0  0  0
 13  2  2  0  0  0  0
 14 23  1  0  0  0  0
 17 26  1  0  0  0  0
 17 20  2  0  0  0  0
 18 13  1  0  0  0  0
 19  2  1  0  0  0  0
 19  1  1  0  0  0  0
 20  4  1  0  0  0  0
 22  9  1  0  0  0  0
 22 20  1  1  0  0  0
 23 15  1  0  0  0  0
 25 18  2  0  0  0  0
 25 26  1  0  0  0  0
 26 19  2  0  0  0  0
 27 24  1  6  0  0  0
 27 12  1  0  0  0  0
 28 30  1  0  0  0  0
 30 29  1  0  0  0  0
M  END
>  <MODEL>
2

>  <REMARK>
 VINA RESULT:      -6.5      3.084      7.285
  Name = 
  2 active torsions:
  status: ('A' for Active; 'I' for Inactive)
    1  A    between atoms: C_11  and  C_28
    2  A    between atoms: C_28  and  C_30
                            x       y       z     vdW  Elec       q    Type
                         _______ _______ _______ _____ _____    ______ ____

>  <TORSDO>
F 2

$$$$
=
 OpenBabel11122412383D

 30 35  0  0  1  0  0  0  0  0999 V2000
  160.9120  209.7770  152.2840 C   0  0  0  0  0  0  0  0  0  0  0  0
  162.0040  209.6620  149.9950 C   0  0  0  0  0  0  0  0  0  0  0  0
  159.7240  213.7340  151.5460 N   0  0  0  0  0  2  0  0  0  0  0  0
  160.1970  210.5570  153.2470 C   0  0  0  0  0  0  0  0  0  0  0  0
  161.2240  208.4540  152.6120 C   0  0  0  0  0  3  0  0  0  0  0  0
  159.8350  208.0920  156.0050 O   0  0  0  0  0  1  0  0  0  0  0  0
  159.8560  212.1020  155.9260 C   0  0  1  0  0  3  0  0  0  0  0  0
  160.1830  208.6580  154.7810 C   0  0  0  0  0  0  0  0  0  0  0  0
  159.7080  213.2190  154.9650 N   0  0  2  0  0  0  0  0  0  0  0  0
  158.9880  214.0930  152.7530 C   0  0  1  0  0  3  0  0  0  0  0  0
  160.8700  207.8930  153.8350 C   0  0  0  0  0  0  0  0  0  0  0  0
  159.8480  209.9930  154.5030 C   0  0  0  0  0  0  0  0  0  0  0  0
  162.3010  210.3140  148.7970 C   0  0  0  0  0  3  0  0  0  0  0  0
  158.8810  214.1870  155.6640 C   0  0  0  0  0  2  0  0  0  0  0  0
  159.4590  212.5410  157.2610 N   0  0  0  0  0  2  0  0  0  0  0  0
  162.5850  208.0010  150.0900 Cl  0  0  0  0  0  0  0  0  0  0  0  0
  160.2060  212.4150  151.7080 C   0  0  0  0  0  0  0  0  0  0  0  0
  161.9010  211.6290  148.5960 C   0  0  0  0  0  3  0  0  0  0  0  0
  161.2840  210.3480  151.0200 C   0  0  0  0  0  0  0  0  0  0  0  0
  159.8660  211.8800  152.9150 C   0  0  0  0  0  0  0  0  0  0  0  0
  157.5450  214.3900  152.3970 C   0  0  0  0  0  1  0  0  0  0  0  0
  159.0520  212.8660  153.6960 C   0  0  1  0  0  3  0  0  0  0  0  0
  159.0920  213.9370  157.1300 C   0  0  0  0  0  2  0  0  0  0  0  0
  157.6440  210.8740  155.3800 C   0  0  0  0  0  1  0  0  0  0  0  0
  161.2210  212.2860  149.5660 N   0  0  0  0  0  0  0  0  0  0  0  0
  160.9090  211.6960  150.7510 C   0  0  0  0  0  0  0  0  0  0  0  0
  159.1510  210.7770  155.5800 C   0  0  2  0  0  3  0  0  0  0  0  0
  161.2200  206.4660  154.1060 C   0  0  0  0  0  2  0  0  0  0  0  0
  161.1410  204.6600  152.4180 C   0  0  0  0  0  1  0  0  0  0  0  0
  161.9210  205.8640  152.9040 C   0  0  0  0  0  2  0  0  0  0  0  0
  1  5  2  0  0  0  0
  1  4  1  0  0  0  0
  2 16  1  0  0  0  0
  2 19  1  0  0  0  0
  3 17  1  0  0  0  0
  3 10  1  0  0  0  0
  4 12  2  0  0  0  0
  5 11  1  0  0  0  0
  7 15  1  1  0  0  0
  8  6  1  0  0  0  0
  9 14  1  1  0  0  0
  9  7  1  0  0  0  0
 10 21  1  6  0  0  0
 10 22  1  0  0  0  0
 11 28  1  0  0  0  0
 11  8  2  0  0  0  0
 12  8  1  0  0  0  0
 12 27  1  0  0  0  0
 13  2  2  0  0  0  0
 14 23  1  0  0  0  0
 17 20  2  0  0  0  0
 18 13  1  0  0  0  0
 18 25  2  0  0  0  0
 19  1  1  0  0  0  0
 20  4  1  0  0  0  0
 22 20  1  6  0  0  0
 22  9  1  0  0  0  0
 23 15  1  0  0  0  0
 25 26  1  0  0  0  0
 26 19  2  0  0  0  0
 26 17  1  0  0  0  0
 27 24  1  6  0  0  0
 27  7  1  0  0  0  0
 29 30  1  0  0  0  0
 30 28  1  0  0  0  0
M  END
>  <MODEL>
3

>  <REMARK>
 VINA RESULT:      -6.3      3.506      6.218
  Name = 
  2 active torsions:
  status: ('A' for Active; 'I' for Inactive)
    1  A    between atoms: C_11  and  C_28
    2  A    between atoms: C_28  and  C_30
                            x       y       z     vdW  Elec       q    Type
                         _______ _______ _______ _____ _____    ______ ____

>  <TORSDO>
F 2

$$$$
=
 OpenBabel11122412383D

 30 35  0  0  1  0  0  0  0  0999 V2000
  161.5140  207.6780  150.8320 C   0  0  0  0  0  0  0  0  0  0  0  0
  161.9940  208.5290  148.4880 C   0  0  0  0  0  0  0  0  0  0  0  0
  160.9840  211.6160  152.1800 N   0  0  0  0  0  2  0  0  0  0  0  0
  161.2100  207.9890  152.1950 C   0  0  0  0  0  0  0  0  0  0  0  0
  161.6290  206.3300  150.4760 C   0  0  0  0  0  3  0  0  0  0  0  0
  161.0300  204.5780  153.6610 O   0  0  0  0  0  1  0  0  0  0  0  0
  161.8150  208.1800  155.2410 C   0  0  1  0  0  3  0  0  0  0  0  0
  161.1850  205.6090  152.7370 C   0  0  0  0  0  0  0  0  0  0  0  0
  161.6680  209.6190  154.9170 N   0  0  2  0  0  0  0  0  0  0  0  0
  160.6360  211.4450  153.5860 C   0  0  1  0  0  3  0  0  0  0  0  0
  161.4690  205.3050  151.4030 C   0  0  0  0  0  0  0  0  0  0  0  0
  161.0620  206.9460  153.1470 C   0  0  0  0  0  0  0  0  0  0  0  0
  162.1250  209.6280  147.6380 C   0  0  0  0  0  3  0  0  0  0  0  0
  161.2340  210.2240  156.1640 C   0  0  0  0  0  2  0  0  0  0  0  0
  161.8360  207.9980  156.6890 N   0  0  0  0  0  2  0  0  0  0  0  0
  162.2460  206.9670  147.7130 Cl  0  0  0  0  0  0  0  0  0  0  0  0
  161.2220  210.3360  151.6330 C   0  0  0  0  0  0  0  0  0  0  0  0
  161.9540  210.9180  148.1260 C   0  0  0  0  0  3  0  0  0  0  0  0
  161.6830  208.7290  149.8680 C   0  0  0  0  0  0  0  0  0  0  0  0
  161.0760  209.3400  152.5520 C   0  0  0  0  0  0  0  0  0  0  0  0
  159.2360  211.9730  153.8300 C   0  0  0  0  0  1  0  0  0  0  0  0
  160.6770  209.9240  153.8740 C   0  0  1  0  0  3  0  0  0  0  0  0
  161.7290  209.3260  157.2610 C   0  0  0  0  0  2  0  0  0  0  0  0
  159.3410  207.4930  154.9200 C   0  0  0  0  0  1  0  0  0  0  0  0
  161.6620  211.1130  149.4330 N   0  0  0  0  0  0  0  0  0  0  0  0
  161.5270  210.0770  150.3030 C   0  0  0  0  0  0  0  0  0  0  0  0
  160.8040  207.2080  154.6060 C   0  0  2  0  0  3  0  0  0  0  0  0
  161.5860  203.8890  150.9440 C   0  0  0  0  0  2  0  0  0  0  0  0
  160.5890  202.3710  149.2640 C   0  0  0  0  0  1  0  0  0  0  0  0
  161.1240  203.7670  149.5050 C   0  0  0  0  0  2  0  0  0  0  0  0
  1  4  1  0  0  0  0
  2 19  1  0  0  0  0
  3 10  1  0  0  0  0
  4 20  1  0  0  0  0
  4 12  2  0  0  0  0
  5  1  2  0  0  0  0
  5 11  1  0  0  0  0
  7 15  1  1  0  0  0
  8 12  1  0  0  0  0
  8  6  1  0  0  0  0
  9  7  1  0  0  0  0
  9 14  1  1  0  0  0
 10 21  1  6  0  0  0
 10 22  1  0  0  0  0
 11  8  2  0  0  0  0
 12 27  1  0  0  0  0
 13 18  1  0  0  0  0
 13  2  2  0  0  0  0
 14 23  1  0  0  0  0
 15 23  1  0  0  0  0
 16  2  1  0  0  0  0
 17  3  1  0  0  0  0
 17 20  2  0  0  0  0
 18 25  2  0  0  0  0
 19 26  2  0  0  0  0
 19  1  1  0  0  0  0
 22 20  1  6  0  0  0
 22  9  1  0  0  0  0
 25 26  1  0  0  0  0
 26 17  1  0  0  0  0
 27 24  1  6  0  0  0
 27  7  1  0  0  0  0
 28 11  1  0  0  0  0
 29 30  1  0  0  0  0
 30 28  1  0  0  0  0
M  END
>  <MODEL>
4

>  <REMARK>
 VINA RESULT:      -6.2      2.355      4.925
  Name = 
  2 active torsions:
  status: ('A' for Active; 'I' for Inactive)
    1  A    between atoms: C_11  and  C_28
    2  A    between atoms: C_28  and  C_30
                            x       y       z     vdW  Elec       q    Type
                         _______ _______ _______ _____ _____    ______ ____

>  <TORSDO>
F 2

$$$$
=
 OpenBabel11122412383D

 30 35  0  0  1  0  0  0  0  0999 V2000
  160.8100  210.5300  151.6500 C   0  0  0  0  0  0  0  0  0  0  0  0
  162.0240  208.5930  150.5450 C   0  0  0  0  0  0  0  0  0  0  0  0
  160.3630  208.2790  155.1630 N   0  0  0  0  0  2  0  0  0  0  0  0
  160.1340  211.0340  152.8050 C   0  0  0  0  0  0  0  0  0  0  0  0
  160.9420  211.3760  150.5440 C   0  0  0  0  0  3  0  0  0  0  0  0
  159.2440  214.4530  151.6480 O   0  0  0  0  0  1  0  0  0  0  0  0
  157.6570  212.0170  154.4110 C   0  0  1  0  0  3  0  0  0  0  0  0
  159.7580  213.1590  151.6610 C   0  0  0  0  0  0  0  0  0  0  0  0
  158.0020  210.8040  155.1880 N   0  0  2  0  0  0  0  0  0  0  0  0
  159.6840  209.2000  156.0670 C   0  0  1  0  0  3  0  0  0  0  0  0
  160.4300  212.6700  150.5380 C   0  0  0  0  0  0  0  0  0  0  0  0
  159.5950  212.3490  152.7960 C   0  0  0  0  0  0  0  0  0  0  0  0
  162.5090  207.2890  150.6570 C   0  0  0  0  0  3  0  0  0  0  0  0
  157.5040  211.0800  156.5240 C   0  0  0  0  0  2  0  0  0  0  0  0
  156.6740  212.8110  155.1420 N   0  0  0  0  0  2  0  0  0  0  0  0
  162.3310  209.3590  148.9880 Cl  0  0  0  0  0  0  0  0  0  0  0  0
  160.5310  208.9340  153.9220 C   0  0  0  0  0  0  0  0  0  0  0  0
  162.3300  206.5710  151.8330 C   0  0  0  0  0  3  0  0  0  0  0  0
  161.3410  209.1950  151.6450 C   0  0  0  0  0  0  0  0  0  0  0  0
  160.0140  210.1950  153.9230 C   0  0  0  0  0  0  0  0  0  0  0  0
  160.5730  209.4870  157.2610 C   0  0  0  0  0  1  0  0  0  0  0  0
  159.4410  210.5070  155.2720 C   0  0  1  0  0  3  0  0  0  0  0  0
  156.3920  212.0750  156.3600 C   0  0  0  0  0  2  0  0  0  0  0  0
  159.7070  213.4530  155.0710 C   0  0  0  0  0  1  0  0  0  0  0  0
  161.6800  207.1370  152.8770 N   0  0  0  0  0  0  0  0  0  0  0  0
  161.1860  208.4030  152.8180 C   0  0  0  0  0  0  0  0  0  0  0  0
  158.8200  212.9170  153.9540 C   0  0  2  0  0  3  0  0  0  0  0  0
  160.6290  213.5220  149.3280 C   0  0  0  0  0  2  0  0  0  0  0  0
  162.6160  213.2850  147.8740 C   0  0  0  0  0  1  0  0  0  0  0  0
  161.2580  212.7080  148.2140 C   0  0  0  0  0  2  0  0  0  0  0  0
  1  4  1  0  0  0  0
  2 13  2  0  0  0  0
  2 19  1  0  0  0  0
  3 10  1  0  0  0  0
  4 20  2  0  0  0  0
  5  1  1  0  0  0  0
  6  8  1  0  0  0  0
  7 15  1  1  0  0  0
  7  9  1  0  0  0  0
  8 12  2  0  0  0  0
  9 22  1  0  0  0  0
  9 14  1  1  0  0  0
 10 21  1  1  0  0  0
 11  5  2  0  0  0  0
 11  8  1  0  0  0  0
 12  4  1  0  0  0  0
 12 27  1  0  0  0  0
 13 18  1  0  0  0  0
 15 23  1  0  0  0  0
 16  2  1  0  0  0  0
 17 20  1  0  0  0  0
 17  3  1  0  0  0  0
 18 25  2  0  0  0  0
 19  1  2  0  0  0  0
 19 26  1  0  0  0  0
 22 20  1  6  0  0  0
 22 10  1  0  0  0  0
 23 14  1  0  0  0  0
 26 25  1  0  0  0  0
 26 17  2  0  0  0  0
 27  7  1  0  0  0  0
 27 24  1  1  0  0  0
 28 11  1  0  0  0  0
 29 30  1  0  0  0  0
 30 28  1  0  0  0  0
M  END
>  <MODEL>
5

>  <REMARK>
 VINA RESULT:      -5.7      2.985      4.664
  Name = 
  2 active torsions:
  status: ('A' for Active; 'I' for Inactive)
    1  A    between atoms: C_11  and  C_28
    2  A    between atoms: C_28  and  C_30
                            x       y       z     vdW  Elec       q    Type
                         _______ _______ _______ _____ _____    ______ ____

>  <TORSDO>
F 2

$$$$
=
 OpenBabel11122412383D

 30 35  0  0  1  0  0  0  0  0999 V2000
  161.3960  207.7220  151.2240 C   0  0  0  0  0  0  0  0  0  0  0  0
  161.4780  205.3670  150.2770 C   0  0  0  0  0  0  0  0  0  0  0  0
  160.4570  206.1920  155.0160 N   0  0  0  0  0  2  0  0  0  0  0  0
  161.1670  208.5640  152.3570 C   0  0  0  0  0  0  0  0  0  0  0  0
  161.7460  208.3300  150.0130 C   0  0  0  0  0  3  0  0  0  0  0  0
  161.7380  211.9160  150.8550 O   0  0  0  0  0  1  0  0  0  0  0  0
  159.6070  210.6810  154.0210 C   0  0  1  0  0  3  0  0  0  0  0  0
  161.6240  210.5350  150.9900 C   0  0  0  0  0  0  0  0  0  0  0  0
  159.4780  209.5060  154.9140 N   0  0  2  0  0  0  0  0  0  0  0  0
  160.3760  207.3860  155.8490 C   0  0  1  0  0  3  0  0  0  0  0  0
  161.8620  209.7110  149.8870 C   0  0  0  0  0  0  0  0  0  0  0  0
  161.2680  209.9750  152.2270 C   0  0  0  0  0  0  0  0  0  0  0  0
  161.3470  203.9980  150.5120 C   0  0  0  0  0  3  0  0  0  0  0  0
  159.3290  210.0780  156.2400 C   0  0  0  0  0  2  0  0  0  0  0  0
  159.1790  211.8870  154.7230 N   0  0  0  0  0  2  0  0  0  0  0  0
  161.8880  205.7900  148.6170 Cl  0  0  0  0  0  0  0  0  0  0  0  0
  160.7360  206.6030  153.6940 C   0  0  0  0  0  0  0  0  0  0  0  0
  161.0220  203.5310  151.7800 C   0  0  0  0  0  3  0  0  0  0  0  0
  161.2780  206.2960  151.3440 C   0  0  0  0  0  0  0  0  0  0  0  0
  160.8340  207.9570  153.5780 C   0  0  0  0  0  0  0  0  0  0  0  0
  161.4460  207.3300  156.9220 C   0  0  0  0  0  1  0  0  0  0  0  0
  160.6350  208.5970  154.9180 C   0  0  1  0  0  3  0  0  0  0  0  0
  158.7590  211.4530  156.0420 C   0  0  0  0  0  2  0  0  0  0  0  0
  162.1460  211.0780  154.3280 C   0  0  0  0  0  1  0  0  0  0  0  0
  160.8280  204.4070  152.7940 N   0  0  0  0  0  0  0  0  0  0  0  0
  160.9410  205.7500  152.6160 C   0  0  0  0  0  0  0  0  0  0  0  0
  160.9790  210.9180  153.3630 C   0  0  2  0  0  3  0  0  0  0  0  0
  162.2590  210.2860  148.5670 C   0  0  0  0  0  2  0  0  0  0  0  0
  161.8850  212.4860  147.4980 C   0  0  0  0  0  1  0  0  0  0  0  0
  161.2060  211.2680  148.0880 C   0  0  0  0  0  2  0  0  0  0  0  0
  1 19  2  0  0  0  0
  1  4  1  0  0  0  0
  2 13  2  0  0  0  0
  2 19  1  0  0  0  0
  3 10  1  0  0  0  0
  4 20  2  0  0  0  0
  5  1  1  0  0  0  0
  6  8  1  0  0  0  0
  7 15  1  1  0  0  0
  7  9  1  0  0  0  0
  8 12  2  0  0  0  0
  9 22  1  0  0  0  0
  9 14  1  1  0  0  0
 10 21  1  1  0  0  0
 11  5  2  0  0  0  0
 11  8  1  0  0  0  0
 12  4  1  0  0  0  0
 12 27  1  0  0  0  0
 13 18  1  0  0  0  0
 15 23  1  0  0  0  0
 16  2  1  0  0  0  0
 17  3  1  0  0  0  0
 18 25  2  0  0  0  0
 19 26  1  0  0  0  0
 20 17  1  0  0  0  0
 22 20  1  6  0  0  0
 22 10  1  0  0  0  0
 23 14  1  0  0  0  0
 26 25  1  0  0  0  0
 26 17  2  0  0  0  0
 27  7  1  0  0  0  0
 27 24  1  1  0  0  0
 28 11  1  0  0  0  0
 29 30  1  0  0  0  0
 30 28  1  0  0  0  0
M  END
>  <MODEL>
6

>  <REMARK>
 VINA RESULT:      -5.1      1.786      2.434
  Name = 
  2 active torsions:
  status: ('A' for Active; 'I' for Inactive)
    1  A    between atoms: C_11  and  C_28
    2  A    between atoms: C_28  and  C_30
                            x       y       z     vdW  Elec       q    Type
                         _______ _______ _______ _____ _____    ______ ____

>  <TORSDO>
F 2

$$$$
=
 OpenBabel11122412383D

 30 35  0  0  1  0  0  0  0  0999 V2000
  161.2460  210.5040  150.7870 C   0  0  0  0  0  0  0  0  0  0  0  0
  161.0520  212.4180  149.1300 C   0  0  0  0  0  0  0  0  0  0  0  0
  159.2760  212.7930  153.7000 N   0  0  0  0  0  2  0  0  0  0  0  0
  160.9990  210.0170  152.1090 C   0  0  0  0  0  0  0  0  0  0  0  0
  161.8720  209.6450  149.8770 C   0  0  0  0  0  3  0  0  0  0  0  0
  162.4330  206.5960  151.8670 O   0  0  0  0  0  1  0  0  0  0  0  0
  161.8160  209.0750  154.9590 C   0  0  1  0  0  3  0  0  0  0  0  0
  162.0350  207.8850  151.5220 C   0  0  0  0  0  0  0  0  0  0  0  0
  161.0450  210.2920  155.3020 N   0  0  2  0  0  0  0  0  0  0  0  0
  159.1970  211.8880  154.8400 C   0  0  1  0  0  3  0  0  0  0  0  0
  162.2630  208.3570  150.2260 C   0  0  0  0  0  0  0  0  0  0  0  0
  161.4120  208.7090  152.4740 C   0  0  0  0  0  0  0  0  0  0  0  0
  160.6120  213.7180  148.8780 C   0  0  0  0  0  3  0  0  0  0  0  0
  160.5450  210.0340  156.6410 C   0  0  0  0  0  2  0  0  0  0  0  0
  162.0790  208.2980  156.1670 N   0  0  0  0  0  2  0  0  0  0  0  0
  161.8420  211.6340  147.7640 Cl  0  0  0  0  0  0  0  0  0  0  0  0
  159.9640  212.1250  152.6620 C   0  0  0  0  0  0  0  0  0  0  0  0
  159.9750  214.4490  149.8740 C   0  0  0  0  0  3  0  0  0  0  0  0
  160.8470  211.8330  150.4160 C   0  0  0  0  0  0  0  0  0  0  0  0
  160.3550  210.8690  153.0200 C   0  0  0  0  0  0  0  0  0  0  0  0
  157.7430  211.6040  155.1630 C   0  0  0  0  0  1  0  0  0  0  0  0
  159.9040  210.5760  154.4180 C   0  0  1  0  0  3  0  0  0  0  0  0
  161.4930  209.0480  157.2610 C   0  0  0  0  0  2  0  0  0  0  0  0
  159.8380  207.6260  154.1330 C   0  0  0  0  0  1  0  0  0  0  0  0
  159.7810  213.9000  151.0960 N   0  0  0  0  0  0  0  0  0  0  0  0
  160.1930  212.6390  151.3920 C   0  0  0  0  0  0  0  0  0  0  0  0
  161.2380  208.1600  153.8640 C   0  0  2  0  0  3  0  0  0  0  0  0
  162.9080  207.4910  149.1950 C   0  0  0  0  0  2  0  0  0  0  0  0
  160.8590  206.1900  148.7190 C   0  0  0  0  0  1  0  0  0  0  0  0
  161.9010  207.1150  148.1250 C   0  0  0  0  0  2  0  0  0  0  0  0
  1  4  1  0  0  0  0
  2 19  1  0  0  0  0
  3 10  1  0  0  0  0
  4 12  1  0  0  0  0
  4 20  2  0  0  0  0
  5 11  2  0  0  0  0
  5  1  1  0  0  0  0
  7  9  1  0  0  0  0
  7 15  1  1  0  0  0
  8  6  1  0  0  0  0
  8 12  2  0  0  0  0
  9 14  1  1  0  0  0
 10 21  1  6  0  0  0
 11  8  1  0  0  0  0
 12 27  1  0  0  0  0
 13  2  2  0  0  0  0
 13 18  1  0  0  0  0
 14 23  1  0  0  0  0
 15 23  1  0  0  0  0
 16  2  1  0  0  0  0
 17 20  1  0  0  0  0
 17  3  1  0  0  0  0
 18 25  2  0  0  0  0
 19  1  2  0  0  0  0
 19 26  1  0  0  0  0
 22 20  1  6  0  0  0
 22 10  1  0  0  0  0
 22  9  1  0  0  0  0
 25 26  1  0  0  0  0
 26 17  2  0  0  0  0
 27 24  1  1  0  0  0
 27  7  1  0  0  0  0
 28 11  1  0  0  0  0
 30 29  1  0  0  0  0
 30 28  1  0  0  0  0
M  END
>  <MODEL>
7

>  <REMARK>
 VINA RESULT:      -5.0      2.880      5.739
  Name = 
  2 active torsions:
  status: ('A' for Active; 'I' for Inactive)
    1  A    between atoms: C_11  and  C_28
    2  A    between atoms: C_28  and  C_30
                            x       y       z     vdW  Elec       q    Type
                         _______ _______ _______ _____ _____    ______ ____

>  <TORSDO>
F 2

$$$$
=
 OpenBabel11122412383D

 30 35  0  0  1  0  0  0  0  0999 V2000
  161.2060  209.1570  151.3380 C   0  0  0  0  0  0  0  0  0  0  0  0
  161.1940  211.5270  150.4260 C   0  0  0  0  0  0  0  0  0  0  0  0
  162.1040  207.6650  147.5210 N   0  0  0  0  0  2  0  0  0  0  0  0
  161.3540  207.7590  151.0750 C   0  0  0  0  0  0  0  0  0  0  0  0
  160.9490  209.5540  152.6550 C   0  0  0  0  0  3  0  0  0  0  0  0
  160.8270  206.3540  154.4760 O   0  0  0  0  0  1  0  0  0  0  0  0
  160.3540  204.8260  150.7980 C   0  0  1  0  0  3  0  0  0  0  0  0
  160.9570  207.2690  153.4340 C   0  0  0  0  0  0  0  0  0  0  0  0
  160.7530  205.0950  149.3970 N   0  0  2  0  0  0  0  0  0  0  0  0
  162.2190  206.2280  147.7410 C   0  0  1  0  0  3  0  0  0  0  0  0
  160.8250  208.6360  153.6930 C   0  0  0  0  0  0  0  0  0  0  0  0
  161.2120  206.8180  152.1290 C   0  0  0  0  0  0  0  0  0  0  0  0
  161.3470  212.3640  149.3200 C   0  0  0  0  0  3  0  0  0  0  0  0
  161.0880  203.7860  148.8620 C   0  0  0  0  0  2  0  0  0  0  0  0
  160.1000  203.3990  150.9760 N   0  0  0  0  0  2  0  0  0  0  0  0
  160.8320  212.3630  151.9340 Cl  0  0  0  0  0  0  0  0  0  0  0  0
  161.7630  208.2670  148.7530 C   0  0  0  0  0  0  0  0  0  0  0  0
  161.6320  211.8300  148.0690 C   0  0  0  0  0  3  0  0  0  0  0  0
  161.3310  210.1130  150.2740 C   0  0  0  0  0  0  0  0  0  0  0  0
  161.6300  207.3570  149.7590 C   0  0  0  0  0  0  0  0  0  0  0  0
  163.6310  205.7770  147.4240 C   0  0  0  0  0  1  0  0  0  0  0  0
  161.9170  205.9810  149.2400 C   0  0  1  0  0  3  0  0  0  0  0  0
  160.3160  202.7900  149.6780 C   0  0  0  0  0  2  0  0  0  0  0  0
  162.7230  204.8080  151.8410 C   0  0  0  0  0  1  0  0  0  0  0  0
  161.7590  210.4900  147.9190 N   0  0  0  0  0  0  0  0  0  0  0  0
  161.6170  209.6320  148.9640 C   0  0  0  0  0  0  0  0  0  0  0  0
  161.2950  205.3320  151.9080 C   0  0  2  0  0  3  0  0  0  0  0  0
  160.5710  209.1360  155.0760 C   0  0  0  0  0  2  0  0  0  0  0  0
  158.7220  210.7650  155.3030 C   0  0  0  0  0  1  0  0  0  0  0  0
  160.2050  210.6080  155.0400 C   0  0  0  0  0  2  0  0  0  0  0  0
  1  5  2  0  0  0  0
  2 16  1  0  0  0  0
  3 10  1  0  0  0  0
  3 17  1  0  0  0  0
  4  1  1  0  0  0  0
  4 12  2  0  0  0  0
  5 11  1  0  0  0  0
  7 15  1  6  0  0  0
  7 27  1  0  0  0  0
  8 11  2  0  0  0  0
  8  6  1  0  0  0  0
  9 14  1  1  0  0  0
  9  7  1  0  0  0  0
 10 21  1  1  0  0  0
 10 22  1  0  0  0  0
 11 28  1  0  0  0  0
 12  8  1  0  0  0  0
 13  2  2  0  0  0  0
 14 23  1  0  0  0  0
 17 26  1  0  0  0  0
 17 20  2  0  0  0  0
 18 13  1  0  0  0  0
 19  2  1  0  0  0  0
 19  1  1  0  0  0  0
 20  4  1  0  0  0  0
 22  9  1  0  0  0  0
 22 20  1  1  0  0  0
 23 15  1  0  0  0  0
 25 18  2  0  0  0  0
 25 26  1  0  0  0  0
 26 19  2  0  0  0  0
 27 24  1  6  0  0  0
 27 12  1  0  0  0  0
 30 28  1  0  0  0  0
 30 29  1  0  0  0  0
M  END
>  <MODEL>
8

>  <REMARK>
 VINA RESULT:      -4.2      3.043      7.132
  Name = 
  2 active torsions:
  status: ('A' for Active; 'I' for Inactive)
    1  A    between atoms: C_11  and  C_28
    2  A    between atoms: C_28  and  C_30
                            x       y       z     vdW  Elec       q    Type
                         _______ _______ _______ _____ _____    ______ ____

>  <TORSDO>
F 2

$$$$
=
 OpenBabel11122412383D

 30 35  0  0  1  0  0  0  0  0999 V2000
  160.6060  209.5020  153.3600 C   0  0  0  0  0  0  0  0  0  0  0  0
  161.0890  207.4610  154.7910 C   0  0  0  0  0  0  0  0  0  0  0  0
  158.3730  211.1950  156.4820 N   0  0  0  0  0  2  0  0  0  0  0  0
  159.9540  210.7690  153.2390 C   0  0  0  0  0  0  0  0  0  0  0  0
  161.3620  209.0450  152.2750 C   0  0  0  0  0  3  0  0  0  0  0  0
  160.9550  211.7370  149.7920 O   0  0  0  0  0  1  0  0  0  0  0  0
  157.8390  212.7500  152.1050 C   0  0  1  0  0  3  0  0  0  0  0  0
  160.8350  211.0100  150.9740 C   0  0  0  0  0  0  0  0  0  0  0  0
  157.4190  212.7100  153.5250 N   0  0  2  0  0  0  0  0  0  0  0  0
  157.9610  212.4840  155.9390 C   0  0  1  0  0  3  0  0  0  0  0  0
  161.4820  209.7780  151.0980 C   0  0  0  0  0  0  0  0  0  0  0  0
  160.0610  211.5120  152.0330 C   0  0  0  0  0  0  0  0  0  0  0  0
  160.9150  206.8120  156.0150 C   0  0  0  0  0  3  0  0  0  0  0  0
  156.7770  213.9940  153.7450 C   0  0  0  0  0  2  0  0  0  0  0  0
  157.1520  213.8370  151.4150 N   0  0  0  0  0  2  0  0  0  0  0  0
  162.0730  206.5780  153.6260 Cl  0  0  0  0  0  0  0  0  0  0  0  0
  159.1100  210.5190  155.4840 C   0  0  0  0  0  0  0  0  0  0  0  0
  160.1570  207.4010  157.0200 C   0  0  0  0  0  3  0  0  0  0  0  0
  160.4870  208.7370  154.5700 C   0  0  0  0  0  0  0  0  0  0  0  0
  159.2100  211.2390  154.3320 C   0  0  0  0  0  0  0  0  0  0  0  0
  158.5610  213.6000  156.7720 C   0  0  0  0  0  1  0  0  0  0  0  0
  158.5150  212.5570  154.4950 C   0  0  1  0  0  3  0  0  0  0  0  0
  156.2870  214.4530  152.4020 C   0  0  0  0  0  2  0  0  0  0  0  0
  160.0750  214.0110  152.4350 C   0  0  0  0  0  1  0  0  0  0  0  0
  159.5810  208.6090  156.8130 N   0  0  0  0  0  0  0  0  0  0  0  0
  159.7190  209.2800  155.6390 C   0  0  0  0  0  0  0  0  0  0  0  0
  159.3500  212.8210  151.8190 C   0  0  2  0  0  3  0  0  0  0  0  0
  162.3230  209.2360  149.9900 C   0  0  0  0  0  2  0  0  0  0  0  0
  161.2710  207.3310  148.8130 C   0  0  0  0  0  1  0  0  0  0  0  0
  162.2060  207.7250  149.9370 C   0  0  0  0  0  2  0  0  0  0  0  0
  1 19  1  0  0  0  0
  2 13  1  0  0  0  0
  4  1  1  0  0  0  0
  4 20  1  0  0  0  0
  5  1  2  0  0  0  0
  6  8  1  0  0  0  0
  7 15  1  1  0  0  0
  7  9  1  0  0  0  0
  8 11  2  0  0  0  0
  8 12  1  0  0  0  0
  9 14  1  1  0  0  0
  9 22  1  0  0  0  0
 10  3  1  0  0  0  0
 10 21  1  1  0  0  0
 11  5  1  0  0  0  0
 12  4  2  0  0  0  0
 13 18  2  0  0  0  0
 15 23  1  0  0  0  0
 16  2  1  0  0  0  0
 17 26  1  0  0  0  0
 17  3  1  0  0  0  0
 19  2  2  0  0  0  0
 19 26  1  0  0  0  0
 20 17  2  0  0  0  0
 22 20  1  6  0  0  0
 22 10  1  0  0  0  0
 23 14  1  0  0  0  0
 25 18  1  0  0  0  0
 26 25  2  0  0  0  0
 27 12  1  0  0  0  0
 27  7  1  0  0  0  0
 27 24  1  1  0  0  0
 28 11  1  0  0  0  0
 29 30  1  0  0  0  0
 30 28  1  0  0  0  0
M  END
>  <MODEL>
9

>  <REMARK>
 VINA RESULT:      -4.0      2.925      4.777
  Name = 
  2 active torsions:
  status: ('A' for Active; 'I' for Inactive)
    1  A    between atoms: C_11  and  C_28
    2  A    between atoms: C_28  and  C_30
                            x       y       z     vdW  Elec       q    Type
                         _______ _______ _______ _____ _____    ______ ____

>  <TORSDO>
F 2

$$$$
