=
 OpenBabel11122413533D

 37 44  0  0  1  0  0  0  0  0999 V2000
  162.4250  207.8880  148.7530 C   0  0  0  0  0  2  0  0  0  0  0  0
  161.2040  212.3840  146.7620 C   0  0  0  0  0  0  0  0  0  0  0  0
  161.1470  212.0630  151.1070 C   0  0  1  0  0  3  0  0  0  0  0  0
  161.9650  206.5410  148.1960 C   0  0  1  0  0  0  0  0  0  0  0  0
  160.7340  208.4610  152.4620 C   0  0  0  0  0  2  0  0  0  0  0  0
  160.4300  213.2670  149.0160 C   0  0  1  0  0  3  0  0  0  0  0  0
  160.9150  210.5640  151.0500 C   0  0  2  0  0  3  0  0  0  0  0  0
  161.7060  205.2910  150.4650 C   0  0  2  0  0  3  0  0  0  0  0  0
  161.5540  212.4930  149.6970 C   0  0  2  0  0  3  0  0  0  0  0  0
  161.3410  209.8680  152.3590 C   0  0  1  0  0  3  0  0  0  0  0  0
  160.1480  214.4520  149.8080 N   0  0  0  0  0  2  0  0  0  0  0  0
  161.2070  205.4920  149.0240 C   0  0  0  0  0  2  0  0  0  0  0  0
  161.9580  211.2300  148.9210 C   0  0  2  0  0  3  0  0  0  0  0  0
  162.5710  212.5870  146.1370 C   0  0  0  0  0  1  0  0  0  0  0  0
  159.3470  212.4550  152.8360 C   0  0  0  0  0  3  0  0  0  0  0  0
  159.3890  214.0430  150.9940 C   0  0  0  0  0  2  0  0  0  0  0  0
  161.2050  211.0810  147.5830 C   0  0  0  0  0  2  0  0  0  0  0  0
  160.9560  206.1360  151.5000 C   0  0  0  0  0  2  0  0  0  0  0  0
  161.1490  207.6240  151.2620 C   0  0  1  0  0  3  0  0  0  0  0  0
  159.9610  212.8260  151.6950 C   0  0  0  0  0  0  0  0  0  0  0  0
  161.7670  210.0600  149.8900 C   0  0  2  0  0  3  0  0  0  0  0  0
  160.8500  213.6290  147.5970 C   0  0  0  0  0  2  0  0  0  0  0  0
  161.0500  210.7300  153.6050 C   0  0  1  0  0  3  0  0  0  0  0  0
  160.1860  212.2450  145.6490 C   0  0  0  0  0  1  0  0  0  0  0  0
  160.4050  208.0210  150.1380 O   0  0  0  0  0  0  0  0  0  0  0  0
  163.0890  205.4560  150.5740 O   0  0  0  0  0  1  0  0  0  0  0  0
  161.2580  208.7400  149.2700 C   0  0  2  0  0  3  0  0  0  0  0  0
  159.6020  211.2110  153.6560 C   0  0  0  0  0  2  0  0  0  0  0  0
  161.7350  206.4970  146.7620 C   0  0  0  0  0  2  0  0  0  0  0  0
  162.9770  205.9320  147.3260 N   0  0  0  0  0  2  0  0  0  0  0  0
  162.5440  210.7010  155.6080 C   0  0  0  0  0  3  0  0  0  0  0  0
  161.5060  210.0990  154.8870 C   0  0  0  0  0  0  0  0  0  0  0  0
  160.9430  208.9020  155.3580 C   0  0  0  0  0  3  0  0  0  0  0  0
  160.8580  207.1710  156.9950 F   0  0  0  0  0  0  0  0  0  0  0  0
  162.4380  208.9350  157.2610 C   0  0  0  0  0  3  0  0  0  0  0  0
  161.4070  208.3240  156.5430 C   0  0  0  0  0  0  0  0  0  0  0  0
  163.0070  210.1230  156.7930 C   0  0  0  0  0  3  0  0  0  0  0  0
  1 27  1  0  0  0  0
  2 17  1  0  0  0  0
  2 22  1  0  0  0  0
  3 20  1  6  0  0  0
  4 29  1  6  0  0  0
  4  1  1  0  0  0  0
  4 12  1  0  0  0  0
  6 22  1  6  0  0  0
  6  9  1  0  0  0  0
  6 11  1  0  0  0  0
  7  3  1  0  0  0  0
  7 10  1  0  0  0  0
  8 26  1  0  0  0  0
  8 18  1  0  0  0  0
  9  3  1  0  0  0  0
 10  5  1  0  0  0  0
 10 23  1  0  0  0  0
 11 16  1  0  0  0  0
 12  8  1  0  0  0  0
 13  9  1  0  0  0  0
 13 21  1  0  0  0  0
 14  2  1  0  0  0  0
 15 28  1  0  0  0  0
 16 20  1  0  0  0  0
 17 13  1  0  0  0  0
 19 18  1  0  0  0  0
 19  5  1  0  0  0  0
 20 15  2  0  0  0  0
 21  7  1  0  0  0  0
 23 28  1  0  0  0  0
 23 32  1  0  0  0  0
 24  2  1  0  0  0  0
 25 19  1  0  0  0  0
 27 21  1  0  0  0  0
 27 25  1  0  0  0  0
 29 30  1  0  0  0  0
 30  4  1  0  0  0  0
 31 37  1  0  0  0  0
 32 33  1  0  0  0  0
 32 31  2  0  0  0  0
 33 36  2  0  0  0  0
 36 34  1  0  0  0  0
 36 35  1  0  0  0  0
 37 35  2  0  0  0  0
M  END
>  <MODEL>
1

>  <REMARK>
 VINA RESULT:      -3.6      0.000      0.000
  Name = 
  1 active torsions:
  status: ('A' for Active; 'I' for Inactive)
    1  A    between atoms: C_23  and  C_30
                            x       y       z     vdW  Elec       q    Type
                         _______ _______ _______ _____ _____    ______ ____

>  <TORSDO>
F 1

$$$$
=
 OpenBabel11122413533D

 37 44  0  0  1  0  0  0  0  0999 V2000
  161.0630  207.7510  151.5610 C   0  0  0  0  0  2  0  0  0  0  0  0
  160.6880  208.5390  156.5510 C   0  0  0  0  0  0  0  0  0  0  0  0
  159.1410  211.6600  153.9340 C   0  0  1  0  0  3  0  0  0  0  0  0
  162.2860  207.1470  150.8690 C   0  0  1  0  0  0  0  0  0  0  0  0
  160.6300  211.6630  150.3600 C   0  0  0  0  0  2  0  0  0  0  0  0
  159.9720  210.9520  156.2020 C   0  0  1  0  0  3  0  0  0  0  0  0
  160.0570  211.2400  152.7980 C   0  0  2  0  0  3  0  0  0  0  0  0
  162.1720  208.5400  148.6730 C   0  0  2  0  0  3  0  0  0  0  0  0
  159.1840  210.5320  154.9650 C   0  0  2  0  0  3  0  0  0  0  0  0
  159.5280  211.7160  151.4290 C   0  0  1  0  0  3  0  0  0  0  0  0
  159.3130  212.1060  156.7910 N   0  0  0  0  0  2  0  0  0  0  0  0
  163.0460  207.8400  149.7270 C   0  0  0  0  0  2  0  0  0  0  0  0
  159.7780  209.2920  154.2790 C   0  0  2  0  0  3  0  0  0  0  0  0
  159.7700  207.3510  156.7680 C   0  0  0  0  0  1  0  0  0  0  0  0
  159.6730  214.1180  153.6880 C   0  0  0  0  0  3  0  0  0  0  0  0
  159.6250  213.2820  155.9720 C   0  0  0  0  0  2  0  0  0  0  0  0
  160.9750  208.6960  155.0470 C   0  0  0  0  0  2  0  0  0  0  0  0
  161.9430  210.0290  148.9520 C   0  0  0  0  0  2  0  0  0  0  0  0
  161.1820  210.2510  150.2480 C   0  0  1  0  0  3  0  0  0  0  0  0
  159.4730  213.0470  154.4820 C   0  0  0  0  0  0  0  0  0  0  0  0
  160.0930  209.7160  152.8410 C   0  0  2  0  0  3  0  0  0  0  0  0
  160.0400  209.7870  157.1810 C   0  0  0  0  0  2  0  0  0  0  0  0
  158.8480  213.0980  151.5110 C   0  0  1  0  0  3  0  0  0  0  0  0
  161.9970  208.2670  157.2610 C   0  0  0  0  0  1  0  0  0  0  0  0
  162.0280  209.9950  151.3400 O   0  0  0  0  0  0  0  0  0  0  0  0
  160.9660  207.8690  148.4550 O   0  0  0  0  0  1  0  0  0  0  0  0
  161.3670  209.1050  152.2170 C   0  0  2  0  0  3  0  0  0  0  0  0
  159.7340  214.1460  152.1790 C   0  0  0  0  0  2  0  0  0  0  0  0
  163.0620  206.2110  151.6640 C   0  0  0  0  0  2  0  0  0  0  0  0
  162.1310  205.7080  150.6360 N   0  0  0  0  0  2  0  0  0  0  0  0
  156.8880  213.7060  150.0840 C   0  0  0  0  0  3  0  0  0  0  0  0
  158.2750  213.5590  150.2020 C   0  0  0  0  0  0  0  0  0  0  0  0
  159.0930  213.8080  149.0890 C   0  0  0  0  0  3  0  0  0  0  0  0
  159.3220  214.4530  146.8060 F   0  0  0  0  0  0  0  0  0  0  0  0
  157.1430  214.3630  147.7670 C   0  0  0  0  0  3  0  0  0  0  0  0
  158.5280  214.2110  147.8760 C   0  0  0  0  0  0  0  0  0  0  0  0
  156.3230  214.1110  148.8710 C   0  0  0  0  0  3  0  0  0  0  0  0
  1 27  1  0  0  0  0
  2 14  1  0  0  0  0
  2 22  1  0  0  0  0
  2 24  1  0  0  0  0
  3 20  1  1  0  0  0
  3  9  1  0  0  0  0
  4 12  1  6  0  0  0
  4  1  1  0  0  0  0
  4 29  1  0  0  0  0
  5 10  1  0  0  0  0
  6 11  1  0  0  0  0
  6 22  1  1  0  0  0
  7 21  1  0  0  0  0
  7  3  1  0  0  0  0
  8 18  1  0  0  0  0
  8 12  1  0  0  0  0
  9  6  1  0  0  0  0
 10 23  1  0  0  0  0
 10  7  1  0  0  0  0
 13  9  1  0  0  0  0
 13 17  1  0  0  0  0
 15 20  2  0  0  0  0
 16 11  1  0  0  0  0
 17  2  1  0  0  0  0
 18 19  1  0  0  0  0
 19  5  1  0  0  0  0
 19 25  1  0  0  0  0
 20 16  1  0  0  0  0
 21 13  1  0  0  0  0
 23 28  1  0  0  0  0
 25 27  1  0  0  0  0
 26  8  1  0  0  0  0
 27 21  1  0  0  0  0
 28 15  1  0  0  0  0
 30  4  1  0  0  0  0
 30 29  1  0  0  0  0
 31 32  1  0  0  0  0
 32 23  1  0  0  0  0
 33 32  2  0  0  0  0
 34 36  1  0  0  0  0
 35 36  2  0  0  0  0
 35 37  1  0  0  0  0
 36 33  1  0  0  0  0
 37 31  2  0  0  0  0
M  END
>  <MODEL>
2

>  <REMARK>
 VINA RESULT:      -3.1      3.074      6.883
  Name = 
  1 active torsions:
  status: ('A' for Active; 'I' for Inactive)
    1  A    between atoms: C_23  and  C_30
                            x       y       z     vdW  Elec       q    Type
                         _______ _______ _______ _____ _____    ______ ____

>  <TORSDO>
F 1

$$$$
=
 OpenBabel11122413533D

 37 44  0  0  1  0  0  0  0  0999 V2000
  160.4510  211.1010  149.8800 C   0  0  0  0  0  2  0  0  0  0  0  0
  162.1410  206.7010  151.7380 C   0  0  0  0  0  0  0  0  0  0  0  0
  159.6520  209.1310  154.3620 C   0  0  1  0  0  3  0  0  0  0  0  0
  161.2870  212.0620  149.0350 C   0  0  1  0  0  0  0  0  0  0  0  0
  159.5540  212.8970  153.4730 C   0  0  0  0  0  2  0  0  0  0  0  0
  161.3380  207.2830  154.0770 C   0  0  1  0  0  3  0  0  0  0  0  0
  160.0270  210.4070  153.6290 C   0  0  2  0  0  3  0  0  0  0  0  0
  160.2830  214.2880  149.9360 C   0  0  2  0  0  3  0  0  0  0  0  0
  160.1150  207.9710  153.4790 C   0  0  2  0  0  3  0  0  0  0  0  0
  158.9840  211.5220  153.8510 C   0  0  1  0  0  3  0  0  0  0  0  0
  160.9730  206.7640  155.3850 N   0  0  0  0  0  2  0  0  0  0  0  0
  161.5130  213.5380  149.3970 C   0  0  0  0  0  2  0  0  0  0  0  0
  160.3810  208.5320  152.0730 C   0  0  2  0  0  3  0  0  0  0  0  0
  161.3960  205.8700  150.7110 C   0  0  0  0  0  1  0  0  0  0  0  0
  160.0300  210.1260  156.6530 C   0  0  0  0  0  3  0  0  0  0  0  0
  160.9210  207.8860  156.3270 C   0  0  0  0  0  2  0  0  0  0  0  0
  161.7900  208.1870  151.5460 C   0  0  0  0  0  2  0  0  0  0  0  0
  160.1830  214.2930  151.4650 C   0  0  0  0  0  2  0  0  0  0  0  0
  160.0170  212.8910  152.0240 C   0  0  1  0  0  3  0  0  0  0  0  0
  160.1750  209.0950  155.7970 C   0  0  0  0  0  0  0  0  0  0  0  0
  160.0820  210.0310  152.1520 C   0  0  2  0  0  3  0  0  0  0  0  0
  161.8030  206.1720  153.1440 C   0  0  0  0  0  2  0  0  0  0  0  0
  158.3920  211.4980  155.2750 C   0  0  1  0  0  3  0  0  0  0  0  0
  163.6270  206.5290  151.5030 C   0  0  0  0  0  1  0  0  0  0  0  0
  161.2350  212.1980  151.9290 O   0  0  0  0  0  0  0  0  0  0  0  0
  159.0950  213.8480  149.3470 O   0  0  0  0  0  1  0  0  0  0  0  0
  160.9920  210.9510  151.3080 C   0  0  2  0  0  3  0  0  0  0  0  0
  159.4710  211.4980  156.3550 C   0  0  0  0  0  2  0  0  0  0  0  0
  162.3230  211.4490  148.2210 C   0  0  0  0  0  2  0  0  0  0  0  0
  161.0550  211.8760  147.5980 N   0  0  0  0  0  2  0  0  0  0  0  0
  157.3000  213.2180  156.7220 C   0  0  0  0  0  3  0  0  0  0  0  0
  157.3340  212.5380  155.4990 C   0  0  0  0  0  0  0  0  0  0  0  0
  156.3600  212.8160  154.5260 C   0  0  0  0  0  3  0  0  0  0  0  0
  154.4360  214.0400  153.8320 F   0  0  0  0  0  0  0  0  0  0  0  0
  155.3480  214.4530  155.9940 C   0  0  0  0  0  3  0  0  0  0  0  0
  155.3720  213.7730  154.7740 C   0  0  0  0  0  0  0  0  0  0  0  0
  156.3110  214.1760  156.9680 C   0  0  0  0  0  3  0  0  0  0  0  0
  1 27  1  0  0  0  0
  2 22  1  0  0  0  0
  3 20  1  1  0  0  0
  4 29  1  1  0  0  0
  4 12  1  0  0  0  0
  4  1  1  0  0  0  0
  5 10  1  0  0  0  0
  6 22  1  6  0  0  0
  6 11  1  0  0  0  0
  7 10  1  0  0  0  0
  7  3  1  0  0  0  0
  8 18  1  0  0  0  0
  9  6  1  0  0  0  0
  9  3  1  0  0  0  0
 10 23  1  0  0  0  0
 11 16  1  0  0  0  0
 12  8  1  0  0  0  0
 13 21  1  0  0  0  0
 13  9  1  0  0  0  0
 14  2  1  0  0  0  0
 17  2  1  0  0  0  0
 17 13  1  0  0  0  0
 18 19  1  0  0  0  0
 19  5  1  0  0  0  0
 20 16  1  0  0  0  0
 20 15  2  0  0  0  0
 21  7  1  0  0  0  0
 23 32  1  0  0  0  0
 23 28  1  0  0  0  0
 24  2  1  0  0  0  0
 25 19  1  0  0  0  0
 26  8  1  0  0  0  0
 27 25  1  0  0  0  0
 27 21  1  0  0  0  0
 28 15  1  0  0  0  0
 30 29  1  0  0  0  0
 30  4  1  0  0  0  0
 31 37  1  0  0  0  0
 32 31  2  0  0  0  0
 33 36  2  0  0  0  0
 33 32  1  0  0  0  0
 34 36  1  0  0  0  0
 35 37  2  0  0  0  0
 36 35  1  0  0  0  0
M  END
>  <MODEL>
3

>  <REMARK>
 VINA RESULT:      -1.1      3.326      6.609
  Name = 
  1 active torsions:
  status: ('A' for Active; 'I' for Inactive)
    1  A    between atoms: C_23  and  C_30
                            x       y       z     vdW  Elec       q    Type
                         _______ _______ _______ _____ _____    ______ ____

>  <TORSDO>
F 1

$$$$
=
 OpenBabel11122413533D

 37 44  0  0  1  0  0  0  0  0999 V2000
  160.9440  210.0920  148.2990 C   0  0  0  0  0  2  0  0  0  0  0  0
  161.1760  205.5650  146.0380 C   0  0  0  0  0  0  0  0  0  0  0  0
  160.7800  205.5910  150.3770 C   0  0  1  0  0  3  0  0  0  0  0  0
  161.8060  211.2960  147.9190 C   0  0  1  0  0  0  0  0  0  0  0  0
  161.9560  208.8560  152.0920 C   0  0  0  0  0  2  0  0  0  0  0  0
  161.4080  204.3680  148.2670 C   0  0  1  0  0  3  0  0  0  0  0  0
  161.4040  206.9710  150.4820 C   0  0  2  0  0  3  0  0  0  0  0  0
  162.1040  212.2860  150.3070 C   0  0  2  0  0  3  0  0  0  0  0  0
  160.4510  205.3750  148.8990 C   0  0  2  0  0  3  0  0  0  0  0  0
  161.0180  207.6750  151.7990 C   0  0  1  0  0  3  0  0  0  0  0  0
  161.2680  203.1050  148.9720 N   0  0  0  0  0  2  0  0  0  0  0  0
  162.7060  212.0470  148.9120 C   0  0  0  0  0  2  0  0  0  0  0  0
  160.4920  206.7450  148.2060 C   0  0  2  0  0  3  0  0  0  0  0  0
  159.8910  205.7790  145.2610 C   0  0  0  0  0  1  0  0  0  0  0  0
  162.1880  204.6200  152.2370 C   0  0  0  0  0  3  0  0  0  0  0  0
  161.9560  203.2190  150.2620 C   0  0  0  0  0  2  0  0  0  0  0  0
  161.4160  206.7660  146.9700 C   0  0  0  0  0  2  0  0  0  0  0  0
  162.4720  211.2080  151.3310 C   0  0  0  0  0  2  0  0  0  0  0  0
  161.9260  209.8460  150.9390 C   0  0  1  0  0  3  0  0  0  0  0  0
  161.6420  204.5000  151.0100 C   0  0  0  0  0  0  0  0  0  0  0  0
  160.8630  207.7580  149.2930 C   0  0  2  0  0  3  0  0  0  0  0  0
  161.0850  204.2220  146.7860 C   0  0  0  0  0  2  0  0  0  0  0  0
  160.9170  206.6910  152.9840 C   0  0  1  0  0  3  0  0  0  0  0  0
  162.3230  205.4900  145.0520 C   0  0  0  0  0  1  0  0  0  0  0  0
  162.6720  209.3310  149.8650 O   0  0  0  0  0  0  0  0  0  0  0  0
  160.7240  212.4970  150.2590 O   0  0  0  0  0  1  0  0  0  0  0  0
  161.7740  208.9250  148.8520 C   0  0  2  0  0  3  0  0  0  0  0  0
  162.1700  205.8330  153.1370 C   0  0  0  0  0  2  0  0  0  0  0  0
  162.2140  211.3640  146.5250 C   0  0  0  0  0  2  0  0  0  0  0  0
  161.1050  212.2090  147.0090 N   0  0  0  0  0  2  0  0  0  0  0  0
  160.4560  206.5780  155.4370 C   0  0  0  0  0  3  0  0  0  0  0  0
  160.4890  207.3430  154.2650 C   0  0  0  0  0  0  0  0  0  0  0  0
  160.0860  208.6880  154.3070 C   0  0  0  0  0  3  0  0  0  0  0  0
  159.2830  210.5590  155.5470 F   0  0  0  0  0  0  0  0  0  0  0  0
  159.6450  208.4930  156.6790 C   0  0  0  0  0  3  0  0  0  0  0  0
  159.6680  209.2600  155.5110 C   0  0  0  0  0  0  0  0  0  0  0  0
  160.0380  207.1520  156.6420 C   0  0  0  0  0  3  0  0  0  0  0  0
  1 27  1  0  0  0  0
  2 22  1  0  0  0  0
  2 17  1  0  0  0  0
  3  7  1  0  0  0  0
  3 20  1  6  0  0  0
  4 29  1  6  0  0  0
  4  1  1  0  0  0  0
  4 12  1  0  0  0  0
  6 22  1  6  0  0  0
  6  9  1  0  0  0  0
  6 11  1  0  0  0  0
  7 10  1  0  0  0  0
  8 18  1  0  0  0  0
  9  3  1  0  0  0  0
 10  5  1  0  0  0  0
 10 23  1  0  0  0  0
 11 16  1  0  0  0  0
 12  8  1  0  0  0  0
 13  9  1  0  0  0  0
 13 21  1  0  0  0  0
 14  2  1  0  0  0  0
 15 28  1  0  0  0  0
 16 20  1  0  0  0  0
 17 13  1  0  0  0  0
 19 18  1  0  0  0  0
 19  5  1  0  0  0  0
 20 15  2  0  0  0  0
 21  7  1  0  0  0  0
 23 28  1  0  0  0  0
 23 32  1  0  0  0  0
 24  2  1  0  0  0  0
 25 19  1  0  0  0  0
 26  8  1  0  0  0  0
 27 21  1  0  0  0  0
 27 25  1  0  0  0  0
 29 30  1  0  0  0  0
 30  4  1  0  0  0  0
 31 37  1  0  0  0  0
 32 33  1  0  0  0  0
 32 31  2  0  0  0  0
 33 36  2  0  0  0  0
 36 34  1  0  0  0  0
 36 35  1  0  0  0  0
 37 35  2  0  0  0  0
M  END
>  <MODEL>
4

>  <REMARK>
 VINA RESULT:      -0.8      2.264      5.933
  Name = 
  1 active torsions:
  status: ('A' for Active; 'I' for Inactive)
    1  A    between atoms: C_23  and  C_30
                            x       y       z     vdW  Elec       q    Type
                         _______ _______ _______ _____ _____    ______ ____

>  <TORSDO>
F 1

$$$$
