=
 OpenBabel11122414273D

 34 41  0  0  1  0  0  0  0  0999 V2000
  162.0380  208.2050  150.6270 C   0  0  2  0  0  3  0  0  0  0  0  0
  160.9260  206.9670  148.8070 C   0  0  0  0  0  2  0  0  0  0  0  0
  161.5300  209.4110  156.9140 C   0  0  1  0  0  3  0  0  0  0  0  0
  161.1330  209.7080  152.3590 C   0  0  0  0  0  0  0  0  0  0  0  0
  160.7110  208.5840  154.5590 C   0  0  0  0  0  0  0  0  0  0  0  0
  159.1590  208.4390  156.6360 C   0  0  0  0  0  1  0  0  0  0  0  0
  161.6210  207.8920  156.8330 C   0  0  0  0  0  2  0  0  0  0  0  0
  162.5610  210.7830  155.0840 C   0  0  0  0  0  3  0  0  0  0  0  0
  161.6360  205.7530  150.6830 C   0  0  1  0  0  3  0  0  0  0  0  0
  161.5970  202.9240  151.2820 C   0  0  0  0  0  2  0  0  0  0  0  0
  160.8380  207.4290  153.9730 N   0  0  0  0  0  0  0  0  0  0  0  0
  161.2140  211.0860  154.4970 C   0  0  0  0  0  2  0  0  0  0  0  0
  160.8270  205.9450  151.9800 C   0  0  2  0  0  3  0  0  0  0  0  0
  160.6710  205.5090  148.4820 C   0  0  0  0  0  2  0  0  0  0  0  0
  160.6140  209.8710  153.7620 C   0  0  1  0  0  3  0  0  0  0  0  0
  162.6970  210.0070  156.1670 C   0  0  0  0  0  3  0  0  0  0  0  0
  161.2090  203.4000  149.8650 C   0  0  2  0  0  3  0  0  0  0  0  0
  160.9380  208.3890  151.6630 C   0  0  2  0  0  3  0  0  0  0  0  0
  160.5460  208.6140  156.0530 C   0  0  2  0  0  0  0  0  0  0  0  0
  161.0030  207.2640  152.5830 N   0  0  0  0  0  0  0  0  0  0  0  0
  161.9600  210.5750  150.2270 C   0  0  0  0  0  3  0  0  0  0  0  0
  160.6710  203.4380  152.3940 C   0  0  0  0  0  2  0  0  0  0  0  0
  161.5320  210.7640  151.6300 C   0  0  0  0  0  3  0  0  0  0  0  0
  161.1350  204.7950  152.9460 C   0  0  0  0  0  2  0  0  0  0  0  0
  160.7540  204.8590  149.8420 C   0  0  1  0  0  3  0  0  0  0  0  0
  162.1530  209.3780  149.7550 N   0  0  0  0  0  0  0  0  0  0  0  0
  161.9230  206.9500  149.8700 N   0  0  2  0  0  0  0  0  0  0  0  0
  160.1920  202.5860  149.3610 O   0  0  0  0  0  0  0  0  0  0  0  0
  160.8150  201.3680  149.0690 C   0  0  0  0  0  2  0  0  0  0  0  0
  160.6590  200.0480  146.0010 O   0  0  0  0  0  0  0  0  0  0  0  0
  160.7860  202.2830  146.7500 C   0  0  0  0  0  2  0  0  0  0  0  0
  161.5330  201.4230  147.7230 C   0  0  2  0  0  3  0  0  0  0  0  0
  160.5850  201.3770  145.5600 C   0  0  0  0  0  2  0  0  0  0  0  0
  161.5740  200.0600  147.0650 C   0  0  0  0  0  2  0  0  0  0  0  0
  1 26  1  6  0  0  0
  1 18  1  0  0  0  0
  2 27  1  0  0  0  0
  3 16  1  6  0  0  0
  4 15  1  0  0  0  0
  5 19  1  0  0  0  0
  7  3  1  0  0  0  0
  8 16  2  0  0  0  0
  9 13  1  0  0  0  0
 10 22  1  0  0  0  0
 11  5  2  0  0  0  0
 12  8  1  0  0  0  0
 13 20  1  0  0  0  0
 13 24  1  0  0  0  0
 14  2  1  0  0  0  0
 14 25  1  0  0  0  0
 15 12  1  0  0  0  0
 15  5  1  0  0  0  0
 17 10  1  0  0  0  0
 18  4  1  0  0  0  0
 18 20  1  0  0  0  0
 19  6  1  0  0  0  0
 19  7  1  0  0  0  0
 19  3  1  0  0  0  0
 20 11  1  0  0  0  0
 21 23  1  0  0  0  0
 22 24  1  0  0  0  0
 23  4  2  0  0  0  0
 25 17  1  0  0  0  0
 25  9  1  0  0  0  0
 26 21  2  0  0  0  0
 27  1  1  0  0  0  0
 27  9  1  0  0  0  0
 28 17  1  0  0  0  0
 29 28  1  0  0  0  0
 30 34  1  0  0  0  0
 31 32  1  0  0  0  0
 32 29  1  0  0  0  0
 33 30  1  0  0  0  0
 33 31  1  0  0  0  0
 34 32  1  0  0  0  0
M  END
>  <MODEL>
1

>  <REMARK>
 VINA RESULT:      -9.3      0.000      0.000
  Name = 
  3 active torsions:
  status: ('A' for Active; 'I' for Inactive)
    1  A    between atoms: C_17  and  O_28
    2  A    between atoms: O_28  and  C_29
    3  A    between atoms: C_29  and  C_32
                            x       y       z     vdW  Elec       q    Type
                         _______ _______ _______ _____ _____    ______ ____

>  <TORSDO>
F 3

$$$$
=
 OpenBabel11122414273D

 34 41  0  0  1  0  0  0  0  0999 V2000
  161.8240  204.9680  151.6490 C   0  0  2  0  0  3  0  0  0  0  0  0
  160.7260  206.1930  153.4860 C   0  0  0  0  0  2  0  0  0  0  0  0
  162.0830  204.7170  145.2370 C   0  0  1  0  0  3  0  0  0  0  0  0
  160.9080  203.9500  149.5990 C   0  0  0  0  0  0  0  0  0  0  0  0
  161.0930  205.4100  147.5700 C   0  0  0  0  0  0  0  0  0  0  0  0
  159.9610  206.1760  145.3620 C   0  0  0  0  0  1  0  0  0  0  0  0
  162.4830  206.1500  145.5690 C   0  0  0  0  0  2  0  0  0  0  0  0
  162.4900  202.9220  146.9420 C   0  0  0  0  0  3  0  0  0  0  0  0
  161.9700  207.4330  151.9330 C   0  0  1  0  0  3  0  0  0  0  0  0
  162.6330  210.2430  151.7920 C   0  0  0  0  0  2  0  0  0  0  0  0
  161.3690  206.4200  148.3440 N   0  0  0  0  0  0  0  0  0  0  0  0
  161.0330  202.8730  147.2970 C   0  0  0  0  0  2  0  0  0  0  0  0
  161.3560  207.6010  150.5300 C   0  0  2  0  0  3  0  0  0  0  0  0
  160.7400  207.6170  154.0030 C   0  0  0  0  0  2  0  0  0  0  0  0
  160.5970  204.0920  148.1330 C   0  0  1  0  0  3  0  0  0  0  0  0
  162.9610  203.7750  146.0230 C   0  0  0  0  0  3  0  0  0  0  0  0
  161.9300  209.6980  153.0540 C   0  0  2  0  0  3  0  0  0  0  0  0
  160.8900  205.1790  150.4650 C   0  0  2  0  0  3  0  0  0  0  0  0
  161.1670  205.6080  146.0820 C   0  0  2  0  0  0  0  0  0  0  0  0
  161.3400  206.3650  149.7520 N   0  0  0  0  0  0  0  0  0  0  0  0
  161.1780  202.6520  151.6530 C   0  0  0  0  0  3  0  0  0  0  0  0
  161.8080  210.1060  150.5030 C   0  0  0  0  0  2  0  0  0  0  0  0
  160.9490  202.7470  150.1960 C   0  0  0  0  0  3  0  0  0  0  0  0
  162.0540  208.7590  149.8060 C   0  0  0  0  0  2  0  0  0  0  0  0
  161.1760  208.3960  152.7860 C   0  0  1  0  0  3  0  0  0  0  0  0
  161.5440  203.7000  152.3310 N   0  0  0  0  0  0  0  0  0  0  0  0
  161.8600  206.1090  152.5750 N   0  0  2  0  0  0  0  0  0  0  0  0
  161.0440  210.6570  153.5470 O   0  0  0  0  0  0  0  0  0  0  0  0
  161.5120  210.9560  154.8310 C   0  0  0  0  0  2  0  0  0  0  0  0
  158.4160  212.2030  154.6270 O   0  0  0  0  0  0  0  0  0  0  0  0
  159.3210  210.4320  155.8990 C   0  0  0  0  0  2  0  0  0  0  0  0
  160.3870  211.4710  155.7240 C   0  0  2  0  0  3  0  0  0  0  0  0
  158.0600  211.1440  155.4750 C   0  0  0  0  0  2  0  0  0  0  0  0
  159.6690  212.6410  155.0850 C   0  0  0  0  0  2  0  0  0  0  0  0
  1 26  1  1  0  0  0
  1 27  1  0  0  0  0
  2 14  1  0  0  0  0
  3  7  1  1  0  0  0
  3 16  1  0  0  0  0
  3 19  1  0  0  0  0
  4 23  2  0  0  0  0
  4 18  1  0  0  0  0
  5 15  1  0  0  0  0
  5 11  2  0  0  0  0
  6 19  1  0  0  0  0
  7 19  1  0  0  0  0
  8 12  1  0  0  0  0
  9 27  1  0  0  0  0
  9 25  1  0  0  0  0
 10 17  1  0  0  0  0
 11 20  1  0  0  0  0
 12 15  1  0  0  0  0
 13  9  1  0  0  0  0
 15  4  1  0  0  0  0
 16  8  2  0  0  0  0
 17 28  1  0  0  0  0
 18  1  1  0  0  0  0
 19  5  1  0  0  0  0
 20 18  1  0  0  0  0
 20 13  1  0  0  0  0
 21 26  2  0  0  0  0
 22 10  1  0  0  0  0
 23 21  1  0  0  0  0
 24 22  1  0  0  0  0
 24 13  1  0  0  0  0
 25 17  1  0  0  0  0
 25 14  1  0  0  0  0
 27  2  1  0  0  0  0
 28 29  1  0  0  0  0
 29 32  1  0  0  0  0
 30 34  1  0  0  0  0
 30 33  1  0  0  0  0
 32 31  1  0  0  0  0
 33 31  1  0  0  0  0
 34 32  1  0  0  0  0
M  END
>  <MODEL>
2

>  <REMARK>
 VINA RESULT:      -8.7      3.172      9.043
  Name = 
  3 active torsions:
  status: ('A' for Active; 'I' for Inactive)
    1  A    between atoms: C_17  and  O_28
    2  A    between atoms: O_28  and  C_29
    3  A    between atoms: C_29  and  C_32
                            x       y       z     vdW  Elec       q    Type
                         _______ _______ _______ _____ _____    ______ ____

>  <TORSDO>
F 3

$$$$
=
 OpenBabel11122414273D

 34 41  0  0  1  0  0  0  0  0999 V2000
  161.8140  205.1970  151.7410 C   0  0  2  0  0  3  0  0  0  0  0  0
  160.7490  206.5260  153.5240 C   0  0  0  0  0  2  0  0  0  0  0  0
  162.0530  204.6600  145.3460 C   0  0  1  0  0  3  0  0  0  0  0  0
  160.8700  204.1120  149.7380 C   0  0  0  0  0  0  0  0  0  0  0  0
  161.0850  205.4770  147.6480 C   0  0  0  0  0  0  0  0  0  0  0  0
  159.9650  206.1710  145.4090 C   0  0  0  0  0  1  0  0  0  0  0  0
  162.4860  206.0960  145.6150 C   0  0  0  0  0  2  0  0  0  0  0  0
  162.4230  202.9320  147.1270 C   0  0  0  0  0  3  0  0  0  0  0  0
  162.0180  207.6680  151.9160 C   0  0  1  0  0  3  0  0  0  0  0  0
  162.7440  210.4540  151.6510 C   0  0  0  0  0  2  0  0  0  0  0  0
  161.3850  206.5130  148.3760 N   0  0  0  0  0  0  0  0  0  0  0  0
  160.9650  202.9320  147.4860 C   0  0  0  0  0  2  0  0  0  0  0  0
  161.4040  207.7890  150.5080 C   0  0  2  0  0  3  0  0  0  0  0  0
  160.7970  207.9710  153.9780 C   0  0  0  0  0  2  0  0  0  0  0  0
  160.5600  204.1960  148.2680 C   0  0  1  0  0  3  0  0  0  0  0  0
  162.9100  203.7330  146.1710 C   0  0  0  0  0  3  0  0  0  0  0  0
  162.0320  209.9800  152.9370 C   0  0  2  0  0  3  0  0  0  0  0  0
  160.8820  205.3780  150.5500 C   0  0  2  0  0  3  0  0  0  0  0  0
  161.1590  205.6070  146.1520 C   0  0  2  0  0  0  0  0  0  0  0  0
  161.3590  206.5200  149.7850 N   0  0  0  0  0  0  0  0  0  0  0  0
  161.1150  202.8990  151.8470 C   0  0  0  0  0  3  0  0  0  0  0  0
  161.9140  210.2790  150.3710 C   0  0  0  0  0  2  0  0  0  0  0  0
  160.8850  202.9350  150.3870 C   0  0  0  0  0  3  0  0  0  0  0  0
  162.1270  208.8970  149.7330 C   0  0  0  0  0  2  0  0  0  0  0  0
  161.2480  208.6850  152.7280 C   0  0  1  0  0  3  0  0  0  0  0  0
  161.5070  203.9670  152.4780 N   0  0  0  0  0  0  0  0  0  0  0  0
  161.8790  206.3760  152.6160 N   0  0  2  0  0  0  0  0  0  0  0  0
  161.1700  210.9800  153.3890 O   0  0  0  0  0  0  0  0  0  0  0  0
  160.2650  211.1790  152.3400 C   0  0  0  0  0  2  0  0  0  0  0  0
  158.7650  213.3580  150.2960 O   0  0  0  0  0  0  0  0  0  0  0  0
  158.2530  212.6440  152.4870 C   0  0  0  0  0  2  0  0  0  0  0  0
  159.7430  212.6120  152.3230 C   0  0  2  0  0  3  0  0  0  0  0  0
  157.7830  213.4400  151.2940 C   0  0  0  0  0  2  0  0  0  0  0  0
  159.9870  213.2710  150.9810 C   0  0  0  0  0  2  0  0  0  0  0  0
  1 26  1  1  0  0  0
  1 27  1  0  0  0  0
  2 14  1  0  0  0  0
  3  7  1  1  0  0  0
  3 19  1  0  0  0  0
  3 16  1  0  0  0  0
  4 23  2  0  0  0  0
  4 18  1  0  0  0  0
  5 15  1  0  0  0  0
  5 11  2  0  0  0  0
  6 19  1  0  0  0  0
  7 19  1  0  0  0  0
  8 12  1  0  0  0  0
  9 27  1  0  0  0  0
  9 25  1  0  0  0  0
 10 17  1  0  0  0  0
 11 20  1  0  0  0  0
 12 15  1  0  0  0  0
 13  9  1  0  0  0  0
 15  4  1  0  0  0  0
 16  8  2  0  0  0  0
 17 28  1  0  0  0  0
 18  1  1  0  0  0  0
 19  5  1  0  0  0  0
 20 13  1  0  0  0  0
 20 18  1  0  0  0  0
 21 26  2  0  0  0  0
 22 10  1  0  0  0  0
 23 21  1  0  0  0  0
 24 22  1  0  0  0  0
 24 13  1  0  0  0  0
 25 17  1  0  0  0  0
 25 14  1  0  0  0  0
 27  2  1  0  0  0  0
 29 28  1  0  0  0  0
 30 34  1  0  0  0  0
 30 33  1  0  0  0  0
 32 29  1  0  0  0  0
 32 31  1  0  0  0  0
 33 31  1  0  0  0  0
 34 32  1  0  0  0  0
M  END
>  <MODEL>
3

>  <REMARK>
 VINA RESULT:      -7.8      3.321      8.829
  Name = 
  3 active torsions:
  status: ('A' for Active; 'I' for Inactive)
    1  A    between atoms: C_17  and  O_28
    2  A    between atoms: O_28  and  C_29
    3  A    between atoms: C_29  and  C_32
                            x       y       z     vdW  Elec       q    Type
                         _______ _______ _______ _____ _____    ______ ____

>  <TORSDO>
F 3

$$$$
