=
 OpenBabel11122412583D

 32 37  0  0  1  0  0  0  0  0999 V2000
  161.3560  204.8930  148.2490 C   0  0  0  0  0  3  0  0  0  0  0  0
  161.7000  209.1020  151.7820 C   0  0  0  0  0  0  0  0  0  0  0  0
  160.7140  213.0400  148.9110 C   0  0  0  0  0  3  0  0  0  0  0  0
  160.0630  213.6740  149.9700 C   0  0  0  0  0  3  0  0  0  0  0  0
  161.1850  209.3320  154.2450 C   0  0  0  0  0  0  0  0  0  0  0  0
  160.6460  210.0810  155.2840 C   0  0  0  0  0  0  0  0  0  0  0  0
  161.3160  207.1420  150.3410 N   0  0  2  0  0  0  0  0  0  0  0  0
  162.4770  209.1590  149.4570 C   0  0  0  0  0  2  0  0  0  0  0  0
  159.6310  211.8340  156.3640 C   0  0  1  0  0  3  0  0  0  0  0  0
  162.3300  207.1610  148.0640 C   0  0  0  0  0  2  0  0  0  0  0  0
  161.3240  211.8000  149.1100 C   0  0  0  0  0  3  0  0  0  0  0  0
  161.9220  209.9020  150.5790 N   0  0  0  0  0  0  0  0  0  0  0  0
  161.2880  211.1800  150.3700 C   0  0  1  0  0  3  0  0  0  0  0  0
  160.6170  211.1970  152.7680 C   0  0  0  0  0  0  0  0  0  0  0  0
  159.9700  210.7190  157.2610 N   0  0  0  0  0  0  0  0  0  0  0  0
  160.8060  204.9240  149.4660 C   0  0  0  0  0  3  0  0  0  0  0  0
  161.5780  207.9600  149.1310 C   0  0  1  0  0  3  0  0  0  0  0  0
  160.5340  209.7490  156.6520 N   0  0  0  0  0  0  0  0  0  0  0  0
  160.2500  206.1890  150.0430 C   0  0  0  0  0  2  0  0  0  0  0  0
  161.4500  206.1160  147.3880 C   0  0  1  0  0  3  0  0  0  0  0  0
  160.0260  213.0700  151.2280 C   0  0  0  0  0  3  0  0  0  0  0  0
  160.6340  211.8230  151.4360 C   0  0  0  0  0  0  0  0  0  0  0  0
  160.0980  211.8800  153.8360 N   0  0  0  0  0  0  0  0  0  0  0  0
  160.7530  207.9690  151.4130 C   0  0  0  0  0  2  0  0  0  0  0  0
  161.7180  208.0710  154.4840 O   0  0  0  0  0  1  0  0  0  0  0  0
  160.3980  213.0100  156.7380 N   0  0  0  0  0  1  0  0  0  0  0  0
  161.1690  209.8970  152.9500 C   0  0  0  0  0  0  0  0  0  0  0  0
  160.1210  211.3100  155.0660 C   0  0  0  0  0  0  0  0  0  0  0  0
  162.0230  205.7490  146.1010 N   0  0  0  0  0  2  0  0  0  0  0  0
  161.2830  205.8200  144.8810 C   0  0  0  0  0  0  0  0  0  0  0  0
  160.0780  206.1880  144.8800 O   0  0  0  0  0  0  0  0  0  0  0  0
  161.9400  205.4500  143.6010 C   0  0  0  0  0  1  0  0  0  0  0  0
  1 16  2  0  0  0  0
  2 27  2  0  0  0  0
  3 11  2  0  0  0  0
  3  4  1  0  0  0  0
  4 21  2  0  0  0  0
  5 25  1  0  0  0  0
  5  6  2  0  0  0  0
  6 18  1  0  0  0  0
  7 19  1  6  0  0  0
  7 24  1  0  0  0  0
  8 12  1  0  0  0  0
  9 26  1  1  0  0  0
  9 15  1  0  0  0  0
 12  2  1  0  0  0  0
 13 11  1  1  0  0  0
 13 12  1  0  0  0  0
 13 22  1  0  0  0  0
 14 27  1  0  0  0  0
 14 23  1  0  0  0  0
 16 19  1  0  0  0  0
 17 10  1  6  0  0  0
 17  8  1  0  0  0  0
 17  7  1  0  0  0  0
 18 15  2  0  0  0  0
 20 29  1  6  0  0  0
 20 10  1  0  0  0  0
 20  1  1  0  0  0  0
 21 22  1  0  0  0  0
 22 14  2  0  0  0  0
 23 28  2  0  0  0  0
 24  2  1  0  0  0  0
 27  5  1  0  0  0  0
 28  6  1  0  0  0  0
 28  9  1  0  0  0  0
 30 29  1  0  0  0  0
 31 30  2  0  0  0  0
 32 30  1  0  0  0  0
M  END
>  <MODEL>
1

>  <REMARK>
 VINA RESULT:      -7.4      0.000      0.000
  Name = 
  1 active torsions:
  status: ('A' for Active; 'I' for Inactive)
    1  A    between atoms: C_20  and  N_29
                            x       y       z     vdW  Elec       q    Type
                         _______ _______ _______ _____ _____    ______ ____

>  <TORSDO>
F 1

$$$$
