=
 OpenBabel11122412503D

 32 37  0  0  1  0  0  0  0  0999 V2000
  159.4820  208.9480  156.5440 C   0  0  0  0  0  2  0  0  0  0  0  0
  161.5330  206.3290  152.1790 C   0  0  1  0  0  3  0  0  0  0  0  0
  162.1980  209.6340  148.5630 C   0  0  0  0  0  3  0  0  0  0  0  0
  162.2370  208.6060  147.6210 C   0  0  0  0  0  3  0  0  0  0  0  0
  161.1000  203.8850  151.4870 C   0  0  0  0  0  0  0  0  0  0  0  0
  160.8970  202.9540  150.4720 C   0  0  0  0  0  0  0  0  0  0  0  0
  161.2810  207.0840  154.5610 C   0  0  1  0  0  3  0  0  0  0  0  0
  161.6410  208.7730  152.7190 C   0  0  0  0  0  2  0  0  0  0  0  0
  160.7200  202.1630  148.3570 N   0  0  0  0  0  0  0  0  0  0  0  0
  161.4570  209.6110  155.0560 C   0  0  0  0  0  2  0  0  0  0  0  0
  161.8730  209.3500  149.8910 C   0  0  0  0  0  3  0  0  0  0  0  0
  161.1430  207.7410  151.7020 C   0  0  1  0  0  3  0  0  0  0  0  0
  161.6070  208.0330  150.2970 C   0  0  0  0  0  0  0  0  0  0  0  0
  161.3190  205.6050  149.7490 C   0  0  0  0  0  0  0  0  0  0  0  0
  160.6420  201.0060  149.2510 C   0  0  0  0  0  3  0  0  0  0  0  0
  159.3120  207.4670  156.1590 C   0  0  0  0  0  2  0  0  0  0  0  0
  160.9970  208.5240  154.0790 C   0  0  2  0  0  3  0  0  0  0  0  0
  160.7390  201.5500  150.6130 N   0  0  0  0  0  0  0  0  0  0  0  0
  160.6330  206.7310  155.9080 C   0  0  0  0  0  2  0  0  0  0  0  0
  160.9320  209.4510  156.4860 C   0  0  1  0  0  3  0  0  0  0  0  0
  161.9480  207.2970  148.0070 C   0  0  0  0  0  3  0  0  0  0  0  0
  161.6230  206.9970  149.3410 C   0  0  0  0  0  0  0  0  0  0  0  0
  161.1290  204.6180  148.7590 C   0  0  0  0  0  3  0  0  0  0  0  0
  160.8200  206.0780  153.5100 C   0  0  0  0  0  2  0  0  0  0  0  0
  161.1660  203.4480  152.8060 O   0  0  0  0  0  1  0  0  0  0  0  0
  160.9530  202.0900  146.9260 C   0  0  0  0  0  1  0  0  0  0  0  0
  161.2560  205.2550  151.1330 C   0  0  0  0  0  0  0  0  0  0  0  0
  160.8970  203.3100  149.1650 C   0  0  0  0  0  0  0  0  0  0  0  0
  161.0660  210.7770  157.2170 C   0  0  0  0  0  2  0  0  0  0  0  0
  160.0900  211.7720  156.6900 C   0  0  0  0  0  0  0  0  0  0  0  0
  160.4050  212.5100  155.7200 O   0  0  0  0  0  0  0  0  0  0  0  0
  158.8230  211.8670  157.2500 O   0  0  0  0  0  1  0  0  0  0  0  0
  2 24  1  1  0  0  0
  3 11  1  0  0  0  0
  4 21  1  0  0  0  0
  4  3  2  0  0  0  0
  5 25  1  0  0  0  0
  6 18  1  0  0  0  0
  6  5  2  0  0  0  0
  7 24  1  6  0  0  0
  7 19  1  0  0  0  0
  9 28  1  0  0  0  0
  9 15  1  0  0  0  0
 10 20  1  0  0  0  0
 11 13  2  0  0  0  0
 12  2  1  0  0  0  0
 12  8  1  1  0  0  0
 13 12  1  0  0  0  0
 14 27  2  0  0  0  0
 15 18  2  0  0  0  0
 16  1  1  0  0  0  0
 17  8  1  6  0  0  0
 17  7  1  0  0  0  0
 17 10  1  0  0  0  0
 19 16  1  0  0  0  0
 20  1  1  0  0  0  0
 20 29  1  6  0  0  0
 21 22  2  0  0  0  0
 22 14  1  0  0  0  0
 22 13  1  0  0  0  0
 23 28  2  0  0  0  0
 23 14  1  0  0  0  0
 26  9  1  0  0  0  0
 27  5  1  0  0  0  0
 27  2  1  0  0  0  0
 28  6  1  0  0  0  0
 30 29  1  0  0  0  0
 30 32  1  0  0  0  0
 31 30  2  0  0  0  0
M  END
>  <MODEL>
1

>  <REMARK>
 VINA RESULT:      -9.3      0.000      0.000
  Name = 
  2 active torsions:
  status: ('A' for Active; 'I' for Inactive)
    1  A    between atoms: C_20  and  C_29
    2  A    between atoms: C_29  and  C_30
                            x       y       z     vdW  Elec       q    Type
                         _______ _______ _______ _____ _____    ______ ____

>  <TORSDO>
F 2

$$$$
=
 OpenBabel11122412503D

 32 37  0  0  1  0  0  0  0  0999 V2000
  162.0300  201.4800  149.0750 C   0  0  0  0  0  2  0  0  0  0  0  0
  160.8260  206.2710  151.4670 C   0  0  1  0  0  3  0  0  0  0  0  0
  162.1340  209.9090  148.3860 C   0  0  0  0  0  3  0  0  0  0  0  0
  162.1310  210.8170  149.4460 C   0  0  0  0  0  3  0  0  0  0  0  0
  160.8310  206.7930  153.9900 C   0  0  0  0  0  0  0  0  0  0  0  0
  161.0960  207.6940  155.0170 C   0  0  0  0  0  0  0  0  0  0  0  0
  160.5190  203.9290  150.6110 C   0  0  1  0  0  3  0  0  0  0  0  0
  161.1670  205.7900  149.0310 C   0  0  0  0  0  2  0  0  0  0  0  0
  161.7080  209.6460  155.9880 N   0  0  0  0  0  0  0  0  0  0  0  0
  160.8310  203.5130  148.0830 C   0  0  0  0  0  2  0  0  0  0  0  0
  161.9580  208.5470  148.6360 C   0  0  0  0  0  3  0  0  0  0  0  0
  161.6790  206.6000  150.2270 C   0  0  1  0  0  3  0  0  0  0  0  0
  161.7530  208.0790  149.9430 C   0  0  0  0  0  0  0  0  0  0  0  0
  161.5850  208.5110  152.4050 C   0  0  0  0  0  0  0  0  0  0  0  0
  161.2210  208.7750  157.0590 C   0  0  0  0  0  3  0  0  0  0  0  0
  161.9370  201.7930  150.5800 C   0  0  0  0  0  2  0  0  0  0  0  0
  161.2830  204.2960  149.3190 C   0  0  2  0  0  3  0  0  0  0  0  0
  160.8520  207.5110  156.4040 N   0  0  0  0  0  0  0  0  0  0  0  0
  160.6170  202.4470  151.0010 C   0  0  0  0  0  2  0  0  0  0  0  0
  160.8380  201.9910  148.2510 C   0  0  1  0  0  3  0  0  0  0  0  0
  161.9560  210.3610  150.7530 C   0  0  0  0  0  3  0  0  0  0  0  0
  161.7740  208.9920  151.0160 C   0  0  0  0  0  0  0  0  0  0  0  0
  161.8170  209.3920  153.4830 C   0  0  0  0  0  3  0  0  0  0  0  0
  161.0140  204.7830  151.7750 C   0  0  0  0  0  2  0  0  0  0  0  0
  160.2600  205.5630  154.2960 O   0  0  0  0  0  1  0  0  0  0  0  0
  161.9120  211.0780  156.1140 C   0  0  0  0  0  1  0  0  0  0  0  0
  161.1340  207.1770  152.6520 C   0  0  0  0  0  0  0  0  0  0  0  0
  161.5830  208.9340  154.7730 C   0  0  0  0  0  0  0  0  0  0  0  0
  160.8200  201.3380  146.8790 C   0  0  0  0  0  2  0  0  0  0  0  0
  160.8310  202.3690  145.8020 C   0  0  0  0  0  0  0  0  0  0  0  0
  161.7960  203.1710  145.7100 O   0  0  0  0  0  1  0  0  0  0  0  0
  159.7900  202.4270  144.8850 O   0  0  0  0  0  0  0  0  0  0  0  0
  1 16  1  0  0  0  0
  2 24  1  1  0  0  0
  2 27  1  0  0  0  0
  3 11  2  0  0  0  0
  3  4  1  0  0  0  0
  4 21  2  0  0  0  0
  5 25  1  0  0  0  0
  5  6  1  0  0  0  0
  6 18  1  0  0  0  0
  7 19  1  1  0  0  0
  7 24  1  0  0  0  0
  8 17  1  0  0  0  0
  9 26  1  0  0  0  0
  9 15  1  0  0  0  0
 10 20  1  0  0  0  0
 11 13  1  0  0  0  0
 12  8  1  6  0  0  0
 12  2  1  0  0  0  0
 13 12  1  0  0  0  0
 13 22  2  0  0  0  0
 14 27  1  0  0  0  0
 14 23  2  0  0  0  0
 16 19  1  0  0  0  0
 17 10  1  6  0  0  0
 17  7  1  0  0  0  0
 18 15  2  0  0  0  0
 20 29  1  6  0  0  0
 20  1  1  0  0  0  0
 21 22  1  0  0  0  0
 22 14  1  0  0  0  0
 23 28  1  0  0  0  0
 27  5  2  0  0  0  0
 28  6  2  0  0  0  0
 28  9  1  0  0  0  0
 30 29  1  0  0  0  0
 31 30  1  0  0  0  0
 32 30  2  0  0  0  0
M  END
>  <MODEL>
2

>  <REMARK>
 VINA RESULT:      -9.0      3.148      8.058
  Name = 
  2 active torsions:
  status: ('A' for Active; 'I' for Inactive)
    1  A    between atoms: C_20  and  C_29
    2  A    between atoms: C_29  and  C_30
                            x       y       z     vdW  Elec       q    Type
                         _______ _______ _______ _____ _____    ______ ____

>  <TORSDO>
F 2

$$$$
=
 OpenBabel11122412503D

 32 37  0  0  1  0  0  0  0  0999 V2000
  162.6260  210.3280  154.0830 C   0  0  0  0  0  2  0  0  0  0  0  0
  160.7520  206.6850  150.4320 C   0  0  1  0  0  3  0  0  0  0  0  0
  160.7340  202.2250  152.5660 C   0  0  0  0  0  3  0  0  0  0  0  0
  160.6870  201.6180  151.3110 C   0  0  0  0  0  3  0  0  0  0  0  0
  161.0180  206.7740  147.8700 C   0  0  0  0  0  0  0  0  0  0  0  0
  161.2260  206.0960  146.6720 C   0  0  0  0  0  0  0  0  0  0  0  0
  160.8520  208.7650  151.8350 C   0  0  1  0  0  3  0  0  0  0  0  0
  160.8230  206.4890  152.9290 C   0  0  0  0  0  2  0  0  0  0  0  0
  161.5220  204.3300  145.2860 N   0  0  0  0  0  0  0  0  0  0  0  0
  160.8680  208.4950  154.4020 C   0  0  0  0  0  2  0  0  0  0  0  0
  160.9070  203.6070  152.6640 C   0  0  0  0  0  3  0  0  0  0  0  0
  161.3140  205.8730  151.6140 C   0  0  1  0  0  3  0  0  0  0  0  0
  161.0110  204.4000  151.5100 C   0  0  0  0  0  0  0  0  0  0  0  0
  161.1210  204.6030  149.0150 C   0  0  0  0  0  0  0  0  0  0  0  0
  161.4100  205.5190  144.4400 C   0  0  0  0  0  3  0  0  0  0  0  0
  162.6930  210.4040  152.5460 C   0  0  0  0  0  2  0  0  0  0  0  0
  161.3130  207.9290  153.0500 C   0  0  2  0  0  3  0  0  0  0  0  0
  161.2390  206.6490  145.3640 N   0  0  0  0  0  0  0  0  0  0  0  0
  161.3380  210.2220  151.8540 C   0  0  0  0  0  2  0  0  0  0  0  0
  161.2410  209.9620  154.6360 C   0  0  1  0  0  3  0  0  0  0  0  0
  160.8160  202.3910  150.1570 C   0  0  0  0  0  3  0  0  0  0  0  0
  160.9870  203.7840  150.2430 C   0  0  0  0  0  0  0  0  0  0  0  0
  161.3080  203.9650  147.7710 C   0  0  0  0  0  3  0  0  0  0  0  0
  161.3120  208.1050  150.5380 C   0  0  0  0  0  2  0  0  0  0  0  0
  160.7900  208.1450  147.8450 O   0  0  0  0  0  1  0  0  0  0  0  0
  161.4170  202.9620  144.8110 C   0  0  0  0  0  1  0  0  0  0  0  0
  161.0230  206.0280  149.0840 C   0  0  0  0  0  0  0  0  0  0  0  0
  161.3790  204.7510  146.6280 C   0  0  0  0  0  0  0  0  0  0  0  0
  161.1640  210.2650  156.1240 C   0  0  0  0  0  2  0  0  0  0  0  0
  160.1560  211.3280  156.3960 C   0  0  0  0  0  0  0  0  0  0  0  0
  160.4190  212.5280  156.1230 O   0  0  0  0  0  0  0  0  0  0  0  0
  158.9170  210.9920  156.9250 O   0  0  0  0  0  1  0  0  0  0  0  0
  1 20  1  0  0  0  0
  2 24  1  6  0  0  0
  2 12  1  0  0  0  0
  3 11  1  0  0  0  0
  4  3  2  0  0  0  0
  5 27  1  0  0  0  0
  6  5  2  0  0  0  0
  7 24  1  6  0  0  0
  7 19  1  0  0  0  0
  7 17  1  0  0  0  0
  9 28  1  0  0  0  0
 10 20  1  0  0  0  0
 12  8  1  1  0  0  0
 13 12  1  0  0  0  0
 13 11  2  0  0  0  0
 14 27  2  0  0  0  0
 14 22  1  0  0  0  0
 15  9  1  0  0  0  0
 15 18  2  0  0  0  0
 16  1  1  0  0  0  0
 17  8  1  6  0  0  0
 17 10  1  0  0  0  0
 18  6  1  0  0  0  0
 19 16  1  0  0  0  0
 20 29  1  1  0  0  0
 21 22  2  0  0  0  0
 21  4  1  0  0  0  0
 22 13  1  0  0  0  0
 23 14  1  0  0  0  0
 25  5  1  0  0  0  0
 26  9  1  0  0  0  0
 27  2  1  0  0  0  0
 28  6  1  0  0  0  0
 28 23  2  0  0  0  0
 29 30  1  0  0  0  0
 30 32  1  0  0  0  0
 31 30  2  0  0  0  0
M  END
>  <MODEL>
3

>  <REMARK>
 VINA RESULT:      -7.0      2.179      4.296
  Name = 
  2 active torsions:
  status: ('A' for Active; 'I' for Inactive)
    1  A    between atoms: C_20  and  C_29
    2  A    between atoms: C_29  and  C_30
                            x       y       z     vdW  Elec       q    Type
                         _______ _______ _______ _____ _____    ______ ____

>  <TORSDO>
F 2

$$$$
=
 OpenBabel11122412503D

 32 37  0  0  1  0  0  0  0  0999 V2000
  159.3830  202.0660  144.6850 C   0  0  0  0  0  2  0  0  0  0  0  0
  161.6180  205.2830  148.5290 C   0  0  1  0  0  3  0  0  0  0  0  0
  160.6990  203.2750  152.9520 C   0  0  0  0  0  3  0  0  0  0  0  0
  160.9560  204.5000  153.5690 C   0  0  0  0  0  3  0  0  0  0  0  0
  161.9300  207.8390  148.4280 C   0  0  0  0  0  0  0  0  0  0  0  0
  161.9190  209.0650  149.0860 C   0  0  0  0  0  0  0  0  0  0  0  0
  161.4310  203.8990  146.4410 C   0  0  1  0  0  3  0  0  0  0  0  0
  160.9810  202.8650  148.7010 C   0  0  0  0  0  2  0  0  0  0  0  0
  161.7490  210.5130  150.8190 N   0  0  0  0  0  0  0  0  0  0  0  0
  160.8270  201.4030  146.6930 C   0  0  0  0  0  2  0  0  0  0  0  0
  160.6550  203.1930  151.5590 C   0  0  0  0  0  3  0  0  0  0  0  0
  160.7280  204.2660  149.2690 C   0  0  1  0  0  3  0  0  0  0  0  0
  160.8910  204.3270  150.7670 C   0  0  0  0  0  0  0  0  0  0  0  0
  161.3510  206.7820  150.5680 C   0  0  0  0  0  0  0  0  0  0  0  0
  162.1690  211.2930  149.6540 C   0  0  0  0  0  3  0  0  0  0  0  0
  159.6630  203.5780  144.6110 C   0  0  0  0  0  2  0  0  0  0  0  0
  160.6310  202.8290  147.2160 C   0  0  2  0  0  3  0  0  0  0  0  0
  162.2510  210.3340  148.5430 N   0  0  0  0  0  0  0  0  0  0  0  0
  161.1100  203.9610  144.9410 C   0  0  0  0  0  2  0  0  0  0  0  0
  160.5670  201.2300  145.1930 C   0  0  1  0  0  3  0  0  0  0  0  0
  161.1640  205.6400  152.7930 C   0  0  0  0  0  3  0  0  0  0  0  0
  161.1260  205.5690  151.3900 C   0  0  0  0  0  0  0  0  0  0  0  0
  161.3740  208.0480  151.1900 C   0  0  0  0  0  3  0  0  0  0  0  0
  161.2000  205.2770  147.0560 C   0  0  0  0  0  2  0  0  0  0  0  0
  162.3010  207.7900  147.0890 O   0  0  0  0  0  1  0  0  0  0  0  0
  161.8110  210.9770  152.1940 C   0  0  0  0  0  1  0  0  0  0  0  0
  161.5800  206.6690  149.1610 C   0  0  0  0  0  0  0  0  0  0  0  0
  161.6390  209.1650  150.4080 C   0  0  0  0  0  0  0  0  0  0  0  0
  160.3480  199.7560  144.8920 C   0  0  0  0  0  2  0  0  0  0  0  0
  161.3700  198.9180  145.5810 C   0  0  0  0  0  0  0  0  0  0  0  0
  161.9170  197.9650  144.9680 O   0  0  0  0  0  0  0  0  0  0  0  0
  161.7380  199.2050  146.8880 O   0  0  0  0  0  1  0  0  0  0  0  0
  1 20  1  0  0  0  0
  2 24  1  6  0  0  0
  2 27  1  0  0  0  0
  2 12  1  0  0  0  0
  3  4  1  0  0  0  0
  5  6  2  0  0  0  0
  5 27  1  0  0  0  0
  6 28  1  0  0  0  0
  7 19  1  6  0  0  0
  7 24  1  0  0  0  0
  7 17  1  0  0  0  0
  9 26  1  0  0  0  0
 11  3  2  0  0  0  0
 12  8  1  6  0  0  0
 12 13  1  0  0  0  0
 13 22  2  0  0  0  0
 13 11  1  0  0  0  0
 14 23  1  0  0  0  0
 14 22  1  0  0  0  0
 15  9  1  0  0  0  0
 16  1  1  0  0  0  0
 16 19  1  0  0  0  0
 17 10  1  6  0  0  0
 17  8  1  0  0  0  0
 18  6  1  0  0  0  0
 18 15  2  0  0  0  0
 20 29  1  1  0  0  0
 20 10  1  0  0  0  0
 21  4  2  0  0  0  0
 22 21  1  0  0  0  0
 25  5  1  0  0  0  0
 27 14  2  0  0  0  0
 28  9  1  0  0  0  0
 28 23  2  0  0  0  0
 29 30  1  0  0  0  0
 30 32  1  0  0  0  0
 31 30  2  0  0  0  0
M  END
>  <MODEL>
4

>  <REMARK>
 VINA RESULT:      -6.6      4.350      9.702
  Name = 
  2 active torsions:
  status: ('A' for Active; 'I' for Inactive)
    1  A    between atoms: C_20  and  C_29
    2  A    between atoms: C_29  and  C_30
                            x       y       z     vdW  Elec       q    Type
                         _______ _______ _______ _____ _____    ______ ____

>  <TORSDO>
F 2

$$$$
=
 OpenBabel11122412503D

 32 37  0  0  1  0  0  0  0  0999 V2000
  160.5700  203.5770  149.4310 C   0  0  0  0  0  2  0  0  0  0  0  0
  161.2090  208.2420  152.2490 C   0  0  1  0  0  3  0  0  0  0  0  0
  160.3320  207.2990  157.0220 C   0  0  0  0  0  3  0  0  0  0  0  0
  160.1290  208.6590  157.2600 C   0  0  0  0  0  3  0  0  0  0  0  0
  160.7620  210.6380  151.4110 C   0  0  0  0  0  0  0  0  0  0  0  0
  160.3000  211.9240  151.6770 C   0  0  0  0  0  0  0  0  0  0  0  0
  161.7260  206.3690  150.6570 C   0  0  1  0  0  3  0  0  0  0  0  0
  161.2980  205.8870  153.0990 C   0  0  0  0  0  2  0  0  0  0  0  0
  159.4750  213.6450  152.8950 N   0  0  0  0  0  0  0  0  0  0  0  0
  161.8580  203.9740  151.6080 C   0  0  0  0  0  2  0  0  0  0  0  0
  160.5040  206.8400  155.7150 C   0  0  0  0  0  3  0  0  0  0  0  0
  160.5680  207.2290  153.2160 C   0  0  1  0  0  3  0  0  0  0  0  0
  160.4990  207.7360  154.6340 C   0  0  0  0  0  0  0  0  0  0  0  0
  160.2360  210.0610  153.7400 C   0  0  0  0  0  0  0  0  0  0  0  0
  159.8000  214.1800  151.5710 C   0  0  0  0  0  3  0  0  0  0  0  0
  160.3980  205.0210  148.9270 C   0  0  0  0  0  2  0  0  0  0  0  0
  161.1800  205.3460  151.6780 C   0  0  2  0  0  3  0  0  0  0  0  0
  160.3120  213.0390  150.7980 N   0  0  0  0  0  0  0  0  0  0  0  0
  161.6080  205.9230  149.1930 C   0  0  0  0  0  2  0  0  0  0  0  0
  161.8680  203.3340  150.2160 C   0  0  1  0  0  3  0  0  0  0  0  0
  160.0940  209.5550  156.1920 C   0  0  0  0  0  3  0  0  0  0  0  0
  160.2700  209.1060  154.8720 C   0  0  0  0  0  0  0  0  0  0  0  0
  159.7990  211.3840  153.9600 C   0  0  0  0  0  3  0  0  0  0  0  0
  161.0160  207.7100  150.8270 C   0  0  0  0  0  2  0  0  0  0  0  0
  161.3100  210.3570  150.1640 O   0  0  0  0  0  1  0  0  0  0  0  0
  159.2100  214.4530  154.0720 C   0  0  0  0  0  1  0  0  0  0  0  0
  160.6780  209.6580  152.4410 C   0  0  0  0  0  0  0  0  0  0  0  0
  159.8250  212.2760  152.8950 C   0  0  0  0  0  0  0  0  0  0  0  0
  162.1370  201.8450  150.3540 C   0  0  0  0  0  2  0  0  0  0  0  0
  161.1870  201.0560  149.5180 C   0  0  0  0  0  0  0  0  0  0  0  0
  161.5420  200.6420  148.3840 O   0  0  0  0  0  0  0  0  0  0  0  0
  159.9210  200.7550  150.0010 O   0  0  0  0  0  1  0  0  0  0  0  0
  1 20  1  0  0  0  0
  2 24  1  6  0  0  0
  2 27  1  0  0  0  0
  2 12  1  0  0  0  0
  3  4  1  0  0  0  0
  5  6  2  0  0  0  0
  5 27  1  0  0  0  0
  6 28  1  0  0  0  0
  7 19  1  6  0  0  0
  7 24  1  0  0  0  0
  7 17  1  0  0  0  0
  9 28  1  0  0  0  0
  9 26  1  0  0  0  0
 11  3  2  0  0  0  0
 12  8  1  1  0  0  0
 12 13  1  0  0  0  0
 13 22  2  0  0  0  0
 13 11  1  0  0  0  0
 14 23  1  0  0  0  0
 14 22  1  0  0  0  0
 15  9  1  0  0  0  0
 16 19  1  0  0  0  0
 16  1  1  0  0  0  0
 17 10  1  1  0  0  0
 17  8  1  0  0  0  0
 18 15  2  0  0  0  0
 18  6  1  0  0  0  0
 20 29  1  1  0  0  0
 20 10  1  0  0  0  0
 21  4  2  0  0  0  0
 22 21  1  0  0  0  0
 25  5  1  0  0  0  0
 27 14  2  0  0  0  0
 28 23  2  0  0  0  0
 30 32  1  0  0  0  0
 30 29  1  0  0  0  0
 31 30  2  0  0  0  0
M  END
>  <MODEL>
5

>  <REMARK>
 VINA RESULT:      -6.4      3.811      8.786
  Name = 
  2 active torsions:
  status: ('A' for Active; 'I' for Inactive)
    1  A    between atoms: C_20  and  C_29
    2  A    between atoms: C_29  and  C_30
                            x       y       z     vdW  Elec       q    Type
                         _______ _______ _______ _____ _____    ______ ____

>  <TORSDO>
F 2

$$$$
