=
 OpenBabel11122413063D

 31 35  0  0  1  0  0  0  0  0999 V2000
  160.5950  207.5870  156.3120 C   0  0  0  0  0  0  0  0  0  0  0  0
  161.4970  208.6700  152.8260 N   0  0  0  0  0  0  0  0  0  0  0  0
  161.4270  207.5300  151.9350 C   0  0  0  0  0  0  0  0  0  0  0  0
  161.0460  205.1610  151.5220 C   0  0  0  0  0  0  0  0  0  0  0  0
  160.9170  208.6310  154.1450 C   0  0  0  0  0  0  0  0  0  0  0  0
  159.7640  208.6420  156.7000 C   0  0  0  0  0  3  0  0  0  0  0  0
  161.1820  206.2300  152.4110 C   0  0  0  0  0  3  0  0  0  0  0  0
  160.3700  210.7830  152.3310 C   0  0  2  0  0  3  0  0  0  0  0  0
  160.8430  206.5690  157.1700 F   0  0  0  0  0  0  0  0  0  0  0  0
  161.7770  209.0130  150.0580 O   0  0  0  0  0  0  0  0  0  0  0  0
  160.7900  203.7930  152.0430 C   0  0  0  0  0  1  0  0  0  0  0  0
  159.8570  210.7680  153.6700 O   0  0  0  0  0  0  0  0  0  0  0  0
  161.6990  210.0240  152.2810 C   0  0  2  0  0  3  0  0  0  0  0  0
  161.1740  207.5820  155.0400 C   0  0  0  0  0  3  0  0  0  0  0  0
  161.1380  205.3810  150.1460 C   0  0  0  0  0  3  0  0  0  0  0  0
  160.0870  209.6960  154.5450 C   0  0  0  0  0  0  0  0  0  0  0  0
  159.5110  209.6970  155.8180 C   0  0  0  0  0  3  0  0  0  0  0  0
  162.3460  210.0160  150.8920 C   0  0  0  0  0  2  0  0  0  0  0  0
  161.5330  207.7340  150.5490 C   0  0  0  0  0  0  0  0  0  0  0  0
  161.3780  206.6670  149.6590 C   0  0  0  0  0  3  0  0  0  0  0  0
  160.5440  212.1630  151.8980 N   0  0  0  0  0  2  0  0  0  0  0  0
  158.1820  212.7240  151.8970 C   0  0  0  0  0  1  0  0  0  0  0  0
  159.4170  212.4910  151.0360 C   0  0  1  0  0  3  0  0  0  0  0  0
  158.2380  213.3860  147.6940 C   0  0  1  0  0  3  0  0  0  0  0  0
  158.3920  214.4530  149.8250 C   0  0  0  0  0  2  0  0  0  0  0  0
  161.6670  212.8400  149.0430 O   0  0  0  0  0  1  0  0  0  0  0  0
  157.3450  212.5790  146.7770 C   0  0  0  0  0  1  0  0  0  0  0  0
  157.5580  213.6020  148.9720 N   0  0  0  0  0  2  0  0  0  0  0  0
  160.4290  213.4520  148.8520 C   0  0  2  0  0  3  0  0  0  0  0  0
  159.7060  213.7410  150.1790 C   0  0  2  0  0  3  0  0  0  0  0  0
  159.5520  212.6380  147.9080 C   0  0  0  0  0  2  0  0  0  0  0  0
  1  6  1  0  0  0  0
  1  9  1  0  0  0  0
  2  5  1  0  0  0  0
  3  7  1  0  0  0  0
  3  2  1  0  0  0  0
  4 11  1  0  0  0  0
  4  7  2  0  0  0  0
  5 16  2  0  0  0  0
  5 14  1  0  0  0  0
  8 21  1  1  0  0  0
  8 12  1  0  0  0  0
 10 19  1  0  0  0  0
 10 18  1  0  0  0  0
 12 16  1  0  0  0  0
 13 18  1  6  0  0  0
 13  8  1  0  0  0  0
 13  2  1  0  0  0  0
 14  1  2  0  0  0  0
 15  4  1  0  0  0  0
 16 17  1  0  0  0  0
 17  6  2  0  0  0  0
 19  3  2  0  0  0  0
 20 15  2  0  0  0  0
 20 19  1  0  0  0  0
 23 22  1  1  0  0  0
 23 21  1  0  0  0  0
 24 27  1  6  0  0  0
 24 31  1  0  0  0  0
 24 28  1  0  0  0  0
 25 30  1  0  0  0  0
 28 25  1  0  0  0  0
 29 26  1  1  0  0  0
 29 30  1  0  0  0  0
 30 23  1  6  0  0  0
 31 29  1  0  0  0  0
M  END
>  <MODEL>
1

>  <REMARK>
 VINA RESULT:      -7.9      0.000      0.000
  Name = 
  3 active torsions:
  status: ('A' for Active; 'I' for Inactive)
    1  A    between atoms: C_5  and  N_16
    2  A    between atoms: C_5  and  C_30
    3  A    between atoms: C_10  and  N_16
                            x       y       z     vdW  Elec       q    Type
                         _______ _______ _______ _____ _____    ______ ____

>  <TORSDO>
F 3

$$$$
=
 OpenBabel11122413063D

 31 35  0  0  1  0  0  0  0  0999 V2000
  160.9130  206.9250  147.1360 C   0  0  0  0  0  0  0  0  0  0  0  0
  160.7720  204.8850  150.2910 N   0  0  0  0  0  0  0  0  0  0  0  0
  160.8700  203.4780  149.9590 C   0  0  0  0  0  0  0  0  0  0  0  0
  161.0480  201.6740  148.3340 C   0  0  0  0  0  0  0  0  0  0  0  0
  161.1010  205.9100  149.3320 C   0  0  0  0  0  0  0  0  0  0  0  0
  161.7770  207.9500  147.5340 C   0  0  0  0  0  3  0  0  0  0  0  0
  160.8780  203.0290  148.6270 C   0  0  0  0  0  3  0  0  0  0  0  0
  162.2000  205.9280  151.9790 C   0  0  2  0  0  3  0  0  0  0  0  0
  160.4040  206.9170  145.8800 F   0  0  0  0  0  0  0  0  0  0  0  0
  161.0280  202.9630  152.3160 O   0  0  0  0  0  0  0  0  0  0  0  0
  161.0510  201.2160  146.9200 C   0  0  0  0  0  1  0  0  0  0  0  0
  162.4620  206.9790  151.0400 O   0  0  0  0  0  0  0  0  0  0  0  0
  160.8240  205.3190  151.6990 C   0  0  2  0  0  3  0  0  0  0  0  0
  160.5720  205.9090  148.0330 C   0  0  0  0  0  3  0  0  0  0  0  0
  161.2270  200.7530  149.3680 C   0  0  0  0  0  3  0  0  0  0  0  0
  161.9620  206.9500  149.7300 C   0  0  0  0  0  0  0  0  0  0  0  0
  162.2990  207.9650  148.8300 C   0  0  0  0  0  3  0  0  0  0  0  0
  160.4360  204.2060  152.6780 C   0  0  0  0  0  2  0  0  0  0  0  0
  161.0350  202.5390  150.9900 C   0  0  0  0  0  0  0  0  0  0  0  0
  161.2240  201.1850  150.6960 C   0  0  0  0  0  3  0  0  0  0  0  0
  162.2630  206.4660  153.3320 N   0  0  0  0  0  2  0  0  0  0  0  0
  160.1900  207.1520  154.3930 C   0  0  0  0  0  1  0  0  0  0  0  0
  161.2890  207.5450  153.4140 C   0  0  1  0  0  3  0  0  0  0  0  0
  159.8120  210.8350  154.0040 C   0  0  1  0  0  3  0  0  0  0  0  0
  161.2960  209.3650  155.1610 C   0  0  0  0  0  2  0  0  0  0  0  0
  162.4390  209.6950  151.6220 O   0  0  0  0  0  1  0  0  0  0  0  0
  158.3660  211.2490  153.8320 C   0  0  0  0  0  1  0  0  0  0  0  0
  159.8890  209.7080  154.9350 N   0  0  0  0  0  2  0  0  0  0  0  0
  161.8400  210.0130  152.8410 C   0  0  2  0  0  3  0  0  0  0  0  0
  161.9470  208.8670  153.8630 C   0  0  2  0  0  3  0  0  0  0  0  0
  160.3930  210.4490  152.6460 C   0  0  0  0  0  2  0  0  0  0  0  0
  1  6  2  0  0  0  0
  1 14  1  0  0  0  0
  2 13  1  0  0  0  0
  3  2  1  0  0  0  0
  3 19  1  0  0  0  0
  4  7  1  0  0  0  0
  4 15  2  0  0  0  0
  5 16  1  0  0  0  0
  5  2  1  0  0  0  0
  6 17  1  0  0  0  0
  7  3  2  0  0  0  0
  8 21  1  1  0  0  0
  9  1  1  0  0  0  0
 10 18  1  0  0  0  0
 11  4  1  0  0  0  0
 12  8  1  0  0  0  0
 13  8  1  0  0  0  0
 13 18  1  1  0  0  0
 14  5  2  0  0  0  0
 15 20  1  0  0  0  0
 16 12  1  0  0  0  0
 17 16  2  0  0  0  0
 19 10  1  0  0  0  0
 20 19  2  0  0  0  0
 21 23  1  0  0  0  0
 23 22  1  1  0  0  0
 24 27  1  6  0  0  0
 24 28  1  0  0  0  0
 28 25  1  0  0  0  0
 29 26  1  6  0  0  0
 29 30  1  0  0  0  0
 30 23  1  6  0  0  0
 30 25  1  0  0  0  0
 31 29  1  0  0  0  0
 31 24  1  0  0  0  0
M  END
>  <MODEL>
2

>  <REMARK>
 VINA RESULT:      -7.7      3.828      6.454
  Name = 
  3 active torsions:
  status: ('A' for Active; 'I' for Inactive)
    1  A    between atoms: C_5  and  N_16
    2  A    between atoms: C_5  and  C_30
    3  A    between atoms: C_10  and  N_16
                            x       y       z     vdW  Elec       q    Type
                         _______ _______ _______ _____ _____    ______ ____

>  <TORSDO>
F 3

$$$$
=
 OpenBabel11122413063D

 31 35  0  0  1  0  0  0  0  0999 V2000
  161.2090  206.5820  154.2570 C   0  0  0  0  0  0  0  0  0  0  0  0
  161.7780  208.4920  151.0690 N   0  0  0  0  0  0  0  0  0  0  0  0
  161.5920  207.6060  149.9370 C   0  0  0  0  0  0  0  0  0  0  0  0
  161.1180  205.4110  148.9990 C   0  0  0  0  0  0  0  0  0  0  0  0
  161.3330  208.1280  152.3910 C   0  0  0  0  0  0  0  0  0  0  0  0
  160.4450  207.5060  154.9750 C   0  0  0  0  0  3  0  0  0  0  0  0
  161.3670  206.2290  150.1030 C   0  0  0  0  0  3  0  0  0  0  0  0
  160.6530  210.6580  151.2260 C   0  0  2  0  0  3  0  0  0  0  0  0
  161.5200  205.3840  154.8090 F   0  0  0  0  0  0  0  0  0  0  0  0
  161.7840  209.5070  148.4550 O   0  0  0  0  0  0  0  0  0  0  0  0
  160.8860  203.9560  149.1920 C   0  0  0  0  0  1  0  0  0  0  0  0
  160.2790  210.3130  152.5660 O   0  0  0  0  0  0  0  0  0  0  0  0
  161.9540  209.9400  150.8540 C   0  0  2  0  0  3  0  0  0  0  0  0
  161.6560  206.8920  152.9690 C   0  0  0  0  0  3  0  0  0  0  0  0
  161.0750  205.9620  147.7170 C   0  0  0  0  0  3  0  0  0  0  0  0
  160.5720  209.0590  153.1230 C   0  0  0  0  0  0  0  0  0  0  0  0
  160.1280  208.7450  154.4110 C   0  0  0  0  0  3  0  0  0  0  0  0
  162.4560  210.2750  149.4460 C   0  0  0  0  0  2  0  0  0  0  0  0
  161.5620  208.1450  148.6410 C   0  0  0  0  0  0  0  0  0  0  0  0
  161.2930  207.3290  147.5380 C   0  0  0  0  0  3  0  0  0  0  0  0
  160.8130  212.1030  151.1290 N   0  0  0  0  0  2  0  0  0  0  0  0
  158.8690  212.9640  152.2990 C   0  0  0  0  0  1  0  0  0  0  0  0
  159.4870  212.6730  150.9370 C   0  0  1  0  0  3  0  0  0  0  0  0
  158.1480  213.3870  147.6130 C   0  0  1  0  0  3  0  0  0  0  0  0
  158.1220  214.4370  149.7570 C   0  0  0  0  0  2  0  0  0  0  0  0
  161.6280  213.4430  148.9420 O   0  0  0  0  0  1  0  0  0  0  0  0
  157.4070  212.4460  146.6880 C   0  0  0  0  0  1  0  0  0  0  0  0
  157.4470  213.4620  148.8960 N   0  0  0  0  0  2  0  0  0  0  0  0
  160.2990  213.8280  148.7630 C   0  0  2  0  0  3  0  0  0  0  0  0
  159.5440  213.9660  150.0970 C   0  0  2  0  0  3  0  0  0  0  0  0
  159.5750  212.8820  147.8110 C   0  0  0  0  0  2  0  0  0  0  0  0
  1  9  1  0  0  0  0
  1  6  1  0  0  0  0
  2  5  1  0  0  0  0
  3  7  1  0  0  0  0
  3  2  1  0  0  0  0
  4 11  1  0  0  0  0
  4  7  2  0  0  0  0
  5 14  1  0  0  0  0
  5 16  2  0  0  0  0
  8 21  1  1  0  0  0
  8 12  1  0  0  0  0
 10 19  1  0  0  0  0
 10 18  1  0  0  0  0
 12 16  1  0  0  0  0
 13 18  1  6  0  0  0
 13  2  1  0  0  0  0
 13  8  1  0  0  0  0
 14  1  2  0  0  0  0
 15  4  1  0  0  0  0
 16 17  1  0  0  0  0
 17  6  2  0  0  0  0
 19  3  2  0  0  0  0
 20 15  2  0  0  0  0
 20 19  1  0  0  0  0
 23 21  1  0  0  0  0
 23 22  1  1  0  0  0
 24 27  1  6  0  0  0
 24 31  1  0  0  0  0
 24 28  1  0  0  0  0
 25 30  1  0  0  0  0
 28 25  1  0  0  0  0
 29 26  1  1  0  0  0
 29 30  1  0  0  0  0
 30 23  1  6  0  0  0
 31 29  1  0  0  0  0
M  END
>  <MODEL>
3

>  <REMARK>
 VINA RESULT:      -6.4      1.237      1.672
  Name = 
  3 active torsions:
  status: ('A' for Active; 'I' for Inactive)
    1  A    between atoms: C_5  and  N_16
    2  A    between atoms: C_5  and  C_30
    3  A    between atoms: C_10  and  N_16
                            x       y       z     vdW  Elec       q    Type
                         _______ _______ _______ _____ _____    ______ ____

>  <TORSDO>
F 3

$$$$
=
 OpenBabel11122413063D

 31 35  0  0  1  0  0  0  0  0999 V2000
  161.3260  202.1680  150.9010 C   0  0  0  0  0  0  0  0  0  0  0  0
  161.8510  205.1800  148.7130 N   0  0  0  0  0  0  0  0  0  0  0  0
  161.5180  204.8430  147.3430 C   0  0  0  0  0  0  0  0  0  0  0  0
  160.8000  203.2500  145.6490 C   0  0  0  0  0  0  0  0  0  0  0  0
  161.4620  204.3320  149.8120 C   0  0  0  0  0  0  0  0  0  0  0  0
  160.6910  202.7570  151.9980 C   0  0  0  0  0  3  0  0  0  0  0  0
  161.1880  203.5320  146.9610 C   0  0  0  0  0  3  0  0  0  0  0  0
  160.9290  207.1490  149.8320 C   0  0  2  0  0  3  0  0  0  0  0  0
  161.5670  200.8340  150.8930 F   0  0  0  0  0  0  0  0  0  0  0  0
  161.7770  207.1710  146.7400 O   0  0  0  0  0  0  0  0  0  0  0  0
  160.4560  201.8570  145.2610 C   0  0  0  0  0  1  0  0  0  0  0  0
  160.6130  206.3070  150.9480 O   0  0  0  0  0  0  0  0  0  0  0  0
  162.1370  206.5770  149.0830 C   0  0  2  0  0  3  0  0  0  0  0  0
  161.7150  202.9520  149.8110 C   0  0  0  0  0  3  0  0  0  0  0  0
  160.7220  204.2780  144.7070 C   0  0  0  0  0  3  0  0  0  0  0  0
  160.8320  204.9210  150.9240 C   0  0  0  0  0  0  0  0  0  0  0  0
  160.4460  204.1330  152.0110 C   0  0  0  0  0  3  0  0  0  0  0  0
  162.5750  207.4310  147.8890 C   0  0  0  0  0  2  0  0  0  0  0  0
  161.4520  205.8660  146.3820 C   0  0  0  0  0  0  0  0  0  0  0  0
  161.0450  205.5860  145.0740 C   0  0  0  0  0  3  0  0  0  0  0  0
  161.2060  208.4970  150.3100 N   0  0  0  0  0  2  0  0  0  0  0  0
  162.7060  209.3670  152.0070 C   0  0  0  0  0  1  0  0  0  0  0  0
  161.5740  208.3910  151.7150 C   0  0  1  0  0  3  0  0  0  0  0  0
  161.4370  210.1140  154.9350 C   0  0  1  0  0  3  0  0  0  0  0  0
  160.2420  210.1970  152.8690 C   0  0  0  0  0  2  0  0  0  0  0  0
  160.5370  206.6360  153.9500 O   0  0  0  0  0  1  0  0  0  0  0  0
  162.5860  210.7030  155.7230 C   0  0  0  0  0  1  0  0  0  0  0  0
  161.4060  210.7100  153.5970 N   0  0  0  0  0  2  0  0  0  0  0  0
  160.4580  208.0260  154.0260 C   0  0  2  0  0  3  0  0  0  0  0  0
  160.3730  208.6840  152.6380 C   0  0  2  0  0  3  0  0  0  0  0  0
  161.6100  208.6000  154.8420 C   0  0  0  0  0  2  0  0  0  0  0  0
  1  6  1  0  0  0  0
  2 13  1  0  0  0  0
  2  5  1  0  0  0  0
  3  2  1  0  0  0  0
  4  7  2  0  0  0  0
  5 16  2  0  0  0  0
  6 17  2  0  0  0  0
  7  3  1  0  0  0  0
  8 21  1  1  0  0  0
  8 12  1  0  0  0  0
  9  1  1  0  0  0  0
 10 18  1  0  0  0  0
 11  4  1  0  0  0  0
 13 18  1  6  0  0  0
 13  8  1  0  0  0  0
 14  5  1  0  0  0  0
 14  1  2  0  0  0  0
 15 20  2  0  0  0  0
 15  4  1  0  0  0  0
 16 12  1  0  0  0  0
 16 17  1  0  0  0  0
 19 10  1  0  0  0  0
 19  3  2  0  0  0  0
 20 19  1  0  0  0  0
 21 23  1  0  0  0  0
 23 22  1  1  0  0  0
 24 27  1  1  0  0  0
 25 28  1  0  0  0  0
 28 24  1  0  0  0  0
 29 26  1  6  0  0  0
 29 31  1  0  0  0  0
 30 23  1  6  0  0  0
 30 25  1  0  0  0  0
 30 29  1  0  0  0  0
 31 24  1  0  0  0  0
M  END
>  <MODEL>
4

>  <REMARK>
 VINA RESULT:      -5.9      3.779      6.391
  Name = 
  3 active torsions:
  status: ('A' for Active; 'I' for Inactive)
    1  A    between atoms: C_5  and  N_16
    2  A    between atoms: C_5  and  C_30
    3  A    between atoms: C_10  and  N_16
                            x       y       z     vdW  Elec       q    Type
                         _______ _______ _______ _____ _____    ______ ____

>  <TORSDO>
F 3

$$$$
=
 OpenBabel11122413063D

 31 35  0  0  1  0  0  0  0  0999 V2000
  160.9020  208.4610  138.2200 C   0  0  0  0  0  0  0  0  0  0  0  0
  158.8960  211.5140  139.1100 N   0  0  0  0  0  0  0  0  0  0  0  0
  157.4840  211.1920  139.0650 C   0  0  0  0  0  0  0  0  0  0  0  0
  155.6610  209.6320  138.6520 C   0  0  0  0  0  0  0  0  0  0  0  0
  159.9030  210.4830  139.1170 C   0  0  0  0  0  0  0  0  0  0  0  0
  161.9110  208.5280  139.1850 C   0  0  0  0  0  3  0  0  0  0  0  0
  157.0230  209.9420  138.6160 C   0  0  0  0  0  3  0  0  0  0  0  0
  159.9220  212.6060  141.0430 C   0  0  2  0  0  3  0  0  0  0  0  0
  160.8940  207.4500  137.3170 F   0  0  0  0  0  0  0  0  0  0  0  0
  156.9880  213.3670  139.9970 O   0  0  0  0  0  0  0  0  0  0  0  0
  155.1900  208.3080  138.1710 C   0  0  0  0  0  1  0  0  0  0  0  0
  160.9570  211.6160  140.9930 O   0  0  0  0  0  0  0  0  0  0  0  0
  159.3420  212.8150  139.6410 C   0  0  2  0  0  3  0  0  0  0  0  0
  159.9030  209.4380  138.1820 C   0  0  0  0  0  3  0  0  0  0  0  0
  154.7460  210.5620  139.1520 C   0  0  0  0  0  3  0  0  0  0  0  0
  160.9280  210.5510  140.0800 C   0  0  0  0  0  0  0  0  0  0  0  0
  161.9260  209.5730  140.1140 C   0  0  0  0  0  3  0  0  0  0  0  0
  158.2480  213.8860  139.5860 C   0  0  0  0  0  2  0  0  0  0  0  0
  156.5510  212.1240  139.5500 C   0  0  0  0  0  0  0  0  0  0  0  0
  155.1910  211.8050  139.6040 C   0  0  0  0  0  3  0  0  0  0  0  0
  160.4710  213.8500  141.5670 N   0  0  0  0  0  2  0  0  0  0  0  0
  158.6800  213.8970  143.2040 C   0  0  0  0  0  1  0  0  0  0  0  0
  160.1890  213.8790  142.9950 C   0  0  1  0  0  3  0  0  0  0  0  0
  161.0620  213.4230  146.5140 C   0  0  1  0  0  3  0  0  0  0  0  0
  159.8770  212.1930  144.8460 C   0  0  0  0  0  2  0  0  0  0  0  0
  163.1340  213.3310  143.4200 O   0  0  0  0  0  1  0  0  0  0  0  0
  160.9280  214.4220  147.6420 C   0  0  0  0  0  1  0  0  0  0  0  0
  159.7570  213.2220  145.8820 N   0  0  0  0  0  2  0  0  0  0  0  0
  162.1810  212.9340  144.3570 C   0  0  2  0  0  3  0  0  0  0  0  0
  160.8070  212.6650  143.7190 C   0  0  2  0  0  3  0  0  0  0  0  0
  162.0760  213.9400  145.4970 C   0  0  0  0  0  2  0  0  0  0  0  0
  1  6  1  0  0  0  0
  2  5  1  0  0  0  0
  2 13  1  0  0  0  0
  3  2  1  0  0  0  0
  3 19  1  0  0  0  0
  4 15  2  0  0  0  0
  5 16  2  0  0  0  0
  6 17  2  0  0  0  0
  7  4  1  0  0  0  0
  7  3  2  0  0  0  0
  8 21  1  6  0  0  0
  9  1  1  0  0  0  0
 11  4  1  0  0  0  0
 12  8  1  0  0  0  0
 13 18  1  1  0  0  0
 13  8  1  0  0  0  0
 14  1  2  0  0  0  0
 14  5  1  0  0  0  0
 15 20  1  0  0  0  0
 16 17  1  0  0  0  0
 16 12  1  0  0  0  0
 18 10  1  0  0  0  0
 19 20  2  0  0  0  0
 19 10  1  0  0  0  0
 21 23  1  0  0  0  0
 23 22  1  6  0  0  0
 24 27  1  1  0  0  0
 25 28  1  0  0  0  0
 28 24  1  0  0  0  0
 29 26  1  6  0  0  0
 29 31  1  0  0  0  0
 30 23  1  1  0  0  0
 30 29  1  0  0  0  0
 30 25  1  0  0  0  0
 31 24  1  0  0  0  0
M  END
>  <MODEL>
5

>  <REMARK>
 VINA RESULT:      -5.5      8.165     12.477
  Name = 
  3 active torsions:
  status: ('A' for Active; 'I' for Inactive)
    1  A    between atoms: C_5  and  N_16
    2  A    between atoms: C_5  and  C_30
    3  A    between atoms: C_10  and  N_16
                            x       y       z     vdW  Elec       q    Type
                         _______ _______ _______ _____ _____    ______ ____

>  <TORSDO>
F 3

$$$$
=
 OpenBabel11122413063D

 31 35  0  0  1  0  0  0  0  0999 V2000
  161.1830  202.2420  150.9370 C   0  0  0  0  0  0  0  0  0  0  0  0
  161.8740  205.3080  148.8740 N   0  0  0  0  0  0  0  0  0  0  0  0
  161.5550  205.0360  147.4860 C   0  0  0  0  0  0  0  0  0  0  0  0
  160.8040  203.5370  145.7210 C   0  0  0  0  0  0  0  0  0  0  0  0
  161.4290  204.4370  149.9330 C   0  0  0  0  0  0  0  0  0  0  0  0
  160.5520  202.8160  152.0440 C   0  0  0  0  0  3  0  0  0  0  0  0
  161.1780  203.7550  147.0490 C   0  0  0  0  0  3  0  0  0  0  0  0
  161.0120  207.2710  150.0490 C   0  0  2  0  0  3  0  0  0  0  0  0
  161.3690  200.9010  150.8830 F   0  0  0  0  0  0  0  0  0  0  0  0
  161.9210  207.3710  146.9760 O   0  0  0  0  0  0  0  0  0  0  0  0
  160.4110  202.1760  145.2750 C   0  0  0  0  0  1  0  0  0  0  0  0
  160.6400  206.4030  151.1270 O   0  0  0  0  0  0  0  0  0  0  0  0
  162.2100  206.6780  149.3010 C   0  0  2  0  0  3  0  0  0  0  0  0
  161.6250  203.0490  149.8850 C   0  0  0  0  0  3  0  0  0  0  0  0
  160.7880  204.6020  144.8170 C   0  0  0  0  0  3  0  0  0  0  0  0
  160.8020  205.0110  151.0550 C   0  0  0  0  0  0  0  0  0  0  0  0
  160.3630  204.2000  152.1050 C   0  0  0  0  0  3  0  0  0  0  0  0
  162.7060  207.5560  148.1480 C   0  0  0  0  0  2  0  0  0  0  0  0
  161.5490  206.0950  146.5630 C   0  0  0  0  0  0  0  0  0  0  0  0
  161.1560  205.8810  145.2380 C   0  0  0  0  0  3  0  0  0  0  0  0
  161.3350  208.5880  150.5820 N   0  0  0  0  0  2  0  0  0  0  0  0
  161.9920  207.3350  152.5540 C   0  0  0  0  0  1  0  0  0  0  0  0
  161.1870  208.5170  152.0290 C   0  0  1  0  0  3  0  0  0  0  0  0
  159.4640  210.6930  154.4070 C   0  0  1  0  0  3  0  0  0  0  0  0
  161.6120  209.6630  154.2370 C   0  0  0  0  0  2  0  0  0  0  0  0
  160.8150  211.3360  150.9960 O   0  0  0  0  0  1  0  0  0  0  0  0
  158.0610  210.5430  154.9550 C   0  0  0  0  0  1  0  0  0  0  0  0
  160.2320  209.4800  154.6950 N   0  0  0  0  0  2  0  0  0  0  0  0
  160.8170  211.0610  152.3620 C   0  0  2  0  0  3  0  0  0  0  0  0
  161.6570  209.8200  152.7100 C   0  0  2  0  0  3  0  0  0  0  0  0
  159.3960  210.9370  152.9010 C   0  0  0  0  0  2  0  0  0  0  0  0
  1  6  1  0  0  0  0
  2 13  1  0  0  0  0
  2  5  1  0  0  0  0
  3  2  1  0  0  0  0
  4  7  2  0  0  0  0
  5 16  2  0  0  0  0
  6 17  2  0  0  0  0
  7  3  1  0  0  0  0
  8 21  1  1  0  0  0
  8 12  1  0  0  0  0
  9  1  1  0  0  0  0
 10 18  1  0  0  0  0
 11  4  1  0  0  0  0
 13 18  1  6  0  0  0
 13  8  1  0  0  0  0
 14  5  1  0  0  0  0
 14  1  2  0  0  0  0
 15 20  2  0  0  0  0
 15  4  1  0  0  0  0
 16 12  1  0  0  0  0
 16 17  1  0  0  0  0
 19 10  1  0  0  0  0
 19  3  2  0  0  0  0
 20 19  1  0  0  0  0
 21 23  1  0  0  0  0
 23 22  1  1  0  0  0
 24 28  1  0  0  0  0
 24 27  1  6  0  0  0
 25 28  1  0  0  0  0
 29 26  1  6  0  0  0
 29 30  1  0  0  0  0
 29 31  1  0  0  0  0
 30 23  1  6  0  0  0
 30 25  1  0  0  0  0
 31 24  1  0  0  0  0
M  END
>  <MODEL>
6

>  <REMARK>
 VINA RESULT:      -5.5      3.430      5.880
  Name = 
  3 active torsions:
  status: ('A' for Active; 'I' for Inactive)
    1  A    between atoms: C_5  and  N_16
    2  A    between atoms: C_5  and  C_30
    3  A    between atoms: C_10  and  N_16
                            x       y       z     vdW  Elec       q    Type
                         _______ _______ _______ _____ _____    ______ ____

>  <TORSDO>
F 3

$$$$
=
 OpenBabel11122413063D

 31 35  0  0  1  0  0  0  0  0999 V2000
  160.8300  201.6590  149.4600 C   0  0  0  0  0  0  0  0  0  0  0  0
  161.9160  205.1680  150.2630 N   0  0  0  0  0  0  0  0  0  0  0  0
  161.6640  206.0230  149.1200 C   0  0  0  0  0  0  0  0  0  0  0  0
  160.9020  206.3630  146.8330 C   0  0  0  0  0  0  0  0  0  0  0  0
  161.3300  203.8550  150.3640 C   0  0  0  0  0  0  0  0  0  0  0  0
  160.1810  201.3140  150.6490 C   0  0  0  0  0  3  0  0  0  0  0  0
  161.2070  205.5080  147.8950 C   0  0  0  0  0  3  0  0  0  0  0  0
  161.1530  205.7430  152.5140 C   0  0  2  0  0  3  0  0  0  0  0  0
  160.9030  200.7650  148.4440 F   0  0  0  0  0  0  0  0  0  0  0  0
  162.2630  207.9430  150.4630 O   0  0  0  0  0  0  0  0  0  0  0  0
  160.4230  205.8010  145.5440 C   0  0  0  0  0  1  0  0  0  0  0  0
  160.6380  204.4100  152.6280 O   0  0  0  0  0  0  0  0  0  0  0  0
  162.3400  205.7540  151.5470 C   0  0  2  0  0  3  0  0  0  0  0  0
  161.4070  202.9240  149.3180 C   0  0  0  0  0  3  0  0  0  0  0  0
  161.0360  207.7440  146.9890 C   0  0  0  0  0  3  0  0  0  0  0  0
  160.6840  203.4980  151.5630 C   0  0  0  0  0  0  0  0  0  0  0  0
  160.1090  202.2320  151.7010 C   0  0  0  0  0  3  0  0  0  0  0  0
  162.9840  207.1350  151.3860 C   0  0  0  0  0  2  0  0  0  0  0  0
  161.8100  207.4130  149.2580 C   0  0  0  0  0  0  0  0  0  0  0  0
  161.4860  208.2700  148.2010 C   0  0  0  0  0  3  0  0  0  0  0  0
  161.5530  206.2190  153.8320 N   0  0  0  0  0  2  0  0  0  0  0  0
  160.0670  207.0430  155.5640 C   0  0  0  0  0  1  0  0  0  0  0  0
  160.6600  207.3120  154.1870 C   0  0  1  0  0  3  0  0  0  0  0  0
  159.6010  210.5760  155.4460 C   0  0  1  0  0  3  0  0  0  0  0  0
  161.5400  209.1920  155.6210 C   0  0  0  0  0  2  0  0  0  0  0  0
  160.5470  209.4310  152.0300 O   0  0  0  0  0  1  0  0  0  0  0  0
  158.2810  210.9400  156.0890 C   0  0  0  0  0  1  0  0  0  0  0  0
  160.2250  209.4840  156.1970 N   0  0  0  0  0  2  0  0  0  0  0  0
  160.6980  209.7730  153.3730 C   0  0  2  0  0  3  0  0  0  0  0  0
  161.3960  208.6680  154.1850 C   0  0  2  0  0  3  0  0  0  0  0  0
  159.3620  210.1590  153.9970 C   0  0  0  0  0  2  0  0  0  0  0  0
  1  6  1  0  0  0  0
  2  5  1  0  0  0  0
  2 13  1  0  0  0  0
  3 19  1  0  0  0  0
  3  2  1  0  0  0  0
  4 15  2  0  0  0  0
  4  7  1  0  0  0  0
  5 16  2  0  0  0  0
  6 17  2  0  0  0  0
  7  3  2  0  0  0  0
  8 12  1  0  0  0  0
  8 21  1  1  0  0  0
  9  1  1  0  0  0  0
 10 18  1  0  0  0  0
 11  4  1  0  0  0  0
 13 18  1  6  0  0  0
 13  8  1  0  0  0  0
 14  1  2  0  0  0  0
 14  5  1  0  0  0  0
 15 20  1  0  0  0  0
 16 17  1  0  0  0  0
 16 12  1  0  0  0  0
 19 10  1  0  0  0  0
 20 19  2  0  0  0  0
 21 23  1  0  0  0  0
 23 22  1  1  0  0  0
 24 27  1  1  0  0  0
 24 28  1  0  0  0  0
 25 28  1  0  0  0  0
 29 26  1  6  0  0  0
 29 31  1  0  0  0  0
 29 30  1  0  0  0  0
 30 23  1  1  0  0  0
 30 25  1  0  0  0  0
 31 24  1  0  0  0  0
M  END
>  <MODEL>
7

>  <REMARK>
 VINA RESULT:      -5.3      3.991      6.510
  Name = 
  3 active torsions:
  status: ('A' for Active; 'I' for Inactive)
    1  A    between atoms: C_5  and  N_16
    2  A    between atoms: C_5  and  C_30
    3  A    between atoms: C_10  and  N_16
                            x       y       z     vdW  Elec       q    Type
                         _______ _______ _______ _____ _____    ______ ____

>  <TORSDO>
F 3

$$$$
=
 OpenBabel11122413063D

 31 35  0  0  1  0  0  0  0  0999 V2000
  162.2090  210.2790  149.6140 C   0  0  0  0  0  0  0  0  0  0  0  0
  161.5260  208.3260  152.7540 N   0  0  0  0  0  0  0  0  0  0  0  0
  160.7480  209.1400  153.6660 C   0  0  0  0  0  0  0  0  0  0  0  0
  159.6400  211.2260  154.2540 C   0  0  0  0  0  0  0  0  0  0  0  0
  161.6770  208.6870  151.3660 C   0  0  0  0  0  0  0  0  0  0  0  0
  161.9660  209.3000  148.6470 C   0  0  0  0  0  3  0  0  0  0  0  0
  160.4540  210.4870  153.3930 C   0  0  0  0  0  3  0  0  0  0  0  0
  160.8660  206.0510  152.1490 C   0  0  2  0  0  3  0  0  0  0  0  0
  162.5830  211.5260  149.2370 F   0  0  0  0  0  0  0  0  0  0  0  0
  160.4910  207.2180  155.1120 O   0  0  0  0  0  0  0  0  0  0  0  0
  159.3410  212.6500  153.9520 C   0  0  0  0  0  1  0  0  0  0  0  0
  161.0890  206.4020  150.7770 O   0  0  0  0  0  0  0  0  0  0  0  0
  161.7650  206.9030  153.0500 C   0  0  2  0  0  3  0  0  0  0  0  0
  162.0690  209.9740  150.9710 C   0  0  0  0  0  3  0  0  0  0  0  0
  159.0980  210.6230  155.3920 C   0  0  0  0  0  3  0  0  0  0  0  0
  161.4430  207.7020  150.3870 C   0  0  0  0  0  0  0  0  0  0  0  0
  161.5850  208.0120  149.0320 C   0  0  0  0  0  3  0  0  0  0  0  0
  161.6240  206.5740  154.5400 C   0  0  0  0  0  2  0  0  0  0  0  0
  160.2090  208.5510  154.8220 C   0  0  0  0  0  0  0  0  0  0  0  0
  159.3790  209.2860  155.6740 C   0  0  0  0  0  3  0  0  0  0  0  0
  161.1420  204.6320  152.3340 N   0  0  0  0  0  2  0  0  0  0  0  0
  162.2060  202.7330  151.2610 C   0  0  0  0  0  1  0  0  0  0  0  0
  161.5810  204.1060  151.0490 C   0  0  1  0  0  3  0  0  0  0  0  0
  160.7940  201.5190  148.5910 C   0  0  1  0  0  3  0  0  0  0  0  0
  159.6190  202.7100  150.2950 C   0  0  0  0  0  2  0  0  0  0  0  0
  161.5260  205.1520  148.2100 O   0  0  0  0  0  1  0  0  0  0  0  0
  161.5810  200.2650  148.2780 C   0  0  0  0  0  1  0  0  0  0  0  0
  160.4510  201.5370  150.0140 N   0  0  0  0  0  2  0  0  0  0  0  0
  160.8310  203.9980  148.5700 C   0  0  2  0  0  3  0  0  0  0  0  0
  160.4100  204.0040  150.0500 C   0  0  2  0  0  3  0  0  0  0  0  0
  161.6280  202.7450  148.2270 C   0  0  0  0  0  2  0  0  0  0  0  0
  1 14  1  0  0  0  0
  2 13  1  0  0  0  0
  2  3  1  0  0  0  0
  3 19  1  0  0  0  0
  4 15  2  0  0  0  0
  5  2  1  0  0  0  0
  6 17  1  0  0  0  0
  6  1  2  0  0  0  0
  7  3  2  0  0  0  0
  7  4  1  0  0  0  0
  8 21  1  6  0  0  0
  8 13  1  0  0  0  0
  9  1  1  0  0  0  0
 11  4  1  0  0  0  0
 12  8  1  0  0  0  0
 13 18  1  1  0  0  0
 14  5  2  0  0  0  0
 15 20  1  0  0  0  0
 16 12  1  0  0  0  0
 16  5  1  0  0  0  0
 17 16  2  0  0  0  0
 18 10  1  0  0  0  0
 19 10  1  0  0  0  0
 19 20  2  0  0  0  0
 23 22  1  1  0  0  0
 23 21  1  0  0  0  0
 24 27  1  1  0  0  0
 24 28  1  0  0  0  0
 28 25  1  0  0  0  0
 29 26  1  1  0  0  0
 29 30  1  0  0  0  0
 30 25  1  0  0  0  0
 30 23  1  1  0  0  0
 31 29  1  0  0  0  0
 31 24  1  0  0  0  0
M  END
>  <MODEL>
8

>  <REMARK>
 VINA RESULT:      -5.1      3.584      7.900
  Name = 
  3 active torsions:
  status: ('A' for Active; 'I' for Inactive)
    1  A    between atoms: C_5  and  N_16
    2  A    between atoms: C_5  and  C_30
    3  A    between atoms: C_10  and  N_16
                            x       y       z     vdW  Elec       q    Type
                         _______ _______ _______ _____ _____    ______ ____

>  <TORSDO>
F 3

$$$$
=
 OpenBabel11122413063D

 31 35  0  0  1  0  0  0  0  0999 V2000
  160.9070  213.1840  148.2960 C   0  0  0  0  0  0  0  0  0  0  0  0
  161.3380  211.0770  151.3800 N   0  0  0  0  0  0  0  0  0  0  0  0
  160.2510  211.3440  152.3000 C   0  0  0  0  0  0  0  0  0  0  0  0
  158.2220  212.5360  152.9210 C   0  0  0  0  0  0  0  0  0  0  0  0
  161.2790  211.5000  150.0030 C   0  0  0  0  0  0  0  0  0  0  0  0
  161.2060  212.2470  147.3020 C   0  0  0  0  0  3  0  0  0  0  0  0
  159.3010  212.3490  152.0540 C   0  0  0  0  0  3  0  0  0  0  0  0
  161.9540  208.8060  150.7140 C   0  0  2  0  0  3  0  0  0  0  0  0
  160.5800  214.4530  147.9530 F   0  0  0  0  0  0  0  0  0  0  0  0
  161.0290  209.5290  153.6970 O   0  0  0  0  0  0  0  0  0  0  0  0
  157.2270  213.6050  152.6480 C   0  0  0  0  0  1  0  0  0  0  0  0
  161.9620  209.2580  149.3540 O   0  0  0  0  0  0  0  0  0  0  0  0
  162.2800  209.9760  151.6470 C   0  0  2  0  0  3  0  0  0  0  0  0
  160.9470  212.8140  149.6430 C   0  0  0  0  0  3  0  0  0  0  0  0
  158.0710  211.7090  154.0370 C   0  0  0  0  0  3  0  0  0  0  0  0
  161.5890  210.5630  148.9990 C   0  0  0  0  0  0  0  0  0  0  0  0
  161.5500  210.9380  147.6530 C   0  0  0  0  0  3  0  0  0  0  0  0
  162.3310  209.5820  153.1270 C   0  0  0  0  0  2  0  0  0  0  0  0
  160.0970  210.5300  153.4350 C   0  0  0  0  0  0  0  0  0  0  0  0
  159.0060  210.7050  154.2920 C   0  0  0  0  0  3  0  0  0  0  0  0
  162.9260  207.7320  150.8690 N   0  0  0  0  0  2  0  0  0  0  0  0
  161.5690  206.2000  152.1750 C   0  0  0  0  0  1  0  0  0  0  0  0
  162.1940  206.4740  150.8130 C   0  0  1  0  0  3  0  0  0  0  0  0
  160.8230  203.7760  148.7640 C   0  0  1  0  0  3  0  0  0  0  0  0
  159.9550  205.5530  150.1030 C   0  0  0  0  0  2  0  0  0  0  0  0
  162.5970  206.9210  147.8480 O   0  0  0  0  0  1  0  0  0  0  0  0
  161.2280  202.3180  148.7570 C   0  0  0  0  0  1  0  0  0  0  0  0
  160.4240  204.1650  150.1190 N   0  0  0  0  0  2  0  0  0  0  0  0
  161.5790  206.0950  148.3230 C   0  0  2  0  0  3  0  0  0  0  0  0
  161.0990  206.5060  149.7270 C   0  0  2  0  0  3  0  0  0  0  0  0
  161.9950  204.6300  148.2870 C   0  0  0  0  0  2  0  0  0  0  0  0
  1 14  1  0  0  0  0
  2 13  1  0  0  0  0
  2  3  1  0  0  0  0
  3 19  1  0  0  0  0
  4 15  2  0  0  0  0
  5  2  1  0  0  0  0
  6 17  1  0  0  0  0
  6  1  2  0  0  0  0
  7  3  2  0  0  0  0
  7  4  1  0  0  0  0
  8 21  1  6  0  0  0
  8 13  1  0  0  0  0
  9  1  1  0  0  0  0
 11  4  1  0  0  0  0
 12  8  1  0  0  0  0
 13 18  1  1  0  0  0
 14  5  2  0  0  0  0
 15 20  1  0  0  0  0
 16 12  1  0  0  0  0
 16  5  1  0  0  0  0
 17 16  2  0  0  0  0
 18 10  1  0  0  0  0
 19 10  1  0  0  0  0
 19 20  2  0  0  0  0
 23 21  1  0  0  0  0
 23 22  1  1  0  0  0
 24 27  1  1  0  0  0
 24 28  1  0  0  0  0
 25 28  1  0  0  0  0
 29 26  1  1  0  0  0
 29 30  1  0  0  0  0
 30 25  1  0  0  0  0
 30 23  1  1  0  0  0
 31 29  1  0  0  0  0
 31 24  1  0  0  0  0
M  END
>  <MODEL>
9

>  <REMARK>
 VINA RESULT:      -5.1      3.106      7.407
  Name = 
  3 active torsions:
  status: ('A' for Active; 'I' for Inactive)
    1  A    between atoms: C_5  and  N_16
    2  A    between atoms: C_5  and  C_30
    3  A    between atoms: C_10  and  N_16
                            x       y       z     vdW  Elec       q    Type
                         _______ _______ _______ _____ _____    ______ ____

>  <TORSDO>
F 3

$$$$
