=
 OpenBabel11122412533D

 32 38  0  0  1  0  0  0  0  0999 V2000
  160.5060  208.3930  156.8430 C   0  0  1  0  0  3  0  0  0  0  0  0
  161.1730  206.8130  151.8540 C   0  0  0  0  0  0  0  0  0  0  0  0
  161.9740  210.9910  149.5080 C   0  0  0  0  0  3  0  0  0  0  0  0
  162.1500  210.2660  148.2370 C   0  0  0  0  0  3  0  0  0  0  0  0
  161.0590  204.6460  150.5970 C   0  0  0  0  0  0  0  0  0  0  0  0
  161.1240  204.0190  149.2800 C   0  0  0  0  0  0  0  0  0  0  0  0
  161.0020  206.8550  154.3660 C   0  0  1  0  0  3  0  0  0  0  0  0
  161.6120  208.9280  153.1770 C   0  0  0  0  0  2  0  0  0  0  0  0
  161.3060  203.8380  147.1690 C   0  0  0  0  0  0  0  0  0  0  0  0
  160.8760  209.1440  155.5580 C   0  0  2  0  0  3  0  0  0  0  0  0
  161.9400  210.3380  150.6730 C   0  0  0  0  0  3  0  0  0  0  0  0
  161.4840  208.2310  151.8900 N   0  0  0  0  0  0  0  0  0  0  0  0
  162.1840  208.8470  150.7560 C   0  0  1  0  0  3  0  0  0  0  0  0
  161.5590  206.8570  149.4130 C   0  0  0  0  0  0  0  0  0  0  0  0
  161.1540  202.5720  147.7030 C   0  0  0  0  0  3  0  0  0  0  0  0
  160.0670  206.9570  156.6470 C   0  0  0  0  0  3  0  0  0  0  0  0
  160.7040  208.3450  154.2470 C   0  0  2  0  0  3  0  0  0  0  0  0
  161.0400  202.6930  149.0460 N   0  0  0  0  0  0  0  0  0  0  0  0
  160.2630  206.2600  155.5210 C   0  0  0  0  0  3  0  0  0  0  0  0
  161.9690  208.5900  156.4640 C   0  0  1  0  0  3  0  0  0  0  0  0
  162.1000  208.9330  148.1990 C   0  0  0  0  0  3  0  0  0  0  0  0
  161.8980  208.1560  149.4440 C   0  0  0  0  0  0  0  0  0  0  0  0
  161.3190  206.1920  148.0700 C   0  0  0  0  0  2  0  0  0  0  0  0
  160.5910  206.1570  153.0850 C   0  0  0  0  0  2  0  0  0  0  0  0
  160.8800  203.9220  151.6140 O   0  0  0  0  0  0  0  0  0  0  0  0
  161.4330  204.1630  145.7220 C   0  0  0  0  0  1  0  0  0  0  0  0
  161.2630  206.1240  150.6870 C   0  0  0  0  0  0  0  0  0  0  0  0
  161.2990  204.7370  148.1640 N   0  0  0  0  0  0  0  0  0  0  0  0
  162.5310  209.6770  157.2600 N   0  0  0  0  0  2  0  0  0  0  0  0
  162.5200  210.9350  156.5050 C   0  0  0  0  0  3  0  0  0  0  0  0
  161.7140  212.0150  157.2080 C   0  0  0  0  0  1  0  0  0  0  0  0
  163.9270  211.4180  156.1820 C   0  0  0  0  0  1  0  0  0  0  0  0
  1 16  1  6  0  0  0
  2 12  1  0  0  0  0
  2 24  1  0  0  0  0
  3 11  2  0  0  0  0
  4  3  1  0  0  0  0
  5 27  1  0  0  0  0
  5 25  2  0  0  0  0
  6  5  1  0  0  0  0
  7 24  1  6  0  0  0
  7 19  1  0  0  0  0
  8 17  1  0  0  0  0
  9 15  2  0  0  0  0
  9 28  1  0  0  0  0
 10 20  1  0  0  0  0
 10  1  1  0  0  0  0
 11 13  1  0  0  0  0
 12  8  1  0  0  0  0
 13 12  1  0  0  0  0
 14 22  2  0  0  0  0
 14 27  1  0  0  0  0
 15 18  1  0  0  0  0
 17  7  1  0  0  0  0
 17 10  1  0  0  0  0
 18  6  2  0  0  0  0
 19 16  2  0  0  0  0
 20  1  1  0  0  0  0
 20 29  1  0  0  0  0
 21  4  2  0  0  0  0
 21 22  1  0  0  0  0
 22 13  1  0  0  0  0
 23 28  1  0  0  0  0
 23 14  1  0  0  0  0
 26  9  1  0  0  0  0
 27  2  2  0  0  0  0
 28  6  1  0  0  0  0
 30 31  1  0  0  0  0
 30 29  1  0  0  0  0
 32 30  1  0  0  0  0
M  END
>  <MODEL>
1

>  <REMARK>
 VINA RESULT:      -8.8      0.000      0.000
  Name = 
  2 active torsions:
  status: ('A' for Active; 'I' for Inactive)
    1  A    between atoms: C_20  and  N_29
    2  A    between atoms: N_29  and  C_30
                            x       y       z     vdW  Elec       q    Type
                         _______ _______ _______ _____ _____    ______ ____

>  <TORSDO>
F 2

$$$$
=
 OpenBabel11122412533D

 32 38  0  0  1  0  0  0  0  0999 V2000
  161.2500  201.5640  149.2240 C   0  0  1  0  0  3  0  0  0  0  0  0
  161.1600  206.1320  151.8620 C   0  0  0  0  0  0  0  0  0  0  0  0
  162.2300  209.3790  148.4110 C   0  0  0  0  0  3  0  0  0  0  0  0
  162.0990  210.4820  149.3810 C   0  0  0  0  0  3  0  0  0  0  0  0
  160.8360  206.8570  154.2410 C   0  0  0  0  0  0  0  0  0  0  0  0
  160.8480  207.9920  155.1600 C   0  0  0  0  0  0  0  0  0  0  0  0
  160.8130  203.7290  151.1900 C   0  0  1  0  0  3  0  0  0  0  0  0
  161.1530  205.4230  149.4300 C   0  0  0  0  0  2  0  0  0  0  0  0
  161.0580  209.9920  155.8500 C   0  0  0  0  0  0  0  0  0  0  0  0
  161.4110  203.0220  148.7780 C   0  0  2  0  0  3  0  0  0  0  0  0
  161.8140  208.1460  148.7110 C   0  0  0  0  0  3  0  0  0  0  0  0
  161.3150  206.4610  150.4560 N   0  0  0  0  0  0  0  0  0  0  0  0
  161.0970  207.8430  150.0090 C   0  0  1  0  0  3  0  0  0  0  0  0
  161.3190  208.5440  152.3790 C   0  0  0  0  0  0  0  0  0  0  0  0
  160.6860  209.2000  156.9190 C   0  0  0  0  0  3  0  0  0  0  0  0
  161.2410  201.3450  150.7230 C   0  0  0  0  0  3  0  0  0  0  0  0
  161.5880  204.0510  149.9170 C   0  0  2  0  0  3  0  0  0  0  0  0
  160.5530  207.9280  156.4750 N   0  0  0  0  0  0  0  0  0  0  0  0
  161.0700  202.3220  151.6220 C   0  0  0  0  0  3  0  0  0  0  0  0
  160.0370  202.3630  148.7660 C   0  0  1  0  0  3  0  0  0  0  0  0
  161.7290  210.2420  150.6400 C   0  0  0  0  0  3  0  0  0  0  0  0
  161.4120  208.8630  151.0780 C   0  0  0  0  0  0  0  0  0  0  0  0
  161.6080  209.6100  153.4190 C   0  0  0  0  0  2  0  0  0  0  0  0
  161.2360  204.6840  152.2900 C   0  0  0  0  0  2  0  0  0  0  0  0
  160.5620  205.7090  154.6840 O   0  0  0  0  0  0  0  0  0  0  0  0
  161.3410  211.4530  155.9050 C   0  0  0  0  0  1  0  0  0  0  0  0
  161.0980  207.1190  152.7920 C   0  0  0  0  0  0  0  0  0  0  0  0
  161.1440  209.2300  154.7490 N   0  0  0  0  0  0  0  0  0  0  0  0
  159.6980  201.9840  147.3970 N   0  0  0  0  0  2  0  0  0  0  0  0
  160.9100  201.8090  146.5890 C   0  0  0  0  0  3  0  0  0  0  0  0
  160.9430  200.4560  145.8980 C   0  0  0  0  0  1  0  0  0  0  0  0
  161.0980  202.9430  145.5920 C   0  0  0  0  0  1  0  0  0  0  0  0
  1 16  1  1  0  0  0
  2 24  1  0  0  0  0
  2 27  2  0  0  0  0
  3 11  2  0  0  0  0
  3  4  1  0  0  0  0
  4 21  2  0  0  0  0
  5 25  2  0  0  0  0
  5  6  1  0  0  0  0
  6 18  2  0  0  0  0
  7 19  1  1  0  0  0
  7 24  1  0  0  0  0
  8 17  1  0  0  0  0
  8 12  1  0  0  0  0
  9 26  1  0  0  0  0
  9 15  2  0  0  0  0
 10  1  1  0  0  0  0
 10 17  1  0  0  0  0
 11 13  1  0  0  0  0
 12  2  1  0  0  0  0
 13 12  1  0  0  0  0
 13 22  1  0  0  0  0
 14 27  1  0  0  0  0
 14 23  1  0  0  0  0
 16 19  2  0  0  0  0
 17  7  1  0  0  0  0
 18 15  1  0  0  0  0
 20 10  1  0  0  0  0
 20  1  1  0  0  0  0
 21 22  1  0  0  0  0
 22 14  2  0  0  0  0
 23 28  1  0  0  0  0
 27  5  1  0  0  0  0
 28  6  1  0  0  0  0
 28  9  1  0  0  0  0
 29 20  1  0  0  0  0
 30 29  1  0  0  0  0
 31 30  1  0  0  0  0
 32 30  1  0  0  0  0
M  END
>  <MODEL>
2

>  <REMARK>
 VINA RESULT:      -8.7      1.678      7.903
  Name = 
  2 active torsions:
  status: ('A' for Active; 'I' for Inactive)
    1  A    between atoms: C_20  and  N_29
    2  A    between atoms: N_29  and  C_30
                            x       y       z     vdW  Elec       q    Type
                         _______ _______ _______ _____ _____    ______ ____

>  <TORSDO>
F 2

$$$$
=
 OpenBabel11122412533D

 32 38  0  0  1  0  0  0  0  0999 V2000
  161.8790  210.1000  153.7000 C   0  0  1  0  0  3  0  0  0  0  0  0
  161.2140  206.5190  149.8840 C   0  0  0  0  0  0  0  0  0  0  0  0
  161.2180  202.3270  152.3400 C   0  0  0  0  0  3  0  0  0  0  0  0
  160.9900  201.5740  151.0930 C   0  0  0  0  0  3  0  0  0  0  0  0
  161.0380  206.5320  147.3820 C   0  0  0  0  0  0  0  0  0  0  0  0
  160.9370  205.7040  146.1840 C   0  0  0  0  0  0  0  0  0  0  0  0
  161.2640  208.6770  151.1820 C   0  0  1  0  0  3  0  0  0  0  0  0
  161.0580  206.5490  152.4120 C   0  0  0  0  0  2  0  0  0  0  0  0
  160.8340  203.9600  144.9730 C   0  0  0  0  0  0  0  0  0  0  0  0
  161.7000  208.5770  153.7270 C   0  0  2  0  0  3  0  0  0  0  0  0
  161.0880  203.6560  152.3740 C   0  0  0  0  0  3  0  0  0  0  0  0
  161.1350  205.8070  151.1470 N   0  0  0  0  0  0  0  0  0  0  0  0
  160.6020  204.4380  151.1730 C   0  0  1  0  0  3  0  0  0  0  0  0
  160.9620  204.3530  148.7200 C   0  0  0  0  0  0  0  0  0  0  0  0
  160.7520  205.0660  144.1490 C   0  0  0  0  0  3  0  0  0  0  0  0
  162.0900  210.7010  152.3260 C   0  0  0  0  0  3  0  0  0  0  0  0
  161.8060  207.8700  152.3570 C   0  0  2  0  0  3  0  0  0  0  0  0
  160.8180  206.1740  144.9240 N   0  0  0  0  0  0  0  0  0  0  0  0
  161.8390  210.0560  151.1800 C   0  0  0  0  0  3  0  0  0  0  0  0
  160.4890  209.4950  153.8420 C   0  0  1  0  0  3  0  0  0  0  0  0
  160.8250  202.2110  149.9320 C   0  0  0  0  0  3  0  0  0  0  0  0
  160.8370  203.6910  149.8820 C   0  0  0  0  0  0  0  0  0  0  0  0
  161.1580  203.5600  147.4410 C   0  0  0  0  0  2  0  0  0  0  0  0
  161.6200  207.9750  149.8860 C   0  0  0  0  0  2  0  0  0  0  0  0
  161.0470  207.7870  147.2640 O   0  0  0  0  0  0  0  0  0  0  0  0
  160.8330  202.5390  144.5260 C   0  0  0  0  0  1  0  0  0  0  0  0
  161.0710  205.8490  148.7110 C   0  0  0  0  0  0  0  0  0  0  0  0
  160.9370  204.3680  146.2460 N   0  0  0  0  0  0  0  0  0  0  0  0
  160.0710  209.5660  155.2400 N   0  0  0  0  0  2  0  0  0  0  0  0
  160.7020  208.5030  156.0280 C   0  0  0  0  0  3  0  0  0  0  0  0
  161.4050  209.0470  157.2610 C   0  0  0  0  0  1  0  0  0  0  0  0
  159.7160  207.4040  156.3950 C   0  0  0  0  0  1  0  0  0  0  0  0
  1 16  1  6  0  0  0
  1 10  1  0  0  0  0
  1 20  1  0  0  0  0
  2 24  1  0  0  0  0
  2 12  1  0  0  0  0
  3 11  2  0  0  0  0
  4  3  1  0  0  0  0
  5 27  1  0  0  0  0
  6 28  1  0  0  0  0
  6  5  1  0  0  0  0
  7 24  1  6  0  0  0
  7 17  1  0  0  0  0
  9 28  1  0  0  0  0
 10 20  1  0  0  0  0
 12 13  1  0  0  0  0
 12  8  1  0  0  0  0
 13 11  1  0  0  0  0
 14 22  2  0  0  0  0
 15 18  1  0  0  0  0
 15  9  2  0  0  0  0
 17  8  1  0  0  0  0
 17 10  1  0  0  0  0
 18  6  2  0  0  0  0
 19  7  1  0  0  0  0
 19 16  2  0  0  0  0
 20 29  1  0  0  0  0
 21  4  2  0  0  0  0
 22 21  1  0  0  0  0
 22 13  1  0  0  0  0
 23 14  1  0  0  0  0
 25  5  2  0  0  0  0
 26  9  1  0  0  0  0
 27 14  1  0  0  0  0
 27  2  2  0  0  0  0
 28 23  1  0  0  0  0
 29 30  1  0  0  0  0
 30 32  1  0  0  0  0
 30 31  1  0  0  0  0
M  END
>  <MODEL>
3

>  <REMARK>
 VINA RESULT:      -7.6      1.987      4.557
  Name = 
  2 active torsions:
  status: ('A' for Active; 'I' for Inactive)
    1  A    between atoms: C_20  and  N_29
    2  A    between atoms: N_29  and  C_30
                            x       y       z     vdW  Elec       q    Type
                         _______ _______ _______ _____ _____    ______ ____

>  <TORSDO>
F 2

$$$$
=
 OpenBabel11122412533D

 32 38  0  0  1  0  0  0  0  0999 V2000
  162.0660  213.4200  148.6980 C   0  0  1  0  0  3  0  0  0  0  0  0
  161.4420  208.3040  149.8220 C   0  0  0  0  0  0  0  0  0  0  0  0
  161.2020  208.2970  154.6740 C   0  0  0  0  0  3  0  0  0  0  0  0
  161.0020  206.8370  154.6810 C   0  0  0  0  0  3  0  0  0  0  0  0
  161.3710  206.1510  148.5380 C   0  0  0  0  0  0  0  0  0  0  0  0
  161.2920  204.6960  148.6400 C   0  0  0  0  0  0  0  0  0  0  0  0
  161.5090  210.5170  148.6210 C   0  0  1  0  0  3  0  0  0  0  0  0
  161.1810  210.4950  151.0660 C   0  0  0  0  0  2  0  0  0  0  0  0
  161.1820  202.7670  149.5260 C   0  0  0  0  0  0  0  0  0  0  0  0
  161.8350  212.6690  150.0140 C   0  0  2  0  0  3  0  0  0  0  0  0
  161.1150  208.9980  153.5400 C   0  0  0  0  0  3  0  0  0  0  0  0
  161.2860  209.0300  151.0690 N   0  0  0  0  0  0  0  0  0  0  0  0
  160.7070  208.3500  152.2350 C   0  0  1  0  0  3  0  0  0  0  0  0
  161.1650  206.1980  151.0870 C   0  0  0  0  0  0  0  0  0  0  0  0
  161.1710  202.6160  148.1530 C   0  0  0  0  0  3  0  0  0  0  0  0
  162.3530  212.5440  147.4970 C   0  0  0  0  0  3  0  0  0  0  0  0
  161.9740  211.1320  149.9370 C   0  0  2  0  0  3  0  0  0  0  0  0
  161.2410  203.8460  147.5930 N   0  0  0  0  0  0  0  0  0  0  0  0
  162.1300  211.2250  147.4600 C   0  0  0  0  0  3  0  0  0  0  0  0
  160.6510  213.2090  149.2210 C   0  0  1  0  0  3  0  0  0  0  0  0
  160.9070  206.1550  153.5380 C   0  0  0  0  0  3  0  0  0  0  0  0
  160.9700  206.8630  152.2380 C   0  0  0  0  0  0  0  0  0  0  0  0
  161.3880  204.6980  151.1330 C   0  0  0  0  0  2  0  0  0  0  0  0
  161.8950  209.0510  148.5890 C   0  0  0  0  0  2  0  0  0  0  0  0
  161.4260  206.6850  147.3970 O   0  0  0  0  0  0  0  0  0  0  0  0
  161.1520  201.6620  150.5240 C   0  0  0  0  0  1  0  0  0  0  0  0
  161.3250  206.9510  149.7990 C   0  0  0  0  0  0  0  0  0  0  0  0
  161.2450  204.0730  149.8230 N   0  0  0  0  0  0  0  0  0  0  0  0
  160.1780  214.4420  149.8450 N   0  0  0  0  0  2  0  0  0  0  0  0
  158.7990  214.2890  150.3220 C   0  0  0  0  0  3  0  0  0  0  0  0
  157.8960  213.6720  149.2670 C   0  0  0  0  0  1  0  0  0  0  0  0
  158.7310  213.5130  151.6290 C   0  0  0  0  0  1  0  0  0  0  0  0
  1 16  1  6  0  0  0
  1 20  1  0  0  0  0
  1 10  1  0  0  0  0
  2 12  1  0  0  0  0
  3  4  1  0  0  0  0
  5  6  1  0  0  0  0
  5 27  1  0  0  0  0
  6 28  1  0  0  0  0
  7 19  1  6  0  0  0
  7 17  1  0  0  0  0
  8 12  1  0  0  0  0
  9 28  1  0  0  0  0
  9 26  1  0  0  0  0
 11  3  2  0  0  0  0
 12 13  1  0  0  0  0
 13 22  1  0  0  0  0
 13 11  1  0  0  0  0
 14 23  1  0  0  0  0
 14 22  2  0  0  0  0
 15  9  2  0  0  0  0
 17 10  1  0  0  0  0
 17  8  1  0  0  0  0
 18 15  1  0  0  0  0
 18  6  2  0  0  0  0
 19 16  2  0  0  0  0
 20 29  1  0  0  0  0
 20 10  1  0  0  0  0
 21  4  2  0  0  0  0
 22 21  1  0  0  0  0
 24  7  1  0  0  0  0
 24  2  1  0  0  0  0
 25  5  2  0  0  0  0
 27  2  2  0  0  0  0
 27 14  1  0  0  0  0
 28 23  1  0  0  0  0
 29 30  1  0  0  0  0
 30 32  1  0  0  0  0
 31 30  1  0  0  0  0
M  END
>  <MODEL>
4

>  <REMARK>
 VINA RESULT:      -7.2      2.386      5.785
  Name = 
  2 active torsions:
  status: ('A' for Active; 'I' for Inactive)
    1  A    between atoms: C_20  and  N_29
    2  A    between atoms: N_29  and  C_30
                            x       y       z     vdW  Elec       q    Type
                         _______ _______ _______ _____ _____    ______ ____

>  <TORSDO>
F 2

$$$$
=
 OpenBabel11122412533D

 32 38  0  0  1  0  0  0  0  0999 V2000
  160.4850  209.1690  155.5380 C   0  0  1  0  0  3  0  0  0  0  0  0
  161.0490  205.8140  151.5070 C   0  0  0  0  0  0  0  0  0  0  0  0
  161.6330  208.7910  147.7120 C   0  0  0  0  0  3  0  0  0  0  0  0
  161.7930  207.6380  146.8080 C   0  0  0  0  0  3  0  0  0  0  0  0
  160.9700  203.3290  151.1780 C   0  0  0  0  0  0  0  0  0  0  0  0
  161.0160  202.2470  150.1990 C   0  0  0  0  0  0  0  0  0  0  0  0
  160.9560  206.8110  153.8180 C   0  0  1  0  0  3  0  0  0  0  0  0
  161.4570  208.2830  151.9030 C   0  0  0  0  0  2  0  0  0  0  0  0
  161.1370  201.2760  148.3110 C   0  0  0  0  0  0  0  0  0  0  0  0
  160.7890  209.3790  154.0500 C   0  0  2  0  0  3  0  0  0  0  0  0
  161.6580  208.6330  149.0390 C   0  0  0  0  0  3  0  0  0  0  0  0
  161.3120  207.1430  150.9860 N   0  0  0  0  0  0  0  0  0  0  0  0
  161.9550  207.2930  149.6740 C   0  0  1  0  0  3  0  0  0  0  0  0
  161.3570  204.9280  149.2200 C   0  0  0  0  0  0  0  0  0  0  0  0
  161.0460  200.3080  149.2940 C   0  0  0  0  0  3  0  0  0  0  0  0
  160.0890  207.7590  155.9240 C   0  0  0  0  0  3  0  0  0  0  0  0
  160.6030  208.1360  153.1510 C   0  0  2  0  0  3  0  0  0  0  0  0
  160.9700  200.9310  150.4920 N   0  0  0  0  0  0  0  0  0  0  0  0
  160.2740  206.6880  155.1420 C   0  0  0  0  0  3  0  0  0  0  0  0
  161.9270  209.2350  155.0520 C   0  0  1  0  0  3  0  0  0  0  0  0
  161.7880  206.3910  147.2840 C   0  0  0  0  0  3  0  0  0  0  0  0
  161.6520  206.1470  148.7380 C   0  0  0  0  0  0  0  0  0  0  0  0
  161.0980  203.7950  148.2430 C   0  0  0  0  0  2  0  0  0  0  0  0
  160.5290  205.6670  152.9180 C   0  0  0  0  0  2  0  0  0  0  0  0
  160.8480  203.0460  152.4010 O   0  0  0  0  0  0  0  0  0  0  0  0
  161.2080  201.0250  146.8450 C   0  0  0  0  0  1  0  0  0  0  0  0
  161.1270  204.7320  150.6890 C   0  0  0  0  0  0  0  0  0  0  0  0
  161.1310  202.4870  148.8870 N   0  0  0  0  0  0  0  0  0  0  0  0
  162.4770  210.5550  155.3480 N   0  0  0  0  0  2  0  0  0  0  0  0
  162.5360  210.7840  156.7960 C   0  0  0  0  0  3  0  0  0  0  0  0
  163.9380  211.1390  157.2610 C   0  0  0  0  0  1  0  0  0  0  0  0
  161.5230  211.8250  157.2500 C   0  0  0  0  0  1  0  0  0  0  0  0
  1 16  1  6  0  0  0
  2 24  1  0  0  0  0
  3 11  2  0  0  0  0
  4 21  2  0  0  0  0
  4  3  1  0  0  0  0
  5 25  2  0  0  0  0
  6 18  2  0  0  0  0
  6  5  1  0  0  0  0
  7 24  1  6  0  0  0
  7 19  1  0  0  0  0
  8 17  1  0  0  0  0
  9 28  1  0  0  0  0
  9 15  2  0  0  0  0
 10 20  1  0  0  0  0
 10  1  1  0  0  0  0
 11 13  1  0  0  0  0
 12  2  1  0  0  0  0
 12  8  1  0  0  0  0
 13 12  1  0  0  0  0
 14 27  1  0  0  0  0
 15 18  1  0  0  0  0
 17  7  1  0  0  0  0
 17 10  1  0  0  0  0
 19 16  2  0  0  0  0
 20 29  1  0  0  0  0
 20  1  1  0  0  0  0
 21 22  1  0  0  0  0
 22 14  2  0  0  0  0
 22 13  1  0  0  0  0
 23 28  1  0  0  0  0
 23 14  1  0  0  0  0
 26  9  1  0  0  0  0
 27  5  1  0  0  0  0
 27  2  2  0  0  0  0
 28  6  1  0  0  0  0
 29 30  1  0  0  0  0
 30 32  1  0  0  0  0
 30 31  1  0  0  0  0
M  END
>  <MODEL>
5

>  <REMARK>
 VINA RESULT:      -7.2      1.305      2.001
  Name = 
  2 active torsions:
  status: ('A' for Active; 'I' for Inactive)
    1  A    between atoms: C_20  and  N_29
    2  A    between atoms: N_29  and  C_30
                            x       y       z     vdW  Elec       q    Type
                         _______ _______ _______ _____ _____    ______ ____

>  <TORSDO>
F 2

$$$$
=
 OpenBabel11122412533D

 32 38  0  0  1  0  0  0  0  0999 V2000
  162.0190  212.5220  149.7600 C   0  0  1  0  0  3  0  0  0  0  0  0
  161.4450  207.3120  149.1550 C   0  0  0  0  0  0  0  0  0  0  0  0
  161.3090  205.7120  153.7400 C   0  0  0  0  0  3  0  0  0  0  0  0
  161.1160  204.3280  153.2710 C   0  0  0  0  0  3  0  0  0  0  0  0
  161.3570  205.6990  147.2370 C   0  0  0  0  0  0  0  0  0  0  0  0
  161.2880  204.2900  146.8580 C   0  0  0  0  0  0  0  0  0  0  0  0
  161.4760  209.7980  148.7460 C   0  0  1  0  0  3  0  0  0  0  0  0
  161.2000  208.9720  151.0540 C   0  0  0  0  0  2  0  0  0  0  0  0
  161.2060  202.1760  147.0640 C   0  0  0  0  0  0  0  0  0  0  0  0
  161.8200  211.3770  150.7610 C   0  0  2  0  0  3  0  0  0  0  0  0
  161.1950  206.7450  152.9000 C   0  0  0  0  0  3  0  0  0  0  0  0
  161.3120  207.5870  150.5740 N   0  0  0  0  0  0  0  0  0  0  0  0
  160.7610  206.5560  151.4630 C   0  0  1  0  0  3  0  0  0  0  0  0
  161.2060  204.9060  149.6640 C   0  0  0  0  0  0  0  0  0  0  0  0
  161.1670  202.4840  145.7170 C   0  0  0  0  0  3  0  0  0  0  0  0
  162.2850  212.0910  148.3330 C   0  0  0  0  0  3  0  0  0  0  0  0
  161.9650  209.9520  150.1810 C   0  0  2  0  0  3  0  0  0  0  0  0
  161.2190  203.8300  145.5910 N   0  0  0  0  0  0  0  0  0  0  0  0
  162.0670  210.8540  147.8700 C   0  0  0  0  0  3  0  0  0  0  0  0
  160.6170  212.1340  150.2120 C   0  0  1  0  0  3  0  0  0  0  0  0
  161.0000  204.0580  151.9690 C   0  0  0  0  0  3  0  0  0  0  0  0
  161.0320  205.1530  150.9730 C   0  0  0  0  0  0  0  0  0  0  0  0
  161.4380  203.4760  149.2120 C   0  0  0  0  0  2  0  0  0  0  0  0
  161.8680  208.4280  148.2270 C   0  0  0  0  0  2  0  0  0  0  0  0
  161.3850  206.5780  146.3340 O   0  0  0  0  0  0  0  0  0  0  0  0
  161.2030  200.8050  147.6450 C   0  0  0  0  0  1  0  0  0  0  0  0
  161.3350  206.0400  148.6920 C   0  0  0  0  0  0  0  0  0  0  0  0
  161.2690  203.3140  147.7720 N   0  0  0  0  0  0  0  0  0  0  0  0
  160.1510  213.0890  151.2140 N   0  0  0  0  0  2  0  0  0  0  0  0
  158.8350  212.7000  151.7310 C   0  0  0  0  0  3  0  0  0  0  0  0
  158.9320  211.5860  152.7610 C   0  0  0  0  0  1  0  0  0  0  0  0
  158.0630  213.8920  152.2800 C   0  0  0  0  0  1  0  0  0  0  0  0
  1 16  1  6  0  0  0
  1 20  1  0  0  0  0
  1 10  1  0  0  0  0
  2 12  1  0  0  0  0
  4  3  1  0  0  0  0
  5 27  1  0  0  0  0
  6  5  1  0  0  0  0
  6 28  1  0  0  0  0
  7 19  1  6  0  0  0
  7 17  1  0  0  0  0
  9 26  1  0  0  0  0
  9 28  1  0  0  0  0
 11  3  2  0  0  0  0
 12  8  1  0  0  0  0
 12 13  1  0  0  0  0
 13 11  1  0  0  0  0
 14 22  2  0  0  0  0
 15  9  2  0  0  0  0
 17 10  1  0  0  0  0
 17  8  1  0  0  0  0
 18 15  1  0  0  0  0
 18  6  2  0  0  0  0
 19 16  2  0  0  0  0
 20 10  1  0  0  0  0
 20 29  1  0  0  0  0
 21  4  2  0  0  0  0
 22 13  1  0  0  0  0
 22 21  1  0  0  0  0
 23 14  1  0  0  0  0
 24  7  1  0  0  0  0
 24  2  1  0  0  0  0
 25  5  2  0  0  0  0
 27  2  2  0  0  0  0
 27 14  1  0  0  0  0
 28 23  1  0  0  0  0
 29 30  1  0  0  0  0
 30 32  1  0  0  0  0
 30 31  1  0  0  0  0
M  END
>  <MODEL>
6

>  <REMARK>
 VINA RESULT:      -6.9      2.880      5.335
  Name = 
  2 active torsions:
  status: ('A' for Active; 'I' for Inactive)
    1  A    between atoms: C_20  and  N_29
    2  A    between atoms: N_29  and  C_30
                            x       y       z     vdW  Elec       q    Type
                         _______ _______ _______ _____ _____    ______ ____

>  <TORSDO>
F 2

$$$$
=
 OpenBabel11122412533D

 32 38  0  0  1  0  0  0  0  0999 V2000
  162.3410  210.5280  151.4780 C   0  0  1  0  0  3  0  0  0  0  0  0
  161.2330  206.0520  148.9140 C   0  0  0  0  0  0  0  0  0  0  0  0
  161.5070  202.7110  152.4300 C   0  0  0  0  0  3  0  0  0  0  0  0
  161.1360  201.6500  151.4770 C   0  0  0  0  0  3  0  0  0  0  0  0
  160.7720  205.3760  146.5440 C   0  0  0  0  0  0  0  0  0  0  0  0
  160.5320  204.2510  145.6440 C   0  0  0  0  0  0  0  0  0  0  0  0
  161.4370  208.4830  149.5430 C   0  0  1  0  0  3  0  0  0  0  0  0
  161.3680  206.7890  151.3340 C   0  0  0  0  0  2  0  0  0  0  0  0
  160.2860  202.2440  144.9890 C   0  0  0  0  0  0  0  0  0  0  0  0
  162.1620  209.0800  151.9500 C   0  0  2  0  0  3  0  0  0  0  0  0
  161.3850  204.0010  152.1050 C   0  0  0  0  0  3  0  0  0  0  0  0
  161.2980  205.7220  150.3270 N   0  0  0  0  0  0  0  0  0  0  0  0
  160.7670  204.4350  150.7940 C   0  0  1  0  0  3  0  0  0  0  0  0
  160.8430  203.6590  148.4380 C   0  0  0  0  0  0  0  0  0  0  0  0
  160.1130  203.0800  143.9020 C   0  0  0  0  0  3  0  0  0  0  0  0
  162.3940  210.7150  149.9760 C   0  0  0  0  0  3  0  0  0  0  0  0
  162.1080  208.0170  150.8300 C   0  0  2  0  0  3  0  0  0  0  0  0
  160.2700  204.3560  144.3240 N   0  0  0  0  0  0  0  0  0  0  0  0
  162.0120  209.7870  149.0910 C   0  0  0  0  0  3  0  0  0  0  0  0
  160.9740  210.0350  151.9350 C   0  0  1  0  0  3  0  0  0  0  0  0
  160.8410  201.9440  150.2090 C   0  0  0  0  0  3  0  0  0  0  0  0
  160.8500  203.3510  149.7460 C   0  0  0  0  0  0  0  0  0  0  0  0
  160.8890  202.5350  147.4190 C   0  0  0  0  0  2  0  0  0  0  0  0
  161.6400  207.4370  148.4640 C   0  0  0  0  0  2  0  0  0  0  0  0
  160.7700  206.5480  146.0790 O   0  0  0  0  0  0  0  0  0  0  0  0
  160.2300  200.7560  144.9610 C   0  0  0  0  0  1  0  0  0  0  0  0
  160.9550  205.0880  147.9990 C   0  0  0  0  0  0  0  0  0  0  0  0
  160.5350  202.9860  146.0780 N   0  0  0  0  0  0  0  0  0  0  0  0
  160.7190  210.5060  153.2930 N   0  0  0  0  0  2  0  0  0  0  0  0
  160.1000  211.8350  153.2760 C   0  0  0  0  0  3  0  0  0  0  0  0
  158.9050  211.8950  152.3370 C   0  0  0  0  0  1  0  0  0  0  0  0
  159.7280  212.3090  154.6730 C   0  0  0  0  0  1  0  0  0  0  0  0
  1 16  1  6  0  0  0
  1 20  1  0  0  0  0
  1 10  1  0  0  0  0
  2 12  1  0  0  0  0
  4  3  1  0  0  0  0
  5 27  1  0  0  0  0
  6 28  1  0  0  0  0
  6  5  1  0  0  0  0
  7 24  1  6  0  0  0
  7 17  1  0  0  0  0
  9 28  1  0  0  0  0
 11  3  2  0  0  0  0
 12 13  1  0  0  0  0
 12  8  1  0  0  0  0
 13 11  1  0  0  0  0
 14 22  2  0  0  0  0
 15 18  1  0  0  0  0
 15  9  2  0  0  0  0
 17  8  1  0  0  0  0
 17 10  1  0  0  0  0
 18  6  2  0  0  0  0
 19  7  1  0  0  0  0
 19 16  2  0  0  0  0
 20 10  1  0  0  0  0
 20 29  1  0  0  0  0
 21  4  2  0  0  0  0
 22 21  1  0  0  0  0
 22 13  1  0  0  0  0
 23 14  1  0  0  0  0
 24  2  1  0  0  0  0
 25  5  2  0  0  0  0
 26  9  1  0  0  0  0
 27 14  1  0  0  0  0
 27  2  2  0  0  0  0
 28 23  1  0  0  0  0
 30 29  1  0  0  0  0
 30 32  1  0  0  0  0
 31 30  1  0  0  0  0
M  END
>  <MODEL>
7

>  <REMARK>
 VINA RESULT:      -6.6      2.851      5.167
  Name = 
  2 active torsions:
  status: ('A' for Active; 'I' for Inactive)
    1  A    between atoms: C_20  and  N_29
    2  A    between atoms: N_29  and  C_30
                            x       y       z     vdW  Elec       q    Type
                         _______ _______ _______ _____ _____    ______ ____

>  <TORSDO>
F 2

$$$$
=
 OpenBabel11122412533D

 32 38  0  0  1  0  0  0  0  0999 V2000
  161.7640  202.5810  146.7900 C   0  0  1  0  0  3  0  0  0  0  0  0
  161.3440  206.1900  150.6150 C   0  0  0  0  0  0  0  0  0  0  0  0
  162.6820  210.2860  148.3720 C   0  0  0  0  0  3  0  0  0  0  0  0
  162.4400  211.0610  149.6020 C   0  0  0  0  0  3  0  0  0  0  0  0
  160.7820  206.1980  153.0590 C   0  0  0  0  0  0  0  0  0  0  0  0
  160.6860  207.0170  154.2640 C   0  0  0  0  0  0  0  0  0  0  0  0
  161.1040  204.0890  149.2470 C   0  0  1  0  0  3  0  0  0  0  0  0
  161.5810  206.2160  148.0930 C   0  0  0  0  0  2  0  0  0  0  0  0
  160.7940  208.7290  155.5210 C   0  0  0  0  0  0  0  0  0  0  0  0
  161.9420  204.1040  146.8020 C   0  0  2  0  0  3  0  0  0  0  0  0
  162.2600  209.0230  148.2610 C   0  0  0  0  0  3  0  0  0  0  0  0
  161.6260  206.9110  149.3870 N   0  0  0  0  0  0  0  0  0  0  0  0
  161.4290  208.3650  149.3400 C   0  0  1  0  0  3  0  0  0  0  0  0
  161.4110  208.3460  151.8210 C   0  0  0  0  0  0  0  0  0  0  0  0
  160.3360  207.6650  156.2740 C   0  0  0  0  0  3  0  0  0  0  0  0
  161.6160  201.9380  148.1520 C   0  0  0  0  0  3  0  0  0  0  0  0
  161.9910  204.7570  148.2020 C   0  0  2  0  0  3  0  0  0  0  0  0
  160.2680  206.5790  155.4700 N   0  0  0  0  0  0  0  0  0  0  0  0
  161.3430  202.6140  149.2750 C   0  0  0  0  0  3  0  0  0  0  0  0
  160.5870  203.4930  146.4670 C   0  0  1  0  0  3  0  0  0  0  0  0
  161.9550  210.4710  150.6970 C   0  0  0  0  0  3  0  0  0  0  0  0
  161.6230  209.0280  150.6830 C   0  0  0  0  0  0  0  0  0  0  0  0
  161.5810  209.0620  153.1490 C   0  0  0  0  0  2  0  0  0  0  0  0
  161.4030  204.6790  150.6110 C   0  0  0  0  0  2  0  0  0  0  0  0
  160.4860  204.9740  153.1230 O   0  0  0  0  0  0  0  0  0  0  0  0
  161.0460  210.1080  156.0230 C   0  0  0  0  0  1  0  0  0  0  0  0
  161.1760  206.8660  151.7810 C   0  0  0  0  0  0  0  0  0  0  0  0
  160.9990  208.3180  154.2600 N   0  0  0  0  0  0  0  0  0  0  0  0
  160.3860  203.5310  145.0210 N   0  0  0  0  0  2  0  0  0  0  0  0
  160.2630  204.9130  144.5480 C   0  0  0  0  0  3  0  0  0  0  0  0
  159.6830  205.8300  145.6130 C   0  0  0  0  0  1  0  0  0  0  0  0
  161.5820  205.4530  144.0140 C   0  0  0  0  0  1  0  0  0  0  0  0
  1 10  1  0  0  0  0
  1 16  1  1  0  0  0
  2 27  2  0  0  0  0
  3  4  1  0  0  0  0
  4 21  2  0  0  0  0
  5 25  2  0  0  0  0
  5  6  1  0  0  0  0
  6 18  2  0  0  0  0
  7 19  1  1  0  0  0
  7 24  1  0  0  0  0
  8 17  1  0  0  0  0
  8 12  1  0  0  0  0
  9 26  1  0  0  0  0
  9 15  2  0  0  0  0
 10 17  1  0  0  0  0
 11  3  2  0  0  0  0
 11 13  1  0  0  0  0
 12  2  1  0  0  0  0
 13 12  1  0  0  0  0
 13 22  1  0  0  0  0
 14 23  1  0  0  0  0
 16 19  2  0  0  0  0
 17  7  1  0  0  0  0
 18 15  1  0  0  0  0
 20  1  1  0  0  0  0
 20 10  1  0  0  0  0
 22 21  1  0  0  0  0
 22 14  2  0  0  0  0
 23 28  1  0  0  0  0
 24  2  1  0  0  0  0
 27 14  1  0  0  0  0
 27  5  1  0  0  0  0
 28  6  1  0  0  0  0
 28  9  1  0  0  0  0
 29 20  1  0  0  0  0
 30 29  1  0  0  0  0
 30 31  1  0  0  0  0
 32 30  1  0  0  0  0
M  END
>  <MODEL>
8

>  <REMARK>
 VINA RESULT:      -6.0      1.576      7.825
  Name = 
  2 active torsions:
  status: ('A' for Active; 'I' for Inactive)
    1  A    between atoms: C_20  and  N_29
    2  A    between atoms: N_29  and  C_30
                            x       y       z     vdW  Elec       q    Type
                         _______ _______ _______ _____ _____    ______ ____

>  <TORSDO>
F 2

$$$$
