=
 OpenBabel11122414063D

 28 32  0  0  1  0  0  0  0  0999 V2000
  160.9830  208.8950  156.0580 C   0  0  0  0  0  0  0  0  0  0  0  0
  157.2240  211.3000  154.2160 O   0  0  0  0  0  0  0  0  0  0  0  0
  162.1860  207.9350  150.7630 O   0  0  0  0  0  0  0  0  0  0  0  0
  163.0120  210.7790  156.5030 C   0  0  0  0  0  3  0  0  0  0  0  0
  161.6320  210.2940  151.0460 C   0  0  1  0  0  3  0  0  0  0  0  0
  159.9670  207.8260  155.8160 C   0  0  0  0  0  2  0  0  0  0  0  0
  158.1420  213.0790  155.6450 O   0  0  0  0  0  0  0  0  0  0  0  0
  158.2230  212.4220  154.2960 S   0  0  0  0  0  0  0  0  0  0  0  0
  158.2490  212.9500  151.7390 C   0  0  0  0  0  0  0  0  0  0  0  0
  159.8380  211.8420  154.0210 N   0  0  2  0  0  0  0  0  0  0  0  0
  161.7100  205.5830  153.5180 O   0  0  0  0  0  0  0  0  0  0  0  0
  160.2710  209.8330  152.8990 C   0  0  1  0  0  3  0  0  0  0  0  0
  159.3170  212.2360  151.6210 N   0  0  0  0  0  0  0  0  0  0  0  0
  157.8950  213.6070  153.0280 C   0  0  0  0  0  2  0  0  0  0  0  0
  160.9050  206.4770  153.8860 C   0  0  0  0  0  0  0  0  0  0  0  0
  161.0020  210.0880  155.3050 C   0  0  0  0  0  0  0  0  0  0  0  0
  161.6590  208.8460  151.4570 C   0  0  0  0  0  0  0  0  0  0  0  0
  157.2650  212.9780  150.6220 C   0  0  0  0  0  1  0  0  0  0  0  0
  160.2310  207.3210  152.8600 C   0  0  0  0  0  2  0  0  0  0  0  0
  162.0350  211.0160  155.5340 C   0  0  0  0  0  3  0  0  0  0  0  0
  161.9650  208.6690  157.0330 C   0  0  0  0  0  3  0  0  0  0  0  0
  162.9730  209.6070  157.2570 C   0  0  0  0  0  3  0  0  0  0  0  0
  160.6260  206.6440  155.2770 N   0  0  0  0  0  2  0  0  0  0  0  0
  161.1710  210.8720  152.3620 C   0  0  2  0  0  3  0  0  0  0  0  0
  160.9430  208.5770  152.6700 N   0  0  0  0  0  0  0  0  0  0  0  0
  160.3570  212.1080  152.6400 C   0  0  2  0  0  3  0  0  0  0  0  0
  163.0330  210.7910  150.7430 C   0  0  0  0  0  1  0  0  0  0  0  0
  159.9360  210.3830  154.2660 C   0  0  1  0  0  3  0  0  0  0  0  0
  1 21  1  0  0  0  0
  2  8  2  0  0  0  0
  3 17  2  0  0  0  0
  4 22  1  0  0  0  0
  5 27  1  1  0  0  0
  5 17  1  0  0  0  0
  5 24  1  0  0  0  0
  6  1  1  0  0  0  0
  8  7  2  0  0  0  0
  9 14  1  0  0  0  0
 10 28  1  0  0  0  0
 10  8  1  6  0  0  0
 11 15  2  0  0  0  0
 12 25  1  1  0  0  0
 12 28  1  0  0  0  0
 13  9  2  0  0  0  0
 13 26  1  0  0  0  0
 14  8  1  0  0  0  0
 15 23  1  0  0  0  0
 16 20  1  0  0  0  0
 16  1  2  0  0  0  0
 17 25  1  0  0  0  0
 18  9  1  0  0  0  0
 19 15  1  0  0  0  0
 20  4  2  0  0  0  0
 21 22  2  0  0  0  0
 23  6  1  0  0  0  0
 24 26  1  0  0  0  0
 24 12  1  0  0  0  0
 25 19  1  0  0  0  0
 26 10  1  0  0  0  0
 28 16  1  0  0  0  0
M  END
>  <MODEL>
1

>  <REMARK>
 VINA RESULT:      -3.8      0.000      0.000
  Name = 
  0 active torsions:
  status: ('A' for Active; 'I' for Inactive)
                            x       y       z     vdW  Elec       q    Type
                         _______ _______ _______ _____ _____    ______ ____

>  <TORSDO>
F 0

$$$$
=
 OpenBabel11122414063D

 28 32  0  0  1  0  0  0  0  0999 V2000
  160.6560  209.9380  155.8190 C   0  0  0  0  0  0  0  0  0  0  0  0
  155.9260  210.6820  155.2000 O   0  0  0  0  0  0  0  0  0  0  0  0
  161.0020  211.7440  150.6210 O   0  0  0  0  0  0  0  0  0  0  0  0
  161.6890  212.2500  157.0230 C   0  0  0  0  0  3  0  0  0  0  0  0
  159.5400  213.2270  151.8910 C   0  0  1  0  0  3  0  0  0  0  0  0
  160.1890  208.6880  155.1460 C   0  0  0  0  0  2  0  0  0  0  0  0
  156.2460  212.0000  157.2510 O   0  0  0  0  0  0  0  0  0  0  0  0
  156.3200  212.0250  155.7510 S   0  0  0  0  0  0  0  0  0  0  0  0
  155.5660  213.4070  153.6690 C   0  0  0  0  0  0  0  0  0  0  0  0
  157.9260  212.4600  155.2480 N   0  0  2  0  0  0  0  0  0  0  0  0
  162.2090  208.6290  152.1020 O   0  0  0  0  0  0  0  0  0  0  0  0
  158.9490  211.5070  153.3710 C   0  0  1  0  0  3  0  0  0  0  0  0
  156.7870  213.4110  153.2510 N   0  0  0  0  0  0  0  0  0  0  0  0
  155.2420  213.2720  155.1160 C   0  0  0  0  0  2  0  0  0  0  0  0
  161.1920  208.8030  152.8200 C   0  0  0  0  0  0  0  0  0  0  0  0
  159.9870  211.1690  155.6510 C   0  0  0  0  0  0  0  0  0  0  0  0
  160.2880  211.9450  151.6410 C   0  0  0  0  0  0  0  0  0  0  0  0
  154.4580  213.3650  152.6750 C   0  0  0  0  0  1  0  0  0  0  0  0
  160.0140  209.5220  152.2590 C   0  0  0  0  0  2  0  0  0  0  0  0
  160.5270  212.3200  156.2530 C   0  0  0  0  0  3  0  0  0  0  0  0
  161.8190  209.8760  156.6000 C   0  0  0  0  0  3  0  0  0  0  0  0
  162.3330  211.0260  157.2010 C   0  0  0  0  0  3  0  0  0  0  0  0
  161.1700  208.2790  154.1490 N   0  0  0  0  0  2  0  0  0  0  0  0
  159.1620  212.9660  153.3290 C   0  0  2  0  0  3  0  0  0  0  0  0
  160.0410  210.9300  152.6230 N   0  0  0  0  0  0  0  0  0  0  0  0
  157.9670  213.4390  154.1140 C   0  0  2  0  0  3  0  0  0  0  0  0
  160.4780  214.4170  151.8260 C   0  0  0  0  0  1  0  0  0  0  0  0
  158.7060  211.2670  154.8430 C   0  0  1  0  0  3  0  0  0  0  0  0
  1 21  1  0  0  0  0
  2  8  2  0  0  0  0
  3 17  2  0  0  0  0
  4 22  1  0  0  0  0
  5 27  1  1  0  0  0
  5 24  1  0  0  0  0
  6  1  1  0  0  0  0
  8  7  2  0  0  0  0
  9 14  1  0  0  0  0
 10  8  1  6  0  0  0
 11 15  2  0  0  0  0
 12 25  1  1  0  0  0
 12 28  1  0  0  0  0
 13  9  2  0  0  0  0
 13 26  1  0  0  0  0
 14  8  1  0  0  0  0
 15 23  1  0  0  0  0
 16  1  2  0  0  0  0
 16 20  1  0  0  0  0
 17  5  1  0  0  0  0
 17 25  1  0  0  0  0
 18  9  1  0  0  0  0
 19 25  1  0  0  0  0
 19 15  1  0  0  0  0
 20  4  2  0  0  0  0
 21 22  2  0  0  0  0
 23  6  1  0  0  0  0
 24 12  1  0  0  0  0
 24 26  1  0  0  0  0
 26 10  1  0  0  0  0
 28 10  1  0  0  0  0
 28 16  1  0  0  0  0
M  END
>  <MODEL>
2

>  <REMARK>
 VINA RESULT:      -2.4      2.071      2.720
  Name = 
  0 active torsions:
  status: ('A' for Active; 'I' for Inactive)
                            x       y       z     vdW  Elec       q    Type
                         _______ _______ _______ _____ _____    ______ ____

>  <TORSDO>
F 0

$$$$
