=
 OpenBabel11122412343D

 30 35  0  0  1  0  0  0  0  0999 V2000
  161.4620  206.1290  149.8400 C   0  0  1  0  0  3  0  0  0  0  0  0
  161.0610  203.6220  149.5380 C   0  0  0  0  0  0  0  0  0  0  0  0
  161.1330  205.6010  154.0230 O   0  0  0  0  0  0  0  0  0  0  0  0
  161.8240  207.2270  150.8620 C   0  0  1  0  0  3  0  0  0  0  0  0
  162.3770  206.2150  148.7020 N   0  0  0  0  0  2  0  0  0  0  0  0
  161.9710  209.8830  148.2440 O   0  0  0  0  0  1  0  0  0  0  0  0
  160.4000  209.9760  152.0350 C   0  0  1  0  0  3  0  0  0  0  0  0
  162.2980  208.7060  148.9220 C   0  0  2  0  0  3  0  0  0  0  0  0
  160.2570  209.0450  153.2580 C   0  0  2  0  0  3  0  0  0  0  0  0
  160.9970  206.9160  154.4380 C   0  0  0  0  0  0  0  0  0  0  0  0
  162.1450  207.4830  147.9880 C   0  0  2  0  0  3  0  0  0  0  0  0
  161.4580  208.5580  150.2000 C   0  0  2  0  0  3  0  0  0  0  0  0
  160.8310  202.3490  150.0680 C   0  0  0  0  0  3  0  0  0  0  0  0
  160.3760  209.9490  154.4710 C   0  0  0  0  0  2  0  0  0  0  0  0
  160.3700  211.4010  152.5580 C   0  0  0  0  0  2  0  0  0  0  0  0
  161.0150  203.7960  148.1610 O   0  0  0  0  0  1  0  0  0  0  0  0
  161.6160  205.6380  152.6970 C   0  0  2  0  0  3  0  0  0  0  0  0
  160.8380  202.1440  151.4490 C   0  0  0  0  0  3  0  0  0  0  0  0
  161.3210  204.7100  150.3970 C   0  0  0  0  0  0  0  0  0  0  0  0
  161.0770  206.9400  152.1490 C   0  0  1  0  0  3  0  0  0  0  0  0
  160.7350  207.2340  155.6280 O   0  0  0  0  0  0  0  0  0  0  0  0
  161.2600  207.8880  153.3250 C   0  0  1  0  0  3  0  0  0  0  0  0
  159.9260  211.3120  154.0010 C   0  0  0  0  0  2  0  0  0  0  0  0
  162.8260  209.7780  151.8090 O   0  0  0  0  0  1  0  0  0  0  0  0
  161.0620  203.2160  152.3140 C   0  0  0  0  0  3  0  0  0  0  0  0
  161.2680  204.4990  151.7990 C   0  0  0  0  0  0  0  0  0  0  0  0
  161.6130  209.7810  151.1120 C   0  0  2  0  0  3  0  0  0  0  0  0
  160.7970  207.4670  147.2640 C   0  0  0  0  0  2  0  0  0  0  0  0
  160.4120  206.3450  145.4060 C   0  0  0  0  0  1  0  0  0  0  0  0
  160.5290  206.1850  146.7850 O   0  0  0  0  0  0  0  0  0  0  0  0
  1  5  1  6  0  0  0
  1 19  1  0  0  0  0
  1  4  1  0  0  0  0
  2 13  2  0  0  0  0
  2 19  1  0  0  0  0
  3 10  1  0  0  0  0
  4 20  1  0  0  0  0
  6  8  1  0  0  0  0
  7 15  1  0  0  0  0
  7  9  1  0  0  0  0
  8 12  1  0  0  0  0
  9 22  1  0  0  0  0
  9 14  1  0  0  0  0
 10 21  2  0  0  0  0
 11  5  1  0  0  0  0
 11  8  1  0  0  0  0
 12  4  1  0  0  0  0
 12 27  1  0  0  0  0
 13 18  1  0  0  0  0
 15 23  1  0  0  0  0
 16  2  1  0  0  0  0
 17  3  1  0  0  0  0
 18 25  2  0  0  0  0
 19 26  2  0  0  0  0
 20 17  1  0  0  0  0
 20 22  1  0  0  0  0
 22 10  1  0  0  0  0
 23 14  1  0  0  0  0
 26 25  1  0  0  0  0
 26 17  1  0  0  0  0
 27 24  1  0  0  0  0
 27  7  1  0  0  0  0
 28 11  1  0  0  0  0
 29 30  1  0  0  0  0
 30 28  1  0  0  0  0
M  END
>  <MODEL>
1

>  <REMARK>
 VINA RESULT:      -9.5      0.000      0.000
  Name = 
  2 active torsions:
  status: ('A' for Active; 'I' for Inactive)
    1  A    between atoms: C_11  and  C_28
    2  A    between atoms: C_28  and  O_30
                            x       y       z     vdW  Elec       q    Type
                         _______ _______ _______ _____ _____    ______ ____

>  <TORSDO>
F 2

$$$$
=
 OpenBabel11122412343D

 30 35  0  0  1  0  0  0  0  0999 V2000
  161.0000  209.7930  152.1710 C   0  0  1  0  0  3  0  0  0  0  0  0
  160.6220  212.1840  151.3490 C   0  0  0  0  0  0  0  0  0  0  0  0
  162.2000  208.7190  148.2610 O   0  0  0  0  0  0  0  0  0  0  0  0
  161.6560  208.4380  151.8310 C   0  0  1  0  0  3  0  0  0  0  0  0
  161.4470  210.2200  153.4970 N   0  0  0  0  0  2  0  0  0  0  0  0
  160.7550  206.9530  155.1330 O   0  0  0  0  0  1  0  0  0  0  0  0
  160.6300  205.3250  151.3670 C   0  0  1  0  0  3  0  0  0  0  0  0
  161.3500  207.8270  154.2190 C   0  0  2  0  0  3  0  0  0  0  0  0
  160.9690  205.7250  149.9150 C   0  0  2  0  0  3  0  0  0  0  0  0
  162.1670  207.3360  148.3530 C   0  0  0  0  0  0  0  0  0  0  0  0
  160.9250  209.2850  154.5090 C   0  0  2  0  0  3  0  0  0  0  0  0
  161.0250  207.4130  152.7750 C   0  0  2  0  0  3  0  0  0  0  0  0
  160.6480  213.1460  150.3350 C   0  0  0  0  0  3  0  0  0  0  0  0
  161.4740  204.4570  149.2530 C   0  0  0  0  0  2  0  0  0  0  0  0
  160.7300  203.8120  151.4440 C   0  0  0  0  0  2  0  0  0  0  0  0
  160.0820  212.5230  152.5840 O   0  0  0  0  0  1  0  0  0  0  0  0
  162.1790  209.2170  149.5820 C   0  0  2  0  0  3  0  0  0  0  0  0
  161.1530  212.8310  149.0720 C   0  0  0  0  0  3  0  0  0  0  0  0
  161.1250  210.8880  151.1100 C   0  0  0  0  0  0  0  0  0  0  0  0
  161.4270  208.1600  150.3590 C   0  0  1  0  0  3  0  0  0  0  0  0
  162.3310  206.5820  147.3590 O   0  0  0  0  0  0  0  0  0  0  0  0
  161.9770  206.8700  149.7660 C   0  0  1  0  0  3  0  0  0  0  0  0
  160.8310  203.3230  150.0160 C   0  0  0  0  0  2  0  0  0  0  0  0
  162.8230  205.8300  152.3210 O   0  0  0  0  0  1  0  0  0  0  0  0
  161.6250  211.5440  148.8080 C   0  0  0  0  0  3  0  0  0  0  0  0
  161.5820  210.5660  149.8060 C   0  0  0  0  0  0  0  0  0  0  0  0
  161.4430  205.9630  152.5040 C   0  0  2  0  0  3  0  0  0  0  0  0
  159.4100  209.4320  154.6630 C   0  0  0  0  0  2  0  0  0  0  0  0
  158.1290  211.0790  155.3760 C   0  0  0  0  0  1  0  0  0  0  0  0
  159.1180  210.1910  155.7960 O   0  0  0  0  0  0  0  0  0  0  0  0
  1 19  1  6  0  0  0
  1  5  1  0  0  0  0
  2 16  1  0  0  0  0
  3 10  1  0  0  0  0
  3 17  1  0  0  0  0
  4  1  1  0  0  0  0
  4 12  1  0  0  0  0
  5 11  1  0  0  0  0
  7 15  1  0  0  0  0
  7 27  1  0  0  0  0
  8 11  1  0  0  0  0
  8  6  1  0  0  0  0
  9  7  1  0  0  0  0
 10 22  1  0  0  0  0
 11 28  1  0  0  0  0
 12  8  1  0  0  0  0
 13  2  2  0  0  0  0
 14  9  1  0  0  0  0
 14 23  1  0  0  0  0
 17 26  1  0  0  0  0
 17 20  1  0  0  0  0
 18 13  1  0  0  0  0
 19  2  1  0  0  0  0
 20  4  1  0  0  0  0
 21 10  2  0  0  0  0
 22  9  1  0  0  0  0
 22 20  1  0  0  0  0
 23 15  1  0  0  0  0
 24 27  1  0  0  0  0
 25 18  2  0  0  0  0
 25 26  1  0  0  0  0
 26 19  2  0  0  0  0
 27 12  1  0  0  0  0
 28 30  1  0  0  0  0
 29 30  1  0  0  0  0
M  END
>  <MODEL>
2

>  <REMARK>
 VINA RESULT:      -8.5      2.094      7.150
  Name = 
  2 active torsions:
  status: ('A' for Active; 'I' for Inactive)
    1  A    between atoms: C_11  and  C_28
    2  A    between atoms: C_28  and  O_30
                            x       y       z     vdW  Elec       q    Type
                         _______ _______ _______ _____ _____    ______ ____

>  <TORSDO>
F 2

$$$$
=
 OpenBabel11122412343D

 30 35  0  0  1  0  0  0  0  0999 V2000
  161.6090  208.0570  149.5500 C   0  0  1  0  0  3  0  0  0  0  0  0
  161.3420  205.9980  148.0580 C   0  0  0  0  0  0  0  0  0  0  0  0
  161.0710  205.5790  152.9350 O   0  0  0  0  0  0  0  0  0  0  0  0
  161.8620  208.5330  150.9960 C   0  0  1  0  0  3  0  0  0  0  0  0
  162.5810  208.6910  148.6610 N   0  0  0  0  0  2  0  0  0  0  0  0
  162.0320  212.1220  149.9860 O   0  0  0  0  0  1  0  0  0  0  0  0
  160.2490  210.3600  153.2370 C   0  0  1  0  0  3  0  0  0  0  0  0
  162.3750  210.7680  150.0400 C   0  0  2  0  0  3  0  0  0  0  0  0
  160.0820  208.9540  153.8510 C   0  0  2  0  0  3  0  0  0  0  0  0
  160.8520  206.5300  153.9180 C   0  0  0  0  0  0  0  0  0  0  0  0
  162.3310  210.1430  148.6260 C   0  0  2  0  0  3  0  0  0  0  0  0
  161.4720  210.0130  151.0280 C   0  0  2  0  0  3  0  0  0  0  0  0
  161.1420  204.6240  147.8960 C   0  0  0  0  0  3  0  0  0  0  0  0
  160.0910  209.1650  155.3540 C   0  0  0  0  0  2  0  0  0  0  0  0
  160.1240  211.3570  154.3750 C   0  0  0  0  0  2  0  0  0  0  0  0
  161.3650  206.8120  146.9320 O   0  0  0  0  0  1  0  0  0  0  0  0
  161.6260  206.2550  151.8270 C   0  0  2  0  0  3  0  0  0  0  0  0
  161.0810  203.7800  149.0070 C   0  0  0  0  0  3  0  0  0  0  0  0
  161.5030  206.5430  149.3490 C   0  0  0  0  0  0  0  0  0  0  0  0
  161.0580  207.6530  151.9320 C   0  0  1  0  0  3  0  0  0  0  0  0
  160.5090  206.2330  155.0920 O   0  0  0  0  0  0  0  0  0  0  0  0
  161.1310  207.9210  153.4280 C   0  0  1  0  0  3  0  0  0  0  0  0
  159.6050  210.5790  155.5630 C   0  0  0  0  0  2  0  0  0  0  0  0
  162.6900  210.3290  153.1170 O   0  0  0  0  0  1  0  0  0  0  0  0
  161.2060  204.3070  150.2930 C   0  0  0  0  0  3  0  0  0  0  0  0
  161.3820  205.6830  150.4710 C   0  0  0  0  0  0  0  0  0  0  0  0
  161.5190  210.6490  152.4220 C   0  0  2  0  0  3  0  0  0  0  0  0
  161.0280  210.4590  147.8890 C   0  0  0  0  0  2  0  0  0  0  0  0
  159.9470  212.2250  147.1330 C   0  0  0  0  0  1  0  0  0  0  0  0
  161.1910  211.5980  147.1010 O   0  0  0  0  0  0  0  0  0  0  0  0
  1  5  1  6  0  0  0
  1  4  1  0  0  0  0
  2 19  1  0  0  0  0
  3 10  1  0  0  0  0
  4 12  1  0  0  0  0
  4 20  1  0  0  0  0
  6  8  1  0  0  0  0
  7  9  1  0  0  0  0
  7 15  1  0  0  0  0
  8 12  1  0  0  0  0
  9 14  1  0  0  0  0
 10 21  2  0  0  0  0
 11  5  1  0  0  0  0
 11  8  1  0  0  0  0
 12 27  1  0  0  0  0
 13  2  2  0  0  0  0
 13 18  1  0  0  0  0
 14 23  1  0  0  0  0
 15 23  1  0  0  0  0
 16  2  1  0  0  0  0
 17 20  1  0  0  0  0
 17  3  1  0  0  0  0
 18 25  2  0  0  0  0
 19  1  1  0  0  0  0
 19 26  2  0  0  0  0
 20 22  1  0  0  0  0
 22  9  1  0  0  0  0
 22 10  1  0  0  0  0
 25 26  1  0  0  0  0
 26 17  1  0  0  0  0
 27 24  1  0  0  0  0
 27  7  1  0  0  0  0
 28 11  1  0  0  0  0
 30 29  1  0  0  0  0
 30 28  1  0  0  0  0
M  END
>  <MODEL>
3

>  <REMARK>
 VINA RESULT:      -6.9      1.588      2.463
  Name = 
  2 active torsions:
  status: ('A' for Active; 'I' for Inactive)
    1  A    between atoms: C_11  and  C_28
    2  A    between atoms: C_28  and  O_30
                            x       y       z     vdW  Elec       q    Type
                         _______ _______ _______ _____ _____    ______ ____

>  <TORSDO>
F 2

$$$$
