=
 OpenBabel11122412333D

 30 35  0  0  1  0  0  0  0  0999 V2000
  161.4250  204.1450  147.2240 C   0  0  1  0  0  3  0  0  0  0  0  0
  160.8930  202.0380  145.9110 C   0  0  0  0  0  0  0  0  0  0  0  0
  160.7540  201.8060  150.7730 C   0  0  0  0  0  2  0  0  0  0  0  0
  161.7150  204.6150  148.6570 C   0  0  1  0  0  3  0  0  0  0  0  0
  162.2470  204.8270  146.3020 O   0  0  0  0  0  0  0  0  0  0  0  0
  161.8700  208.1190  147.5650 O   0  0  0  0  0  0  0  0  0  0  0  0
  160.6410  206.7020  150.9240 C   0  0  1  0  0  3  0  0  0  0  0  0
  161.8040  206.8610  147.5190 C   0  0  0  0  0  0  0  0  0  0  0  0
  160.5430  205.4090  151.7260 C   0  0  2  0  0  3  0  0  0  0  0  0
  161.0520  202.9480  151.6500 C   0  0  0  0  0  0  0  0  0  0  0  0
  161.8080  206.1670  146.1900 C   0  0  2  0  0  3  0  0  0  0  0  0
  161.6920  206.0850  148.7240 N   0  0  0  0  0  0  0  0  0  0  0  0
  160.8170  200.6510  145.8060 O   0  0  0  0  0  0  0  0  0  0  0  0
  161.3370  205.6810  152.9880 C   0  0  0  0  0  2  0  0  0  0  0  0
  160.7050  207.8090  151.9690 C   0  0  0  0  0  2  0  0  0  0  0  0
  160.3680  202.7620  145.0240 O   0  0  0  0  0  0  0  0  0  0  0  0
  160.5210  202.4490  149.4080 C   0  0  1  0  0  3  0  0  0  0  0  0
  161.4620  199.8310  146.7710 C   0  0  0  0  0  2  0  0  0  0  0  0
  161.6430  202.6370  147.0730 C   0  0  2  0  0  3  0  0  0  0  0  0
  160.6710  203.9850  149.5970 C   0  0  1  0  0  3  0  0  0  0  0  0
  161.2920  202.8120  152.8790 O   0  0  0  0  0  0  0  0  0  0  0  0
  161.0040  204.2120  151.0040 N   0  0  0  0  0  0  0  0  0  0  0  0
  161.1220  207.1550  153.2800 C   0  0  0  0  0  2  0  0  0  0  0  0
  163.0450  207.0550  150.4230 C   0  0  0  0  0  2  0  0  0  0  0  0
  161.1120  200.3310  148.1690 C   0  0  0  0  0  2  0  0  0  0  0  0
  161.4780  201.8160  148.3820 C   0  0  2  0  0  3  0  0  0  0  0  0
  161.8250  206.7320  149.9920 C   0  0  0  0  0  0  0  0  0  0  0  0
  160.4550  206.2850  145.4920 C   0  0  0  0  0  2  0  0  0  0  0  0
  161.5520  205.7910  143.3310 C   0  0  0  0  0  1  0  0  0  0  0  0
  160.4240  205.3990  144.2630 C   0  0  0  0  0  2  0  0  0  0  0  0
  1  5  1  6  0  0  0
  1  4  1  0  0  0  0
  3 10  1  0  0  0  0
  4 12  1  6  0  0  0
  4 20  1  0  0  0  0
  7  9  1  0  0  0  0
  7 15  1  1  0  0  0
  8  6  2  0  0  0  0
  8 12  1  0  0  0  0
  9 14  1  1  0  0  0
 10 21  2  0  0  0  0
 11 28  1  1  0  0  0
 11  5  1  0  0  0  0
 11  8  1  0  0  0  0
 12 27  1  0  0  0  0
 13  2  1  0  0  0  0
 13 18  1  0  0  0  0
 14 23  1  0  0  0  0
 15 23  1  0  0  0  0
 16  2  2  0  0  0  0
 17 20  1  0  0  0  0
 17  3  1  1  0  0  0
 18 25  1  0  0  0  0
 19  2  1  6  0  0  0
 19  1  1  0  0  0  0
 19 26  1  0  0  0  0
 20 22  1  1  0  0  0
 22 10  1  0  0  0  0
 22  9  1  0  0  0  0
 26 25  1  6  0  0  0
 26 17  1  0  0  0  0
 27 24  2  0  0  0  0
 27  7  1  0  0  0  0
 29 30  1  0  0  0  0
 30 28  1  0  0  0  0
M  END
>  <MODEL>
1

>  <REMARK>
 VINA RESULT:      -8.0      0.000      0.000
  Name = 
  2 active torsions:
  status: ('A' for Active; 'I' for Inactive)
    1  A    between atoms: C_11  and  C_28
    2  A    between atoms: C_28  and  C_30
                            x       y       z     vdW  Elec       q    Type
                         _______ _______ _______ _____ _____    ______ ____

>  <TORSDO>
F 2

$$$$
=
 OpenBabel11122412333D

 30 35  0  0  1  0  0  0  0  0999 V2000
  161.5510  207.7380  151.6350 C   0  0  1  0  0  3  0  0  0  0  0  0
  161.4620  210.2140  151.0790 C   0  0  0  0  0  0  0  0  0  0  0  0
  161.5080  207.0350  147.3900 C   0  0  0  0  0  2  0  0  0  0  0  0
  161.7680  206.3730  150.9660 C   0  0  1  0  0  3  0  0  0  0  0  0
  162.1770  207.7760  152.8990 O   0  0  0  0  0  0  0  0  0  0  0  0
  161.1160  204.6250  154.1300 O   0  0  0  0  0  0  0  0  0  0  0  0
  160.3210  203.4780  150.5450 C   0  0  1  0  0  3  0  0  0  0  0  0
  161.3280  205.5570  153.3080 C   0  0  0  0  0  0  0  0  0  0  0  0
  160.5320  203.8540  149.0820 C   0  0  2  0  0  3  0  0  0  0  0  0
  161.5690  205.5770  147.5740 C   0  0  0  0  0  0  0  0  0  0  0  0
  161.4500  206.9670  153.8030 C   0  0  2  0  0  3  0  0  0  0  0  0
  161.4220  205.2890  151.8990 N   0  0  0  0  0  0  0  0  0  0  0  0
  161.6920  211.2790  150.2120 O   0  0  0  0  0  0  0  0  0  0  0  0
  161.2790  202.6760  148.4890 C   0  0  0  0  0  2  0  0  0  0  0  0
  160.1660  201.9630  150.5440 C   0  0  0  0  0  2  0  0  0  0  0  0
  160.7670  210.3890  152.1140 O   0  0  0  0  0  0  0  0  0  0  0  0
  161.1020  207.5570  148.7660 C   0  0  1  0  0  3  0  0  0  0  0  0
  162.5280  211.1020  149.0750 C   0  0  0  0  0  2  0  0  0  0  0  0
  162.0920  208.8790  150.7700 C   0  0  2  0  0  3  0  0  0  0  0  0
  160.9140  206.3160  149.6860 C   0  0  1  0  0  3  0  0  0  0  0  0
  161.8660  204.7900  146.6370 O   0  0  0  0  0  0  0  0  0  0  0  0
  161.2260  205.1360  148.8790 N   0  0  0  0  0  0  0  0  0  0  0  0
  160.7520  201.4600  149.2310 C   0  0  0  0  0  2  0  0  0  0  0  0
  162.5720  203.2350  151.5550 C   0  0  0  0  0  2  0  0  0  0  0  0
  162.1120  209.8300  148.3420 C   0  0  0  0  0  2  0  0  0  0  0  0
  162.1480  208.5790  149.2470 C   0  0  2  0  0  3  0  0  0  0  0  0
  161.4430  203.9350  151.4400 C   0  0  0  0  0  0  0  0  0  0  0  0
  160.0860  207.5580  154.1540 C   0  0  0  0  0  2  0  0  0  0  0  0
  160.0090  207.1610  156.5930 C   0  0  0  0  0  1  0  0  0  0  0  0
  160.1400  208.2180  155.5170 C   0  0  0  0  0  2  0  0  0  0  0  0
  1  5  1  1  0  0  0
  2 16  2  0  0  0  0
  3 10  1  0  0  0  0
  4  1  1  0  0  0  0
  4 12  1  1  0  0  0
  5 11  1  0  0  0  0
  7 15  1  6  0  0  0
  7 27  1  0  0  0  0
  8 11  1  0  0  0  0
  8  6  2  0  0  0  0
  9 14  1  1  0  0  0
  9  7  1  0  0  0  0
 10 22  1  0  0  0  0
 11 28  1  6  0  0  0
 12  8  1  0  0  0  0
 13  2  1  0  0  0  0
 14 23  1  0  0  0  0
 17  3  1  6  0  0  0
 17 26  1  0  0  0  0
 17 20  1  0  0  0  0
 18 13  1  0  0  0  0
 19  2  1  6  0  0  0
 19  1  1  0  0  0  0
 20 22  1  6  0  0  0
 20  4  1  0  0  0  0
 21 10  2  0  0  0  0
 22  9  1  0  0  0  0
 23 15  1  0  0  0  0
 25 18  1  0  0  0  0
 26 25  1  6  0  0  0
 26 19  1  0  0  0  0
 27 24  2  0  0  0  0
 27 12  1  0  0  0  0
 28 30  1  0  0  0  0
 30 29  1  0  0  0  0
M  END
>  <MODEL>
2

>  <REMARK>
 VINA RESULT:      -7.7      2.297      7.327
  Name = 
  2 active torsions:
  status: ('A' for Active; 'I' for Inactive)
    1  A    between atoms: C_11  and  C_28
    2  A    between atoms: C_28  and  C_30
                            x       y       z     vdW  Elec       q    Type
                         _______ _______ _______ _____ _____    ______ ____

>  <TORSDO>
F 2

$$$$
=
 OpenBabel11122412333D

 30 35  0  0  1  0  0  0  0  0999 V2000
  161.6470  206.1450  149.9290 C   0  0  1  0  0  3  0  0  0  0  0  0
  161.2140  203.6590  149.6520 C   0  0  0  0  0  0  0  0  0  0  0  0
  160.6110  205.6140  154.0710 C   0  0  0  0  0  2  0  0  0  0  0  0
  161.8060  207.2130  151.0200 C   0  0  1  0  0  3  0  0  0  0  0  0
  162.5620  206.3690  148.8780 O   0  0  0  0  0  0  0  0  0  0  0  0
  162.1120  209.8660  148.4980 O   0  0  0  0  0  0  0  0  0  0  0  0
  160.5510  210.0590  152.0090 C   0  0  1  0  0  3  0  0  0  0  0  0
  162.0330  208.7180  149.0130 C   0  0  0  0  0  0  0  0  0  0  0  0
  160.3590  209.2560  153.2910 C   0  0  2  0  0  3  0  0  0  0  0  0
  160.8390  207.0360  154.3680 C   0  0  0  0  0  0  0  0  0  0  0  0
  162.1540  207.5050  148.1400 C   0  0  2  0  0  3  0  0  0  0  0  0
  161.7970  208.5570  150.4220 N   0  0  0  0  0  0  0  0  0  0  0  0
  161.1290  202.3690  150.1710 O   0  0  0  0  0  0  0  0  0  0  0  0
  161.0330  210.0850  154.3650 C   0  0  0  0  0  2  0  0  0  0  0  0
  160.5300  211.5170  152.4510 C   0  0  0  0  0  2  0  0  0  0  0  0
  160.7850  203.8950  148.4910 O   0  0  0  0  0  0  0  0  0  0  0  0
  160.5170  205.5740  152.5480 C   0  0  1  0  0  3  0  0  0  0  0  0
  161.6680  202.0840  151.4550 C   0  0  0  0  0  2  0  0  0  0  0  0
  161.8580  204.7350  150.4870 C   0  0  2  0  0  3  0  0  0  0  0  0
  160.6690  207.0370  152.0440 C   0  0  1  0  0  3  0  0  0  0  0  0
  160.9600  207.4690  155.5450 O   0  0  0  0  0  0  0  0  0  0  0  0
  160.8700  207.8770  153.2250 N   0  0  0  0  0  0  0  0  0  0  0  0
  160.8110  211.5280  153.9470 C   0  0  0  0  0  2  0  0  0  0  0  0
  162.9950  210.2240  151.6240 C   0  0  0  0  0  2  0  0  0  0  0  0
  161.1930  203.1440  152.4440 C   0  0  0  0  0  2  0  0  0  0  0  0
  161.5580  204.5790  152.0040 C   0  0  2  0  0  3  0  0  0  0  0  0
  161.8180  209.7050  151.2740 C   0  0  0  0  0  0  0  0  0  0  0  0
  160.8750  207.2580  147.3430 C   0  0  0  0  0  2  0  0  0  0  0  0
  160.0230  206.2080  145.2730 C   0  0  0  0  0  1  0  0  0  0  0  0
  161.0920  206.1400  146.3430 C   0  0  0  0  0  2  0  0  0  0  0  0
  1  5  1  6  0  0  0
  1 19  1  0  0  0  0
  1  4  1  0  0  0  0
  2 13  1  0  0  0  0
  3 10  1  0  0  0  0
  4 12  1  6  0  0  0
  4 20  1  0  0  0  0
  6  8  2  0  0  0  0
  7 15  1  1  0  0  0
  7  9  1  0  0  0  0
  8 12  1  0  0  0  0
  9 14  1  1  0  0  0
 10 21  2  0  0  0  0
 11 28  1  1  0  0  0
 11  5  1  0  0  0  0
 11  8  1  0  0  0  0
 12 27  1  0  0  0  0
 13 18  1  0  0  0  0
 15 23  1  0  0  0  0
 16  2  2  0  0  0  0
 17  3  1  1  0  0  0
 18 25  1  0  0  0  0
 19  2  1  6  0  0  0
 19 26  1  0  0  0  0
 20 17  1  0  0  0  0
 20 22  1  1  0  0  0
 22  9  1  0  0  0  0
 22 10  1  0  0  0  0
 23 14  1  0  0  0  0
 26 25  1  6  0  0  0
 26 17  1  0  0  0  0
 27 24  2  0  0  0  0
 27  7  1  0  0  0  0
 29 30  1  0  0  0  0
 30 28  1  0  0  0  0
M  END
>  <MODEL>
3

>  <REMARK>
 VINA RESULT:      -7.6      2.397      3.892
  Name = 
  2 active torsions:
  status: ('A' for Active; 'I' for Inactive)
    1  A    between atoms: C_11  and  C_28
    2  A    between atoms: C_28  and  C_30
                            x       y       z     vdW  Elec       q    Type
                         _______ _______ _______ _____ _____    ______ ____

>  <TORSDO>
F 2

$$$$
=
 OpenBabel11122412333D

 30 35  0  0  1  0  0  0  0  0999 V2000
  161.7110  208.0780  148.7450 C   0  0  1  0  0  3  0  0  0  0  0  0
  161.3040  206.3530  146.9270 C   0  0  0  0  0  0  0  0  0  0  0  0
  160.8310  204.9510  151.5660 C   0  0  0  0  0  2  0  0  0  0  0  0
  161.8940  208.1870  150.2660 C   0  0  1  0  0  3  0  0  0  0  0  0
  162.5850  208.9620  148.0760 O   0  0  0  0  0  0  0  0  0  0  0  0
  162.0700  211.8510  150.0670 O   0  0  0  0  0  0  0  0  0  0  0  0
  160.6330  209.6640  152.8880 C   0  0  1  0  0  3  0  0  0  0  0  0
  162.0260  210.6410  149.7140 C   0  0  0  0  0  0  0  0  0  0  0  0
  160.4990  208.2160  153.3440 C   0  0  2  0  0  3  0  0  0  0  0  0
  161.0490  205.8460  152.7120 C   0  0  0  0  0  0  0  0  0  0  0  0
  162.1340  210.2900  148.2610 C   0  0  2  0  0  3  0  0  0  0  0  0
  161.8430  209.5970  150.6850 N   0  0  0  0  0  0  0  0  0  0  0  0
  161.2580  205.0340  146.4850 O   0  0  0  0  0  0  0  0  0  0  0  0
  161.1980  208.1720  154.6880 C   0  0  0  0  0  2  0  0  0  0  0  0
  160.6060  210.4850  154.1720 C   0  0  0  0  0  2  0  0  0  0  0  0
  160.8310  207.2710  146.2060 O   0  0  0  0  0  0  0  0  0  0  0  0
  160.6840  205.9050  150.3840 C   0  0  1  0  0  3  0  0  0  0  0  0
  161.8470  204.0020  147.2660 C   0  0  0  0  0  2  0  0  0  0  0  0
  161.9630  206.6520  148.2500 C   0  0  2  0  0  3  0  0  0  0  0  0
  160.7970  207.3500  150.9500 C   0  0  1  0  0  3  0  0  0  0  0  0
  161.2060  205.4160  153.8860 O   0  0  0  0  0  0  0  0  0  0  0  0
  161.0280  207.2280  152.3890 N   0  0  0  0  0  0  0  0  0  0  0  0
  160.9410  209.5320  155.3120 C   0  0  0  0  0  2  0  0  0  0  0  0
  163.0590  210.1240  152.6600 C   0  0  0  0  0  2  0  0  0  0  0  0
  161.3920  204.1500  148.7150 C   0  0  0  0  0  2  0  0  0  0  0  0
  161.7200  205.5380  149.3060 C   0  0  2  0  0  3  0  0  0  0  0  0
  161.8780  209.9170  152.0780 C   0  0  0  0  0  0  0  0  0  0  0  0
  160.8310  210.5760  147.5170 C   0  0  0  0  0  2  0  0  0  0  0  0
  159.8740  212.2010  145.9180 C   0  0  0  0  0  1  0  0  0  0  0  0
  160.7590  212.0410  147.1360 C   0  0  0  0  0  2  0  0  0  0  0  0
  1  5  1  6  0  0  0
  1  4  1  0  0  0  0
  3 10  1  0  0  0  0
  4 12  1  1  0  0  0
  4 20  1  0  0  0  0
  5 11  1  0  0  0  0
  7  9  1  0  0  0  0
  7 15  1  1  0  0  0
  8  6  2  0  0  0  0
  8 12  1  0  0  0  0
  9 14  1  1  0  0  0
 10 21  2  0  0  0  0
 11 28  1  1  0  0  0
 11  8  1  0  0  0  0
 12 27  1  0  0  0  0
 13  2  1  0  0  0  0
 13 18  1  0  0  0  0
 14 23  1  0  0  0  0
 15 23  1  0  0  0  0
 16  2  2  0  0  0  0
 17 20  1  0  0  0  0
 17  3  1  1  0  0  0
 18 25  1  0  0  0  0
 19  2  1  6  0  0  0
 19  1  1  0  0  0  0
 19 26  1  0  0  0  0
 20 22  1  1  0  0  0
 22 10  1  0  0  0  0
 22  9  1  0  0  0  0
 26 25  1  6  0  0  0
 26 17  1  0  0  0  0
 27 24  2  0  0  0  0
 27  7  1  0  0  0  0
 29 30  1  0  0  0  0
 30 28  1  0  0  0  0
M  END
>  <MODEL>
4

>  <REMARK>
 VINA RESULT:      -5.8      2.733      4.207
  Name = 
  2 active torsions:
  status: ('A' for Active; 'I' for Inactive)
    1  A    between atoms: C_11  and  C_28
    2  A    between atoms: C_28  and  C_30
                            x       y       z     vdW  Elec       q    Type
                         _______ _______ _______ _____ _____    ______ ____

>  <TORSDO>
F 2

$$$$
=
 OpenBabel11122412333D

 30 35  0  0  1  0  0  0  0  0999 V2000
  159.9340  210.7290  153.5060 C   0  0  1  0  0  3  0  0  0  0  0  0
  160.5360  208.8390  155.0910 C   0  0  0  0  0  0  0  0  0  0  0  0
  162.2470  208.6450  150.5350 C   0  0  0  0  0  2  0  0  0  0  0  0
  160.0010  211.1040  152.0190 C   0  0  1  0  0  3  0  0  0  0  0  0
  158.7220  211.1710  154.0760 O   0  0  0  0  0  0  0  0  0  0  0  0
  158.6410  214.4450  152.7140 O   0  0  0  0  0  0  0  0  0  0  0  0
  161.1740  213.3970  150.0150 C   0  0  1  0  0  3  0  0  0  0  0  0
  159.0010  213.2490  152.8840 C   0  0  0  0  0  0  0  0  0  0  0  0
  161.8390  212.1750  149.3920 C   0  0  2  0  0  3  0  0  0  0  0  0
  161.9640  209.6670  149.5170 C   0  0  0  0  0  0  0  0  0  0  0  0
  158.7540  212.5800  154.2020 C   0  0  2  0  0  3  0  0  0  0  0  0
  159.6760  212.5280  151.8380 N   0  0  0  0  0  0  0  0  0  0  0  0
  160.9190  207.5210  155.3300 O   0  0  0  0  0  0  0  0  0  0  0  0
  161.4400  212.2260  147.9310 C   0  0  0  0  0  2  0  0  0  0  0  0
  161.1670  214.4470  148.9110 C   0  0  0  0  0  2  0  0  0  0  0  0
  160.5580  209.6770  156.0310 O   0  0  0  0  0  0  0  0  0  0  0  0
  161.8720  209.3280  151.8480 C   0  0  1  0  0  3  0  0  0  0  0  0
  160.8370  206.5580  154.2870 C   0  0  0  0  0  2  0  0  0  0  0  0
  160.0640  209.2170  153.7100 C   0  0  2  0  0  3  0  0  0  0  0  0
  161.4100  210.7710  151.4940 C   0  0  1  0  0  3  0  0  0  0  0  0
  162.1640  209.4710  148.2890 O   0  0  0  0  0  0  0  0  0  0  0  0
  161.4890  210.8990  150.0390 N   0  0  0  0  0  0  0  0  0  0  0  0
  161.3600  213.7040  147.5950 C   0  0  0  0  0  2  0  0  0  0  0  0
  158.7270  213.1050  149.7340 C   0  0  0  0  0  2  0  0  0  0  0  0
  161.4710  207.1310  153.0240 C   0  0  0  0  0  2  0  0  0  0  0  0
  160.8310  208.4670  152.5860 C   0  0  2  0  0  3  0  0  0  0  0  0
  159.7900  213.1150  150.5400 C   0  0  0  0  0  0  0  0  0  0  0  0
  159.7450  213.0510  155.2640 C   0  0  0  0  0  2  0  0  0  0  0  0
  157.6160  213.7250  156.3280 C   0  0  0  0  0  1  0  0  0  0  0  0
  159.0330  213.2560  156.5870 C   0  0  0  0  0  2  0  0  0  0  0  0
  1 19  1  0  0  0  0
  1  5  1  6  0  0  0
  2 13  1  0  0  0  0
  2 16  2  0  0  0  0
  4 12  1  1  0  0  0
  4  1  1  0  0  0  0
  5 11  1  0  0  0  0
  6  8  2  0  0  0  0
  7 15  1  6  0  0  0
  7 27  1  0  0  0  0
  8 11  1  0  0  0  0
  9 14  1  6  0  0  0
  9  7  1  0  0  0  0
  9 22  1  0  0  0  0
 10 22  1  0  0  0  0
 10  3  1  0  0  0  0
 11 28  1  1  0  0  0
 12  8  1  0  0  0  0
 17  3  1  6  0  0  0
 17 26  1  0  0  0  0
 18 13  1  0  0  0  0
 19  2  1  1  0  0  0
 20 22  1  6  0  0  0
 20 17  1  0  0  0  0
 20  4  1  0  0  0  0
 21 10  2  0  0  0  0
 23 14  1  0  0  0  0
 23 15  1  0  0  0  0
 24 27  2  0  0  0  0
 25 18  1  0  0  0  0
 26 25  1  1  0  0  0
 26 19  1  0  0  0  0
 27 12  1  0  0  0  0
 28 30  1  0  0  0  0
 29 30  1  0  0  0  0
M  END
>  <MODEL>
5

>  <REMARK>
 VINA RESULT:      -5.7      5.630      9.415
  Name = 
  2 active torsions:
  status: ('A' for Active; 'I' for Inactive)
    1  A    between atoms: C_11  and  C_28
    2  A    between atoms: C_28  and  C_30
                            x       y       z     vdW  Elec       q    Type
                         _______ _______ _______ _____ _____    ______ ____

>  <TORSDO>
F 2

$$$$
=
 OpenBabel11122412333D

 30 35  0  0  1  0  0  0  0  0999 V2000
  161.4270  208.8050  151.9020 C   0  0  1  0  0  3  0  0  0  0  0  0
  160.6660  207.8700  154.1370 C   0  0  0  0  0  0  0  0  0  0  0  0
  159.6760  212.5340  153.1440 C   0  0  0  0  0  2  0  0  0  0  0  0
  161.5730  210.1380  151.1550 C   0  0  1  0  0  3  0  0  0  0  0  0
  162.5210  207.9580  151.6240 O   0  0  0  0  0  0  0  0  0  0  0  0
  162.6800  208.4080  148.1100 O   0  0  0  0  0  0  0  0  0  0  0  0
  160.6280  211.6480  148.4200 C   0  0  1  0  0  3  0  0  0  0  0  0
  162.3450  208.6080  149.3090 C   0  0  0  0  0  0  0  0  0  0  0  0
  160.1150  212.6590  149.4390 C   0  0  2  0  0  3  0  0  0  0  0  0
  160.0700  213.1990  151.8940 C   0  0  0  0  0  0  0  0  0  0  0  0
  162.4150  207.4830  150.2950 C   0  0  2  0  0  3  0  0  0  0  0  0
  161.8650  209.8960  149.7340 N   0  0  0  0  0  0  0  0  0  0  0  0
  160.3030  208.0380  155.4710 O   0  0  0  0  0  0  0  0  0  0  0  0
  160.7280  213.9770  149.0130 C   0  0  0  0  0  2  0  0  0  0  0  0
  160.7620  212.4330  147.1210 C   0  0  0  0  0  2  0  0  0  0  0  0
  160.4690  206.7630  153.5700 O   0  0  0  0  0  0  0  0  0  0  0  0
  159.8210  211.0480  152.8240 C   0  0  1  0  0  3  0  0  0  0  0  0
  160.5810  209.2660  156.1320 C   0  0  0  0  0  2  0  0  0  0  0  0
  161.3280  209.0160  153.4150 C   0  0  2  0  0  3  0  0  0  0  0  0
  160.2740  210.9450  151.3400 C   0  0  1  0  0  3  0  0  0  0  0  0
  160.0670  214.4530  151.7660 O   0  0  0  0  0  0  0  0  0  0  0  0
  160.4120  212.3130  150.8390 N   0  0  0  0  0  0  0  0  0  0  0  0
  160.8000  213.9080  147.4980 C   0  0  0  0  0  2  0  0  0  0  0  0
  163.0990  211.6070  148.6340 C   0  0  0  0  0  2  0  0  0  0  0  0
  160.1240  210.4240  155.2510 C   0  0  0  0  0  2  0  0  0  0  0  0
  160.7700  210.4000  153.8480 C   0  0  2  0  0  3  0  0  0  0  0  0
  161.9270  211.0030  148.8310 C   0  0  0  0  0  0  0  0  0  0  0  0
  161.2570  206.5040  150.1130 C   0  0  0  0  0  2  0  0  0  0  0  0
  160.8380  204.0670  150.1250 C   0  0  0  0  0  1  0  0  0  0  0  0
  161.5590  205.2000  150.8240 C   0  0  0  0  0  2  0  0  0  0  0  0
  1  5  1  1  0  0  0
  1 19  1  0  0  0  0
  2 13  1  0  0  0  0
  4 12  1  6  0  0  0
  4 20  1  0  0  0  0
  4  1  1  0  0  0  0
  6  8  2  0  0  0  0
  7 15  1  6  0  0  0
  7 27  1  0  0  0  0
  7  9  1  0  0  0  0
  8 12  1  0  0  0  0
  8 11  1  0  0  0  0
  9 14  1  6  0  0  0
  9 22  1  0  0  0  0
 10  3  1  0  0  0  0
 11 28  1  1  0  0  0
 11  5  1  0  0  0  0
 13 18  1  0  0  0  0
 15 23  1  0  0  0  0
 16  2  2  0  0  0  0
 17  3  1  1  0  0  0
 17 26  1  0  0  0  0
 19 26  1  0  0  0  0
 19  2  1  6  0  0  0
 20 22  1  1  0  0  0
 20 17  1  0  0  0  0
 21 10  2  0  0  0  0
 22 10  1  0  0  0  0
 23 14  1  0  0  0  0
 24 27  2  0  0  0  0
 25 18  1  0  0  0  0
 26 25  1  1  0  0  0
 27 12  1  0  0  0  0
 28 30  1  0  0  0  0
 29 30  1  0  0  0  0
M  END
>  <MODEL>
6

>  <REMARK>
 VINA RESULT:      -5.3      4.302      8.251
  Name = 
  2 active torsions:
  status: ('A' for Active; 'I' for Inactive)
    1  A    between atoms: C_11  and  C_28
    2  A    between atoms: C_28  and  C_30
                            x       y       z     vdW  Elec       q    Type
                         _______ _______ _______ _____ _____    ______ ____

>  <TORSDO>
F 2

$$$$
=
 OpenBabel11122412333D

 30 35  0  0  1  0  0  0  0  0999 V2000
  161.3300  208.7680  151.7640 C   0  0  1  0  0  3  0  0  0  0  0  0
  161.6540  209.7030  154.1020 C   0  0  0  0  0  0  0  0  0  0  0  0
  161.1150  204.8880  153.6110 C   0  0  0  0  0  2  0  0  0  0  0  0
  160.9420  207.4690  151.0430 C   0  0  1  0  0  3  0  0  0  0  0  0
  160.7660  209.8850  151.1120 O   0  0  0  0  0  0  0  0  0  0  0  0
  161.5420  209.0130  147.7640 O   0  0  0  0  0  0  0  0  0  0  0  0
  162.0570  205.3500  148.8250 C   0  0  1  0  0  3  0  0  0  0  0  0
  161.3940  208.8860  149.0090 C   0  0  0  0  0  0  0  0  0  0  0  0
  161.8240  204.3840  149.9810 C   0  0  2  0  0  3  0  0  0  0  0  0
  160.9090  204.2210  152.3170 C   0  0  0  0  0  0  0  0  0  0  0  0
  161.4420  210.0990  149.8880 C   0  0  2  0  0  3  0  0  0  0  0  0
  161.2110  207.5880  149.6010 N   0  0  0  0  0  0  0  0  0  0  0  0
  161.5000  209.6160  155.4840 O   0  0  0  0  0  0  0  0  0  0  0  0
  160.9320  203.3040  149.4020 C   0  0  0  0  0  2  0  0  0  0  0  0
  162.0510  204.4780  147.5760 C   0  0  0  0  0  2  0  0  0  0  0  0
  162.4080  210.5840  153.6110 O   0  0  0  0  0  0  0  0  0  0  0  0
  161.6320  206.2720  153.2270 C   0  0  1  0  0  3  0  0  0  0  0  0
  160.6020  208.6640  156.0390 C   0  0  0  0  0  2  0  0  0  0  0  0
  160.8740  208.7560  153.2250 C   0  0  2  0  0  3  0  0  0  0  0  0
  161.7290  206.3070  151.6750 C   0  0  1  0  0  3  0  0  0  0  0  0
  160.4910  203.0360  152.2260 O   0  0  0  0  0  0  0  0  0  0  0  0
  161.2590  205.0090  151.1890 N   0  0  0  0  0  0  0  0  0  0  0  0
  161.3600  203.1740  147.9510 C   0  0  0  0  0  2  0  0  0  0  0  0
  159.8380  206.2560  148.1880 C   0  0  0  0  0  2  0  0  0  0  0  0
  160.8490  207.3050  155.3930 C   0  0  0  0  0  2  0  0  0  0  0  0
  160.7220  207.3430  153.8540 C   0  0  2  0  0  3  0  0  0  0  0  0
  161.0280  206.4490  148.7560 C   0  0  0  0  0  0  0  0  0  0  0  0
  162.8740  210.5910  150.0870 C   0  0  0  0  0  2  0  0  0  0  0  0
  161.9810  212.3950  148.6510 C   0  0  0  0  0  1  0  0  0  0  0  0
  163.2240  211.6180  149.0290 C   0  0  0  0  0  2  0  0  0  0  0  0
  1  5  1  6  0  0  0
  1 19  1  0  0  0  0
  2 13  1  0  0  0  0
  4 12  1  6  0  0  0
  4 20  1  0  0  0  0
  4  1  1  0  0  0  0
  6  8  2  0  0  0  0
  7 15  1  6  0  0  0
  7  9  1  0  0  0  0
  8 12  1  0  0  0  0
  8 11  1  0  0  0  0
  9 14  1  6  0  0  0
  9 22  1  0  0  0  0
 10  3  1  0  0  0  0
 11 28  1  1  0  0  0
 11  5  1  0  0  0  0
 13 18  1  0  0  0  0
 15 23  1  0  0  0  0
 16  2  2  0  0  0  0
 17  3  1  6  0  0  0
 17 26  1  0  0  0  0
 19 26  1  0  0  0  0
 19  2  1  1  0  0  0
 20 22  1  6  0  0  0
 20 17  1  0  0  0  0
 21 10  2  0  0  0  0
 22 10  1  0  0  0  0
 23 14  1  0  0  0  0
 24 27  2  0  0  0  0
 25 18  1  0  0  0  0
 26 25  1  1  0  0  0
 27  7  1  0  0  0  0
 27 12  1  0  0  0  0
 29 30  1  0  0  0  0
 30 28  1  0  0  0  0
M  END
>  <MODEL>
7

>  <REMARK>
 VINA RESULT:      -5.0      2.866      6.750
  Name = 
  2 active torsions:
  status: ('A' for Active; 'I' for Inactive)
    1  A    between atoms: C_11  and  C_28
    2  A    between atoms: C_28  and  C_30
                            x       y       z     vdW  Elec       q    Type
                         _______ _______ _______ _____ _____    ______ ____

>  <TORSDO>
F 2

$$$$
