=
 OpenBabel11122413263D

 31 35  0  0  1  0  0  0  0  0999 V2000
  160.9620  206.5730  146.6400 C   0  0  0  0  0  0  0  0  0  0  0  0
  160.4360  205.0620  150.0920 C   0  0  2  0  0  3  0  0  0  0  0  0
  161.1200  203.6700  150.0820 C   0  0  2  0  0  3  0  0  0  0  0  0
  161.5480  201.6020  148.7320 C   0  0  2  0  0  3  0  0  0  0  0  0
  160.9520  205.9630  148.9930 C   0  0  0  0  0  0  0  0  0  0  0  0
  161.9390  207.5380  146.8880 C   0  0  0  0  0  3  0  0  0  0  0  0
  160.8580  202.9590  148.7480 C   0  0  0  0  0  2  0  0  0  0  0  0
  162.0310  206.2210  151.6670 C   0  0  2  0  0  3  0  0  0  0  0  0
  160.4920  206.3920  145.3830 F   0  0  0  0  0  0  0  0  0  0  0  0
  160.9080  203.4730  152.4640 C   0  0  0  0  0  2  0  0  0  0  0  0
  161.2030  200.8730  147.4520 C   0  0  0  0  0  1  0  0  0  0  0  0
  162.3790  207.2920  150.6340 C   0  0  0  0  0  2  0  0  0  0  0  0
  160.5870  205.7400  151.4670 C   0  0  2  0  0  3  0  0  0  0  0  0
  160.4690  205.7920  147.6870 C   0  0  0  0  0  3  0  0  0  0  0  0
  161.0970  200.7790  149.9290 C   0  0  0  0  0  2  0  0  0  0  0  0
  161.9370  206.9470  149.2410 C   0  0  0  0  0  0  0  0  0  0  0  0
  162.4170  207.7300  148.1870 C   0  0  0  0  0  3  0  0  0  0  0  0
  160.1460  204.7850  152.5760 C   0  0  0  0  0  2  0  0  0  0  0  0
  160.6140  202.8290  151.1880 N   0  0  2  0  0  0  0  0  0  0  0  0
  161.3590  201.5690  151.2050 C   0  0  0  0  0  2  0  0  0  0  0  0
  160.6060  208.4500  152.7340 O   0  0  0  0  0  0  0  0  0  0  0  0
  161.4520  207.8860  153.4820 C   0  0  0  0  0  0  0  0  0  0  0  0
  162.2060  206.7710  153.0060 N   0  0  0  0  0  2  0  0  0  0  0  0
  159.4050  209.9250  155.9320 C   0  0  1  0  0  3  0  0  0  0  0  0
  160.7040  207.7770  155.8810 C   0  0  0  0  0  2  0  0  0  0  0  0
  162.5690  210.4720  154.0290 O   0  0  0  0  0  1  0  0  0  0  0  0
  158.1330  210.4810  155.8100 O   0  0  0  0  0  1  0  0  0  0  0  0
  159.3180  208.4120  155.7610 C   0  0  0  0  0  2  0  0  0  0  0  0
  161.7220  209.9180  154.9900 C   0  0  2  0  0  3  0  0  0  0  0  0
  161.6920  208.3850  154.8780 C   0  0  2  0  0  3  0  0  0  0  0  0
  160.3240  210.5230  154.8720 C   0  0  0  0  0  2  0  0  0  0  0  0
  1  6  2  0  0  0  0
  1 14  1  0  0  0  0
  2  5  1  6  0  0  0
  2 13  1  0  0  0  0
  3  7  1  6  0  0  0
  3  2  1  0  0  0  0
  3 19  1  0  0  0  0
  4 11  1  6  0  0  0
  4  7  1  0  0  0  0
  4 15  1  0  0  0  0
  5 16  1  0  0  0  0
  6 17  1  0  0  0  0
  8 23  1  1  0  0  0
  9  1  1  0  0  0  0
 10 18  1  0  0  0  0
 12  8  1  0  0  0  0
 13  8  1  0  0  0  0
 13 18  1  1  0  0  0
 14  5  2  0  0  0  0
 15 20  1  0  0  0  0
 16 12  1  0  0  0  0
 17 16  2  0  0  0  0
 19 20  1  1  0  0  0
 19 10  1  0  0  0  0
 21 22  2  0  0  0  0
 23 22  1  0  0  0  0
 24 27  1  6  0  0  0
 28 25  1  0  0  0  0
 28 24  1  0  0  0  0
 29 26  1  6  0  0  0
 30 22  1  6  0  0  0
 30 29  1  0  0  0  0
 30 25  1  0  0  0  0
 31 29  1  0  0  0  0
 31 24  1  0  0  0  0
M  END
>  <MODEL>
1

>  <REMARK>
 VINA RESULT:      -7.3      0.000      0.000
  Name = 
  2 active torsions:
  status: ('A' for Active; 'I' for Inactive)
    1  A    between atoms: C_5  and  C_30
    2  A    between atoms: C_10  and  N_16
                            x       y       z     vdW  Elec       q    Type
                         _______ _______ _______ _____ _____    ______ ____

>  <TORSDO>
F 2

$$$$
=
 OpenBabel11122413263D

 31 35  0  0  1  0  0  0  0  0999 V2000
  161.1590  203.9330  145.7610 C   0  0  0  0  0  0  0  0  0  0  0  0
  160.6810  205.8730  148.9990 C   0  0  2  0  0  3  0  0  0  0  0  0
  161.3100  205.0200  150.1320 C   0  0  2  0  0  3  0  0  0  0  0  0
  161.6180  202.6980  151.0240 C   0  0  2  0  0  3  0  0  0  0  0  0
  161.1980  205.4840  147.6320 C   0  0  0  0  0  0  0  0  0  0  0  0
  162.1810  204.6520  145.1370 C   0  0  0  0  0  3  0  0  0  0  0  0
  160.9810  203.5350  149.9240 C   0  0  0  0  0  2  0  0  0  0  0  0
  162.3660  207.7510  149.0020 C   0  0  2  0  0  3  0  0  0  0  0  0
  160.6450  202.8300  145.1660 F   0  0  0  0  0  0  0  0  0  0  0  0
  161.1630  206.8450  151.6820 C   0  0  0  0  0  2  0  0  0  0  0  0
  161.2060  201.2510  150.8620 C   0  0  0  0  0  1  0  0  0  0  0  0
  162.7240  207.5230  147.5340 C   0  0  0  0  0  2  0  0  0  0  0  0
  160.8990  207.3760  149.2560 C   0  0  2  0  0  3  0  0  0  0  0  0
  160.6690  204.3490  147.0010 C   0  0  0  0  0  3  0  0  0  0  0  0
  161.1720  203.2080  152.3860 C   0  0  0  0  0  2  0  0  0  0  0  0
  162.2260  206.2130  146.9930 C   0  0  0  0  0  0  0  0  0  0  0  0
  162.7040  205.7940  145.7470 C   0  0  0  0  0  3  0  0  0  0  0  0
  160.4560  207.7380  150.6730 C   0  0  0  0  0  2  0  0  0  0  0  0
  160.8060  205.4480  151.4530 N   0  0  2  0  0  0  0  0  0  0  0  0
  161.5020  204.6920  152.4950 C   0  0  0  0  0  2  0  0  0  0  0  0
  161.2120  209.9910  147.6660 O   0  0  0  0  0  0  0  0  0  0  0  0
  161.9840  210.2250  148.6360 C   0  0  0  0  0  0  0  0  0  0  0  0
  162.6030  209.1490  149.3410 N   0  0  0  0  0  2  0  0  0  0  0  0
  160.9360  213.6270  147.3410 C   0  0  1  0  0  3  0  0  0  0  0  0
  161.0160  212.3740  149.5150 C   0  0  0  0  0  2  0  0  0  0  0  0
  164.1540  211.7450  147.5340 O   0  0  0  0  0  1  0  0  0  0  0  0
  160.1210  213.9770  146.2660 O   0  0  0  0  0  1  0  0  0  0  0  0
  160.1400  212.7800  148.3290 C   0  0  0  0  0  2  0  0  0  0  0  0
  163.0430  212.4500  147.9990 C   0  0  2  0  0  3  0  0  0  0  0  0
  162.2790  211.6360  149.0570 C   0  0  2  0  0  3  0  0  0  0  0  0
  162.1430  212.8460  146.8290 C   0  0  0  0  0  2  0  0  0  0  0  0
  1 14  1  0  0  0  0
  2  5  1  6  0  0  0
  2 13  1  0  0  0  0
  2  3  1  0  0  0  0
  3  7  1  6  0  0  0
  3 19  1  0  0  0  0
  4 11  1  6  0  0  0
  4 15  1  0  0  0  0
  6 17  1  0  0  0  0
  6  1  2  0  0  0  0
  7  4  1  0  0  0  0
  8 13  1  0  0  0  0
  8 23  1  6  0  0  0
  9  1  1  0  0  0  0
 12  8  1  0  0  0  0
 13 18  1  1  0  0  0
 14  5  2  0  0  0  0
 15 20  1  0  0  0  0
 16 12  1  0  0  0  0
 16  5  1  0  0  0  0
 17 16  2  0  0  0  0
 18 10  1  0  0  0  0
 19 10  1  1  0  0  0
 19 20  1  0  0  0  0
 21 22  2  0  0  0  0
 22 23  1  0  0  0  0
 24 27  1  6  0  0  0
 24 28  1  0  0  0  0
 28 25  1  0  0  0  0
 29 26  1  6  0  0  0
 29 30  1  0  0  0  0
 30 22  1  6  0  0  0
 30 25  1  0  0  0  0
 31 24  1  0  0  0  0
 31 29  1  0  0  0  0
M  END
>  <MODEL>
2

>  <REMARK>
 VINA RESULT:      -6.5      3.543      5.048
  Name = 
  2 active torsions:
  status: ('A' for Active; 'I' for Inactive)
    1  A    between atoms: C_5  and  C_30
    2  A    between atoms: C_10  and  N_16
                            x       y       z     vdW  Elec       q    Type
                         _______ _______ _______ _____ _____    ______ ____

>  <TORSDO>
F 2

$$$$
=
 OpenBabel11122413263D

 31 35  0  0  1  0  0  0  0  0999 V2000
  161.0260  204.6550  145.0560 C   0  0  0  0  0  0  0  0  0  0  0  0
  160.6020  205.1230  148.8080 C   0  0  2  0  0  3  0  0  0  0  0  0
  161.2430  203.8870  149.4910 C   0  0  2  0  0  3  0  0  0  0  0  0
  161.5540  201.4030  149.3660 C   0  0  2  0  0  3  0  0  0  0  0  0
  161.0980  205.3190  147.3930 C   0  0  0  0  0  0  0  0  0  0  0  0
  162.0410  205.5660  144.7600 C   0  0  0  0  0  3  0  0  0  0  0  0
  160.9050  202.6110  148.7070 C   0  0  0  0  0  2  0  0  0  0  0  0
  162.2940  206.8440  149.5440 C   0  0  2  0  0  3  0  0  0  0  0  0
  160.4990  203.8850  144.0740 F   0  0  0  0  0  0  0  0  0  0  0  0
  161.1260  204.9300  151.6480 C   0  0  0  0  0  2  0  0  0  0  0  0
  161.1350  200.1430  148.6400 C   0  0  0  0  0  1  0  0  0  0  0  0
  162.6300  207.2280  148.1040 C   0  0  0  0  0  2  0  0  0  0  0  0
  160.8290  206.3950  149.6470 C   0  0  2  0  0  3  0  0  0  0  0  0
  160.5550  204.5340  146.3650 C   0  0  0  0  0  3  0  0  0  0  0  0
  161.1300  201.3190  150.8240 C   0  0  0  0  0  2  0  0  0  0  0  0
  162.1200  206.2470  147.0880 C   0  0  0  0  0  0  0  0  0  0  0  0
  162.5780  206.3660  145.7720 C   0  0  0  0  0  3  0  0  0  0  0  0
  160.4080  206.1530  151.0960 C   0  0  0  0  0  2  0  0  0  0  0  0
  160.7600  203.7440  150.8800 N   0  0  2  0  0  0  0  0  0  0  0  0
  161.4680  202.6330  151.5180 C   0  0  0  0  0  2  0  0  0  0  0  0
  161.5040  209.5310  149.0040 O   0  0  0  0  0  0  0  0  0  0  0  0
  162.1100  209.3070  150.0880 C   0  0  0  0  0  0  0  0  0  0  0  0
  162.5410  207.9860  150.4150 N   0  0  0  0  0  2  0  0  0  0  0  0
  160.0290  211.2040  152.6220 C   0  0  1  0  0  3  0  0  0  0  0  0
  162.2230  209.9900  152.5070 C   0  0  0  0  0  2  0  0  0  0  0  0
  161.7190  212.0670  149.4080 O   0  0  0  0  0  1  0  0  0  0  0  0
  158.6840  211.0800  152.9670 O   0  0  0  0  0  1  0  0  0  0  0  0
  160.7460  209.8840  152.8870 C   0  0  0  0  0  2  0  0  0  0  0  0
  161.6110  211.7120  150.7540 C   0  0  2  0  0  3  0  0  0  0  0  0
  162.4010  210.4260  151.0480 C   0  0  2  0  0  3  0  0  0  0  0  0
  160.1410  211.5790  151.1470 C   0  0  0  0  0  2  0  0  0  0  0  0
  1 14  1  0  0  0  0
  2  5  1  6  0  0  0
  2  3  1  0  0  0  0
  2 13  1  0  0  0  0
  3  7  1  6  0  0  0
  3 19  1  0  0  0  0
  4 11  1  6  0  0  0
  4 15  1  0  0  0  0
  6  1  2  0  0  0  0
  6 17  1  0  0  0  0
  7  4  1  0  0  0  0
  8 13  1  0  0  0  0
  8 23  1  1  0  0  0
  9  1  1  0  0  0  0
 12  8  1  0  0  0  0
 13 18  1  1  0  0  0
 14  5  2  0  0  0  0
 15 20  1  0  0  0  0
 16  5  1  0  0  0  0
 16 12  1  0  0  0  0
 17 16  2  0  0  0  0
 18 10  1  0  0  0  0
 19 20  1  1  0  0  0
 19 10  1  0  0  0  0
 21 22  2  0  0  0  0
 22 23  1  0  0  0  0
 24 28  1  0  0  0  0
 24 27  1  6  0  0  0
 25 28  1  0  0  0  0
 29 26  1  6  0  0  0
 29 30  1  0  0  0  0
 29 31  1  0  0  0  0
 30 22  1  6  0  0  0
 30 25  1  0  0  0  0
 31 24  1  0  0  0  0
M  END
>  <MODEL>
3

>  <REMARK>
 VINA RESULT:      -6.2      2.275      2.800
  Name = 
  2 active torsions:
  status: ('A' for Active; 'I' for Inactive)
    1  A    between atoms: C_5  and  C_30
    2  A    between atoms: C_10  and  N_16
                            x       y       z     vdW  Elec       q    Type
                         _______ _______ _______ _____ _____    ______ ____

>  <TORSDO>
F 2

$$$$
=
 OpenBabel11122413263D

 31 35  0  0  1  0  0  0  0  0999 V2000
  160.6290  207.8620  155.0400 C   0  0  0  0  0  0  0  0  0  0  0  0
  161.9750  208.8390  151.6180 C   0  0  2  0  0  3  0  0  0  0  0  0
  161.2770  207.9200  150.5810 C   0  0  2  0  0  3  0  0  0  0  0  0
  160.4670  205.5940  150.1140 C   0  0  2  0  0  3  0  0  0  0  0  0
  161.2200  208.9060  152.9260 C   0  0  0  0  0  0  0  0  0  0  0  0
  159.7710  208.9240  155.3310 C   0  0  0  0  0  3  0  0  0  0  0  0
  161.1730  206.4880  151.1240 C   0  0  0  0  0  2  0  0  0  0  0  0
  160.8620  211.0080  150.9670 C   0  0  2  0  0  3  0  0  0  0  0  0
  160.7600  206.8370  155.9150 F   0  0  0  0  0  0  0  0  0  0  0  0
  162.0800  209.2530  148.7550 C   0  0  0  0  0  2  0  0  0  0  0  0
  160.4580  204.1680  150.6190 C   0  0  0  0  0  1  0  0  0  0  0  0
  160.2900  211.2130  152.3690 C   0  0  0  0  0  2  0  0  0  0  0  0
  162.1960  210.2500  151.0420 C   0  0  2  0  0  3  0  0  0  0  0  0
  161.3520  207.8550  153.8450 C   0  0  0  0  0  3  0  0  0  0  0  0
  161.1860  205.6590  148.7750 C   0  0  0  0  0  2  0  0  0  0  0  0
  160.3560  209.9840  153.2290 C   0  0  0  0  0  0  0  0  0  0  0  0
  159.6440  209.9850  154.4320 C   0  0  0  0  0  3  0  0  0  0  0  0
  162.8790  210.1630  149.6780 C   0  0  0  0  0  2  0  0  0  0  0  0
  162.0240  207.9030  149.3060 N   0  0  2  0  0  0  0  0  0  0  0  0
  161.2770  207.1130  148.3270 C   0  0  0  0  0  2  0  0  0  0  0  0
  160.3750  211.5770  148.2150 O   0  0  0  0  0  0  0  0  0  0  0  0
  160.7740  212.5250  148.9450 C   0  0  0  0  0  0  0  0  0  0  0  0
  161.0460  212.3050  150.3290 N   0  0  0  0  0  2  0  0  0  0  0  0
  160.6200  213.9600  145.4430 C   0  0  1  0  0  3  0  0  0  0  0  0
  159.7090  214.4530  147.7290 C   0  0  0  0  0  2  0  0  0  0  0  0
  163.3190  213.4140  147.9620 O   0  0  0  0  0  1  0  0  0  0  0  0
  160.3430  213.3470  144.2220 O   0  0  0  0  0  1  0  0  0  0  0  0
  159.4260  213.7960  146.3770 C   0  0  0  0  0  2  0  0  0  0  0  0
  162.1760  213.9840  147.4010 C   0  0  2  0  0  3  0  0  0  0  0  0
  160.9860  213.8970  148.3710 C   0  0  2  0  0  3  0  0  0  0  0  0
  161.8630  213.3250  146.0590 C   0  0  0  0  0  2  0  0  0  0  0  0
  1  6  1  0  0  0  0
  1  9  1  0  0  0  0
  2  5  1  1  0  0  0
  3  7  1  1  0  0  0
  3  2  1  0  0  0  0
  4 11  1  1  0  0  0
  4  7  1  0  0  0  0
  5 16  2  0  0  0  0
  5 14  1  0  0  0  0
  8 23  1  1  0  0  0
  8 13  1  0  0  0  0
  8 12  1  0  0  0  0
 10 19  1  0  0  0  0
 10 18  1  0  0  0  0
 12 16  1  0  0  0  0
 13 18  1  6  0  0  0
 13  2  1  0  0  0  0
 14  1  2  0  0  0  0
 15  4  1  0  0  0  0
 16 17  1  0  0  0  0
 17  6  2  0  0  0  0
 19 20  1  6  0  0  0
 19  3  1  0  0  0  0
 20 15  1  0  0  0  0
 21 22  2  0  0  0  0
 22 23  1  0  0  0  0
 24 27  1  6  0  0  0
 24 31  1  0  0  0  0
 24 28  1  0  0  0  0
 25 30  1  0  0  0  0
 28 25  1  0  0  0  0
 29 26  1  1  0  0  0
 29 30  1  0  0  0  0
 30 22  1  6  0  0  0
 31 29  1  0  0  0  0
M  END
>  <MODEL>
4

>  <REMARK>
 VINA RESULT:      -5.9      4.685      7.320
  Name = 
  2 active torsions:
  status: ('A' for Active; 'I' for Inactive)
    1  A    between atoms: C_5  and  C_30
    2  A    between atoms: C_10  and  N_16
                            x       y       z     vdW  Elec       q    Type
                         _______ _______ _______ _____ _____    ______ ____

>  <TORSDO>
F 2

$$$$
=
 OpenBabel11122413263D

 31 35  0  0  1  0  0  0  0  0999 V2000
  160.8480  201.4380  149.0360 C   0  0  0  0  0  0  0  0  0  0  0  0
  162.1560  204.9080  149.8900 C   0  0  2  0  0  3  0  0  0  0  0  0
  161.3810  205.9130  148.9980 C   0  0  2  0  0  3  0  0  0  0  0  0
  160.4310  206.3240  146.7150 C   0  0  2  0  0  3  0  0  0  0  0  0
  161.4410  203.5820  150.0170 C   0  0  0  0  0  0  0  0  0  0  0  0
  160.0590  201.1420  150.1490 C   0  0  0  0  0  3  0  0  0  0  0  0
  161.2120  205.3460  147.5810 C   0  0  0  0  0  2  0  0  0  0  0  0
  161.1500  205.5630  152.1090 C   0  0  2  0  0  3  0  0  0  0  0  0
  160.9440  200.5520  148.0170 F   0  0  0  0  0  0  0  0  0  0  0  0
  162.2100  207.7780  150.2590 C   0  0  0  0  0  2  0  0  0  0  0  0
  160.3550  205.7980  145.2990 C   0  0  0  0  0  1  0  0  0  0  0  0
  160.6270  204.1500  152.3650 C   0  0  0  0  0  2  0  0  0  0  0  0
  162.4410  205.5100  151.2790 C   0  0  2  0  0  3  0  0  0  0  0  0
  161.5380  202.6520  148.9730 C   0  0  0  0  0  3  0  0  0  0  0  0
  161.1170  207.6820  146.7210 C   0  0  0  0  0  2  0  0  0  0  0  0
  160.6470  203.2740  151.1450 C   0  0  0  0  0  0  0  0  0  0  0  0
  159.9680  202.0530  151.2030 C   0  0  0  0  0  3  0  0  0  0  0  0
  163.0820  206.8900  151.1340 C   0  0  0  0  0  2  0  0  0  0  0  0
  162.0930  207.2060  148.9220 N   0  0  2  0  0  0  0  0  0  0  0  0
  161.2770  208.1540  148.1620 C   0  0  0  0  0  2  0  0  0  0  0  0
  160.3700  208.2290  152.7580 O   0  0  0  0  0  0  0  0  0  0  0  0
  160.9640  207.5610  153.6480 C   0  0  0  0  0  0  0  0  0  0  0  0
  161.3900  206.2240  153.3850 N   0  0  0  0  0  2  0  0  0  0  0  0
  159.1270  210.0250  155.8630 C   0  0  1  0  0  3  0  0  0  0  0  0
  160.1960  207.7600  156.0360 C   0  0  0  0  0  2  0  0  0  0  0  0
  162.3410  210.0580  153.9660 O   0  0  0  0  0  1  0  0  0  0  0  0
  157.9200  210.6940  155.6700 O   0  0  0  0  0  1  0  0  0  0  0  0
  158.8830  208.5190  155.8350 C   0  0  0  0  0  2  0  0  0  0  0  0
  161.4350  209.6890  154.9620 C   0  0  2  0  0  3  0  0  0  0  0  0
  161.2470  208.1630  154.9950 C   0  0  2  0  0  3  0  0  0  0  0  0
  160.1090  210.4210  154.7650 C   0  0  0  0  0  2  0  0  0  0  0  0
  1  6  1  0  0  0  0
  2  5  1  1  0  0  0
  2 13  1  0  0  0  0
  3  7  1  6  0  0  0
  3  2  1  0  0  0  0
  4 11  1  6  0  0  0
  4 15  1  0  0  0  0
  4  7  1  0  0  0  0
  5 16  2  0  0  0  0
  6 17  2  0  0  0  0
  8 12  1  0  0  0  0
  8 23  1  1  0  0  0
  9  1  1  0  0  0  0
 10 18  1  0  0  0  0
 13 18  1  6  0  0  0
 13  8  1  0  0  0  0
 14  1  2  0  0  0  0
 14  5  1  0  0  0  0
 15 20  1  0  0  0  0
 16 17  1  0  0  0  0
 16 12  1  0  0  0  0
 19 20  1  6  0  0  0
 19  3  1  0  0  0  0
 19 10  1  0  0  0  0
 21 22  2  0  0  0  0
 23 22  1  0  0  0  0
 24 27  1  6  0  0  0
 28 24  1  0  0  0  0
 28 25  1  0  0  0  0
 29 26  1  6  0  0  0
 29 30  1  0  0  0  0
 30 22  1  6  0  0  0
 30 25  1  0  0  0  0
 31 29  1  0  0  0  0
 31 24  1  0  0  0  0
M  END
>  <MODEL>
5

>  <REMARK>
 VINA RESULT:      -5.8      1.605      3.972
  Name = 
  2 active torsions:
  status: ('A' for Active; 'I' for Inactive)
    1  A    between atoms: C_5  and  C_30
    2  A    between atoms: C_10  and  N_16
                            x       y       z     vdW  Elec       q    Type
                         _______ _______ _______ _____ _____    ______ ____

>  <TORSDO>
F 2

$$$$
=
 OpenBabel11122413263D

 31 35  0  0  1  0  0  0  0  0999 V2000
  161.1670  208.2050  138.0320 C   0  0  0  0  0  0  0  0  0  0  0  0
  159.3360  211.4230  138.9090 C   0  0  2  0  0  3  0  0  0  0  0  0
  157.8770  211.0290  139.2580 C   0  0  2  0  0  3  0  0  0  0  0  0
  155.9480  209.5500  138.6480 C   0  0  2  0  0  3  0  0  0  0  0  0
  160.2860  210.2500  139.0050 C   0  0  0  0  0  0  0  0  0  0  0  0
  161.9580  208.0000  139.1640 C   0  0  0  0  0  3  0  0  0  0  0  0
  157.3710  209.9500  138.2900 C   0  0  0  0  0  2  0  0  0  0  0  0
  160.0770  212.0980  141.2240 C   0  0  2  0  0  3  0  0  0  0  0  0
  161.2020  207.3160  137.0110 F   0  0  0  0  0  0  0  0  0  0  0  0
  157.4250  213.2140  140.1400 C   0  0  0  0  0  2  0  0  0  0  0  0
  155.4290  208.5580  137.6300 C   0  0  0  0  0  1  0  0  0  0  0  0
  161.2090  211.0710  141.2350 C   0  0  0  0  0  2  0  0  0  0  0  0
  159.8180  212.5890  139.7930 C   0  0  2  0  0  3  0  0  0  0  0  0
  160.3380  209.3260  137.9520 C   0  0  0  0  0  3  0  0  0  0  0  0
  155.0540  210.7800  138.6670 C   0  0  0  0  0  2  0  0  0  0  0  0
  161.0940  210.0430  140.1470 C   0  0  0  0  0  0  0  0  0  0  0  0
  161.9280  208.9220  140.2120 C   0  0  0  0  0  3  0  0  0  0  0  0
  158.8040  213.7320  139.7570 C   0  0  0  0  0  2  0  0  0  0  0  0
  156.9840  212.2040  139.1830 N   0  0  2  0  0  0  0  0  0  0  0  0
  155.6440  211.8110  139.6210 C   0  0  0  0  0  2  0  0  0  0  0  0
  159.8190  212.1310  144.0650 O   0  0  0  0  0  0  0  0  0  0  0  0
  160.2890  213.1620  143.5100 C   0  0  0  0  0  0  0  0  0  0  0  0
  160.4350  213.2150  142.0910 N   0  0  0  0  0  2  0  0  0  0  0  0
  161.9880  213.5990  146.8670 C   0  0  1  0  0  3  0  0  0  0  0  0
  162.2080  214.4430  144.5120 C   0  0  0  0  0  2  0  0  0  0  0  0
  158.5820  214.3050  145.5130 O   0  0  0  0  0  1  0  0  0  0  0  0
  162.4540  212.6540  147.7780 O   0  0  0  0  0  1  0  0  0  0  0  0
  162.7090  213.4210  145.5350 C   0  0  0  0  0  2  0  0  0  0  0  0
  159.9600  214.4530  145.6780 C   0  0  2  0  0  3  0  0  0  0  0  0
  160.6890  214.3570  144.3270 C   0  0  2  0  0  3  0  0  0  0  0  0
  160.4840  213.4250  146.6800 C   0  0  0  0  0  2  0  0  0  0  0  0
  1  6  1  0  0  0  0
  2  5  1  1  0  0  0
  2  3  1  0  0  0  0
  2 13  1  0  0  0  0
  3  7  1  6  0  0  0
  4 11  1  6  0  0  0
  4 15  1  0  0  0  0
  5 16  2  0  0  0  0
  6 17  2  0  0  0  0
  7  4  1  0  0  0  0
  8 12  1  0  0  0  0
  8 23  1  1  0  0  0
  9  1  1  0  0  0  0
 13 18  1  1  0  0  0
 13  8  1  0  0  0  0
 14  1  2  0  0  0  0
 14  5  1  0  0  0  0
 15 20  1  0  0  0  0
 16 17  1  0  0  0  0
 16 12  1  0  0  0  0
 18 10  1  0  0  0  0
 19  3  1  0  0  0  0
 19 20  1  1  0  0  0
 19 10  1  0  0  0  0
 22 21  2  0  0  0  0
 23 22  1  0  0  0  0
 24 27  1  1  0  0  0
 25 28  1  0  0  0  0
 28 24  1  0  0  0  0
 29 26  1  6  0  0  0
 29 31  1  0  0  0  0
 30 22  1  1  0  0  0
 30 25  1  0  0  0  0
 30 29  1  0  0  0  0
 31 24  1  0  0  0  0
M  END
>  <MODEL>
6

>  <REMARK>
 VINA RESULT:      -5.5      9.611     12.106
  Name = 
  2 active torsions:
  status: ('A' for Active; 'I' for Inactive)
    1  A    between atoms: C_5  and  C_30
    2  A    between atoms: C_10  and  N_16
                            x       y       z     vdW  Elec       q    Type
                         _______ _______ _______ _____ _____    ______ ____

>  <TORSDO>
F 2

$$$$
=
 OpenBabel11122413263D

 31 35  0  0  1  0  0  0  0  0999 V2000
  161.6470  202.7250  151.7540 C   0  0  0  0  0  0  0  0  0  0  0  0
  162.2860  206.1540  150.2330 C   0  0  2  0  0  3  0  0  0  0  0  0
  161.5300  206.1930  148.8790 C   0  0  2  0  0  3  0  0  0  0  0  0
  160.9180  204.8850  146.8310 C   0  0  2  0  0  3  0  0  0  0  0  0
  161.7570  205.0780  151.1550 C   0  0  0  0  0  0  0  0  0  0  0  0
  160.7380  203.0210  152.7700 C   0  0  0  0  0  3  0  0  0  0  0  0
  161.6790  204.8510  148.1480 C   0  0  0  0  0  2  0  0  0  0  0  0
  160.8460  207.8070  151.4830 C   0  0  2  0  0  3  0  0  0  0  0  0
  162.0350  201.4450  151.5420 F   0  0  0  0  0  0  0  0  0  0  0  0
  161.8650  208.5610  148.6820 C   0  0  0  0  0  2  0  0  0  0  0  0
  161.1510  203.5940  146.0780 C   0  0  0  0  0  1  0  0  0  0  0  0
  160.4970  206.7870  152.5660 C   0  0  0  0  0  2  0  0  0  0  0  0
  162.2490  207.5310  150.9240 C   0  0  2  0  0  3  0  0  0  0  0  0
  162.1560  203.7500  150.9520 C   0  0  0  0  0  3  0  0  0  0  0  0
  161.3910  206.0610  145.9900 C   0  0  0  0  0  2  0  0  0  0  0  0
  160.8420  205.3740  152.1910 C   0  0  0  0  0  0  0  0  0  0  0  0
  160.3450  204.3420  152.9940 C   0  0  0  0  0  3  0  0  0  0  0  0
  162.7010  208.6200  149.9520 C   0  0  0  0  0  2  0  0  0  0  0  0
  162.0520  207.2750  148.0170 N   0  0  2  0  0  0  0  0  0  0  0  0
  161.2440  207.3440  146.7990 C   0  0  0  0  0  2  0  0  0  0  0  0
  161.3570  208.4790  154.2070 O   0  0  0  0  0  0  0  0  0  0  0  0
  161.0540  209.4190  153.4220 C   0  0  0  0  0  0  0  0  0  0  0  0
  160.7760  209.1490  152.0470 N   0  0  0  0  0  2  0  0  0  0  0  0
  158.2060  211.6000  154.6390 C   0  0  1  0  0  3  0  0  0  0  0  0
  160.5010  210.9000  155.3780 C   0  0  0  0  0  2  0  0  0  0  0  0
  160.4890  211.6330  151.6860 O   0  0  0  0  0  1  0  0  0  0  0  0
  156.8450  211.3290  154.7660 O   0  0  0  0  0  1  0  0  0  0  0  0
  159.0010  210.6290  155.5070 C   0  0  0  0  0  2  0  0  0  0  0  0
  160.1100  211.7490  153.0250 C   0  0  2  0  0  3  0  0  0  0  0  0
  160.9640  210.8330  153.9180 C   0  0  2  0  0  3  0  0  0  0  0  0
  158.6180  211.4590  153.1770 C   0  0  0  0  0  2  0  0  0  0  0  0
  1  6  1  0  0  0  0
  2 13  1  0  0  0  0
  2  5  1  1  0  0  0
  3  7  1  6  0  0  0
  3  2  1  0  0  0  0
  4 11  1  6  0  0  0
  4  7  1  0  0  0  0
  5 16  2  0  0  0  0
  6 17  2  0  0  0  0
  8 23  1  1  0  0  0
  8 12  1  0  0  0  0
  9  1  1  0  0  0  0
 10 18  1  0  0  0  0
 13 18  1  6  0  0  0
 13  8  1  0  0  0  0
 14  5  1  0  0  0  0
 14  1  2  0  0  0  0
 15 20  1  0  0  0  0
 15  4  1  0  0  0  0
 16 12  1  0  0  0  0
 16 17  1  0  0  0  0
 19 20  1  6  0  0  0
 19 10  1  0  0  0  0
 19  3  1  0  0  0  0
 22 21  2  0  0  0  0
 23 22  1  0  0  0  0
 24 27  1  6  0  0  0
 24 28  1  0  0  0  0
 25 28  1  0  0  0  0
 29 26  1  6  0  0  0
 29 31  1  0  0  0  0
 29 30  1  0  0  0  0
 30 22  1  6  0  0  0
 30 25  1  0  0  0  0
 31 24  1  0  0  0  0
M  END
>  <MODEL>
7

>  <REMARK>
 VINA RESULT:      -5.1      2.458      4.279
  Name = 
  2 active torsions:
  status: ('A' for Active; 'I' for Inactive)
    1  A    between atoms: C_5  and  C_30
    2  A    between atoms: C_10  and  N_16
                            x       y       z     vdW  Elec       q    Type
                         _______ _______ _______ _____ _____    ______ ____

>  <TORSDO>
F 2

$$$$
=
 OpenBabel11122413263D

 31 35  0  0  1  0  0  0  0  0999 V2000
  161.2550  202.0030  150.7280 C   0  0  0  0  0  0  0  0  0  0  0  0
  162.1500  205.3090  149.0710 C   0  0  2  0  0  3  0  0  0  0  0  0
  161.2740  205.4250  147.7970 C   0  0  2  0  0  3  0  0  0  0  0  0
  160.3040  204.1790  145.8500 C   0  0  2  0  0  3  0  0  0  0  0  0
  161.5890  204.3170  150.0660 C   0  0  0  0  0  0  0  0  0  0  0  0
  160.4940  202.4210  151.8220 C   0  0  0  0  0  3  0  0  0  0  0  0
  161.1830  204.0670  147.0870 C   0  0  0  0  0  2  0  0  0  0  0  0
  161.0550  207.1420  150.4160 C   0  0  2  0  0  3  0  0  0  0  0  0
  161.4600  200.6830  150.5100 F   0  0  0  0  0  0  0  0  0  0  0  0
  161.8730  207.7310  147.5110 C   0  0  0  0  0  2  0  0  0  0  0  0
  160.3020  202.8600  145.1090 C   0  0  0  0  0  1  0  0  0  0  0  0
  160.6950  206.1850  151.5520 C   0  0  0  0  0  2  0  0  0  0  0  0
  162.3510  206.6870  149.7290 C   0  0  2  0  0  3  0  0  0  0  0  0
  161.8010  202.9470  149.8560 C   0  0  0  0  0  3  0  0  0  0  0  0
  160.8310  205.2770  144.9390 C   0  0  0  0  0  2  0  0  0  0  0  0
  160.8250  204.7360  151.1790 C   0  0  0  0  0  0  0  0  0  0  0  0
  160.2900  203.7830  152.0510 C   0  0  0  0  0  3  0  0  0  0  0  0
  162.8330  207.7010  148.6920 C   0  0  0  0  0  2  0  0  0  0  0  0
  161.8350  206.4240  146.8630 N   0  0  2  0  0  0  0  0  0  0  0  0
  160.9230  206.5780  145.7280 C   0  0  0  0  0  2  0  0  0  0  0  0
  160.5770  207.9020  153.1230 O   0  0  0  0  0  0  0  0  0  0  0  0
  160.9590  208.8000  152.3240 C   0  0  0  0  0  0  0  0  0  0  0  0
  161.2060  208.4880  150.9530 N   0  0  0  0  0  2  0  0  0  0  0  0
  160.5730  210.5280  155.6720 C   0  0  1  0  0  3  0  0  0  0  0  0
  162.2690  210.3300  153.8310 C   0  0  0  0  0  2  0  0  0  0  0  0
  158.8130  210.7040  152.3860 O   0  0  0  0  0  1  0  0  0  0  0  0
  160.1880  210.0260  156.9140 O   0  0  0  0  0  1  0  0  0  0  0  0
  161.8290  209.8030  155.1980 C   0  0  0  0  0  2  0  0  0  0  0  0
  159.8520  210.8720  153.3030 C   0  0  2  0  0  3  0  0  0  0  0  0
  161.1450  210.2140  152.7940 C   0  0  2  0  0  3  0  0  0  0  0  0
  159.4400  210.3310  154.6700 C   0  0  0  0  0  2  0  0  0  0  0  0
  1  6  1  0  0  0  0
  2 13  1  0  0  0  0
  2  5  1  1  0  0  0
  3  7  1  6  0  0  0
  3  2  1  0  0  0  0
  4 11  1  6  0  0  0
  4  7  1  0  0  0  0
  5 16  2  0  0  0  0
  6 17  2  0  0  0  0
  8 23  1  1  0  0  0
  8 12  1  0  0  0  0
  9  1  1  0  0  0  0
 10 18  1  0  0  0  0
 13 18  1  6  0  0  0
 13  8  1  0  0  0  0
 14  5  1  0  0  0  0
 14  1  2  0  0  0  0
 15 20  1  0  0  0  0
 15  4  1  0  0  0  0
 16 12  1  0  0  0  0
 16 17  1  0  0  0  0
 19 20  1  6  0  0  0
 19 10  1  0  0  0  0
 19  3  1  0  0  0  0
 22 21  2  0  0  0  0
 23 22  1  0  0  0  0
 24 27  1  1  0  0  0
 25 28  1  0  0  0  0
 28 24  1  0  0  0  0
 29 26  1  6  0  0  0
 29 31  1  0  0  0  0
 30 22  1  1  0  0  0
 30 29  1  0  0  0  0
 30 25  1  0  0  0  0
 31 24  1  0  0  0  0
M  END
>  <MODEL>
8

>  <REMARK>
 VINA RESULT:      -4.9      2.318      4.226
  Name = 
  2 active torsions:
  status: ('A' for Active; 'I' for Inactive)
    1  A    between atoms: C_5  and  C_30
    2  A    between atoms: C_10  and  N_16
                            x       y       z     vdW  Elec       q    Type
                         _______ _______ _______ _____ _____    ______ ____

>  <TORSDO>
F 2

$$$$
=
 OpenBabel11122413263D

 31 35  0  0  1  0  0  0  0  0999 V2000
  162.1960  206.5540  147.5200 C   0  0  0  0  0  0  0  0  0  0  0  0
  162.3300  209.1960  150.2540 C   0  0  2  0  0  3  0  0  0  0  0  0
  161.4710  210.3920  149.7670 C   0  0  2  0  0  3  0  0  0  0  0  0
  160.8460  211.8010  147.7900 C   0  0  2  0  0  3  0  0  0  0  0  0
  161.9980  207.9140  149.5240 C   0  0  0  0  0  0  0  0  0  0  0  0
  161.3420  205.6000  148.0760 C   0  0  0  0  0  3  0  0  0  0  0  0
  161.7080  210.6420  148.2710 C   0  0  0  0  0  2  0  0  0  0  0  0
  160.8200  208.4200  152.1200 C   0  0  2  0  0  3  0  0  0  0  0  0
  162.7050  206.3660  146.2790 F   0  0  0  0  0  0  0  0  0  0  0  0
  161.5260  211.4070  151.9400 C   0  0  0  0  0  2  0  0  0  0  0  0
  161.1610  212.0990  146.3410 C   0  0  0  0  0  1  0  0  0  0  0  0
  160.6730  207.0260  151.5120 C   0  0  0  0  0  2  0  0  0  0  0  0
  162.1970  209.0070  151.7770 C   0  0  2  0  0  3  0  0  0  0  0  0
  162.5240  207.7040  148.2410 C   0  0  0  0  0  3  0  0  0  0  0  0
  161.1190  213.0350  148.6380 C   0  0  0  0  0  2  0  0  0  0  0  0
  161.1400  206.9420  150.0870 C   0  0  0  0  0  0  0  0  0  0  0  0
  160.8250  205.7900  149.3600 C   0  0  0  0  0  3  0  0  0  0  0  0
  162.4470  210.3310  152.4970 C   0  0  0  0  0  2  0  0  0  0  0  0
  161.8000  211.6180  150.5220 N   0  0  2  0  0  0  0  0  0  0  0  0
  160.8960  212.6910  150.1060 C   0  0  0  0  0  2  0  0  0  0  0  0
  159.2300  210.1830  153.7010 O   0  0  0  0  0  0  0  0  0  0  0  0
  159.8280  209.2450  154.2960 C   0  0  0  0  0  0  0  0  0  0  0  0
  160.6470  208.3330  153.5650 N   0  0  0  0  0  2  0  0  0  0  0  0
  162.1590  209.8600  157.2170 C   0  0  1  0  0  3  0  0  0  0  0  0
  159.8120  210.4170  156.5220 C   0  0  0  0  0  2  0  0  0  0  0  0
  160.6150  206.8430  155.6540 O   0  0  0  0  0  1  0  0  0  0  0  0
  163.4710  210.3290  157.2480 O   0  0  0  0  0  1  0  0  0  0  0  0
  161.2580  210.9110  156.5770 C   0  0  0  0  0  2  0  0  0  0  0  0
  160.6680  208.0380  156.3730 C   0  0  2  0  0  3  0  0  0  0  0  0
  159.7000  209.0780  155.7830 C   0  0  2  0  0  3  0  0  0  0  0  0
  162.1030  208.5610  156.4200 C   0  0  0  0  0  2  0  0  0  0  0  0
  1  6  2  0  0  0  0
  1 14  1  0  0  0  0
  2  5  1  6  0  0  0
  2 13  1  0  0  0  0
  3  7  1  6  0  0  0
  3  2  1  0  0  0  0
  3 19  1  0  0  0  0
  4 11  1  6  0  0  0
  4  7  1  0  0  0  0
  4 15  1  0  0  0  0
  5 16  1  0  0  0  0
  6 17  1  0  0  0  0
  8 23  1  1  0  0  0
  9  1  1  0  0  0  0
 10 18  1  0  0  0  0
 12  8  1  0  0  0  0
 13  8  1  0  0  0  0
 13 18  1  1  0  0  0
 14  5  2  0  0  0  0
 15 20  1  0  0  0  0
 16 12  1  0  0  0  0
 17 16  2  0  0  0  0
 19 20  1  6  0  0  0
 19 10  1  0  0  0  0
 21 22  2  0  0  0  0
 23 22  1  0  0  0  0
 24 27  1  6  0  0  0
 25 28  1  0  0  0  0
 28 24  1  0  0  0  0
 29 26  1  6  0  0  0
 29 31  1  0  0  0  0
 30 22  1  6  0  0  0
 30 29  1  0  0  0  0
 30 25  1  0  0  0  0
 31 24  1  0  0  0  0
M  END
>  <MODEL>
9

>  <REMARK>
 VINA RESULT:      -4.7      2.766      5.650
  Name = 
  2 active torsions:
  status: ('A' for Active; 'I' for Inactive)
    1  A    between atoms: C_5  and  C_30
    2  A    between atoms: C_10  and  N_16
                            x       y       z     vdW  Elec       q    Type
                         _______ _______ _______ _____ _____    ______ ____

>  <TORSDO>
F 2

$$$$
