=
 OpenBabel11122412353D

 30 36  0  0  1  0  0  0  0  0999 V2000
  161.4640  206.3780  150.1430 C   0  0  1  0  0  3  0  0  0  0  0  0
  161.2770  203.8300  149.9390 C   0  0  0  0  0  0  0  0  0  0  0  0
  160.8110  206.0370  154.4170 C   0  0  0  0  0  2  0  0  0  0  0  0
  161.7860  207.4920  151.1740 C   0  0  1  0  0  3  0  0  0  0  0  0
  162.3890  206.4740  149.0920 O   0  0  0  0  0  0  0  0  0  0  0  0
  161.8390  209.9320  148.4590 O   0  0  0  0  0  0  0  0  0  0  0  0
  160.4360  210.3230  151.9870 C   0  0  1  0  0  3  0  0  0  0  0  0
  161.8790  208.8390  149.0880 C   0  0  0  0  0  0  0  0  0  0  0  0
  160.2200  209.5940  153.3130 C   0  0  2  0  0  3  0  0  0  0  0  0
  160.7490  207.5070  154.6250 C   0  0  0  0  0  0  0  0  0  0  0  0
  162.0270  207.5880  148.3870 N   0  0  0  0  0  0  0  0  0  0  0  0
  161.7060  208.8030  150.5170 N   0  0  0  0  0  0  0  0  0  0  0  0
  161.0780  202.6160  150.5170 N   0  0  0  0  0  2  0  0  0  0  0  0
  160.6970  210.5610  154.3770 C   0  0  0  0  0  2  0  0  0  0  0  0
  160.3340  211.8050  152.3160 C   0  0  0  0  0  2  0  0  0  0  0  0
  161.3680  203.9090  148.6860 O   0  0  0  0  0  0  0  0  0  0  0  0
  161.3480  206.0200  153.0090 C   0  0  2  0  0  3  0  0  0  0  0  0
  160.9470  202.4870  151.8630 C   0  0  0  0  0  3  0  0  0  0  0  0
  161.3670  204.9780  150.7420 C   0  0  0  0  0  0  0  0  0  0  0  0
  160.8370  207.2890  152.3510 C   0  0  1  0  0  3  0  0  0  0  0  0
  160.5550  208.0220  155.7580 O   0  0  0  0  0  0  0  0  0  0  0  0
  160.8660  208.2790  153.4220 N   0  0  0  0  0  0  0  0  0  0  0  0
  160.3660  211.9340  153.8310 C   0  0  0  0  0  2  0  0  0  0  0  0
  163.0080  210.1340  152.1470 C   0  0  0  0  0  1  0  0  0  0  0  0
  161.0000  203.5830  152.6620 N   0  0  0  0  0  0  0  0  0  0  0  0
  161.1730  204.8210  152.1310 C   0  0  0  0  0  0  0  0  0  0  0  0
  161.7610  210.0510  151.2700 C   0  0  2  0  0  3  0  0  0  0  0  0
  161.5210  207.4430  147.0250 C   0  0  0  0  0  3  0  0  0  0  0  0
  160.5780  206.2550  146.9440 C   0  0  0  0  0  2  0  0  0  0  0  0
  161.9960  206.1260  146.4380 C   0  0  0  0  0  2  0  0  0  0  0  0
  1  5  1  6  0  0  0
  1 19  1  0  0  0  0
  1  4  1  0  0  0  0
  2 13  1  0  0  0  0
  2 19  1  0  0  0  0
  3 10  1  0  0  0  0
  4 12  1  6  0  0  0
  4 20  1  0  0  0  0
  6  8  2  0  0  0  0
  7 15  1  1  0  0  0
  7  9  1  0  0  0  0
  8 12  1  0  0  0  0
  9 22  1  0  0  0  0
  9 14  1  1  0  0  0
 10 21  2  0  0  0  0
 11  8  1  0  0  0  0
 11  5  1  0  0  0  0
 12 27  1  0  0  0  0
 13 18  1  0  0  0  0
 15 23  1  0  0  0  0
 16  2  2  0  0  0  0
 17  3  1  1  0  0  0
 18 25  2  0  0  0  0
 19 26  2  0  0  0  0
 20 17  1  0  0  0  0
 20 22  1  1  0  0  0
 22 10  1  0  0  0  0
 23 14  1  0  0  0  0
 26 25  1  0  0  0  0
 26 17  1  0  0  0  0
 27  7  1  0  0  0  0
 27 24  1  1  0  0  0
 28 11  1  0  0  0  0
 29 28  1  0  0  0  0
 30 29  1  0  0  0  0
 30 28  1  0  0  0  0
M  END
>  <MODEL>
1

>  <REMARK>
 VINA RESULT:      -8.6      0.000      0.000
  Name = 
  1 active torsions:
  status: ('A' for Active; 'I' for Inactive)
    1  A    between atoms: N_11  and  C_28
                            x       y       z     vdW  Elec       q    Type
                         _______ _______ _______ _____ _____    ______ ____

>  <TORSDO>
F 1

$$$$
=
 OpenBabel11122412353D

 30 36  0  0  1  0  0  0  0  0999 V2000
  161.2150  209.1210  151.6710 C   0  0  1  0  0  3  0  0  0  0  0  0
  161.2620  211.5180  150.7650 C   0  0  0  0  0  0  0  0  0  0  0  0
  162.0600  207.6480  147.6790 C   0  0  0  0  0  2  0  0  0  0  0  0
  161.7320  207.6940  151.3510 C   0  0  1  0  0  3  0  0  0  0  0  0
  161.7220  209.5000  152.9240 O   0  0  0  0  0  0  0  0  0  0  0  0
  160.6040  206.5930  154.6440 O   0  0  0  0  0  0  0  0  0  0  0  0
  160.4160  204.7320  151.3160 C   0  0  1  0  0  3  0  0  0  0  0  0
  160.9750  207.3300  153.6890 C   0  0  0  0  0  0  0  0  0  0  0  0
  160.7370  204.8420  149.8250 C   0  0  2  0  0  3  0  0  0  0  0  0
  161.9050  206.2210  148.0660 C   0  0  0  0  0  0  0  0  0  0  0  0
  161.0220  208.7630  153.8380 N   0  0  0  0  0  0  0  0  0  0  0  0
  161.2910  206.7680  152.4020 N   0  0  0  0  0  0  0  0  0  0  0  0
  161.4050  212.3780  149.7220 N   0  0  0  0  0  0  0  0  0  0  0  0
  161.4270  203.5410  149.4730 C   0  0  0  0  0  2  0  0  0  0  0  0
  160.2620  203.2440  151.5900 C   0  0  0  0  0  2  0  0  0  0  0  0
  160.9220  211.9660  151.8920 O   0  0  0  0  0  0  0  0  0  0  0  0
  162.0990  208.2620  149.0560 C   0  0  2  0  0  3  0  0  0  0  0  0
  161.7430  211.9370  148.4830 C   0  0  0  0  0  3  0  0  0  0  0  0
  161.4820  210.1450  150.5720 C   0  0  2  0  0  3  0  0  0  0  0  0
  161.2570  207.3590  149.9400 C   0  0  1  0  0  3  0  0  0  0  0  0
  162.0400  205.2780  147.2430 O   0  0  0  0  0  0  0  0  0  0  0  0
  161.5280  206.0180  149.4350 N   0  0  0  0  0  0  0  0  0  0  0  0
  160.7800  202.5040  150.3670 C   0  0  0  0  0  2  0  0  0  0  0  0
  162.8990  204.9310  152.0020 C   0  0  0  0  0  1  0  0  0  0  0  0
  161.9340  210.6120  148.2600 N   0  0  0  0  0  0  0  0  0  0  0  0
  161.7790  209.7090  149.2630 C   0  0  0  0  0  0  0  0  0  0  0  0
  161.4500  205.3230  152.2790 C   0  0  2  0  0  3  0  0  0  0  0  0
  160.1130  209.4380  154.7600 C   0  0  0  0  0  3  0  0  0  0  0  0
  160.7160  210.7560  155.2130 C   0  0  0  0  0  2  0  0  0  0  0  0
  160.7600  209.5540  156.1280 C   0  0  0  0  0  2  0  0  0  0  0  0
  1  5  1  1  0  0  0
  2 16  2  0  0  0  0
  3 10  1  0  0  0  0
  4  1  1  0  0  0  0
  4 12  1  1  0  0  0
  5 11  1  0  0  0  0
  7 15  1  1  0  0  0
  7 27  1  0  0  0  0
  8 11  1  0  0  0  0
  8  6  2  0  0  0  0
  9 14  1  1  0  0  0
  9  7  1  0  0  0  0
 10 22  1  0  0  0  0
 11 28  1  0  0  0  0
 12  8  1  0  0  0  0
 13  2  1  0  0  0  0
 14 23  1  0  0  0  0
 17  3  1  6  0  0  0
 17 26  1  0  0  0  0
 17 20  1  0  0  0  0
 18 13  2  0  0  0  0
 19 26  1  6  0  0  0
 19  2  1  0  0  0  0
 19  1  1  0  0  0  0
 20 22  1  6  0  0  0
 20  4  1  0  0  0  0
 21 10  2  0  0  0  0
 22  9  1  0  0  0  0
 23 15  1  0  0  0  0
 25 18  1  0  0  0  0
 25 26  2  0  0  0  0
 27 24  1  6  0  0  0
 27 12  1  0  0  0  0
 28 29  1  0  0  0  0
 28 30  1  0  0  0  0
 29 30  1  0  0  0  0
M  END
>  <MODEL>
2

>  <REMARK>
 VINA RESULT:      -7.5      1.853      6.988
  Name = 
  1 active torsions:
  status: ('A' for Active; 'I' for Inactive)
    1  A    between atoms: N_11  and  C_28
                            x       y       z     vdW  Elec       q    Type
                         _______ _______ _______ _____ _____    ______ ____

>  <TORSDO>
F 1

$$$$
=
 OpenBabel11122412353D

 30 36  0  0  1  0  0  0  0  0999 V2000
  161.2800  205.6350  149.2700 C   0  0  1  0  0  3  0  0  0  0  0  0
  161.0180  203.1300  148.7960 C   0  0  0  0  0  0  0  0  0  0  0  0
  161.0060  204.8120  153.5200 C   0  0  0  0  0  2  0  0  0  0  0  0
  161.7180  206.6190  150.3860 C   0  0  1  0  0  3  0  0  0  0  0  0
  162.1080  205.8400  148.1550 O   0  0  0  0  0  0  0  0  0  0  0  0
  161.5810  209.3540  147.9720 O   0  0  0  0  0  0  0  0  0  0  0  0
  160.5100  209.3540  151.6360 C   0  0  1  0  0  3  0  0  0  0  0  0
  161.6530  208.1960  148.4670 C   0  0  0  0  0  0  0  0  0  0  0  0
  160.3990  208.4800  152.8850 C   0  0  2  0  0  3  0  0  0  0  0  0
  160.9970  206.2500  153.8980 C   0  0  0  0  0  0  0  0  0  0  0  0
  161.7090  207.0320  147.6180 N   0  0  0  0  0  0  0  0  0  0  0  0
  161.6090  207.9980  149.8920 N   0  0  0  0  0  0  0  0  0  0  0  0
  160.8450  201.8600  149.2490 N   0  0  0  0  0  2  0  0  0  0  0  0
  160.9910  209.3120  154.0030 C   0  0  0  0  0  2  0  0  0  0  0  0
  160.4720  210.7890  152.1390 C   0  0  0  0  0  2  0  0  0  0  0  0
  160.9980  203.3520  147.5570 O   0  0  0  0  0  0  0  0  0  0  0  0
  161.4150  204.9520  152.0750 C   0  0  2  0  0  3  0  0  0  0  0  0
  160.8330  201.5780  150.5770 C   0  0  0  0  0  3  0  0  0  0  0  0
  161.2060  204.1770  149.7120 C   0  0  0  0  0  0  0  0  0  0  0  0
  160.8750  206.2930  151.6150 C   0  0  1  0  0  3  0  0  0  0  0  0
  160.9170  206.6330  155.0940 O   0  0  0  0  0  0  0  0  0  0  0  0
  161.0220  207.1530  152.7840 N   0  0  0  0  0  0  0  0  0  0  0  0
  160.6420  210.7430  153.6500 C   0  0  0  0  0  2  0  0  0  0  0  0
  163.0810  209.1170  151.5360 C   0  0  0  0  0  1  0  0  0  0  0  0
  160.9830  202.5740  151.4870 N   0  0  0  0  0  0  0  0  0  0  0  0
  161.1340  203.8640  151.0870 C   0  0  0  0  0  0  0  0  0  0  0  0
  161.7590  209.1500  150.7740 C   0  0  2  0  0  3  0  0  0  0  0  0
  161.0790  207.0500  146.3000 C   0  0  0  0  0  3  0  0  0  0  0  0
  160.1420  205.8640  146.1550 C   0  0  0  0  0  2  0  0  0  0  0  0
  161.5080  205.8270  145.5090 C   0  0  0  0  0  2  0  0  0  0  0  0
  1  5  1  6  0  0  0
  1 19  1  0  0  0  0
  1  4  1  0  0  0  0
  2 13  1  0  0  0  0
  2 19  1  0  0  0  0
  3 10  1  0  0  0  0
  4 12  1  6  0  0  0
  4 20  1  0  0  0  0
  6  8  2  0  0  0  0
  7 15  1  1  0  0  0
  7  9  1  0  0  0  0
  8 12  1  0  0  0  0
  9 14  1  1  0  0  0
 10 21  2  0  0  0  0
 11  5  1  0  0  0  0
 11  8  1  0  0  0  0
 12 27  1  0  0  0  0
 13 18  1  0  0  0  0
 15 23  1  0  0  0  0
 16  2  2  0  0  0  0
 17  3  1  1  0  0  0
 18 25  2  0  0  0  0
 19 26  2  0  0  0  0
 20 17  1  0  0  0  0
 20 22  1  1  0  0  0
 22  9  1  0  0  0  0
 22 10  1  0  0  0  0
 23 14  1  0  0  0  0
 26 25  1  0  0  0  0
 26 17  1  0  0  0  0
 27 24  1  1  0  0  0
 27  7  1  0  0  0  0
 28 11  1  0  0  0  0
 29 28  1  0  0  0  0
 30 29  1  0  0  0  0
 30 28  1  0  0  0  0
M  END
>  <MODEL>
3

>  <REMARK>
 VINA RESULT:      -6.9      1.083      1.249
  Name = 
  1 active torsions:
  status: ('A' for Active; 'I' for Inactive)
    1  A    between atoms: N_11  and  C_28
                            x       y       z     vdW  Elec       q    Type
                         _______ _______ _______ _____ _____    ______ ____

>  <TORSDO>
F 1

$$$$
=
 OpenBabel11122412353D

 30 36  0  0  1  0  0  0  0  0999 V2000
  161.4130  204.5850  147.9890 C   0  0  1  0  0  3  0  0  0  0  0  0
  161.0950  202.2460  146.9900 C   0  0  0  0  0  0  0  0  0  0  0  0
  161.0930  202.8790  151.9640 C   0  0  0  0  0  2  0  0  0  0  0  0
  161.8670  205.2960  149.2910 C   0  0  1  0  0  3  0  0  0  0  0  0
  162.2530  205.0040  146.9460 O   0  0  0  0  0  0  0  0  0  0  0  0
  161.8110  208.4870  147.5180 O   0  0  0  0  0  0  0  0  0  0  0  0
  160.7170  207.7290  151.0960 C   0  0  1  0  0  3  0  0  0  0  0  0
  161.8530  207.2480  147.7540 C   0  0  0  0  0  0  0  0  0  0  0  0
  160.5770  206.6110  152.1290 C   0  0  2  0  0  3  0  0  0  0  0  0
  161.1150  204.2020  152.6420 C   0  0  0  0  0  0  0  0  0  0  0  0
  161.8860  206.2920  146.6760 N   0  0  0  0  0  0  0  0  0  0  0  0
  161.7940  206.7510  149.1040 N   0  0  0  0  0  0  0  0  0  0  0  0
  160.8890  200.9140  147.1600 N   0  0  0  0  0  2  0  0  0  0  0  0
  161.1820  207.1700  153.4000 C   0  0  0  0  0  2  0  0  0  0  0  0
  160.7100  209.0240  151.8950 C   0  0  0  0  0  2  0  0  0  0  0  0
  161.0880  202.7290  145.8270 O   0  0  0  0  0  0  0  0  0  0  0  0
  161.5140  203.3140  150.5840 C   0  0  2  0  0  3  0  0  0  0  0  0
  160.8610  200.3550  148.3980 C   0  0  0  0  0  3  0  0  0  0  0  0
  161.3020  203.0680  148.1090 C   0  0  0  0  0  0  0  0  0  0  0  0
  161.0090  204.7360  150.4210 C   0  0  1  0  0  3  0  0  0  0  0  0
  161.0370  204.3220  153.8920 O   0  0  0  0  0  0  0  0  0  0  0  0
  161.1690  205.3210  151.7470 N   0  0  0  0  0  0  0  0  0  0  0  0
  160.8700  208.6510  153.3610 C   0  0  0  0  0  2  0  0  0  0  0  0
  163.2820  207.4550  150.9510 C   0  0  0  0  0  1  0  0  0  0  0  0
  161.0290  201.1290  149.5000 N   0  0  0  0  0  0  0  0  0  0  0  0
  161.2130  202.4700  149.3850 C   0  0  0  0  0  0  0  0  0  0  0  0
  161.9660  207.6840  150.2120 C   0  0  2  0  0  3  0  0  0  0  0  0
  161.2650  206.6080  145.3920 C   0  0  0  0  0  3  0  0  0  0  0  0
  159.9290  205.8960  145.2720 C   0  0  0  0  0  2  0  0  0  0  0  0
  161.1420  205.3460  144.5570 C   0  0  0  0  0  2  0  0  0  0  0  0
  1  5  1  6  0  0  0
  1 19  1  0  0  0  0
  1  4  1  0  0  0  0
  2 13  1  0  0  0  0
  2 19  1  0  0  0  0
  3 10  1  0  0  0  0
  4 12  1  6  0  0  0
  4 20  1  0  0  0  0
  6  8  2  0  0  0  0
  7 15  1  1  0  0  0
  7  9  1  0  0  0  0
  8 12  1  0  0  0  0
  9 14  1  1  0  0  0
 10 21  2  0  0  0  0
 11  5  1  0  0  0  0
 11  8  1  0  0  0  0
 12 27  1  0  0  0  0
 13 18  1  0  0  0  0
 15 23  1  0  0  0  0
 16  2  2  0  0  0  0
 17  3  1  1  0  0  0
 18 25  2  0  0  0  0
 19 26  2  0  0  0  0
 20 17  1  0  0  0  0
 20 22  1  1  0  0  0
 22  9  1  0  0  0  0
 22 10  1  0  0  0  0
 23 14  1  0  0  0  0
 26 25  1  0  0  0  0
 26 17  1  0  0  0  0
 27 24  1  1  0  0  0
 27  7  1  0  0  0  0
 28 11  1  0  0  0  0
 29 28  1  0  0  0  0
 30 29  1  0  0  0  0
 30 28  1  0  0  0  0
M  END
>  <MODEL>
4

>  <REMARK>
 VINA RESULT:      -6.4      2.022      3.126
  Name = 
  1 active torsions:
  status: ('A' for Active; 'I' for Inactive)
    1  A    between atoms: N_11  and  C_28
                            x       y       z     vdW  Elec       q    Type
                         _______ _______ _______ _____ _____    ______ ____

>  <TORSDO>
F 1

$$$$
=
 OpenBabel11122412353D

 30 36  0  0  1  0  0  0  0  0999 V2000
  161.4440  208.3820  149.9680 C   0  0  1  0  0  3  0  0  0  0  0  0
  161.4010  206.4360  148.3010 C   0  0  0  0  0  0  0  0  0  0  0  0
  160.9390  205.5490  153.2140 C   0  0  0  0  0  2  0  0  0  0  0  0
  161.7310  208.6930  151.4610 C   0  0  1  0  0  3  0  0  0  0  0  0
  162.3310  209.1380  149.1850 O   0  0  0  0  0  0  0  0  0  0  0  0
  161.5620  212.2610  150.7050 O   0  0  0  0  0  0  0  0  0  0  0  0
  160.2430  210.4100  153.7720 C   0  0  1  0  0  3  0  0  0  0  0  0
  161.6840  211.0120  150.5700 C   0  0  0  0  0  0  0  0  0  0  0  0
  160.1090  209.0270  154.4120 C   0  0  2  0  0  3  0  0  0  0  0  0
  160.7980  206.6070  154.2480 C   0  0  0  0  0  0  0  0  0  0  0  0
  161.8830  210.4260  149.2690 N   0  0  0  0  0  0  0  0  0  0  0  0
  161.5560  210.1320  151.7020 N   0  0  0  0  0  0  0  0  0  0  0  0
  161.2900  205.1050  148.0500 N   0  0  0  0  0  2  0  0  0  0  0  0
  160.5600  209.2110  155.8460 C   0  0  0  0  0  2  0  0  0  0  0  0
  160.0650  211.4030  154.9100 C   0  0  0  0  0  2  0  0  0  0  0  0
  161.4500  207.2440  147.3360 O   0  0  0  0  0  0  0  0  0  0  0  0
  161.4350  206.3990  152.0720 C   0  0  2  0  0  3  0  0  0  0  0  0
  161.2060  204.2000  149.0600 C   0  0  0  0  0  3  0  0  0  0  0  0
  161.4470  206.8950  149.6260 C   0  0  0  0  0  0  0  0  0  0  0  0
  160.8310  207.7760  152.2830 C   0  0  1  0  0  3  0  0  0  0  0  0
  160.6070  206.3440  155.4640 O   0  0  0  0  0  0  0  0  0  0  0  0
  160.8340  207.9450  153.7310 N   0  0  0  0  0  0  0  0  0  0  0  0
  160.1330  210.6180  156.2100 C   0  0  0  0  0  2  0  0  0  0  0  0
  162.8250  210.3280  153.8170 C   0  0  0  0  0  1  0  0  0  0  0  0
  161.2200  204.6160  150.3520 N   0  0  0  0  0  0  0  0  0  0  0  0
  161.3040  205.9380  150.6540 C   0  0  0  0  0  0  0  0  0  0  0  0
  161.5600  210.6980  153.0460 C   0  0  2  0  0  3  0  0  0  0  0  0
  161.3470  211.0780  148.0770 C   0  0  0  0  0  3  0  0  0  0  0  0
  162.3680  212.0490  147.5110 C   0  0  0  0  0  2  0  0  0  0  0  0
  161.2060  212.5690  148.3260 C   0  0  0  0  0  2  0  0  0  0  0  0
  1  5  1  6  0  0  0
  1  4  1  0  0  0  0
  2 19  1  0  0  0  0
  3 10  1  0  0  0  0
  4 12  1  6  0  0  0
  4 20  1  0  0  0  0
  5 11  1  0  0  0  0
  7  9  1  0  0  0  0
  7 15  1  1  0  0  0
  8  6  2  0  0  0  0
  8 12  1  0  0  0  0
  9 14  1  1  0  0  0
 10 21  2  0  0  0  0
 11  8  1  0  0  0  0
 12 27  1  0  0  0  0
 13  2  1  0  0  0  0
 13 18  1  0  0  0  0
 14 23  1  0  0  0  0
 15 23  1  0  0  0  0
 16  2  2  0  0  0  0
 17 20  1  0  0  0  0
 17  3  1  1  0  0  0
 18 25  2  0  0  0  0
 19  1  1  0  0  0  0
 19 26  2  0  0  0  0
 20 22  1  1  0  0  0
 22 10  1  0  0  0  0
 22  9  1  0  0  0  0
 25 26  1  0  0  0  0
 26 17  1  0  0  0  0
 27  7  1  0  0  0  0
 27 24  1  1  0  0  0
 28 30  1  0  0  0  0
 28 11  1  0  0  0  0
 29 28  1  0  0  0  0
 29 30  1  0  0  0  0
M  END
>  <MODEL>
5

>  <REMARK>
 VINA RESULT:      -5.9      1.821      2.808
  Name = 
  1 active torsions:
  status: ('A' for Active; 'I' for Inactive)
    1  A    between atoms: N_11  and  C_28
                            x       y       z     vdW  Elec       q    Type
                         _______ _______ _______ _____ _____    ______ ____

>  <TORSDO>
F 1

$$$$
=
 OpenBabel11122412353D

 30 36  0  0  1  0  0  0  0  0999 V2000
  161.4680  208.2550  151.2550 C   0  0  1  0  0  3  0  0  0  0  0  0
  161.4250  208.7320  153.7730 C   0  0  0  0  0  0  0  0  0  0  0  0
  160.8410  204.0450  152.0900 C   0  0  0  0  0  2  0  0  0  0  0  0
  160.9910  207.2120  150.2100 C   0  0  1  0  0  3  0  0  0  0  0  0
  160.8950  209.4950  150.9290 O   0  0  0  0  0  0  0  0  0  0  0  0
  161.9770  209.4990  147.5400 O   0  0  0  0  0  0  0  0  0  0  0  0
  162.3560  205.7040  147.6880 C   0  0  1  0  0  3  0  0  0  0  0  0
  161.6410  209.0520  148.6710 C   0  0  0  0  0  0  0  0  0  0  0  0
  162.1060  204.4750  148.5630 C   0  0  2  0  0  3  0  0  0  0  0  0
  161.0010  203.6380  150.6690 C   0  0  0  0  0  0  0  0  0  0  0  0
  161.5630  209.9240  149.8160 N   0  0  0  0  0  0  0  0  0  0  0  0
  161.3970  207.6470  148.8660 N   0  0  0  0  0  0  0  0  0  0  0  0
  161.3180  208.2860  155.0520 N   0  0  0  0  0  0  0  0  0  0  0  0
  161.4560  203.4620  147.6440 C   0  0  0  0  0  2  0  0  0  0  0  0
  162.5220  205.1680  146.2730 C   0  0  0  0  0  2  0  0  0  0  0  0
  161.7020  209.9430  153.5620 O   0  0  0  0  0  0  0  0  0  0  0  0
  160.7260  205.5360  151.8960 C   0  0  2  0  0  3  0  0  0  0  0  0
  161.0480  206.9830  155.3260 C   0  0  0  0  0  3  0  0  0  0  0  0
  161.2370  207.8410  152.7050 C   0  0  2  0  0  3  0  0  0  0  0  0
  161.5390  205.8600  150.6560 C   0  0  1  0  0  3  0  0  0  0  0  0
  160.9220  202.4380  150.2970 O   0  0  0  0  0  0  0  0  0  0  0  0
  161.3160  204.7170  149.7780 N   0  0  0  0  0  0  0  0  0  0  0  0
  162.0760  203.7140  146.2860 C   0  0  0  0  0  2  0  0  0  0  0  0
  159.8400  206.2670  147.5260 C   0  0  0  0  0  1  0  0  0  0  0  0
  160.8900  206.0920  154.3140 N   0  0  0  0  0  0  0  0  0  0  0  0
  161.0110  206.4830  153.0190 C   0  0  0  0  0  0  0  0  0  0  0  0
  161.2670  206.7800  147.7000 C   0  0  2  0  0  3  0  0  0  0  0  0
  162.4150  211.1070  149.9010 C   0  0  0  0  0  3  0  0  0  0  0  0
  161.5800  212.3630  149.7280 C   0  0  0  0  0  2  0  0  0  0  0  0
  162.4060  211.8440  148.5740 C   0  0  0  0  0  2  0  0  0  0  0  0
  1  5  1  6  0  0  0
  1 19  1  0  0  0  0
  2 13  1  0  0  0  0
  4 12  1  6  0  0  0
  4 20  1  0  0  0  0
  4  1  1  0  0  0  0
  6  8  2  0  0  0  0
  7 15  1  6  0  0  0
  7 27  1  0  0  0  0
  7  9  1  0  0  0  0
  8 12  1  0  0  0  0
  8 11  1  0  0  0  0
  9 14  1  6  0  0  0
  9 22  1  0  0  0  0
 10  3  1  0  0  0  0
 11 28  1  0  0  0  0
 11  5  1  0  0  0  0
 13 18  2  0  0  0  0
 15 23  1  0  0  0  0
 16  2  2  0  0  0  0
 17  3  1  1  0  0  0
 17 26  1  0  0  0  0
 19 26  1  1  0  0  0
 19  2  1  0  0  0  0
 20 22  1  6  0  0  0
 20 17  1  0  0  0  0
 21 10  2  0  0  0  0
 22 10  1  0  0  0  0
 23 14  1  0  0  0  0
 25 18  1  0  0  0  0
 26 25  2  0  0  0  0
 27 24  1  1  0  0  0
 27 12  1  0  0  0  0
 29 28  1  0  0  0  0
 30 29  1  0  0  0  0
 30 28  1  0  0  0  0
M  END
>  <MODEL>
6

>  <REMARK>
 VINA RESULT:      -5.6      1.842      5.653
  Name = 
  1 active torsions:
  status: ('A' for Active; 'I' for Inactive)
    1  A    between atoms: N_11  and  C_28
                            x       y       z     vdW  Elec       q    Type
                         _______ _______ _______ _____ _____    ______ ____

>  <TORSDO>
F 1

$$$$
