=
 OpenBabel11122414053D

 28 32  0  0  1  0  0  0  0  0999 V2000
  161.7280  210.5520  150.4920 C   0  0  0  0  0  0  0  0  0  0  0  0
  157.7480  212.5760  152.3500 C   0  0  0  0  0  1  0  0  0  0  0  0
  161.7460  207.9180  156.3000 O   0  0  0  0  0  0  0  0  0  0  0  0
  160.8510  213.0850  149.6720 C   0  0  0  0  0  3  0  0  0  0  0  0
  162.0310  210.2190  155.9000 N   0  0  0  0  0  0  0  0  0  0  0  0
  162.3020  209.2240  150.8540 C   0  0  0  0  0  2  0  0  0  0  0  0
  157.5980  210.8570  154.1040 C   0  0  0  0  0  1  0  0  0  0  0  0
  158.3110  212.1360  153.6870 C   0  0  0  0  0  0  0  0  0  0  0  0
  158.9630  213.5170  155.6700 C   0  0  0  0  0  0  0  0  0  0  0  0
  159.8330  211.9200  153.5940 C   0  0  1  0  0  3  0  0  0  0  0  0
  160.2340  206.5040  152.1180 O   0  0  0  0  0  0  0  0  0  0  0  0
  161.5720  210.2300  153.5720 C   0  0  1  0  0  3  0  0  0  0  0  0
  160.1910  212.8500  155.7570 O   0  0  0  0  0  0  0  0  0  0  0  0
  158.0440  213.1670  154.6570 O   0  0  0  0  0  0  0  0  0  0  0  0
  161.0930  207.4240  152.1030 C   0  0  0  0  0  0  0  0  0  0  0  0
  160.9150  211.3210  151.3700 C   0  0  0  0  0  0  0  0  0  0  0  0
  161.7000  208.9010  155.5130 C   0  0  0  0  0  0  0  0  0  0  0  0
  158.6960  214.4530  156.4670 O   0  0  0  0  0  0  0  0  0  0  0  0
  161.8810  207.7160  153.3400 C   0  0  0  0  0  2  0  0  0  0  0  0
  160.4870  212.5880  150.9230 C   0  0  0  0  0  3  0  0  0  0  0  0
  162.0860  211.0620  149.2390 C   0  0  0  0  0  3  0  0  0  0  0  0
  161.6510  212.3190  148.8280 C   0  0  0  0  0  3  0  0  0  0  0  0
  161.2620  208.2120  150.9270 N   0  0  0  0  0  2  0  0  0  0  0  0
  161.7330  211.1350  154.8140 C   0  0  1  0  0  3  0  0  0  0  0  0
  161.2070  208.8330  154.1200 C   0  0  2  0  0  3  0  0  0  0  0  0
  160.3360  211.6720  154.9830 C   0  0  2  0  0  3  0  0  0  0  0  0
  162.3350  210.6320  157.2610 C   0  0  0  0  0  1  0  0  0  0  0  0
  160.4170  210.7980  152.7220 C   0  0  2  0  0  3  0  0  0  0  0  0
  1  6  1  0  0  0  0
  1 16  1  0  0  0  0
  2  8  1  0  0  0  0
  4 20  1  0  0  0  0
  5 27  1  0  0  0  0
  6 23  1  0  0  0  0
  8  7  1  0  0  0  0
  8 14  1  0  0  0  0
  9 13  1  0  0  0  0
  9 18  2  0  0  0  0
 10  8  1  1  0  0  0
 10 26  1  0  0  0  0
 12 25  1  0  0  0  0
 12 24  1  0  0  0  0
 14  9  1  0  0  0  0
 15 11  2  0  0  0  0
 15 19  1  0  0  0  0
 16 28  1  0  0  0  0
 17  5  1  0  0  0  0
 17  3  2  0  0  0  0
 19 25  1  0  0  0  0
 20 16  2  0  0  0  0
 21  1  2  0  0  0  0
 22 21  1  0  0  0  0
 22  4  2  0  0  0  0
 23 15  1  0  0  0  0
 24 26  1  0  0  0  0
 24  5  1  0  0  0  0
 25 17  1  0  0  0  0
 26 13  1  0  0  0  0
 28 12  1  0  0  0  0
 28 10  1  0  0  0  0
M  END
>  <MODEL>
1

>  <REMARK>
 VINA RESULT:      -4.3      0.000      0.000
  Name = 
  0 active torsions:
  status: ('A' for Active; 'I' for Inactive)
                            x       y       z     vdW  Elec       q    Type
                         _______ _______ _______ _____ _____    ______ ____

>  <TORSDO>
F 0

$$$$
=
 OpenBabel11122414053D

 28 32  0  0  1  0  0  0  0  0999 V2000
  158.6570  212.3710  154.3980 C   0  0  0  0  0  0  0  0  0  0  0  0
  161.5880  211.6530  150.6180 C   0  0  0  0  0  1  0  0  0  0  0  0
  162.1180  207.4800  156.5840 O   0  0  0  0  0  0  0  0  0  0  0  0
  157.8500  212.9720  151.7820 C   0  0  0  0  0  3  0  0  0  0  0  0
  160.6580  207.3390  154.7440 N   0  0  0  0  0  0  0  0  0  0  0  0
  158.9640  212.0800  155.8290 C   0  0  0  0  0  2  0  0  0  0  0  0
  163.1900  210.3960  151.9990 C   0  0  0  0  0  1  0  0  0  0  0  0
  161.8630  210.3070  151.2580 C   0  0  0  0  0  0  0  0  0  0  0  0
  161.4620  208.0070  150.3560 C   0  0  0  0  0  0  0  0  0  0  0  0
  160.7190  209.9120  152.2110 C   0  0  1  0  0  3  0  0  0  0  0  0
  162.3690  212.1090  157.1220 O   0  0  0  0  0  0  0  0  0  0  0  0
  160.1200  209.6410  154.5450 C   0  0  1  0  0  3  0  0  0  0  0  0
  160.8320  207.6270  151.5480 O   0  0  0  0  0  0  0  0  0  0  0  0
  161.9650  209.3180  150.2160 O   0  0  0  0  0  0  0  0  0  0  0  0
  161.2500  211.6640  156.7570 C   0  0  0  0  0  0  0  0  0  0  0  0
  159.2820  211.7010  153.3090 C   0  0  0  0  0  0  0  0  0  0  0  0
  161.3900  208.0460  155.7250 C   0  0  0  0  0  0  0  0  0  0  0  0
  161.5430  207.1940  149.3990 O   0  0  0  0  0  0  0  0  0  0  0  0
  160.9630  210.2010  156.8780 C   0  0  0  0  0  2  0  0  0  0  0  0
  158.8550  212.0310  152.0070 C   0  0  0  0  0  3  0  0  0  0  0  0
  157.6500  213.3130  154.1590 C   0  0  0  0  0  3  0  0  0  0  0  0
  157.2480  213.6150  152.8600 C   0  0  0  0  0  3  0  0  0  0  0  0
  160.2920  212.5500  156.1800 N   0  0  0  0  0  2  0  0  0  0  0  0
  160.0470  208.2780  153.8210 C   0  0  1  0  0  3  0  0  0  0  0  0
  161.2760  209.5120  155.5600 C   0  0  2  0  0  3  0  0  0  0  0  0
  160.9700  208.5030  152.6530 C   0  0  2  0  0  3  0  0  0  0  0  0
  160.7480  205.9060  154.5150 C   0  0  0  0  0  1  0  0  0  0  0  0
  160.4440  210.7180  153.4890 C   0  0  2  0  0  3  0  0  0  0  0  0
  1  6  1  0  0  0  0
  2  8  1  0  0  0  0
  4 20  2  0  0  0  0
  4 22  1  0  0  0  0
  5 17  1  0  0  0  0
  6 23  1  0  0  0  0
  8  7  1  0  0  0  0
  9 13  1  0  0  0  0
 10  8  1  1  0  0  0
 10 26  1  0  0  0  0
 10 28  1  0  0  0  0
 12 25  1  0  0  0  0
 13 26  1  0  0  0  0
 14  9  1  0  0  0  0
 14  8  1  0  0  0  0
 15 19  1  0  0  0  0
 15 11  2  0  0  0  0
 16 28  1  0  0  0  0
 16  1  2  0  0  0  0
 17  3  2  0  0  0  0
 18  9  2  0  0  0  0
 20 16  1  0  0  0  0
 21  1  1  0  0  0  0
 22 21  2  0  0  0  0
 23 15  1  0  0  0  0
 24 12  1  0  0  0  0
 24  5  1  0  0  0  0
 25 17  1  0  0  0  0
 25 19  1  0  0  0  0
 26 24  1  0  0  0  0
 27  5  1  0  0  0  0
 28 12  1  0  0  0  0
M  END
>  <MODEL>
2

>  <REMARK>
 VINA RESULT:      -3.2      2.049      5.291
  Name = 
  0 active torsions:
  status: ('A' for Active; 'I' for Inactive)
                            x       y       z     vdW  Elec       q    Type
                         _______ _______ _______ _____ _____    ______ ____

>  <TORSDO>
F 0

$$$$
=
 OpenBabel11122414053D

 28 32  0  0  1  0  0  0  0  0999 V2000
  161.1210  207.5910  152.3880 C   0  0  0  0  0  0  0  0  0  0  0  0
  161.0360  209.6540  156.7620 C   0  0  0  0  0  1  0  0  0  0  0  0
  159.9080  213.6330  150.7470 O   0  0  0  0  0  0  0  0  0  0  0  0
  160.3440  206.1590  154.6690 C   0  0  0  0  0  3  0  0  0  0  0  0
  158.4310  212.2860  151.9890 N   0  0  0  0  0  0  0  0  0  0  0  0
  161.5000  208.2470  151.1030 C   0  0  0  0  0  2  0  0  0  0  0  0
  161.3670  211.8930  155.7980 C   0  0  0  0  0  1  0  0  0  0  0  0
  160.3380  210.8010  156.0590 C   0  0  0  0  0  0  0  0  0  0  0  0
  158.0580  211.7570  156.4520 C   0  0  0  0  0  0  0  0  0  0  0  0
  159.6890  210.3230  154.7470 C   0  0  1  0  0  3  0  0  0  0  0  0
  163.8000  211.0680  150.9770 O   0  0  0  0  0  0  0  0  0  0  0  0
  159.8580  210.4220  152.3300 C   0  0  1  0  0  3  0  0  0  0  0  0
  157.7780  211.7060  155.0810 O   0  0  0  0  0  0  0  0  0  0  0  0
  159.3110  211.3140  156.9290 O   0  0  0  0  0  0  0  0  0  0  0  0
  162.7250  210.4190  150.9000 C   0  0  0  0  0  0  0  0  0  0  0  0
  160.6150  208.3010  153.5130 C   0  0  0  0  0  0  0  0  0  0  0  0
  159.6820  212.5800  151.4020 C   0  0  0  0  0  0  0  0  0  0  0  0
  157.1820  212.1580  157.2610 O   0  0  0  0  0  0  0  0  0  0  0  0
  161.4690  211.1190  150.4890 C   0  0  0  0  0  2  0  0  0  0  0  0
  160.2390  207.5500  154.6450 C   0  0  0  0  0  3  0  0  0  0  0  0
  161.2210  206.1950  152.4260 C   0  0  0  0  0  3  0  0  0  0  0  0
  160.8370  205.4820  153.5580 C   0  0  0  0  0  3  0  0  0  0  0  0
  162.7060  209.0390  151.2620 N   0  0  0  0  0  2  0  0  0  0  0  0
  158.5400  211.0830  152.7920 C   0  0  1  0  0  3  0  0  0  0  0  0
  160.7060  211.5630  151.7270 C   0  0  2  0  0  3  0  0  0  0  0  0
  158.8700  211.4590  154.2130 C   0  0  2  0  0  3  0  0  0  0  0  0
  157.3000  213.1990  152.0290 C   0  0  0  0  0  1  0  0  0  0  0  0
  160.5510  209.8310  153.5750 C   0  0  2  0  0  3  0  0  0  0  0  0
  1 21  2  0  0  0  0
  1 16  1  0  0  0  0
  3 17  2  0  0  0  0
  5 27  1  0  0  0  0
  5 24  1  0  0  0  0
  6 23  1  0  0  0  0
  6  1  1  0  0  0  0
  7  8  1  0  0  0  0
  8  2  1  0  0  0  0
  8 14  1  0  0  0  0
  9 14  1  0  0  0  0
  9 18  2  0  0  0  0
 10  8  1  1  0  0  0
 12 24  1  0  0  0  0
 12 28  1  0  0  0  0
 13  9  1  0  0  0  0
 15 11  2  0  0  0  0
 15 23  1  0  0  0  0
 16 28  1  0  0  0  0
 16 20  2  0  0  0  0
 17 25  1  0  0  0  0
 17  5  1  0  0  0  0
 19 15  1  0  0  0  0
 19 25  1  0  0  0  0
 20  4  1  0  0  0  0
 21 22  1  0  0  0  0
 22  4  2  0  0  0  0
 24 26  1  0  0  0  0
 25 12  1  0  0  0  0
 26 10  1  0  0  0  0
 26 13  1  0  0  0  0
 28 10  1  0  0  0  0
M  END
>  <MODEL>
3

>  <REMARK>
 VINA RESULT:      -1.7      2.224      4.813
  Name = 
  0 active torsions:
  status: ('A' for Active; 'I' for Inactive)
                            x       y       z     vdW  Elec       q    Type
                         _______ _______ _______ _____ _____    ______ ____

>  <TORSDO>
F 0

$$$$
