=
 OpenBabel11122414303D

 34 40  0  0  1  0  0  0  0  0999 V2000
  162.2070  210.3100  150.4710 C   0  0  2  0  0  3  0  0  0  0  0  0
  161.9280  208.2240  149.1090 C   0  0  0  0  0  2  0  0  0  0  0  0
  157.8190  210.7950  155.4140 O   0  0  0  0  0  0  0  0  0  0  0  0
  160.4630  211.5970  151.6020 C   0  0  2  0  0  3  0  0  0  0  0  0
  160.4900  211.7020  154.1540 C   0  0  0  0  0  0  0  0  0  0  0  0
  159.8150  211.5360  156.5110 C   0  0  0  0  0  2  0  0  0  0  0  0
  158.3060  211.3430  156.6050 C   0  0  0  0  0  2  0  0  0  0  0  0
  157.6410  212.7220  153.9540 C   0  0  0  0  0  2  0  0  0  0  0  0
  161.9790  208.0620  151.5400 C   0  0  1  0  0  3  0  0  0  0  0  0
  161.6050  205.5630  153.0910 C   0  0  0  0  0  2  0  0  0  0  0  0
  161.3630  210.7350  154.1690 N   0  0  0  0  0  0  0  0  0  0  0  0
  158.3740  211.9770  152.8470 C   0  0  0  0  0  2  0  0  0  0  0  0
  161.2060  208.7300  152.6890 C   0  0  2  0  0  3  0  0  0  0  0  0
  161.5360  206.8680  149.4910 N   0  0  0  0  0  2  0  0  0  0  0  0
  159.8840  212.2330  152.8700 C   0  0  2  0  0  3  0  0  0  0  0  0
  156.9300  211.7460  154.8920 C   0  0  0  0  0  2  0  0  0  0  0  0
  161.5080  205.5490  151.5610 C   0  0  2  0  0  3  0  0  0  0  0  0
  161.8670  211.0090  151.7680 C   0  0  1  0  0  3  0  0  0  0  0  0
  160.1200  212.3060  155.3570 O   0  0  0  0  0  0  0  0  0  0  0  0
  161.8980  210.0710  152.9810 C   0  0  1  0  0  3  0  0  0  0  0  0
  160.8050  211.8430  149.1270 C   0  0  0  0  0  2  0  0  0  0  0  0
  160.6000  206.4970  153.7510 C   0  0  0  0  0  2  0  0  0  0  0  0
  160.4300  212.5720  150.4220 C   0  0  0  0  0  2  0  0  0  0  0  0
  161.2410  207.8620  153.9510 C   0  0  0  0  0  2  0  0  0  0  0  0
  161.2080  206.9070  150.9180 C   0  0  1  0  0  3  0  0  0  0  0  0
  162.1790  211.1780  149.2440 C   0  0  0  0  0  2  0  0  0  0  0  0
  162.1390  208.9660  150.3760 C   0  0  2  0  0  3  0  0  0  0  0  0
  160.5020  204.5860  151.1450 N   0  0  0  0  0  2  0  0  0  0  0  0
  161.1850  203.4360  150.7270 N   0  0  0  0  0  2  0  0  0  0  0  0
  161.2120  202.0070  147.5420 O   0  0  0  0  0  0  0  0  0  0  0  0
  160.4260  201.3880  149.6820 C   0  0  0  0  0  2  0  0  0  0  0  0
  160.4470  202.8880  149.6020 C   0  0  2  0  0  3  0  0  0  0  0  0
  161.2090  200.9520  148.4660 C   0  0  0  0  0  2  0  0  0  0  0  0
  161.1950  203.1740  148.3210 C   0  0  0  0  0  2  0  0  0  0  0  0
  1 26  1  6  0  0  0
  1 18  1  0  0  0  0
  2 14  1  0  0  0  0
  2 27  1  0  0  0  0
  3  7  1  0  0  0  0
  4 23  1  6  0  0  0
  4 18  1  0  0  0  0
  4 15  1  0  0  0  0
  5 11  2  0  0  0  0
  5 19  1  0  0  0  0
  6  7  1  0  0  0  0
  8 16  1  0  0  0  0
  9 13  1  0  0  0  0
 10 22  1  0  0  0  0
 12 15  1  0  0  0  0
 12  8  1  0  0  0  0
 13 20  1  0  0  0  0
 13 24  1  0  0  0  0
 14 25  1  0  0  0  0
 15  5  1  0  0  0  0
 16  3  1  0  0  0  0
 17 10  1  0  0  0  0
 18 20  1  0  0  0  0
 19  6  1  0  0  0  0
 20 11  1  0  0  0  0
 21 26  1  0  0  0  0
 21 23  1  0  0  0  0
 22 24  1  0  0  0  0
 25  9  1  0  0  0  0
 25 17  1  0  0  0  0
 27  1  1  0  0  0  0
 27  9  1  0  0  0  0
 28 17  1  0  0  0  0
 29 28  1  0  0  0  0
 30 34  1  0  0  0  0
 30 33  1  0  0  0  0
 32 31  1  0  0  0  0
 32 29  1  0  0  0  0
 33 31  1  0  0  0  0
 34 32  1  0  0  0  0
M  END
>  <MODEL>
1

>  <REMARK>
 VINA RESULT:      -8.5      0.000      0.000
  Name = 
  3 active torsions:
  status: ('A' for Active; 'I' for Inactive)
    1  A    between atoms: C_17  and  N_28
    2  A    between atoms: N_28  and  N_29
    3  A    between atoms: N_29  and  C_32
                            x       y       z     vdW  Elec       q    Type
                         _______ _______ _______ _____ _____    ______ ____

>  <TORSDO>
F 3

$$$$
=
 OpenBabel11122414303D

 34 40  0  0  1  0  0  0  0  0999 V2000
  161.2380  209.1470  154.9350 C   0  0  2  0  0  3  0  0  0  0  0  0
  159.3130  210.5020  155.7960 C   0  0  0  0  0  2  0  0  0  0  0  0
  160.5950  207.4810  148.5530 O   0  0  0  0  0  0  0  0  0  0  0  0
  161.1860  207.4030  153.2220 C   0  0  2  0  0  3  0  0  0  0  0  0
  162.4180  207.8190  151.0240 C   0  0  0  0  0  0  0  0  0  0  0  0
  162.9150  208.0720  148.6310 C   0  0  0  0  0  2  0  0  0  0  0  0
  161.7750  207.4930  147.8010 C   0  0  0  0  0  2  0  0  0  0  0  0
  160.8300  205.4870  149.9120 C   0  0  0  0  0  2  0  0  0  0  0  0
  160.3660  211.1310  153.6910 C   0  0  1  0  0  3  0  0  0  0  0  0
  159.4730  213.3470  151.9330 C   0  0  0  0  0  2  0  0  0  0  0  0
  162.5360  209.0750  151.3460 N   0  0  0  0  0  0  0  0  0  0  0  0
  160.4570  206.2710  151.1620 C   0  0  0  0  0  2  0  0  0  0  0  0
  160.6880  210.4010  152.3770 C   0  0  2  0  0  3  0  0  0  0  0  0
  158.4860  211.5200  155.1520 N   0  0  0  0  0  2  0  0  0  0  0  0
  161.6840  206.8200  151.8960 C   0  0  2  0  0  3  0  0  0  0  0  0
  160.2270  206.1320  148.6620 C   0  0  0  0  0  2  0  0  0  0  0  0
  158.7040  213.0160  153.2170 C   0  0  2  0  0  3  0  0  0  0  0  0
  161.9550  208.6360  153.7040 C   0  0  1  0  0  3  0  0  0  0  0  0
  163.0190  207.3550  149.8530 O   0  0  0  0  0  0  0  0  0  0  0  0
  162.0280  209.6760  152.5790 C   0  0  1  0  0  3  0  0  0  0  0  0
  160.4400  206.8910  155.5640 C   0  0  0  0  0  2  0  0  0  0  0  0
  159.5490  212.1810  150.9570 C   0  0  0  0  0  2  0  0  0  0  0  0
  161.1460  206.3380  154.3220 C   0  0  0  0  0  2  0  0  0  0  0  0
  160.8240  211.3930  151.2170 C   0  0  0  0  0  2  0  0  0  0  0  0
  158.9190  211.5970  153.7550 C   0  0  1  0  0  3  0  0  0  0  0  0
  161.1230  208.1660  156.0670 C   0  0  0  0  0  2  0  0  0  0  0  0
  160.4330  210.2270  154.8630 C   0  0  2  0  0  3  0  0  0  0  0  0
  157.2830  213.2400  153.0050 N   0  0  0  0  0  2  0  0  0  0  0  0
  156.9640  214.4530  153.6310 N   0  0  0  0  0  2  0  0  0  0  0  0
  155.2080  212.2970  155.7420 O   0  0  0  0  0  0  0  0  0  0  0  0
  156.1570  214.4530  155.9140 C   0  0  0  0  0  2  0  0  0  0  0  0
  155.8070  214.2050  154.4750 C   0  0  2  0  0  3  0  0  0  0  0  0
  156.0280  213.0920  156.5560 C   0  0  0  0  0  2  0  0  0  0  0  0
  155.4590  212.7350  154.4330 C   0  0  0  0  0  2  0  0  0  0  0  0
  1 26  1  6  0  0  0
  3 16  1  0  0  0  0
  4 18  1  0  0  0  0
  4 23  1  1  0  0  0
  5 11  2  0  0  0  0
  5 15  1  0  0  0  0
  6 19  1  0  0  0  0
  7  3  1  0  0  0  0
  7  6  1  0  0  0  0
  8 12  1  0  0  0  0
  9 25  1  0  0  0  0
  9 27  1  0  0  0  0
 10 17  1  0  0  0  0
 11 20  1  0  0  0  0
 12 15  1  0  0  0  0
 13 20  1  0  0  0  0
 13  9  1  0  0  0  0
 14  2  1  0  0  0  0
 15  4  1  0  0  0  0
 16  8  1  0  0  0  0
 17 25  1  0  0  0  0
 18  1  1  0  0  0  0
 19  5  1  0  0  0  0
 20 18  1  0  0  0  0
 21 26  1  0  0  0  0
 22 24  1  0  0  0  0
 22 10  1  0  0  0  0
 23 21  1  0  0  0  0
 24 13  1  0  0  0  0
 25 14  1  0  0  0  0
 27  1  1  0  0  0  0
 27  2  1  0  0  0  0
 28 17  1  0  0  0  0
 28 29  1  0  0  0  0
 29 32  1  0  0  0  0
 30 33  1  0  0  0  0
 31 33  1  0  0  0  0
 32 31  1  0  0  0  0
 34 32  1  0  0  0  0
 34 30  1  0  0  0  0
M  END
>  <MODEL>
2

>  <REMARK>
 VINA RESULT:      -5.5      2.654      8.511
  Name = 
  3 active torsions:
  status: ('A' for Active; 'I' for Inactive)
    1  A    between atoms: C_17  and  N_28
    2  A    between atoms: N_28  and  N_29
    3  A    between atoms: N_29  and  C_32
                            x       y       z     vdW  Elec       q    Type
                         _______ _______ _______ _____ _____    ______ ____

>  <TORSDO>
F 3

$$$$
