=
 OpenBabel11122413043D

 32 37  0  0  1  0  0  0  0  0999 V2000
  160.8360  209.4210  152.4660 C   0  0  1  0  0  3  0  0  0  0  0  0
  160.3200  208.8350  157.2210 N   0  0  0  0  0  0  0  0  0  0  0  0
  160.3200  207.4840  157.0730 C   0  0  0  0  0  3  0  0  0  0  0  0
  161.0290  207.3540  151.0170 C   0  0  0  0  0  0  0  0  0  0  0  0
  161.2440  205.9500  150.9220 N   0  0  0  0  0  0  0  0  0  0  0  0
  160.3740  211.5750  151.5810 C   0  0  2  0  0  3  0  0  0  0  0  0
  160.9830  211.3930  153.9880 O   0  0  0  0  0  0  0  0  0  0  0  0
  161.6440  203.7520  151.6930 C   0  0  2  0  0  3  0  0  0  0  0  0
  160.6160  209.6640  156.1870 C   0  0  0  0  0  3  0  0  0  0  0  0
  161.3140  210.0210  153.7850 C   0  0  1  0  0  3  0  0  0  0  0  0
  160.9200  209.1360  154.9260 C   0  0  0  0  0  0  0  0  0  0  0  0
  161.2620  207.1710  153.4490 N   0  0  0  0  0  0  0  0  0  0  0  0
  161.2270  203.7010  150.2240 C   0  0  0  0  0  2  0  0  0  0  0  0
  160.0280  211.8840  153.0590 C   0  0  2  0  0  3  0  0  0  0  0  0
  160.7480  205.0990  149.8620 C   0  0  0  0  0  2  0  0  0  0  0  0
  160.6330  206.9150  155.8380 C   0  0  0  0  0  3  0  0  0  0  0  0
  160.9460  207.7400  154.7460 C   0  0  0  0  0  0  0  0  0  0  0  0
  161.4080  205.7040  153.3550 C   0  0  0  0  0  2  0  0  0  0  0  0
  161.1820  210.3600  151.4120 N   0  0  0  0  0  2  0  0  0  0  0  0
  160.4970  207.9840  150.0610 O   0  0  0  0  0  0  0  0  0  0  0  0
  160.5940  203.2560  152.4720 O   0  0  0  0  0  1  0  0  0  0  0  0
  161.4940  208.0490  152.2700 C   0  0  2  0  0  3  0  0  0  0  0  0
  161.9090  205.2310  151.9820 C   0  0  2  0  0  3  0  0  0  0  0  0
  158.3740  211.5980  154.8950 C   0  0  0  0  0  2  0  0  0  0  0  0
  158.6200  211.4170  153.4120 C   0  0  1  0  0  3  0  0  0  0  0  0
  157.8120  212.5980  153.9090 C   0  0  1  0  0  3  0  0  0  0  0  0
  156.3400  212.3160  153.6830 C   0  0  0  0  0  2  0  0  0  0  0  0
  155.5280  213.4860  154.1170 C   0  0  0  0  0  0  0  0  0  0  0  0
  155.8580  214.1360  155.1430 O   0  0  0  0  0  1  0  0  0  0  0  0
  154.4260  213.8830  153.3710 O   0  0  0  0  0  0  0  0  0  0  0  0
  161.1200  212.6430  149.5960 F   0  0  0  0  0  0  0  0  0  0  0  0
  161.1010  212.7580  150.9730 C   0  0  0  0  0  2  0  0  0  0  0  0
  1 19  1  6  0  0  0
  1 10  1  0  0  0  0
  3  2  1  0  0  0  0
  5  4  1  0  0  0  0
  5 23  1  0  0  0  0
  6 32  1  1  0  0  0
  6 14  1  0  0  0  0
  8 23  1  0  0  0  0
  8 21  1  1  0  0  0
  9  2  2  0  0  0  0
 10  7  1  1  0  0  0
 10 11  1  0  0  0  0
 11  9  1  0  0  0  0
 12 17  1  0  0  0  0
 13  8  1  0  0  0  0
 14 25  1  0  0  0  0
 14  7  1  1  0  0  0
 15 13  1  0  0  0  0
 15  5  1  0  0  0  0
 16  3  2  0  0  0  0
 17 11  2  0  0  0  0
 17 16  1  0  0  0  0
 18 12  1  0  0  0  0
 19  6  1  0  0  0  0
 20  4  2  0  0  0  0
 22  4  1  6  0  0  0
 22  1  1  0  0  0  0
 22 12  1  0  0  0  0
 23 18  1  1  0  0  0
 25 26  1  0  0  0  0
 25 24  1  1  0  0  0
 26 27  1  6  0  0  0
 26 24  1  0  0  0  0
 27 28  1  0  0  0  0
 28 29  1  0  0  0  0
 30 28  2  0  0  0  0
 31 32  1  0  0  0  0
M  END
>  <MODEL>
1

>  <REMARK>
 VINA RESULT:      -5.9      0.000      0.000
  Name = 
  4 active torsions:
  status: ('A' for Active; 'I' for Inactive)
    1  A    between atoms: C_7  and  C_19
    2  A    between atoms: C_10  and  C_17
    3  A    between atoms: C_20  and  C_29
    4  A    between atoms: C_29  and  C_30
                            x       y       z     vdW  Elec       q    Type
                         _______ _______ _______ _____ _____    ______ ____

>  <TORSDO>
F 4

$$$$
=
 OpenBabel11122413043D

 32 37  0  0  1  0  0  0  0  0999 V2000
  161.4270  208.7860  151.4780 C   0  0  1  0  0  3  0  0  0  0  0  0
  160.7170  209.0260  156.2380 N   0  0  0  0  0  0  0  0  0  0  0  0
  160.4730  207.6890  156.2880 C   0  0  0  0  0  3  0  0  0  0  0  0
  161.2700  206.5230  150.3540 C   0  0  0  0  0  0  0  0  0  0  0  0
  161.2270  205.1050  150.4740 N   0  0  0  0  0  0  0  0  0  0  0  0
  161.3830  210.8290  150.2700 C   0  0  2  0  0  3  0  0  0  0  0  0
  161.9000  210.9080  152.7040 O   0  0  0  0  0  0  0  0  0  0  0  0
  161.2050  203.0130  151.5730 C   0  0  2  0  0  3  0  0  0  0  0  0
  161.1800  209.6230  155.1100 C   0  0  0  0  0  3  0  0  0  0  0  0
  161.9790  209.4840  152.7170 C   0  0  1  0  0  3  0  0  0  0  0  0
  161.4080  208.8660  153.9550 C   0  0  0  0  0  0  0  0  0  0  0  0
  161.4160  206.6710  152.7950 N   0  0  0  0  0  0  0  0  0  0  0  0
  160.8150  202.8160  150.1090 C   0  0  0  0  0  2  0  0  0  0  0  0
  161.0690  211.4150  151.6690 C   0  0  2  0  0  3  0  0  0  0  0  0
  160.6070  204.2050  149.5260 C   0  0  0  0  0  2  0  0  0  0  0  0
  160.7030  206.8940  155.1640 C   0  0  0  0  0  3  0  0  0  0  0  0
  161.1830  207.4760  153.9800 C   0  0  0  0  0  0  0  0  0  0  0  0
  161.2950  205.2050  152.9220 C   0  0  0  0  0  2  0  0  0  0  0  0
  161.9600  209.4790  150.3170 N   0  0  0  0  0  2  0  0  0  0  0  0
  160.8810  207.0850  149.2930 O   0  0  0  0  0  0  0  0  0  0  0  0
  160.0670  202.8340  152.3660 O   0  0  0  0  0  1  0  0  0  0  0  0
  161.8280  207.3050  151.5140 C   0  0  2  0  0  3  0  0  0  0  0  0
  161.7280  204.4480  151.6570 C   0  0  2  0  0  3  0  0  0  0  0  0
  159.3390  211.7860  153.4170 C   0  0  0  0  0  2  0  0  0  0  0  0
  159.5930  211.2620  152.0190 C   0  0  1  0  0  3  0  0  0  0  0  0
  158.9830  212.6360  152.2160 C   0  0  1  0  0  3  0  0  0  0  0  0
  157.4920  212.5520  151.9590 C   0  0  0  0  0  2  0  0  0  0  0  0
  156.8580  213.8730  152.2210 C   0  0  0  0  0  0  0  0  0  0  0  0
  156.2130  214.4530  151.3100 O   0  0  0  0  0  0  0  0  0  0  0  0
  156.9470  214.4490  153.4810 O   0  0  0  0  0  1  0  0  0  0  0  0
  162.5420  211.2920  148.2500 F   0  0  0  0  0  0  0  0  0  0  0  0
  162.3250  211.7600  149.5320 C   0  0  0  0  0  2  0  0  0  0  0  0
  1 19  1  6  0  0  0
  1 22  1  0  0  0  0
  1 10  1  0  0  0  0
  2  3  1  0  0  0  0
  4  5  1  0  0  0  0
  5 23  1  0  0  0  0
  6 32  1  1  0  0  0
  6 19  1  0  0  0  0
  6 14  1  0  0  0  0
  8 23  1  0  0  0  0
  8 21  1  1  0  0  0
  9  2  2  0  0  0  0
 10  7  1  6  0  0  0
 10 11  1  0  0  0  0
 11 17  2  0  0  0  0
 11  9  1  0  0  0  0
 12 18  1  0  0  0  0
 12 17  1  0  0  0  0
 13  8  1  0  0  0  0
 14 25  1  0  0  0  0
 14  7  1  1  0  0  0
 15 13  1  0  0  0  0
 15  5  1  0  0  0  0
 16  3  2  0  0  0  0
 17 16  1  0  0  0  0
 20  4  2  0  0  0  0
 22  4  1  6  0  0  0
 22 12  1  0  0  0  0
 23 18  1  1  0  0  0
 25 26  1  0  0  0  0
 25 24  1  1  0  0  0
 26 27  1  6  0  0  0
 26 24  1  0  0  0  0
 27 28  1  0  0  0  0
 28 30  1  0  0  0  0
 29 28  2  0  0  0  0
 31 32  1  0  0  0  0
M  END
>  <MODEL>
2

>  <REMARK>
 VINA RESULT:      -5.6      1.372      1.611
  Name = 
  4 active torsions:
  status: ('A' for Active; 'I' for Inactive)
    1  A    between atoms: C_7  and  C_19
    2  A    between atoms: C_10  and  C_17
    3  A    between atoms: C_20  and  C_29
    4  A    between atoms: C_29  and  C_30
                            x       y       z     vdW  Elec       q    Type
                         _______ _______ _______ _____ _____    ______ ____

>  <TORSDO>
F 4

$$$$
=
 OpenBabel11122413043D

 32 37  0  0  1  0  0  0  0  0999 V2000
  161.1800  211.7480  149.7780 C   0  0  1  0  0  3  0  0  0  0  0  0
  158.1160  213.5820  153.0140 N   0  0  0  0  0  0  0  0  0  0  0  0
  158.0780  212.3960  153.6780 C   0  0  0  0  0  3  0  0  0  0  0  0
  161.9490  209.3550  150.0760 C   0  0  0  0  0  0  0  0  0  0  0  0
  162.0590  208.2070  150.9100 N   0  0  0  0  0  0  0  0  0  0  0  0
  161.4600  212.9470  147.7480 C   0  0  2  0  0  3  0  0  0  0  0  0
  160.6460  214.1870  149.7480 O   0  0  0  0  0  0  0  0  0  0  0  0
  161.7840  206.8980  152.8590 C   0  0  2  0  0  3  0  0  0  0  0  0
  158.9960  213.8050  152.0040 C   0  0  0  0  0  3  0  0  0  0  0  0
  160.9140  213.0380  150.5490 C   0  0  1  0  0  3  0  0  0  0  0  0
  159.8890  212.8000  151.6130 C   0  0  0  0  0  0  0  0  0  0  0  0
  160.8070  210.5120  151.9090 N   0  0  0  0  0  0  0  0  0  0  0  0
  162.2290  205.9980  151.7080 C   0  0  0  0  0  2  0  0  0  0  0  0
  160.3950  213.8750  148.3850 C   0  0  2  0  0  3  0  0  0  0  0  0
  162.1470  206.8410  150.4440 C   0  0  0  0  0  2  0  0  0  0  0  0
  158.9620  211.3720  153.3310 C   0  0  0  0  0  3  0  0  0  0  0  0
  159.8880  211.5670  152.2940 C   0  0  0  0  0  0  0  0  0  0  0  0
  160.8530  209.2960  152.7450 C   0  0  0  0  0  2  0  0  0  0  0  0
  162.1220  212.0650  148.7170 N   0  0  0  0  0  2  0  0  0  0  0  0
  162.0780  209.2490  148.8250 O   0  0  0  0  0  0  0  0  0  0  0  0
  160.4410  206.6300  153.1420 O   0  0  0  0  0  1  0  0  0  0  0  0
  161.7170  210.6850  150.7450 C   0  0  2  0  0  3  0  0  0  0  0  0
  161.9760  208.3270  152.3460 C   0  0  2  0  0  3  0  0  0  0  0  0
  157.9700  214.3050  148.7320 C   0  0  0  0  0  2  0  0  0  0  0  0
  158.9880  213.3210  148.1930 C   0  0  1  0  0  3  0  0  0  0  0  0
  158.2240  214.2210  147.2430 C   0  0  1  0  0  3  0  0  0  0  0  0
  157.1210  213.4160  146.5850 C   0  0  0  0  0  2  0  0  0  0  0  0
  156.6360  214.1230  145.3670 C   0  0  0  0  0  0  0  0  0  0  0  0
  155.4250  214.4510  145.2700 O   0  0  0  0  0  1  0  0  0  0  0  0
  157.5260  214.4530  144.3540 O   0  0  0  0  0  0  0  0  0  0  0  0
  163.2880  214.4500  147.9550 F   0  0  0  0  0  0  0  0  0  0  0  0
  162.5000  213.7880  147.0330 C   0  0  0  0  0  2  0  0  0  0  0  0
  1 19  1  6  0  0  0
  1 10  1  0  0  0  0
  1 22  1  0  0  0  0
  2  3  1  0  0  0  0
  4  5  1  0  0  0  0
  5 23  1  0  0  0  0
  6 32  1  1  0  0  0
  6 14  1  0  0  0  0
  6 19  1  0  0  0  0
  8 21  1  6  0  0  0
  9  2  2  0  0  0  0
 10  7  1  6  0  0  0
 10 11  1  0  0  0  0
 11  9  1  0  0  0  0
 11 17  2  0  0  0  0
 12 17  1  0  0  0  0
 12 18  1  0  0  0  0
 13  8  1  0  0  0  0
 14  7  1  1  0  0  0
 15  5  1  0  0  0  0
 15 13  1  0  0  0  0
 16  3  2  0  0  0  0
 17 16  1  0  0  0  0
 20  4  2  0  0  0  0
 22  4  1  6  0  0  0
 22 12  1  0  0  0  0
 23 18  1  6  0  0  0
 23  8  1  0  0  0  0
 25 14  1  0  0  0  0
 25 24  1  1  0  0  0
 26 27  1  6  0  0  0
 26 25  1  0  0  0  0
 26 24  1  0  0  0  0
 28 27  1  0  0  0  0
 29 28  1  0  0  0  0
 30 28  2  0  0  0  0
 32 31  1  0  0  0  0
M  END
>  <MODEL>
3

>  <REMARK>
 VINA RESULT:      -5.6      3.745      5.259
  Name = 
  4 active torsions:
  status: ('A' for Active; 'I' for Inactive)
    1  A    between atoms: C_7  and  C_19
    2  A    between atoms: C_10  and  C_17
    3  A    between atoms: C_20  and  C_29
    4  A    between atoms: C_29  and  C_30
                            x       y       z     vdW  Elec       q    Type
                         _______ _______ _______ _____ _____    ______ ____

>  <TORSDO>
F 4

$$$$
=
 OpenBabel11122413043D

 32 37  0  0  1  0  0  0  0  0999 V2000
  160.0030  210.2440  153.5990 C   0  0  1  0  0  3  0  0  0  0  0  0
  162.0100  211.4590  149.3900 N   0  0  0  0  0  0  0  0  0  0  0  0
  161.0020  212.3370  149.1420 C   0  0  0  0  0  3  0  0  0  0  0  0
  157.8730  211.4190  154.2970 C   0  0  0  0  0  0  0  0  0  0  0  0
  156.9600  212.4970  154.1100 N   0  0  0  0  0  0  0  0  0  0  0  0
  160.7670  208.2460  154.6290 C   0  0  2  0  0  3  0  0  0  0  0  0
  162.2700  209.3850  153.0050 O   0  0  0  0  0  0  0  0  0  0  0  0
  156.0740  214.4530  153.1250 C   0  0  2  0  0  3  0  0  0  0  0  0
  162.1390  210.8460  150.5950 C   0  0  0  0  0  3  0  0  0  0  0  0
  161.3740  210.4940  152.9770 C   0  0  1  0  0  3  0  0  0  0  0  0
  161.2190  211.1030  151.6180 C   0  0  0  0  0  0  0  0  0  0  0  0
  159.2120  212.3060  152.4460 N   0  0  0  0  0  0  0  0  0  0  0  0
  155.0240  213.8360  154.0480 C   0  0  0  0  0  2  0  0  0  0  0  0
  161.6390  208.1610  153.3520 C   0  0  2  0  0  3  0  0  0  0  0  0
  155.5540  212.4680  154.4500 C   0  0  0  0  0  2  0  0  0  0  0  0
  160.0720  212.6340  150.1400 C   0  0  0  0  0  3  0  0  0  0  0  0
  160.1750  212.0220  151.3990 C   0  0  0  0  0  0  0  0  0  0  0  0
  158.2250  213.3780  152.2050 C   0  0  0  0  0  2  0  0  0  0  0  0
  160.2220  209.5870  154.8780 N   0  0  0  0  0  2  0  0  0  0  0  0
  157.5210  210.3890  154.9330 O   0  0  0  0  0  0  0  0  0  0  0  0
  155.6750  214.2550  151.7990 O   0  0  0  0  0  1  0  0  0  0  0  0
  159.2650  211.5810  153.7440 C   0  0  2  0  0  3  0  0  0  0  0  0
  157.3710  213.7060  153.4390 C   0  0  2  0  0  3  0  0  0  0  0  0
  161.7230  207.5700  150.9370 C   0  0  0  0  0  2  0  0  0  0  0  0
  160.8530  207.5900  152.1770 C   0  0  1  0  0  3  0  0  0  0  0  0
  161.5020  206.2970  151.7250 C   0  0  1  0  0  3  0  0  0  0  0  0
  160.4610  205.4440  151.0280 C   0  0  0  0  0  2  0  0  0  0  0  0
  161.0520  204.1300  150.6530 C   0  0  0  0  0  0  0  0  0  0  0  0
  161.0990  203.7820  149.4450 O   0  0  0  0  0  0  0  0  0  0  0  0
  161.5860  203.3030  151.6330 O   0  0  0  0  0  1  0  0  0  0  0  0
  162.2260  208.8810  156.3920 F   0  0  0  0  0  0  0  0  0  0  0  0
  161.5800  207.7970  155.8280 C   0  0  0  0  0  2  0  0  0  0  0  0
  1 22  1  0  0  0  0
  1 19  1  1  0  0  0
  2  9  1  0  0  0  0
  3  2  2  0  0  0  0
  3 16  1  0  0  0  0
  4 20  2  0  0  0  0
  5  4  1  0  0  0  0
  5 15  1  0  0  0  0
  6 19  1  0  0  0  0
  6 32  1  1  0  0  0
  8 21  1  6  0  0  0
  8 23  1  0  0  0  0
  8 13  1  0  0  0  0
  9 11  2  0  0  0  0
 10 11  1  6  0  0  0
 10  7  1  0  0  0  0
 10  1  1  0  0  0  0
 12 22  1  0  0  0  0
 13 15  1  0  0  0  0
 14  7  1  6  0  0  0
 14  6  1  0  0  0  0
 16 17  2  0  0  0  0
 17 11  1  0  0  0  0
 17 12  1  0  0  0  0
 18 12  1  0  0  0  0
 22  4  1  6  0  0  0
 23 18  1  6  0  0  0
 23  5  1  0  0  0  0
 24 26  1  0  0  0  0
 25 24  1  6  0  0  0
 25 14  1  0  0  0  0
 26 27  1  6  0  0  0
 26 25  1  0  0  0  0
 28 27  1  0  0  0  0
 28 30  1  0  0  0  0
 29 28  2  0  0  0  0
 32 31  1  0  0  0  0
M  END
>  <MODEL>
4

>  <REMARK>
 VINA RESULT:      -5.4      2.370      7.996
  Name = 
  4 active torsions:
  status: ('A' for Active; 'I' for Inactive)
    1  A    between atoms: C_7  and  C_19
    2  A    between atoms: C_10  and  C_17
    3  A    between atoms: C_20  and  C_29
    4  A    between atoms: C_29  and  C_30
                            x       y       z     vdW  Elec       q    Type
                         _______ _______ _______ _____ _____    ______ ____

>  <TORSDO>
F 4

$$$$
=
 OpenBabel11122413043D

 32 37  0  0  1  0  0  0  0  0999 V2000
  160.5550  209.8520  152.3620 C   0  0  1  0  0  3  0  0  0  0  0  0
  162.2000  212.1260  148.4450 N   0  0  0  0  0  0  0  0  0  0  0  0
  161.2560  213.0930  148.5870 C   0  0  0  0  0  3  0  0  0  0  0  0
  158.6250  210.8890  153.6300 C   0  0  0  0  0  0  0  0  0  0  0  0
  157.7980  212.0230  153.8740 N   0  0  0  0  0  0  0  0  0  0  0  0
  161.2410  207.6010  152.6790 C   0  0  2  0  0  3  0  0  0  0  0  0
  162.6580  209.0790  151.2630 O   0  0  0  0  0  0  0  0  0  0  0  0
  156.9920  214.2270  153.6030 C   0  0  2  0  0  3  0  0  0  0  0  0
  162.4030  211.1830  149.4020 C   0  0  0  0  0  3  0  0  0  0  0  0
  161.8670  210.1960  151.6650 C   0  0  1  0  0  3  0  0  0  0  0  0
  161.6240  211.1810  150.5650 C   0  0  0  0  0  0  0  0  0  0  0  0
  159.8330  212.2010  151.9490 N   0  0  0  0  0  0  0  0  0  0  0  0
  155.9960  213.4280  154.4410 C   0  0  0  0  0  2  0  0  0  0  0  0
  161.9600  207.8440  151.3290 C   0  0  2  0  0  3  0  0  0  0  0  0
  156.4400  211.9750  154.3690 C   0  0  0  0  0  2  0  0  0  0  0  0
  160.4680  213.1380  149.7380 C   0  0  0  0  0  3  0  0  0  0  0  0
  160.6490  212.1810  150.7500 C   0  0  0  0  0  0  0  0  0  0  0  0
  158.9260  213.3490  152.1490 C   0  0  0  0  0  2  0  0  0  0  0  0
  160.8480  208.8400  153.3630 N   0  0  0  0  0  2  0  0  0  0  0  0
  158.2520  209.7390  153.9890 O   0  0  0  0  0  0  0  0  0  0  0  0
  156.4370  214.4460  152.3380 O   0  0  0  0  0  1  0  0  0  0  0  0
  159.9590  211.1280  152.9720 C   0  0  2  0  0  3  0  0  0  0  0  0
  158.2430  213.3510  153.5250 C   0  0  2  0  0  3  0  0  0  0  0  0
  161.7030  208.0780  148.8660 C   0  0  0  0  0  2  0  0  0  0  0  0
  161.0050  207.6840  150.1510 C   0  0  1  0  0  3  0  0  0  0  0  0
  161.5390  206.6160  149.2180 C   0  0  1  0  0  3  0  0  0  0  0  0
  160.3830  206.0300  148.4310 C   0  0  0  0  0  2  0  0  0  0  0  0
  160.8510  205.6160  147.0790 C   0  0  0  0  0  0  0  0  0  0  0  0
  161.5780  204.5970  146.9500 O   0  0  0  0  0  1  0  0  0  0  0  0
  160.4550  206.3320  145.9570 O   0  0  0  0  0  0  0  0  0  0  0  0
  161.5580  205.5450  153.8240 F   0  0  0  0  0  0  0  0  0  0  0  0
  162.1340  206.7790  153.5870 C   0  0  0  0  0  2  0  0  0  0  0  0
  1 22  1  0  0  0  0
  1 19  1  1  0  0  0
  2  3  2  0  0  0  0
  2  9  1  0  0  0  0
  3 16  1  0  0  0  0
  4  5  1  0  0  0  0
  4 20  2  0  0  0  0
  5 15  1  0  0  0  0
  6 19  1  0  0  0  0
  6 32  1  1  0  0  0
  7 10  1  0  0  0  0
  8 21  1  6  0  0  0
  8 13  1  0  0  0  0
  9 11  2  0  0  0  0
 10 11  1  6  0  0  0
 10  1  1  0  0  0  0
 11 17  1  0  0  0  0
 12 18  1  0  0  0  0
 12 22  1  0  0  0  0
 14  7  1  1  0  0  0
 14  6  1  0  0  0  0
 15 13  1  0  0  0  0
 16 17  2  0  0  0  0
 17 12  1  0  0  0  0
 22  4  1  6  0  0  0
 23 18  1  6  0  0  0
 23  8  1  0  0  0  0
 23  5  1  0  0  0  0
 24 26  1  0  0  0  0
 25 24  1  6  0  0  0
 25 14  1  0  0  0  0
 26 27  1  6  0  0  0
 26 25  1  0  0  0  0
 28 27  1  0  0  0  0
 29 28  1  0  0  0  0
 30 28  2  0  0  0  0
 32 31  1  0  0  0  0
M  END
>  <MODEL>
5

>  <REMARK>
 VINA RESULT:      -5.4      2.851      8.074
  Name = 
  4 active torsions:
  status: ('A' for Active; 'I' for Inactive)
    1  A    between atoms: C_7  and  C_19
    2  A    between atoms: C_10  and  C_17
    3  A    between atoms: C_20  and  C_29
    4  A    between atoms: C_29  and  C_30
                            x       y       z     vdW  Elec       q    Type
                         _______ _______ _______ _____ _____    ______ ____

>  <TORSDO>
F 4

$$$$
=
 OpenBabel11122413043D

 32 37  0  0  1  0  0  0  0  0999 V2000
  161.2620  213.0420  140.7830 C   0  0  1  0  0  3  0  0  0  0  0  0
  157.0540  213.8360  138.5740 N   0  0  0  0  0  0  0  0  0  0  0  0
  156.4270  213.9590  139.7730 C   0  0  0  0  0  3  0  0  0  0  0  0
  161.3200  213.1030  143.3130 C   0  0  0  0  0  0  0  0  0  0  0  0
  160.6810  213.4540  144.5370 N   0  0  0  0  0  0  0  0  0  0  0  0
  163.0150  212.1130  139.4790 C   0  0  2  0  0  3  0  0  0  0  0  0
  161.1910  213.3350  138.3060 O   0  0  0  0  0  0  0  0  0  0  0  0
  158.9770  214.2990  145.9390 C   0  0  2  0  0  3  0  0  0  0  0  0
  158.4070  213.7550  138.4840 C   0  0  0  0  0  3  0  0  0  0  0  0
  160.6880  213.7650  139.5690 C   0  0  1  0  0  3  0  0  0  0  0  0
  159.1930  213.7860  139.6410 C   0  0  0  0  0  0  0  0  0  0  0  0
  159.3700  213.9720  142.1100 N   0  0  0  0  0  0  0  0  0  0  0  0
  159.9880  213.5290  146.7860 C   0  0  0  0  0  2  0  0  0  0  0  0
  161.9260  212.1220  138.3770 C   0  0  2  0  0  3  0  0  0  0  0  0
  160.9090  212.8090  145.8120 C   0  0  0  0  0  2  0  0  0  0  0  0
  157.1740  214.0110  140.9520 C   0  0  0  0  0  3  0  0  0  0  0  0
  158.5740  213.9330  140.8980 C   0  0  0  0  0  0  0  0  0  0  0  0
  158.6780  214.2640  143.3820 C   0  0  0  0  0  2  0  0  0  0  0  0
  162.7050  212.9900  140.6150 N   0  0  0  0  0  2  0  0  0  0  0  0
  162.2690  212.2730  143.3050 O   0  0  0  0  0  0  0  0  0  0  0  0
  157.7980  213.5510  145.8620 O   0  0  0  0  0  1  0  0  0  0  0  0
  160.8450  213.7870  142.0580 C   0  0  2  0  0  3  0  0  0  0  0  0
  159.6370  214.4490  144.5670 C   0  0  2  0  0  3  0  0  0  0  0  0
  160.6400  210.4020  137.1220 C   0  0  0  0  0  2  0  0  0  0  0  0
  160.9980  210.9180  138.5000 C   0  0  1  0  0  3  0  0  0  0  0  0
  161.6950  209.6930  137.9440 C   0  0  1  0  0  3  0  0  0  0  0  0
  161.0950  208.4560  138.5820 C   0  0  0  0  0  2  0  0  0  0  0  0
  161.9650  207.2770  138.3150 C   0  0  0  0  0  0  0  0  0  0  0  0
  162.3310  206.5380  139.2650 O   0  0  0  0  0  1  0  0  0  0  0  0
  162.3420  206.9710  137.0150 O   0  0  0  0  0  0  0  0  0  0  0  0
  165.2140  211.4350  138.8900 F   0  0  0  0  0  0  0  0  0  0  0  0
  164.3480  212.5120  138.8760 C   0  0  0  0  0  2  0  0  0  0  0  0
  1 19  1  6  0  0  0
  1 22  1  0  0  0  0
  2  3  1  0  0  0  0
  3 16  2  0  0  0  0
  4  5  1  0  0  0  0
  5 23  1  0  0  0  0
  5 15  1  0  0  0  0
  6 32  1  6  0  0  0
  6 19  1  0  0  0  0
  8 21  1  6  0  0  0
  8 13  1  0  0  0  0
  9  2  2  0  0  0  0
  9 11  1  0  0  0  0
 10  7  1  6  0  0  0
 10 11  1  0  0  0  0
 10  1  1  0  0  0  0
 11 17  2  0  0  0  0
 12 18  1  0  0  0  0
 14  7  1  1  0  0  0
 14 25  1  0  0  0  0
 14  6  1  0  0  0  0
 15 13  1  0  0  0  0
 17 16  1  0  0  0  0
 17 12  1  0  0  0  0
 20  4  2  0  0  0  0
 22 12  1  0  0  0  0
 22  4  1  1  0  0  0
 23 18  1  6  0  0  0
 23  8  1  0  0  0  0
 24 26  1  0  0  0  0
 25 24  1  6  0  0  0
 26 25  1  0  0  0  0
 26 27  1  1  0  0  0
 28 27  1  0  0  0  0
 28 29  1  0  0  0  0
 30 28  2  0  0  0  0
 32 31  1  0  0  0  0
M  END
>  <MODEL>
6

>  <REMARK>
 VINA RESULT:      -5.0     10.726     14.582
  Name = 
  4 active torsions:
  status: ('A' for Active; 'I' for Inactive)
    1  A    between atoms: C_7  and  C_19
    2  A    between atoms: C_10  and  C_17
    3  A    between atoms: C_20  and  C_29
    4  A    between atoms: C_29  and  C_30
                            x       y       z     vdW  Elec       q    Type
                         _______ _______ _______ _____ _____    ______ ____

>  <TORSDO>
F 4

$$$$
=
 OpenBabel11122413043D

 32 37  0  0  1  0  0  0  0  0999 V2000
  161.5740  209.9690  149.7430 C   0  0  1  0  0  3  0  0  0  0  0  0
  160.2960  211.1060  154.2470 N   0  0  0  0  0  0  0  0  0  0  0  0
  160.0470  209.7990  154.5260 C   0  0  0  0  0  3  0  0  0  0  0  0
  161.5520  207.5290  149.0680 C   0  0  0  0  0  0  0  0  0  0  0  0
  161.4940  206.1600  149.4550 N   0  0  0  0  0  0  0  0  0  0  0  0
  161.6780  211.7400  148.1640 C   0  0  2  0  0  3  0  0  0  0  0  0
  161.8970  212.2980  150.5800 O   0  0  0  0  0  0  0  0  0  0  0  0
  161.3370  204.3190  150.9280 C   0  0  2  0  0  3  0  0  0  0  0  0
  160.8920  211.4850  153.0870 C   0  0  0  0  0  3  0  0  0  0  0  0
  161.9740  210.9050  150.8790 C   0  0  1  0  0  3  0  0  0  0  0  0
  161.2570  210.5240  152.1360 C   0  0  0  0  0  0  0  0  0  0  0  0
  161.4030  208.1480  151.4340 N   0  0  0  0  0  0  0  0  0  0  0  0
  161.1270  203.8340  149.4950 C   0  0  0  0  0  2  0  0  0  0  0  0
  161.1980  212.5770  149.3760 C   0  0  2  0  0  3  0  0  0  0  0  0
  160.9910  205.0810  148.6330 C   0  0  0  0  0  2  0  0  0  0  0  0
  160.4090  208.8070  153.6130 C   0  0  0  0  0  3  0  0  0  0  0  0
  161.0290  209.1610  152.4040 C   0  0  0  0  0  0  0  0  0  0  0  0
  161.2660  206.7310  151.8270 C   0  0  0  0  0  2  0  0  0  0  0  0
  162.2440  210.4370  148.5400 N   0  0  0  0  0  2  0  0  0  0  0  0
  161.2940  207.8670  147.8800 O   0  0  0  0  0  0  0  0  0  0  0  0
  160.1120  204.2710  151.6010 O   0  0  0  0  0  1  0  0  0  0  0  0
  161.9670  208.5330  150.1120 C   0  0  2  0  0  3  0  0  0  0  0  0
  161.8480  205.7550  150.7940 C   0  0  2  0  0  3  0  0  0  0  0  0
  159.1980  213.5910  150.4530 C   0  0  0  0  0  2  0  0  0  0  0  0
  159.6900  212.4610  149.5710 C   0  0  1  0  0  3  0  0  0  0  0  0
  159.0140  213.6680  148.9520 C   0  0  1  0  0  3  0  0  0  0  0  0
  157.5860  213.3010  148.5970 C   0  0  0  0  0  2  0  0  0  0  0  0
  157.4010  213.3620  147.1210 C   0  0  0  0  0  0  0  0  0  0  0  0
  157.5660  214.4490  146.5100 O   0  0  0  0  0  1  0  0  0  0  0  0
  157.0830  212.2110  146.4120 O   0  0  0  0  0  0  0  0  0  0  0  0
  163.9780  212.2040  147.7980 F   0  0  0  0  0  0  0  0  0  0  0  0
  162.7030  212.5320  147.3760 C   0  0  0  0  0  2  0  0  0  0  0  0
  1 19  1  6  0  0  0
  1 22  1  0  0  0  0
  1 10  1  0  0  0  0
  2  3  1  0  0  0  0
  4  5  1  0  0  0  0
  5 23  1  0  0  0  0
  6 32  1  1  0  0  0
  6 19  1  0  0  0  0
  6 14  1  0  0  0  0
  8 21  1  1  0  0  0
  9  2  2  0  0  0  0
 10  7  1  6  0  0  0
 10 11  1  0  0  0  0
 11 17  2  0  0  0  0
 11  9  1  0  0  0  0
 12 18  1  0  0  0  0
 12 17  1  0  0  0  0
 13  8  1  0  0  0  0
 14 25  1  0  0  0  0
 14  7  1  1  0  0  0
 15  5  1  0  0  0  0
 15 13  1  0  0  0  0
 16  3  2  0  0  0  0
 17 16  1  0  0  0  0
 20  4  2  0  0  0  0
 22  4  1  6  0  0  0
 22 12  1  0  0  0  0
 23  8  1  0  0  0  0
 23 18  1  1  0  0  0
 25 24  1  1  0  0  0
 26 27  1  1  0  0  0
 26 25  1  0  0  0  0
 26 24  1  0  0  0  0
 28 27  1  0  0  0  0
 29 28  1  0  0  0  0
 30 28  2  0  0  0  0
 32 31  1  0  0  0  0
M  END
>  <MODEL>
7

>  <REMARK>
 VINA RESULT:      -5.0      3.025      3.868
  Name = 
  4 active torsions:
  status: ('A' for Active; 'I' for Inactive)
    1  A    between atoms: C_7  and  C_19
    2  A    between atoms: C_10  and  C_17
    3  A    between atoms: C_20  and  C_29
    4  A    between atoms: C_29  and  C_30
                            x       y       z     vdW  Elec       q    Type
                         _______ _______ _______ _____ _____    ______ ____

>  <TORSDO>
F 4

$$$$
=
 OpenBabel11122413043D

 32 37  0  0  1  0  0  0  0  0999 V2000
  159.7560  211.2060  155.1980 C   0  0  1  0  0  3  0  0  0  0  0  0
  160.1910  212.4720  150.5690 N   0  0  0  0  0  0  0  0  0  0  0  0
  158.9850  213.0990  150.6080 C   0  0  0  0  0  3  0  0  0  0  0  0
  157.6970  211.9620  156.4610 C   0  0  0  0  0  0  0  0  0  0  0  0
  156.5530  212.8070  156.5280 N   0  0  0  0  0  0  0  0  0  0  0  0
  161.2000  209.4980  155.9970 C   0  0  2  0  0  3  0  0  0  0  0  0
  161.9000  210.7930  153.9890 O   0  0  0  0  0  0  0  0  0  0  0  0
  155.0160  214.4510  155.8090 C   0  0  2  0  0  3  0  0  0  0  0  0
  160.7830  211.9980  151.6960 C   0  0  0  0  0  3  0  0  0  0  0  0
  160.8080  211.6850  154.2020 C   0  0  1  0  0  3  0  0  0  0  0  0
  160.1500  212.1380  152.9360 C   0  0  0  0  0  0  0  0  0  0  0  0
  158.2370  212.9580  154.2890 N   0  0  0  0  0  0  0  0  0  0  0  0
  154.4290  213.7050  157.0050 C   0  0  0  0  0  2  0  0  0  0  0  0
  161.6790  209.4960  154.5230 C   0  0  2  0  0  3  0  0  0  0  0  0
  155.3400  212.5130  157.2600 C   0  0  0  0  0  2  0  0  0  0  0  0
  158.3270  213.2740  151.8270 C   0  0  0  0  0  3  0  0  0  0  0  0
  158.9090  212.7990  153.0120 C   0  0  0  0  0  0  0  0  0  0  0  0
  157.0090  213.7780  154.3250 C   0  0  0  0  0  2  0  0  0  0  0  0
  160.4620  210.7120  156.3690 N   0  0  0  0  0  2  0  0  0  0  0  0
  157.7740  210.9350  157.1890 O   0  0  0  0  0  0  0  0  0  0  0  0
  154.3190  214.0690  154.6580 O   0  0  0  0  0  1  0  0  0  0  0  0
  158.8090  212.3660  155.5280 C   0  0  2  0  0  3  0  0  0  0  0  0
  156.4820  214.0190  155.7470 C   0  0  2  0  0  3  0  0  0  0  0  0
  161.2060  208.7630  152.1940 C   0  0  0  0  0  2  0  0  0  0  0  0
  160.7460  208.6820  153.6350 C   0  0  1  0  0  3  0  0  0  0  0  0
  161.5190  207.5340  153.0190 C   0  0  1  0  0  3  0  0  0  0  0  0
  160.5500  206.4240  152.6640 C   0  0  0  0  0  2  0  0  0  0  0  0
  161.2280  205.4140  151.8050 C   0  0  0  0  0  0  0  0  0  0  0  0
  161.4370  204.2540  152.2430 O   0  0  0  0  0  1  0  0  0  0  0  0
  161.5990  205.7420  150.5080 O   0  0  0  0  0  0  0  0  0  0  0  0
  163.2310  210.4200  156.8120 F   0  0  0  0  0  0  0  0  0  0  0  0
  162.3930  209.3260  156.9160 C   0  0  0  0  0  2  0  0  0  0  0  0
  1 22  1  0  0  0  0
  1 19  1  1  0  0  0
  2  3  2  0  0  0  0
  2  9  1  0  0  0  0
  3 16  1  0  0  0  0
  4  5  1  0  0  0  0
  4 20  2  0  0  0  0
  5 15  1  0  0  0  0
  6 19  1  0  0  0  0
  6 32  1  1  0  0  0
  7 10  1  0  0  0  0
  8 21  1  6  0  0  0
  8 13  1  0  0  0  0
  9 11  2  0  0  0  0
 10 11  1  6  0  0  0
 10  1  1  0  0  0  0
 11 17  1  0  0  0  0
 12 18  1  0  0  0  0
 12 22  1  0  0  0  0
 13 15  1  0  0  0  0
 14  7  1  6  0  0  0
 14  6  1  0  0  0  0
 16 17  2  0  0  0  0
 17 12  1  0  0  0  0
 22  4  1  1  0  0  0
 23 18  1  6  0  0  0
 23  8  1  0  0  0  0
 23  5  1  0  0  0  0
 24 26  1  0  0  0  0
 25 24  1  6  0  0  0
 25 14  1  0  0  0  0
 26 27  1  6  0  0  0
 26 25  1  0  0  0  0
 28 29  1  0  0  0  0
 28 27  1  0  0  0  0
 30 28  2  0  0  0  0
 31 32  1  0  0  0  0
M  END
>  <MODEL>
8

>  <REMARK>
 VINA RESULT:      -4.6      2.605      8.161
  Name = 
  4 active torsions:
  status: ('A' for Active; 'I' for Inactive)
    1  A    between atoms: C_7  and  C_19
    2  A    between atoms: C_10  and  C_17
    3  A    between atoms: C_20  and  C_29
    4  A    between atoms: C_29  and  C_30
                            x       y       z     vdW  Elec       q    Type
                         _______ _______ _______ _____ _____    ______ ____

>  <TORSDO>
F 4

$$$$
=
 OpenBabel11122413043D

 32 37  0  0  1  0  0  0  0  0999 V2000
  161.9180  207.8450  149.2960 C   0  0  1  0  0  3  0  0  0  0  0  0
  161.6100  205.4620  153.4730 N   0  0  0  0  0  0  0  0  0  0  0  0
  161.2050  204.3390  152.8230 C   0  0  0  0  0  3  0  0  0  0  0  0
  161.3930  206.5950  147.1590 C   0  0  0  0  0  0  0  0  0  0  0  0
  161.1820  205.3520  146.4970 N   0  0  0  0  0  0  0  0  0  0  0  0
  162.0380  210.2140  149.4040 C   0  0  2  0  0  3  0  0  0  0  0  0
  162.7460  208.9040  151.3990 O   0  0  0  0  0  0  0  0  0  0  0  0
  160.9810  203.0070  146.2800 C   0  0  2  0  0  3  0  0  0  0  0  0
  162.0560  206.5530  152.7970 C   0  0  0  0  0  3  0  0  0  0  0  0
  162.6470  207.7080  150.6290 C   0  0  1  0  0  3  0  0  0  0  0  0
  162.0990  206.5460  151.3980 C   0  0  0  0  0  0  0  0  0  0  0  0
  161.7430  205.3610  149.2470 N   0  0  0  0  0  0  0  0  0  0  0  0
  160.4600  203.6750  145.0090 C   0  0  0  0  0  2  0  0  0  0  0  0
  161.9080  209.9480  150.9250 C   0  0  2  0  0  3  0  0  0  0  0  0
  160.3830  205.1650  145.3050 C   0  0  0  0  0  2  0  0  0  0  0  0
  161.2460  204.2840  151.4290 C   0  0  0  0  0  3  0  0  0  0  0  0
  161.7030  205.3910  150.6970 C   0  0  0  0  0  0  0  0  0  0  0  0
  161.4480  204.0790  148.5740 C   0  0  0  0  0  2  0  0  0  0  0  0
  162.4430  209.0300  148.6360 N   0  0  0  0  0  2  0  0  0  0  0  0
  160.9980  207.6710  146.6340 O   0  0  0  0  0  0  0  0  0  0  0  0
  159.8940  202.4920  146.9930 O   0  0  0  0  0  1  0  0  0  0  0  0
  162.1320  206.5690  148.4720 C   0  0  2  0  0  3  0  0  0  0  0  0
  161.6860  204.1210  147.0570 C   0  0  2  0  0  3  0  0  0  0  0  0
  160.3880  209.2650  152.7710 C   0  0  0  0  0  2  0  0  0  0  0  0
  160.4560  209.7210  151.3290 C   0  0  1  0  0  3  0  0  0  0  0  0
  160.0830  210.7050  152.4200 C   0  0  1  0  0  3  0  0  0  0  0  0
  158.5810  210.9140  152.3990 C   0  0  0  0  0  2  0  0  0  0  0  0
  158.1830  211.8300  153.5030 C   0  0  0  0  0  0  0  0  0  0  0  0
  158.4990  211.5600  154.6900 O   0  0  0  0  0  1  0  0  0  0  0  0
  157.4930  213.0010  153.2190 O   0  0  0  0  0  0  0  0  0  0  0  0
  162.8240  211.8960  147.9230 F   0  0  0  0  0  0  0  0  0  0  0  0
  163.0310  211.3360  149.1700 C   0  0  0  0  0  2  0  0  0  0  0  0
  1 19  1  6  0  0  0
  1 10  1  0  0  0  0
  3  2  1  0  0  0  0
  5 23  1  0  0  0  0
  5  4  1  0  0  0  0
  6 32  1  1  0  0  0
  6 14  1  0  0  0  0
  8 21  1  1  0  0  0
  8 23  1  0  0  0  0
  9  2  2  0  0  0  0
 10 11  1  1  0  0  0
 10  7  1  0  0  0  0
 11  9  1  0  0  0  0
 12 17  1  0  0  0  0
 13 15  1  0  0  0  0
 13  8  1  0  0  0  0
 14 25  1  0  0  0  0
 14  7  1  6  0  0  0
 15  5  1  0  0  0  0
 16  3  2  0  0  0  0
 17 11  2  0  0  0  0
 17 16  1  0  0  0  0
 18 12  1  0  0  0  0
 19  6  1  0  0  0  0
 20  4  2  0  0  0  0
 22  4  1  6  0  0  0
 22 12  1  0  0  0  0
 22  1  1  0  0  0  0
 23 18  1  1  0  0  0
 25 26  1  0  0  0  0
 25 24  1  1  0  0  0
 26 27  1  6  0  0  0
 26 24  1  0  0  0  0
 27 28  1  0  0  0  0
 28 29  1  0  0  0  0
 30 28  2  0  0  0  0
 31 32  1  0  0  0  0
M  END
>  <MODEL>
9

>  <REMARK>
 VINA RESULT:      -4.1      2.748      4.215
  Name = 
  4 active torsions:
  status: ('A' for Active; 'I' for Inactive)
    1  A    between atoms: C_7  and  C_19
    2  A    between atoms: C_10  and  C_17
    3  A    between atoms: C_20  and  C_29
    4  A    between atoms: C_29  and  C_30
                            x       y       z     vdW  Elec       q    Type
                         _______ _______ _______ _____ _____    ______ ____

>  <TORSDO>
F 4

$$$$
