=
 OpenBabel11122413063D

 31 35  0  0  1  0  0  0  0  0999 V2000
  162.2050  210.5130  149.4880 C   0  0  0  0  0  0  0  0  0  0  0  0
  161.8740  207.6910  151.9470 N   0  0  0  0  0  0  0  0  0  0  0  0
  161.2190  208.1900  153.1410 C   0  0  0  0  0  0  0  0  0  0  0  0
  160.1730  209.9830  154.4140 C   0  0  0  0  0  0  0  0  0  0  0  0
  161.8720  208.4420  150.7160 C   0  0  0  0  0  0  0  0  0  0  0  0
  161.8460  209.8710  148.3000 C   0  0  0  0  0  3  0  0  0  0  0  0
  160.8650  209.5420  153.2830 C   0  0  0  0  0  3  0  0  0  0  0  0
  161.0850  205.6600  150.8490 C   0  0  2  0  0  3  0  0  0  0  0  0
  162.5370  211.8250  149.4760 F   0  0  0  0  0  0  0  0  0  0  0  0
  161.1970  205.9420  154.0360 O   0  0  0  0  0  0  0  0  0  0  0  0
  159.8110  211.4180  154.5500 C   0  0  0  0  0  1  0  0  0  0  0  0
  161.2250  206.3160  149.4660 C   0  0  0  0  0  2  0  0  0  0  0  0
  162.1310  206.2500  151.7980 C   0  0  2  0  0  3  0  0  0  0  0  0
  162.2220  209.8000  150.6900 C   0  0  0  0  0  3  0  0  0  0  0  0
  159.8090  209.0730  155.4090 C   0  0  0  0  0  3  0  0  0  0  0  0
  161.5170  207.7950  149.5100 C   0  0  0  0  0  0  0  0  0  0  0  0
  161.5100  208.5160  148.3120 C   0  0  0  0  0  3  0  0  0  0  0  0
  162.2300  205.5290  153.1490 C   0  0  0  0  0  2  0  0  0  0  0  0
  160.8590  207.2870  154.1560 C   0  0  0  0  0  0  0  0  0  0  0  0
  160.1500  207.7250  155.2790 C   0  0  0  0  0  3  0  0  0  0  0  0
  161.2540  204.1530  150.7040 C   0  0  0  0  0  2  0  0  0  0  0  0
  159.6310  202.7750  149.5980 O   0  0  0  0  0  1  0  0  0  0  0  0
  160.6870  203.6640  149.3800 C   0  0  2  0  0  3  0  0  0  0  0  0
  160.9660  202.3350  145.8790 C   0  0  1  0  0  3  0  0  0  0  0  0
  161.9840  203.8410  147.2210 C   0  0  0  0  0  2  0  0  0  0  0  0
  161.1970  200.7920  149.2580 O   0  0  0  0  0  1  0  0  0  0  0  0
  160.0760  202.1700  144.8180 O   0  0  0  0  0  1  0  0  0  0  0  0
  160.8930  203.6580  146.3500 O   0  0  0  0  0  0  0  0  0  0  0  0
  161.5900  201.5480  148.1530 C   0  0  2  0  0  3  0  0  0  0  0  0
  161.7870  203.0360  148.5110 C   0  0  2  0  0  3  0  0  0  0  0  0
  160.6050  201.3620  147.0010 C   0  0  0  0  0  2  0  0  0  0  0  0
  1 14  1  0  0  0  0
  2  3  1  0  0  0  0
  3  7  2  0  0  0  0
  3 19  1  0  0  0  0
  4 11  1  0  0  0  0
  4 15  2  0  0  0  0
  5  2  1  0  0  0  0
  6 17  1  0  0  0  0
  6  1  2  0  0  0  0
  7  4  1  0  0  0  0
  8 21  1  6  0  0  0
  8 13  1  0  0  0  0
  9  1  1  0  0  0  0
 10 19  1  0  0  0  0
 12 16  1  0  0  0  0
 12  8  1  0  0  0  0
 13  2  1  0  0  0  0
 13 18  1  1  0  0  0
 14  5  2  0  0  0  0
 16  5  1  0  0  0  0
 17 16  2  0  0  0  0
 18 10  1  0  0  0  0
 19 20  2  0  0  0  0
 20 15  1  0  0  0  0
 23 22  1  1  0  0  0
 23 21  1  0  0  0  0
 24 27  1  6  0  0  0
 24 28  1  0  0  0  0
 24 31  1  0  0  0  0
 25 30  1  0  0  0  0
 28 25  1  0  0  0  0
 29 30  1  0  0  0  0
 29 26  1  1  0  0  0
 30 23  1  6  0  0  0
 31 29  1  0  0  0  0
M  END
>  <MODEL>
1

>  <REMARK>
 VINA RESULT:      -8.6      0.000      0.000
  Name = 
  3 active torsions:
  status: ('A' for Active; 'I' for Inactive)
    1  A    between atoms: C_5  and  C_16
    2  A    between atoms: C_5  and  C_30
    3  A    between atoms: C_10  and  C_16
                            x       y       z     vdW  Elec       q    Type
                         _______ _______ _______ _____ _____    ______ ____

>  <TORSDO>
F 3

$$$$
=
 OpenBabel11122413063D

 31 35  0  0  1  0  0  0  0  0999 V2000
  160.6870  207.3300  156.4150 C   0  0  0  0  0  0  0  0  0  0  0  0
  161.3530  208.7850  153.0160 N   0  0  0  0  0  0  0  0  0  0  0  0
  161.3580  207.7100  152.0430 C   0  0  0  0  0  0  0  0  0  0  0  0
  161.1370  205.3560  151.4570 C   0  0  0  0  0  0  0  0  0  0  0  0
  160.8300  208.5970  154.3470 C   0  0  0  0  0  0  0  0  0  0  0  0
  159.7800  208.2590  156.9280 C   0  0  0  0  0  3  0  0  0  0  0  0
  161.1970  206.3660  152.4210 C   0  0  0  0  0  3  0  0  0  0  0  0
  160.0190  210.7940  152.6460 C   0  0  2  0  0  3  0  0  0  0  0  0
  161.0590  206.2630  157.1620 F   0  0  0  0  0  0  0  0  0  0  0  0
  161.6100  209.3450  150.2770 O   0  0  0  0  0  0  0  0  0  0  0  0
  160.9710  203.9400  151.8760 C   0  0  0  0  0  1  0  0  0  0  0  0
  159.5440  210.7850  154.1090 C   0  0  0  0  0  2  0  0  0  0  0  0
  161.4200  210.1840  152.5650 C   0  0  2  0  0  3  0  0  0  0  0  0
  161.2130  207.5000  155.1320 C   0  0  0  0  0  3  0  0  0  0  0  0
  161.2180  205.6790  150.1010 C   0  0  0  0  0  3  0  0  0  0  0  0
  159.9170  209.5390  154.8720 C   0  0  0  0  0  0  0  0  0  0  0  0
  159.4020  209.3630  156.1600 C   0  0  0  0  0  3  0  0  0  0  0  0
  162.0870  210.3260  151.1900 C   0  0  0  0  0  2  0  0  0  0  0  0
  161.4530  208.0200  150.6750 C   0  0  0  0  0  0  0  0  0  0  0  0
  161.3730  207.0110  149.7110 C   0  0  0  0  0  3  0  0  0  0  0  0
  160.0050  212.2260  152.1270 C   0  0  0  0  0  2  0  0  0  0  0  0
  158.4530  212.6450  150.3460 O   0  0  0  0  0  1  0  0  0  0  0  0
  158.5970  212.6520  151.7360 C   0  0  2  0  0  3  0  0  0  0  0  0
  156.5990  213.9290  154.6480 C   0  0  1  0  0  3  0  0  0  0  0  0
  158.6890  214.0980  153.8040 C   0  0  0  0  0  2  0  0  0  0  0  0
  156.2550  214.2090  150.9530 O   0  0  0  0  0  1  0  0  0  0  0  0
  155.8110  213.3340  155.6330 O   0  0  0  0  0  1  0  0  0  0  0  0
  157.8560  213.2980  154.6090 O   0  0  0  0  0  0  0  0  0  0  0  0
  156.7750  214.4520  152.2240 C   0  0  2  0  0  3  0  0  0  0  0  0
  158.2540  214.0240  152.3360 C   0  0  2  0  0  3  0  0  0  0  0  0
  155.9060  213.7930  153.2930 C   0  0  0  0  0  2  0  0  0  0  0  0
  1  6  1  0  0  0  0
  1  9  1  0  0  0  0
  2  5  1  0  0  0  0
  3  7  1  0  0  0  0
  3  2  1  0  0  0  0
  4 11  1  0  0  0  0
  4  7  2  0  0  0  0
  5 16  2  0  0  0  0
  5 14  1  0  0  0  0
  8 21  1  1  0  0  0
  8 12  1  0  0  0  0
 10 19  1  0  0  0  0
 10 18  1  0  0  0  0
 12 16  1  0  0  0  0
 13 18  1  6  0  0  0
 13  8  1  0  0  0  0
 13  2  1  0  0  0  0
 14  1  2  0  0  0  0
 15  4  1  0  0  0  0
 16 17  1  0  0  0  0
 17  6  2  0  0  0  0
 19  3  2  0  0  0  0
 20 15  2  0  0  0  0
 20 19  1  0  0  0  0
 23 22  1  6  0  0  0
 23 21  1  0  0  0  0
 24 27  1  1  0  0  0
 25 28  1  0  0  0  0
 28 24  1  0  0  0  0
 29 26  1  6  0  0  0
 29 30  1  0  0  0  0
 29 31  1  0  0  0  0
 30 23  1  1  0  0  0
 30 25  1  0  0  0  0
 31 24  1  0  0  0  0
M  END
>  <MODEL>
2

>  <REMARK>
 VINA RESULT:      -7.7      4.267      9.113
  Name = 
  3 active torsions:
  status: ('A' for Active; 'I' for Inactive)
    1  A    between atoms: C_5  and  C_16
    2  A    between atoms: C_5  and  C_30
    3  A    between atoms: C_10  and  C_16
                            x       y       z     vdW  Elec       q    Type
                         _______ _______ _______ _____ _____    ______ ____

>  <TORSDO>
F 3

$$$$
=
 OpenBabel11122413063D

 31 35  0  0  1  0  0  0  0  0999 V2000
  160.9050  206.7450  146.9110 C   0  0  0  0  0  0  0  0  0  0  0  0
  160.7180  204.8440  150.1470 N   0  0  0  0  0  0  0  0  0  0  0  0
  160.8370  203.4270  149.8600 C   0  0  0  0  0  0  0  0  0  0  0  0
  161.1180  201.5780  148.3000 C   0  0  0  0  0  0  0  0  0  0  0  0
  161.0550  205.8440  149.1630 C   0  0  0  0  0  0  0  0  0  0  0  0
  161.7420  207.8030  147.2750 C   0  0  0  0  0  3  0  0  0  0  0  0
  160.9350  202.9410  148.5450 C   0  0  0  0  0  3  0  0  0  0  0  0
  162.1060  205.8900  151.8590 C   0  0  2  0  0  3  0  0  0  0  0  0
  160.4280  206.6630  145.6470 F   0  0  0  0  0  0  0  0  0  0  0  0
  160.8400  202.9750  152.2370 O   0  0  0  0  0  0  0  0  0  0  0  0
  161.2150  201.0820  146.9030 C   0  0  0  0  0  1  0  0  0  0  0  0
  162.3770  207.0970  150.9460 C   0  0  0  0  0  2  0  0  0  0  0  0
  160.7240  205.3150  151.5400 C   0  0  2  0  0  3  0  0  0  0  0  0
  160.5600  205.7720  147.8530 C   0  0  0  0  0  3  0  0  0  0  0  0
  161.2240  200.6850  149.3690 C   0  0  0  0  0  3  0  0  0  0  0  0
  161.8950  206.9200  149.5280 C   0  0  0  0  0  0  0  0  0  0  0  0
  162.2290  207.8930  148.5800 C   0  0  0  0  0  3  0  0  0  0  0  0
  160.2510  204.2370  152.5260 C   0  0  0  0  0  2  0  0  0  0  0  0
  160.9320  202.5160  150.9260 C   0  0  0  0  0  0  0  0  0  0  0  0
  161.1340  201.1540  150.6810 C   0  0  0  0  0  3  0  0  0  0  0  0
  162.2000  206.3350  153.3130 C   0  0  0  0  0  2  0  0  0  0  0  0
  160.6570  207.9930  152.5240 O   0  0  0  0  0  1  0  0  0  0  0  0
  161.0770  207.3000  153.6630 C   0  0  2  0  0  3  0  0  0  0  0  0
  159.4370  209.9440  155.7660 C   0  0  1  0  0  3  0  0  0  0  0  0
  160.6440  208.0520  156.0340 C   0  0  0  0  0  2  0  0  0  0  0  0
  162.1080  209.9880  153.1750 O   0  0  0  0  0  1  0  0  0  0  0  0
  158.1590  210.4990  155.8220 O   0  0  0  0  0  1  0  0  0  0  0  0
  159.3410  208.5410  155.8230 O   0  0  0  0  0  0  0  0  0  0  0  0
  161.5170  209.7580  154.4170 C   0  0  2  0  0  3  0  0  0  0  0  0
  161.5080  208.2580  154.7840 C   0  0  2  0  0  3  0  0  0  0  0  0
  160.1170  210.3670  154.4640 C   0  0  0  0  0  2  0  0  0  0  0  0
  1  6  2  0  0  0  0
  1 14  1  0  0  0  0
  2 13  1  0  0  0  0
  3  2  1  0  0  0  0
  3 19  1  0  0  0  0
  4  7  1  0  0  0  0
  4 15  2  0  0  0  0
  5 16  1  0  0  0  0
  5  2  1  0  0  0  0
  6 17  1  0  0  0  0
  7  3  2  0  0  0  0
  8 21  1  1  0  0  0
  9  1  1  0  0  0  0
 10 18  1  0  0  0  0
 11  4  1  0  0  0  0
 12  8  1  0  0  0  0
 13  8  1  0  0  0  0
 13 18  1  1  0  0  0
 14  5  2  0  0  0  0
 15 20  1  0  0  0  0
 16 12  1  0  0  0  0
 17 16  2  0  0  0  0
 19 10  1  0  0  0  0
 20 19  2  0  0  0  0
 21 23  1  0  0  0  0
 23 22  1  6  0  0  0
 24 27  1  6  0  0  0
 24 28  1  0  0  0  0
 28 25  1  0  0  0  0
 29 26  1  6  0  0  0
 29 31  1  0  0  0  0
 29 30  1  0  0  0  0
 30 23  1  6  0  0  0
 30 25  1  0  0  0  0
 31 24  1  0  0  0  0
M  END
>  <MODEL>
3

>  <REMARK>
 VINA RESULT:      -7.7      2.663      7.605
  Name = 
  3 active torsions:
  status: ('A' for Active; 'I' for Inactive)
    1  A    between atoms: C_5  and  C_16
    2  A    between atoms: C_5  and  C_30
    3  A    between atoms: C_10  and  C_16
                            x       y       z     vdW  Elec       q    Type
                         _______ _______ _______ _____ _____    ______ ____

>  <TORSDO>
F 3

$$$$
=
 OpenBabel11122413063D

 31 35  0  0  1  0  0  0  0  0999 V2000
  161.1990  201.7470  150.4050 C   0  0  0  0  0  0  0  0  0  0  0  0
  161.8180  205.0640  148.7520 N   0  0  0  0  0  0  0  0  0  0  0  0
  161.4360  204.9660  147.3570 C   0  0  0  0  0  0  0  0  0  0  0  0
  160.5540  203.7110  145.4650 C   0  0  0  0  0  0  0  0  0  0  0  0
  161.4210  204.0670  149.7150 C   0  0  0  0  0  0  0  0  0  0  0  0
  160.6250  202.1550  151.6100 C   0  0  0  0  0  3  0  0  0  0  0  0
  160.9810  203.7610  146.7940 C   0  0  0  0  0  3  0  0  0  0  0  0
  161.0080  206.8990  150.1400 C   0  0  2  0  0  3  0  0  0  0  0  0
  161.3680  200.4280  150.1470 F   0  0  0  0  0  0  0  0  0  0  0  0
  161.8920  207.3280  147.0940 O   0  0  0  0  0  0  0  0  0  0  0  0
  160.0810  202.4280  144.8850 C   0  0  0  0  0  1  0  0  0  0  0  0
  160.7190  205.9340  151.3020 C   0  0  0  0  0  2  0  0  0  0  0  0
  162.1880  206.3680  149.3230 C   0  0  2  0  0  3  0  0  0  0  0  0
  161.5990  202.6990  149.4630 C   0  0  0  0  0  3  0  0  0  0  0  0
  160.5580  204.8710  144.6860 C   0  0  0  0  0  3  0  0  0  0  0  0
  160.8460  204.4750  150.9400 C   0  0  0  0  0  0  0  0  0  0  0  0
  160.4550  203.5150  151.8790 C   0  0  0  0  0  3  0  0  0  0  0  0
  162.7060  207.3480  148.2610 C   0  0  0  0  0  2  0  0  0  0  0  0
  161.4480  206.1230  146.5570 C   0  0  0  0  0  0  0  0  0  0  0  0
  161.0030  206.0760  145.2330 C   0  0  0  0  0  3  0  0  0  0  0  0
  161.3020  208.2840  150.7050 C   0  0  0  0  0  2  0  0  0  0  0  0
  159.9930  209.6750  152.1580 O   0  0  0  0  0  1  0  0  0  0  0  0
  160.6750  208.4560  152.0810 C   0  0  2  0  0  3  0  0  0  0  0  0
  160.6920  207.7330  155.7660 C   0  0  1  0  0  3  0  0  0  0  0  0
  161.6420  206.9570  153.8670 C   0  0  0  0  0  2  0  0  0  0  0  0
  161.5820  210.7040  153.7090 O   0  0  0  0  0  1  0  0  0  0  0  0
  159.7060  207.5020  156.7240 O   0  0  0  0  0  1  0  0  0  0  0  0
  160.4860  206.8770  154.6680 O   0  0  0  0  0  0  0  0  0  0  0  0
  161.7140  209.4310  154.2650 C   0  0  2  0  0  3  0  0  0  0  0  0
  161.7340  208.3270  153.1860 C   0  0  2  0  0  3  0  0  0  0  0  0
  160.6260  209.1900  155.3100 C   0  0  0  0  0  2  0  0  0  0  0  0
  1  6  1  0  0  0  0
  2 13  1  0  0  0  0
  2  5  1  0  0  0  0
  3  2  1  0  0  0  0
  4  7  2  0  0  0  0
  5 16  2  0  0  0  0
  6 17  2  0  0  0  0
  7  3  1  0  0  0  0
  8 21  1  1  0  0  0
  8 12  1  0  0  0  0
  9  1  1  0  0  0  0
 10 18  1  0  0  0  0
 11  4  1  0  0  0  0
 13 18  1  6  0  0  0
 13  8  1  0  0  0  0
 14  5  1  0  0  0  0
 14  1  2  0  0  0  0
 15 20  2  0  0  0  0
 15  4  1  0  0  0  0
 16 12  1  0  0  0  0
 16 17  1  0  0  0  0
 19 10  1  0  0  0  0
 19  3  2  0  0  0  0
 20 19  1  0  0  0  0
 21 23  1  0  0  0  0
 23 22  1  6  0  0  0
 24 27  1  1  0  0  0
 25 28  1  0  0  0  0
 28 24  1  0  0  0  0
 29 26  1  6  0  0  0
 29 31  1  0  0  0  0
 30 23  1  6  0  0  0
 30 25  1  0  0  0  0
 30 29  1  0  0  0  0
 31 24  1  0  0  0  0
M  END
>  <MODEL>
4

>  <REMARK>
 VINA RESULT:      -7.2      3.289      8.338
  Name = 
  3 active torsions:
  status: ('A' for Active; 'I' for Inactive)
    1  A    between atoms: C_5  and  C_16
    2  A    between atoms: C_5  and  C_30
    3  A    between atoms: C_10  and  C_16
                            x       y       z     vdW  Elec       q    Type
                         _______ _______ _______ _____ _____    ______ ____

>  <TORSDO>
F 3

$$$$
=
 OpenBabel11122413063D

 31 35  0  0  1  0  0  0  0  0999 V2000
  160.7470  207.6560  155.0500 C   0  0  0  0  0  0  0  0  0  0  0  0
  161.6210  208.9630  151.6380 N   0  0  0  0  0  0  0  0  0  0  0  0
  161.4940  207.8810  150.6800 C   0  0  0  0  0  0  0  0  0  0  0  0
  160.9750  205.5680  150.1240 C   0  0  0  0  0  0  0  0  0  0  0  0
  161.0680  208.8630  152.9660 C   0  0  0  0  0  0  0  0  0  0  0  0
  159.9640  208.7020  155.5410 C   0  0  0  0  0  3  0  0  0  0  0  0
  161.1580  206.5750  151.0750 C   0  0  0  0  0  3  0  0  0  0  0  0
  160.5610  211.1210  151.2280 C   0  0  2  0  0  3  0  0  0  0  0  0
  160.9720  206.5610  155.8150 F   0  0  0  0  0  0  0  0  0  0  0  0
  161.9690  209.4440  148.8940 O   0  0  0  0  0  0  0  0  0  0  0  0
  160.6230  204.1910  150.5600 C   0  0  0  0  0  1  0  0  0  0  0  0
  160.0780  211.1960  152.6860 C   0  0  0  0  0  2  0  0  0  0  0  0
  161.8720  210.3340  151.1680 C   0  0  2  0  0  3  0  0  0  0  0  0
  161.3000  207.7380  153.7690 C   0  0  0  0  0  3  0  0  0  0  0  0
  161.1070  205.8580  148.7640 C   0  0  0  0  0  3  0  0  0  0  0  0
  160.2810  209.9230  153.4700 C   0  0  0  0  0  0  0  0  0  0  0  0
  159.7380  209.8340  154.7560 C   0  0  0  0  0  3  0  0  0  0  0  0
  162.5620  210.3680  149.7970 C   0  0  0  0  0  2  0  0  0  0  0  0
  161.6380  208.1560  149.3090 C   0  0  0  0  0  0  0  0  0  0  0  0
  161.4360  207.1530  148.3570 C   0  0  0  0  0  3  0  0  0  0  0  0
  160.7370  212.5360  150.6890 C   0  0  0  0  0  2  0  0  0  0  0  0
  160.6840  212.5420  148.2910 O   0  0  0  0  0  1  0  0  0  0  0  0
  159.9050  212.7490  149.4330 C   0  0  2  0  0  3  0  0  0  0  0  0
  156.5030  214.1690  150.1480 C   0  0  1  0  0  3  0  0  0  0  0  0
  158.6460  214.4530  150.8060 C   0  0  0  0  0  2  0  0  0  0  0  0
  158.6150  213.9250  147.0930 O   0  0  0  0  0  1  0  0  0  0  0  0
  155.2660  213.6260  150.4930 O   0  0  0  0  0  1  0  0  0  0  0  0
  157.4900  213.6790  151.0220 O   0  0  0  0  0  0  0  0  0  0  0  0
  158.1960  214.3880  148.3410 C   0  0  2  0  0  3  0  0  0  0  0  0
  159.2570  214.1410  149.4340 C   0  0  2  0  0  3  0  0  0  0  0  0
  156.8430  213.7820  148.7090 C   0  0  0  0  0  2  0  0  0  0  0  0
  1  6  1  0  0  0  0
  1  9  1  0  0  0  0
  2  5  1  0  0  0  0
  3  7  1  0  0  0  0
  3  2  1  0  0  0  0
  4 11  1  0  0  0  0
  4  7  2  0  0  0  0
  5 16  2  0  0  0  0
  5 14  1  0  0  0  0
  8 21  1  1  0  0  0
  8 12  1  0  0  0  0
 10 19  1  0  0  0  0
 10 18  1  0  0  0  0
 12 16  1  0  0  0  0
 13 18  1  6  0  0  0
 13  8  1  0  0  0  0
 13  2  1  0  0  0  0
 14  1  2  0  0  0  0
 15  4  1  0  0  0  0
 16 17  1  0  0  0  0
 17  6  2  0  0  0  0
 19  3  2  0  0  0  0
 20 15  2  0  0  0  0
 20 19  1  0  0  0  0
 23 22  1  6  0  0  0
 23 21  1  0  0  0  0
 24 27  1  1  0  0  0
 24 28  1  0  0  0  0
 25 28  1  0  0  0  0
 29 26  1  6  0  0  0
 29 31  1  0  0  0  0
 29 30  1  0  0  0  0
 30 23  1  1  0  0  0
 30 25  1  0  0  0  0
 31 24  1  0  0  0  0
M  END
>  <MODEL>
5

>  <REMARK>
 VINA RESULT:      -7.2      4.685      8.470
  Name = 
  3 active torsions:
  status: ('A' for Active; 'I' for Inactive)
    1  A    between atoms: C_5  and  C_16
    2  A    between atoms: C_5  and  C_30
    3  A    between atoms: C_10  and  C_16
                            x       y       z     vdW  Elec       q    Type
                         _______ _______ _______ _____ _____    ______ ____

>  <TORSDO>
F 3

$$$$
=
 OpenBabel11122413063D

 31 35  0  0  1  0  0  0  0  0999 V2000
  161.0090  201.4450  148.8930 C   0  0  0  0  0  0  0  0  0  0  0  0
  161.9200  204.9170  150.0040 N   0  0  0  0  0  0  0  0  0  0  0  0
  161.6360  205.8400  148.9220 C   0  0  0  0  0  0  0  0  0  0  0  0
  160.8310  206.3150  146.6730 C   0  0  0  0  0  0  0  0  0  0  0  0
  161.4020  203.5710  150.0030 C   0  0  0  0  0  0  0  0  0  0  0  0
  160.3710  200.9610  150.0360 C   0  0  0  0  0  3  0  0  0  0  0  0
  161.1620  205.3990  147.6750 C   0  0  0  0  0  3  0  0  0  0  0  0
  161.1070  205.3550  152.2620 C   0  0  2  0  0  3  0  0  0  0  0  0
  161.1280  200.6570  147.7980 F   0  0  0  0  0  0  0  0  0  0  0  0
  162.2320  207.6820  150.3740 O   0  0  0  0  0  0  0  0  0  0  0  0
  160.3350  205.8310  145.3590 C   0  0  0  0  0  1  0  0  0  0  0  0
  160.6840  203.8870  152.4280 C   0  0  0  0  0  2  0  0  0  0  0  0
  162.3140  205.4310  151.3240 C   0  0  2  0  0  3  0  0  0  0  0  0
  161.5260  202.7430  148.8780 C   0  0  0  0  0  3  0  0  0  0  0  0
  160.9520  207.6860  146.9130 C   0  0  0  0  0  3  0  0  0  0  0  0
  160.7610  203.0740  151.1600 C   0  0  0  0  0  0  0  0  0  0  0  0
  160.2530  201.7710  151.1680 C   0  0  0  0  0  3  0  0  0  0  0  0
  162.9590  206.8220  151.2440 C   0  0  0  0  0  2  0  0  0  0  0  0
  161.7670  207.2220  149.1450 C   0  0  0  0  0  0  0  0  0  0  0  0
  161.4180  208.1390  148.1490 C   0  0  0  0  0  3  0  0  0  0  0  0
  161.4300  205.9380  153.6320 C   0  0  0  0  0  2  0  0  0  0  0  0
  160.3580  207.8730  152.7020 O   0  0  0  0  0  1  0  0  0  0  0  0
  160.6130  207.1940  153.8980 C   0  0  2  0  0  3  0  0  0  0  0  0
  159.6590  210.1180  156.0530 C   0  0  1  0  0  3  0  0  0  0  0  0
  160.5750  208.0630  156.2680 C   0  0  0  0  0  2  0  0  0  0  0  0
  161.9920  209.6680  153.1890 O   0  0  0  0  0  1  0  0  0  0  0  0
  158.4990  210.8720  156.2240 O   0  0  0  0  0  1  0  0  0  0  0  0
  159.3500  208.7510  156.1790 O   0  0  0  0  0  0  0  0  0  0  0  0
  161.5170  209.5660  154.4970 C   0  0  2  0  0  3  0  0  0  0  0  0
  161.3130  208.0970  154.9250 C   0  0  2  0  0  3  0  0  0  0  0  0
  160.2450  210.3940  154.6690 C   0  0  0  0  0  2  0  0  0  0  0  0
  1  6  1  0  0  0  0
  2 13  1  0  0  0  0
  3 19  1  0  0  0  0
  3  2  1  0  0  0  0
  4 15  2  0  0  0  0
  4  7  1  0  0  0  0
  5  2  1  0  0  0  0
  5 16  2  0  0  0  0
  6 17  2  0  0  0  0
  7  3  2  0  0  0  0
  8 12  1  0  0  0  0
  8 21  1  1  0  0  0
  9  1  1  0  0  0  0
 10 18  1  0  0  0  0
 11  4  1  0  0  0  0
 13 18  1  6  0  0  0
 13  8  1  0  0  0  0
 14  1  2  0  0  0  0
 14  5  1  0  0  0  0
 15 20  1  0  0  0  0
 16 17  1  0  0  0  0
 16 12  1  0  0  0  0
 19 10  1  0  0  0  0
 20 19  2  0  0  0  0
 21 23  1  0  0  0  0
 23 22  1  6  0  0  0
 24 28  1  0  0  0  0
 24 27  1  6  0  0  0
 28 25  1  0  0  0  0
 29 26  1  6  0  0  0
 29 31  1  0  0  0  0
 29 30  1  0  0  0  0
 30 23  1  6  0  0  0
 30 25  1  0  0  0  0
 31 24  1  0  0  0  0
M  END
>  <MODEL>
6

>  <REMARK>
 VINA RESULT:      -7.0      3.528      8.060
  Name = 
  3 active torsions:
  status: ('A' for Active; 'I' for Inactive)
    1  A    between atoms: C_5  and  C_16
    2  A    between atoms: C_5  and  C_30
    3  A    between atoms: C_10  and  C_16
                            x       y       z     vdW  Elec       q    Type
                         _______ _______ _______ _____ _____    ______ ____

>  <TORSDO>
F 3

$$$$
=
 OpenBabel11122413063D

 31 35  0  0  1  0  0  0  0  0999 V2000
  161.4090  206.5570  151.8280 C   0  0  0  0  0  0  0  0  0  0  0  0
  160.3580  210.0540  152.7110 N   0  0  0  0  0  0  0  0  0  0  0  0
  160.5920  210.2660  154.1270 C   0  0  0  0  0  0  0  0  0  0  0  0
  161.3550  209.4920  156.3070 C   0  0  0  0  0  0  0  0  0  0  0  0
  160.9340  208.9330  152.0110 C   0  0  0  0  0  0  0  0  0  0  0  0
  162.0780  206.7790  150.6230 C   0  0  0  0  0  3  0  0  0  0  0  0
  161.0730  209.2420  154.9610 C   0  0  0  0  0  3  0  0  0  0  0  0
  161.1710  211.6570  151.0620 C   0  0  2  0  0  3  0  0  0  0  0  0
  161.3140  205.3030  152.3300 F   0  0  0  0  0  0  0  0  0  0  0  0
  159.9280  212.5780  153.8640 O   0  0  0  0  0  0  0  0  0  0  0  0
  161.8600  208.3970  157.1740 C   0  0  0  0  0  1  0  0  0  0  0  0
  161.6590  210.5180  150.1510 C   0  0  0  0  0  2  0  0  0  0  0  0
  159.9530  211.1810  151.8580 C   0  0  2  0  0  3  0  0  0  0  0  0
  160.8350  207.6290  152.5170 C   0  0  0  0  0  3  0  0  0  0  0  0
  161.1760  210.7740  156.8310 C   0  0  0  0  0  3  0  0  0  0  0  0
  161.6060  209.1520  150.7870 C   0  0  0  0  0  0  0  0  0  0  0  0
  162.1700  208.0710  150.1020 C   0  0  0  0  0  3  0  0  0  0  0  0
  159.2480  212.2930  152.6480 C   0  0  0  0  0  2  0  0  0  0  0  0
  160.4020  211.5480  154.6720 C   0  0  0  0  0  0  0  0  0  0  0  0
  160.7030  211.8020  156.0130 C   0  0  0  0  0  3  0  0  0  0  0  0
  160.8350  212.8710  150.2040 C   0  0  0  0  0  2  0  0  0  0  0  0
  162.6180  212.5870  148.6240 O   0  0  0  0  0  1  0  0  0  0  0  0
  161.2260  212.6390  148.7520 C   0  0  2  0  0  3  0  0  0  0  0  0
  158.1500  212.9680  146.6240 C   0  0  1  0  0  3  0  0  0  0  0  0
  159.1930  214.0660  148.3010 C   0  0  0  0  0  2  0  0  0  0  0  0
  161.7980  212.8430  145.8960 O   0  0  0  0  0  1  0  0  0  0  0  0
  157.0870  212.1250  146.2990 O   0  0  0  0  0  1  0  0  0  0  0  0
  158.3020  213.0110  148.0220 O   0  0  0  0  0  0  0  0  0  0  0  0
  160.5850  213.3750  146.3340 C   0  0  2  0  0  3  0  0  0  0  0  0
  160.6120  213.7110  147.8400 C   0  0  2  0  0  3  0  0  0  0  0  0
  159.4310  212.4420  145.9760 C   0  0  0  0  0  2  0  0  0  0  0  0
  1  9  1  0  0  0  0
  1 14  1  0  0  0  0
  2  3  1  0  0  0  0
  3 19  2  0  0  0  0
  3  7  1  0  0  0  0
  4 15  1  0  0  0  0
  4 11  1  0  0  0  0
  5 14  2  0  0  0  0
  5  2  1  0  0  0  0
  6  1  2  0  0  0  0
  7  4  2  0  0  0  0
  8 21  1  6  0  0  0
  8 13  1  0  0  0  0
 10 19  1  0  0  0  0
 12 16  1  0  0  0  0
 12  8  1  0  0  0  0
 13 18  1  1  0  0  0
 13  2  1  0  0  0  0
 16  5  1  0  0  0  0
 17  6  1  0  0  0  0
 17 16  2  0  0  0  0
 18 10  1  0  0  0  0
 19 20  1  0  0  0  0
 20 15  2  0  0  0  0
 23 22  1  1  0  0  0
 23 21  1  0  0  0  0
 24 27  1  1  0  0  0
 24 28  1  0  0  0  0
 28 25  1  0  0  0  0
 29 26  1  1  0  0  0
 29 30  1  0  0  0  0
 30 25  1  0  0  0  0
 30 23  1  1  0  0  0
 31 29  1  0  0  0  0
 31 24  1  0  0  0  0
M  END
>  <MODEL>
7

>  <REMARK>
 VINA RESULT:      -6.3      4.947      7.244
  Name = 
  3 active torsions:
  status: ('A' for Active; 'I' for Inactive)
    1  A    between atoms: C_5  and  C_16
    2  A    between atoms: C_5  and  C_30
    3  A    between atoms: C_10  and  C_16
                            x       y       z     vdW  Elec       q    Type
                         _______ _______ _______ _____ _____    ______ ____

>  <TORSDO>
F 3

$$$$
=
 OpenBabel11122413063D

 31 35  0  0  1  0  0  0  0  0999 V2000
  160.9690  213.2550  149.0450 C   0  0  0  0  0  0  0  0  0  0  0  0
  160.4710  211.6720  152.4160 N   0  0  0  0  0  0  0  0  0  0  0  0
  159.1810  212.0830  152.9360 C   0  0  0  0  0  0  0  0  0  0  0  0
  157.0870  213.3110  152.7340 C   0  0  0  0  0  0  0  0  0  0  0  0
  160.8200  211.8600  151.0300 C   0  0  0  0  0  0  0  0  0  0  0  0
  161.5030  212.1830  148.3260 C   0  0  0  0  0  3  0  0  0  0  0  0
  158.3540  212.9850  152.2440 C   0  0  0  0  0  3  0  0  0  0  0  0
  161.1070  209.3170  152.3810 C   0  0  2  0  0  3  0  0  0  0  0  0
  160.7770  214.4500  148.4370 F   0  0  0  0  0  0  0  0  0  0  0  0
  159.5070  210.6140  154.8310 O   0  0  0  0  0  0  0  0  0  0  0  0
  156.2280  214.2690  151.9900 C   0  0  0  0  0  1  0  0  0  0  0  0
  161.6780  209.4610  150.9610 C   0  0  0  0  0  2  0  0  0  0  0  0
  161.2550  210.6480  153.1230 C   0  0  2  0  0  3  0  0  0  0  0  0
  160.6330  213.0950  150.3920 C   0  0  0  0  0  3  0  0  0  0  0  0
  156.6220  212.7240  153.9130 C   0  0  0  0  0  3  0  0  0  0  0  0
  161.3680  210.7810  150.3000 C   0  0  0  0  0  0  0  0  0  0  0  0
  161.7070  210.9530  148.9540 C   0  0  0  0  0  3  0  0  0  0  0  0
  160.9130  210.5740  154.6170 C   0  0  0  0  0  2  0  0  0  0  0  0
  158.7060  211.5110  154.1290 C   0  0  0  0  0  0  0  0  0  0  0  0
  157.4310  211.8230  154.6090 C   0  0  0  0  0  3  0  0  0  0  0  0
  161.8430  208.1940  153.1020 C   0  0  0  0  0  2  0  0  0  0  0  0
  160.7390  206.2860  154.0500 O   0  0  0  0  0  1  0  0  0  0  0  0
  161.1740  206.8520  152.8470 C   0  0  2  0  0  3  0  0  0  0  0  0
  161.3650  205.4160  149.3820 C   0  0  1  0  0  3  0  0  0  0  0  0
  162.6560  206.5880  150.8200 C   0  0  0  0  0  2  0  0  0  0  0  0
  160.8230  203.9540  152.7620 O   0  0  0  0  0  1  0  0  0  0  0  0
  160.5650  205.4950  148.2430 O   0  0  0  0  0  1  0  0  0  0  0  0
  161.6430  206.7130  149.8500 O   0  0  0  0  0  0  0  0  0  0  0  0
  161.5200  204.5350  151.7020 C   0  0  2  0  0  3  0  0  0  0  0  0
  162.1140  205.9070  152.0820 C   0  0  2  0  0  3  0  0  0  0  0  0
  160.6320  204.6190  150.4620 C   0  0  0  0  0  2  0  0  0  0  0  0
  1 14  1  0  0  0  0
  2  3  1  0  0  0  0
  2 13  1  0  0  0  0
  3 19  1  0  0  0  0
  4 15  2  0  0  0  0
  5  2  1  0  0  0  0
  6 17  1  0  0  0  0
  6  1  2  0  0  0  0
  7  4  1  0  0  0  0
  7  3  2  0  0  0  0
  8 21  1  1  0  0  0
  8 13  1  0  0  0  0
  9  1  1  0  0  0  0
 11  4  1  0  0  0  0
 12  8  1  0  0  0  0
 13 18  1  1  0  0  0
 14  5  2  0  0  0  0
 15 20  1  0  0  0  0
 16 12  1  0  0  0  0
 16  5  1  0  0  0  0
 17 16  2  0  0  0  0
 18 10  1  0  0  0  0
 19 20  2  0  0  0  0
 19 10  1  0  0  0  0
 23 21  1  0  0  0  0
 23 22  1  1  0  0  0
 24 27  1  6  0  0  0
 24 28  1  0  0  0  0
 24 31  1  0  0  0  0
 25 30  1  0  0  0  0
 28 25  1  0  0  0  0
 29 30  1  0  0  0  0
 29 26  1  1  0  0  0
 30 23  1  6  0  0  0
 31 29  1  0  0  0  0
M  END
>  <MODEL>
8

>  <REMARK>
 VINA RESULT:      -6.1      2.573      4.425
  Name = 
  3 active torsions:
  status: ('A' for Active; 'I' for Inactive)
    1  A    between atoms: C_5  and  C_16
    2  A    between atoms: C_5  and  C_30
    3  A    between atoms: C_10  and  C_16
                            x       y       z     vdW  Elec       q    Type
                         _______ _______ _______ _____ _____    ______ ____

>  <TORSDO>
F 3

$$$$
=
 OpenBabel11122413063D

 31 35  0  0  1  0  0  0  0  0999 V2000
  161.2280  201.6540  150.4420 C   0  0  0  0  0  0  0  0  0  0  0  0
  161.7270  204.8620  148.5510 N   0  0  0  0  0  0  0  0  0  0  0  0
  161.3470  204.6490  147.1670 C   0  0  0  0  0  0  0  0  0  0  0  0
  160.5100  203.2290  145.3740 C   0  0  0  0  0  0  0  0  0  0  0  0
  161.3660  203.9240  149.5850 C   0  0  0  0  0  0  0  0  0  0  0  0
  160.6400  202.1290  151.6170 C   0  0  0  0  0  3  0  0  0  0  0  0
  160.9360  203.3910  146.6950 C   0  0  0  0  0  3  0  0  0  0  0  0
  160.8520  206.7630  149.8040 C   0  0  2  0  0  3  0  0  0  0  0  0
  161.4450  200.3270  150.2820 F   0  0  0  0  0  0  0  0  0  0  0  0
  161.7180  207.0000  146.7320 O   0  0  0  0  0  0  0  0  0  0  0  0
  160.0830  201.8900  144.8920 C   0  0  0  0  0  1  0  0  0  0  0  0
  160.5980  205.8760  151.0340 C   0  0  0  0  0  2  0  0  0  0  0  0
  162.0490  206.2170  149.0230 C   0  0  2  0  0  3  0  0  0  0  0  0
  161.5930  202.5490  149.4330 C   0  0  0  0  0  3  0  0  0  0  0  0
  160.4720  204.3270  144.5130 C   0  0  0  0  0  3  0  0  0  0  0  0
  160.7780  204.4000  150.7780 C   0  0  0  0  0  0  0  0  0  0  0  0
  160.4220  203.4980  151.7860 C   0  0  0  0  0  3  0  0  0  0  0  0
  162.5310  207.1350  147.8910 C   0  0  0  0  0  2  0  0  0  0  0  0
  161.3180  205.7440  146.2860 C   0  0  0  0  0  0  0  0  0  0  0  0
  160.8730  205.5850  144.9700 C   0  0  0  0  0  3  0  0  0  0  0  0
  161.0960  208.1950  150.2650 C   0  0  0  0  0  2  0  0  0  0  0  0
  162.2210  207.3890  152.2250 O   0  0  0  0  0  1  0  0  0  0  0  0
  162.3290  208.2800  151.1530 C   0  0  2  0  0  3  0  0  0  0  0  0
  160.2150  211.0730  152.5100 C   0  0  1  0  0  3  0  0  0  0  0  0
  162.0630  209.8990  153.0720 C   0  0  0  0  0  2  0  0  0  0  0  0
  162.1920  210.6040  149.3910 O   0  0  0  0  0  1  0  0  0  0  0  0
  158.8530  211.2410  152.7540 O   0  0  0  0  0  1  0  0  0  0  0  0
  160.6560  209.8820  153.1170 O   0  0  0  0  0  0  0  0  0  0  0  0
  161.9510  210.8290  150.7470 C   0  0  2  0  0  3  0  0  0  0  0  0
  162.5600  209.7210  151.6330 C   0  0  2  0  0  3  0  0  0  0  0  0
  160.4560  211.0080  151.0020 C   0  0  0  0  0  2  0  0  0  0  0  0
  1  6  1  0  0  0  0
  2 13  1  0  0  0  0
  2  5  1  0  0  0  0
  3  2  1  0  0  0  0
  4  7  2  0  0  0  0
  5 16  2  0  0  0  0
  6 17  2  0  0  0  0
  7  3  1  0  0  0  0
  8 21  1  1  0  0  0
  8 12  1  0  0  0  0
  9  1  1  0  0  0  0
 10 18  1  0  0  0  0
 11  4  1  0  0  0  0
 13 18  1  6  0  0  0
 13  8  1  0  0  0  0
 14  5  1  0  0  0  0
 14  1  2  0  0  0  0
 15 20  2  0  0  0  0
 15  4  1  0  0  0  0
 16 12  1  0  0  0  0
 16 17  1  0  0  0  0
 19 10  1  0  0  0  0
 19  3  2  0  0  0  0
 20 19  1  0  0  0  0
 21 23  1  0  0  0  0
 23 22  1  1  0  0  0
 24 27  1  6  0  0  0
 24 28  1  0  0  0  0
 25 28  1  0  0  0  0
 29 26  1  6  0  0  0
 29 31  1  0  0  0  0
 29 30  1  0  0  0  0
 30 23  1  6  0  0  0
 30 25  1  0  0  0  0
 31 24  1  0  0  0  0
M  END
>  <MODEL>
9

>  <REMARK>
 VINA RESULT:      -6.0      3.418      8.324
  Name = 
  3 active torsions:
  status: ('A' for Active; 'I' for Inactive)
    1  A    between atoms: C_5  and  C_16
    2  A    between atoms: C_5  and  C_30
    3  A    between atoms: C_10  and  C_16
                            x       y       z     vdW  Elec       q    Type
                         _______ _______ _______ _____ _____    ______ ____

>  <TORSDO>
F 3

$$$$
