=
 OpenBabel11122414063D

 28 31  0  0  1  0  0  0  0  0999 V2000
  157.9410  212.1980  153.3120 C   0  0  0  0  0  0  0  0  0  0  0  0
  160.4150  210.2810  151.4630 C   0  0  0  0  0  1  0  0  0  0  0  0
  158.8880  214.4530  151.9500 C   0  0  0  0  0  3  0  0  0  0  0  0
  157.4790  211.0800  154.0070 O   0  0  0  0  0  0  0  0  0  0  0  0
  162.3340  210.2300  152.8680 O   0  0  0  0  0  1  0  0  0  0  0  0
  161.0040  209.7990  152.7770 C   0  0  1  0  0  0  0  0  0  0  0  0
  161.2480  207.6720  154.1680 C   0  0  2  0  0  3  0  0  0  0  0  0
  160.2030  210.2920  153.9150 N   0  0  1  0  0  0  0  0  0  0  0  0
  156.0450  213.3350  155.8870 C   0  0  0  0  0  1  0  0  0  0  0  0
  160.1500  211.8520  155.7060 C   0  0  2  0  0  3  0  0  0  0  0  0
  160.4490  208.3230  155.2120 N   0  0  0  0  0  2  0  0  0  0  0  0
  160.9530  208.2610  152.7740 C   0  0  0  0  0  2  0  0  0  0  0  0
  156.4260  211.8730  156.0590 C   0  0  2  0  0  3  0  0  0  0  0  0
  159.3100  212.5190  153.3530 C   0  0  0  0  0  0  0  0  0  0  0  0
  160.9630  206.1860  154.1620 C   0  0  0  0  0  1  0  0  0  0  0  0
  157.7840  211.6710  156.7480 C   0  0  0  0  0  2  0  0  0  0  0  0
  159.7740  213.6500  152.6740 C   0  0  0  0  0  3  0  0  0  0  0  0
  157.0540  213.0110  152.5930 C   0  0  0  0  0  3  0  0  0  0  0  0
  157.5290  214.1350  151.9110 C   0  0  0  0  0  3  0  0  0  0  0  0
  156.2710  211.0860  154.7550 C   0  0  0  0  0  2  0  0  0  0  0  0
  160.2660  210.5020  156.2600 N   0  0  0  0  0  0  0  0  0  0  0  0
  158.8940  212.5940  156.2190 C   0  0  1  0  0  3  0  0  0  0  0  0
  160.7730  209.7390  155.1320 C   0  0  2  0  0  3  0  0  0  0  0  0
  160.2940  211.7220  154.1740 C   0  0  2  0  0  3  0  0  0  0  0  0
  160.1240  214.3970  156.5860 C   0  0  0  0  0  1  0  0  0  0  0  0
  159.2600  213.4990  157.2150 O   0  0  0  0  0  0  0  0  0  0  0  0
  161.3200  210.5460  157.2610 C   0  0  0  0  0  2  0  0  0  0  0  0
  162.6730  210.5770  156.5770 C   0  0  0  0  0  1  0  0  0  0  0  0
  1 14  1  0  0  0  0
  1  4  1  0  0  0  0
  3 17  1  0  0  0  0
  4 20  1  0  0  0  0
  6  2  1  6  0  0  0
  6  5  1  0  0  0  0
  6  8  1  0  0  0  0
  7 15  1  6  0  0  0
  7 11  1  0  0  0  0
  8 24  1  0  0  0  0
  8 23  1  0  0  0  0
  9 13  1  0  0  0  0
 10 22  1  0  0  0  0
 10 21  1  0  0  0  0
 12  6  1  0  0  0  0
 12  7  1  0  0  0  0
 13 16  1  0  0  0  0
 14 24  1  0  0  0  0
 17 14  2  0  0  0  0
 18  1  2  0  0  0  0
 19  3  2  0  0  0  0
 19 18  1  0  0  0  0
 20 13  1  0  0  0  0
 21 27  1  0  0  0  0
 22 16  1  0  0  0  0
 22 26  1  0  0  0  0
 23 11  1  0  0  0  0
 23 21  1  0  0  0  0
 24 10  1  0  0  0  0
 25 26  1  0  0  0  0
 28 27  1  0  0  0  0
M  END
>  <MODEL>
1

>  <REMARK>
 VINA RESULT:      -3.9      0.000      0.000
  Name = 
  2 active torsions:
  status: ('A' for Active; 'I' for Inactive)
    1  A    between atoms: C_5  and  N_24
    2  A    between atoms: O_17  and  C_25
                            x       y       z     vdW  Elec       q    Type
                         _______ _______ _______ _____ _____    ______ ____

>  <TORSDO>
F 2

$$$$
=
 OpenBabel11122414063D

 28 31  0  0  1  0  0  0  0  0999 V2000
  161.0190  209.4020  155.7540 C   0  0  0  0  0  0  0  0  0  0  0  0
  159.2930  212.2600  157.1920 C   0  0  0  0  0  1  0  0  0  0  0  0
  163.3210  210.3280  157.0510 C   0  0  0  0  0  3  0  0  0  0  0  0
  159.8790  208.9480  155.0900 O   0  0  0  0  0  0  0  0  0  0  0  0
  159.4440  213.9670  155.5420 O   0  0  0  0  0  1  0  0  0  0  0  0
  158.8940  212.7040  155.7960 C   0  0  1  0  0  0  0  0  0  0  0  0
  156.8270  212.9380  154.3160 C   0  0  2  0  0  3  0  0  0  0  0  0
  159.3370  211.7170  154.7930 N   0  0  1  0  0  0  0  0  0  0  0  0
  162.0350  207.0820  153.4940 C   0  0  0  0  0  1  0  0  0  0  0  0
  160.9230  211.2870  153.0760 C   0  0  2  0  0  3  0  0  0  0  0  0
  157.4250  211.9520  153.4100 N   0  0  0  0  0  2  0  0  0  0  0  0
  157.3570  212.7860  155.7560 C   0  0  0  0  0  2  0  0  0  0  0  0
  160.6180  207.5610  153.2250 C   0  0  2  0  0  3  0  0  0  0  0  0
  161.4620  210.7200  155.5410 C   0  0  0  0  0  0  0  0  0  0  0  0
  155.3210  212.7860  154.3110 C   0  0  0  0  0  1  0  0  0  0  0  0
  160.5520  208.8250  152.3540 C   0  0  0  0  0  2  0  0  0  0  0  0
  162.6160  211.1730  156.1890 C   0  0  0  0  0  3  0  0  0  0  0  0
  161.7350  208.5540  156.6110 C   0  0  0  0  0  3  0  0  0  0  0  0
  162.8810  209.0190  157.2610 C   0  0  0  0  0  3  0  0  0  0  0  0
  159.7930  207.6530  154.5110 C   0  0  0  0  0  2  0  0  0  0  0  0
  159.6010  211.4410  152.4680 N   0  0  0  0  0  0  0  0  0  0  0  0
  161.5590  209.9140  152.7610 C   0  0  1  0  0  3  0  0  0  0  0  0
  158.8620  212.1610  153.4930 C   0  0  2  0  0  3  0  0  0  0  0  0
  160.7740  211.6480  154.5700 C   0  0  2  0  0  3  0  0  0  0  0  0
  161.9780  209.3960  150.6500 C   0  0  0  0  0  1  0  0  0  0  0  0
  162.5140  210.0610  151.7540 O   0  0  0  0  0  0  0  0  0  0  0  0
  159.7600  212.3430  151.3370 C   0  0  0  0  0  2  0  0  0  0  0  0
  159.6880  213.7800  151.8150 C   0  0  0  0  0  1  0  0  0  0  0  0
  1 18  1  0  0  0  0
  3 19  1  0  0  0  0
  4  1  1  0  0  0  0
  5  6  1  0  0  0  0
  6  2  1  1  0  0  0
  7 15  1  1  0  0  0
  7 12  1  0  0  0  0
  8  6  1  0  0  0  0
 10 24  1  0  0  0  0
 11 23  1  0  0  0  0
 11  7  1  0  0  0  0
 12  6  1  0  0  0  0
 13  9  1  0  0  0  0
 13 20  1  0  0  0  0
 14  1  2  0  0  0  0
 14 17  1  0  0  0  0
 16 22  1  0  0  0  0
 16 13  1  0  0  0  0
 17  3  2  0  0  0  0
 18 19  2  0  0  0  0
 20  4  1  0  0  0  0
 21 10  1  0  0  0  0
 21 23  1  0  0  0  0
 22 10  1  0  0  0  0
 23  8  1  0  0  0  0
 24  8  1  0  0  0  0
 24 14  1  0  0  0  0
 25 26  1  0  0  0  0
 26 22  1  0  0  0  0
 27 28  1  0  0  0  0
 27 21  1  0  0  0  0
M  END
>  <MODEL>
2

>  <REMARK>
 VINA RESULT:      -3.4      1.657      5.996
  Name = 
  2 active torsions:
  status: ('A' for Active; 'I' for Inactive)
    1  A    between atoms: C_5  and  N_24
    2  A    between atoms: O_17  and  C_25
                            x       y       z     vdW  Elec       q    Type
                         _______ _______ _______ _____ _____    ______ ____

>  <TORSDO>
F 2

$$$$
