=
 OpenBabel11122414293D

 34 41  0  0  1  0  0  0  0  0999 V2000
  161.0530  205.0350  151.9810 C   0  0  2  0  0  3  0  0  0  0  0  0
  160.7680  206.5460  154.0510 C   0  0  0  0  0  3  0  0  0  0  0  0
  161.6340  204.1700  145.5370 C   0  0  2  0  0  3  0  0  0  0  0  0
  161.5300  203.7290  149.9040 C   0  0  1  0  0  3  0  0  0  0  0  0
  161.0270  204.9430  147.7820 C   0  0  0  0  0  0  0  0  0  0  0  0
  160.9580  206.1870  145.4710 C   0  0  0  0  0  2  0  0  0  0  0  0
  161.7090  205.2730  144.5040 C   0  0  0  0  0  2  0  0  0  0  0  0
  160.4390  202.1800  146.4660 C   0  0  0  0  0  2  0  0  0  0  0  0
  160.8390  207.5210  151.9150 C   0  0  0  0  0  0  0  0  0  0  0  0
  162.8330  209.5190  151.5230 C   0  0  0  0  0  2  0  0  0  0  0  0
  160.9880  206.2180  148.5290 C   0  0  0  0  0  3  0  0  0  0  0  0
  161.3480  202.4110  147.6930 C   0  0  0  0  0  2  0  0  0  0  0  0
  160.9330  207.5560  150.5820 C   0  0  0  0  0  0  0  0  0  0  0  0
  160.7250  208.0770  154.2140 C   0  0  0  0  0  3  0  0  0  0  0  0
  161.1850  203.7460  148.4270 C   0  0  1  0  0  3  0  0  0  0  0  0
  160.9760  202.8500  145.1800 C   0  0  0  0  0  2  0  0  0  0  0  0
  161.8450  209.7370  152.6850 C   0  0  2  0  0  3  0  0  0  0  0  0
  161.1680  205.0050  150.6320 C   0  0  0  0  0  0  0  0  0  0  0  0
  160.6490  204.9770  146.3320 C   0  0  1  0  0  3  0  0  0  0  0  0
  161.0620  206.2680  149.8590 C   0  0  0  0  0  0  0  0  0  0  0  0
  161.5150  202.5340  152.0610 C   0  0  0  0  0  2  0  0  0  0  0  0
  162.2240  209.6820  150.1210 C   0  0  0  0  0  2  0  0  0  0  0  0
  160.9850  202.5060  150.6350 C   0  0  0  0  0  2  0  0  0  0  0  0
  160.9370  208.8810  149.8740 C   0  0  0  0  0  2  0  0  0  0  0  0
  160.7120  208.7020  152.8120 C   0  0  1  0  0  3  0  0  0  0  0  0
  160.9870  203.7640  152.7980 C   0  0  0  0  0  2  0  0  0  0  0  0
  160.8570  206.3030  152.6260 N   0  0  0  0  0  0  0  0  0  0  0  0
  161.2890  211.0810  152.6460 N   0  0  0  0  0  2  0  0  0  0  0  0
  159.8450  210.9510  152.7470 C   0  0  0  0  0  2  0  0  0  0  0  0
  158.0070  210.8870  155.4290 O   0  0  0  0  0  0  0  0  0  0  0  0
  160.1070  211.8830  155.0220 C   0  0  0  0  0  2  0  0  0  0  0  0
  159.3040  211.9490  153.7550 C   0  0  2  0  0  3  0  0  0  0  0  0
  159.0970  211.4870  156.0730 C   0  0  0  0  0  2  0  0  0  0  0  0
  157.9170  211.5280  154.1840 C   0  0  0  0  0  2  0  0  0  0  0  0
  1 27  1  0  0  0  0
  1 26  1  6  0  0  0
  2 14  2  0  0  0  0
  3  7  1  6  0  0  0
  3 19  1  0  0  0  0
  4 18  1  0  0  0  0
  4 23  1  1  0  0  0
  5 15  1  0  0  0  0
  5 11  2  0  0  0  0
  7  6  1  0  0  0  0
  8 12  1  0  0  0  0
  9 27  1  0  0  0  0
  9 25  1  0  0  0  0
 10 17  1  0  0  0  0
 11 20  1  0  0  0  0
 13  9  2  0  0  0  0
 15 12  1  6  0  0  0
 15  4  1  0  0  0  0
 16  3  1  0  0  0  0
 16  8  1  0  0  0  0
 17 28  1  6  0  0  0
 17 25  1  0  0  0  0
 18  1  1  0  0  0  0
 19  6  1  6  0  0  0
 19  5  1  0  0  0  0
 20 13  1  0  0  0  0
 20 18  2  0  0  0  0
 21 26  1  0  0  0  0
 22 10  1  0  0  0  0
 23 21  1  0  0  0  0
 24 22  1  0  0  0  0
 24 13  1  0  0  0  0
 25 14  1  1  0  0  0
 27  2  1  0  0  0  0
 28 29  1  0  0  0  0
 30 33  1  0  0  0  0
 31 33  1  0  0  0  0
 32 29  1  6  0  0  0
 32 34  1  0  0  0  0
 32 31  1  0  0  0  0
 34 30  1  0  0  0  0
M  END
>  <MODEL>
1

>  <REMARK>
 VINA RESULT:      -9.2      0.000      0.000
  Name = 
  3 active torsions:
  status: ('A' for Active; 'I' for Inactive)
    1  A    between atoms: C_17  and  N_28
    2  A    between atoms: N_28  and  C_29
    3  A    between atoms: C_29  and  C_32
                            x       y       z     vdW  Elec       q    Type
                         _______ _______ _______ _____ _____    ______ ____

>  <TORSDO>
F 3

$$$$
=
 OpenBabel11122414293D

 34 41  0  0  1  0  0  0  0  0999 V2000
  161.0670  204.9360  151.9600 C   0  0  2  0  0  3  0  0  0  0  0  0
  160.7840  206.4220  154.0500 C   0  0  0  0  0  3  0  0  0  0  0  0
  161.6070  204.1510  145.5030 C   0  0  2  0  0  3  0  0  0  0  0  0
  161.5400  203.6590  149.8650 C   0  0  1  0  0  3  0  0  0  0  0  0
  161.0110  204.8930  147.7610 C   0  0  0  0  0  0  0  0  0  0  0  0
  160.9130  206.1620  145.4650 C   0  0  0  0  0  2  0  0  0  0  0  0
  161.6640  205.2660  144.4830 C   0  0  0  0  0  2  0  0  0  0  0  0
  160.4370  202.1400  146.4180 C   0  0  0  0  0  2  0  0  0  0  0  0
  160.8310  207.4220  151.9250 C   0  0  0  0  0  0  0  0  0  0  0  0
  162.8040  209.4420  151.5410 C   0  0  0  0  0  2  0  0  0  0  0  0
  160.9660  206.1580  148.5230 C   0  0  0  0  0  3  0  0  0  0  0  0
  161.3530  202.3640  147.6410 C   0  0  0  0  0  2  0  0  0  0  0  0
  160.9150  207.4720  150.5920 C   0  0  0  0  0  0  0  0  0  0  0  0
  160.7290  207.9500  154.2300 C   0  0  0  0  0  3  0  0  0  0  0  0
  161.1840  203.6890  148.3910 C   0  0  1  0  0  3  0  0  0  0  0  0
  160.9580  202.8290  145.1360 C   0  0  0  0  0  2  0  0  0  0  0  0
  161.8230  209.6380  152.7130 C   0  0  2  0  0  3  0  0  0  0  0  0
  161.1720  204.9230  150.6110 C   0  0  0  0  0  0  0  0  0  0  0  0
  160.6210  204.9390  146.3150 C   0  0  1  0  0  3  0  0  0  0  0  0
  161.0490  206.1940  149.8530 C   0  0  0  0  0  0  0  0  0  0  0  0
  161.5520  202.4390  152.0090 C   0  0  0  0  0  2  0  0  0  0  0  0
  162.1830  209.6150  150.1450 C   0  0  0  0  0  2  0  0  0  0  0  0
  161.0110  202.4230  150.5870 C   0  0  0  0  0  2  0  0  0  0  0  0
  160.9020  208.8050  149.8990 C   0  0  0  0  0  2  0  0  0  0  0  0
  160.7000  208.5900  152.8360 C   0  0  1  0  0  3  0  0  0  0  0  0
  161.0180  203.6560  152.7640 C   0  0  0  0  0  2  0  0  0  0  0  0
  160.8650  206.1950  152.6220 N   0  0  0  0  0  0  0  0  0  0  0  0
  161.2550  210.9760  152.6930 N   0  0  0  0  0  2  0  0  0  0  0  0
  160.8280  211.2820  154.0480 C   0  0  0  0  0  2  0  0  0  0  0  0
  158.9220  213.8570  153.4860 O   0  0  0  0  0  0  0  0  0  0  0  0
  158.8140  211.6490  152.6600 C   0  0  0  0  0  2  0  0  0  0  0  0
  159.3430  211.5990  154.0650 C   0  0  2  0  0  3  0  0  0  0  0  0
  158.2990  213.0610  152.5160 C   0  0  0  0  0  2  0  0  0  0  0  0
  159.1350  213.0050  154.5800 C   0  0  0  0  0  2  0  0  0  0  0  0
  1 27  1  0  0  0  0
  1 26  1  6  0  0  0
  2 14  2  0  0  0  0
  3  7  1  6  0  0  0
  3 19  1  0  0  0  0
  4 23  1  1  0  0  0
  4 18  1  0  0  0  0
  5 15  1  0  0  0  0
  5 11  2  0  0  0  0
  7  6  1  0  0  0  0
  8 12  1  0  0  0  0
  9 27  1  0  0  0  0
  9 25  1  0  0  0  0
 10 17  1  0  0  0  0
 11 20  1  0  0  0  0
 13  9  2  0  0  0  0
 15 12  1  6  0  0  0
 15  4  1  0  0  0  0
 16  3  1  0  0  0  0
 16  8  1  0  0  0  0
 17 28  1  6  0  0  0
 17 25  1  0  0  0  0
 18  1  1  0  0  0  0
 19  6  1  6  0  0  0
 19  5  1  0  0  0  0
 20 13  1  0  0  0  0
 20 18  2  0  0  0  0
 21 26  1  0  0  0  0
 22 10  1  0  0  0  0
 23 21  1  0  0  0  0
 24 22  1  0  0  0  0
 24 13  1  0  0  0  0
 25 14  1  1  0  0  0
 27  2  1  0  0  0  0
 28 29  1  0  0  0  0
 30 34  1  0  0  0  0
 31 32  1  0  0  0  0
 32 29  1  6  0  0  0
 32 34  1  0  0  0  0
 33 31  1  0  0  0  0
 33 30  1  0  0  0  0
M  END
>  <MODEL>
2

>  <REMARK>
 VINA RESULT:      -9.0      0.826      1.132
  Name = 
  3 active torsions:
  status: ('A' for Active; 'I' for Inactive)
    1  A    between atoms: C_17  and  N_28
    2  A    between atoms: N_28  and  C_29
    3  A    between atoms: C_29  and  C_32
                            x       y       z     vdW  Elec       q    Type
                         _______ _______ _______ _____ _____    ______ ____

>  <TORSDO>
F 3

$$$$
=
 OpenBabel11122414293D

 34 41  0  0  1  0  0  0  0  0999 V2000
  161.7230  208.2570  150.0830 C   0  0  2  0  0  3  0  0  0  0  0  0
  162.2230  210.2600  151.6300 C   0  0  0  0  0  3  0  0  0  0  0  0
  160.3420  201.9510  149.1150 C   0  0  2  0  0  3  0  0  0  0  0  0
  161.0260  206.2720  148.7350 C   0  0  1  0  0  3  0  0  0  0  0  0
  161.2080  204.0910  149.9370 C   0  0  0  0  0  0  0  0  0  0  0  0
  160.9340  201.7800  151.1510 C   0  0  0  0  0  2  0  0  0  0  0  0
  160.0970  200.9280  150.2010 C   0  0  0  0  0  2  0  0  0  0  0  0
  161.7130  202.7350  147.1770 C   0  0  0  0  0  2  0  0  0  0  0  0
  161.8420  208.1420  152.5740 C   0  0  0  0  0  0  0  0  0  0  0  0
  159.7480  207.9950  154.5010 C   0  0  0  0  0  2  0  0  0  0  0  0
  161.3000  204.8160  151.2220 C   0  0  0  0  0  3  0  0  0  0  0  0
  160.9640  204.0680  147.3940 C   0  0  0  0  0  2  0  0  0  0  0  0
  161.5750  206.8320  152.5880 C   0  0  0  0  0  0  0  0  0  0  0  0
  162.2350  210.4010  153.1640 C   0  0  0  0  0  3  0  0  0  0  0  0
  161.1760  204.7620  148.7430 C   0  0  1  0  0  3  0  0  0  0  0  0
  160.9930  201.5240  147.8120 C   0  0  0  0  0  2  0  0  0  0  0  0
  160.8700  209.0160  154.7660 C   0  0  2  0  0  3  0  0  0  0  0  0
  161.4350  206.9350  150.0320 C   0  0  0  0  0  0  0  0  0  0  0  0
  161.3930  202.6050  149.9630 C   0  0  1  0  0  3  0  0  0  0  0  0
  161.3980  206.1430  151.2870 C   0  0  0  0  0  0  0  0  0  0  0  0
  161.3610  208.4190  147.5690 C   0  0  0  0  0  2  0  0  0  0  0  0
  160.1640  206.5230  154.6650 C   0  0  0  0  0  2  0  0  0  0  0  0
  161.7030  206.9370  147.5410 C   0  0  0  0  0  2  0  0  0  0  0  0
  161.4350  206.1190  153.9020 C   0  0  0  0  0  2  0  0  0  0  0  0
  162.0450  209.0040  153.7700 C   0  0  1  0  0  3  0  0  0  0  0  0
  161.9380  209.0710  148.8260 C   0  0  0  0  0  2  0  0  0  0  0  0
  161.9580  208.8600  151.3650 N   0  0  0  0  0  0  0  0  0  0  0  0
  161.3710  208.8930  156.1260 N   0  0  0  0  0  2  0  0  0  0  0  0
  160.5720  209.7750  156.9600 C   0  0  0  0  0  2  0  0  0  0  0  0
  158.5020  212.2650  157.2610 O   0  0  0  0  0  0  0  0  0  0  0  0
  160.8310  212.2330  156.8850 C   0  0  0  0  0  2  0  0  0  0  0  0
  160.2290  211.0410  156.1970 C   0  0  2  0  0  3  0  0  0  0  0  0
  159.6380  213.0840  157.2480 C   0  0  0  0  0  2  0  0  0  0  0  0
  158.7400  211.2910  156.2800 C   0  0  0  0  0  2  0  0  0  0  0  0
  1 26  1  6  0  0  0
  1 27  1  0  0  0  0
  2 14  2  0  0  0  0
  3 16  1  6  0  0  0
  3 19  1  0  0  0  0
  3  7  1  0  0  0  0
  4 23  1  6  0  0  0
  4 15  1  0  0  0  0
  4 18  1  0  0  0  0
  5 19  1  0  0  0  0
  5 11  2  0  0  0  0
  7  6  1  0  0  0  0
  8 12  1  0  0  0  0
  8 16  1  0  0  0  0
  9 13  2  0  0  0  0
  9 25  1  0  0  0  0
 10 22  1  0  0  0  0
 10 17  1  0  0  0  0
 11 20  1  0  0  0  0
 13 24  1  0  0  0  0
 15 12  1  6  0  0  0
 15  5  1  0  0  0  0
 17 28  1  1  0  0  0
 18  1  1  0  0  0  0
 18 20  2  0  0  0  0
 19  6  1  1  0  0  0
 20 13  1  0  0  0  0
 21 26  1  0  0  0  0
 23 21  1  0  0  0  0
 24 22  1  0  0  0  0
 25 14  1  6  0  0  0
 25 17  1  0  0  0  0
 27  2  1  0  0  0  0
 27  9  1  0  0  0  0
 28 29  1  0  0  0  0
 31 33  1  0  0  0  0
 32 34  1  0  0  0  0
 32 31  1  0  0  0  0
 32 29  1  1  0  0  0
 33 30  1  0  0  0  0
 34 30  1  0  0  0  0
M  END
>  <MODEL>
3

>  <REMARK>
 VINA RESULT:      -7.9      1.650      3.951
  Name = 
  3 active torsions:
  status: ('A' for Active; 'I' for Inactive)
    1  A    between atoms: C_17  and  N_28
    2  A    between atoms: N_28  and  C_29
    3  A    between atoms: C_29  and  C_32
                            x       y       z     vdW  Elec       q    Type
                         _______ _______ _______ _____ _____    ______ ____

>  <TORSDO>
F 3

$$$$
=
 OpenBabel11122414293D

 34 41  0  0  1  0  0  0  0  0999 V2000
  161.5810  207.9850  149.7930 C   0  0  2  0  0  3  0  0  0  0  0  0
  161.2670  206.5850  147.6490 C   0  0  0  0  0  3  0  0  0  0  0  0
  161.2620  208.7180  156.2720 C   0  0  2  0  0  3  0  0  0  0  0  0
  162.0230  209.1350  151.9670 C   0  0  1  0  0  3  0  0  0  0  0  0
  160.8660  208.1150  153.9300 C   0  0  0  0  0  0  0  0  0  0  0  0
  160.0810  206.9530  156.1490 C   0  0  0  0  0  2  0  0  0  0  0  0
  160.8690  207.6440  157.2600 C   0  0  0  0  0  2  0  0  0  0  0  0
  160.8080  210.9460  155.2310 C   0  0  0  0  0  2  0  0  0  0  0  0
  160.7150  205.6440  149.7300 C   0  0  0  0  0  0  0  0  0  0  0  0
  162.0180  203.1930  150.3730 C   0  0  0  0  0  2  0  0  0  0  0  0
  160.6220  206.8900  153.1390 C   0  0  0  0  0  3  0  0  0  0  0  0
  161.8190  210.4730  154.1650 C   0  0  0  0  0  2  0  0  0  0  0  0
  160.5680  205.5970  151.0580 C   0  0  0  0  0  0  0  0  0  0  0  0
  160.8520  205.1190  147.4250 C   0  0  0  0  0  3  0  0  0  0  0  0
  161.4390  209.2220  153.3650 C   0  0  1  0  0  3  0  0  0  0  0  0
  160.9220  210.1680  156.5620 C   0  0  0  0  0  2  0  0  0  0  0  0
  161.2210  203.2350  149.0560 C   0  0  2  0  0  3  0  0  0  0  0  0
  161.4690  207.9940  151.1420 C   0  0  0  0  0  0  0  0  0  0  0  0
  160.2510  208.1950  155.2940 C   0  0  1  0  0  3  0  0  0  0  0  0
  160.9050  206.8110  151.8400 C   0  0  0  0  0  0  0  0  0  0  0  0
  162.6890  210.2740  149.8840 C   0  0  0  0  0  2  0  0  0  0  0  0
  161.1580  203.2090  151.6480 C   0  0  0  0  0  2  0  0  0  0  0  0
  161.9500  210.4520  151.2010 C   0  0  0  0  0  2  0  0  0  0  0  0
  160.1040  204.3240  151.7070 C   0  0  0  0  0  2  0  0  0  0  0  0
  160.4370  204.5320  148.7810 C   0  0  1  0  0  3  0  0  0  0  0  0
  161.9910  209.2200  149.0230 C   0  0  0  0  0  2  0  0  0  0  0  0
  161.1730  206.8080  149.0770 N   0  0  0  0  0  0  0  0  0  0  0  0
  160.3330  202.0870  148.9530 N   0  0  0  0  0  2  0  0  0  0  0  0
  161.1440  200.9530  148.5410 C   0  0  0  0  0  2  0  0  0  0  0  0
  160.4060  199.6400  145.6580 O   0  0  0  0  0  0  0  0  0  0  0  0
  160.5320  201.8960  146.3380 C   0  0  0  0  0  2  0  0  0  0  0  0
  161.5720  201.1200  147.0940 C   0  0  2  0  0  3  0  0  0  0  0  0
  160.0810  200.9420  145.2580 C   0  0  0  0  0  2  0  0  0  0  0  0
  161.5810  199.7700  146.4130 C   0  0  0  0  0  2  0  0  0  0  0  0
  1 26  1  6  0  0  0
  1 18  1  0  0  0  0
  2 27  1  0  0  0  0
  3 16  1  1  0  0  0
  3  7  1  0  0  0  0
  4 23  1  6  0  0  0
  4 15  1  0  0  0  0
  5 19  1  0  0  0  0
  6  7  1  0  0  0  0
  8 16  1  0  0  0  0
  9 13  2  0  0  0  0
 10 22  1  0  0  0  0
 11  5  2  0  0  0  0
 12  8  1  0  0  0  0
 13 24  1  0  0  0  0
 13 20  1  0  0  0  0
 14  2  2  0  0  0  0
 15  5  1  0  0  0  0
 15 12  1  1  0  0  0
 17 28  1  1  0  0  0
 17 10  1  0  0  0  0
 18 20  2  0  0  0  0
 18  4  1  0  0  0  0
 19  6  1  1  0  0  0
 19  3  1  0  0  0  0
 20 11  1  0  0  0  0
 21 23  1  0  0  0  0
 22 24  1  0  0  0  0
 25 14  1  6  0  0  0
 25 17  1  0  0  0  0
 25  9  1  0  0  0  0
 26 21  1  0  0  0  0
 27  9  1  0  0  0  0
 27  1  1  0  0  0  0
 29 28  1  0  0  0  0
 30 34  1  0  0  0  0
 31 32  1  0  0  0  0
 32 29  1  1  0  0  0
 33 30  1  0  0  0  0
 33 31  1  0  0  0  0
 34 32  1  0  0  0  0
M  END
>  <MODEL>
4

>  <REMARK>
 VINA RESULT:      -7.7      3.162      9.180
  Name = 
  3 active torsions:
  status: ('A' for Active; 'I' for Inactive)
    1  A    between atoms: C_17  and  N_28
    2  A    between atoms: N_28  and  C_29
    3  A    between atoms: C_29  and  C_32
                            x       y       z     vdW  Elec       q    Type
                         _______ _______ _______ _____ _____    ______ ____

>  <TORSDO>
F 3

$$$$
=
 OpenBabel11122414293D

 34 41  0  0  1  0  0  0  0  0999 V2000
  160.6670  207.0670  153.9400 C   0  0  2  0  0  3  0  0  0  0  0  0
  161.6570  204.8080  153.1840 C   0  0  0  0  0  3  0  0  0  0  0  0
  158.9390  213.2550  152.7840 C   0  0  2  0  0  3  0  0  0  0  0  0
  159.5500  209.2420  154.4580 C   0  0  1  0  0  3  0  0  0  0  0  0
  160.0550  211.0740  152.8400 C   0  0  0  0  0  0  0  0  0  0  0  0
  160.1290  212.9850  151.0410 C   0  0  0  0  0  2  0  0  0  0  0  0
  159.0230  213.9560  151.4470 C   0  0  0  0  0  2  0  0  0  0  0  0
  159.6570  213.1000  155.1740 C   0  0  0  0  0  2  0  0  0  0  0  0
  161.5490  206.5870  151.6540 C   0  0  0  0  0  0  0  0  0  0  0  0
  160.1510  206.0600  149.2270 C   0  0  0  0  0  2  0  0  0  0  0  0
  160.5540  210.0730  151.8730 C   0  0  0  0  0  3  0  0  0  0  0  0
  159.0370  211.6880  155.1000 C   0  0  0  0  0  2  0  0  0  0  0  0
  161.2750  207.8220  151.2220 C   0  0  0  0  0  0  0  0  0  0  0  0
  162.1460  204.3020  151.8140 C   0  0  0  0  0  3  0  0  0  0  0  0
  159.6680  210.7120  154.1020 C   0  0  1  0  0  3  0  0  0  0  0  0
  159.1470  214.0450  154.0630 C   0  0  0  0  0  2  0  0  0  0  0  0
  161.3190  205.1190  149.5790 C   0  0  2  0  0  3  0  0  0  0  0  0
  160.3530  208.3270  153.5580 C   0  0  0  0  0  0  0  0  0  0  0  0
  160.2130  212.5210  152.4830 C   0  0  1  0  0  3  0  0  0  0  0  0
  160.6910  208.7850  152.1870 C   0  0  0  0  0  0  0  0  0  0  0  0
  159.5470  207.4830  156.1870 C   0  0  0  0  0  2  0  0  0  0  0  0
  160.5710  207.4810  148.8170 C   0  0  0  0  0  2  0  0  0  0  0  0
  159.8360  208.9540  155.9290 C   0  0  0  0  0  2  0  0  0  0  0  0
  161.5350  208.1800  149.7860 C   0  0  0  0  0  2  0  0  0  0  0  0
  162.1270  205.4860  150.8380 C   0  0  1  0  0  3  0  0  0  0  0  0
  160.4970  206.6060  155.3700 C   0  0  0  0  0  2  0  0  0  0  0  0
  161.2980  206.1980  152.9860 N   0  0  0  0  0  0  0  0  0  0  0  0
  162.2130  204.9580  148.4430 N   0  0  0  0  0  2  0  0  0  0  0  0
  161.6490  203.9210  147.5950 C   0  0  0  0  0  2  0  0  0  0  0  0
  160.4560  204.3940  144.6070 O   0  0  0  0  0  0  0  0  0  0  0  0
  162.1890  205.4970  145.7680 C   0  0  0  0  0  2  0  0  0  0  0  0
  162.1920  204.0540  146.1830 C   0  0  2  0  0  3  0  0  0  0  0  0
  161.2790  205.5280  144.5640 C   0  0  0  0  0  2  0  0  0  0  0  0
  161.2350  203.3980  145.2140 C   0  0  0  0  0  2  0  0  0  0  0  0
  1 26  1  1  0  0  0
  3  7  1  6  0  0  0
  3 16  1  0  0  0  0
  4 23  1  1  0  0  0
  5 15  1  0  0  0  0
  6  7  1  0  0  0  0
  9 27  1  0  0  0  0
 10 17  1  0  0  0  0
 11 20  1  0  0  0  0
 11  5  2  0  0  0  0
 12  8  1  0  0  0  0
 13  9  2  0  0  0  0
 13 20  1  0  0  0  0
 14  2  2  0  0  0  0
 15  4  1  0  0  0  0
 15 12  1  6  0  0  0
 16  8  1  0  0  0  0
 17 28  1  6  0  0  0
 17 25  1  0  0  0  0
 18  1  1  0  0  0  0
 18  4  1  0  0  0  0
 19  6  1  6  0  0  0
 19  3  1  0  0  0  0
 19  5  1  0  0  0  0
 20 18  2  0  0  0  0
 22 10  1  0  0  0  0
 22 24  1  0  0  0  0
 23 21  1  0  0  0  0
 24 13  1  0  0  0  0
 25  9  1  0  0  0  0
 25 14  1  1  0  0  0
 26 21  1  0  0  0  0
 27  2  1  0  0  0  0
 27  1  1  0  0  0  0
 29 28  1  0  0  0  0
 30 34  1  0  0  0  0
 31 32  1  0  0  0  0
 32 29  1  1  0  0  0
 33 30  1  0  0  0  0
 33 31  1  0  0  0  0
 34 32  1  0  0  0  0
M  END
>  <MODEL>
5

>  <REMARK>
 VINA RESULT:      -7.1      2.722      8.395
  Name = 
  3 active torsions:
  status: ('A' for Active; 'I' for Inactive)
    1  A    between atoms: C_17  and  N_28
    2  A    between atoms: N_28  and  C_29
    3  A    between atoms: C_29  and  C_32
                            x       y       z     vdW  Elec       q    Type
                         _______ _______ _______ _____ _____    ______ ____

>  <TORSDO>
F 3

$$$$
=
 OpenBabel11122414293D

 34 41  0  0  1  0  0  0  0  0999 V2000
  161.5580  207.6490  148.5710 C   0  0  2  0  0  3  0  0  0  0  0  0
  162.1170  210.0580  149.3040 C   0  0  0  0  0  3  0  0  0  0  0  0
  160.5270  201.3380  149.8830 C   0  0  2  0  0  3  0  0  0  0  0  0
  160.8310  205.3160  148.0490 C   0  0  1  0  0  3  0  0  0  0  0  0
  161.3370  203.6510  149.8380 C   0  0  0  0  0  0  0  0  0  0  0  0
  161.4040  201.8550  151.7520 C   0  0  0  0  0  2  0  0  0  0  0  0
  160.5090  200.7180  151.2630 C   0  0  0  0  0  2  0  0  0  0  0  0
  161.5570  201.4840  147.6100 C   0  0  0  0  0  2  0  0  0  0  0  0
  162.0270  208.3540  150.9200 C   0  0  0  0  0  0  0  0  0  0  0  0
  160.2340  208.7890  153.0910 C   0  0  0  0  0  2  0  0  0  0  0  0
  161.5510  204.7560  150.7960 C   0  0  0  0  0  3  0  0  0  0  0  0
  160.7490  202.7950  147.5050 C   0  0  0  0  0  2  0  0  0  0  0  0
  161.8620  207.1140  151.3900 C   0  0  0  0  0  0  0  0  0  0  0  0
  162.3290  210.6910  150.6920 C   0  0  0  0  0  3  0  0  0  0  0  0
  161.0910  203.8960  148.5140 C   0  0  1  0  0  3  0  0  0  0  0  0
  161.0220  200.5270  148.7000 C   0  0  0  0  0  2  0  0  0  0  0  0
  161.3040  209.8700  152.8420 C   0  0  2  0  0  3  0  0  0  0  0  0
  161.3650  206.3760  148.9880 C   0  0  0  0  0  0  0  0  0  0  0  0
  161.6340  202.2590  150.3070 C   0  0  1  0  0  3  0  0  0  0  0  0
  161.5580  206.0350  150.4200 C   0  0  0  0  0  0  0  0  0  0  0  0
  160.8430  206.9750  146.2240 C   0  0  0  0  0  2  0  0  0  0  0  0
  160.7770  207.4620  153.6480 C   0  0  0  0  0  2  0  0  0  0  0  0
  161.2860  205.5730  146.6150 C   0  0  0  0  0  2  0  0  0  0  0  0
  161.9560  206.8640  152.8680 C   0  0  0  0  0  2  0  0  0  0  0  0
  162.3280  209.5630  151.7320 C   0  0  1  0  0  3  0  0  0  0  0  0
  161.5380  208.0140  147.1040 C   0  0  0  0  0  2  0  0  0  0  0  0
  161.9220  208.6420  149.5430 N   0  0  0  0  0  0  0  0  0  0  0  0
  161.9940  210.2080  154.0760 N   0  0  0  0  0  2  0  0  0  0  0  0
  161.0770  210.9990  154.8790 C   0  0  0  0  0  2  0  0  0  0  0  0
  160.2100  208.6080  156.9060 O   0  0  0  0  0  0  0  0  0  0  0  0
  162.3100  209.6090  156.5110 C   0  0  0  0  0  2  0  0  0  0  0  0
  161.2500  210.6620  156.3490 C   0  0  2  0  0  3  0  0  0  0  0  0
  161.5800  208.4550  157.1560 C   0  0  0  0  0  2  0  0  0  0  0  0
  159.9950  209.9930  156.8630 C   0  0  0  0  0  2  0  0  0  0  0  0
  1 26  1  6  0  0  0
  1 18  1  0  0  0  0
  1 27  1  0  0  0  0
  2 27  1  0  0  0  0
  2 14  2  0  0  0  0
  3 16  1  6  0  0  0
  3 19  1  0  0  0  0
  3  7  1  0  0  0  0
  4 23  1  6  0  0  0
  4 15  1  0  0  0  0
  4 18  1  0  0  0  0
  5 19  1  0  0  0  0
  5 11  2  0  0  0  0
  7  6  1  0  0  0  0
  8 16  1  0  0  0  0
  9 13  2  0  0  0  0
  9 25  1  0  0  0  0
 10 22  1  0  0  0  0
 12  8  1  0  0  0  0
 13 24  1  0  0  0  0
 15 12  1  1  0  0  0
 15  5  1  0  0  0  0
 17 10  1  0  0  0  0
 17 28  1  1  0  0  0
 18 20  2  0  0  0  0
 19  6  1  1  0  0  0
 20 11  1  0  0  0  0
 20 13  1  0  0  0  0
 21 23  1  0  0  0  0
 21 26  1  0  0  0  0
 24 22  1  0  0  0  0
 25 14  1  6  0  0  0
 25 17  1  0  0  0  0
 27  9  1  0  0  0  0
 28 29  1  0  0  0  0
 30 33  1  0  0  0  0
 31 33  1  0  0  0  0
 32 29  1  6  0  0  0
 32 31  1  0  0  0  0
 32 34  1  0  0  0  0
 34 30  1  0  0  0  0
M  END
>  <MODEL>
6

>  <REMARK>
 VINA RESULT:      -7.1      1.678      4.125
  Name = 
  3 active torsions:
  status: ('A' for Active; 'I' for Inactive)
    1  A    between atoms: C_17  and  N_28
    2  A    between atoms: N_28  and  C_29
    3  A    between atoms: C_29  and  C_32
                            x       y       z     vdW  Elec       q    Type
                         _______ _______ _______ _____ _____    ______ ____

>  <TORSDO>
F 3

$$$$
=
 OpenBabel11122414293D

 34 41  0  0  1  0  0  0  0  0999 V2000
  161.0540  203.7970  151.1040 C   0  0  2  0  0  3  0  0  0  0  0  0
  160.9610  204.8590  153.4530 C   0  0  0  0  0  3  0  0  0  0  0  0
  161.1270  204.2540  144.5930 C   0  0  2  0  0  3  0  0  0  0  0  0
  161.3410  202.9360  148.7760 C   0  0  1  0  0  3  0  0  0  0  0  0
  160.7100  204.5610  146.9880 C   0  0  0  0  0  0  0  0  0  0  0  0
  160.4980  206.2480  144.9890 C   0  0  0  0  0  2  0  0  0  0  0  0
  161.1510  205.5430  143.8020 C   0  0  0  0  0  2  0  0  0  0  0  0
  159.9580  202.1270  145.1930 C   0  0  0  0  0  2  0  0  0  0  0  0
  160.8960  206.2470  151.5590 C   0  0  0  0  0  0  0  0  0  0  0  0
  162.9020  208.2660  151.4230 C   0  0  0  0  0  2  0  0  0  0  0  0
  160.7580  205.6570  147.9780 C   0  0  0  0  0  3  0  0  0  0  0  0
  160.9620  202.0960  146.3650 C   0  0  0  0  0  2  0  0  0  0  0  0
  160.8900  206.5510  150.2570 C   0  0  0  0  0  0  0  0  0  0  0  0
  160.9680  206.3250  153.9240 C   0  0  0  0  0  3  0  0  0  0  0  0
  160.8870  203.2560  147.3640 C   0  0  1  0  0  3  0  0  0  0  0  0
  160.4120  203.0400  144.0310 C   0  0  0  0  0  2  0  0  0  0  0  0
  162.0100  208.2520  152.6790 C   0  0  2  0  0  3  0  0  0  0  0  0
  161.0660  204.0410  149.7730 C   0  0  0  0  0  0  0  0  0  0  0  0
  160.2250  204.8910  145.6100 C   0  0  1  0  0  3  0  0  0  0  0  0
  160.9330  205.4350  149.2810 C   0  0  0  0  0  0  0  0  0  0  0  0
  161.4590  201.3280  150.6410 C   0  0  0  0  0  2  0  0  0  0  0  0
  162.1940  208.7150  150.1340 C   0  0  0  0  0  2  0  0  0  0  0  0
  160.8230  201.5950  149.2860 C   0  0  0  0  0  2  0  0  0  0  0  0
  160.8730  207.9910  149.8330 C   0  0  0  0  0  2  0  0  0  0  0  0
  160.8640  207.2210  152.6820 C   0  0  1  0  0  3  0  0  0  0  0  0
  161.0180  202.3880  151.6510 C   0  0  0  0  0  2  0  0  0  0  0  0
  160.9380  204.9090  152.0050 N   0  0  0  0  0  0  0  0  0  0  0  0
  161.4850  209.5800  152.9550 N   0  0  0  0  0  2  0  0  0  0  0  0
  160.5840  209.4590  154.0890 C   0  0  0  0  0  2  0  0  0  0  0  0
  161.1530  211.7290  156.3470 O   0  0  0  0  0  0  0  0  0  0  0  0
  160.4270  209.4940  156.5560 C   0  0  0  0  0  2  0  0  0  0  0  0
  161.3650  209.5740  155.3860 C   0  0  2  0  0  3  0  0  0  0  0  0
  160.6110  210.8170  157.2610 C   0  0  0  0  0  2  0  0  0  0  0  0
  161.9590  210.9610  155.4930 C   0  0  0  0  0  2  0  0  0  0  0  0
  1 26  1  6  0  0  0
  1 27  1  0  0  0  0
  2 14  2  0  0  0  0
  3  7  1  6  0  0  0
  3 19  1  0  0  0  0
  4 23  1  1  0  0  0
  4 18  1  0  0  0  0
  5 15  1  0  0  0  0
  5 11  2  0  0  0  0
  7  6  1  0  0  0  0
  8 12  1  0  0  0  0
  9 27  1  0  0  0  0
  9 25  1  0  0  0  0
 10 17  1  0  0  0  0
 11 20  1  0  0  0  0
 13  9  2  0  0  0  0
 15 12  1  6  0  0  0
 15  4  1  0  0  0  0
 16  3  1  0  0  0  0
 16  8  1  0  0  0  0
 17 25  1  0  0  0  0
 17 28  1  6  0  0  0
 18  1  1  0  0  0  0
 19  6  1  6  0  0  0
 19  5  1  0  0  0  0
 20 18  2  0  0  0  0
 20 13  1  0  0  0  0
 21 26  1  0  0  0  0
 22 10  1  0  0  0  0
 23 21  1  0  0  0  0
 24 22  1  0  0  0  0
 24 13  1  0  0  0  0
 25 14  1  1  0  0  0
 27  2  1  0  0  0  0
 28 29  1  0  0  0  0
 30 33  1  0  0  0  0
 31 33  1  0  0  0  0
 32 29  1  6  0  0  0
 32 34  1  0  0  0  0
 32 31  1  0  0  0  0
 34 30  1  0  0  0  0
M  END
>  <MODEL>
7

>  <REMARK>
 VINA RESULT:      -6.7      1.483      1.792
  Name = 
  3 active torsions:
  status: ('A' for Active; 'I' for Inactive)
    1  A    between atoms: C_17  and  N_28
    2  A    between atoms: N_28  and  C_29
    3  A    between atoms: C_29  and  C_32
                            x       y       z     vdW  Elec       q    Type
                         _______ _______ _______ _____ _____    ______ ____

>  <TORSDO>
F 3

$$$$
