=
 OpenBabel11122412443D

 30 35  0  0  1  0  0  0  0  0999 V2000
  160.0680  212.1930  151.7650 C   0  0  2  0  0  3  0  0  0  0  0  0
  160.6490  213.3100  149.4940 C   0  0  0  0  0  0  0  0  0  0  0  0
  161.6180  208.8260  150.6200 O   0  0  0  0  0  0  0  0  0  0  0  0
  160.0150  210.8010  152.4140 C   0  0  2  0  0  3  0  0  0  0  0  0
  158.7520  212.6570  151.5950 O   0  0  0  0  0  0  0  0  0  0  0  0
  157.2690  211.9010  154.6260 O   0  0  0  0  0  0  0  0  0  0  0  0
  160.6130  209.2430  155.1410 C   0  0  2  0  0  3  0  0  0  0  0  0
  158.1550  211.9240  153.7830 C   0  0  0  0  0  0  0  0  0  0  0  0
  160.4010  208.4020  153.9630 N   0  0  2  0  0  0  0  0  0  0  0  0
  161.3080  208.0100  151.6880 C   0  0  0  0  0  0  0  0  0  0  0  0
  158.3190  213.1030  152.8550 C   0  0  2  0  0  3  0  0  0  0  0  0
  159.1490  210.7920  153.7100 C   0  0  2  0  0  3  0  0  0  0  0  0
  161.4590  213.3710  148.3190 N   0  0  0  0  0  0  0  0  0  0  0  0
  160.6180  207.0490  154.4640 C   0  0  0  0  0  2  0  0  0  0  0  0
  160.1260  208.4700  156.3430 C   0  0  0  0  0  2  0  0  0  0  0  0
  159.8540  214.2550  149.7380 O   0  0  0  0  0  0  0  0  0  0  0  0
  162.0270  210.0950  151.1000 C   0  0  2  0  0  3  0  0  0  0  0  0
  162.2680  212.4120  147.9910 C   0  0  0  0  0  3  0  0  0  0  0  0
  160.7910  212.1710  150.4330 C   0  0  0  0  0  0  0  0  0  0  0  0
  161.4370  210.2010  152.5190 C   0  0  2  0  0  3  0  0  0  0  0  0
  161.0000  206.7970  151.5550 O   0  0  0  0  0  0  0  0  0  0  0  0
  161.4510  208.7240  152.9890 C   0  0  1  0  0  3  0  0  0  0  0  0
  160.2050  207.0230  155.9210 C   0  0  0  0  0  2  0  0  0  0  0  0
  160.8730  211.7290  155.3230 C   0  0  0  0  0  1  0  0  0  0  0  0
  162.3710  211.1450  148.7920 C   0  0  0  0  0  2  0  0  0  0  0  0
  161.6880  211.2050  150.1370 C   0  0  0  0  0  0  0  0  0  0  0  0
  159.9000  210.5950  155.0380 C   0  0  2  0  0  3  0  0  0  0  0  0
  157.0200  213.8830  152.6980 C   0  0  0  0  0  2  0  0  0  0  0  0
  155.2500  214.4380  151.0620 C   0  0  0  0  0  1  0  0  0  0  0  0
  156.7170  214.1010  151.2290 C   0  0  0  0  0  2  0  0  0  0  0  0
  1 19  1  6  0  0  0
  1  4  1  0  0  0  0
  2 16  2  0  0  0  0
  2 19  1  0  0  0  0
  3 17  1  0  0  0  0
  3 10  1  0  0  0  0
  4 20  1  0  0  0  0
  4 12  1  0  0  0  0
  5  1  1  0  0  0  0
  5 11  1  0  0  0  0
  7 15  1  0  0  0  0
  8  6  2  0  0  0  0
  9 14  1  0  0  0  0
  9  7  1  0  0  0  0
 10 22  1  0  0  0  0
 11  8  1  0  0  0  0
 12  8  1  0  0  0  0
 12 27  1  0  0  0  0
 13  2  1  0  0  0  0
 14 23  1  0  0  0  0
 17 20  1  0  0  0  0
 18 13  2  0  0  0  0
 18 25  1  0  0  0  0
 20 22  1  0  0  0  0
 21 10  2  0  0  0  0
 22  9  1  0  0  0  0
 23 15  1  0  0  0  0
 25 26  1  0  0  0  0
 26 19  2  0  0  0  0
 26 17  1  0  0  0  0
 27  7  1  0  0  0  0
 27 24  1  0  0  0  0
 28 11  1  0  0  0  0
 29 30  1  0  0  0  0
 30 28  1  0  0  0  0
M  END
>  <MODEL>
1

>  <REMARK>
 VINA RESULT:      -6.5      0.000      0.000
  Name = 
  2 active torsions:
  status: ('A' for Active; 'I' for Inactive)
    1  A    between atoms: C_11  and  C_28
    2  A    between atoms: C_28  and  C_30
                            x       y       z     vdW  Elec       q    Type
                         _______ _______ _______ _____ _____    ______ ____

>  <TORSDO>
F 2

$$$$
=
 OpenBabel11122412443D

 30 35  0  0  1  0  0  0  0  0999 V2000
  160.5900  211.8920  151.4060 C   0  0  2  0  0  3  0  0  0  0  0  0
  160.8410  213.6290  149.4930 C   0  0  0  0  0  0  0  0  0  0  0  0
  161.8040  209.0220  149.0960 O   0  0  0  0  0  0  0  0  0  0  0  0
  160.5880  210.3700  151.6230 C   0  0  2  0  0  3  0  0  0  0  0  0
  159.2820  212.3720  151.5970 O   0  0  0  0  0  0  0  0  0  0  0  0
  158.2780  210.7490  154.4800 O   0  0  0  0  0  0  0  0  0  0  0  0
  161.5540  208.0900  153.6440 C   0  0  2  0  0  3  0  0  0  0  0  0
  159.0170  211.0260  153.5470 C   0  0  0  0  0  0  0  0  0  0  0  0
  161.1230  207.6270  152.3250 N   0  0  2  0  0  0  0  0  0  0  0  0
  161.6380  207.9270  149.9170 C   0  0  0  0  0  0  0  0  0  0  0  0
  159.0760  212.4260  152.9860 C   0  0  2  0  0  3  0  0  0  0  0  0
  159.9410  209.9740  152.9860 C   0  0  2  0  0  3  0  0  0  0  0  0
  161.4540  214.0390  148.2690 N   0  0  0  0  0  0  0  0  0  0  0  0
  161.3660  206.1890  152.3690 C   0  0  0  0  0  2  0  0  0  0  0  0
  161.2380  206.9940  154.6340 C   0  0  0  0  0  2  0  0  0  0  0  0
  160.1330  214.4530  150.1280 O   0  0  0  0  0  0  0  0  0  0  0  0
  162.3330  210.0990  149.8480 C   0  0  2  0  0  3  0  0  0  0  0  0
  162.1620  213.2250  147.5490 C   0  0  0  0  0  3  0  0  0  0  0  0
  161.0880  212.2670  150.0250 C   0  0  0  0  0  0  0  0  0  0  0  0
  161.9840  209.7810  151.3140 C   0  0  2  0  0  3  0  0  0  0  0  0
  161.2660  206.8020  149.4910 O   0  0  0  0  0  0  0  0  0  0  0  0
  162.0160  208.2300  151.3270 C   0  0  1  0  0  3  0  0  0  0  0  0
  161.1910  205.7350  153.8040 C   0  0  0  0  0  2  0  0  0  0  0  0
  161.9370  210.4160  154.4930 C   0  0  0  0  0  1  0  0  0  0  0  0
  162.3430  211.7810  147.9200 C   0  0  0  0  0  2  0  0  0  0  0  0
  161.8880  211.4380  149.3170 C   0  0  0  0  0  0  0  0  0  0  0  0
  160.8880  209.4060  154.0570 C   0  0  2  0  0  3  0  0  0  0  0  0
  157.7990  213.2050  153.2770 C   0  0  0  0  0  2  0  0  0  0  0  0
  158.0790  214.1300  155.5540 C   0  0  0  0  0  1  0  0  0  0  0  0
  158.1190  214.4530  154.0760 C   0  0  0  0  0  2  0  0  0  0  0  0
  1 19  1  6  0  0  0
  1  5  1  0  0  0  0
  1  4  1  0  0  0  0
  2 19  1  0  0  0  0
  2 16  2  0  0  0  0
  3 17  1  0  0  0  0
  3 10  1  0  0  0  0
  4 12  1  0  0  0  0
  5 11  1  0  0  0  0
  7 27  1  0  0  0  0
  7 15  1  0  0  0  0
  8  6  2  0  0  0  0
  9 14  1  0  0  0  0
  9  7  1  0  0  0  0
 10 22  1  0  0  0  0
 11 28  1  0  0  0  0
 11  8  1  0  0  0  0
 12  8  1  0  0  0  0
 12 27  1  0  0  0  0
 13  2  1  0  0  0  0
 14 23  1  0  0  0  0
 17 20  1  0  0  0  0
 18 25  1  0  0  0  0
 18 13  2  0  0  0  0
 20 22  1  0  0  0  0
 20  4  1  0  0  0  0
 21 10  2  0  0  0  0
 22  9  1  0  0  0  0
 23 15  1  0  0  0  0
 25 26  1  0  0  0  0
 26 17  1  0  0  0  0
 26 19  2  0  0  0  0
 27 24  1  0  0  0  0
 28 30  1  0  0  0  0
 30 29  1  0  0  0  0
M  END
>  <MODEL>
2

>  <REMARK>
 VINA RESULT:      -6.1      1.426      1.860
  Name = 
  2 active torsions:
  status: ('A' for Active; 'I' for Inactive)
    1  A    between atoms: C_11  and  C_28
    2  A    between atoms: C_28  and  C_30
                            x       y       z     vdW  Elec       q    Type
                         _______ _______ _______ _____ _____    ______ ____

>  <TORSDO>
F 2

$$$$
=
 OpenBabel11122412443D

 30 35  0  0  1  0  0  0  0  0999 V2000
  161.3550  204.7420  148.7390 C   0  0  2  0  0  3  0  0  0  0  0  0
  161.0170  202.1890  148.4070 C   0  0  0  0  0  0  0  0  0  0  0  0
  160.7500  204.4260  152.5580 O   0  0  0  0  0  0  0  0  0  0  0  0
  161.1550  205.8270  149.8090 C   0  0  2  0  0  3  0  0  0  0  0  0
  160.4140  204.9460  147.7150 O   0  0  0  0  0  0  0  0  0  0  0  0
  160.5800  208.3570  147.1800 O   0  0  0  0  0  0  0  0  0  0  0  0
  162.4850  208.4630  151.0360 C   0  0  2  0  0  3  0  0  0  0  0  0
  160.8340  207.2920  147.7240 C   0  0  0  0  0  0  0  0  0  0  0  0
  161.4040  207.8720  151.8250 N   0  0  2  0  0  0  0  0  0  0  0  0
  160.7760  205.7500  152.9450 C   0  0  0  0  0  0  0  0  0  0  0  0
  160.8980  206.0080  146.9330 C   0  0  2  0  0  3  0  0  0  0  0  0
  161.1590  207.2610  149.1960 C   0  0  2  0  0  3  0  0  0  0  0  0
  161.0510  200.8600  148.9300 N   0  0  0  0  0  0  0  0  0  0  0  0
  161.3500  208.7110  153.0160 C   0  0  0  0  0  2  0  0  0  0  0  0
  162.4600  209.9530  151.2790 C   0  0  0  0  0  2  0  0  0  0  0  0
  160.8670  202.3550  147.1680 O   0  0  0  0  0  0  0  0  0  0  0  0
  161.7710  204.1940  151.6040 C   0  0  2  0  0  3  0  0  0  0  0  0
  161.1620  200.6240  150.2000 C   0  0  0  0  0  3  0  0  0  0  0  0
  161.2100  203.3470  149.3140 C   0  0  0  0  0  0  0  0  0  0  0  0
  162.0950  205.5780  151.0120 C   0  0  2  0  0  3  0  0  0  0  0  0
  160.0340  206.2130  153.8510 O   0  0  0  0  0  0  0  0  0  0  0  0
  161.8230  206.5190  152.2140 C   0  0  1  0  0  3  0  0  0  0  0  0
  161.7830  210.1080  152.6180 C   0  0  0  0  0  2  0  0  0  0  0  0
  163.6710  207.5850  149.0110 C   0  0  0  0  0  1  0  0  0  0  0  0
  161.2070  201.7290  151.2170 C   0  0  0  0  0  2  0  0  0  0  0  0
  161.4030  203.1040  150.6290 C   0  0  0  0  0  0  0  0  0  0  0  0
  162.3640  208.1530  149.5410 C   0  0  2  0  0  3  0  0  0  0  0  0
  160.0890  206.0970  145.6450 C   0  0  0  0  0  2  0  0  0  0  0  0
  162.2550  205.1270  144.9480 C   0  0  0  0  0  1  0  0  0  0  0  0
  160.8360  205.4230  144.5110 C   0  0  0  0  0  2  0  0  0  0  0  0
  1  5  1  6  0  0  0
  1 19  1  0  0  0  0
  1  4  1  0  0  0  0
  2 13  1  0  0  0  0
  2 19  1  0  0  0  0
  3 10  1  0  0  0  0
  4 20  1  0  0  0  0
  6  8  2  0  0  0  0
  7 15  1  0  0  0  0
  7  9  1  0  0  0  0
  8 12  1  0  0  0  0
  9 22  1  0  0  0  0
  9 14  1  0  0  0  0
 10 21  2  0  0  0  0
 11  5  1  0  0  0  0
 11  8  1  0  0  0  0
 12 27  1  0  0  0  0
 12  4  1  0  0  0  0
 13 18  2  0  0  0  0
 15 23  1  0  0  0  0
 16  2  2  0  0  0  0
 17  3  1  0  0  0  0
 18 25  1  0  0  0  0
 19 26  2  0  0  0  0
 20 17  1  0  0  0  0
 20 22  1  0  0  0  0
 22 10  1  0  0  0  0
 23 14  1  0  0  0  0
 24 27  1  0  0  0  0
 26 25  1  0  0  0  0
 26 17  1  0  0  0  0
 27  7  1  0  0  0  0
 28 11  1  0  0  0  0
 30 29  1  0  0  0  0
 30 28  1  0  0  0  0
M  END
>  <MODEL>
3

>  <REMARK>
 VINA RESULT:      -5.0      4.612      8.155
  Name = 
  2 active torsions:
  status: ('A' for Active; 'I' for Inactive)
    1  A    between atoms: C_11  and  C_28
    2  A    between atoms: C_28  and  C_30
                            x       y       z     vdW  Elec       q    Type
                         _______ _______ _______ _____ _____    ______ ____

>  <TORSDO>
F 2

$$$$
=
 OpenBabel11122412443D

 30 35  0  0  1  0  0  0  0  0999 V2000
  161.2020  211.3340  151.3270 C   0  0  2  0  0  3  0  0  0  0  0  0
  160.6260  211.3520  153.8590 C   0  0  0  0  0  0  0  0  0  0  0  0
  158.2580  213.7350  150.5380 O   0  0  0  0  0  0  0  0  0  0  0  0
  160.6010  211.7640  149.9790 C   0  0  2  0  0  3  0  0  0  0  0  0
  161.1970  209.9300  151.3910 O   0  0  0  0  0  0  0  0  0  0  0  0
  162.3780  209.0110  148.2740 O   0  0  0  0  0  0  0  0  0  0  0  0
  161.3630  213.0370  147.1480 C   0  0  2  0  0  3  0  0  0  0  0  0
  161.9960  209.7730  149.1510 C   0  0  0  0  0  0  0  0  0  0  0  0
  159.9340  212.9930  147.4600 N   0  0  2  0  0  0  0  0  0  0  0  0
  158.3100  213.7800  149.1610 C   0  0  0  0  0  0  0  0  0  0  0  0
  162.2770  209.4900  150.6070 C   0  0  2  0  0  3  0  0  0  0  0  0
  161.2960  211.0550  148.7770 C   0  0  2  0  0  3  0  0  0  0  0  0
  160.0390  212.0020  154.9880 N   0  0  0  0  0  0  0  0  0  0  0  0
  159.3130  213.6550  146.3180 C   0  0  0  0  0  2  0  0  0  0  0  0
  161.5030  212.9140  145.6490 C   0  0  0  0  0  2  0  0  0  0  0  0
  161.3370  210.3300  154.0430 O   0  0  0  0  0  0  0  0  0  0  0  0
  159.5740  213.7760  151.0610 C   0  0  2  0  0  3  0  0  0  0  0  0
  159.2650  213.0340  154.8610 C   0  0  0  0  0  3  0  0  0  0  0  0
  160.4360  211.9140  152.5000 C   0  0  0  0  0  0  0  0  0  0  0  0
  160.4830  213.3050  149.9100 C   0  0  2  0  0  3  0  0  0  0  0  0
  157.2810  213.8470  148.4390 O   0  0  0  0  0  0  0  0  0  0  0  0
  159.7140  213.8090  148.6610 C   0  0  1  0  0  3  0  0  0  0  0  0
  160.1810  213.3940  145.1040 C   0  0  0  0  0  2  0  0  0  0  0  0
  163.3470  212.5410  148.5960 C   0  0  0  0  0  1  0  0  0  0  0  0
  158.8840  213.5860  153.5170 C   0  0  0  0  0  2  0  0  0  0  0  0
  159.6920  213.0350  152.3680 C   0  0  0  0  0  0  0  0  0  0  0  0
  162.1590  211.9400  147.8620 C   0  0  2  0  0  3  0  0  0  0  0  0
  162.5140  208.0070  150.8580 C   0  0  0  0  0  2  0  0  0  0  0  0
  160.9170  206.2710  150.1140 C   0  0  0  0  0  1  0  0  0  0  0  0
  161.2030  207.3140  151.1740 C   0  0  0  0  0  2  0  0  0  0  0  0
  1  5  1  1  0  0  0
  1 19  1  0  0  0  0
  2 16  2  0  0  0  0
  2 13  1  0  0  0  0
  3 17  1  0  0  0  0
  4  1  1  0  0  0  0
  6  8  2  0  0  0  0
  7  9  1  0  0  0  0
  7 27  1  0  0  0  0
  8 11  1  0  0  0  0
  9 22  1  0  0  0  0
 10  3  1  0  0  0  0
 11 28  1  0  0  0  0
 11  5  1  0  0  0  0
 12  8  1  0  0  0  0
 12  4  1  0  0  0  0
 14  9  1  0  0  0  0
 15  7  1  0  0  0  0
 17 26  1  0  0  0  0
 18 13  2  0  0  0  0
 19  2  1  0  0  0  0
 20  4  1  0  0  0  0
 20 17  1  0  0  0  0
 21 10  2  0  0  0  0
 22 10  1  0  0  0  0
 22 20  1  0  0  0  0
 23 15  1  0  0  0  0
 23 14  1  0  0  0  0
 25 18  1  0  0  0  0
 26 19  2  0  0  0  0
 26 25  1  0  0  0  0
 27 24  1  0  0  0  0
 27 12  1  0  0  0  0
 28 30  1  0  0  0  0
 29 30  1  0  0  0  0
M  END
>  <MODEL>
4

>  <REMARK>
 VINA RESULT:      -4.5      2.319      7.203
  Name = 
  2 active torsions:
  status: ('A' for Active; 'I' for Inactive)
    1  A    between atoms: C_11  and  C_28
    2  A    between atoms: C_28  and  C_30
                            x       y       z     vdW  Elec       q    Type
                         _______ _______ _______ _____ _____    ______ ____

>  <TORSDO>
F 2

$$$$
=
 OpenBabel11122412443D

 30 35  0  0  1  0  0  0  0  0999 V2000
  161.2080  207.7210  150.9120 C   0  0  2  0  0  3  0  0  0  0  0  0
  161.0830  209.0780  153.1210 C   0  0  0  0  0  0  0  0  0  0  0  0
  161.4560  204.3760  152.8630 O   0  0  0  0  0  0  0  0  0  0  0  0
  161.5290  206.3010  150.4180 C   0  0  2  0  0  3  0  0  0  0  0  0
  162.2450  208.5790  150.5060 O   0  0  0  0  0  0  0  0  0  0  0  0
  162.7640  207.6600  147.2140 O   0  0  0  0  0  0  0  0  0  0  0  0
  160.6310  204.0840  148.2970 C   0  0  2  0  0  3  0  0  0  0  0  0
  162.2750  207.6010  148.3320 C   0  0  0  0  0  0  0  0  0  0  0  0
  161.5200  203.6190  149.3620 N   0  0  2  0  0  0  0  0  0  0  0  0
  161.6510  203.4790  151.8340 C   0  0  0  0  0  0  0  0  0  0  0  0
  162.0290  208.8500  149.1440 C   0  0  2  0  0  3  0  0  0  0  0  0
  161.8400  206.2690  148.8900 C   0  0  2  0  0  3  0  0  0  0  0  0
  160.7600  209.1490  154.5110 N   0  0  0  0  0  0  0  0  0  0  0  0
  161.6420  202.1880  149.1070 C   0  0  0  0  0  2  0  0  0  0  0  0
  160.9180  203.2490  147.0710 C   0  0  0  0  0  2  0  0  0  0  0  0
  161.3530  210.1400  152.5020 O   0  0  0  0  0  0  0  0  0  0  0  0
  160.4840  205.3320  152.4770 C   0  0  2  0  0  3  0  0  0  0  0  0
  160.5120  208.0880  155.2140 C   0  0  0  0  0  3  0  0  0  0  0  0
  161.0450  207.7730  152.4180 C   0  0  0  0  0  0  0  0  0  0  0  0
  160.4710  205.2980  150.9370 C   0  0  2  0  0  3  0  0  0  0  0  0
  162.3970  202.4700  151.9390 O   0  0  0  0  0  0  0  0  0  0  0  0
  160.8260  203.8180  150.6400 C   0  0  1  0  0  3  0  0  0  0  0  0
  161.5100  201.9720  147.6130 C   0  0  0  0  0  2  0  0  0  0  0  0
  159.4550  206.2800  148.0180 C   0  0  0  0  0  1  0  0  0  0  0  0
  160.6010  206.7060  154.6320 C   0  0  0  0  0  2  0  0  0  0  0  0
  160.7110  206.6720  153.1280 C   0  0  0  0  0  0  0  0  0  0  0  0
  160.8030  205.5760  147.9910 C   0  0  2  0  0  3  0  0  0  0  0  0
  162.9340  209.9940  148.7060 C   0  0  0  0  0  2  0  0  0  0  0  0
  162.9750  212.3640  147.9970 C   0  0  0  0  0  1  0  0  0  0  0  0
  162.1620  211.2990  148.7030 C   0  0  0  0  0  2  0  0  0  0  0  0
  1  5  1  1  0  0  0
  1 19  1  0  0  0  0
  2 13  1  0  0  0  0
  4  1  1  0  0  0  0
  4 20  1  0  0  0  0
  6  8  2  0  0  0  0
  7  9  1  0  0  0  0
  8 12  1  0  0  0  0
  8 11  1  0  0  0  0
  9 22  1  0  0  0  0
 10 21  2  0  0  0  0
 10  3  1  0  0  0  0
 11  5  1  0  0  0  0
 12  4  1  0  0  0  0
 13 18  2  0  0  0  0
 14  9  1  0  0  0  0
 15 23  1  0  0  0  0
 15  7  1  0  0  0  0
 16  2  2  0  0  0  0
 17  3  1  0  0  0  0
 17 26  1  0  0  0  0
 19  2  1  0  0  0  0
 19 26  2  0  0  0  0
 20 17  1  0  0  0  0
 22 20  1  0  0  0  0
 22 10  1  0  0  0  0
 23 14  1  0  0  0  0
 25 18  1  0  0  0  0
 26 25  1  0  0  0  0
 27 24  1  0  0  0  0
 27  7  1  0  0  0  0
 27 12  1  0  0  0  0
 28 11  1  0  0  0  0
 29 30  1  0  0  0  0
 30 28  1  0  0  0  0
M  END
>  <MODEL>
5

>  <REMARK>
 VINA RESULT:      -4.4      3.633      7.118
  Name = 
  2 active torsions:
  status: ('A' for Active; 'I' for Inactive)
    1  A    between atoms: C_11  and  C_28
    2  A    between atoms: C_28  and  C_30
                            x       y       z     vdW  Elec       q    Type
                         _______ _______ _______ _____ _____    ______ ____

>  <TORSDO>
F 2

$$$$
=
 OpenBabel11122412443D

 30 35  0  0  1  0  0  0  0  0999 V2000
  161.5570  208.8280  151.4520 C   0  0  2  0  0  3  0  0  0  0  0  0
  161.7280  211.2650  150.5720 C   0  0  0  0  0  0  0  0  0  0  0  0
  161.0790  207.4560  147.8540 O   0  0  0  0  0  0  0  0  0  0  0  0
  161.1600  207.4250  150.9650 C   0  0  2  0  0  3  0  0  0  0  0  0
  160.5800  209.2800  152.3560 O   0  0  0  0  0  0  0  0  0  0  0  0
  160.0590  206.5210  154.3730 O   0  0  0  0  0  0  0  0  0  0  0  0
  161.9560  204.3370  151.1880 C   0  0  2  0  0  3  0  0  0  0  0  0
  160.5260  207.1580  153.4390 C   0  0  0  0  0  0  0  0  0  0  0  0
  161.0250  204.6750  150.1120 N   0  0  2  0  0  0  0  0  0  0  0  0
  160.8470  206.1200  148.1040 C   0  0  0  0  0  0  0  0  0  0  0  0
  160.8330  208.6290  153.5750 C   0  0  2  0  0  3  0  0  0  0  0  0
  160.8710  206.4540  152.1510 C   0  0  2  0  0  3  0  0  0  0  0  0
  162.0330  212.1780  149.5170 N   0  0  0  0  0  0  0  0  0  0  0  0
  160.8210  203.4060  149.4230 C   0  0  0  0  0  2  0  0  0  0  0  0
  161.6400  202.9300  151.6360 C   0  0  0  0  0  2  0  0  0  0  0  0
  161.5320  211.7130  151.7310 O   0  0  0  0  0  0  0  0  0  0  0  0
  162.1120  207.9220  148.7030 C   0  0  2  0  0  3  0  0  0  0  0  0
  162.2060  211.7840  148.2940 C   0  0  0  0  0  3  0  0  0  0  0  0
  161.7000  209.8060  150.3030 C   0  0  0  0  0  0  0  0  0  0  0  0
  162.1470  206.9310  149.8820 C   0  0  2  0  0  3  0  0  0  0  0  0
  160.0400  205.4280  147.4300 O   0  0  0  0  0  0  0  0  0  0  0  0
  161.7090  205.6050  149.2050 C   0  0  1  0  0  3  0  0  0  0  0  0
  160.9630  202.2970  150.4450 C   0  0  0  0  0  2  0  0  0  0  0  0
  163.2660  205.8280  152.7190 C   0  0  0  0  0  1  0  0  0  0  0  0
  162.0440  210.3460  147.8880 C   0  0  0  0  0  2  0  0  0  0  0  0
  161.9550  209.3820  149.0450 C   0  0  0  0  0  0  0  0  0  0  0  0
  161.8790  205.3130  152.3670 C   0  0  2  0  0  3  0  0  0  0  0  0
  160.0050  209.2790  154.6760 C   0  0  0  0  0  2  0  0  0  0  0  0
  161.9680  210.6620  155.2740 C   0  0  0  0  0  1  0  0  0  0  0  0
  160.4930  210.6920  154.9320 C   0  0  0  0  0  2  0  0  0  0  0  0
  1 19  1  6  0  0  0
  1  5  1  0  0  0  0
  2 16  2  0  0  0  0
  3 10  1  0  0  0  0
  3 17  1  0  0  0  0
  4  1  1  0  0  0  0
  4 12  1  0  0  0  0
  5 11  1  0  0  0  0
  7 15  1  0  0  0  0
  7 27  1  0  0  0  0
  8 11  1  0  0  0  0
  8  6  2  0  0  0  0
  9  7  1  0  0  0  0
 10 22  1  0  0  0  0
 11 28  1  0  0  0  0
 12 27  1  0  0  0  0
 12  8  1  0  0  0  0
 13  2  1  0  0  0  0
 14  9  1  0  0  0  0
 14 23  1  0  0  0  0
 17 26  1  0  0  0  0
 17 20  1  0  0  0  0
 18 13  2  0  0  0  0
 19  2  1  0  0  0  0
 20  4  1  0  0  0  0
 21 10  2  0  0  0  0
 22 20  1  0  0  0  0
 22  9  1  0  0  0  0
 23 15  1  0  0  0  0
 25 18  1  0  0  0  0
 25 26  1  0  0  0  0
 26 19  2  0  0  0  0
 27 24  1  0  0  0  0
 28 30  1  0  0  0  0
 30 29  1  0  0  0  0
M  END
>  <MODEL>
6

>  <REMARK>
 VINA RESULT:      -4.3      2.985      4.998
  Name = 
  2 active torsions:
  status: ('A' for Active; 'I' for Inactive)
    1  A    between atoms: C_11  and  C_28
    2  A    between atoms: C_28  and  C_30
                            x       y       z     vdW  Elec       q    Type
                         _______ _______ _______ _____ _____    ______ ____

>  <TORSDO>
F 2

$$$$
=
 OpenBabel11122412443D

 30 35  0  0  1  0  0  0  0  0999 V2000
  161.1740  208.5330  153.0260 C   0  0  2  0  0  3  0  0  0  0  0  0
  160.8750  207.2910  155.2860 C   0  0  0  0  0  0  0  0  0  0  0  0
  158.8740  211.4300  154.1970 O   0  0  0  0  0  0  0  0  0  0  0  0
  160.5730  209.7090  152.2380 C   0  0  2  0  0  3  0  0  0  0  0  0
  160.8190  207.3350  152.3820 O   0  0  0  0  0  0  0  0  0  0  0  0
  161.4140  208.0430  149.0500 O   0  0  0  0  0  0  0  0  0  0  0  0
  161.3490  212.1510  150.3280 C   0  0  2  0  0  3  0  0  0  0  0  0
  161.3270  208.2700  150.2490 C   0  0  0  0  0  0  0  0  0  0  0  0
  159.9950  212.1830  150.8780 N   0  0  2  0  0  0  0  0  0  0  0  0
  158.8000  212.1940  153.0520 C   0  0  0  0  0  0  0  0  0  0  0  0
  161.6690  207.2120  151.2700 C   0  0  2  0  0  3  0  0  0  0  0  0
  160.9420  209.6480  150.7240 C   0  0  2  0  0  3  0  0  0  0  0  0
  160.5870  207.3250  156.6850 N   0  0  0  0  0  0  0  0  0  0  0  0
  159.4520  213.4430  150.3840 C   0  0  0  0  0  2  0  0  0  0  0  0
  161.3060  212.8260  148.9770 C   0  0  0  0  0  2  0  0  0  0  0  0
  161.3180  206.2290  154.7780 O   0  0  0  0  0  0  0  0  0  0  0  0
  160.2030  210.9690  154.3700 C   0  0  2  0  0  3  0  0  0  0  0  0
  160.0920  208.3760  157.2610 C   0  0  0  0  0  3  0  0  0  0  0  0
  160.7000  208.5150  154.4650 C   0  0  0  0  0  0  0  0  0  0  0  0
  160.8430  211.0430  152.9710 C   0  0  2  0  0  3  0  0  0  0  0  0
  157.7550  212.8040  152.7030 O   0  0  0  0  0  0  0  0  0  0  0  0
  160.1080  212.2540  152.3410 C   0  0  1  0  0  3  0  0  0  0  0  0
  160.1020  213.7320  149.0450 C   0  0  0  0  0  2  0  0  0  0  0  0
  163.2760  210.6400  150.8650 C   0  0  0  0  0  1  0  0  0  0  0  0
  159.7320  209.6140  156.4890 C   0  0  0  0  0  2  0  0  0  0  0  0
  160.2570  209.6370  155.0740 C   0  0  0  0  0  0  0  0  0  0  0  0
  161.9070  210.7290  150.2080 C   0  0  2  0  0  3  0  0  0  0  0  0
  161.5450  205.8090  150.6920 C   0  0  0  0  0  2  0  0  0  0  0  0
  160.7830  203.4990  151.1440 C   0  0  0  0  0  1  0  0  0  0  0  0
  161.1280  204.8320  151.7740 C   0  0  0  0  0  2  0  0  0  0  0  0
  1  5  1  6  0  0  0
  1 19  1  0  0  0  0
  2 13  1  0  0  0  0
  3 17  1  0  0  0  0
  4 20  1  0  0  0  0
  4  1  1  0  0  0  0
  6  8  2  0  0  0  0
  7  9  1  0  0  0  0
  8 12  1  0  0  0  0
  8 11  1  0  0  0  0
  9 22  1  0  0  0  0
 10  3  1  0  0  0  0
 11  5  1  0  0  0  0
 12  4  1  0  0  0  0
 13 18  2  0  0  0  0
 14  9  1  0  0  0  0
 15 23  1  0  0  0  0
 15  7  1  0  0  0  0
 16  2  2  0  0  0  0
 17 26  1  0  0  0  0
 19 26  2  0  0  0  0
 19  2  1  0  0  0  0
 20 17  1  0  0  0  0
 21 10  2  0  0  0  0
 22 20  1  0  0  0  0
 22 10  1  0  0  0  0
 23 14  1  0  0  0  0
 25 18  1  0  0  0  0
 26 25  1  0  0  0  0
 27  7  1  0  0  0  0
 27 12  1  0  0  0  0
 27 24  1  0  0  0  0
 28 11  1  0  0  0  0
 28 30  1  0  0  0  0
 29 30  1  0  0  0  0
M  END
>  <MODEL>
7

>  <REMARK>
 VINA RESULT:      -4.1      1.797      7.137
  Name = 
  2 active torsions:
  status: ('A' for Active; 'I' for Inactive)
    1  A    between atoms: C_11  and  C_28
    2  A    between atoms: C_28  and  C_30
                            x       y       z     vdW  Elec       q    Type
                         _______ _______ _______ _____ _____    ______ ____

>  <TORSDO>
F 2

$$$$
=
 OpenBabel11122412443D

 30 35  0  0  1  0  0  0  0  0999 V2000
  159.4280  211.7290  151.7960 C   0  0  2  0  0  3  0  0  0  0  0  0
  157.7890  213.3640  150.6220 C   0  0  0  0  0  0  0  0  0  0  0  0
  158.4560  213.1060  155.2910 O   0  0  0  0  0  0  0  0  0  0  0  0
  160.0630  211.4850  153.1750 C   0  0  2  0  0  3  0  0  0  0  0  0
  160.4280  212.1860  150.9190 O   0  0  0  0  0  0  0  0  0  0  0  0
  163.0660  210.0500  151.5730 O   0  0  0  0  0  0  0  0  0  0  0  0
  160.9280  209.1690  155.2010 C   0  0  2  0  0  3  0  0  0  0  0  0
  161.9550  210.5400  151.7180 C   0  0  0  0  0  0  0  0  0  0  0  0
  160.8910  210.5200  155.7610 N   0  0  2  0  0  0  0  0  0  0  0  0
  159.3330  212.4190  156.1040 C   0  0  0  0  0  0  0  0  0  0  0  0
  161.1700  211.0570  150.5360 C   0  0  2  0  0  3  0  0  0  0  0  0
  161.3210  210.5680  153.0860 C   0  0  2  0  0  3  0  0  0  0  0  0
  156.6130  214.1750  150.6610 N   0  0  0  0  0  0  0  0  0  0  0  0
  161.2190  210.3170  157.1680 C   0  0  0  0  0  2  0  0  0  0  0  0
  162.0010  208.4030  155.9370 C   0  0  0  0  0  2  0  0  0  0  0  0
  158.3550  213.1620  149.5160 O   0  0  0  0  0  0  0  0  0  0  0  0
  157.9520  212.2320  154.2970 C   0  0  2  0  0  3  0  0  0  0  0  0
  156.0060  214.4530  151.7730 C   0  0  0  0  0  3  0  0  0  0  0  0
  158.2930  212.7320  151.8650 C   0  0  0  0  0  0  0  0  0  0  0  0
  158.9790  211.0880  154.2040 C   0  0  2  0  0  3  0  0  0  0  0  0
  159.8610  212.9300  157.1260 O   0  0  0  0  0  0  0  0  0  0  0  0
  159.5090  211.0070  155.6600 C   0  0  1  0  0  3  0  0  0  0  0  0
  162.1350  209.1140  157.2610 C   0  0  0  0  0  2  0  0  0  0  0  0
  160.1430  208.3210  152.9770 C   0  0  0  0  0  1  0  0  0  0  0  0
  156.5270  213.9900  153.1040 C   0  0  0  0  0  2  0  0  0  0  0  0
  157.6210  212.9550  153.0160 C   0  0  0  0  0  0  0  0  0  0  0  0
  161.1900  209.1610  153.6920 C   0  0  2  0  0  3  0  0  0  0  0  0
  162.0800  211.4210  149.3710 C   0  0  0  0  0  2  0  0  0  0  0  0
  161.2730  212.4120  147.2530 C   0  0  0  0  0  1  0  0  0  0  0  0
  161.5930  212.6940  148.7060 C   0  0  0  0  0  2  0  0  0  0  0  0
  1  5  1  6  0  0  0
  1 19  1  0  0  0  0
  1  4  1  0  0  0  0
  2 13  1  0  0  0  0
  2 19  1  0  0  0  0
  3 10  1  0  0  0  0
  4 20  1  0  0  0  0
  6  8  2  0  0  0  0
  7  9  1  0  0  0  0
  7 15  1  0  0  0  0
  8 12  1  0  0  0  0
  9 14  1  0  0  0  0
 10 21  2  0  0  0  0
 11  5  1  0  0  0  0
 11  8  1  0  0  0  0
 12  4  1  0  0  0  0
 12 27  1  0  0  0  0
 13 18  2  0  0  0  0
 14 23  1  0  0  0  0
 15 23  1  0  0  0  0
 16  2  2  0  0  0  0
 17  3  1  0  0  0  0
 18 25  1  0  0  0  0
 19 26  2  0  0  0  0
 20 17  1  0  0  0  0
 20 22  1  0  0  0  0
 22  9  1  0  0  0  0
 22 10  1  0  0  0  0
 24 27  1  0  0  0  0
 26 25  1  0  0  0  0
 26 17  1  0  0  0  0
 27  7  1  0  0  0  0
 28 11  1  0  0  0  0
 29 30  1  0  0  0  0
 30 28  1  0  0  0  0
M  END
>  <MODEL>
8

>  <REMARK>
 VINA RESULT:      -3.7      1.819      4.850
  Name = 
  2 active torsions:
  status: ('A' for Active; 'I' for Inactive)
    1  A    between atoms: C_11  and  C_28
    2  A    between atoms: C_28  and  C_30
                            x       y       z     vdW  Elec       q    Type
                         _______ _______ _______ _____ _____    ______ ____

>  <TORSDO>
F 2

$$$$
