=
 OpenBabel11122414113D

 28 32  0  0  1  0  0  0  0  0999 V2000
  158.1740  213.9810  141.5050 C   0  0  0  0  0  0  0  0  0  0  0  0
  162.0420  214.4530  142.3000 O   0  0  0  0  0  0  0  0  0  0  0  0
  160.5890  212.1790  137.0240 N   0  0  0  0  0  1  0  0  0  0  0  0
  158.3550  213.2160  144.1920 C   0  0  0  0  0  3  0  0  0  0  0  0
  160.5780  210.1390  138.3470 C   0  0  1  0  0  3  0  0  0  0  0  0
  158.0570  214.3170  140.1550 O   0  0  0  0  0  0  0  0  0  0  0  0
  163.4320  212.5910  143.1080 O   0  0  0  0  0  0  0  0  0  0  0  0
  162.6670  213.1360  141.9350 S   0  0  0  0  0  0  0  0  0  0  0  0
  163.4980  212.6580  139.3740 C   0  0  0  0  0  0  0  0  0  0  0  0
  161.4240  211.9590  141.4490 C   0  0  2  0  0  3  0  0  0  0  0  0
  155.7430  212.0290  140.0050 O   0  0  0  0  0  0  0  0  0  0  0  0
  159.5060  211.4460  140.0840 C   0  0  2  0  0  3  0  0  0  0  0  0
  162.6510  211.6760  139.2810 N   0  0  0  0  0  0  0  0  0  0  0  0
  163.7310  213.3440  140.6010 N   0  0  0  0  0  2  0  0  0  0  0  0
  156.6910  212.5000  139.3990 C   0  0  0  0  0  0  0  0  0  0  0  0
  159.2110  213.1270  141.9170 C   0  0  0  0  0  0  0  0  0  0  0  0
  159.7360  211.2450  137.7390 C   0  0  1  0  0  3  0  0  0  0  0  0
  164.2060  213.1170  138.1510 C   0  0  0  0  0  1  0  0  0  0  0  0
  157.6110  211.5760  138.6530 C   0  0  0  0  0  2  0  0  0  0  0  0
  159.2830  212.7360  143.2640 C   0  0  0  0  0  3  0  0  0  0  0  0
  157.2400  214.4530  142.4360 C   0  0  0  0  0  3  0  0  0  0  0  0
  157.3360  214.0760  143.7780 C   0  0  0  0  0  3  0  0  0  0  0  0
  156.8940  213.9870  139.4060 C   0  0  0  0  0  2  0  0  0  0  0  0
  160.5940  210.4130  139.8340 C   0  0  2  0  0  3  0  0  0  0  0  0
  159.0170  211.9520  138.7980 N   0  0  1  0  0  0  0  0  0  0  0  0
  161.9090  211.0080  140.3670 C   0  0  2  0  0  3  0  0  0  0  0  0
  159.9160  208.8010  138.0880 C   0  0  0  0  0  1  0  0  0  0  0  0
  160.1580  212.5740  140.8810 C   0  0  1  0  0  3  0  0  0  0  0  0
  1 16  2  0  0  0  0
  1 21  1  0  0  0  0
  3 17  1  0  0  0  0
  5 27  1  1  0  0  0
  5 24  1  0  0  0  0
  6  1  1  0  0  0  0
  8  2  2  0  0  0  0
  8  7  2  0  0  0  0
  9 14  1  0  0  0  0
 10  8  1  6  0  0  0
 12 28  1  0  0  0  0
 13  9  2  0  0  0  0
 13 26  1  0  0  0  0
 14  8  1  0  0  0  0
 15 23  1  0  0  0  0
 15 11  2  0  0  0  0
 16 20  1  0  0  0  0
 17  5  1  0  0  0  0
 17 25  1  0  0  0  0
 18  9  1  0  0  0  0
 19 25  1  0  0  0  0
 19 15  1  0  0  0  0
 20  4  2  0  0  0  0
 21 22  2  0  0  0  0
 22  4  1  0  0  0  0
 23  6  1  0  0  0  0
 24 12  1  0  0  0  0
 24 26  1  0  0  0  0
 25 12  1  0  0  0  0
 26 10  1  0  0  0  0
 28 10  1  0  0  0  0
 28 16  1  0  0  0  0
M  END
>  <MODEL>
1

>  <REMARK>
 VINA RESULT:      -2.4      0.000      0.000
  Name = 
  0 active torsions:
  status: ('A' for Active; 'I' for Inactive)
                            x       y       z     vdW  Elec       q    Type
                         _______ _______ _______ _____ _____    ______ ____

>  <TORSDO>
F 0

$$$$
=
 OpenBabel11122414113D

 28 32  0  0  1  0  0  0  0  0999 V2000
  159.8880  213.6150  150.2870 C   0  0  0  0  0  0  0  0  0  0  0  0
  159.1850  213.7930  154.1980 O   0  0  0  0  0  0  0  0  0  0  0  0
  163.6330  210.3290  152.3710 N   0  0  0  0  0  1  0  0  0  0  0  0
  157.0920  213.6220  150.4170 C   0  0  0  0  0  3  0  0  0  0  0  0
  161.7890  208.7640  152.1220 C   0  0  1  0  0  3  0  0  0  0  0  0
  161.2810  213.5690  150.1900 O   0  0  0  0  0  0  0  0  0  0  0  0
  157.8590  212.0730  155.3520 O   0  0  0  0  0  0  0  0  0  0  0  0
  159.1520  212.3580  154.6420 S   0  0  0  0  0  0  0  0  0  0  0  0
  161.4580  211.0750  155.3600 C   0  0  0  0  0  0  0  0  0  0  0  0
  159.3100  211.2610  153.2500 C   0  0  2  0  0  3  0  0  0  0  0  0
  160.8240  211.6460  147.6000 O   0  0  0  0  0  0  0  0  0  0  0  0
  160.5120  210.6340  151.2580 C   0  0  2  0  0  3  0  0  0  0  0  0
  161.2870  210.2240  154.3920 N   0  0  0  0  0  0  0  0  0  0  0  0
  160.4700  212.0440  155.7000 N   0  0  0  0  0  2  0  0  0  0  0  0
  161.5190  211.8020  148.5900 C   0  0  0  0  0  0  0  0  0  0  0  0
  159.2330  212.7860  151.2130 C   0  0  0  0  0  0  0  0  0  0  0  0
  162.7010  209.7520  151.4180 C   0  0  1  0  0  3  0  0  0  0  0  0
  162.7480  211.0760  156.0980 C   0  0  0  0  0  1  0  0  0  0  0  0
  161.9580  210.5960  149.3700 C   0  0  0  0  0  2  0  0  0  0  0  0
  157.8290  212.7850  151.2590 C   0  0  0  0  0  3  0  0  0  0  0  0
  159.1460  214.4460  149.4380 C   0  0  0  0  0  3  0  0  0  0  0  0
  157.7510  214.4530  149.5090 C   0  0  0  0  0  3  0  0  0  0  0  0
  161.9280  213.1930  148.9810 C   0  0  0  0  0  2  0  0  0  0  0  0
  160.4400  209.4410  152.2010 C   0  0  2  0  0  3  0  0  0  0  0  0
  161.8980  210.8140  150.8150 N   0  0  1  0  0  0  0  0  0  0  0  0
  160.0710  209.9890  153.5900 C   0  0  2  0  0  3  0  0  0  0  0  0
  161.6730  207.5040  151.2900 C   0  0  0  0  0  1  0  0  0  0  0  0
  160.0530  211.8480  152.0630 C   0  0  1  0  0  3  0  0  0  0  0  0
  1 16  1  0  0  0  0
  2  8  2  0  0  0  0
  4 20  1  0  0  0  0
  5 27  1  6  0  0  0
  5 24  1  0  0  0  0
  6  1  1  0  0  0  0
  8  7  2  0  0  0  0
  8 14  1  0  0  0  0
  9 14  1  0  0  0  0
  9 18  1  0  0  0  0
 10 26  1  0  0  0  0
 10  8  1  1  0  0  0
 11 15  2  0  0  0  0
 12 28  1  0  0  0  0
 12 24  1  0  0  0  0
 13  9  2  0  0  0  0
 15 23  1  0  0  0  0
 15 19  1  0  0  0  0
 16 20  2  0  0  0  0
 16 28  1  0  0  0  0
 17  5  1  0  0  0  0
 17  3  1  0  0  0  0
 19 25  1  0  0  0  0
 21 22  1  0  0  0  0
 21  1  2  0  0  0  0
 22  4  2  0  0  0  0
 23  6  1  0  0  0  0
 24 26  1  0  0  0  0
 25 12  1  0  0  0  0
 25 17  1  0  0  0  0
 26 13  1  0  0  0  0
 28 10  1  0  0  0  0
M  END
>  <MODEL>
2

>  <REMARK>
 VINA RESULT:      -2.2      9.672     12.227
  Name = 
  0 active torsions:
  status: ('A' for Active; 'I' for Inactive)
                            x       y       z     vdW  Elec       q    Type
                         _______ _______ _______ _____ _____    ______ ____

>  <TORSDO>
F 0

$$$$
=
 OpenBabel11122414113D

 28 32  0  0  1  0  0  0  0  0999 V2000
  160.3640  209.8880  155.0560 C   0  0  0  0  0  0  0  0  0  0  0  0
  157.5420  212.0180  156.8770 O   0  0  0  0  0  0  0  0  0  0  0  0
  157.6300  212.0860  150.9510 N   0  0  0  0  0  1  0  0  0  0  0  0
  161.7290  211.0000  157.2320 C   0  0  0  0  0  3  0  0  0  0  0  0
  159.2340  213.8600  151.3880 C   0  0  1  0  0  3  0  0  0  0  0  0
  159.7220  209.3510  153.9390 O   0  0  0  0  0  0  0  0  0  0  0  0
  157.7880  214.4370  157.2530 O   0  0  0  0  0  0  0  0  0  0  0  0
  157.6000  213.3670  156.2160 S   0  0  0  0  0  0  0  0  0  0  0  0
  156.1650  213.8590  153.9400 C   0  0  0  0  0  0  0  0  0  0  0  0
  158.9390  213.4410  155.0470 C   0  0  2  0  0  3  0  0  0  0  0  0
  162.5770  209.6800  152.4050 O   0  0  0  0  0  0  0  0  0  0  0  0
  160.0820  212.4530  153.1700 C   0  0  2  0  0  3  0  0  0  0  0  0
  157.2690  214.0850  153.2920 N   0  0  0  0  0  0  0  0  0  0  0  0
  156.1430  213.6560  155.3500 N   0  0  0  0  0  2  0  0  0  0  0  0
  161.3730  209.8050  152.2630 C   0  0  0  0  0  0  0  0  0  0  0  0
  160.1950  211.2490  155.3630 C   0  0  0  0  0  0  0  0  0  0  0  0
  159.0460  212.3940  151.0450 C   0  0  1  0  0  3  0  0  0  0  0  0
  154.8930  213.7520  153.1800 C   0  0  0  0  0  1  0  0  0  0  0  0
  160.8490  210.9720  151.4750 C   0  0  0  0  0  2  0  0  0  0  0  0
  160.8970  211.8010  156.4470 C   0  0  0  0  0  3  0  0  0  0  0  0
  161.2060  209.0900  155.8410 C   0  0  0  0  0  3  0  0  0  0  0  0
  161.8820  209.6450  156.9310 C   0  0  0  0  0  3  0  0  0  0  0  0
  160.4570  208.7790  152.8640 C   0  0  0  0  0  2  0  0  0  0  0  0
  159.6940  213.8840  152.8280 C   0  0  2  0  0  3  0  0  0  0  0  0
  159.6600  211.5660  152.0820 N   0  0  1  0  0  0  0  0  0  0  0  0
  158.6190  214.3110  153.8420 C   0  0  2  0  0  3  0  0  0  0  0  0
  160.3130  214.4510  150.5050 C   0  0  0  0  0  1  0  0  0  0  0  0
  159.3400  212.1010  154.4570 C   0  0  1  0  0  3  0  0  0  0  0  0
  1 16  2  0  0  0  0
  1 21  1  0  0  0  0
  3 17  1  0  0  0  0
  5 27  1  6  0  0  0
  5 24  1  0  0  0  0
  6  1  1  0  0  0  0
  8  2  2  0  0  0  0
  8  7  2  0  0  0  0
  9 14  1  0  0  0  0
 10  8  1  1  0  0  0
 12 28  1  0  0  0  0
 13 26  1  0  0  0  0
 13  9  2  0  0  0  0
 14  8  1  0  0  0  0
 15 11  2  0  0  0  0
 15 23  1  0  0  0  0
 16 20  1  0  0  0  0
 17  5  1  0  0  0  0
 17 25  1  0  0  0  0
 18  9  1  0  0  0  0
 19 25  1  0  0  0  0
 19 15  1  0  0  0  0
 20  4  2  0  0  0  0
 21 22  2  0  0  0  0
 22  4  1  0  0  0  0
 23  6  1  0  0  0  0
 24 12  1  0  0  0  0
 24 26  1  0  0  0  0
 25 12  1  0  0  0  0
 26 10  1  0  0  0  0
 28 10  1  0  0  0  0
 28 16  1  0  0  0  0
M  END
>  <MODEL>
3

>  <REMARK>
 VINA RESULT:      -1.5     11.544     14.470
  Name = 
  0 active torsions:
  status: ('A' for Active; 'I' for Inactive)
                            x       y       z     vdW  Elec       q    Type
                         _______ _______ _______ _____ _____    ______ ____

>  <TORSDO>
F 0

$$$$
=
 OpenBabel11122414113D

 28 32  0  0  1  0  0  0  0  0999 V2000
  160.3150  213.1550  149.7690 C   0  0  0  0  0  0  0  0  0  0  0  0
  158.7780  214.4390  153.2050 O   0  0  0  0  0  0  0  0  0  0  0  0
  162.9280  210.2170  153.4700 N   0  0  0  0  0  1  0  0  0  0  0  0
  157.5990  213.4530  149.1630 C   0  0  0  0  0  3  0  0  0  0  0  0
  160.9680  208.8200  153.1300 C   0  0  1  0  0  3  0  0  0  0  0  0
  161.6680  212.9560  150.0500 O   0  0  0  0  0  0  0  0  0  0  0  0
  156.9730  213.2210  154.3490 O   0  0  0  0  0  0  0  0  0  0  0  0
  158.4220  213.1850  153.9520 S   0  0  0  0  0  0  0  0  0  0  0  0
  160.2750  211.9350  155.5270 C   0  0  0  0  0  0  0  0  0  0  0  0
  158.7190  211.7450  152.9500 C   0  0  2  0  0  3  0  0  0  0  0  0
  161.5170  210.4590  147.9630 O   0  0  0  0  0  0  0  0  0  0  0  0
  160.2280  210.4980  151.5460 C   0  0  2  0  0  3  0  0  0  0  0  0
  160.1980  210.8740  154.7780 N   0  0  0  0  0  0  0  0  0  0  0  0
  159.3990  213.0460  155.3590 N   0  0  0  0  0  2  0  0  0  0  0  0
  161.9860  210.8100  149.0330 C   0  0  0  0  0  0  0  0  0  0  0  0
  159.3450  212.6680  150.6620 C   0  0  0  0  0  0  0  0  0  0  0  0
  162.1590  209.4940  152.4730 C   0  0  1  0  0  3  0  0  0  0  0  0
  161.3470  212.0150  156.5520 C   0  0  0  0  0  1  0  0  0  0  0  0
  162.0410  209.8220  150.1630 C   0  0  0  0  0  2  0  0  0  0  0  0
  157.9850  212.8090  150.3400 C   0  0  0  0  0  3  0  0  0  0  0  0
  159.9240  213.7920  148.5840 C   0  0  0  0  0  3  0  0  0  0  0  0
  158.5680  213.9470  148.2860 C   0  0  0  0  0  3  0  0  0  0  0  0
  162.5070  212.2110  149.1760 C   0  0  0  0  0  2  0  0  0  0  0  0
  159.7590  209.6150  152.6920 C   0  0  2  0  0  3  0  0  0  0  0  0
  161.6900  210.4240  151.4480 N   0  0  1  0  0  0  0  0  0  0  0  0
  159.1750  210.5470  153.7670 C   0  0  2  0  0  3  0  0  0  0  0  0
  160.8490  207.3980  152.6190 C   0  0  0  0  0  1  0  0  0  0  0  0
  159.7940  211.9210  151.8920 C   0  0  1  0  0  3  0  0  0  0  0  0
  1  6  1  0  0  0  0
  1 16  1  0  0  0  0
  2  8  2  0  0  0  0
  4 20  1  0  0  0  0
  5 27  1  6  0  0  0
  8  7  2  0  0  0  0
  8 14  1  0  0  0  0
  9 18  1  0  0  0  0
 10 26  1  0  0  0  0
 10  8  1  1  0  0  0
 11 15  2  0  0  0  0
 12 28  1  0  0  0  0
 12 24  1  0  0  0  0
 13  9  2  0  0  0  0
 14  9  1  0  0  0  0
 15 23  1  0  0  0  0
 15 19  1  0  0  0  0
 16 28  1  0  0  0  0
 17  5  1  0  0  0  0
 17  3  1  0  0  0  0
 19 25  1  0  0  0  0
 20 16  2  0  0  0  0
 21  1  2  0  0  0  0
 22 21  1  0  0  0  0
 22  4  2  0  0  0  0
 23  6  1  0  0  0  0
 24  5  1  0  0  0  0
 24 26  1  0  0  0  0
 25 12  1  0  0  0  0
 25 17  1  0  0  0  0
 26 13  1  0  0  0  0
 28 10  1  0  0  0  0
M  END
>  <MODEL>
4

>  <REMARK>
 VINA RESULT:      -1.4      9.702     12.446
  Name = 
  0 active torsions:
  status: ('A' for Active; 'I' for Inactive)
                            x       y       z     vdW  Elec       q    Type
                         _______ _______ _______ _____ _____    ______ ____

>  <TORSDO>
F 0

$$$$
=
 OpenBabel11122414113D

 28 32  0  0  1  0  0  0  0  0999 V2000
  160.3600  209.8270  152.9360 C   0  0  0  0  0  0  0  0  0  0  0  0
  157.1570  212.0540  153.7090 O   0  0  0  0  0  0  0  0  0  0  0  0
  159.3320  212.2050  148.1980 N   0  0  0  0  0  1  0  0  0  0  0  0
  160.9110  210.8450  155.4850 C   0  0  0  0  0  3  0  0  0  0  0  0
  160.7430  213.8990  149.2230 C   0  0  1  0  0  3  0  0  0  0  0  0
  160.1350  209.3350  151.6480 O   0  0  0  0  0  0  0  0  0  0  0  0
  157.3440  214.4530  154.2190 O   0  0  0  0  0  0  0  0  0  0  0  0
  157.4950  213.4080  153.1510 S   0  0  0  0  0  0  0  0  0  0  0  0
  156.9730  213.9970  150.5310 C   0  0  0  0  0  0  0  0  0  0  0  0
  159.1620  213.4400  152.5300 C   0  0  2  0  0  3  0  0  0  0  0  0
  163.3580  209.5590  151.2280 O   0  0  0  0  0  0  0  0  0  0  0  0
  160.8560  212.4300  151.1470 C   0  0  2  0  0  3  0  0  0  0  0  0
  158.2420  214.1830  150.3190 N   0  0  0  0  0  0  0  0  0  0  0  0
  156.4480  213.7750  151.8370 N   0  0  0  0  0  2  0  0  0  0  0  0
  162.2860  209.7400  150.6740 C   0  0  0  0  0  0  0  0  0  0  0  0
  160.1440  211.1900  153.2030 C   0  0  0  0  0  0  0  0  0  0  0  0
  160.6350  212.4480  148.7920 C   0  0  1  0  0  3  0  0  0  0  0  0
  156.0480  213.9580  149.3690 C   0  0  0  0  0  1  0  0  0  0  0  0
  162.1170  210.9400  149.7870 C   0  0  0  0  0  2  0  0  0  0  0  0
  160.4380  211.6930  154.4800 C   0  0  0  0  0  3  0  0  0  0  0  0
  160.8430  208.9810  153.9420 C   0  0  0  0  0  3  0  0  0  0  0  0
  161.1100  209.4890  155.2160 C   0  0  0  0  0  3  0  0  0  0  0  0
  161.1800  208.7460  150.8850 C   0  0  0  0  0  2  0  0  0  0  0  0
  160.6660  213.8810  150.7330 C   0  0  2  0  0  3  0  0  0  0  0  0
  160.8120  211.5780  149.9540 N   0  0  1  0  0  0  0  0  0  0  0  0
  159.3190  214.3410  151.3160 C   0  0  2  0  0  3  0  0  0  0  0  0
  162.0850  214.4530  148.7930 C   0  0  0  0  0  1  0  0  0  0  0  0
  159.6960  212.0920  152.0800 C   0  0  1  0  0  3  0  0  0  0  0  0
  1 16  2  0  0  0  0
  1 21  1  0  0  0  0
  3 17  1  0  0  0  0
  5 27  1  1  0  0  0
  5 24  1  0  0  0  0
  6  1  1  0  0  0  0
  8  2  2  0  0  0  0
  8  7  2  0  0  0  0
  9 14  1  0  0  0  0
 10  8  1  6  0  0  0
 12 28  1  0  0  0  0
 13  9  2  0  0  0  0
 13 26  1  0  0  0  0
 14  8  1  0  0  0  0
 15 23  1  0  0  0  0
 15 11  2  0  0  0  0
 16 20  1  0  0  0  0
 17  5  1  0  0  0  0
 17 25  1  0  0  0  0
 18  9  1  0  0  0  0
 19 25  1  0  0  0  0
 19 15  1  0  0  0  0
 20  4  2  0  0  0  0
 21 22  2  0  0  0  0
 22  4  1  0  0  0  0
 23  6  1  0  0  0  0
 24 12  1  0  0  0  0
 24 26  1  0  0  0  0
 25 12  1  0  0  0  0
 26 10  1  0  0  0  0
 28 10  1  0  0  0  0
 28 16  1  0  0  0  0
M  END
>  <MODEL>
5

>  <REMARK>
 VINA RESULT:      -0.7      9.532     12.264
  Name = 
  0 active torsions:
  status: ('A' for Active; 'I' for Inactive)
                            x       y       z     vdW  Elec       q    Type
                         _______ _______ _______ _____ _____    ______ ____

>  <TORSDO>
F 0

$$$$
=
 OpenBabel11122414113D

 28 32  0  0  1  0  0  0  0  0999 V2000
  160.8200  206.4130  149.4040 C   0  0  0  0  0  0  0  0  0  0  0  0
  160.2230  206.6160  145.4770 O   0  0  0  0  0  0  0  0  0  0  0  0
  159.0560  201.4630  148.1620 N   0  0  0  0  0  1  0  0  0  0  0  0
  163.0060  207.9210  148.5190 C   0  0  0  0  0  3  0  0  0  0  0  0
  161.4380  201.1720  147.7730 C   0  0  1  0  0  3  0  0  0  0  0  0
  159.7640  205.6290  149.8720 O   0  0  0  0  0  0  0  0  0  0  0  0
  161.8970  205.7970  143.8710 O   0  0  0  0  0  0  0  0  0  0  0  0
  160.9070  205.3960  144.9270 S   0  0  0  0  0  0  0  0  0  0  0  0
  159.5720  203.0140  144.7640 C   0  0  0  0  0  0  0  0  0  0  0  0
  161.7520  204.5080  146.2170 C   0  0  2  0  0  3  0  0  0  0  0  0
  161.8710  204.4840  152.0770 O   0  0  0  0  0  0  0  0  0  0  0  0
  161.6760  203.5000  148.4040 C   0  0  2  0  0  3  0  0  0  0  0  0
  160.4320  202.4750  145.5770 N   0  0  0  0  0  0  0  0  0  0  0  0
  159.7410  204.3310  144.2470 N   0  0  0  0  0  2  0  0  0  0  0  0
  160.9640  204.1560  151.3300 C   0  0  0  0  0  0  0  0  0  0  0  0
  161.5400  205.9970  148.2710 C   0  0  0  0  0  0  0  0  0  0  0  0
  160.3690  201.5640  148.7750 C   0  0  1  0  0  3  0  0  0  0  0  0
  158.3460  202.2550  144.4070 C   0  0  0  0  0  1  0  0  0  0  0  0
  161.0580  202.8440  150.6050 C   0  0  0  0  0  2  0  0  0  0  0  0
  162.6450  206.7520  147.8450 C   0  0  0  0  0  3  0  0  0  0  0  0
  161.1900  207.5810  150.0830 C   0  0  0  0  0  3  0  0  0  0  0  0
  162.2770  208.3360  149.6360 C   0  0  0  0  0  3  0  0  0  0  0  0
  159.7800  205.0650  151.1780 C   0  0  0  0  0  2  0  0  0  0  0  0
  162.1240  202.4630  147.3850 C   0  0  2  0  0  3  0  0  0  0  0  0
  160.5960  202.9380  149.2210 N   0  0  1  0  0  0  0  0  0  0  0  0
  161.7440  203.0040  145.9970 C   0  0  2  0  0  3  0  0  0  0  0  0
  162.4390  200.2500  148.4380 C   0  0  0  0  0  1  0  0  0  0  0  0
  161.1650  204.6970  147.6040 C   0  0  1  0  0  3  0  0  0  0  0  0
  1  6  1  0  0  0  0
  1 21  1  0  0  0  0
  3 17  1  0  0  0  0
  4 22  1  0  0  0  0
  5 27  1  1  0  0  0
  5 17  1  0  0  0  0
  6 23  1  0  0  0  0
  7  8  2  0  0  0  0
  8  2  2  0  0  0  0
  9 13  2  0  0  0  0
 10  8  1  6  0  0  0
 10 28  1  0  0  0  0
 12 25  1  0  0  0  0
 13 26  1  0  0  0  0
 14  9  1  0  0  0  0
 14  8  1  0  0  0  0
 15 11  2  0  0  0  0
 16  1  2  0  0  0  0
 17 25  1  0  0  0  0
 18  9  1  0  0  0  0
 19 15  1  0  0  0  0
 20 16  1  0  0  0  0
 20  4  2  0  0  0  0
 22 21  2  0  0  0  0
 23 15  1  0  0  0  0
 24  5  1  0  0  0  0
 24 12  1  0  0  0  0
 25 19  1  0  0  0  0
 26 10  1  0  0  0  0
 26 24  1  0  0  0  0
 28 16  1  0  0  0  0
 28 12  1  0  0  0  0
M  END
>  <MODEL>
6

>  <REMARK>
 VINA RESULT:      -0.4     10.370     11.932
  Name = 
  0 active torsions:
  status: ('A' for Active; 'I' for Inactive)
                            x       y       z     vdW  Elec       q    Type
                         _______ _______ _______ _____ _____    ______ ____

>  <TORSDO>
F 0

$$$$
=
 OpenBabel11122414113D

 28 32  0  0  1  0  0  0  0  0999 V2000
  160.6420  208.4640  152.0070 C   0  0  0  0  0  0  0  0  0  0  0  0
  158.1800  211.4580  152.8950 O   0  0  0  0  0  0  0  0  0  0  0  0
  160.2080  211.1380  147.3350 N   0  0  0  0  0  1  0  0  0  0  0  0
  161.4970  209.2370  154.5580 C   0  0  0  0  0  3  0  0  0  0  0  0
  162.0450  212.3620  148.3530 C   0  0  1  0  0  3  0  0  0  0  0  0
  160.2670  208.0810  150.7170 O   0  0  0  0  0  0  0  0  0  0  0  0
  159.0210  213.7050  153.4400 O   0  0  0  0  0  0  0  0  0  0  0  0
  158.8610  212.6820  152.3510 S   0  0  0  0  0  0  0  0  0  0  0  0
  158.4700  213.4490  149.7550 C   0  0  0  0  0  0  0  0  0  0  0  0
  160.4620  212.2750  151.6900 C   0  0  2  0  0  3  0  0  0  0  0  0
  163.4210  207.4320  150.2210 O   0  0  0  0  0  0  0  0  0  0  0  0
  161.7920  210.8740  150.2490 C   0  0  2  0  0  3  0  0  0  0  0  0
  159.7370  213.2890  149.5150 N   0  0  0  0  0  0  0  0  0  0  0  0
  157.9290  213.3490  151.0690 N   0  0  0  0  0  2  0  0  0  0  0  0
  162.4280  207.9090  149.6970 C   0  0  0  0  0  0  0  0  0  0  0  0
  160.8090  209.8280  152.3010 C   0  0  0  0  0  0  0  0  0  0  0  0
  161.5390  211.0050  147.9010 C   0  0  1  0  0  3  0  0  0  0  0  0
  157.5460  213.6890  148.6160 C   0  0  0  0  0  1  0  0  0  0  0  0
  162.5750  209.1300  148.8350 C   0  0  0  0  0  2  0  0  0  0  0  0
  161.2540  210.2040  153.5790 C   0  0  0  0  0  3  0  0  0  0  0  0
  160.8960  207.4970  152.9870 C   0  0  0  0  0  3  0  0  0  0  0  0
  161.3150  207.8840  154.2620 C   0  0  0  0  0  3  0  0  0  0  0  0
  161.0980  207.2480  149.9190 C   0  0  0  0  0  2  0  0  0  0  0  0
  161.9950  212.3320  149.8640 C   0  0  2  0  0  3  0  0  0  0  0  0
  161.4960  210.0940  149.0440 N   0  0  1  0  0  0  0  0  0  0  0  0
  160.8350  213.1270  150.4870 C   0  0  2  0  0  3  0  0  0  0  0  0
  163.4790  212.5410  147.9000 C   0  0  0  0  0  1  0  0  0  0  0  0
  160.6010  210.8430  151.2050 C   0  0  1  0  0  3  0  0  0  0  0  0
  1 16  2  0  0  0  0
  1 21  1  0  0  0  0
  3 17  1  0  0  0  0
  5 27  1  1  0  0  0
  5 24  1  0  0  0  0
  6  1  1  0  0  0  0
  8  2  2  0  0  0  0
  8  7  2  0  0  0  0
  9 14  1  0  0  0  0
 10  8  1  6  0  0  0
 12 28  1  0  0  0  0
 13  9  2  0  0  0  0
 13 26  1  0  0  0  0
 14  8  1  0  0  0  0
 15 23  1  0  0  0  0
 15 11  2  0  0  0  0
 16 20  1  0  0  0  0
 17  5  1  0  0  0  0
 17 25  1  0  0  0  0
 18  9  1  0  0  0  0
 19 25  1  0  0  0  0
 19 15  1  0  0  0  0
 20  4  2  0  0  0  0
 21 22  2  0  0  0  0
 22  4  1  0  0  0  0
 23  6  1  0  0  0  0
 24 12  1  0  0  0  0
 24 26  1  0  0  0  0
 25 12  1  0  0  0  0
 26 10  1  0  0  0  0
 28 10  1  0  0  0  0
 28 16  1  0  0  0  0
M  END
>  <MODEL>
7

>  <REMARK>
 VINA RESULT:      -0.2      8.902     11.486
  Name = 
  0 active torsions:
  status: ('A' for Active; 'I' for Inactive)
                            x       y       z     vdW  Elec       q    Type
                         _______ _______ _______ _____ _____    ______ ____

>  <TORSDO>
F 0

$$$$
=
 OpenBabel11122414113D

 28 32  0  0  1  0  0  0  0  0999 V2000
  160.8400  206.1690  150.3380 C   0  0  0  0  0  0  0  0  0  0  0  0
  159.7250  208.3080  153.4990 O   0  0  0  0  0  0  0  0  0  0  0  0
  160.3620  211.1650  148.3460 N   0  0  0  0  0  1  0  0  0  0  0  0
  162.4000  205.0940  152.3990 C   0  0  0  0  0  3  0  0  0  0  0  0
  162.6640  211.2390  149.1230 C   0  0  1  0  0  3  0  0  0  0  0  0
  160.1070  206.7100  149.2800 O   0  0  0  0  0  0  0  0  0  0  0  0
  161.3450  209.6080  154.8170 O   0  0  0  0  0  0  0  0  0  0  0  0
  160.6420  209.4980  153.4930 S   0  0  0  0  0  0  0  0  0  0  0  0
  160.0030  211.7360  152.0560 C   0  0  0  0  0  0  0  0  0  0  0  0
  161.8530  209.3580  152.1980 C   0  0  2  0  0  3  0  0  0  0  0  0
  162.7060  206.0620  147.4250 O   0  0  0  0  0  0  0  0  0  0  0  0
  162.3310  208.9580  149.8700 C   0  0  2  0  0  3  0  0  0  0  0  0
  161.0730  211.5780  151.3330 N   0  0  0  0  0  0  0  0  0  0  0  0
  159.7390  210.9310  153.2020 N   0  0  0  0  0  2  0  0  0  0  0  0
  161.8390  206.8940  147.6350 C   0  0  0  0  0  0  0  0  0  0  0  0
  161.4990  207.0290  151.2330 C   0  0  0  0  0  0  0  0  0  0  0  0
  161.6620  210.5280  148.2320 C   0  0  1  0  0  3  0  0  0  0  0  0
  158.9970  212.7470  151.6420 C   0  0  0  0  0  1  0  0  0  0  0  0
  162.1970  208.3510  147.5740 C   0  0  0  0  0  2  0  0  0  0  0  0
  162.2920  206.4790  152.2540 C   0  0  0  0  0  3  0  0  0  0  0  0
  160.9580  204.7800  150.4810 C   0  0  0  0  0  3  0  0  0  0  0  0
  161.7310  204.2450  151.5140 C   0  0  0  0  0  3  0  0  0  0  0  0
  160.4410  206.4310  147.9260 C   0  0  0  0  0  2  0  0  0  0  0  0
  162.9150  210.3010  150.2820 C   0  0  2  0  0  3  0  0  0  0  0  0
  161.5580  209.1270  148.6360 N   0  0  1  0  0  0  0  0  0  0  0  0
  162.2310  210.7030  151.5990 C   0  0  2  0  0  3  0  0  0  0  0  0
  163.9550  211.4530  148.3590 C   0  0  0  0  0  1  0  0  0  0  0  0
  161.4160  208.5180  151.0110 C   0  0  1  0  0  3  0  0  0  0  0  0
  1 21  2  0  0  0  0
  1 16  1  0  0  0  0
  5 27  1  6  0  0  0
  5 24  1  0  0  0  0
  6  1  1  0  0  0  0
  8  2  2  0  0  0  0
  8  7  2  0  0  0  0
  9 14  1  0  0  0  0
 10  8  1  1  0  0  0
 11 15  2  0  0  0  0
 12 24  1  0  0  0  0
 12 28  1  0  0  0  0
 13 26  1  0  0  0  0
 13  9  2  0  0  0  0
 14  8  1  0  0  0  0
 15 23  1  0  0  0  0
 16 20  2  0  0  0  0
 17  3  1  0  0  0  0
 17 25  1  0  0  0  0
 17  5  1  0  0  0  0
 18  9  1  0  0  0  0
 19 15  1  0  0  0  0
 19 25  1  0  0  0  0
 20  4  1  0  0  0  0
 21 22  1  0  0  0  0
 22  4  2  0  0  0  0
 23  6  1  0  0  0  0
 24 26  1  0  0  0  0
 25 12  1  0  0  0  0
 26 10  1  0  0  0  0
 28 16  1  0  0  0  0
 28 10  1  0  0  0  0
M  END
>  <MODEL>
8

>  <REMARK>
 VINA RESULT:      -0.2      9.611     11.872
  Name = 
  0 active torsions:
  status: ('A' for Active; 'I' for Inactive)
                            x       y       z     vdW  Elec       q    Type
                         _______ _______ _______ _____ _____    ______ ____

>  <TORSDO>
F 0

$$$$
