=
 OpenBabel11122412573D

 32 37  0  0  1  0  0  0  0  0999 V2000
  159.7710  211.0760  152.8150 C   0  0  0  0  0  2  0  0  0  0  0  0
  161.6590  207.3410  150.3060 C   0  0  0  0  0  0  0  0  0  0  0  0
  161.1700  203.1990  152.7800 C   0  0  0  0  0  2  0  0  0  0  0  0
  160.0200  202.8060  151.8590 C   0  0  0  0  0  2  0  0  0  0  0  0
  162.0500  207.0710  147.7650 C   0  0  0  0  0  0  0  0  0  0  0  0
  162.2610  206.1790  146.5740 C   0  0  2  0  0  3  0  0  0  0  0  0
  162.0070  209.6000  151.3030 C   0  0  2  0  0  3  0  0  0  0  0  0
  161.3380  207.6830  152.6610 N   0  0  0  0  0  0  0  0  0  0  0  0
  161.9230  204.1490  145.5250 C   0  0  2  0  0  3  0  0  0  0  0  0
  161.7150  209.7460  153.8650 C   0  0  0  0  0  2  0  0  0  0  0  0
  161.4520  204.7090  152.7640 C   0  0  0  0  0  2  0  0  0  0  0  0
  161.2630  206.8520  151.4930 C   0  0  0  0  0  0  0  0  0  0  0  0
  160.7250  205.4560  151.6390 C   0  0  1  0  0  3  0  0  0  0  0  0
  161.1750  205.2390  149.1390 C   0  0  0  0  0  0  0  0  0  0  0  0
  161.1520  205.2580  144.8390 C   0  0  0  0  0  2  0  0  0  0  0  0
  160.7670  211.5600  151.9570 O   0  0  0  0  0  0  0  0  0  0  0  0
  161.7220  208.9220  152.6190 C   0  0  0  0  0  0  0  0  0  0  0  0
  161.3290  206.4580  145.5570 O   0  0  0  0  0  0  0  0  0  0  0  0
  160.8880  210.5820  150.9590 C   0  0  0  0  0  2  0  0  0  0  0  0
  160.3700  210.4580  154.0870 C   0  0  1  0  0  3  0  0  0  0  0  0
  160.3260  203.2650  150.4340 C   0  0  0  0  0  2  0  0  0  0  0  0
  160.7530  204.6700  150.3950 N   0  0  0  0  0  0  0  0  0  0  0  0
  161.0390  204.4280  147.8770 C   0  0  0  0  0  2  0  0  0  0  0  0
  162.1530  208.6520  150.2430 O   0  0  0  0  0  0  0  0  0  0  0  0
  162.2610  208.3050  147.6310 O   0  0  0  0  0  0  0  0  0  0  0  0
  161.1680  202.8280  145.4900 C   0  0  0  0  0  1  0  0  0  0  0  0
  161.6040  206.5150  149.0740 C   0  0  0  0  0  0  0  0  0  0  0  0
  162.1940  204.6980  146.9010 C   0  0  2  0  0  3  0  0  0  0  0  0
  160.5200  211.4890  155.1040 N   0  0  0  0  0  2  0  0  0  0  0  0
  159.5510  211.7080  156.1300 C   0  0  0  0  0  0  0  0  0  0  0  0
  158.4960  211.0200  156.1760 O   0  0  0  0  0  0  0  0  0  0  0  0
  159.7860  212.7630  157.1490 C   0  0  0  0  0  1  0  0  0  0  0  0
  1 20  1  0  0  0  0
  2 12  2  0  0  0  0
  4  3  1  0  0  0  0
  5 27  1  0  0  0  0
  6 18  1  6  0  0  0
  6 28  1  0  0  0  0
  6  5  1  0  0  0  0
  7 19  1  6  0  0  0
  7 17  1  0  0  0  0
  9 26  1  1  0  0  0
  9 28  1  0  0  0  0
 10 20  1  0  0  0  0
 11  3  1  0  0  0  0
 12 13  1  0  0  0  0
 12  8  1  0  0  0  0
 13 11  1  1  0  0  0
 14 22  1  0  0  0  0
 15  9  1  0  0  0  0
 15 18  1  0  0  0  0
 16  1  1  0  0  0  0
 17  8  2  0  0  0  0
 17 10  1  0  0  0  0
 19 16  1  0  0  0  0
 20 29  1  1  0  0  0
 21  4  1  0  0  0  0
 22 21  1  0  0  0  0
 22 13  1  0  0  0  0
 23 14  1  0  0  0  0
 24  2  1  0  0  0  0
 24  7  1  0  0  0  0
 25  5  2  0  0  0  0
 27 14  2  0  0  0  0
 27  2  1  0  0  0  0
 28 23  1  1  0  0  0
 29 30  1  0  0  0  0
 30 31  2  0  0  0  0
 30 32  1  0  0  0  0
M  END
>  <MODEL>
1

>  <REMARK>
 VINA RESULT:      -7.7      0.000      0.000
  Name = 
  1 active torsions:
  status: ('A' for Active; 'I' for Inactive)
    1  A    between atoms: C_20  and  N_29
                            x       y       z     vdW  Elec       q    Type
                         _______ _______ _______ _____ _____    ______ ____

>  <TORSDO>
F 1

$$$$
=
 OpenBabel11122412573D

 32 37  0  0  1  0  0  0  0  0999 V2000
  160.5350  205.9320  148.8120 C   0  0  0  0  0  2  0  0  0  0  0  0
  161.3510  209.5580  151.9750 C   0  0  0  0  0  0  0  0  0  0  0  0
  161.0760  213.8590  149.7520 C   0  0  0  0  0  2  0  0  0  0  0  0
  159.6990  214.0710  150.3730 C   0  0  0  0  0  2  0  0  0  0  0  0
  161.0680  209.6220  154.5430 C   0  0  0  0  0  0  0  0  0  0  0  0
  160.8840  210.4130  155.8080 C   0  0  2  0  0  3  0  0  0  0  0  0
  162.1640  207.4370  150.9460 C   0  0  2  0  0  3  0  0  0  0  0  0
  161.6620  209.4110  149.5990 N   0  0  0  0  0  0  0  0  0  0  0  0
  160.0910  212.3030  156.8740 C   0  0  2  0  0  3  0  0  0  0  0  0
  162.5350  207.5060  148.3920 C   0  0  0  0  0  2  0  0  0  0  0  0
  161.4970  212.3820  149.7350 C   0  0  0  0  0  2  0  0  0  0  0  0
  161.2160  210.1220  150.7640 C   0  0  0  0  0  0  0  0  0  0  0  0
  160.5920  211.4770  150.5810 C   0  0  1  0  0  3  0  0  0  0  0  0
  160.3810  211.4970  153.1220 C   0  0  0  0  0  0  0  0  0  0  0  0
  159.2900  211.0770  157.2600 C   0  0  0  0  0  2  0  0  0  0  0  0
  161.3300  205.4530  149.8610 O   0  0  0  0  0  0  0  0  0  0  0  0
  162.1480  208.2090  149.6510 C   0  0  0  0  0  0  0  0  0  0  0  0
  159.7620  209.9660  156.5310 O   0  0  0  0  0  0  0  0  0  0  0  0
  161.0990  206.3400  150.9220 C   0  0  0  0  0  2  0  0  0  0  0  0
  161.3670  206.7120  147.7830 C   0  0  1  0  0  3  0  0  0  0  0  0
  159.6860  213.5080  151.7930 C   0  0  0  0  0  2  0  0  0  0  0  0
  160.2300  212.1440  151.8430 N   0  0  0  0  0  0  0  0  0  0  0  0
  159.8530  212.1730  154.3600 C   0  0  0  0  0  2  0  0  0  0  0  0
  161.9440  208.2910  152.0710 O   0  0  0  0  0  0  0  0  0  0  0  0
  161.3630  208.4010  154.6410 O   0  0  0  0  0  0  0  0  0  0  0  0
  159.2220  213.5500  156.8060 C   0  0  0  0  0  1  0  0  0  0  0  0
  160.9080  210.2590  153.2060 C   0  0  0  0  0  0  0  0  0  0  0  0
  160.7510  211.9070  155.5790 C   0  0  2  0  0  3  0  0  0  0  0  0
  161.8690  205.7960  146.7700 N   0  0  0  0  0  2  0  0  0  0  0  0
  161.2170  205.6010  145.5140 C   0  0  0  0  0  0  0  0  0  0  0  0
  160.1460  206.2070  145.2440 O   0  0  0  0  0  0  0  0  0  0  0  0
  161.8030  204.6660  144.5190 C   0  0  0  0  0  1  0  0  0  0  0  0
  1 16  1  0  0  0  0
  2 24  1  0  0  0  0
  2 27  1  0  0  0  0
  3  4  1  0  0  0  0
  4 21  1  0  0  0  0
  5 25  2  0  0  0  0
  6  5  1  6  0  0  0
  6 18  1  0  0  0  0
  7 19  1  6  0  0  0
  7 24  1  0  0  0  0
  8 17  2  0  0  0  0
  8 12  1  0  0  0  0
  9 26  1  6  0  0  0
  9 15  1  0  0  0  0
 10 17  1  0  0  0  0
 11  3  1  0  0  0  0
 12  2  2  0  0  0  0
 13 11  1  1  0  0  0
 13 12  1  0  0  0  0
 13 22  1  0  0  0  0
 14 27  2  0  0  0  0
 14 23  1  0  0  0  0
 16 19  1  0  0  0  0
 17  7  1  0  0  0  0
 18 15  1  0  0  0  0
 20 29  1  6  0  0  0
 20 10  1  0  0  0  0
 20  1  1  0  0  0  0
 21 22  1  0  0  0  0
 22 14  1  0  0  0  0
 27  5  1  0  0  0  0
 28 23  1  6  0  0  0
 28  6  1  0  0  0  0
 28  9  1  0  0  0  0
 30 29  1  0  0  0  0
 31 30  2  0  0  0  0
 32 30  1  0  0  0  0
M  END
>  <MODEL>
2

>  <REMARK>
 VINA RESULT:      -6.8      2.133      9.181
  Name = 
  1 active torsions:
  status: ('A' for Active; 'I' for Inactive)
    1  A    between atoms: C_20  and  N_29
                            x       y       z     vdW  Elec       q    Type
                         _______ _______ _______ _____ _____    ______ ____

>  <TORSDO>
F 1

$$$$
