=
 OpenBabel11122414143D

 28 32  0  0  1  0  0  0  0  0999 V2000
  163.3830  212.0660  139.1410 C   0  0  0  0  0  0  0  0  0  0  0  0
  161.6870  211.7200  141.8740 F   0  0  0  0  0  0  0  0  0  0  0  0
  157.7110  213.5470  137.2640 O   0  0  0  0  0  1  0  0  0  0  0  0
  165.0540  214.3230  139.2020 C   0  0  0  0  0  3  0  0  0  0  0  0
  158.0710  212.9860  139.5020 N   0  0  0  0  0  0  0  0  0  0  0  0
  162.5700  210.8070  139.0680 C   0  0  0  0  0  2  0  0  0  0  0  0
  163.0780  213.4840  142.6000 C   0  0  0  0  0  1  0  0  0  0  0  0
  161.6590  213.0350  142.3110 C   0  0  1  0  0  0  0  0  0  0  0  0
  159.4370  212.6970  143.4090 C   0  0  1  0  0  3  0  0  0  0  0  0
  161.0190  213.9730  141.2440 C   0  0  2  0  0  3  0  0  0  0  0  0
  159.9710  209.8410  137.3200 O   0  0  0  0  0  0  0  0  0  0  0  0
  160.3590  212.6090  139.3700 C   0  0  1  0  0  3  0  0  0  0  0  0
  158.7770  213.7170  142.4980 C   0  0  0  0  0  2  0  0  0  0  0  0
  160.8880  213.0940  143.6260 C   0  0  0  0  0  2  0  0  0  0  0  0
  160.8470  210.7440  137.2840 C   0  0  0  0  0  0  0  0  0  0  0  0
  162.8420  213.3420  139.4780 C   0  0  0  0  0  0  0  0  0  0  0  0
  158.3990  212.6810  138.1130 C   0  0  2  0  0  3  0  0  0  0  0  0
  158.7750  212.6730  144.6350 O   0  0  0  0  0  1  0  0  0  0  0  0
  160.4830  212.0640  137.0110 O   0  0  0  0  0  0  0  0  0  0  0  0
  163.6970  214.4530  139.4930 C   0  0  0  0  0  3  0  0  0  0  0  0
  164.7500  211.9530  138.8540 C   0  0  0  0  0  3  0  0  0  0  0  0
  165.5820  213.0720  138.8850 C   0  0  0  0  0  3  0  0  0  0  0  0
  162.2650  210.4230  137.6230 C   0  0  0  0  0  2  0  0  0  0  0  0
  159.2130  212.6820  140.2790 N   0  0  1  0  0  0  0  0  0  0  0  0
  159.8720  212.9140  137.9840 C   0  0  2  0  0  3  0  0  0  0  0  0
  159.4950  213.8220  141.1520 C   0  0  2  0  0  3  0  0  0  0  0  0
  157.0280  212.0560  139.9030 C   0  0  0  0  0  1  0  0  0  0  0  0
  161.3900  213.6210  139.8090 C   0  0  2  0  0  3  0  0  0  0  0  0
  1 16  1  0  0  0  0
  2  8  1  0  0  0  0
  3 17  1  0  0  0  0
  4 20  1  0  0  0  0
  5 27  1  0  0  0  0
  5 24  1  0  0  0  0
  6  1  1  0  0  0  0
  8  7  1  1  0  0  0
  8 14  1  0  0  0  0
  9 14  1  0  0  0  0
  9 18  1  1  0  0  0
 10  8  1  0  0  0  0
 12 28  1  0  0  0  0
 12 24  1  0  0  0  0
 13  9  1  0  0  0  0
 15 11  2  0  0  0  0
 15 23  1  0  0  0  0
 16 20  2  0  0  0  0
 16 28  1  0  0  0  0
 17  5  1  0  0  0  0
 19 15  1  0  0  0  0
 19 25  1  0  0  0  0
 21 22  1  0  0  0  0
 21  1  2  0  0  0  0
 22  4  2  0  0  0  0
 23  6  1  0  0  0  0
 24 26  1  0  0  0  0
 25 17  1  0  0  0  0
 25 12  1  0  0  0  0
 26 10  1  0  0  0  0
 26 13  1  0  0  0  0
 28 10  1  0  0  0  0
M  END
>  <MODEL>
1

>  <REMARK>
 VINA RESULT:      -4.5      0.000      0.000
  Name = 
  0 active torsions:
  status: ('A' for Active; 'I' for Inactive)
                            x       y       z     vdW  Elec       q    Type
                         _______ _______ _______ _____ _____    ______ ____

>  <TORSDO>
F 0

$$$$
=
 OpenBabel11122414143D

 28 32  0  0  1  0  0  0  0  0999 V2000
  160.8470  209.0300  153.4800 C   0  0  0  0  0  0  0  0  0  0  0  0
  158.3310  210.8550  152.5840 F   0  0  0  0  0  0  0  0  0  0  0  0
  163.2070  212.1180  148.7070 O   0  0  0  0  0  1  0  0  0  0  0  0
  161.9770  209.8890  155.9040 C   0  0  0  0  0  3  0  0  0  0  0  0
  161.0060  212.5320  149.3690 N   0  0  0  0  0  0  0  0  0  0  0  0
  160.2500  208.4730  152.2210 C   0  0  0  0  0  2  0  0  0  0  0  0
  158.6360  211.7900  154.7300 C   0  0  0  0  0  1  0  0  0  0  0  0
  158.6440  212.0380  153.2340 C   0  0  1  0  0  0  0  0  0  0  0  0
  157.5260  213.3950  151.4550 C   0  0  1  0  0  3  0  0  0  0  0  0
  160.0420  212.5700  152.7990 C   0  0  2  0  0  3  0  0  0  0  0  0
  161.2310  208.2730  149.1000 O   0  0  0  0  0  0  0  0  0  0  0  0
  160.9280  211.0490  151.1540 C   0  0  1  0  0  3  0  0  0  0  0  0
  158.8330  214.0690  151.0790 C   0  0  0  0  0  2  0  0  0  0  0  0
  157.5520  213.0600  152.9370 C   0  0  0  0  0  2  0  0  0  0  0  0
  161.7350  208.4850  150.2330 C   0  0  0  0  0  0  0  0  0  0  0  0
  161.2240  210.3950  153.6440 C   0  0  0  0  0  0  0  0  0  0  0  0
  162.0330  211.5160  149.1570 C   0  0  2  0  0  3  0  0  0  0  0  0
  156.4660  214.2610  151.1940 O   0  0  0  0  0  1  0  0  0  0  0  0
  162.6560  209.5200  150.4090 O   0  0  0  0  0  0  0  0  0  0  0  0
  161.7930  210.7960  154.8610 C   0  0  0  0  0  3  0  0  0  0  0  0
  161.0360  208.1330  154.5400 C   0  0  0  0  0  3  0  0  0  0  0  0
  161.5960  208.5570  155.7450 C   0  0  0  0  0  3  0  0  0  0  0  0
  161.2820  207.6910  151.4130 C   0  0  0  0  0  2  0  0  0  0  0  0
  160.1870  212.0850  150.4320 N   0  0  1  0  0  0  0  0  0  0  0  0
  162.2680  210.8930  150.4970 C   0  0  2  0  0  3  0  0  0  0  0  0
  160.0390  213.1810  151.3910 C   0  0  2  0  0  3  0  0  0  0  0  0
  160.1760  212.5470  148.1750 C   0  0  0  0  0  1  0  0  0  0  0  0
  161.0840  211.4780  152.5930 C   0  0  2  0  0  3  0  0  0  0  0  0
  1 16  2  0  0  0  0
  1 21  1  0  0  0  0
  2  8  1  0  0  0  0
  3 17  1  0  0  0  0
  5 24  1  0  0  0  0
  6  1  1  0  0  0  0
  8  7  1  1  0  0  0
  9 18  1  1  0  0  0
  9 14  1  0  0  0  0
 10  8  1  0  0  0  0
 11 15  2  0  0  0  0
 12 28  1  0  0  0  0
 13 26  1  0  0  0  0
 13  9  1  0  0  0  0
 14  8  1  0  0  0  0
 15 19  1  0  0  0  0
 15 23  1  0  0  0  0
 16 20  1  0  0  0  0
 17  5  1  0  0  0  0
 17 25  1  0  0  0  0
 19 25  1  0  0  0  0
 20  4  2  0  0  0  0
 21 22  2  0  0  0  0
 22  4  1  0  0  0  0
 23  6  1  0  0  0  0
 24 12  1  0  0  0  0
 24 26  1  0  0  0  0
 25 12  1  0  0  0  0
 26 10  1  0  0  0  0
 27  5  1  0  0  0  0
 28 10  1  0  0  0  0
 28 16  1  0  0  0  0
M  END
>  <MODEL>
2

>  <REMARK>
 VINA RESULT:      -3.9      9.332     12.682
  Name = 
  0 active torsions:
  status: ('A' for Active; 'I' for Inactive)
                            x       y       z     vdW  Elec       q    Type
                         _______ _______ _______ _____ _____    ______ ____

>  <TORSDO>
F 0

$$$$
=
 OpenBabel11122414143D

 28 32  0  0  1  0  0  0  0  0999 V2000
  161.0850  209.7340  156.0960 C   0  0  0  0  0  0  0  0  0  0  0  0
  162.3820  210.5300  153.2410 F   0  0  0  0  0  0  0  0  0  0  0  0
  156.9490  213.7540  153.9450 O   0  0  0  0  0  1  0  0  0  0  0  0
  160.0520  207.1220  156.1060 C   0  0  0  0  0  3  0  0  0  0  0  0
  158.8120  213.2140  152.6430 N   0  0  0  0  0  0  0  0  0  0  0  0
  161.6790  211.1090  156.1830 C   0  0  0  0  0  2  0  0  0  0  0  0
  162.0070  208.2460  152.7790 C   0  0  0  0  0  1  0  0  0  0  0  0
  161.6750  209.6780  152.4070 C   0  0  1  0  0  0  0  0  0  0  0  0
  161.8140  211.3040  150.5110 C   0  0  1  0  0  3  0  0  0  0  0  0
  160.1400  209.9090  152.5290 C   0  0  2  0  0  3  0  0  0  0  0  0
  160.4510  214.1340  156.4810 O   0  0  0  0  0  0  0  0  0  0  0  0
  159.7900  211.6980  154.1050 C   0  0  1  0  0  3  0  0  0  0  0  0
  160.3040  211.4620  150.4730 C   0  0  0  0  0  2  0  0  0  0  0  0
  162.1510  209.8960  150.9740 C   0  0  0  0  0  2  0  0  0  0  0  0
  160.0730  212.9440  156.6430 C   0  0  0  0  0  0  0  0  0  0  0  0
  160.1720  209.3270  155.0790 C   0  0  0  0  0  0  0  0  0  0  0  0
  158.3190  213.5010  153.9870 C   0  0  2  0  0  3  0  0  0  0  0  0
  162.3340  211.5090  149.2350 O   0  0  0  0  0  1  0  0  0  0  0  0
  158.8260  212.5340  156.1670 O   0  0  0  0  0  0  0  0  0  0  0  0
  159.6660  208.0200  155.1120 C   0  0  0  0  0  3  0  0  0  0  0  0
  161.4640  208.8180  157.0850 C   0  0  0  0  0  3  0  0  0  0  0  0
  160.9530  207.5200  157.0920 C   0  0  0  0  0  3  0  0  0  0  0  0
  160.9940  211.9450  157.2610 C   0  0  0  0  0  2  0  0  0  0  0  0
  159.8860  212.3040  152.7760 N   0  0  1  0  0  0  0  0  0  0  0  0
  158.5770  212.2610  154.7860 C   0  0  2  0  0  3  0  0  0  0  0  0
  159.6730  211.1990  151.8400 C   0  0  2  0  0  3  0  0  0  0  0  0
  159.3700  214.4530  152.1270 C   0  0  0  0  0  1  0  0  0  0  0  0
  159.6690  210.2010  153.9470 C   0  0  2  0  0  3  0  0  0  0  0  0
  1  6  1  0  0  0  0
  1 21  1  0  0  0  0
  3 17  1  0  0  0  0
  4 22  1  0  0  0  0
  5 24  1  0  0  0  0
  5 17  1  0  0  0  0
  6 23  1  0  0  0  0
  8 10  1  0  0  0  0
  8  7  1  1  0  0  0
  8  2  1  0  0  0  0
  9 18  1  6  0  0  0
  9 14  1  0  0  0  0
 10 28  1  0  0  0  0
 11 15  2  0  0  0  0
 12 25  1  0  0  0  0
 13  9  1  0  0  0  0
 13 26  1  0  0  0  0
 14  8  1  0  0  0  0
 15 23  1  0  0  0  0
 16 20  1  0  0  0  0
 16  1  2  0  0  0  0
 17 25  1  0  0  0  0
 19 15  1  0  0  0  0
 20  4  2  0  0  0  0
 21 22  2  0  0  0  0
 24 12  1  0  0  0  0
 25 19  1  0  0  0  0
 26 10  1  0  0  0  0
 26 24  1  0  0  0  0
 27  5  1  0  0  0  0
 28 12  1  0  0  0  0
 28 16  1  0  0  0  0
M  END
>  <MODEL>
3

>  <REMARK>
 VINA RESULT:      -3.0     11.211     15.115
  Name = 
  0 active torsions:
  status: ('A' for Active; 'I' for Inactive)
                            x       y       z     vdW  Elec       q    Type
                         _______ _______ _______ _____ _____    ______ ____

>  <TORSDO>
F 0

$$$$
=
 OpenBabel11122414143D

 28 32  0  0  1  0  0  0  0  0999 V2000
  160.9510  208.4850  154.6000 C   0  0  0  0  0  0  0  0  0  0  0  0
  158.4240  210.4010  153.9620 F   0  0  0  0  0  0  0  0  0  0  0  0
  162.9550  211.5530  149.6550 O   0  0  0  0  0  1  0  0  0  0  0  0
  162.3320  209.2770  156.9150 C   0  0  0  0  0  3  0  0  0  0  0  0
  160.8410  212.0300  150.5240 N   0  0  0  0  0  0  0  0  0  0  0  0
  160.2210  207.9630  153.3980 C   0  0  0  0  0  2  0  0  0  0  0  0
  158.9600  211.2990  156.0770 C   0  0  0  0  0  1  0  0  0  0  0  0
  158.8370  211.5650  154.5900 C   0  0  1  0  0  0  0  0  0  0  0  0
  157.6020  212.9800  152.9370 C   0  0  1  0  0  3  0  0  0  0  0  0
  160.2050  212.0580  154.0310 C   0  0  2  0  0  3  0  0  0  0  0  0
  160.8980  207.7700  150.1960 O   0  0  0  0  0  0  0  0  0  0  0  0
  160.8810  210.5280  152.2950 C   0  0  1  0  0  3  0  0  0  0  0  0
  158.8900  213.6150  152.4460 C   0  0  0  0  0  2  0  0  0  0  0  0
  157.7550  212.6250  154.4070 C   0  0  0  0  0  2  0  0  0  0  0  0
  161.5130  207.9510  151.2790 C   0  0  0  0  0  0  0  0  0  0  0  0
  161.3870  209.8350  154.7410 C   0  0  0  0  0  0  0  0  0  0  0  0
  161.8090  210.9840  150.2070 C   0  0  2  0  0  3  0  0  0  0  0  0
  156.5520  213.8820  152.7840 O   0  0  0  0  0  1  0  0  0  0  0  0
  162.4800  208.9540  151.3770 O   0  0  0  0  0  0  0  0  0  0  0  0
  162.0810  210.2020  155.9020 C   0  0  0  0  0  3  0  0  0  0  0  0
  161.2090  207.5700  155.6290 C   0  0  0  0  0  3  0  0  0  0  0  0
  161.8930  207.9610  156.7800 C   0  0  0  0  0  3  0  0  0  0  0  0
  161.1460  207.1580  152.4890 C   0  0  0  0  0  2  0  0  0  0  0  0
  160.1110  211.5970  151.6550 N   0  0  1  0  0  0  0  0  0  0  0  0
  162.1480  210.3370  151.5140 C   0  0  2  0  0  3  0  0  0  0  0  0
  160.0890  212.6850  152.6350 C   0  0  2  0  0  3  0  0  0  0  0  0
  159.9040  212.0860  149.4140 C   0  0  0  0  0  1  0  0  0  0  0  0
  161.1850  210.9350  153.7180 C   0  0  2  0  0  3  0  0  0  0  0  0
  1 16  2  0  0  0  0
  1 21  1  0  0  0  0
  2  8  1  0  0  0  0
  3 17  1  0  0  0  0
  5 24  1  0  0  0  0
  6  1  1  0  0  0  0
  8  7  1  1  0  0  0
  9 18  1  1  0  0  0
  9 14  1  0  0  0  0
 10  8  1  0  0  0  0
 11 15  2  0  0  0  0
 12 28  1  0  0  0  0
 13 26  1  0  0  0  0
 13  9  1  0  0  0  0
 14  8  1  0  0  0  0
 15 19  1  0  0  0  0
 15 23  1  0  0  0  0
 16 20  1  0  0  0  0
 17  5  1  0  0  0  0
 17 25  1  0  0  0  0
 19 25  1  0  0  0  0
 20  4  2  0  0  0  0
 21 22  2  0  0  0  0
 22  4  1  0  0  0  0
 23  6  1  0  0  0  0
 24 12  1  0  0  0  0
 24 26  1  0  0  0  0
 25 12  1  0  0  0  0
 26 10  1  0  0  0  0
 27  5  1  0  0  0  0
 28 10  1  0  0  0  0
 28 16  1  0  0  0  0
M  END
>  <MODEL>
4

>  <REMARK>
 VINA RESULT:      -2.8     10.519     13.825
  Name = 
  0 active torsions:
  status: ('A' for Active; 'I' for Inactive)
                            x       y       z     vdW  Elec       q    Type
                         _______ _______ _______ _____ _____    ______ ____

>  <TORSDO>
F 0

$$$$
=
 OpenBabel11122414143D

 28 32  0  0  1  0  0  0  0  0999 V2000
  161.0410  209.3990  155.1600 C   0  0  0  0  0  0  0  0  0  0  0  0
  158.0240  210.5580  155.0220 F   0  0  0  0  0  0  0  0  0  0  0  0
  161.3030  212.9090  150.1100 O   0  0  0  0  0  1  0  0  0  0  0  0
  162.5220  210.5300  157.2610 C   0  0  0  0  0  3  0  0  0  0  0  0
  159.3120  212.7910  151.3260 N   0  0  0  0  0  0  0  0  0  0  0  0
  160.2880  208.7010  154.0650 C   0  0  0  0  0  2  0  0  0  0  0  0
  158.6420  211.5620  157.0660 C   0  0  0  0  0  1  0  0  0  0  0  0
  158.2080  211.7890  155.6310 C   0  0  1  0  0  0  0  0  0  0  0  0
  156.3840  212.8190  154.2640 C   0  0  1  0  0  3  0  0  0  0  0  0
  159.2820  212.6360  154.8860 C   0  0  2  0  0  3  0  0  0  0  0  0
  160.4520  208.7080  150.7910 O   0  0  0  0  0  0  0  0  0  0  0  0
  160.0460  211.3520  152.9940 C   0  0  1  0  0  3  0  0  0  0  0  0
  157.3550  213.7820  153.6050 C   0  0  0  0  0  2  0  0  0  0  0  0
  156.8670  212.5150  155.6720 C   0  0  0  0  0  2  0  0  0  0  0  0
  161.1660  209.0470  151.7700 C   0  0  0  0  0  0  0  0  0  0  0  0
  161.1170  210.8160  155.2930 C   0  0  0  0  0  0  0  0  0  0  0  0
  160.4580  212.0490  150.8100 C   0  0  2  0  0  3  0  0  0  0  0  0
  155.1200  213.4020  154.3230 O   0  0  0  0  0  1  0  0  0  0  0  0
  161.8320  210.2740  151.7610 O   0  0  0  0  0  0  0  0  0  0  0  0
  161.8690  211.3550  156.3460 C   0  0  0  0  0  3  0  0  0  0  0  0
  161.7010  208.5850  156.0900 C   0  0  0  0  0  3  0  0  0  0  0  0
  162.4360  209.1450  157.1350 C   0  0  0  0  0  3  0  0  0  0  0  0
  161.2310  208.1800  152.9840 C   0  0  0  0  0  2  0  0  0  0  0  0
  158.9230  212.1730  152.5370 N   0  0  1  0  0  0  0  0  0  0  0  0
  161.1700  211.5150  152.0140 C   0  0  2  0  0  3  0  0  0  0  0  0
  158.7730  213.2120  153.5580 C   0  0  2  0  0  3  0  0  0  0  0  0
  158.2240  212.5930  150.3830 C   0  0  0  0  0  1  0  0  0  0  0  0
  160.4610  211.8230  154.3680 C   0  0  2  0  0  3  0  0  0  0  0  0
  1 16  2  0  0  0  0
  1 21  1  0  0  0  0
  2  8  1  0  0  0  0
  3 17  1  0  0  0  0
  5 24  1  0  0  0  0
  6  1  1  0  0  0  0
  8 14  1  0  0  0  0
  8  7  1  1  0  0  0
  9 18  1  1  0  0  0
  9 14  1  0  0  0  0
 10  8  1  0  0  0  0
 11 15  2  0  0  0  0
 12 28  1  0  0  0  0
 13  9  1  0  0  0  0
 15 23  1  0  0  0  0
 16 20  1  0  0  0  0
 17  5  1  0  0  0  0
 17 25  1  0  0  0  0
 19 15  1  0  0  0  0
 19 25  1  0  0  0  0
 20  4  2  0  0  0  0
 21 22  2  0  0  0  0
 22  4  1  0  0  0  0
 23  6  1  0  0  0  0
 24 12  1  0  0  0  0
 24 26  1  0  0  0  0
 25 12  1  0  0  0  0
 26 13  1  0  0  0  0
 26 10  1  0  0  0  0
 27  5  1  0  0  0  0
 28 10  1  0  0  0  0
 28 16  1  0  0  0  0
M  END
>  <MODEL>
5

>  <REMARK>
 VINA RESULT:      -2.7     11.343     14.360
  Name = 
  0 active torsions:
  status: ('A' for Active; 'I' for Inactive)
                            x       y       z     vdW  Elec       q    Type
                         _______ _______ _______ _____ _____    ______ ____

>  <TORSDO>
F 0

$$$$
=
 OpenBabel11122414143D

 28 32  0  0  1  0  0  0  0  0999 V2000
  158.3650  213.1430  151.2030 C   0  0  0  0  0  0  0  0  0  0  0  0
  159.1130  210.1860  152.2830 F   0  0  0  0  0  0  0  0  0  0  0  0
  159.1370  214.1920  157.2190 O   0  0  0  0  0  1  0  0  0  0  0  0
  160.4430  214.2850  149.6980 C   0  0  0  0  0  3  0  0  0  0  0  0
  159.4580  212.0370  156.3780 N   0  0  0  0  0  0  0  0  0  0  0  0
  157.1880  212.5660  151.9330 C   0  0  0  0  0  2  0  0  0  0  0  0
  160.9930  210.4850  150.8870 C   0  0  0  0  0  1  0  0  0  0  0  0
  160.4960  210.2780  152.3050 C   0  0  1  0  0  0  0  0  0  0  0  0
  160.6430  208.6900  154.2320 C   0  0  1  0  0  3  0  0  0  0  0  0
  160.9730  211.4570  153.2050 C   0  0  2  0  0  3  0  0  0  0  0  0
  155.6850  213.2330  154.7690 O   0  0  0  0  0  0  0  0  0  0  0  0
  159.0140  212.5000  154.1460 C   0  0  1  0  0  3  0  0  0  0  0  0
  161.2550  209.7540  155.1250 C   0  0  0  0  0  2  0  0  0  0  0  0
  161.0630  208.9490  152.7950 C   0  0  0  0  0  2  0  0  0  0  0  0
  156.4890  213.7890  153.9760 C   0  0  0  0  0  0  0  0  0  0  0  0
  159.6840  213.2010  151.7420 C   0  0  0  0  0  0  0  0  0  0  0  0
  158.6430  213.2470  156.3210 C   0  0  2  0  0  3  0  0  0  0  0  0
  161.0970  207.4340  154.6280 O   0  0  0  0  0  1  0  0  0  0  0  0
  157.6150  214.4520  154.4690 O   0  0  0  0  0  0  0  0  0  0  0  0
  160.7010  213.7830  150.9730 C   0  0  0  0  0  3  0  0  0  0  0  0
  158.1250  213.6480  149.9190 C   0  0  0  0  0  3  0  0  0  0  0  0
  159.1560  214.2150  149.1690 C   0  0  0  0  0  3  0  0  0  0  0  0
  156.2920  213.6630  152.5020 C   0  0  0  0  0  2  0  0  0  0  0  0
  159.4480  211.4630  155.0850 N   0  0  1  0  0  0  0  0  0  0  0  0
  158.7810  213.7620  154.9220 C   0  0  2  0  0  3  0  0  0  0  0  0
  160.8280  211.1610  154.7030 C   0  0  2  0  0  3  0  0  0  0  0  0
  158.7690  211.1070  157.2570 C   0  0  0  0  0  1  0  0  0  0  0  0
  160.0970  212.6990  153.1110 C   0  0  2  0  0  3  0  0  0  0  0  0
  1 16  1  0  0  0  0
  1  6  1  0  0  0  0
  2  8  1  0  0  0  0
  4 20  1  0  0  0  0
  5 27  1  0  0  0  0
  6 23  1  0  0  0  0
  8  7  1  6  0  0  0
  8 14  1  0  0  0  0
  8 10  1  0  0  0  0
  9 18  1  1  0  0  0
  9 13  1  0  0  0  0
 10 26  1  0  0  0  0
 12 25  1  0  0  0  0
 12 24  1  0  0  0  0
 14  9  1  0  0  0  0
 15 19  1  0  0  0  0
 15 11  2  0  0  0  0
 16 28  1  0  0  0  0
 17  5  1  0  0  0  0
 17  3  1  0  0  0  0
 19 25  1  0  0  0  0
 20 16  2  0  0  0  0
 21  1  2  0  0  0  0
 22  4  2  0  0  0  0
 22 21  1  0  0  0  0
 23 15  1  0  0  0  0
 24  5  1  0  0  0  0
 25 17  1  0  0  0  0
 26 24  1  0  0  0  0
 26 13  1  0  0  0  0
 28 10  1  0  0  0  0
 28 12  1  0  0  0  0
M  END
>  <MODEL>
6

>  <REMARK>
 VINA RESULT:      -2.3     11.511     14.370
  Name = 
  0 active torsions:
  status: ('A' for Active; 'I' for Inactive)
                            x       y       z     vdW  Elec       q    Type
                         _______ _______ _______ _____ _____    ______ ____

>  <TORSDO>
F 0

$$$$
=
 OpenBabel11122414143D

 28 32  0  0  1  0  0  0  0  0999 V2000
  160.3660  211.0460  151.4670 C   0  0  0  0  0  0  0  0  0  0  0  0
  159.7230  207.8750  151.4980 F   0  0  0  0  0  0  0  0  0  0  0  0
  162.6170  209.3890  156.9510 O   0  0  0  0  0  1  0  0  0  0  0  0
  162.4300  211.6970  149.6770 C   0  0  0  0  0  3  0  0  0  0  0  0
  161.6670  207.7690  155.5620 N   0  0  0  0  0  0  0  0  0  0  0  0
  159.2100  210.7800  152.3860 C   0  0  0  0  0  2  0  0  0  0  0  0
  161.2180  207.8650  149.6710 C   0  0  0  0  0  1  0  0  0  0  0  0
  160.9460  207.3750  151.0800 C   0  0  1  0  0  0  0  0  0  0  0  0
  160.6240  205.2810  152.4110 C   0  0  1  0  0  3  0  0  0  0  0  0
  162.0980  207.8300  152.0250 C   0  0  2  0  0  3  0  0  0  0  0  0
  158.7720  210.9120  155.6320 O   0  0  0  0  0  0  0  0  0  0  0  0
  161.1220  209.1590  153.7830 C   0  0  1  0  0  3  0  0  0  0  0  0
  161.8330  205.5880  153.2770 C   0  0  0  0  0  2  0  0  0  0  0  0
  160.8530  205.8530  151.0220 C   0  0  0  0  0  2  0  0  0  0  0  0
  159.5900  211.3360  154.7740 C   0  0  0  0  0  0  0  0  0  0  0  0
  161.6110  210.3530  151.5350 C   0  0  0  0  0  0  0  0  0  0  0  0
  161.5670  209.1350  156.0700 C   0  0  2  0  0  3  0  0  0  0  0  0
  160.4550  203.9010  152.3220 O   0  0  0  0  0  1  0  0  0  0  0  0
  160.9630  211.2440  155.0100 O   0  0  0  0  0  0  0  0  0  0  0  0
  162.6270  210.7030  150.6350 C   0  0  0  0  0  3  0  0  0  0  0  0
  160.1850  212.0390  150.4950 C   0  0  0  0  0  3  0  0  0  0  0  0
  161.2080  212.3630  149.6050 C   0  0  0  0  0  3  0  0  0  0  0  0
  159.0970  211.8540  153.4640 C   0  0  0  0  0  2  0  0  0  0  0  0
  161.1420  207.7710  154.2490 N   0  0  1  0  0  0  0  0  0  0  0  0
  161.6910  210.0220  154.8710 C   0  0  2  0  0  3  0  0  0  0  0  0
  162.0960  207.0920  153.3700 C   0  0  2  0  0  3  0  0  0  0  0  0
  160.7760  206.9530  156.3710 C   0  0  0  0  0  1  0  0  0  0  0  0
  161.9560  209.2610  152.5280 C   0  0  2  0  0  3  0  0  0  0  0  0
  1 16  1  0  0  0  0
  1  6  1  0  0  0  0
  4 20  1  0  0  0  0
  5 17  1  0  0  0  0
  5 27  1  0  0  0  0
  6 23  1  0  0  0  0
  8  7  1  6  0  0  0
  8  2  1  0  0  0  0
  8 10  1  0  0  0  0
  9 18  1  6  0  0  0
  9 13  1  0  0  0  0
 10 28  1  0  0  0  0
 10 26  1  0  0  0  0
 12 24  1  0  0  0  0
 12 25  1  0  0  0  0
 13 26  1  0  0  0  0
 14  8  1  0  0  0  0
 14  9  1  0  0  0  0
 15 19  1  0  0  0  0
 15 11  2  0  0  0  0
 16 28  1  0  0  0  0
 17  3  1  0  0  0  0
 20 16  2  0  0  0  0
 21  1  2  0  0  0  0
 22  4  2  0  0  0  0
 22 21  1  0  0  0  0
 23 15  1  0  0  0  0
 24  5  1  0  0  0  0
 25 19  1  0  0  0  0
 25 17  1  0  0  0  0
 26 24  1  0  0  0  0
 28 12  1  0  0  0  0
M  END
>  <MODEL>
7

>  <REMARK>
 VINA RESULT:      -2.0     11.491     14.437
  Name = 
  0 active torsions:
  status: ('A' for Active; 'I' for Inactive)
                            x       y       z     vdW  Elec       q    Type
                         _______ _______ _______ _____ _____    ______ ____

>  <TORSDO>
F 0

$$$$
=
 OpenBabel11122414143D

 28 32  0  0  1  0  0  0  0  0999 V2000
  160.9870  211.4610  151.0240 C   0  0  0  0  0  0  0  0  0  0  0  0
  162.3500  210.5390  153.8090 F   0  0  0  0  0  0  0  0  0  0  0  0
  160.0810  205.3740  150.8790 O   0  0  0  0  0  1  0  0  0  0  0  0
  158.5710  212.8380  151.4240 C   0  0  0  0  0  3  0  0  0  0  0  0
  161.1510  206.3340  152.7200 N   0  0  0  0  0  0  0  0  0  0  0  0
  162.3030  210.7990  150.7400 C   0  0  0  0  0  2  0  0  0  0  0  0
  160.6300  211.8630  154.7360 C   0  0  0  0  0  1  0  0  0  0  0  0
  161.2280  210.4750  154.6200 C   0  0  1  0  0  0  0  0  0  0  0  0
  162.2360  208.6420  155.9920 C   0  0  1  0  0  3  0  0  0  0  0  0
  160.1660  209.4930  154.0400 C   0  0  2  0  0  3  0  0  0  0  0  0
  163.2050  207.9710  149.3490 O   0  0  0  0  0  0  0  0  0  0  0  0
  161.0680  208.5450  152.0170 C   0  0  1  0  0  3  0  0  0  0  0  0
  161.1420  207.6710  155.5870 C   0  0  0  0  0  2  0  0  0  0  0  0
  161.6630  210.0490  156.0180 C   0  0  0  0  0  2  0  0  0  0  0  0
  162.1860  208.7070  149.4100 C   0  0  0  0  0  0  0  0  0  0  0  0
  159.9650  210.8840  151.8340 C   0  0  0  0  0  0  0  0  0  0  0  0
  161.0080  206.3410  151.2670 C   0  0  2  0  0  3  0  0  0  0  0  0
  162.7070  208.3090  157.2600 O   0  0  0  0  0  1  0  0  0  0  0  0
  160.9270  208.1440  149.6300 O   0  0  0  0  0  0  0  0  0  0  0  0
  158.7660  211.5880  152.0110 C   0  0  0  0  0  3  0  0  0  0  0  0
  160.7740  212.7190  150.4450 C   0  0  0  0  0  3  0  0  0  0  0  0
  159.5760  213.4050  150.6430 C   0  0  0  0  0  3  0  0  0  0  0  0
  162.3300  210.1910  149.3400 C   0  0  0  0  0  2  0  0  0  0  0  0
  161.4470  207.6580  153.1180 N   0  0  1  0  0  0  0  0  0  0  0  0
  160.4920  207.7020  150.9180 C   0  0  2  0  0  3  0  0  0  0  0  0
  160.5530  208.0190  154.2190 C   0  0  2  0  0  3  0  0  0  0  0  0
  162.3250  205.5300  153.0230 C   0  0  0  0  0  1  0  0  0  0  0  0
  160.0460  209.5360  152.5230 C   0  0  2  0  0  3  0  0  0  0  0  0
  1 16  1  0  0  0  0
  2  8  1  0  0  0  0
  3 17  1  0  0  0  0
  4 20  1  0  0  0  0
  5 27  1  0  0  0  0
  5 24  1  0  0  0  0
  6  1  1  0  0  0  0
  8  7  1  1  0  0  0
  8 14  1  0  0  0  0
  9 14  1  0  0  0  0
  9 18  1  1  0  0  0
 10 26  1  0  0  0  0
 10  8  1  0  0  0  0
 11 15  2  0  0  0  0
 12 28  1  0  0  0  0
 12 24  1  0  0  0  0
 13  9  1  0  0  0  0
 15 19  1  0  0  0  0
 16 20  2  0  0  0  0
 16 28  1  0  0  0  0
 17  5  1  0  0  0  0
 19 25  1  0  0  0  0
 21 22  1  0  0  0  0
 21  1  2  0  0  0  0
 22  4  2  0  0  0  0
 23 15  1  0  0  0  0
 23  6  1  0  0  0  0
 24 26  1  0  0  0  0
 25 17  1  0  0  0  0
 25 12  1  0  0  0  0
 26 13  1  0  0  0  0
 28 10  1  0  0  0  0
M  END
>  <MODEL>
8

>  <REMARK>
 VINA RESULT:      -1.6     10.863     13.470
  Name = 
  0 active torsions:
  status: ('A' for Active; 'I' for Inactive)
                            x       y       z     vdW  Elec       q    Type
                         _______ _______ _______ _____ _____    ______ ____

>  <TORSDO>
F 0

$$$$
