=
 OpenBabel11122413313D

 31 35  0  0  1  0  0  0  0  0999 V2000
  161.6660  210.2910  155.2420 C   0  0  2  0  0  3  0  0  0  0  0  0
  162.2100  209.4750  151.4960 C   0  0  2  0  0  3  0  0  0  0  0  0
  161.6900  208.3550  150.6150 C   0  0  0  0  0  0  0  0  0  0  0  0
  160.8780  206.0820  150.3410 C   0  0  0  0  0  0  0  0  0  0  0  0
  161.5160  209.5100  152.8670 C   0  0  1  0  0  3  0  0  0  0  0  0
  160.2820  210.9230  155.1300 C   0  0  0  0  0  2  0  0  0  0  0  0
  161.3340  207.1150  151.1640 C   0  0  0  0  0  3  0  0  0  0  0  0
  160.7530  211.3500  150.7830 N   0  0  0  0  0  0  0  0  0  0  0  0
  162.5010  211.0810  156.2280 C   0  0  0  0  0  1  0  0  0  0  0  0
  162.0240  209.7420  148.6390 O   0  0  0  0  0  0  0  0  0  0  0  0
  160.5230  204.8920  150.8820 F   0  0  0  0  0  0  0  0  0  0  0  0
  160.0560  211.4240  152.0660 C   0  0  0  0  0  2  0  0  0  0  0  0
  162.1340  210.8520  150.7990 C   0  0  2  0  0  3  0  0  0  0  0  0
  162.3540  210.2900  153.8810 C   0  0  0  0  0  2  0  0  0  0  0  0
  160.7850  206.2770  148.9610 C   0  0  0  0  0  3  0  0  0  0  0  0
  160.0830  210.0650  152.7610 C   0  0  2  0  0  3  0  0  0  0  0  0
  159.4210  210.1400  154.1390 C   0  0  0  0  0  2  0  0  0  0  0  0
  162.7190  210.7380  149.3880 C   0  0  0  0  0  2  0  0  0  0  0  0
  161.6310  208.5310  149.2170 C   0  0  0  0  0  0  0  0  0  0  0  0
  161.1620  207.4990  148.3990 C   0  0  0  0  0  3  0  0  0  0  0  0
  160.0320  214.1200  151.1460 C   0  0  0  0  0  1  0  0  0  0  0  0
  160.0390  213.4260  149.8190 C   0  0  0  0  0  0  0  0  0  0  0  0
  160.3250  212.1620  149.7140 N   0  0  0  0  0  0  0  0  0  0  0  0
  157.7460  212.6400  146.9050 C   0  0  0  0  0  0  0  0  0  0  0  0
  158.0710  214.4350  148.6110 C   0  0  0  0  0  2  0  0  0  0  0  0
  161.5280  213.4650  146.8290 S   0  0  0  0  0  0  0  0  0  0  0  0
  156.8790  211.9610  146.1180 F   0  0  0  0  0  0  0  0  0  0  0  0
  157.2600  213.2030  148.2100 C   0  0  0  0  0  2  0  0  0  0  0  0
  159.9720  213.4320  147.3300 C   0  0  0  0  0  0  0  0  0  0  0  0
  159.5740  214.1490  148.5890 C   0  0  2  0  0  3  0  0  0  0  0  0
  158.9940  212.7280  146.5520 N   0  0  0  0  0  0  0  0  0  0  0  0
  1  9  1  1  0  0  0
  2  3  1  6  0  0  0
  2  5  1  0  0  0  0
  3  7  1  0  0  0  0
  4 11  1  0  0  0  0
  4  7  2  0  0  0  0
  5 14  1  1  0  0  0
  6  1  1  0  0  0  0
  8 13  1  0  0  0  0
  8 12  1  0  0  0  0
 10 19  1  0  0  0  0
 10 18  1  0  0  0  0
 13 18  1  6  0  0  0
 13  2  1  0  0  0  0
 14  1  1  0  0  0  0
 15  4  1  0  0  0  0
 16 12  1  1  0  0  0
 16  5  1  0  0  0  0
 16 17  1  0  0  0  0
 17  6  1  0  0  0  0
 19  3  2  0  0  0  0
 20 15  2  0  0  0  0
 20 19  1  0  0  0  0
 22 21  1  0  0  0  0
 23 22  2  0  0  0  0
 23  8  1  0  0  0  0
 24 28  1  0  0  0  0
 26 29  2  0  0  0  0
 27 24  1  0  0  0  0
 28 25  1  0  0  0  0
 29 30  1  0  0  0  0
 30 25  1  0  0  0  0
 30 22  1  1  0  0  0
 31 24  2  0  0  0  0
 31 29  1  0  0  0  0
M  END
>  <MODEL>
1

>  <REMARK>
 VINA RESULT:      -6.1      0.000      0.000
  Name = 
  2 active torsions:
  status: ('A' for Active; 'I' for Inactive)
    1  A    between atoms: C_5  and  C_30
    2  A    between atoms: N_10  and  N_16
                            x       y       z     vdW  Elec       q    Type
                         _______ _______ _______ _____ _____    ______ ____

>  <TORSDO>
F 2

$$$$
=
 OpenBabel11122413313D

 31 35  0  0  1  0  0  0  0  0999 V2000
  162.5890  207.0480  139.2610 C   0  0  2  0  0  3  0  0  0  0  0  0
  161.8320  210.7660  140.0370 C   0  0  2  0  0  3  0  0  0  0  0  0
  162.5010  212.0520  139.5920 C   0  0  0  0  0  0  0  0  0  0  0  0
  164.4690  213.2650  138.8440 C   0  0  0  0  0  0  0  0  0  0  0  0
  162.3490  209.5410  139.2650 C   0  0  1  0  0  3  0  0  0  0  0  0
  161.9600  206.9810  137.8730 C   0  0  0  0  0  2  0  0  0  0  0  0
  163.8560  212.0700  139.2310 C   0  0  0  0  0  3  0  0  0  0  0  0
  159.8230  210.7540  138.5850 N   0  0  0  0  0  0  0  0  0  0  0  0
  162.2660  205.7790  140.0230 C   0  0  0  0  0  1  0  0  0  0  0  0
  160.4380  213.2810  140.0110 O   0  0  0  0  0  0  0  0  0  0  0  0
  165.7750  213.2710  138.4830 F   0  0  0  0  0  0  0  0  0  0  0  0
  160.2680  209.5940  137.8140 C   0  0  0  0  0  2  0  0  0  0  0  0
  160.2910  210.8540  139.9730 C   0  0  2  0  0  3  0  0  0  0  0  0
  162.0460  208.2500  140.0270 C   0  0  0  0  0  2  0  0  0  0  0  0
  163.7350  214.4530  138.8270 C   0  0  0  0  0  3  0  0  0  0  0  0
  161.7920  209.5030  137.8290 C   0  0  2  0  0  3  0  0  0  0  0  0
  162.2740  208.2540  137.0870 C   0  0  0  0  0  2  0  0  0  0  0  0
  159.8310  212.1540  140.6400 C   0  0  0  0  0  2  0  0  0  0  0  0
  161.7780  213.2620  139.6100 C   0  0  0  0  0  0  0  0  0  0  0  0
  162.3920  214.4530  139.2100 C   0  0  0  0  0  3  0  0  0  0  0  0
  157.2030  209.5790  138.8820 C   0  0  0  0  0  1  0  0  0  0  0  0
  157.4450  210.9640  138.3640 C   0  0  0  0  0  0  0  0  0  0  0  0
  158.6480  211.4300  138.2030 N   0  0  0  0  0  0  0  0  0  0  0  0
  154.3010  212.4140  139.9090 C   0  0  0  0  0  0  0  0  0  0  0  0
  156.2500  213.1770  138.5460 C   0  0  0  0  0  2  0  0  0  0  0  0
  154.5960  209.8630  137.0120 S   0  0  0  0  0  0  0  0  0  0  0  0
  153.3740  212.7280  140.8440 F   0  0  0  0  0  0  0  0  0  0  0  0
  155.6340  213.1070  139.9430 C   0  0  0  0  0  2  0  0  0  0  0  0
  154.9800  211.0830  138.0300 C   0  0  0  0  0  0  0  0  0  0  0  0
  156.2940  211.7980  137.8820 C   0  0  2  0  0  3  0  0  0  0  0  0
  154.0500  211.4710  139.0510 N   0  0  0  0  0  0  0  0  0  0  0  0
  1  9  1  1  0  0  0
  1 14  1  0  0  0  0
  2  3  1  6  0  0  0
  3 19  1  0  0  0  0
  4  7  1  0  0  0  0
  5 14  1  1  0  0  0
  5  2  1  0  0  0  0
  6  1  1  0  0  0  0
  7  3  2  0  0  0  0
  8 13  1  0  0  0  0
 10 18  1  0  0  0  0
 11  4  1  0  0  0  0
 12 16  1  0  0  0  0
 12  8  1  0  0  0  0
 13  2  1  0  0  0  0
 13 18  1  6  0  0  0
 15  4  2  0  0  0  0
 15 20  1  0  0  0  0
 16 17  1  1  0  0  0
 16  5  1  0  0  0  0
 17  6  1  0  0  0  0
 19 10  1  0  0  0  0
 20 19  2  0  0  0  0
 22 21  1  0  0  0  0
 23 22  2  0  0  0  0
 23  8  1  0  0  0  0
 24 28  1  0  0  0  0
 24 27  1  0  0  0  0
 25 28  1  0  0  0  0
 26 29  2  0  0  0  0
 29 31  1  0  0  0  0
 30 29  1  0  0  0  0
 30 22  1  1  0  0  0
 30 25  1  0  0  0  0
 31 24  2  0  0  0  0
M  END
>  <MODEL>
2

>  <REMARK>
 VINA RESULT:      -4.4     10.997     12.675
  Name = 
  2 active torsions:
  status: ('A' for Active; 'I' for Inactive)
    1  A    between atoms: C_5  and  C_30
    2  A    between atoms: N_10  and  N_16
                            x       y       z     vdW  Elec       q    Type
                         _______ _______ _______ _____ _____    ______ ____

>  <TORSDO>
F 2

$$$$
=
 OpenBabel11122413313D

 31 35  0  0  1  0  0  0  0  0999 V2000
  161.6490  204.7600  144.5860 C   0  0  2  0  0  3  0  0  0  0  0  0
  160.4740  204.7540  148.2760 C   0  0  2  0  0  3  0  0  0  0  0  0
  160.7800  203.8270  149.4370 C   0  0  0  0  0  0  0  0  0  0  0  0
  161.3960  201.6370  150.2910 C   0  0  0  0  0  0  0  0  0  0  0  0
  161.3760  204.4840  147.0600 C   0  0  1  0  0  3  0  0  0  0  0  0
  163.0350  205.3610  144.7980 C   0  0  0  0  0  2  0  0  0  0  0  0
  161.1390  202.4890  149.2140 C   0  0  0  0  0  3  0  0  0  0  0  0
  161.9160  206.6930  148.8330 N   0  0  0  0  0  0  0  0  0  0  0  0
  161.0290  205.3520  143.3370 C   0  0  0  0  0  1  0  0  0  0  0  0
  160.2270  205.6020  151.0130 O   0  0  0  0  0  0  0  0  0  0  0  0
  161.7560  200.3510  150.0650 F   0  0  0  0  0  0  0  0  0  0  0  0
  162.8090  206.4800  147.6940 C   0  0  0  0  0  2  0  0  0  0  0  0
  160.5260  206.2420  148.6870 C   0  0  2  0  0  3  0  0  0  0  0  0
  160.7570  205.0610  145.7860 C   0  0  0  0  0  2  0  0  0  0  0  0
  161.2830  202.1110  151.5990 C   0  0  0  0  0  3  0  0  0  0  0  0
  162.8060  205.0070  147.2900 C   0  0  2  0  0  3  0  0  0  0  0  0
  163.6790  204.7760  146.0550 C   0  0  0  0  0  2  0  0  0  0  0  0
  159.7210  206.4400  149.9750 C   0  0  0  0  0  2  0  0  0  0  0  0
  160.6300  204.2860  150.7610 C   0  0  0  0  0  0  0  0  0  0  0  0
  160.8990  203.4330  151.8350 C   0  0  0  0  0  3  0  0  0  0  0  0
  161.5260  209.4980  148.2750 C   0  0  0  0  0  1  0  0  0  0  0  0
  162.0150  208.9670  149.5880 C   0  0  0  0  0  0  0  0  0  0  0  0
  162.2210  207.6960  149.7730 N   0  0  0  0  0  0  0  0  0  0  0  0
  160.3200  210.5110  152.6060 C   0  0  0  0  0  0  0  0  0  0  0  0
  162.4080  209.2540  152.0610 C   0  0  0  0  0  2  0  0  0  0  0  0
  161.8270  212.3010  149.5210 S   0  0  0  0  0  0  0  0  0  0  0  0
  159.3630  210.7850  153.5240 F   0  0  0  0  0  0  0  0  0  0  0  0
  160.9940  209.1690  152.6340 C   0  0  0  0  0  2  0  0  0  0  0  0
  161.5830  211.1660  150.6730 C   0  0  0  0  0  0  0  0  0  0  0  0
  162.4150  209.9140  150.6800 C   0  0  2  0  0  3  0  0  0  0  0  0
  160.5830  211.3820  151.6780 N   0  0  0  0  0  0  0  0  0  0  0  0
  1  9  1  6  0  0  0
  1  6  1  0  0  0  0
  1 14  1  0  0  0  0
  2 13  1  0  0  0  0
  2  3  1  1  0  0  0
  3 19  1  0  0  0  0
  4 15  2  0  0  0  0
  5 14  1  6  0  0  0
  5 16  1  0  0  0  0
  5  2  1  0  0  0  0
  6 17  1  0  0  0  0
  7  3  2  0  0  0  0
  7  4  1  0  0  0  0
  8 23  1  0  0  0  0
 11  4  1  0  0  0  0
 12  8  1  0  0  0  0
 13  8  1  0  0  0  0
 13 18  1  1  0  0  0
 15 20  1  0  0  0  0
 16 17  1  6  0  0  0
 16 12  1  0  0  0  0
 18 10  1  0  0  0  0
 19 10  1  0  0  0  0
 19 20  2  0  0  0  0
 21 22  1  0  0  0  0
 22 23  2  0  0  0  0
 24 28  1  0  0  0  0
 24 27  1  0  0  0  0
 25 28  1  0  0  0  0
 26 29  2  0  0  0  0
 29 30  1  0  0  0  0
 29 31  1  0  0  0  0
 30 22  1  6  0  0  0
 30 25  1  0  0  0  0
 31 24  2  0  0  0  0
M  END
>  <MODEL>
3

>  <REMARK>
 VINA RESULT:      -4.1      3.361      7.099
  Name = 
  2 active torsions:
  status: ('A' for Active; 'I' for Inactive)
    1  A    between atoms: C_5  and  C_30
    2  A    between atoms: N_10  and  N_16
                            x       y       z     vdW  Elec       q    Type
                         _______ _______ _______ _____ _____    ______ ____

>  <TORSDO>
F 2

$$$$
=
 OpenBabel11122413313D

 31 35  0  0  1  0  0  0  0  0999 V2000
  161.5210  207.0140  151.9280 C   0  0  2  0  0  3  0  0  0  0  0  0
  160.5150  209.4450  154.7700 C   0  0  2  0  0  3  0  0  0  0  0  0
  161.3280  210.3980  155.6260 C   0  0  0  0  0  0  0  0  0  0  0  0
  163.4210  211.0280  156.6860 C   0  0  0  0  0  0  0  0  0  0  0  0
  161.3320  208.8670  153.6030 C   0  0  1  0  0  3  0  0  0  0  0  0
  161.6500  208.0350  150.8020 C   0  0  0  0  0  2  0  0  0  0  0  0
  162.6870  210.1570  155.8770 C   0  0  0  0  0  3  0  0  0  0  0  0
  159.4710  211.0260  153.1700 N   0  0  0  0  0  0  0  0  0  0  0  0
  160.8560  205.7600  151.3990 C   0  0  0  0  0  1  0  0  0  0  0  0
  159.3350  211.7350  156.0470 O   0  0  0  0  0  0  0  0  0  0  0  0
  164.7370  210.7960  156.9110 F   0  0  0  0  0  0  0  0  0  0  0  0
  160.2260  210.5180  152.0260 C   0  0  0  0  0  2  0  0  0  0  0  0
  159.2030  210.0860  154.2660 C   0  0  2  0  0  3  0  0  0  0  0  0
  160.6840  207.5900  153.0660 C   0  0  0  0  0  2  0  0  0  0  0  0
  162.8000  212.1390  157.2610 C   0  0  0  0  0  3  0  0  0  0  0  0
  161.5480  209.9120  152.4920 C   0  0  2  0  0  3  0  0  0  0  0  0
  162.3200  209.3090  151.3150 C   0  0  0  0  0  2  0  0  0  0  0  0
  158.4870  210.7620  155.4390 C   0  0  0  0  0  2  0  0  0  0  0  0
  160.6990  211.4990  156.2420 C   0  0  0  0  0  0  0  0  0  0  0  0
  161.4410  212.3740  157.0410 C   0  0  0  0  0  3  0  0  0  0  0  0
  160.0890  213.1410  151.3060 C   0  0  0  0  0  1  0  0  0  0  0  0
  158.8480  213.1020  152.1450 C   0  0  0  0  0  0  0  0  0  0  0  0
  158.6390  212.1510  153.0070 N   0  0  0  0  0  0  0  0  0  0  0  0
  155.0870  213.4930  152.4180 C   0  0  0  0  0  0  0  0  0  0  0  0
  157.1560  214.4460  153.4430 C   0  0  0  0  0  2  0  0  0  0  0  0
  157.3860  214.4090  149.4410 S   0  0  0  0  0  0  0  0  0  0  0  0
  153.7850  213.1640  152.5810 F   0  0  0  0  0  0  0  0  0  0  0  0
  156.0030  213.4570  153.6090 C   0  0  0  0  0  2  0  0  0  0  0  0
  156.9000  214.1200  150.9750 C   0  0  0  0  0  0  0  0  0  0  0  0
  157.8790  214.2470  152.1080 C   0  0  2  0  0  3  0  0  0  0  0  0
  155.5350  213.7610  151.2270 N   0  0  0  0  0  0  0  0  0  0  0  0
  1  9  1  6  0  0  0
  1 14  1  0  0  0  0
  2  3  1  6  0  0  0
  3  7  2  0  0  0  0
  3 19  1  0  0  0  0
  4 11  1  0  0  0  0
  4 15  2  0  0  0  0
  5 14  1  6  0  0  0
  5  2  1  0  0  0  0
  6 17  1  0  0  0  0
  6  1  1  0  0  0  0
  7  4  1  0  0  0  0
  8 13  1  0  0  0  0
 10 19  1  0  0  0  0
 12 16  1  0  0  0  0
 12  8  1  0  0  0  0
 13  2  1  0  0  0  0
 13 18  1  1  0  0  0
 16 17  1  6  0  0  0
 16  5  1  0  0  0  0
 18 10  1  0  0  0  0
 19 20  2  0  0  0  0
 20 15  1  0  0  0  0
 21 22  1  0  0  0  0
 22 23  2  0  0  0  0
 23  8  1  0  0  0  0
 24 27  1  0  0  0  0
 24 28  1  0  0  0  0
 25 28  1  0  0  0  0
 26 29  2  0  0  0  0
 29 31  1  0  0  0  0
 29 30  1  0  0  0  0
 30 22  1  1  0  0  0
 30 25  1  0  0  0  0
 31 24  2  0  0  0  0
M  END
>  <MODEL>
4

>  <REMARK>
 VINA RESULT:      -3.3      3.525      5.829
  Name = 
  2 active torsions:
  status: ('A' for Active; 'I' for Inactive)
    1  A    between atoms: C_5  and  C_30
    2  A    between atoms: N_10  and  N_16
                            x       y       z     vdW  Elec       q    Type
                         _______ _______ _______ _____ _____    ______ ____

>  <TORSDO>
F 2

$$$$
=
 OpenBabel11122413313D

 31 35  0  0  1  0  0  0  0  0999 V2000
  160.8490  213.8880  144.4250 C   0  0  2  0  0  3  0  0  0  0  0  0
  159.9340  214.4080  148.1520 C   0  0  2  0  0  3  0  0  0  0  0  0
  158.6260  214.2640  148.9070 C   0  0  0  0  0  0  0  0  0  0  0  0
  156.1970  214.3110  148.9590 C   0  0  0  0  0  0  0  0  0  0  0  0
  159.8480  213.8530  146.7210 C   0  0  1  0  0  3  0  0  0  0  0  0
  160.9350  212.3650  144.4320 C   0  0  0  0  0  2  0  0  0  0  0  0
  157.3970  214.4230  148.2500 C   0  0  0  0  0  3  0  0  0  0  0  0
  161.0950  212.3220  148.8220 N   0  0  0  0  0  0  0  0  0  0  0  0
  161.9710  214.4530  143.5800 C   0  0  0  0  0  1  0  0  0  0  0  0
  159.8510  213.9250  150.9860 O   0  0  0  0  0  0  0  0  0  0  0  0
  155.0140  214.4530  148.3140 F   0  0  0  0  0  0  0  0  0  0  0  0
  161.0360  211.7440  147.4810 C   0  0  0  0  0  2  0  0  0  0  0  0
  161.1230  213.7870  148.9190 C   0  0  2  0  0  3  0  0  0  0  0  0
  160.9650  214.4260  145.8480 C   0  0  0  0  0  2  0  0  0  0  0  0
  156.2170  214.0510  150.3310 C   0  0  0  0  0  3  0  0  0  0  0  0
  159.8450  212.3130  146.7120 C   0  0  2  0  0  3  0  0  0  0  0  0
  159.8090  211.7740  145.2800 C   0  0  0  0  0  2  0  0  0  0  0  0
  161.0930  214.2660  150.3740 C   0  0  0  0  0  2  0  0  0  0  0  0
  158.6380  214.0410  150.2990 C   0  0  0  0  0  0  0  0  0  0  0  0
  157.4360  213.9170  151.0000 C   0  0  0  0  0  3  0  0  0  0  0  0
  161.6480  209.5020  148.5550 C   0  0  0  0  0  1  0  0  0  0  0  0
  161.9120  210.2920  149.8010 C   0  0  0  0  0  0  0  0  0  0  0  0
  161.5990  211.5510  149.8870 N   0  0  0  0  0  0  0  0  0  0  0  0
  161.0570  207.1160  151.6850 C   0  0  0  0  0  0  0  0  0  0  0  0
  163.0650  208.2500  150.7270 C   0  0  0  0  0  2  0  0  0  0  0  0
  160.8720  210.7740  152.9380 S   0  0  0  0  0  0  0  0  0  0  0  0
  160.4490  205.9460  151.9930 F   0  0  0  0  0  0  0  0  0  0  0  0
  162.0150  207.1580  150.5290 C   0  0  0  0  0  2  0  0  0  0  0  0
  161.3470  209.4660  152.0800 C   0  0  0  0  0  0  0  0  0  0  0  0
  162.4170  209.6030  151.0340 C   0  0  2  0  0  3  0  0  0  0  0  0
  160.7450  208.1910  152.3460 N   0  0  0  0  0  0  0  0  0  0  0  0
  1  9  1  6  0  0  0
  1  6  1  0  0  0  0
  1 14  1  0  0  0  0
  2  3  1  1  0  0  0
  2 13  1  0  0  0  0
  3 19  1  0  0  0  0
  4 15  2  0  0  0  0
  5 14  1  6  0  0  0
  5  2  1  0  0  0  0
  6 17  1  0  0  0  0
  7  3  2  0  0  0  0
  7  4  1  0  0  0  0
  8 13  1  0  0  0  0
  8 23  1  0  0  0  0
 11  4  1  0  0  0  0
 12  8  1  0  0  0  0
 13 18  1  1  0  0  0
 15 20  1  0  0  0  0
 16 17  1  6  0  0  0
 16  5  1  0  0  0  0
 16 12  1  0  0  0  0
 18 10  1  0  0  0  0
 19 10  1  0  0  0  0
 19 20  2  0  0  0  0
 21 22  1  0  0  0  0
 22 23  2  0  0  0  0
 24 27  1  0  0  0  0
 24 31  2  0  0  0  0
 25 30  1  0  0  0  0
 28 25  1  0  0  0  0
 28 24  1  0  0  0  0
 29 31  1  0  0  0  0
 29 26  2  0  0  0  0
 30 22  1  6  0  0  0
 30 29  1  0  0  0  0
M  END
>  <MODEL>
5

>  <REMARK>
 VINA RESULT:      -3.2      2.523      7.710
  Name = 
  2 active torsions:
  status: ('A' for Active; 'I' for Inactive)
    1  A    between atoms: C_5  and  C_30
    2  A    between atoms: N_10  and  N_16
                            x       y       z     vdW  Elec       q    Type
                         _______ _______ _______ _____ _____    ______ ____

>  <TORSDO>
F 2

$$$$
