=
 OpenBabel11122414393D

 34 40  0  0  1  0  0  0  0  0999 V2000
  161.0230  204.6200  151.3250 C   0  0  0  0  0  0  0  0  0  0  0  0
  160.8360  205.5740  153.6470 C   0  0  0  0  0  3  0  0  0  0  0  0
  161.6730  205.6290  144.7820 N   0  0  0  0  0  0  0  0  0  0  0  0
  161.2430  203.9030  149.0000 C   0  0  0  0  0  0  0  0  0  0  0  0
  160.6950  205.4670  147.1750 C   0  0  2  0  0  3  0  0  0  0  0  0
  159.4690  206.1830  145.2810 O   0  0  0  0  0  0  0  0  0  0  0  0
  161.4390  205.8060  143.4610 O   0  0  0  0  0  1  0  0  0  0  0  0
  163.0720  204.0360  145.9910 C   0  0  0  0  0  2  0  0  0  0  0  0
  160.9650  207.0270  151.7270 C   0  0  0  0  0  0  0  0  0  0  0  0
  162.1020  209.9700  151.9600 C   0  0  0  0  0  2  0  0  0  0  0  0
  161.1840  206.6420  148.0120 C   0  0  0  0  0  2  0  0  0  0  0  0
  162.8340  204.3370  147.3320 O   0  0  0  0  0  0  0  0  0  0  0  0
  161.0430  207.3560  150.4270 C   0  0  0  0  0  0  0  0  0  0  0  0
  160.7630  207.0340  154.1100 C   0  0  0  0  0  3  0  0  0  0  0  0
  161.4560  204.1830  147.5410 C   0  0  1  0  0  3  0  0  0  0  0  0
  163.0360  205.3260  145.1950 C   0  0  0  0  0  2  0  0  0  0  0  0
  162.1640  208.8220  152.9650 C   0  0  2  0  0  3  0  0  0  0  0  0
  161.1360  204.9180  149.8800 C   0  0  1  0  0  3  0  0  0  0  0  0
  160.5820  205.7760  145.7070 C   0  0  0  0  0  0  0  0  0  0  0  0
  161.1070  206.3030  149.4390 N   0  0  0  0  0  0  0  0  0  0  0  0
  161.1720  202.1990  150.7060 C   0  0  0  0  0  3  0  0  0  0  0  0
  162.3090  209.4990  150.5270 C   0  0  0  0  0  2  0  0  0  0  0  0
  161.2830  202.5430  149.4570 N   0  0  0  0  0  0  0  0  0  0  0  0
  161.0630  208.7970  150.0040 C   0  0  0  0  0  2  0  0  0  0  0  0
  160.8930  207.9620  152.8840 C   0  0  1  0  0  3  0  0  0  0  0  0
  160.9770  203.1990  151.8130 C   0  0  0  0  0  3  0  0  0  0  0  0
  160.9440  205.6510  152.1730 C   0  0  0  0  0  0  0  0  0  0  0  0
  162.3040  209.3650  154.2460 O   0  0  0  0  0  0  0  0  0  0  0  0
  161.8790  210.6900  154.1200 C   0  0  0  0  0  2  0  0  0  0  0  0
  158.8090  211.1370  156.3670 C   0  0  0  0  0  2  0  0  0  0  0  0
  160.9300  209.9750  156.3080 C   0  0  0  0  0  2  0  0  0  0  0  0
  161.2520  211.1580  155.4190 C   0  0  2  0  0  3  0  0  0  0  0  0
  159.8230  210.4230  157.2300 C   0  0  0  0  0  2  0  0  0  0  0  0
  159.7060  212.0500  155.0720 S   0  0  0  0  0  0  0  0  0  0  0  0
  1 26  1  0  0  0  0
  1 27  2  0  0  0  0
  2 14  2  0  0  0  0
  3 16  1  0  0  0  0
  3 19  1  0  0  0  0
  4 23  2  0  0  0  0
  5 15  1  0  0  0  0
  5 11  1  1  0  0  0
  6 19  2  0  0  0  0
  7  3  1  0  0  0  0
  8 12  1  0  0  0  0
  9 27  1  0  0  0  0
  9 25  1  0  0  0  0
 10 17  1  0  0  0  0
 11 20  1  0  0  0  0
 13  9  2  0  0  0  0
 15 12  1  1  0  0  0
 15  4  1  0  0  0  0
 16  8  1  0  0  0  0
 17 28  1  1  0  0  0
 18  4  1  6  0  0  0
 18  1  1  0  0  0  0
 19  5  1  0  0  0  0
 20 18  1  0  0  0  0
 20 13  1  0  0  0  0
 21 26  2  0  0  0  0
 22 10  1  0  0  0  0
 23 21  1  0  0  0  0
 24 13  1  0  0  0  0
 24 22  1  0  0  0  0
 25 17  1  0  0  0  0
 25 14  1  1  0  0  0
 27  2  1  0  0  0  0
 29 28  1  0  0  0  0
 30 33  1  0  0  0  0
 31 33  1  0  0  0  0
 32 29  1  6  0  0  0
 32 31  1  0  0  0  0
 34 32  1  0  0  0  0
 34 30  1  0  0  0  0
M  END
>  <MODEL>
1

>  <REMARK>
 VINA RESULT:      -8.2      0.000      0.000
  Name = 
  3 active torsions:
  status: ('A' for Active; 'I' for Inactive)
    1  A    between atoms: C_17  and  O_28
    2  A    between atoms: O_28  and  C_29
    3  A    between atoms: C_29  and  C_32
                            x       y       z     vdW  Elec       q    Type
                         _______ _______ _______ _____ _____    ______ ____

>  <TORSDO>
F 3

$$$$
=
 OpenBabel11122414393D

 34 40  0  0  1  0  0  0  0  0999 V2000
  161.1970  208.6790  152.1080 C   0  0  0  0  0  0  0  0  0  0  0  0
  161.2090  206.2270  152.6780 C   0  0  0  0  0  3  0  0  0  0  0  0
  161.8240  213.4730  147.5390 N   0  0  0  0  0  0  0  0  0  0  0  0
  161.2050  210.9980  151.3400 C   0  0  0  0  0  0  0  0  0  0  0  0
  162.3520  211.5940  149.2410 C   0  0  2  0  0  3  0  0  0  0  0  0
  163.9870  212.7240  147.9550 O   0  0  0  0  0  0  0  0  0  0  0  0
  162.2970  214.4530  146.7340 O   0  0  0  0  0  1  0  0  0  0  0  0
  159.9470  213.4090  149.0980 C   0  0  0  0  0  2  0  0  0  0  0  0
  161.6960  206.9710  150.4360 C   0  0  0  0  0  0  0  0  0  0  0  0
  161.1800  205.1080  147.9320 C   0  0  0  0  0  2  0  0  0  0  0  0
  161.9940  210.2400  148.6420 C   0  0  0  0  0  2  0  0  0  0  0  0
  160.0260  212.1340  149.6600 O   0  0  0  0  0  0  0  0  0  0  0  0
  161.8970  207.8500  149.4400 C   0  0  0  0  0  0  0  0  0  0  0  0
  161.5120  205.0110  151.7940 C   0  0  0  0  0  3  0  0  0  0  0  0
  161.2900  212.0360  150.2600 C   0  0  1  0  0  3  0  0  0  0  0  0
  160.3800  213.3230  147.6480 C   0  0  0  0  0  2  0  0  0  0  0  0
  160.7190  204.9420  149.3790 C   0  0  2  0  0  3  0  0  0  0  0  0
  161.3810  209.6940  151.0480 C   0  0  1  0  0  3  0  0  0  0  0  0
  162.7600  212.6190  148.2200 C   0  0  0  0  0  0  0  0  0  0  0  0
  161.7700  209.2630  149.7150 N   0  0  0  0  0  0  0  0  0  0  0  0
  160.6430  210.5740  153.6480 C   0  0  0  0  0  3  0  0  0  0  0  0
  161.1100  206.5550  147.4630 C   0  0  0  0  0  2  0  0  0  0  0  0
  160.8080  211.4020  152.6590 N   0  0  0  0  0  0  0  0  0  0  0  0
  162.2470  207.3720  148.0600 C   0  0  0  0  0  2  0  0  0  0  0  0
  161.7780  205.4870  150.3500 C   0  0  1  0  0  3  0  0  0  0  0  0
  160.8650  209.0920  153.5150 C   0  0  0  0  0  3  0  0  0  0  0  0
  161.3560  207.3930  151.7770 C   0  0  0  0  0  0  0  0  0  0  0  0
  160.4940  203.5820  149.6150 O   0  0  0  0  0  0  0  0  0  0  0  0
  161.4140  202.9200  148.7970 C   0  0  0  0  0  2  0  0  0  0  0  0
  161.1660  200.4450  145.8840 C   0  0  0  0  0  2  0  0  0  0  0  0
  161.6210  200.4980  148.2590 C   0  0  0  0  0  2  0  0  0  0  0  0
  160.7510  201.7310  148.1300 C   0  0  2  0  0  3  0  0  0  0  0  0
  161.2370  199.5830  147.1230 C   0  0  0  0  0  2  0  0  0  0  0  0
  160.5050  202.0730  146.3610 S   0  0  0  0  0  0  0  0  0  0  0  0
  1 26  1  0  0  0  0
  3 16  1  0  0  0  0
  3 19  1  0  0  0  0
  4 23  2  0  0  0  0
  5 11  1  6  0  0  0
  5 15  1  0  0  0  0
  6 19  2  0  0  0  0
  7  3  1  0  0  0  0
  8 12  1  0  0  0  0
  9 27  1  0  0  0  0
 10 17  1  0  0  0  0
 11 20  1  0  0  0  0
 13 20  1  0  0  0  0
 13  9  2  0  0  0  0
 14  2  2  0  0  0  0
 15 12  1  6  0  0  0
 15  4  1  0  0  0  0
 16  8  1  0  0  0  0
 17 28  1  1  0  0  0
 17 25  1  0  0  0  0
 18  4  1  1  0  0  0
 18  1  1  0  0  0  0
 19  5  1  0  0  0  0
 20 18  1  0  0  0  0
 22 10  1  0  0  0  0
 22 24  1  0  0  0  0
 23 21  1  0  0  0  0
 24 13  1  0  0  0  0
 25  9  1  0  0  0  0
 25 14  1  1  0  0  0
 26 21  2  0  0  0  0
 27  1  2  0  0  0  0
 27  2  1  0  0  0  0
 29 28  1  0  0  0  0
 30 34  1  0  0  0  0
 30 33  1  0  0  0  0
 32 31  1  0  0  0  0
 32 29  1  6  0  0  0
 33 31  1  0  0  0  0
 34 32  1  0  0  0  0
M  END
>  <MODEL>
2

>  <REMARK>
 VINA RESULT:      -7.3      4.220      8.014
  Name = 
  3 active torsions:
  status: ('A' for Active; 'I' for Inactive)
    1  A    between atoms: C_17  and  O_28
    2  A    between atoms: O_28  and  C_29
    3  A    between atoms: C_29  and  C_32
                            x       y       z     vdW  Elec       q    Type
                         _______ _______ _______ _____ _____    ______ ____

>  <TORSDO>
F 3

$$$$
=
 OpenBabel11122414393D

 34 40  0  0  1  0  0  0  0  0999 V2000
  160.6610  210.5460  152.1150 C   0  0  0  0  0  0  0  0  0  0  0  0
  160.7690  208.4130  153.4480 C   0  0  0  0  0  3  0  0  0  0  0  0
  161.6300  213.7220  146.3510 N   0  0  0  0  0  0  0  0  0  0  0  0
  160.6130  212.4940  150.6430 C   0  0  0  0  0  0  0  0  0  0  0  0
  162.0260  212.5430  148.6230 C   0  0  2  0  0  3  0  0  0  0  0  0
  163.7520  213.4080  147.2520 O   0  0  0  0  0  0  0  0  0  0  0  0
  162.1470  214.4530  145.3360 O   0  0  0  0  0  1  0  0  0  0  0  0
  159.5430  213.9170  147.6010 C   0  0  0  0  0  2  0  0  0  0  0  0
  161.5420  208.4770  151.1650 C   0  0  0  0  0  0  0  0  0  0  0  0
  161.5670  205.8790  149.3590 C   0  0  0  0  0  2  0  0  0  0  0  0
  161.8700  211.0370  148.4560 C   0  0  0  0  0  2  0  0  0  0  0  0
  159.6290  212.9000  148.5520 O   0  0  0  0  0  0  0  0  0  0  0  0
  161.8300  209.0200  149.9700 C   0  0  0  0  0  0  0  0  0  0  0  0
  161.2980  207.0290  153.0520 C   0  0  0  0  0  3  0  0  0  0  0  0
  160.7870  213.1480  149.3030 C   0  0  1  0  0  3  0  0  0  0  0  0
  160.2020  213.4370  146.3230 C   0  0  0  0  0  2  0  0  0  0  0  0
  160.8990  206.1170  150.7130 C   0  0  2  0  0  3  0  0  0  0  0  0
  160.9310  211.1960  150.8140 C   0  0  1  0  0  3  0  0  0  0  0  0
  162.5100  213.2420  147.3820 C   0  0  0  0  0  0  0  0  0  0  0  0
  161.5550  210.4230  149.7530 N   0  0  0  0  0  0  0  0  0  0  0  0
  159.7310  212.7430  152.8740 C   0  0  0  0  0  3  0  0  0  0  0  0
  161.4610  207.0900  148.4400 C   0  0  0  0  0  2  0  0  0  0  0  0
  159.9860  213.2370  151.6980 N   0  0  0  0  0  0  0  0  0  0  0  0
  162.4260  208.1830  148.8750 C   0  0  0  0  0  2  0  0  0  0  0  0
  161.7490  207.0610  151.5770 C   0  0  1  0  0  3  0  0  0  0  0  0
  160.0830  211.3320  153.2590 C   0  0  0  0  0  3  0  0  0  0  0  0
  160.9660  209.2500  152.2430 C   0  0  0  0  0  0  0  0  0  0  0  0
  160.7440  204.8810  151.3480 O   0  0  0  0  0  0  0  0  0  0  0  0
  161.5450  204.0000  150.6170 C   0  0  0  0  0  2  0  0  0  0  0  0
  161.1720  200.9990  148.2660 C   0  0  0  0  0  2  0  0  0  0  0  0
  160.8500  201.6090  150.5850 C   0  0  0  0  0  2  0  0  0  0  0  0
  160.6770  202.9630  149.9290 C   0  0  2  0  0  3  0  0  0  0  0  0
  160.4830  200.5800  149.5440 C   0  0  0  0  0  2  0  0  0  0  0  0
  161.1600  202.8170  148.1810 S   0  0  0  0  0  0  0  0  0  0  0  0
  1 27  2  0  0  0  0
  1 26  1  0  0  0  0
  3 19  1  0  0  0  0
  4 23  2  0  0  0  0
  5 11  1  6  0  0  0
  5 15  1  0  0  0  0
  6 19  2  0  0  0  0
  7  3  1  0  0  0  0
  8 12  1  0  0  0  0
  9 25  1  0  0  0  0
  9 27  1  0  0  0  0
 10 17  1  0  0  0  0
 11 20  1  0  0  0  0
 13  9  2  0  0  0  0
 14  2  2  0  0  0  0
 15 12  1  6  0  0  0
 15  4  1  0  0  0  0
 16  3  1  0  0  0  0
 16  8  1  0  0  0  0
 17 28  1  1  0  0  0
 17 25  1  0  0  0  0
 18  4  1  1  0  0  0
 18  1  1  0  0  0  0
 19  5  1  0  0  0  0
 20 13  1  0  0  0  0
 20 18  1  0  0  0  0
 21 26  2  0  0  0  0
 22 24  1  0  0  0  0
 22 10  1  0  0  0  0
 23 21  1  0  0  0  0
 24 13  1  0  0  0  0
 25 14  1  1  0  0  0
 27  2  1  0  0  0  0
 29 28  1  0  0  0  0
 30 33  1  0  0  0  0
 32 31  1  0  0  0  0
 32 29  1  1  0  0  0
 33 31  1  0  0  0  0
 34 30  1  0  0  0  0
 34 32  1  0  0  0  0
M  END
>  <MODEL>
3

>  <REMARK>
 VINA RESULT:      -7.0      4.466      7.728
  Name = 
  3 active torsions:
  status: ('A' for Active; 'I' for Inactive)
    1  A    between atoms: C_17  and  O_28
    2  A    between atoms: O_28  and  C_29
    3  A    between atoms: C_29  and  C_32
                            x       y       z     vdW  Elec       q    Type
                         _______ _______ _______ _____ _____    ______ ____

>  <TORSDO>
F 3

$$$$
=
 OpenBabel11122414393D

 34 40  0  0  1  0  0  0  0  0999 V2000
  160.9700  203.3530  150.4400 C   0  0  0  0  0  0  0  0  0  0  0  0
  160.7290  203.8220  152.9010 C   0  0  0  0  0  3  0  0  0  0  0  0
  161.6520  205.6590  144.2370 N   0  0  0  0  0  0  0  0  0  0  0  0
  161.2360  203.1180  148.0230 C   0  0  0  0  0  0  0  0  0  0  0  0
  160.6560  204.9960  146.5350 C   0  0  2  0  0  3  0  0  0  0  0  0
  159.4260  206.0360  144.7990 O   0  0  0  0  0  0  0  0  0  0  0  0
  161.4260  206.0870  142.9730 O   0  0  0  0  0  1  0  0  0  0  0  0
  163.0900  203.9000  145.1290 C   0  0  0  0  0  2  0  0  0  0  0  0
  160.8290  205.6300  151.3090 C   0  0  0  0  0  0  0  0  0  0  0  0
  161.8680  208.5010  152.1380 C   0  0  0  0  0  2  0  0  0  0  0  0
  161.0980  205.9950  147.5950 C   0  0  0  0  0  2  0  0  0  0  0  0
  162.8290  203.9210  146.5000 O   0  0  0  0  0  0  0  0  0  0  0  0
  160.9090  206.2120  150.1010 C   0  0  0  0  0  0  0  0  0  0  0  0
  160.6040  205.1580  153.6430 C   0  0  0  0  0  3  0  0  0  0  0  0
  161.4550  203.6880  146.6520 C   0  0  1  0  0  3  0  0  0  0  0  0
  163.0200  205.3210  144.6040 C   0  0  0  0  0  2  0  0  0  0  0  0
  161.9560  207.1780  152.8970 C   0  0  2  0  0  3  0  0  0  0  0  0
  161.0880  203.9350  149.0850 C   0  0  1  0  0  3  0  0  0  0  0  0
  160.5470  205.5860  145.1550 C   0  0  0  0  0  0  0  0  0  0  0  0
  161.0180  205.3780  148.9250 N   0  0  0  0  0  0  0  0  0  0  0  0
  161.2050  201.1080  149.3560 C   0  0  0  0  0  3  0  0  0  0  0  0
  162.1040  208.3290  150.6430 C   0  0  0  0  0  2  0  0  0  0  0  0
  161.3160  201.6970  148.2020 N   0  0  0  0  0  0  0  0  0  0  0  0
  160.8870  207.7080  149.9720 C   0  0  0  0  0  2  0  0  0  0  0  0
  160.7150  206.3140  152.6260 C   0  0  1  0  0  3  0  0  0  0  0  0
  160.9650  201.8620  150.6360 C   0  0  0  0  0  3  0  0  0  0  0  0
  160.8490  204.1930  151.4730 C   0  0  0  0  0  0  0  0  0  0  0  0
  162.0660  207.4610  154.2620 O   0  0  0  0  0  0  0  0  0  0  0  0
  160.8280  208.0050  154.6140 C   0  0  0  0  0  2  0  0  0  0  0  0
  162.9630  209.7690  157.2600 C   0  0  0  0  0  2  0  0  0  0  0  0
  161.9810  210.1610  155.0850 C   0  0  0  0  0  2  0  0  0  0  0  0
  161.0220  209.1210  155.6240 C   0  0  2  0  0  3  0  0  0  0  0  0
  162.5750  210.8560  156.2850 C   0  0  0  0  0  2  0  0  0  0  0  0
  161.7170  208.4460  157.1630 S   0  0  0  0  0  0  0  0  0  0  0  0
  1 26  1  0  0  0  0
  1 27  2  0  0  0  0
  2 14  2  0  0  0  0
  3 16  1  0  0  0  0
  3 19  1  0  0  0  0
  4 23  2  0  0  0  0
  5 15  1  0  0  0  0
  5 11  1  1  0  0  0
  6 19  2  0  0  0  0
  7  3  1  0  0  0  0
  8 12  1  0  0  0  0
  9 27  1  0  0  0  0
  9 25  1  0  0  0  0
 10 17  1  0  0  0  0
 11 20  1  0  0  0  0
 13  9  2  0  0  0  0
 15 12  1  1  0  0  0
 15  4  1  0  0  0  0
 16  8  1  0  0  0  0
 17 28  1  1  0  0  0
 18  4  1  6  0  0  0
 18  1  1  0  0  0  0
 19  5  1  0  0  0  0
 20 18  1  0  0  0  0
 20 13  1  0  0  0  0
 21 26  2  0  0  0  0
 22 10  1  0  0  0  0
 23 21  1  0  0  0  0
 24 13  1  0  0  0  0
 24 22  1  0  0  0  0
 25 17  1  0  0  0  0
 25 14  1  1  0  0  0
 27  2  1  0  0  0  0
 28 29  1  0  0  0  0
 31 32  1  0  0  0  0
 31 33  1  0  0  0  0
 32 29  1  6  0  0  0
 32 34  1  0  0  0  0
 33 30  1  0  0  0  0
 34 30  1  0  0  0  0
M  END
>  <MODEL>
4

>  <REMARK>
 VINA RESULT:      -6.5      1.412      1.829
  Name = 
  3 active torsions:
  status: ('A' for Active; 'I' for Inactive)
    1  A    between atoms: C_17  and  O_28
    2  A    between atoms: O_28  and  C_29
    3  A    between atoms: C_29  and  C_32
                            x       y       z     vdW  Elec       q    Type
                         _______ _______ _______ _____ _____    ______ ____

>  <TORSDO>
F 3

$$$$
=
 OpenBabel11122414393D

 34 40  0  0  1  0  0  0  0  0999 V2000
  161.5750  208.4680  149.6190 C   0  0  0  0  0  0  0  0  0  0  0  0
  161.4440  206.7220  147.8100 C   0  0  0  0  0  3  0  0  0  0  0  0
  161.0350  210.0600  156.0550 N   0  0  0  0  0  0  0  0  0  0  0  0
  161.6720  209.9960  151.5220 C   0  0  0  0  0  0  0  0  0  0  0  0
  160.4710  209.4440  153.6030 C   0  0  2  0  0  3  0  0  0  0  0  0
  158.8520  209.8160  155.2890 O   0  0  0  0  0  0  0  0  0  0  0  0
  160.5860  210.4800  157.2610 O   0  0  0  0  0  1  0  0  0  0  0  0
  162.9710  210.7110  154.7190 C   0  0  0  0  0  2  0  0  0  0  0  0
  160.9040  206.1690  150.0940 C   0  0  0  0  0  0  0  0  0  0  0  0
  161.1990  203.2150  151.1890 C   0  0  0  0  0  2  0  0  0  0  0  0
  160.7220  207.9590  153.3740 C   0  0  0  0  0  2  0  0  0  0  0  0
  162.8410  209.9530  153.5550 O   0  0  0  0  0  0  0  0  0  0  0  0
  160.7120  206.3810  151.4070 C   0  0  0  0  0  0  0  0  0  0  0  0
  161.0300  205.2470  147.8910 C   0  0  0  0  0  3  0  0  0  0  0  0
  161.6010  210.2880  152.9920 C   0  0  1  0  0  3  0  0  0  0  0  0
  162.4710  209.8860  155.8890 C   0  0  0  0  0  2  0  0  0  0  0  0
  161.7110  203.8250  149.8850 C   0  0  2  0  0  3  0  0  0  0  0  0
  161.4060  208.7580  151.0590 C   0  0  0  0  0  0  0  0  0  0  0  0
  160.0810  209.7810  155.0160 C   0  0  0  0  0  0  0  0  0  0  0  0
  160.9350  207.7050  151.9430 N   0  0  0  0  0  0  0  0  0  0  0  0
  162.3080  210.8470  149.3560 C   0  0  0  0  0  3  0  0  0  0  0  0
  161.3340  204.1700  152.3680 C   0  0  0  0  0  2  0  0  0  0  0  0
  162.1500  211.0190  150.6360 N   0  0  0  0  0  0  0  0  0  0  0  0
  160.2740  205.2600  152.3050 C   0  0  0  0  0  2  0  0  0  0  0  0
  160.7310  204.8850  149.3600 C   0  0  1  0  0  3  0  0  0  0  0  0
  161.9920  209.5500  148.6620 C   0  0  0  0  0  2  0  0  0  0  0  0
  161.3270  207.2230  149.1980 C   0  0  0  0  0  0  0  0  0  0  0  0
  161.8660  202.7970  148.9500 O   0  0  0  0  0  0  0  0  0  0  0  0
  161.0550  201.7610  149.4210 C   0  0  0  0  0  2  0  0  0  0  0  0
  160.8310  201.0860  145.6570 C   0  0  0  0  0  2  0  0  0  0  0  0
  161.5820  200.0370  147.7040 C   0  0  0  0  0  2  0  0  0  0  0  0
  160.5130  200.9570  148.2550 C   0  0  2  0  0  3  0  0  0  0  0  0
  161.2060  199.7560  146.2700 C   0  0  0  0  0  2  0  0  0  0  0  0
  159.9820  202.0780  146.9260 S   0  0  0  0  0  0  0  0  0  0  0  0
  1 18  1  0  0  0  0
  2 14  2  0  0  0  0
  2 27  1  0  0  0  0
  3  7  1  0  0  0  0
  5 11  1  1  0  0  0
  5 19  1  0  0  0  0
  8 16  1  0  0  0  0
  9 13  2  0  0  0  0
 10 22  1  0  0  0  0
 12  8  1  0  0  0  0
 13 20  1  0  0  0  0
 13 24  1  0  0  0  0
 15  4  1  6  0  0  0
 15 12  1  0  0  0  0
 15  5  1  0  0  0  0
 16  3  1  0  0  0  0
 17 28  1  6  0  0  0
 17 10  1  0  0  0  0
 18  4  2  0  0  0  0
 18 20  1  0  0  0  0
 19  6  2  0  0  0  0
 19  3  1  0  0  0  0
 20 11  1  0  0  0  0
 21 23  2  0  0  0  0
 23  4  1  0  0  0  0
 24 22  1  0  0  0  0
 25 14  1  6  0  0  0
 25 17  1  0  0  0  0
 25  9  1  0  0  0  0
 26 21  1  0  0  0  0
 26  1  1  0  0  0  0
 27  1  2  0  0  0  0
 27  9  1  0  0  0  0
 28 29  1  0  0  0  0
 30 33  1  0  0  0  0
 30 34  1  0  0  0  0
 31 32  1  0  0  0  0
 32 29  1  1  0  0  0
 33 31  1  0  0  0  0
 34 32  1  0  0  0  0
M  END
>  <MODEL>
5

>  <REMARK>
 VINA RESULT:      -5.8      3.440      8.947
  Name = 
  3 active torsions:
  status: ('A' for Active; 'I' for Inactive)
    1  A    between atoms: C_17  and  O_28
    2  A    between atoms: O_28  and  C_29
    3  A    between atoms: C_29  and  C_32
                            x       y       z     vdW  Elec       q    Type
                         _______ _______ _______ _____ _____    ______ ____

>  <TORSDO>
F 3

$$$$
=
 OpenBabel11122414393D

 34 40  0  0  1  0  0  0  0  0999 V2000
  160.9230  207.4160  153.8170 C   0  0  0  0  0  0  0  0  0  0  0  0
  162.1890  206.0990  152.0860 C   0  0  0  0  0  3  0  0  0  0  0  0
  158.5380  213.2610  155.9160 N   0  0  0  0  0  0  0  0  0  0  0  0
  159.7100  208.8700  155.3600 C   0  0  0  0  0  0  0  0  0  0  0  0
  160.1310  211.2990  155.3480 C   0  0  2  0  0  3  0  0  0  0  0  0
  160.8290  213.3440  156.3160 O   0  0  0  0  0  0  0  0  0  0  0  0
  158.3670  214.4530  156.5330 O   0  0  0  0  0  1  0  0  0  0  0  0
  157.1560  211.2510  155.8420 C   0  0  0  0  0  2  0  0  0  0  0  0
  161.9480  208.4900  151.8790 C   0  0  0  0  0  0  0  0  0  0  0  0
  162.0560  209.9200  149.0590 C   0  0  0  0  0  2  0  0  0  0  0  0
  160.3900  211.2640  153.8480 C   0  0  0  0  0  2  0  0  0  0  0  0
  157.9140  210.3540  155.0880 O   0  0  0  0  0  0  0  0  0  0  0  0
  161.5640  209.7300  152.2260 C   0  0  0  0  0  0  0  0  0  0  0  0
  162.9170  206.5750  150.8220 C   0  0  0  0  0  3  0  0  0  0  0  0
  159.1370  210.2000  155.7560 C   0  0  1  0  0  3  0  0  0  0  0  0
  157.3750  212.6470  155.2920 C   0  0  0  0  0  2  0  0  0  0  0  0
  161.9340  208.4340  149.3920 C   0  0  2  0  0  3  0  0  0  0  0  0
  160.4500  208.7530  154.2400 C   0  0  1  0  0  3  0  0  0  0  0  0
  159.8520  212.6770  155.8820 C   0  0  0  0  0  0  0  0  0  0  0  0
  160.8120  209.9150  153.4470 N   0  0  0  0  0  0  0  0  0  0  0  0
  159.7410  206.5040  155.8270 C   0  0  0  0  0  3  0  0  0  0  0  0
  161.2350  210.7940  149.9990 C   0  0  0  0  0  2  0  0  0  0  0  0
  159.3510  207.7090  156.1230 N   0  0  0  0  0  0  0  0  0  0  0  0
  161.9090  210.9060  151.3590 C   0  0  0  0  0  2  0  0  0  0  0  0
  162.7210  208.0980  150.6680 C   0  0  1  0  0  3  0  0  0  0  0  0
  160.6290  206.2000  154.6510 C   0  0  0  0  0  3  0  0  0  0  0  0
  161.6340  207.3320  152.6880 C   0  0  0  0  0  0  0  0  0  0  0  0
  162.4250  207.6990  148.3090 O   0  0  0  0  0  0  0  0  0  0  0  0
  161.2960  207.1010  147.7420 C   0  0  0  0  0  2  0  0  0  0  0  0
  161.4110  203.9190  145.6130 C   0  0  0  0  0  2  0  0  0  0  0  0
  160.4530  206.1400  145.6060 C   0  0  0  0  0  2  0  0  0  0  0  0
  161.6790  206.3830  146.4610 C   0  0  2  0  0  3  0  0  0  0  0  0
  160.7770  204.9620  144.7210 C   0  0  0  0  0  2  0  0  0  0  0  0
  162.4290  204.7750  146.8560 S   0  0  0  0  0  0  0  0  0  0  0  0
  1 26  1  0  0  0  0
  2 27  1  0  0  0  0
  3  7  1  0  0  0  0
  4 15  1  0  0  0  0
  4 23  2  0  0  0  0
  5 11  1  6  0  0  0
  5 15  1  0  0  0  0
  5 19  1  0  0  0  0
  9 13  2  0  0  0  0
  9 27  1  0  0  0  0
 10 17  1  0  0  0  0
 10 22  1  0  0  0  0
 12  8  1  0  0  0  0
 13 20  1  0  0  0  0
 14  2  2  0  0  0  0
 15 12  1  6  0  0  0
 16  8  1  0  0  0  0
 16  3  1  0  0  0  0
 17 28  1  6  0  0  0
 17 25  1  0  0  0  0
 18  1  1  1  0  0  0
 18  4  1  0  0  0  0
 19  3  1  0  0  0  0
 19  6  2  0  0  0  0
 20 11  1  0  0  0  0
 20 18  1  0  0  0  0
 21 23  1  0  0  0  0
 22 24  1  0  0  0  0
 24 13  1  0  0  0  0
 25 14  1  1  0  0  0
 25  9  1  0  0  0  0
 26 21  2  0  0  0  0
 27  1  2  0  0  0  0
 29 28  1  0  0  0  0
 30 34  1  0  0  0  0
 31 32  1  0  0  0  0
 32 34  1  0  0  0  0
 32 29  1  1  0  0  0
 33 31  1  0  0  0  0
 33 30  1  0  0  0  0
M  END
>  <MODEL>
6

>  <REMARK>
 VINA RESULT:      -5.7      3.809      8.921
  Name = 
  3 active torsions:
  status: ('A' for Active; 'I' for Inactive)
    1  A    between atoms: C_17  and  O_28
    2  A    between atoms: O_28  and  C_29
    3  A    between atoms: C_29  and  C_32
                            x       y       z     vdW  Elec       q    Type
                         _______ _______ _______ _____ _____    ______ ____

>  <TORSDO>
F 3

$$$$
