=
 OpenBabel11122412473D

 32 38  0  0  1  0  0  0  0  0999 V2000
  159.3030  211.1940  154.2190 N   0  0  2  0  0  0  0  0  0  0  0  0
  161.3490  207.0830  152.2190 C   0  0  0  0  0  0  0  0  0  0  0  0
  162.1410  208.9120  147.7600 C   0  0  0  0  0  3  0  0  0  0  0  0
  161.8910  207.6640  147.1940 C   0  0  0  0  0  3  0  0  0  0  0  0
  160.9710  204.6540  152.4530 C   0  0  1  0  0  3  0  0  0  0  0  0
  160.8090  203.3630  151.7800 C   0  0  2  0  0  3  0  0  0  0  0  0
  160.9290  208.7270  154.1150 C   0  0  1  0  0  3  0  0  0  0  0  0
  161.7970  209.5360  151.9400 C   0  0  0  0  0  3  0  0  0  0  0  0
  160.8260  201.9850  150.0160 C   0  0  0  0  0  0  0  0  0  0  0  0
  161.5860  211.2530  153.6680 C   0  0  0  0  0  2  0  0  0  0  0  0
  162.0590  209.0760  149.1420 C   0  0  0  0  0  3  0  0  0  0  0  0
  161.6330  208.1780  151.3680 C   0  0  0  0  0  0  0  0  0  0  0  0
  161.7300  207.9950  149.9810 C   0  0  0  0  0  0  0  0  0  0  0  0
  161.1220  205.6370  150.2370 C   0  0  0  0  0  0  0  0  0  0  0  0
  161.4710  201.4340  150.9890 N   0  0  0  0  0  0  0  0  0  0  0  0
  158.8810  210.0220  154.9740 C   0  0  0  0  0  2  0  0  0  0  0  0
  161.5100  209.8110  153.2110 C   0  0  0  0  0  0  0  0  0  0  0  0
  161.4980  202.3110  152.0750 N   0  0  0  0  0  2  0  0  0  0  0  0
  159.3890  208.7700  154.2310 C   0  0  0  0  0  2  0  0  0  0  0  0
  160.6280  211.4210  154.8270 C   0  0  1  0  0  3  0  0  0  0  0  0
  161.5590  206.5840  148.0110 C   0  0  0  0  0  3  0  0  0  0  0  0
  161.4770  206.7280  149.4120 C   0  0  0  0  0  0  0  0  0  0  0  0
  160.7930  204.4610  149.6440 C   0  0  0  0  0  2  0  0  0  0  0  0
  161.4190  207.3380  153.7090 C   0  0  0  0  0  2  0  0  0  0  0  0
  161.0500  204.6100  153.9460 C   0  0  0  0  0  1  0  0  0  0  0  0
  160.5820  201.3020  148.7170 C   0  0  0  0  0  1  0  0  0  0  0  0
  161.1220  205.7790  151.6730 C   0  0  0  0  0  0  0  0  0  0  0  0
  160.2530  203.3000  150.4150 C   0  0  2  0  0  3  0  0  0  0  0  0
  159.6370  212.4840  154.8720 C   0  0  2  0  0  3  0  0  0  0  0  0
  159.0210  212.6060  156.2340 C   0  0  0  0  0  0  0  0  0  0  0  0
  157.6740  212.9180  156.3700 O   0  0  0  0  0  0  0  0  0  0  0  0
  159.7160  212.3830  157.2600 O   0  0  0  0  0  1  0  0  0  0  0  0
  1 20  1  0  0  0  0
  1 29  1  0  0  0  0
  1 16  1  1  0  0  0
  2 24  1  0  0  0  0
  3 11  1  0  0  0  0
  4  3  2  0  0  0  0
  4 21  1  0  0  0  0
  5 25  1  1  0  0  0
  6 18  1  6  0  0  0
  6  5  1  0  0  0  0
  7 24  1  6  0  0  0
  7 19  1  0  0  0  0
  8 17  2  0  0  0  0
  9 28  1  0  0  0  0
  9 15  2  0  0  0  0
 11 13  2  0  0  0  0
 12  8  1  0  0  0  0
 12  2  2  0  0  0  0
 13 12  1  0  0  0  0
 14 27  2  0  0  0  0
 15 18  1  0  0  0  0
 17 10  1  0  0  0  0
 17  7  1  0  0  0  0
 19 16  1  0  0  0  0
 20 10  1  6  0  0  0
 20 29  1  0  0  0  0
 21 22  2  0  0  0  0
 22 13  1  0  0  0  0
 22 14  1  0  0  0  0
 23 14  1  0  0  0  0
 26  9  1  0  0  0  0
 27  2  1  0  0  0  0
 27  5  1  0  0  0  0
 28 23  1  6  0  0  0
 28  6  1  0  0  0  0
 29 30  1  1  0  0  0
 30 31  2  0  0  0  0
 30 32  1  0  0  0  0
M  END
>  <MODEL>
1

>  <REMARK>
 VINA RESULT:      -5.6      0.000      0.000
  Name = 
  1 active torsions:
  status: ('A' for Active; 'I' for Inactive)
    1  A    between atoms: C_29  and  C_30
                            x       y       z     vdW  Elec       q    Type
                         _______ _______ _______ _____ _____    ______ ____

>  <TORSDO>
F 1

$$$$
=
 OpenBabel11122412473D

 32 38  0  0  1  0  0  0  0  0999 V2000
  160.4540  204.1230  150.3400 N   0  0  2  0  0  0  0  0  0  0  0  0
  160.9610  208.6960  152.3180 C   0  0  0  0  0  0  0  0  0  0  0  0
  160.3900  207.3980  156.9930 C   0  0  0  0  0  3  0  0  0  0  0  0
  159.7570  208.6100  157.2610 C   0  0  0  0  0  3  0  0  0  0  0  0
  160.3060  210.9770  151.6340 C   0  0  1  0  0  3  0  0  0  0  0  0
  159.7090  212.2550  152.0250 C   0  0  2  0  0  3  0  0  0  0  0  0
  161.5160  206.8660  150.6410 C   0  0  1  0  0  3  0  0  0  0  0  0
  161.6670  206.4100  153.0720 C   0  0  0  0  0  3  0  0  0  0  0  0
  158.8720  213.7370  153.4820 C   0  0  0  0  0  0  0  0  0  0  0  0
  162.3670  204.5610  151.6310 C   0  0  0  0  0  2  0  0  0  0  0  0
  160.8340  207.1190  155.7010 C   0  0  0  0  0  3  0  0  0  0  0  0
  161.0940  207.7470  153.3590 C   0  0  0  0  0  0  0  0  0  0  0  0
  160.6580  208.0480  154.6580 C   0  0  0  0  0  0  0  0  0  0  0  0
  159.8100  210.2110  153.8850 C   0  0  0  0  0  0  0  0  0  0  0  0
  159.7240  214.3320  152.7160 N   0  0  0  0  0  0  0  0  0  0  0  0
  160.1470  205.1270  149.3320 C   0  0  0  0  0  2  0  0  0  0  0  0
  161.9020  205.9890  151.8300 C   0  0  0  0  0  0  0  0  0  0  0  0
  160.2780  213.3990  151.8360 N   0  0  0  0  0  2  0  0  0  0  0  0
  160.1470  206.5080  150.0200 C   0  0  0  0  0  2  0  0  0  0  0  0
  161.9260  204.1200  150.2520 C   0  0  1  0  0  3  0  0  0  0  0  0
  159.5700  209.5380  156.2370 C   0  0  0  0  0  3  0  0  0  0  0  0
  160.0180  209.2770  154.9250 C   0  0  0  0  0  0  0  0  0  0  0  0
  159.1070  211.3380  154.1620 C   0  0  0  0  0  2  0  0  0  0  0  0
  161.5980  208.3500  150.9900 C   0  0  0  0  0  2  0  0  0  0  0  0
  160.9050  210.9250  150.2640 C   0  0  0  0  0  1  0  0  0  0  0  0
  158.0740  214.4520  154.5130 C   0  0  0  0  0  1  0  0  0  0  0  0
  160.3470  209.9660  152.5680 C   0  0  0  0  0  0  0  0  0  0  0  0
  158.6990  212.3070  153.1000 C   0  0  2  0  0  3  0  0  0  0  0  0
  161.2020  202.8810  150.0250 C   0  0  2  0  0  3  0  0  0  0  0  0
  161.1420  202.5380  148.5660 C   0  0  0  0  0  0  0  0  0  0  0  0
  161.9340  203.2210  147.6520 O   0  0  0  0  0  0  0  0  0  0  0  0
  160.4030  201.5980  148.1710 O   0  0  0  0  0  1  0  0  0  0  0  0
  1 16  1  6  0  0  0
  2 27  2  0  0  0  0
  2 12  1  0  0  0  0
  3  4  1  0  0  0  0
  5 25  1  1  0  0  0
  5  6  1  0  0  0  0
  5 27  1  0  0  0  0
  6 18  1  1  0  0  0
  6 28  1  0  0  0  0
  7 19  1  1  0  0  0
  7 24  1  0  0  0  0
  7 17  1  0  0  0  0
  8 12  1  0  0  0  0
  9 26  1  0  0  0  0
 10 17  1  0  0  0  0
 11  3  2  0  0  0  0
 12 13  2  0  0  0  0
 13 22  1  0  0  0  0
 13 11  1  0  0  0  0
 14 23  1  0  0  0  0
 14 22  2  0  0  0  0
 15  9  2  0  0  0  0
 16 19  1  0  0  0  0
 17  8  2  0  0  0  0
 18 15  1  0  0  0  0
 20  1  1  0  0  0  0
 20 10  1  1  0  0  0
 21  4  2  0  0  0  0
 22 21  1  0  0  0  0
 24  2  1  0  0  0  0
 27 14  1  0  0  0  0
 28  9  1  0  0  0  0
 28 23  1  1  0  0  0
 29 30  1  6  0  0  0
 29 20  1  0  0  0  0
 29  1  1  0  0  0  0
 31 30  2  0  0  0  0
 32 30  1  0  0  0  0
M  END
>  <MODEL>
2

>  <REMARK>
 VINA RESULT:      -5.4      3.921      8.741
  Name = 
  1 active torsions:
  status: ('A' for Active; 'I' for Inactive)
    1  A    between atoms: C_29  and  C_30
                            x       y       z     vdW  Elec       q    Type
                         _______ _______ _______ _____ _____    ______ ____

>  <TORSDO>
F 1

$$$$
=
 OpenBabel11122412473D

 32 38  0  0  1  0  0  0  0  0999 V2000
  157.7650  212.7280  154.2440 N   0  0  2  0  0  0  0  0  0  0  0  0
  160.7280  208.9430  152.8410 C   0  0  0  0  0  0  0  0  0  0  0  0
  162.2740  210.9090  148.6450 C   0  0  0  0  0  3  0  0  0  0  0  0
  162.3230  209.6460  148.0610 C   0  0  0  0  0  3  0  0  0  0  0  0
  160.6250  206.4830  153.0280 C   0  0  1  0  0  3  0  0  0  0  0  0
  160.7880  205.1890  152.3600 C   0  0  2  0  0  3  0  0  0  0  0  0
  159.6770  210.4960  154.5590 C   0  0  1  0  0  3  0  0  0  0  0  0
  160.9060  211.4360  152.6250 C   0  0  0  0  0  3  0  0  0  0  0  0
  161.3870  203.8450  150.6720 C   0  0  0  0  0  0  0  0  0  0  0  0
  160.0860  213.0910  154.2270 C   0  0  0  0  0  2  0  0  0  0  0  0
  161.8570  211.0450  149.9690 C   0  0  0  0  0  3  0  0  0  0  0  0
  161.0540  210.0740  152.0560 C   0  0  0  0  0  0  0  0  0  0  0  0
  161.4890  209.9210  150.7310 C   0  0  0  0  0  0  0  0  0  0  0  0
  161.1480  207.5010  150.8860 C   0  0  0  0  0  0  0  0  0  0  0  0
  161.8580  203.3710  151.7770 N   0  0  0  0  0  0  0  0  0  0  0  0
  157.3370  211.5040  154.9050 C   0  0  0  0  0  2  0  0  0  0  0  0
  160.3030  211.6570  153.7910 C   0  0  0  0  0  0  0  0  0  0  0  0
  161.5220  204.2330  152.8240 N   0  0  0  0  0  2  0  0  0  0  0  0
  158.1590  210.3360  154.3210 C   0  0  0  0  0  2  0  0  0  0  0  0
  158.8750  213.1190  155.1340 C   0  0  1  0  0  3  0  0  0  0  0  0
  161.9560  208.5230  148.8010 C   0  0  0  0  0  3  0  0  0  0  0  0
  161.5380  208.6390  150.1430 C   0  0  0  0  0  0  0  0  0  0  0  0
  161.1180  206.3000  150.2570 C   0  0  0  0  0  2  0  0  0  0  0  0
  160.4220  209.1880  154.3020 C   0  0  0  0  0  2  0  0  0  0  0  0
  160.3660  206.4320  154.5000 C   0  0  0  0  0  1  0  0  0  0  0  0
  161.5360  203.1500  149.3650 C   0  0  0  0  0  1  0  0  0  0  0  0
  160.8030  207.6260  152.2820 C   0  0  0  0  0  0  0  0  0  0  0  0
  160.5710  205.0700  150.9060 C   0  0  2  0  0  3  0  0  0  0  0  0
  157.7710  214.0430  154.9320 C   0  0  2  0  0  3  0  0  0  0  0  0
  156.8500  214.0680  156.1150 C   0  0  0  0  0  0  0  0  0  0  0  0
  155.5010  214.3560  155.9490 O   0  0  0  0  0  0  0  0  0  0  0  0
  157.2910  213.7870  157.2600 O   0  0  0  0  0  1  0  0  0  0  0  0
  1 16  1  1  0  0  0
  1 29  1  0  0  0  0
  1 20  1  0  0  0  0
  2 24  1  0  0  0  0
  3 11  1  0  0  0  0
  4  3  2  0  0  0  0
  4 21  1  0  0  0  0
  5 25  1  1  0  0  0
  6 18  1  6  0  0  0
  6  5  1  0  0  0  0
  7 24  1  6  0  0  0
  8 17  2  0  0  0  0
  9 28  1  0  0  0  0
  9 15  2  0  0  0  0
 11 13  2  0  0  0  0
 12  8  1  0  0  0  0
 12  2  2  0  0  0  0
 13 12  1  0  0  0  0
 14 27  2  0  0  0  0
 15 18  1  0  0  0  0
 17 10  1  0  0  0  0
 17  7  1  0  0  0  0
 19  7  1  0  0  0  0
 19 16  1  0  0  0  0
 20 10  1  6  0  0  0
 21 22  2  0  0  0  0
 22 13  1  0  0  0  0
 22 14  1  0  0  0  0
 23 14  1  0  0  0  0
 26  9  1  0  0  0  0
 27  2  1  0  0  0  0
 27  5  1  0  0  0  0
 28 23  1  6  0  0  0
 28  6  1  0  0  0  0
 29 20  1  0  0  0  0
 29 30  1  1  0  0  0
 30 32  1  0  0  0  0
 31 30  2  0  0  0  0
M  END
>  <MODEL>
3

>  <REMARK>
 VINA RESULT:      -5.4      1.463      2.186
  Name = 
  1 active torsions:
  status: ('A' for Active; 'I' for Inactive)
    1  A    between atoms: C_29  and  C_30
                            x       y       z     vdW  Elec       q    Type
                         _______ _______ _______ _____ _____    ______ ____

>  <TORSDO>
F 1

$$$$
=
 OpenBabel11122412473D

 32 38  0  0  1  0  0  0  0  0999 V2000
  160.3120  203.2370  150.6070 N   0  0  2  0  0  0  0  0  0  0  0  0
  161.3550  208.0210  151.6560 C   0  0  0  0  0  0  0  0  0  0  0  0
  160.2260  207.8580  156.4060 C   0  0  0  0  0  3  0  0  0  0  0  0
  159.7670  209.1710  156.3510 C   0  0  0  0  0  3  0  0  0  0  0  0
  161.1130  210.1650  150.4550 C   0  0  1  0  0  3  0  0  0  0  0  0
  160.6890  211.5660  150.5100 C   0  0  2  0  0  3  0  0  0  0  0  0
  161.7530  205.8130  150.4580 C   0  0  1  0  0  3  0  0  0  0  0  0
  161.6420  205.8800  152.9320 C   0  0  0  0  0  3  0  0  0  0  0  0
  159.9770  213.4260  151.5340 C   0  0  0  0  0  0  0  0  0  0  0  0
  162.1620  203.6870  151.9830 C   0  0  0  0  0  2  0  0  0  0  0  0
  160.7220  207.2480  155.2550 C   0  0  0  0  0  3  0  0  0  0  0  0
  161.2590  207.3120  152.8770 C   0  0  0  0  0  0  0  0  0  0  0  0
  160.7730  207.9430  154.0320 C   0  0  0  0  0  0  0  0  0  0  0  0
  160.3300  209.9800  152.7470 C   0  0  0  0  0  0  0  0  0  0  0  0
  160.9680  213.7220  150.7610 N   0  0  0  0  0  0  0  0  0  0  0  0
  160.2430  204.0290  149.3880 C   0  0  0  0  0  2  0  0  0  0  0  0
  161.9060  205.1730  151.8350 C   0  0  0  0  0  0  0  0  0  0  0  0
  161.4400  212.5550  150.1550 N   0  0  0  0  0  2  0  0  0  0  0  0
  160.3990  205.5140  149.7770 C   0  0  0  0  0  2  0  0  0  0  0  0
  161.7690  203.0200  150.6830 C   0  0  1  0  0  3  0  0  0  0  0  0
  159.8050  209.8720  155.1460 C   0  0  0  0  0  3  0  0  0  0  0  0
  160.3090  209.2750  153.9710 C   0  0  0  0  0  0  0  0  0  0  0  0
  159.7880  211.2230  152.7100 C   0  0  0  0  0  2  0  0  0  0  0  0
  162.0340  207.3140  150.5040 C   0  0  0  0  0  2  0  0  0  0  0  0
  161.8030  209.7380  149.1980 C   0  0  0  0  0  1  0  0  0  0  0  0
  159.2190  214.4480  152.3050 C   0  0  0  0  0  1  0  0  0  0  0  0
  160.9250  209.3850  151.5740 C   0  0  0  0  0  0  0  0  0  0  0  0
  159.6170  211.9840  151.4340 C   0  0  2  0  0  3  0  0  0  0  0  0
  160.8830  201.8680  150.6350 C   0  0  2  0  0  3  0  0  0  0  0  0
  160.8870  201.2270  149.2790 C   0  0  0  0  0  0  0  0  0  0  0  0
  159.6970  201.0460  148.5850 O   0  0  0  0  0  0  0  0  0  0  0  0
  161.9760  200.8890  148.7470 O   0  0  0  0  0  1  0  0  0  0  0  0
  1 16  1  6  0  0  0
  1 29  1  0  0  0  0
  1 20  1  0  0  0  0
  2 12  1  0  0  0  0
  4  3  1  0  0  0  0
  5 25  1  1  0  0  0
  5  6  1  0  0  0  0
  5 27  1  0  0  0  0
  6 18  1  1  0  0  0
  6 28  1  0  0  0  0
  7 19  1  1  0  0  0
  7 24  1  0  0  0  0
  7 17  1  0  0  0  0
  9 26  1  0  0  0  0
 11  3  2  0  0  0  0
 12  8  1  0  0  0  0
 12 13  2  0  0  0  0
 13 11  1  0  0  0  0
 14 22  2  0  0  0  0
 15  9  2  0  0  0  0
 16 19  1  0  0  0  0
 17 10  1  0  0  0  0
 17  8  2  0  0  0  0
 18 15  1  0  0  0  0
 20 10  1  1  0  0  0
 21  4  2  0  0  0  0
 22 13  1  0  0  0  0
 22 21  1  0  0  0  0
 23 14  1  0  0  0  0
 24  2  1  0  0  0  0
 27  2  2  0  0  0  0
 27 14  1  0  0  0  0
 28  9  1  0  0  0  0
 28 23  1  1  0  0  0
 29 30  1  6  0  0  0
 29 20  1  0  0  0  0
 31 30  2  0  0  0  0
 32 30  1  0  0  0  0
M  END
>  <MODEL>
4

>  <REMARK>
 VINA RESULT:      -5.0      4.098      8.590
  Name = 
  1 active torsions:
  status: ('A' for Active; 'I' for Inactive)
    1  A    between atoms: C_29  and  C_30
                            x       y       z     vdW  Elec       q    Type
                         _______ _______ _______ _____ _____    ______ ____

>  <TORSDO>
F 1

$$$$
=
 OpenBabel11122412473D

 32 38  0  0  1  0  0  0  0  0999 V2000
  162.4750  209.3560  155.4840 N   0  0  2  0  0  0  0  0  0  0  0  0
  161.0190  207.2780  151.1670 C   0  0  0  0  0  0  0  0  0  0  0  0
  160.7950  202.6660  152.7640 C   0  0  0  0  0  3  0  0  0  0  0  0
  161.2060  202.2050  151.5150 C   0  0  0  0  0  3  0  0  0  0  0  0
  161.5090  207.6820  148.7810 C   0  0  1  0  0  3  0  0  0  0  0  0
  161.8520  207.1040  147.4800 C   0  0  2  0  0  3  0  0  0  0  0  0
  161.0430  209.1320  152.9080 C   0  0  1  0  0  3  0  0  0  0  0  0
  160.4640  206.8160  153.5700 C   0  0  0  0  0  3  0  0  0  0  0  0
  162.1890  205.4250  146.0370 C   0  0  0  0  0  0  0  0  0  0  0  0
  160.3030  208.4710  155.3630 C   0  0  0  0  0  2  0  0  0  0  0  0
  160.6580  204.0360  152.9860 C   0  0  0  0  0  3  0  0  0  0  0  0
  160.7980  206.3420  152.2060 C   0  0  0  0  0  0  0  0  0  0  0  0
  160.9230  204.9660  151.9630 C   0  0  0  0  0  0  0  0  0  0  0  0
  161.6340  205.4230  149.6650 C   0  0  0  0  0  0  0  0  0  0  0  0
  161.4400  206.3180  145.4800 N   0  0  0  0  0  0  0  0  0  0  0  0
  162.8510  210.2210  154.3750 C   0  0  0  0  0  2  0  0  0  0  0  0
  160.5380  208.1010  153.9140 C   0  0  0  0  0  0  0  0  0  0  0  0
  161.1950  207.3450  146.3950 N   0  0  0  0  0  2  0  0  0  0  0  0
  162.5420  209.4730  153.0630 C   0  0  0  0  0  2  0  0  0  0  0  0
  161.0630  209.7500  155.6420 C   0  0  1  0  0  3  0  0  0  0  0  0
  161.4780  203.1140  150.4930 C   0  0  0  0  0  3  0  0  0  0  0  0
  161.3390  204.5030  150.6960 C   0  0  0  0  0  0  0  0  0  0  0  0
  162.1220  204.9430  148.4930 C   0  0  0  0  0  2  0  0  0  0  0  0
  160.7090  208.7260  151.4740 C   0  0  0  0  0  2  0  0  0  0  0  0
  161.2080  209.1470  148.7890 C   0  0  0  0  0  1  0  0  0  0  0  0
  162.6690  204.2110  145.3230 C   0  0  0  0  0  1  0  0  0  0  0  0
  161.4070  206.8350  149.8610 C   0  0  0  0  0  0  0  0  0  0  0  0
  162.6110  205.8410  147.4030 C   0  0  2  0  0  3  0  0  0  0  0  0
  161.9660  209.8900  156.7720 C   0  0  2  0  0  3  0  0  0  0  0  0
  162.3600  211.3200  156.9890 C   0  0  0  0  0  0  0  0  0  0  0  0
  163.6820  211.6510  157.2600 O   0  0  0  0  0  1  0  0  0  0  0  0
  161.4980  212.2320  156.8830 O   0  0  0  0  0  0  0  0  0  0  0  0
  1 16  1  6  0  0  0
  1 20  1  0  0  0  0
  1 29  1  0  0  0  0
  2 24  1  0  0  0  0
  2 12  1  0  0  0  0
  3 11  2  0  0  0  0
  4  3  1  0  0  0  0
  5 25  1  6  0  0  0
  5 27  1  0  0  0  0
  6 18  1  1  0  0  0
  6  5  1  0  0  0  0
  7 24  1  6  0  0  0
  7 19  1  0  0  0  0
  7 17  1  0  0  0  0
  8 17  2  0  0  0  0
  9 28  1  0  0  0  0
 12  8  1  0  0  0  0
 13 12  2  0  0  0  0
 13 11  1  0  0  0  0
 14 27  1  0  0  0  0
 14 22  2  0  0  0  0
 15  9  2  0  0  0  0
 15 18  1  0  0  0  0
 17 10  1  0  0  0  0
 19 16  1  0  0  0  0
 20 10  1  1  0  0  0
 20 29  1  0  0  0  0
 21 22  1  0  0  0  0
 21  4  2  0  0  0  0
 22 13  1  0  0  0  0
 23 14  1  0  0  0  0
 26  9  1  0  0  0  0
 27  2  2  0  0  0  0
 28  6  1  0  0  0  0
 28 23  1  1  0  0  0
 29 30  1  6  0  0  0
 30 31  1  0  0  0  0
 32 30  2  0  0  0  0
M  END
>  <MODEL>
5

>  <REMARK>
 VINA RESULT:      -3.6      2.571      4.527
  Name = 
  1 active torsions:
  status: ('A' for Active; 'I' for Inactive)
    1  A    between atoms: C_29  and  C_30
                            x       y       z     vdW  Elec       q    Type
                         _______ _______ _______ _____ _____    ______ ____

>  <TORSDO>
F 1

$$$$
