=
 OpenBabel11122414143D

 28 32  0  0  1  0  0  0  0  0999 V2000
  160.8770  209.0670  153.3460 C   0  0  0  0  0  0  0  0  0  0  0  0
  158.4540  210.7850  153.3370 F   0  0  0  0  0  0  0  0  0  0  0  0
  163.2560  212.2220  148.6490 O   0  0  0  0  0  1  0  0  0  0  0  0
  161.9200  209.9750  155.7910 C   0  0  0  0  0  3  0  0  0  0  0  0
  160.9870  212.6580  149.2460 C   0  0  2  0  0  3  0  0  0  0  0  0
  160.2950  208.4960  152.0860 C   0  0  0  0  0  2  0  0  0  0  0  0
  158.1710  212.7640  154.3150 F   0  0  0  0  0  0  0  0  0  0  0  0
  158.4990  212.1490  153.1170 C   0  0  0  0  0  0  0  0  0  0  0  0
  157.5560  213.8250  151.8900 C   0  0  2  0  0  3  0  0  0  0  0  0
  159.9340  212.6250  152.6970 C   0  0  2  0  0  3  0  0  0  0  0  0
  161.3680  208.4000  148.9760 O   0  0  0  0  0  0  0  0  0  0  0  0
  160.8460  211.1370  151.0280 C   0  0  1  0  0  3  0  0  0  0  0  0
  158.7360  214.1470  150.9840 C   0  0  0  0  0  2  0  0  0  0  0  0
  157.5180  212.4460  152.1440 O   0  0  0  0  0  0  0  0  0  0  0  0
  161.8160  208.5950  150.1360 C   0  0  0  0  0  0  0  0  0  0  0  0
  161.1580  210.4520  153.5280 C   0  0  0  0  0  0  0  0  0  0  0  0
  162.0660  211.6110  149.0440 C   0  0  2  0  0  3  0  0  0  0  0  0
  156.3240  214.2400  151.2470 N   0  0  0  0  0  1  0  0  0  0  0  0
  162.6760  209.6650  150.3880 O   0  0  0  0  0  0  0  0  0  0  0  0
  161.6810  210.8800  154.7560 C   0  0  0  0  0  3  0  0  0  0  0  0
  161.1200  208.1730  154.3970 C   0  0  0  0  0  3  0  0  0  0  0  0
  161.6390  208.6220  155.6110 C   0  0  0  0  0  3  0  0  0  0  0  0
  161.3470  207.7490  151.2710 C   0  0  0  0  0  2  0  0  0  0  0  0
  160.1140  212.1990  150.3280 N   0  0  1  0  0  0  0  0  0  0  0  0
  162.2250  211.0190  150.4130 C   0  0  2  0  0  3  0  0  0  0  0  0
  159.9560  213.2770  151.3080 C   0  0  2  0  0  3  0  0  0  0  0  0
  160.1840  212.8210  147.9700 C   0  0  0  0  0  1  0  0  0  0  0  0
  160.9620  211.5270  152.4790 C   0  0  2  0  0  3  0  0  0  0  0  0
  1 16  2  0  0  0  0
  1 21  1  0  0  0  0
  3 17  1  0  0  0  0
  5 27  1  6  0  0  0
  5 24  1  0  0  0  0
  6  1  1  0  0  0  0
  8  2  1  0  0  0  0
  8  7  1  0  0  0  0
  9 18  1  6  0  0  0
  9 14  1  0  0  0  0
 10  8  1  6  0  0  0
 11 15  2  0  0  0  0
 12 28  1  0  0  0  0
 13 26  1  0  0  0  0
 13  9  1  0  0  0  0
 14  8  1  0  0  0  0
 15 19  1  0  0  0  0
 15 23  1  0  0  0  0
 16 20  1  0  0  0  0
 17  5  1  0  0  0  0
 17 25  1  0  0  0  0
 19 25  1  0  0  0  0
 20  4  2  0  0  0  0
 21 22  2  0  0  0  0
 22  4  1  0  0  0  0
 23  6  1  0  0  0  0
 24 12  1  0  0  0  0
 24 26  1  0  0  0  0
 25 12  1  0  0  0  0
 26 10  1  0  0  0  0
 28 10  1  0  0  0  0
 28 16  1  0  0  0  0
M  END
>  <MODEL>
1

>  <REMARK>
 VINA RESULT:      -3.8      0.000      0.000
  Name = 
  0 active torsions:
  status: ('A' for Active; 'I' for Inactive)
                            x       y       z     vdW  Elec       q    Type
                         _______ _______ _______ _____ _____    ______ ____

>  <TORSDO>
F 0

$$$$
=
 OpenBabel11122414143D

 28 32  0  0  1  0  0  0  0  0999 V2000
  161.2970  209.6770  156.0630 C   0  0  0  0  0  0  0  0  0  0  0  0
  162.6900  209.6870  153.4390 F   0  0  0  0  0  0  0  0  0  0  0  0
  157.0100  213.5090  153.9160 O   0  0  0  0  0  1  0  0  0  0  0  0
  160.4040  207.0170  155.9560 C   0  0  0  0  0  3  0  0  0  0  0  0
  158.9290  213.1120  152.5540 C   0  0  2  0  0  3  0  0  0  0  0  0
  161.8420  211.0700  156.1890 C   0  0  0  0  0  2  0  0  0  0  0  0
  162.2480  208.4440  151.6460 F   0  0  0  0  0  0  0  0  0  0  0  0
  162.0190  209.6790  152.2310 C   0  0  0  0  0  0  0  0  0  0  0  0
  161.9100  210.7220  150.2040 C   0  0  2  0  0  3  0  0  0  0  0  0
  160.4710  209.8530  152.4220 C   0  0  2  0  0  3  0  0  0  0  0  0
  160.3970  214.0140  156.4760 O   0  0  0  0  0  0  0  0  0  0  0  0
  160.0230  211.6240  154.0010 C   0  0  1  0  0  3  0  0  0  0  0  0
  160.5710  211.4250  150.3720 C   0  0  0  0  0  2  0  0  0  0  0  0
  162.5880  210.6970  151.4320 O   0  0  0  0  0  0  0  0  0  0  0  0
  160.1170  212.7940  156.6130 C   0  0  0  0  0  0  0  0  0  0  0  0
  160.4780  209.2460  154.9800 C   0  0  0  0  0  0  0  0  0  0  0  0
  158.3960  213.3550  153.9540 C   0  0  2  0  0  3  0  0  0  0  0  0
  162.7080  211.4260  149.2180 N   0  0  0  0  0  1  0  0  0  0  0  0
  158.9350  212.2790  156.0780 O   0  0  0  0  0  0  0  0  0  0  0  0
  160.0430  207.9140  154.9510 C   0  0  0  0  0  3  0  0  0  0  0  0
  161.6530  208.7620  157.0620 C   0  0  0  0  0  3  0  0  0  0  0  0
  161.2090  207.4410  157.0110 C   0  0  0  0  0  3  0  0  0  0  0  0
  161.0970  211.8700  157.2540 C   0  0  0  0  0  2  0  0  0  0  0  0
  160.0870  212.2230  152.6640 N   0  0  1  0  0  0  0  0  0  0  0  0
  158.7490  212.0890  154.6760 C   0  0  2  0  0  3  0  0  0  0  0  0
  159.9280  211.1080  151.7270 C   0  0  2  0  0  3  0  0  0  0  0  0
  159.3460  214.4280  151.9280 C   0  0  0  0  0  1  0  0  0  0  0  0
  160.0020  210.1250  153.8410 C   0  0  2  0  0  3  0  0  0  0  0  0
  1  6  1  0  0  0  0
  1 21  1  0  0  0  0
  3 17  1  0  0  0  0
  4 22  1  0  0  0  0
  5 27  1  1  0  0  0
  5 24  1  0  0  0  0
  5 17  1  0  0  0  0
  6 23  1  0  0  0  0
  7  8  1  0  0  0  0
  8  2  1  0  0  0  0
  9 18  1  6  0  0  0
  9 13  1  0  0  0  0
  9 14  1  0  0  0  0
 10  8  1  1  0  0  0
 10 28  1  0  0  0  0
 11 15  2  0  0  0  0
 12 25  1  0  0  0  0
 13 26  1  0  0  0  0
 14  8  1  0  0  0  0
 15 23  1  0  0  0  0
 16  1  2  0  0  0  0
 17 25  1  0  0  0  0
 19 15  1  0  0  0  0
 20 16  1  0  0  0  0
 20  4  2  0  0  0  0
 22 21  2  0  0  0  0
 24 12  1  0  0  0  0
 25 19  1  0  0  0  0
 26 10  1  0  0  0  0
 26 24  1  0  0  0  0
 28 12  1  0  0  0  0
 28 16  1  0  0  0  0
M  END
>  <MODEL>
2

>  <REMARK>
 VINA RESULT:      -3.2      2.383      5.148
  Name = 
  0 active torsions:
  status: ('A' for Active; 'I' for Inactive)
                            x       y       z     vdW  Elec       q    Type
                         _______ _______ _______ _____ _____    ______ ____

>  <TORSDO>
F 0

$$$$
=
 OpenBabel11122414143D

 28 32  0  0  1  0  0  0  0  0999 V2000
  160.9990  209.1010  155.0890 C   0  0  0  0  0  0  0  0  0  0  0  0
  158.3760  210.3460  155.7170 F   0  0  0  0  0  0  0  0  0  0  0  0
  161.5980  212.6340  150.1060 O   0  0  0  0  0  1  0  0  0  0  0  0
  162.4120  210.1870  157.2600 C   0  0  0  0  0  3  0  0  0  0  0  0
  159.4940  212.6470  151.2320 C   0  0  2  0  0  3  0  0  0  0  0  0
  160.2460  208.4320  153.9770 C   0  0  0  0  0  2  0  0  0  0  0  0
  157.9850  212.2410  156.8180 F   0  0  0  0  0  0  0  0  0  0  0  0
  158.1240  211.6950  155.5520 C   0  0  0  0  0  0  0  0  0  0  0  0
  156.6350  213.1700  154.6500 C   0  0  2  0  0  3  0  0  0  0  0  0
  159.3110  212.4250  154.8290 C   0  0  2  0  0  3  0  0  0  0  0  0
  160.5520  208.5310  150.7000 O   0  0  0  0  0  0  0  0  0  0  0  0
  160.0510  211.1290  152.9320 C   0  0  1  0  0  3  0  0  0  0  0  0
  157.4900  213.7010  153.5090 C   0  0  0  0  0  2  0  0  0  0  0  0
  156.9040  211.8070  154.8470 O   0  0  0  0  0  0  0  0  0  0  0  0
  161.2200  208.8060  151.7310 C   0  0  0  0  0  0  0  0  0  0  0  0
  161.0640  210.5140  155.2590 C   0  0  0  0  0  0  0  0  0  0  0  0
  160.6630  211.8160  150.7410 C   0  0  2  0  0  3  0  0  0  0  0  0
  155.2320  213.3510  154.3290 N   0  0  0  0  0  1  0  0  0  0  0  0
  161.9110  210.0160  151.8210 O   0  0  0  0  0  0  0  0  0  0  0  0
  161.7770  211.0310  156.3490 C   0  0  0  0  0  3  0  0  0  0  0  0
  161.6390  208.2680  156.0150 C   0  0  0  0  0  3  0  0  0  0  0  0
  162.3420  208.8050  157.0940 C   0  0  0  0  0  3  0  0  0  0  0  0
  161.1910  207.8890  152.9070 C   0  0  0  0  0  2  0  0  0  0  0  0
  158.9980  212.0380  152.4680 N   0  0  1  0  0  0  0  0  0  0  0  0
  161.2450  211.2650  152.0090 C   0  0  2  0  0  3  0  0  0  0  0  0
  158.8870  213.0690  153.5020 C   0  0  2  0  0  3  0  0  0  0  0  0
  158.3960  212.6600  150.1870 C   0  0  0  0  0  1  0  0  0  0  0  0
  160.4360  211.5350  154.3320 C   0  0  2  0  0  3  0  0  0  0  0  0
  1 16  2  0  0  0  0
  1 21  1  0  0  0  0
  3 17  1  0  0  0  0
  5 27  1  6  0  0  0
  5 24  1  0  0  0  0
  6  1  1  0  0  0  0
  8  2  1  0  0  0  0
  8  7  1  0  0  0  0
  9 18  1  6  0  0  0
  9 14  1  0  0  0  0
 10  8  1  6  0  0  0
 11 15  2  0  0  0  0
 12 28  1  0  0  0  0
 13  9  1  0  0  0  0
 14  8  1  0  0  0  0
 15 19  1  0  0  0  0
 15 23  1  0  0  0  0
 16 20  1  0  0  0  0
 17  5  1  0  0  0  0
 17 25  1  0  0  0  0
 19 25  1  0  0  0  0
 20  4  2  0  0  0  0
 21 22  2  0  0  0  0
 22  4  1  0  0  0  0
 23  6  1  0  0  0  0
 24 12  1  0  0  0  0
 24 26  1  0  0  0  0
 25 12  1  0  0  0  0
 26 13  1  0  0  0  0
 26 10  1  0  0  0  0
 28 10  1  0  0  0  0
 28 16  1  0  0  0  0
M  END
>  <MODEL>
3

>  <REMARK>
 VINA RESULT:      -2.9      1.800      2.238
  Name = 
  0 active torsions:
  status: ('A' for Active; 'I' for Inactive)
                            x       y       z     vdW  Elec       q    Type
                         _______ _______ _______ _____ _____    ______ ____

>  <TORSDO>
F 0

$$$$
=
 OpenBabel11122414143D

 28 32  0  0  1  0  0  0  0  0999 V2000
  160.8670  212.4960  148.3370 C   0  0  0  0  0  0  0  0  0  0  0  0
  161.0460  209.5370  148.1440 F   0  0  0  0  0  0  0  0  0  0  0  0
  160.8310  212.1940  154.4670 O   0  0  0  0  0  1  0  0  0  0  0  0
  163.4480  213.0490  147.3780 C   0  0  0  0  0  3  0  0  0  0  0  0
  160.6200  210.1510  153.2520 C   0  0  2  0  0  3  0  0  0  0  0  0
  159.4520  212.2320  148.7620 C   0  0  0  0  0  2  0  0  0  0  0  0
  162.8680  208.2620  148.2510 F   0  0  0  0  0  0  0  0  0  0  0  0
  161.8180  208.7720  148.9980 C   0  0  0  0  0  0  0  0  0  0  0  0
  161.7600  206.9310  150.3440 C   0  0  2  0  0  3  0  0  0  0  0  0
  162.4180  209.6290  150.1680 C   0  0  2  0  0  3  0  0  0  0  0  0
  157.7970  212.8760  151.5330 O   0  0  0  0  0  0  0  0  0  0  0  0
  160.7170  211.0710  151.0960 C   0  0  1  0  0  3  0  0  0  0  0  0
  161.8450  207.6240  151.6960 C   0  0  0  0  0  2  0  0  0  0  0  0
  161.0030  207.7130  149.4590 O   0  0  0  0  0  0  0  0  0  0  0  0
  158.8490  213.2360  150.9430 C   0  0  0  0  0  0  0  0  0  0  0  0
  162.0030  211.9480  148.9990 C   0  0  0  0  0  0  0  0  0  0  0  0
  160.2220  211.6110  153.3560 C   0  0  2  0  0  3  0  0  0  0  0  0
  161.1370  205.6300  150.5040 N   0  0  0  0  0  1  0  0  0  0  0  0
  160.0490  213.3460  151.6470 O   0  0  0  0  0  0  0  0  0  0  0  0
  163.2810  212.2410  148.5030 C   0  0  0  0  0  3  0  0  0  0  0  0
  161.0540  213.3020  147.2070 C   0  0  0  0  0  3  0  0  0  0  0  0
  162.3340  213.5790  146.7300 C   0  0  0  0  0  3  0  0  0  0  0  0
  158.8430  213.4420  149.4660 C   0  0  0  0  0  2  0  0  0  0  0  0
  160.6780  209.8030  151.8320 N   0  0  1  0  0  0  0  0  0  0  0  0
  160.7800  212.2050  152.0970 C   0  0  2  0  0  3  0  0  0  0  0  0
  161.9570  209.1460  151.5490 C   0  0  2  0  0  3  0  0  0  0  0  0
  159.5910  209.2870  153.9540 C   0  0  0  0  0  1  0  0  0  0  0  0
  161.9560  211.0750  150.2370 C   0  0  2  0  0  3  0  0  0  0  0  0
  1  6  1  0  0  0  0
  1 16  1  0  0  0  0
  2  8  1  0  0  0  0
  4 20  1  0  0  0  0
  5 17  1  0  0  0  0
  5 27  1  1  0  0  0
  6 23  1  0  0  0  0
  7  8  1  0  0  0  0
  8 14  1  0  0  0  0
  9 18  1  1  0  0  0
  9 13  1  0  0  0  0
 10  8  1  6  0  0  0
 10 28  1  0  0  0  0
 10 26  1  0  0  0  0
 12 24  1  0  0  0  0
 12 25  1  0  0  0  0
 14  9  1  0  0  0  0
 15 11  2  0  0  0  0
 15 19  1  0  0  0  0
 16 28  1  0  0  0  0
 17  3  1  0  0  0  0
 19 25  1  0  0  0  0
 20 16  2  0  0  0  0
 21  1  2  0  0  0  0
 22 21  1  0  0  0  0
 22  4  2  0  0  0  0
 23 15  1  0  0  0  0
 24  5  1  0  0  0  0
 25 17  1  0  0  0  0
 26 13  1  0  0  0  0
 26 24  1  0  0  0  0
 28 12  1  0  0  0  0
M  END
>  <MODEL>
4

>  <REMARK>
 VINA RESULT:      -2.1      2.745      6.376
  Name = 
  0 active torsions:
  status: ('A' for Active; 'I' for Inactive)
                            x       y       z     vdW  Elec       q    Type
                         _______ _______ _______ _____ _____    ______ ____

>  <TORSDO>
F 0

$$$$
=
 OpenBabel11122414143D

 28 32  0  0  1  0  0  0  0  0999 V2000
  160.8800  211.5660  150.9020 C   0  0  0  0  0  0  0  0  0  0  0  0
  161.7830  211.4530  153.7290 F   0  0  0  0  0  0  0  0  0  0  0  0
  160.0830  205.4800  150.8080 O   0  0  0  0  0  1  0  0  0  0  0  0
  158.4470  212.8850  151.3810 C   0  0  0  0  0  3  0  0  0  0  0  0
  161.1810  206.4290  152.7030 C   0  0  2  0  0  3  0  0  0  0  0  0
  162.2140  210.9470  150.6080 C   0  0  0  0  0  2  0  0  0  0  0  0
  160.5310  211.4280  155.5710 F   0  0  0  0  0  0  0  0  0  0  0  0
  161.2080  210.6200  154.6710 C   0  0  0  0  0  0  0  0  0  0  0  0
  161.7030  209.0820  156.2820 C   0  0  2  0  0  3  0  0  0  0  0  0
  160.1740  209.6330  154.0230 C   0  0  2  0  0  3  0  0  0  0  0  0
  163.0940  208.0820  149.2450 O   0  0  0  0  0  0  0  0  0  0  0  0
  161.0970  208.6690  152.0100 C   0  0  1  0  0  3  0  0  0  0  0  0
  161.1750  207.8350  155.5890 C   0  0  0  0  0  2  0  0  0  0  0  0
  162.2620  209.9500  155.3330 O   0  0  0  0  0  0  0  0  0  0  0  0
  162.0860  208.8320  149.3280 C   0  0  0  0  0  0  0  0  0  0  0  0
  159.9210  210.9900  151.7850 C   0  0  0  0  0  0  0  0  0  0  0  0
  161.0200  206.4390  151.1940 C   0  0  2  0  0  3  0  0  0  0  0  0
  162.7110  208.7060  157.2560 N   0  0  0  0  0  1  0  0  0  0  0  0
  160.8310  208.2950  149.6190 O   0  0  0  0  0  0  0  0  0  0  0  0
  158.7140  211.6670  152.0060 C   0  0  0  0  0  3  0  0  0  0  0  0
  160.5960  212.7910  150.2860 C   0  0  0  0  0  3  0  0  0  0  0  0
  159.3890  213.4480  150.5220 C   0  0  0  0  0  3  0  0  0  0  0  0
  162.2440  210.3110  149.2200 C   0  0  0  0  0  2  0  0  0  0  0  0
  161.4670  207.7990  153.1310 N   0  0  1  0  0  0  0  0  0  0  0  0
  160.4880  207.8140  150.9190 C   0  0  2  0  0  3  0  0  0  0  0  0
  160.5590  208.1610  154.2230 C   0  0  2  0  0  3  0  0  0  0  0  0
  162.3290  205.5170  153.0910 C   0  0  0  0  0  1  0  0  0  0  0  0
  160.0830  209.6680  152.5070 C   0  0  2  0  0  3  0  0  0  0  0  0
  1 16  1  0  0  0  0
  2  8  1  0  0  0  0
  3 17  1  0  0  0  0
  4 20  1  0  0  0  0
  5 27  1  6  0  0  0
  5 24  1  0  0  0  0
  6  1  1  0  0  0  0
  8 14  1  0  0  0  0
  8  7  1  0  0  0  0
  9 18  1  1  0  0  0
 10 26  1  0  0  0  0
 10  8  1  6  0  0  0
 11 15  2  0  0  0  0
 12 28  1  0  0  0  0
 12 24  1  0  0  0  0
 13  9  1  0  0  0  0
 14  9  1  0  0  0  0
 15 19  1  0  0  0  0
 16 20  2  0  0  0  0
 16 28  1  0  0  0  0
 17  5  1  0  0  0  0
 19 25  1  0  0  0  0
 21 22  1  0  0  0  0
 21  1  2  0  0  0  0
 22  4  2  0  0  0  0
 23 15  1  0  0  0  0
 23  6  1  0  0  0  0
 24 26  1  0  0  0  0
 25 17  1  0  0  0  0
 25 12  1  0  0  0  0
 26 13  1  0  0  0  0
 28 10  1  0  0  0  0
M  END
>  <MODEL>
5

>  <REMARK>
 VINA RESULT:      -1.9      2.688      5.453
  Name = 
  0 active torsions:
  status: ('A' for Active; 'I' for Inactive)
                            x       y       z     vdW  Elec       q    Type
                         _______ _______ _______ _____ _____    ______ ____

>  <TORSDO>
F 0

$$$$
=
 OpenBabel11122414143D

 28 32  0  0  1  0  0  0  0  0999 V2000
  160.3460  211.0960  151.5110 C   0  0  0  0  0  0  0  0  0  0  0  0
  160.0810  208.2160  150.8310 F   0  0  0  0  0  0  0  0  0  0  0  0
  162.4600  209.6860  157.0980 O   0  0  0  0  0  1  0  0  0  0  0  0
  162.4630  211.6590  149.7530 C   0  0  0  0  0  3  0  0  0  0  0  0
  161.5810  207.9150  155.7620 C   0  0  2  0  0  3  0  0  0  0  0  0
  159.1540  210.8450  152.3870 C   0  0  0  0  0  2  0  0  0  0  0  0
  161.6510  206.8360  150.0640 F   0  0  0  0  0  0  0  0  0  0  0  0
  161.0060  207.2640  151.2140 C   0  0  0  0  0  0  0  0  0  0  0  0
  161.2060  205.2150  152.1990 C   0  0  2  0  0  3  0  0  0  0  0  0
  162.0830  207.8570  152.1890 C   0  0  2  0  0  3  0  0  0  0  0  0
  158.6870  211.0710  155.6370 O   0  0  0  0  0  0  0  0  0  0  0  0
  161.0150  209.2040  153.8850 C   0  0  1  0  0  3  0  0  0  0  0  0
  161.8520  205.6450  153.5080 C   0  0  0  0  0  2  0  0  0  0  0  0
  160.2860  206.1890  151.7840 O   0  0  0  0  0  0  0  0  0  0  0  0
  159.4950  211.4680  154.7580 C   0  0  0  0  0  0  0  0  0  0  0  0
  161.5670  210.3690  151.6140 C   0  0  0  0  0  0  0  0  0  0  0  0
  161.4280  209.3530  156.2200 C   0  0  2  0  0  3  0  0  0  0  0  0
  160.5270  203.9470  152.3860 N   0  0  0  0  0  1  0  0  0  0  0  0
  160.8720  211.3770  154.9730 O   0  0  0  0  0  0  0  0  0  0  0  0
  162.6100  210.6710  150.7270 C   0  0  0  0  0  3  0  0  0  0  0  0
  160.2150  212.0810  150.5240 C   0  0  0  0  0  3  0  0  0  0  0  0
  161.2650  212.3630  149.6510 C   0  0  0  0  0  3  0  0  0  0  0  0
  158.9890  211.9400  153.4370 C   0  0  0  0  0  2  0  0  0  0  0  0
  161.0860  207.8280  154.3870 N   0  0  1  0  0  0  0  0  0  0  0  0
  161.5690  210.1320  154.9460 C   0  0  2  0  0  3  0  0  0  0  0  0
  162.0900  207.1580  153.5560 C   0  0  2  0  0  3  0  0  0  0  0  0
  160.7710  207.0000  156.6610 C   0  0  0  0  0  1  0  0  0  0  0  0
  161.8580  209.2900  152.6370 C   0  0  2  0  0  3  0  0  0  0  0  0
  1 16  1  0  0  0  0
  1  6  1  0  0  0  0
  2  8  1  0  0  0  0
  4 20  1  0  0  0  0
  5 17  1  0  0  0  0
  5 27  1  1  0  0  0
  6 23  1  0  0  0  0
  7  8  1  0  0  0  0
  8 14  1  0  0  0  0
  9 18  1  1  0  0  0
  9 13  1  0  0  0  0
 10  8  1  6  0  0  0
 10 28  1  0  0  0  0
 10 26  1  0  0  0  0
 12 24  1  0  0  0  0
 12 25  1  0  0  0  0
 13 26  1  0  0  0  0
 14  9  1  0  0  0  0
 15 19  1  0  0  0  0
 15 11  2  0  0  0  0
 16 28  1  0  0  0  0
 17  3  1  0  0  0  0
 20 16  2  0  0  0  0
 21  1  2  0  0  0  0
 22  4  2  0  0  0  0
 22 21  1  0  0  0  0
 23 15  1  0  0  0  0
 24  5  1  0  0  0  0
 25 19  1  0  0  0  0
 25 17  1  0  0  0  0
 26 24  1  0  0  0  0
 28 12  1  0  0  0  0
M  END
>  <MODEL>
6

>  <REMARK>
 VINA RESULT:      -1.9      3.253      6.623
  Name = 
  0 active torsions:
  status: ('A' for Active; 'I' for Inactive)
                            x       y       z     vdW  Elec       q    Type
                         _______ _______ _______ _____ _____    ______ ____

>  <TORSDO>
F 0

$$$$
=
 OpenBabel11122414143D

 28 32  0  0  1  0  0  0  0  0999 V2000
  158.5380  211.3600  155.3330 C   0  0  0  0  0  0  0  0  0  0  0  0
  157.2510  212.3860  152.8610 F   0  0  0  0  0  0  0  0  0  0  0  0
  163.7660  210.3080  152.2950 O   0  0  0  0  0  1  0  0  0  0  0  0
  158.6490  213.8150  156.6940 C   0  0  0  0  0  3  0  0  0  0  0  0
  161.8370  210.8950  151.0190 C   0  0  2  0  0  3  0  0  0  0  0  0
  158.4050  210.0220  154.6680 C   0  0  0  0  0  2  0  0  0  0  0  0
  157.3560  214.4410  152.0090 F   0  0  0  0  0  0  0  0  0  0  0  0
  157.9130  213.1740  151.9380 C   0  0  0  0  0  0  0  0  0  0  0  0
  158.3460  213.3880  149.7080 C   0  0  2  0  0  3  0  0  0  0  0  0
  159.4440  213.2910  152.2640 C   0  0  2  0  0  3  0  0  0  0  0  0
  160.6130  207.7830  153.6960 O   0  0  0  0  0  0  0  0  0  0  0  0
  160.3440  211.1190  152.8140 C   0  0  1  0  0  3  0  0  0  0  0  0
  159.8260  213.0330  149.7190 C   0  0  0  0  0  2  0  0  0  0  0  0
  157.6680  212.6160  150.6620 O   0  0  0  0  0  0  0  0  0  0  0  0
  160.5370  208.7820  154.4580 C   0  0  0  0  0  0  0  0  0  0  0  0
  159.2220  212.4660  154.7500 C   0  0  0  0  0  0  0  0  0  0  0  0
  162.3920  210.0940  152.1820 C   0  0  2  0  0  3  0  0  0  0  0  0
  157.7960  213.1330  148.3900 N   0  0  0  0  0  1  0  0  0  0  0  0
  161.5350  209.7570  154.4430 O   0  0  0  0  0  0  0  0  0  0  0  0
  159.2660  213.6790  155.4500 C   0  0  0  0  0  3  0  0  0  0  0  0
  157.9220  211.5150  156.5810 C   0  0  0  0  0  3  0  0  0  0  0  0
  157.9770  212.7330  157.2590 C   0  0  0  0  0  3  0  0  0  0  0  0
  159.3260  208.9840  155.3050 C   0  0  0  0  0  2  0  0  0  0  0  0
  160.4750  211.3020  151.3650 N   0  0  1  0  0  0  0  0  0  0  0  0
  161.6850  210.6820  153.3660 C   0  0  2  0  0  3  0  0  0  0  0  0
  160.3300  212.7420  151.1370 C   0  0  2  0  0  3  0  0  0  0  0  0
  161.8180  210.0370  149.7680 C   0  0  0  0  0  1  0  0  0  0  0  0
  159.9450  212.4410  153.4190 C   0  0  2  0  0  3  0  0  0  0  0  0
  1 21  1  0  0  0  0
  4 22  1  0  0  0  0
  5 27  1  6  0  0  0
  5 24  1  0  0  0  0
  5 17  1  0  0  0  0
  6 23  1  0  0  0  0
  6  1  1  0  0  0  0
  8  7  1  0  0  0  0
  8  2  1  0  0  0  0
  9 18  1  6  0  0  0
  9 13  1  0  0  0  0
  9 14  1  0  0  0  0
 10  8  1  6  0  0  0
 10 28  1  0  0  0  0
 11 15  2  0  0  0  0
 12 25  1  0  0  0  0
 12 28  1  0  0  0  0
 13 26  1  0  0  0  0
 14  8  1  0  0  0  0
 15 23  1  0  0  0  0
 16  1  2  0  0  0  0
 16 20  1  0  0  0  0
 17  3  1  0  0  0  0
 17 25  1  0  0  0  0
 19 15  1  0  0  0  0
 20  4  2  0  0  0  0
 21 22  2  0  0  0  0
 24 12  1  0  0  0  0
 25 19  1  0  0  0  0
 26 24  1  0  0  0  0
 26 10  1  0  0  0  0
 28 16  1  0  0  0  0
M  END
>  <MODEL>
7

>  <REMARK>
 VINA RESULT:      -1.0      2.365      3.419
  Name = 
  0 active torsions:
  status: ('A' for Active; 'I' for Inactive)
                            x       y       z     vdW  Elec       q    Type
                         _______ _______ _______ _____ _____    ______ ____

>  <TORSDO>
F 0

$$$$
