=
 OpenBabel11122413463D

 37 42  0  0  1  0  0  0  0  0999 V2000
  161.6230  206.1720  147.6330 C   0  0  0  0  0  0  0  0  0  0  0  0
  161.2470  206.8690  151.7200 C   0  0  0  0  0  0  0  0  0  0  0  0
  159.9110  210.0050  152.4520 C   0  0  0  0  0  2  0  0  0  0  0  0
  161.2250  205.2040  149.9640 C   0  0  0  0  0  0  0  0  0  0  0  0
  161.5720  208.2260  151.7680 C   0  0  0  0  0  0  0  0  0  0  0  0
  161.4690  206.4740  150.4410 C   0  0  0  0  0  0  0  0  0  0  0  0
  161.1610  209.2070  152.8560 C   0  0  2  0  0  3  0  0  0  0  0  0
  160.7510  204.2510  150.8820 C   0  0  0  0  0  3  0  0  0  0  0  0
  161.9450  207.5200  149.7320 C   0  0  0  0  0  0  0  0  0  0  0  0
  160.2060  206.5850  147.2700 C   0  0  0  0  0  1  0  0  0  0  0  0
  160.8610  206.2260  154.0750 N   0  0  0  0  0  2  0  0  0  0  0  0
  160.5600  204.6180  152.2400 C   0  0  0  0  0  3  0  0  0  0  0  0
  162.3500  207.3740  148.2940 C   0  0  0  0  0  2  0  0  0  0  0  0
  160.9250  211.5690  150.9620 C   0  0  1  0  0  3  0  0  0  0  0  0
  159.9620  210.4780  151.0710 N   0  0  0  0  0  2  0  0  0  0  0  0
  160.8310  205.9350  152.6790 C   0  0  0  0  0  0  0  0  0  0  0  0
  162.0350  208.6090  150.5300 N   0  0  0  0  0  0  0  0  0  0  0  0
  161.5720  204.8990  148.5290 C   0  0  0  0  0  2  0  0  0  0  0  0
  160.9100  208.6500  154.2690 C   0  0  1  0  0  3  0  0  0  0  0  0
  162.3510  205.8230  146.3520 C   0  0  0  0  0  1  0  0  0  0  0  0
  162.3720  211.0630  151.0160 C   0  0  0  0  0  2  0  0  0  0  0  0
  162.6370  209.8750  150.0890 C   0  0  0  0  0  2  0  0  0  0  0  0
  161.6160  207.3490  154.6090 C   0  0  0  0  0  2  0  0  0  0  0  0
  160.1260  210.3250  155.9500 C   0  0  0  0  0  3  0  0  0  0  0  0
  161.1940  209.6880  155.3100 C   0  0  0  0  0  0  0  0  0  0  0  0
  162.5120  210.0290  155.6520 C   0  0  0  0  0  3  0  0  0  0  0  0
  164.1510  211.3630  156.9860 C   0  0  0  0  0  1  0  0  0  0  0  0
  161.6830  211.6370  157.2610 C   0  0  0  0  0  3  0  0  0  0  0  0
  162.7550  211.0020  156.6260 C   0  0  0  0  0  0  0  0  0  0  0  0
  160.3690  211.2990  156.9240 C   0  0  0  0  0  3  0  0  0  0  0  0
  160.6770  212.3580  149.7180 C   0  0  0  0  0  0  0  0  0  0  0  0
  161.5270  212.1620  148.5870 N   0  0  0  0  0  2  0  0  0  0  0  0
  159.7190  213.1760  149.6620 O   0  0  0  0  0  0  0  0  0  0  0  0
  160.5550  212.1830  146.4550 O   0  0  0  0  0  1  0  0  0  0  0  0
  161.3640  212.9000  147.3400 C   0  0  2  0  0  3  0  0  0  0  0  0
  162.6250  213.3220  145.1980 C   0  0  0  0  0  1  0  0  0  0  0  0
  162.7220  213.1820  146.7080 C   0  0  0  0  0  2  0  0  0  0  0  0
  1 13  1  0  0  0  0
  1 18  1  0  0  0  0
  2  5  2  0  0  0  0
  2 16  1  0  0  0  0
  4  6  1  0  0  0  0
  4  8  2  0  0  0  0
  5  7  1  0  0  0  0
  6  2  1  0  0  0  0
  7  3  1  6  0  0  0
  7 19  1  0  0  0  0
  8 12  1  0  0  0  0
  9  6  2  0  0  0  0
  9 17  1  0  0  0  0
 10  1  1  0  0  0  0
 11 23  1  0  0  0  0
 12 16  2  0  0  0  0
 13  9  1  0  0  0  0
 14 31  1  6  0  0  0
 14 21  1  0  0  0  0
 14 15  1  0  0  0  0
 15  3  1  0  0  0  0
 16 11  1  0  0  0  0
 17  5  1  0  0  0  0
 18  4  1  0  0  0  0
 19 23  1  0  0  0  0
 19 25  1  1  0  0  0
 20  1  1  0  0  0  0
 22 17  1  0  0  0  0
 22 21  1  0  0  0  0
 24 30  1  0  0  0  0
 25 26  1  0  0  0  0
 25 24  2  0  0  0  0
 26 29  2  0  0  0  0
 29 27  1  0  0  0  0
 29 28  1  0  0  0  0
 30 28  2  0  0  0  0
 32 31  1  0  0  0  0
 33 31  2  0  0  0  0
 35 34  1  6  0  0  0
 35 32  1  0  0  0  0
 36 37  1  0  0  0  0
 37 35  1  0  0  0  0
M  END
>  <MODEL>
1

>  <REMARK>
 VINA RESULT:      -5.2      0.000      0.000
  Name = 
  4 active torsions:
  status: ('A' for Active; 'I' for Inactive)
    1  A    between atoms: C_4  and  N_12
    2  A    between atoms: C_4  and  C_37
    3  A    between atoms: C_8  and  C_18
    4  A    between atoms: C_23  and  C_30
                            x       y       z     vdW  Elec       q    Type
                         _______ _______ _______ _____ _____    ______ ____

>  <TORSDO>
F 4

$$$$
=
 OpenBabel11122413463D

 37 42  0  0  1  0  0  0  0  0999 V2000
  161.8100  205.9620  146.5930 C   0  0  0  0  0  0  0  0  0  0  0  0
  161.3030  205.7500  150.7200 C   0  0  0  0  0  0  0  0  0  0  0  0
  160.1130  208.7220  152.1020 C   0  0  0  0  0  2  0  0  0  0  0  0
  161.2620  204.5250  148.6330 C   0  0  0  0  0  0  0  0  0  0  0  0
  161.7000  207.0390  151.0820 C   0  0  0  0  0  0  0  0  0  0  0  0
  161.5560  205.6380  149.3920 C   0  0  0  0  0  0  0  0  0  0  0  0
  161.2990  207.7760  152.3510 C   0  0  2  0  0  3  0  0  0  0  0  0
  160.6980  203.4230  149.2990 C   0  0  0  0  0  3  0  0  0  0  0  0
  162.1190  206.7830  148.9510 C   0  0  0  0  0  0  0  0  0  0  0  0
  160.4350  206.5350  146.2920 C   0  0  0  0  0  1  0  0  0  0  0  0
  160.7830  204.6230  152.8570 N   0  0  0  0  0  2  0  0  0  0  0  0
  160.4700  203.4880  150.6990 C   0  0  0  0  0  3  0  0  0  0  0  0
  162.5750  206.9370  147.5290 C   0  0  0  0  0  2  0  0  0  0  0  0
  161.2740  210.5120  151.0320 C   0  0  1  0  0  3  0  0  0  0  0  0
  160.2480  209.4870  150.8650 N   0  0  0  0  0  2  0  0  0  0  0  0
  160.7950  204.6540  151.4310 C   0  0  0  0  0  0  0  0  0  0  0  0
  162.2350  207.6580  149.9750 N   0  0  0  0  0  0  0  0  0  0  0  0
  161.6520  204.5260  147.1770 C   0  0  0  0  0  2  0  0  0  0  0  0
  160.9580  206.9350  153.5950 C   0  0  1  0  0  3  0  0  0  0  0  0
  162.5710  205.8620  145.2880 C   0  0  0  0  0  1  0  0  0  0  0  0
  162.6860  209.9150  151.0120 C   0  0  0  0  0  2  0  0  0  0  0  0
  162.9240  208.9500  149.8490 C   0  0  0  0  0  2  0  0  0  0  0  0
  161.5760  205.5490  153.6520 C   0  0  0  0  0  2  0  0  0  0  0  0
  160.8080  207.1890  156.0760 C   0  0  0  0  0  3  0  0  0  0  0  0
  161.2550  207.6930  154.8500 C   0  0  0  0  0  0  0  0  0  0  0  0
  161.9750  208.8990  154.8160 C   0  0  0  0  0  3  0  0  0  0  0  0
  163.0000  210.8680  155.9610 C   0  0  0  0  0  1  0  0  0  0  0  0
  161.7880  209.0840  157.2220 C   0  0  0  0  0  3  0  0  0  0  0  0
  162.2400  209.5910  156.0000 C   0  0  0  0  0  0  0  0  0  0  0  0
  161.0730  207.8830  157.2610 C   0  0  0  0  0  3  0  0  0  0  0  0
  161.1230  211.5730  149.9920 C   0  0  0  0  0  0  0  0  0  0  0  0
  161.6290  211.3380  148.6770 N   0  0  0  0  0  2  0  0  0  0  0  0
  160.5390  212.6570  150.2670 O   0  0  0  0  0  0  0  0  0  0  0  0
  160.6400  211.8910  146.6270 O   0  0  0  0  0  1  0  0  0  0  0  0
  161.5360  212.3240  147.6080 C   0  0  2  0  0  3  0  0  0  0  0  0
  162.8200  213.4090  145.7280 C   0  0  0  0  0  1  0  0  0  0  0  0
  162.9090  212.5770  146.9980 C   0  0  0  0  0  2  0  0  0  0  0  0
  1 18  1  0  0  0  0
  1 13  1  0  0  0  0
  2  5  2  0  0  0  0
  2 16  1  0  0  0  0
  4  8  2  0  0  0  0
  4  6  1  0  0  0  0
  5  7  1  0  0  0  0
  6  2  1  0  0  0  0
  7  3  1  6  0  0  0
  7 19  1  0  0  0  0
  8 12  1  0  0  0  0
  9  6  2  0  0  0  0
  9 17  1  0  0  0  0
 10  1  1  0  0  0  0
 11 23  1  0  0  0  0
 12 16  2  0  0  0  0
 13  9  1  0  0  0  0
 14 31  1  6  0  0  0
 15 14  1  0  0  0  0
 15  3  1  0  0  0  0
 16 11  1  0  0  0  0
 17  5  1  0  0  0  0
 18  4  1  0  0  0  0
 19 23  1  0  0  0  0
 19 25  1  1  0  0  0
 20  1  1  0  0  0  0
 21 14  1  0  0  0  0
 22 17  1  0  0  0  0
 22 21  1  0  0  0  0
 24 30  1  0  0  0  0
 25 24  2  0  0  0  0
 26 25  1  0  0  0  0
 26 29  2  0  0  0  0
 27 29  1  0  0  0  0
 28 30  2  0  0  0  0
 29 28  1  0  0  0  0
 31 33  2  0  0  0  0
 32 31  1  0  0  0  0
 35 34  1  6  0  0  0
 35 32  1  0  0  0  0
 36 37  1  0  0  0  0
 37 35  1  0  0  0  0
M  END
>  <MODEL>
2

>  <REMARK>
 VINA RESULT:      -5.0      1.168      1.581
  Name = 
  4 active torsions:
  status: ('A' for Active; 'I' for Inactive)
    1  A    between atoms: C_4  and  N_12
    2  A    between atoms: C_4  and  C_37
    3  A    between atoms: C_8  and  C_18
    4  A    between atoms: C_23  and  C_30
                            x       y       z     vdW  Elec       q    Type
                         _______ _______ _______ _____ _____    ______ ____

>  <TORSDO>
F 4

$$$$
