=
 OpenBabel11122412563D

 32 37  0  0  1  0  0  0  0  0999 V2000
  162.2290  213.5820  148.6320 C   0  0  0  0  0  2  0  0  0  0  0  0
  161.4570  208.5560  149.6580 C   0  0  0  0  0  0  0  0  0  0  0  0
  160.7900  208.3470  154.6330 C   0  0  0  0  0  2  0  0  0  0  0  0
  161.4080  206.9630  154.6010 C   0  0  0  0  0  2  0  0  0  0  0  0
  161.4430  206.3310  148.2530 C   0  0  2  0  0  3  0  0  0  0  0  0
  161.6590  204.8500  148.5110 C   0  0  2  0  0  3  0  0  0  0  0  0
  161.7280  210.7010  148.5920 N   0  0  0  0  0  0  0  0  0  0  0  0
  161.1750  210.6690  150.9950 C   0  0  0  0  0  2  0  0  0  0  0  0
  160.8330  202.9140  149.3560 C   0  0  0  0  0  0  0  0  0  0  0  0
  161.5100  212.8540  149.7800 C   0  0  2  0  0  3  0  0  0  0  0  0
  161.3550  209.1610  153.4780 C   0  0  0  0  0  2  0  0  0  0  0  0
  161.3820  209.2190  150.9350 N   0  0  0  0  0  0  0  0  0  0  0  0
  161.2680  208.4460  152.1460 C   0  0  0  0  0  0  0  0  0  0  0  0
  161.1680  206.3960  150.7730 C   0  0  0  0  0  0  0  0  0  0  0  0
  161.4080  202.5690  148.1000 N   0  0  0  0  0  2  0  0  0  0  0  0
  162.7630  212.6590  147.5290 C   0  0  0  0  0  2  0  0  0  0  0  0
  161.9350  211.3810  149.8780 C   0  0  2  0  0  3  0  0  0  0  0  0
  161.6740  203.8180  147.3930 C   0  0  0  0  0  2  0  0  0  0  0  0
  161.8830  211.4260  147.3320 C   0  0  0  0  0  2  0  0  0  0  0  0
  160.9680  206.2600  153.3240 C   0  0  0  0  0  2  0  0  0  0  0  0
  161.1810  207.0950  152.0820 C   0  0  0  0  0  0  0  0  0  0  0  0
  160.9420  204.9680  150.7540 N   0  0  0  0  0  2  0  0  0  0  0  0
  161.5940  209.2790  148.5410 C   0  0  0  0  0  3  0  0  0  0  0  0
  162.5120  206.8050  147.4890 O   0  0  0  0  0  1  0  0  0  0  0  0
  160.4730  202.0590  150.2070 O   0  0  0  0  0  0  0  0  0  0  0  0
  161.3720  207.0750  149.6030 C   0  0  0  0  0  0  0  0  0  0  0  0
  160.6250  204.3670  149.4740 C   0  0  1  0  0  3  0  0  0  0  0  0
  160.1280  212.9510  149.5900 O   0  0  0  0  0  0  0  0  0  0  0  0
  159.7160  213.9780  150.4440 C   0  0  0  0  0  2  0  0  0  0  0  0
  158.5020  213.5520  151.1900 C   0  0  0  0  0  0  0  0  0  0  0  0
  157.2140  213.7930  150.6350 N   0  0  0  0  0  1  0  0  0  0  0  0
  158.6350  213.0580  152.7400 S   0  0  0  0  0  0  0  0  0  0  0  0
  1 10  1  0  0  0  0
  2 12  1  0  0  0  0
  4  3  1  0  0  0  0
  5 24  1  6  0  0  0
  5  6  1  0  0  0  0
  5 26  1  0  0  0  0
  6 18  1  6  0  0  0
  6 27  1  0  0  0  0
  7 17  1  0  0  0  0
  9 25  2  0  0  0  0
 10 28  1  6  0  0  0
 10 17  1  0  0  0  0
 11  3  1  0  0  0  0
 12  8  1  0  0  0  0
 12 13  1  0  0  0  0
 13 11  1  0  0  0  0
 14 21  1  0  0  0  0
 15  9  1  0  0  0  0
 16  1  1  0  0  0  0
 17  8  1  1  0  0  0
 18 15  1  0  0  0  0
 19 16  1  0  0  0  0
 19  7  1  0  0  0  0
 20  4  1  0  0  0  0
 21 13  2  0  0  0  0
 21 20  1  0  0  0  0
 22 14  1  0  0  0  0
 23  7  1  0  0  0  0
 23  2  2  0  0  0  0
 26  2  1  0  0  0  0
 26 14  2  0  0  0  0
 27  9  1  1  0  0  0
 27 22  1  0  0  0  0
 28 29  1  0  0  0  0
 29 30  1  0  0  0  0
 30 32  2  0  0  0  0
 31 30  1  0  0  0  0
M  END
>  <MODEL>
1

>  <REMARK>
 VINA RESULT:      -7.0      0.000      0.000
  Name = 
  3 active torsions:
  status: ('A' for Active; 'I' for Inactive)
    1  A    between atoms: C_10  and  O_20
    2  A    between atoms: O_20  and  C_29
    3  A    between atoms: C_29  and  C_30
                            x       y       z     vdW  Elec       q    Type
                         _______ _______ _______ _____ _____    ______ ____

>  <TORSDO>
F 3

$$$$
=
 OpenBabel11122412563D

 32 37  0  0  1  0  0  0  0  0999 V2000
  160.1120  208.7090  156.5140 C   0  0  0  0  0  2  0  0  0  0  0  0
  161.2490  207.5070  151.5990 C   0  0  0  0  0  0  0  0  0  0  0  0
  162.1930  211.9160  149.3820 C   0  0  0  0  0  2  0  0  0  0  0  0
  161.6620  211.3190  148.0940 C   0  0  0  0  0  2  0  0  0  0  0  0
  161.3260  205.2970  150.1720 C   0  0  2  0  0  3  0  0  0  0  0  0
  161.2170  204.9130  148.7080 C   0  0  2  0  0  3  0  0  0  0  0  0
  160.7880  207.4490  153.9630 N   0  0  0  0  0  0  0  0  0  0  0  0
  161.4700  209.6030  152.9740 C   0  0  0  0  0  2  0  0  0  0  0  0
  162.2060  204.8450  146.6670 C   0  0  0  0  0  0  0  0  0  0  0  0
  160.9350  209.4280  155.4330 C   0  0  2  0  0  3  0  0  0  0  0  0
  161.5180  211.2240  150.5570 C   0  0  0  0  0  2  0  0  0  0  0  0
  161.3510  208.9430  151.6700 N   0  0  0  0  0  0  0  0  0  0  0  0
  161.5780  209.7130  150.4740 C   0  0  0  0  0  0  0  0  0  0  0  0
  161.7320  207.6030  149.2000 C   0  0  0  0  0  0  0  0  0  0  0  0
  161.5870  203.5740  146.8340 N   0  0  0  0  0  2  0  0  0  0  0  0
  159.5780  207.3320  156.0980 C   0  0  0  0  0  2  0  0  0  0  0  0
  160.6080  208.9060  154.0260 C   0  0  2  0  0  3  0  0  0  0  0  0
  161.2060  203.4650  148.2400 C   0  0  0  0  0  2  0  0  0  0  0  0
  160.5210  206.6150  155.1340 C   0  0  0  0  0  2  0  0  0  0  0  0
  162.0760  209.8550  148.0260 C   0  0  0  0  0  2  0  0  0  0  0  0
  161.7440  209.0850  149.2840 C   0  0  0  0  0  0  0  0  0  0  0  0
  162.0440  206.9810  147.9330 N   0  0  0  0  0  2  0  0  0  0  0  0
  161.0080  206.8020  152.7080 C   0  0  0  0  0  3  0  0  0  0  0  0
  160.1900  204.8280  150.8360 O   0  0  0  0  0  1  0  0  0  0  0  0
  162.6640  205.2490  145.5670 O   0  0  0  0  0  0  0  0  0  0  0  0
  161.4230  206.8320  150.2870 C   0  0  0  0  0  0  0  0  0  0  0  0
  162.3290  205.5590  147.9490 C   0  0  1  0  0  3  0  0  0  0  0  0
  162.2970  209.2650  155.7090 O   0  0  0  0  0  0  0  0  0  0  0  0
  162.4240  209.5440  157.0730 C   0  0  0  0  0  2  0  0  0  0  0  0
  162.7440  210.9840  157.2610 C   0  0  0  0  0  0  0  0  0  0  0  0
  161.6990  211.9490  157.2220 N   0  0  0  0  0  1  0  0  0  0  0  0
  164.3000  211.4770  157.2440 S   0  0  0  0  0  0  0  0  0  0  0  0
  2 12  1  0  0  0  0
  2 23  2  0  0  0  0
  3 11  1  0  0  0  0
  4  3  1  0  0  0  0
  5 26  1  0  0  0  0
  5 24  1  1  0  0  0
  6 18  1  1  0  0  0
  6  5  1  0  0  0  0
  7 17  1  0  0  0  0
  7 19  1  0  0  0  0
  9 15  1  0  0  0  0
 10 28  1  1  0  0  0
 10  1  1  0  0  0  0
 12  8  1  0  0  0  0
 13 11  1  0  0  0  0
 13 12  1  0  0  0  0
 14 21  1  0  0  0  0
 14 26  2  0  0  0  0
 15 18  1  0  0  0  0
 16  1  1  0  0  0  0
 17  8  1  6  0  0  0
 17 10  1  0  0  0  0
 19 16  1  0  0  0  0
 20  4  1  0  0  0  0
 20 21  1  0  0  0  0
 21 13  2  0  0  0  0
 22 27  1  0  0  0  0
 22 14  1  0  0  0  0
 23  7  1  0  0  0  0
 25  9  2  0  0  0  0
 26  2  1  0  0  0  0
 27  9  1  6  0  0  0
 27  6  1  0  0  0  0
 28 29  1  0  0  0  0
 29 30  1  0  0  0  0
 31 30  1  0  0  0  0
 32 30  2  0  0  0  0
M  END
>  <MODEL>
2

>  <REMARK>
 VINA RESULT:      -6.8      2.819      5.647
  Name = 
  3 active torsions:
  status: ('A' for Active; 'I' for Inactive)
    1  A    between atoms: C_10  and  O_20
    2  A    between atoms: O_20  and  C_29
    3  A    between atoms: C_29  and  C_30
                            x       y       z     vdW  Elec       q    Type
                         _______ _______ _______ _____ _____    ______ ____

>  <TORSDO>
F 3

$$$$
=
 OpenBabel11122412563D

 32 37  0  0  1  0  0  0  0  0999 V2000
  162.0040  210.3100  153.7360 C   0  0  0  0  0  2  0  0  0  0  0  0
  161.3750  206.7300  150.0360 C   0  0  0  0  0  0  0  0  0  0  0  0
  160.4300  202.4660  152.5200 C   0  0  0  0  0  2  0  0  0  0  0  0
  161.1030  201.7210  151.3850 C   0  0  0  0  0  2  0  0  0  0  0  0
  161.5310  206.6920  147.4090 C   0  0  2  0  0  3  0  0  0  0  0  0
  161.7900  205.6620  146.3240 C   0  0  2  0  0  3  0  0  0  0  0  0
  161.6220  208.7850  151.2710 N   0  0  0  0  0  0  0  0  0  0  0  0
  160.9320  206.7700  152.5130 C   0  0  0  0  0  2  0  0  0  0  0  0
  160.9950  203.9200  145.1080 C   0  0  0  0  0  0  0  0  0  0  0  0
  161.2500  208.9710  153.7040 C   0  0  2  0  0  3  0  0  0  0  0  0
  161.0280  203.8620  152.6110 C   0  0  0  0  0  2  0  0  0  0  0  0
  161.2000  206.0230  151.2800 N   0  0  0  0  0  0  0  0  0  0  0  0
  161.0460  204.5910  151.2830 C   0  0  0  0  0  0  0  0  0  0  0  0
  161.1080  204.6240  148.8150 C   0  0  0  0  0  0  0  0  0  0  0  0
  161.6540  204.7680  144.1750 N   0  0  0  0  0  2  0  0  0  0  0  0
  162.6380  210.7160  152.3990 C   0  0  0  0  0  2  0  0  0  0  0  0
  161.7260  208.0740  152.5510 C   0  0  2  0  0  3  0  0  0  0  0  0
  161.9110  206.0350  144.8540 C   0  0  0  0  0  2  0  0  0  0  0  0
  161.8200  210.2320  151.2030 C   0  0  0  0  0  2  0  0  0  0  0  0
  160.7660  202.4190  150.0740 C   0  0  0  0  0  2  0  0  0  0  0  0
  161.0180  203.9090  150.1120 C   0  0  0  0  0  0  0  0  0  0  0  0
  160.9400  203.8670  147.5950 N   0  0  0  0  0  2  0  0  0  0  0  0
  161.5470  208.0550  150.0430 C   0  0  0  0  0  3  0  0  0  0  0  0
  162.6230  207.5620  147.4610 O   0  0  0  0  0  1  0  0  0  0  0  0
  160.6200  202.7510  144.8320 O   0  0  0  0  0  0  0  0  0  0  0  0
  161.3520  205.9690  148.7610 C   0  0  0  0  0  0  0  0  0  0  0  0
  160.7230  204.6190  146.3750 C   0  0  1  0  0  3  0  0  0  0  0  0
  159.8780  209.2200  153.5920 O   0  0  0  0  0  0  0  0  0  0  0  0
  159.6510  210.3540  154.3770 C   0  0  0  0  0  2  0  0  0  0  0  0
  158.5770  211.1800  153.7640 C   0  0  0  0  0  0  0  0  0  0  0  0
  158.7530  211.7040  152.4520 N   0  0  0  0  0  1  0  0  0  0  0  0
  157.3330  211.7020  154.6820 S   0  0  0  0  0  0  0  0  0  0  0  0
  2 23  2  0  0  0  0
  2 12  1  0  0  0  0
  3 11  1  0  0  0  0
  4  3  1  0  0  0  0
  5 24  1  1  0  0  0
  5 26  1  0  0  0  0
  6 18  1  6  0  0  0
  6 27  1  0  0  0  0
  6  5  1  0  0  0  0
  7 17  1  0  0  0  0
 10 28  1  6  0  0  0
 10  1  1  0  0  0  0
 12 13  1  0  0  0  0
 12  8  1  0  0  0  0
 13 11  1  0  0  0  0
 14 21  1  0  0  0  0
 15 18  1  0  0  0  0
 15  9  1  0  0  0  0
 16  1  1  0  0  0  0
 17  8  1  6  0  0  0
 17 10  1  0  0  0  0
 19  7  1  0  0  0  0
 19 16  1  0  0  0  0
 20 21  1  0  0  0  0
 20  4  1  0  0  0  0
 21 13  2  0  0  0  0
 22 14  1  0  0  0  0
 23  7  1  0  0  0  0
 25  9  2  0  0  0  0
 26 14  2  0  0  0  0
 26  2  1  0  0  0  0
 27  9  1  6  0  0  0
 27 22  1  0  0  0  0
 28 29  1  0  0  0  0
 30 29  1  0  0  0  0
 30 32  2  0  0  0  0
 31 30  1  0  0  0  0
M  END
>  <MODEL>
3

>  <REMARK>
 VINA RESULT:      -6.5      2.555      4.114
  Name = 
  3 active torsions:
  status: ('A' for Active; 'I' for Inactive)
    1  A    between atoms: C_10  and  O_20
    2  A    between atoms: O_20  and  C_29
    3  A    between atoms: C_29  and  C_30
                            x       y       z     vdW  Elec       q    Type
                         _______ _______ _______ _____ _____    ______ ____

>  <TORSDO>
F 3

$$$$
=
 OpenBabel11122412563D

 32 37  0  0  1  0  0  0  0  0999 V2000
  161.8150  202.0050  150.4840 C   0  0  0  0  0  2  0  0  0  0  0  0
  161.0570  206.8320  152.2240 C   0  0  0  0  0  0  0  0  0  0  0  0
  161.9640  209.7850  148.2620 C   0  0  0  0  0  2  0  0  0  0  0  0
  162.4440  210.8460  149.2330 C   0  0  0  0  0  2  0  0  0  0  0  0
  160.4530  207.9220  154.5420 C   0  0  2  0  0  3  0  0  0  0  0  0
  160.6360  209.2680  155.2210 C   0  0  2  0  0  3  0  0  0  0  0  0
  161.1300  204.4380  151.9540 N   0  0  0  0  0  0  0  0  0  0  0  0
  161.3540  205.8340  149.9330 C   0  0  0  0  0  2  0  0  0  0  0  0
  159.9830  211.4350  155.3840 C   0  0  0  0  0  0  0  0  0  0  0  0
  161.4420  203.3180  149.7760 C   0  0  2  0  0  3  0  0  0  0  0  0
  162.1950  208.4150  148.8820 C   0  0  0  0  0  2  0  0  0  0  0  0
  161.4310  206.9830  150.8400 N   0  0  0  0  0  0  0  0  0  0  0  0
  161.6470  208.2970  150.2890 C   0  0  0  0  0  0  0  0  0  0  0  0
  160.9830  209.2680  152.4590 C   0  0  0  0  0  0  0  0  0  0  0  0
  160.1120  210.9730  156.7240 N   0  0  0  0  0  2  0  0  0  0  0  0
  161.9130  202.1110  152.0110 C   0  0  0  0  0  2  0  0  0  0  0  0
  161.7740  204.5460  150.6380 C   0  0  2  0  0  3  0  0  0  0  0  0
  160.2300  209.5180  156.6650 C   0  0  0  0  0  2  0  0  0  0  0  0
  160.9330  203.1330  152.5820 C   0  0  0  0  0  2  0  0  0  0  0  0
  161.5800  210.7890  150.4860 C   0  0  0  0  0  2  0  0  0  0  0  0
  161.4520  209.3960  151.0570 C   0  0  0  0  0  0  0  0  0  0  0  0
  160.6650  210.4720  153.1930 N   0  0  0  0  0  2  0  0  0  0  0  0
  160.8890  205.6100  152.7380 C   0  0  0  0  0  3  0  0  0  0  0  0
  161.2600  206.9870  155.1940 O   0  0  0  0  0  1  0  0  0  0  0  0
  159.8490  212.6500  155.0840 O   0  0  0  0  0  0  0  0  0  0  0  0
  160.8580  208.0450  153.0580 C   0  0  0  0  0  0  0  0  0  0  0  0
  159.9240  210.3150  154.4290 C   0  0  1  0  0  3  0  0  0  0  0  0
  160.0790  203.2980  149.4610 O   0  0  0  0  0  0  0  0  0  0  0  0
  159.8790  202.0810  148.8040 C   0  0  0  0  0  2  0  0  0  0  0  0
  160.7890  201.9900  147.6310 C   0  0  0  0  0  0  0  0  0  0  0  0
  161.1020  203.1630  146.8890 N   0  0  0  0  0  1  0  0  0  0  0  0
  161.2070  200.5260  147.0420 S   0  0  0  0  0  0  0  0  0  0  0  0
  1 16  1  0  0  0  0
  2 23  2  0  0  0  0
  2 26  1  0  0  0  0
  3 11  1  0  0  0  0
  3  4  1  0  0  0  0
  4 20  1  0  0  0  0
  5 24  1  1  0  0  0
  5  6  1  0  0  0  0
  6 18  1  1  0  0  0
  7 19  1  0  0  0  0
  7 23  1  0  0  0  0
  8 12  1  0  0  0  0
  9 15  1  0  0  0  0
 10 28  1  1  0  0  0
 10  1  1  0  0  0  0
 10 17  1  0  0  0  0
 11 13  1  0  0  0  0
 12  2  1  0  0  0  0
 13 12  1  0  0  0  0
 13 21  2  0  0  0  0
 14 26  2  0  0  0  0
 14 22  1  0  0  0  0
 16 19  1  0  0  0  0
 17  8  1  6  0  0  0
 17  7  1  0  0  0  0
 18 15  1  0  0  0  0
 20 21  1  0  0  0  0
 21 14  1  0  0  0  0
 25  9  2  0  0  0  0
 26  5  1  0  0  0  0
 27 22  1  6  0  0  0
 27  6  1  0  0  0  0
 27  9  1  0  0  0  0
 29 28  1  0  0  0  0
 30 29  1  0  0  0  0
 31 30  1  0  0  0  0
 32 30  2  0  0  0  0
M  END
>  <MODEL>
4

>  <REMARK>
 VINA RESULT:      -4.8      3.512      8.493
  Name = 
  3 active torsions:
  status: ('A' for Active; 'I' for Inactive)
    1  A    between atoms: C_10  and  O_20
    2  A    between atoms: O_20  and  C_29
    3  A    between atoms: C_29  and  C_30
                            x       y       z     vdW  Elec       q    Type
                         _______ _______ _______ _____ _____    ______ ____

>  <TORSDO>
F 3

$$$$
=
 OpenBabel11122412563D

 32 37  0  0  1  0  0  0  0  0999 V2000
  163.0100  205.8400  151.5030 C   0  0  0  0  0  2  0  0  0  0  0  0
  160.0760  209.8310  153.0410 C   0  0  0  0  0  0  0  0  0  0  0  0
  160.6390  213.3000  149.4500 C   0  0  0  0  0  2  0  0  0  0  0  0
  160.4400  214.3570  150.5180 C   0  0  0  0  0  2  0  0  0  0  0  0
  158.5930  210.3730  155.1460 C   0  0  2  0  0  3  0  0  0  0  0  0
  158.0840  211.6130  155.8600 C   0  0  2  0  0  3  0  0  0  0  0  0
  161.1260  207.6780  152.7780 N   0  0  0  0  0  0  0  0  0  0  0  0
  161.2430  209.2560  150.8870 C   0  0  0  0  0  2  0  0  0  0  0  0
  156.6270  213.3520  155.8750 C   0  0  0  0  0  0  0  0  0  0  0  0
  162.3280  206.9850  150.7360 C   0  0  2  0  0  3  0  0  0  0  0  0
  161.2350  212.0580  150.0970 C   0  0  0  0  0  2  0  0  0  0  0  0
  160.6630  210.2520  151.7940 N   0  0  0  0  0  0  0  0  0  0  0  0
  160.4740  211.6000  151.3240 C   0  0  0  0  0  0  0  0  0  0  0  0
  159.0160  212.0260  153.2700 C   0  0  0  0  0  0  0  0  0  0  0  0
  156.6190  212.8350  157.2010 N   0  0  0  0  0  2  0  0  0  0  0  0
  162.7130  205.8170  153.0080 C   0  0  0  0  0  2  0  0  0  0  0  0
  161.9570  208.1520  151.6630 C   0  0  2  0  0  3  0  0  0  0  0  0
  157.2990  211.5440  157.1620 C   0  0  0  0  0  2  0  0  0  0  0  0
  161.3130  206.3360  153.3270 C   0  0  0  0  0  2  0  0  0  0  0  0
  159.4070  213.8550  151.5180 C   0  0  0  0  0  2  0  0  0  0  0  0
  159.7020  212.4630  152.0290 C   0  0  0  0  0  0  0  0  0  0  0  0
  158.1010  212.9430  153.9130 N   0  0  0  0  0  2  0  0  0  0  0  0
  160.2820  208.5880  153.4870 C   0  0  0  0  0  3  0  0  0  0  0  0
  159.5290  209.7440  155.9700 O   0  0  0  0  0  1  0  0  0  0  0  0
  156.1050  214.4530  155.5610 O   0  0  0  0  0  0  0  0  0  0  0  0
  159.2420  210.7900  153.8090 C   0  0  0  0  0  0  0  0  0  0  0  0
  157.2210  212.3950  154.9260 C   0  0  1  0  0  3  0  0  0  0  0  0
  161.1880  206.4910  150.0930 O   0  0  0  0  0  0  0  0  0  0  0  0
  161.5880  206.2620  148.7740 C   0  0  0  0  0  2  0  0  0  0  0  0
  161.1970  204.8870  148.3640 C   0  0  0  0  0  0  0  0  0  0  0  0
  160.7430  203.9620  149.3450 N   0  0  0  0  0  1  0  0  0  0  0  0
  161.5380  204.3630  146.8560 S   0  0  0  0  0  0  0  0  0  0  0  0
  1 16  1  0  0  0  0
  2 23  2  0  0  0  0
  2 26  1  0  0  0  0
  3 11  1  0  0  0  0
  3  4  1  0  0  0  0
  4 20  1  0  0  0  0
  5  6  1  0  0  0  0
  5 24  1  1  0  0  0
  6 18  1  1  0  0  0
  7 19  1  0  0  0  0
  7 23  1  0  0  0  0
  8 12  1  0  0  0  0
  9 15  1  0  0  0  0
 10 28  1  1  0  0  0
 10  1  1  0  0  0  0
 10 17  1  0  0  0  0
 11 13  1  0  0  0  0
 12  2  1  0  0  0  0
 13 12  1  0  0  0  0
 13 21  2  0  0  0  0
 14 26  2  0  0  0  0
 14 22  1  0  0  0  0
 16 19  1  0  0  0  0
 17  8  1  6  0  0  0
 17  7  1  0  0  0  0
 18 15  1  0  0  0  0
 20 21  1  0  0  0  0
 21 14  1  0  0  0  0
 25  9  2  0  0  0  0
 26  5  1  0  0  0  0
 27 22  1  6  0  0  0
 27  6  1  0  0  0  0
 27  9  1  0  0  0  0
 29 28  1  0  0  0  0
 30 29  1  0  0  0  0
 30 31  1  0  0  0  0
 32 30  2  0  0  0  0
M  END
>  <MODEL>
5

>  <REMARK>
 VINA RESULT:      -4.6      3.706      8.486
  Name = 
  3 active torsions:
  status: ('A' for Active; 'I' for Inactive)
    1  A    between atoms: C_10  and  O_20
    2  A    between atoms: O_20  and  C_29
    3  A    between atoms: C_29  and  C_30
                            x       y       z     vdW  Elec       q    Type
                         _______ _______ _______ _____ _____    ______ ____

>  <TORSDO>
F 3

$$$$
=
 OpenBabel11122412563D

 32 37  0  0  1  0  0  0  0  0999 V2000
  161.7900  203.2010  147.0970 C   0  0  0  0  0  2  0  0  0  0  0  0
  161.1740  206.6880  150.8870 C   0  0  0  0  0  0  0  0  0  0  0  0
  162.1330  211.1210  148.7250 C   0  0  0  0  0  2  0  0  0  0  0  0
  162.6470  211.6010  150.0670 C   0  0  0  0  0  2  0  0  0  0  0  0
  160.6140  206.5940  153.4570 C   0  0  2  0  0  3  0  0  0  0  0  0
  160.8370  207.4680  154.6770 C   0  0  2  0  0  3  0  0  0  0  0  0
  161.1800  204.6910  149.5380 N   0  0  0  0  0  0  0  0  0  0  0  0
  161.4280  206.8580  148.3890 C   0  0  0  0  0  2  0  0  0  0  0  0
  160.2440  209.3260  155.8370 C   0  0  0  0  0  0  0  0  0  0  0  0
  161.4480  204.7000  147.0840 C   0  0  2  0  0  3  0  0  0  0  0  0
  162.3310  209.6150  148.6360 C   0  0  0  0  0  2  0  0  0  0  0  0
  161.5420  207.4550  149.7230 N   0  0  0  0  0  0  0  0  0  0  0  0
  161.7890  208.8700  149.8380 C   0  0  0  0  0  0  0  0  0  0  0  0
  161.1660  208.7400  152.2230 C   0  0  0  0  0  0  0  0  0  0  0  0
  160.3690  208.2930  156.8080 N   0  0  0  0  0  2  0  0  0  0  0  0
  161.9020  202.5860  148.4980 C   0  0  0  0  0  2  0  0  0  0  0  0
  161.8180  205.3820  148.4100 C   0  0  2  0  0  3  0  0  0  0  0  0
  160.4480  207.0290  156.0810 C   0  0  0  0  0  2  0  0  0  0  0  0
  160.9530  203.2480  149.4950 C   0  0  0  0  0  2  0  0  0  0  0  0
  161.7900  210.9890  151.1670 C   0  0  0  0  0  2  0  0  0  0  0  0
  161.6290  209.4920  151.0310 C   0  0  0  0  0  0  0  0  0  0  0  0
  160.8850  209.4730  153.4370 N   0  0  0  0  0  2  0  0  0  0  0  0
  160.9760  205.3710  150.7790 C   0  0  0  0  0  3  0  0  0  0  0  0
  161.4000  205.4470  153.5870 O   0  0  0  0  0  1  0  0  0  0  0  0
  160.1400  210.5440  156.1350 O   0  0  0  0  0  0  0  0  0  0  0  0
  161.0120  207.3810  152.1900 C   0  0  0  0  0  0  0  0  0  0  0  0
  160.1480  208.7770  154.4730 C   0  0  1  0  0  3  0  0  0  0  0  0
  160.0830  204.8560  146.8200 O   0  0  0  0  0  0  0  0  0  0  0  0
  160.0240  205.7220  145.7240 C   0  0  0  0  0  2  0  0  0  0  0  0
  160.3380  204.9730  144.4780 C   0  0  0  0  0  0  0  0  0  0  0  0
  159.7120  203.7190  144.2330 N   0  0  0  0  0  1  0  0  0  0  0  0
  161.5820  205.4540  143.5360 S   0  0  0  0  0  0  0  0  0  0  0  0
  1 16  1  0  0  0  0
  2 26  1  0  0  0  0
  3  4  1  0  0  0  0
  4 20  1  0  0  0  0
  5 24  1  1  0  0  0
  5  6  1  0  0  0  0
  6 18  1  1  0  0  0
  7 23  1  0  0  0  0
  8 12  1  0  0  0  0
  9 25  2  0  0  0  0
  9 15  1  0  0  0  0
 10 28  1  1  0  0  0
 10  1  1  0  0  0  0
 10 17  1  0  0  0  0
 11  3  1  0  0  0  0
 11 13  1  0  0  0  0
 12 13  1  0  0  0  0
 12  2  1  0  0  0  0
 13 21  2  0  0  0  0
 14 22  1  0  0  0  0
 16 19  1  0  0  0  0
 17  8  1  6  0  0  0
 17  7  1  0  0  0  0
 18 15  1  0  0  0  0
 19  7  1  0  0  0  0
 21 20  1  0  0  0  0
 21 14  1  0  0  0  0
 23  2  2  0  0  0  0
 26 14  2  0  0  0  0
 26  5  1  0  0  0  0
 27 22  1  6  0  0  0
 27  6  1  0  0  0  0
 27  9  1  0  0  0  0
 29 28  1  0  0  0  0
 30 29  1  0  0  0  0
 31 30  1  0  0  0  0
 32 30  2  0  0  0  0
M  END
>  <MODEL>
6

>  <REMARK>
 VINA RESULT:      -4.2      3.308      7.528
  Name = 
  3 active torsions:
  status: ('A' for Active; 'I' for Inactive)
    1  A    between atoms: C_10  and  O_20
    2  A    between atoms: O_20  and  C_29
    3  A    between atoms: C_29  and  C_30
                            x       y       z     vdW  Elec       q    Type
                         _______ _______ _______ _____ _____    ______ ____

>  <TORSDO>
F 3

$$$$
=
 OpenBabel11122412563D

 32 37  0  0  1  0  0  0  0  0999 V2000
  161.8360  214.3390  147.0730 C   0  0  0  0  0  2  0  0  0  0  0  0
  160.7160  211.4610  151.2410 C   0  0  0  0  0  0  0  0  0  0  0  0
  157.8860  214.4360  154.1360 C   0  0  0  0  0  2  0  0  0  0  0  0
  158.4610  213.7170  155.3400 C   0  0  0  0  0  2  0  0  0  0  0  0
  161.3480  209.0500  152.0860 C   0  0  2  0  0  3  0  0  0  0  0  0
  161.4340  208.3250  153.4170 C   0  0  2  0  0  3  0  0  0  0  0  0
  161.4240  212.2480  149.0750 N   0  0  0  0  0  0  0  0  0  0  0  0
  159.8510  213.6510  150.3540 C   0  0  0  0  0  2  0  0  0  0  0  0
  160.3290  207.3360  155.1340 C   0  0  0  0  0  0  0  0  0  0  0  0
  160.6820  214.3860  148.0890 C   0  0  2  0  0  3  0  0  0  0  0  0
  158.9050  214.3890  153.0060 C   0  0  0  0  0  2  0  0  0  0  0  0
  160.0710  212.7290  151.4720 N   0  0  0  0  0  0  0  0  0  0  0  0
  159.4300  212.9940  152.7350 C   0  0  0  0  0  0  0  0  0  0  0  0
  159.9690  210.6910  153.4420 C   0  0  0  0  0  0  0  0  0  0  0  0
  161.4080  206.4630  154.8210 N   0  0  0  0  0  2  0  0  0  0  0  0
  162.8140  213.1750  147.2740 C   0  0  0  0  0  2  0  0  0  0  0  0
  161.0270  213.6290  149.3800 C   0  0  2  0  0  3  0  0  0  0  0  0
  161.9560  206.9010  153.5400 C   0  0  0  0  0  2  0  0  0  0  0  0
  162.1230  211.9310  147.8310 C   0  0  0  0  0  2  0  0  0  0  0  0
  158.6460  212.2460  154.9900 C   0  0  0  0  0  2  0  0  0  0  0  0
  159.3900  212.0340  153.6900 C   0  0  0  0  0  0  0  0  0  0  0  0
  159.7850  209.6630  154.4410 N   0  0  0  0  0  2  0  0  0  0  0  0
  161.3360  211.2330  150.0780 C   0  0  0  0  0  3  0  0  0  0  0  0
  162.6440  209.2150  151.5900 O   0  0  0  0  0  1  0  0  0  0  0  0
  159.6300  207.2230  156.1740 O   0  0  0  0  0  0  0  0  0  0  0  0
  160.6730  210.4220  152.3000 C   0  0  0  0  0  0  0  0  0  0  0  0
  160.0810  208.3000  154.0480 C   0  0  1  0  0  3  0  0  0  0  0  0
  159.5320  213.8490  147.5010 O   0  0  0  0  0  0  0  0  0  0  0  0
  159.4540  214.4520  146.2430 C   0  0  0  0  0  2  0  0  0  0  0  0
  158.6570  213.5940  145.3260 C   0  0  0  0  0  0  0  0  0  0  0  0
  157.3100  213.2740  145.6540 N   0  0  0  0  0  1  0  0  0  0  0  0
  159.3980  212.8140  144.0990 S   0  0  0  0  0  0  0  0  0  0  0  0
  1 16  1  0  0  0  0
  1 10  1  0  0  0  0
  2 12  1  0  0  0  0
  2 26  1  0  0  0  0
  3  4  1  0  0  0  0
  5 24  1  1  0  0  0
  5 26  1  0  0  0  0
  5  6  1  0  0  0  0
  6 18  1  6  0  0  0
  6 27  1  0  0  0  0
  7 17  1  0  0  0  0
  7 23  1  0  0  0  0
  8 12  1  0  0  0  0
  9 25  2  0  0  0  0
 10 28  1  6  0  0  0
 10 17  1  0  0  0  0
 11  3  1  0  0  0  0
 12 13  1  0  0  0  0
 13 11  1  0  0  0  0
 13 21  2  0  0  0  0
 14 21  1  0  0  0  0
 14 22  1  0  0  0  0
 15  9  1  0  0  0  0
 16 19  1  0  0  0  0
 17  8  1  1  0  0  0
 18 15  1  0  0  0  0
 19  7  1  0  0  0  0
 20  4  1  0  0  0  0
 21 20  1  0  0  0  0
 23  2  2  0  0  0  0
 26 14  2  0  0  0  0
 27 22  1  1  0  0  0
 27  9  1  0  0  0  0
 29 28  1  0  0  0  0
 30 31  1  0  0  0  0
 30 29  1  0  0  0  0
 32 30  2  0  0  0  0
M  END
>  <MODEL>
7

>  <REMARK>
 VINA RESULT:      -4.2      3.836      5.236
  Name = 
  3 active torsions:
  status: ('A' for Active; 'I' for Inactive)
    1  A    between atoms: C_10  and  O_20
    2  A    between atoms: O_20  and  C_29
    3  A    between atoms: C_29  and  C_30
                            x       y       z     vdW  Elec       q    Type
                         _______ _______ _______ _____ _____    ______ ____

>  <TORSDO>
F 3

$$$$
