=
 OpenBabel11122412363D

 30 35  0  0  1  0  0  0  0  0999 V2000
  161.4200  206.1110  150.1780 C   0  0  0  0  0  0  0  0  0  0  0  0
  161.0560  203.6010  149.9340 C   0  0  0  0  0  0  0  0  0  0  0  0
  161.0680  205.9060  154.3510 N   0  0  0  0  0  2  0  0  0  0  0  0
  161.5080  207.2660  150.9910 C   0  0  0  0  0  0  0  0  0  0  0  0
  161.6080  206.2560  148.7680 N   0  0  0  0  0  2  0  0  0  0  0  0
  162.2690  209.8380  148.4740 O   0  0  0  0  0  1  0  0  0  0  0  0
  160.3750  209.8870  152.0520 C   0  0  1  0  0  3  0  0  0  0  0  0
  161.5950  208.6940  148.9100 C   0  0  1  0  0  3  0  0  0  0  0  0
  160.4270  209.1550  153.3390 N   0  0  2  0  0  0  0  0  0  0  0  0
  161.2920  207.2780  154.6570 C   0  0  0  0  0  0  0  0  0  0  0  0
  162.1840  207.4710  148.2140 C   0  0  2  0  0  3  0  0  0  0  0  0
  161.6830  208.5670  150.3750 N   0  0  0  0  0  0  0  0  0  0  0  0
  160.9570  202.2980  150.5990 C   0  0  0  0  0  3  0  0  0  0  0  0
  160.6450  210.1850  154.3470 C   0  0  0  0  0  2  0  0  0  0  0  0
  160.0470  211.3400  152.3470 C   0  0  0  0  0  2  0  0  0  0  0  0
  161.0750  203.6380  148.6760 O   0  0  0  0  0  0  0  0  0  0  0  0
  161.1450  205.8660  152.9360 C   0  0  0  0  0  0  0  0  0  0  0  0
  160.8220  202.2040  151.9200 C   0  0  0  0  0  3  0  0  0  0  0  0
  161.1540  204.8370  150.7510 C   0  0  0  0  0  0  0  0  0  0  0  0
  161.3780  207.1060  152.3780 C   0  0  0  0  0  0  0  0  0  0  0  0
  161.3470  207.6990  155.8420 O   0  0  0  0  0  0  0  0  0  0  0  0
  161.4970  208.1490  153.4470 C   0  0  1  0  0  3  0  0  0  0  0  0
  159.9770  211.4430  153.8490 C   0  0  0  0  0  2  0  0  0  0  0  0
  162.9530  210.1310  151.8270 C   0  0  0  0  0  1  0  0  0  0  0  0
  160.6960  203.4030  152.8200 C   0  0  0  0  0  2  0  0  0  0  0  0
  161.0220  204.7180  152.1550 C   0  0  0  0  0  0  0  0  0  0  0  0
  161.6250  209.8080  151.1510 C   0  0  2  0  0  3  0  0  0  0  0  0
  161.9250  207.5260  146.8420 O   0  0  0  0  0  0  0  0  0  0  0  0
  160.4670  206.2430  145.4710 C   0  0  0  0  0  1  0  0  0  0  0  0
  161.5870  206.2190  146.4890 C   0  0  0  0  0  2  0  0  0  0  0  0
  1 19  2  0  0  0  0
  1  4  1  0  0  0  0
  2 13  1  0  0  0  0
  2 19  1  0  0  0  0
  3 10  1  0  0  0  0
  4 20  2  0  0  0  0
  5  1  1  0  0  0  0
  7 15  1  1  0  0  0
  7  9  1  0  0  0  0
  8  6  1  6  0  0  0
  8 12  1  0  0  0  0
  9 22  1  0  0  0  0
  9 14  1  1  0  0  0
 10 21  2  0  0  0  0
 11 28  1  6  0  0  0
 11  5  1  0  0  0  0
 11  8  1  0  0  0  0
 12  4  1  0  0  0  0
 12 27  1  0  0  0  0
 13 18  2  0  0  0  0
 15 23  1  0  0  0  0
 16  2  2  0  0  0  0
 17  3  1  0  0  0  0
 18 25  1  0  0  0  0
 19 26  1  0  0  0  0
 20 17  1  0  0  0  0
 22 20  1  6  0  0  0
 22 10  1  0  0  0  0
 23 14  1  0  0  0  0
 26 25  1  0  0  0  0
 26 17  2  0  0  0  0
 27 24  1  1  0  0  0
 27  7  1  0  0  0  0
 29 30  1  0  0  0  0
 30 28  1  0  0  0  0
M  END
>  <MODEL>
1

>  <REMARK>
 VINA RESULT:      -8.2      0.000      0.000
  Name = 
  2 active torsions:
  status: ('A' for Active; 'I' for Inactive)
    1  A    between atoms: C_11  and  O_28
    2  A    between atoms: O_28  and  C_30
                            x       y       z     vdW  Elec       q    Type
                         _______ _______ _______ _____ _____    ______ ____

>  <TORSDO>
F 2

$$$$
=
 OpenBabel11122412363D

 30 35  0  0  1  0  0  0  0  0999 V2000
  161.4710  208.0410  149.7120 C   0  0  0  0  0  0  0  0  0  0  0  0
  161.4020  206.1100  148.0520 C   0  0  0  0  0  0  0  0  0  0  0  0
  161.0750  205.4430  152.9790 N   0  0  0  0  0  2  0  0  0  0  0  0
  161.4120  208.5200  151.0420 C   0  0  0  0  0  0  0  0  0  0  0  0
  161.6640  208.9870  148.6570 N   0  0  0  0  0  2  0  0  0  0  0  0
  161.9150  212.1250  150.5120 O   0  0  0  0  0  1  0  0  0  0  0  0
  159.9680  209.9450  153.3140 C   0  0  1  0  0  3  0  0  0  0  0  0
  161.3690  210.8870  150.1630 C   0  0  1  0  0  3  0  0  0  0  0  0
  160.0820  208.6140  153.9530 N   0  0  2  0  0  0  0  0  0  0  0  0
  161.1340  206.4010  154.0290 C   0  0  0  0  0  0  0  0  0  0  0  0
  162.1060  210.3430  148.9420 C   0  0  2  0  0  3  0  0  0  0  0  0
  161.4470  209.9480  151.2940 N   0  0  0  0  0  0  0  0  0  0  0  0
  161.4430  204.6590  147.8450 C   0  0  0  0  0  3  0  0  0  0  0  0
  160.1620  208.8890  155.3820 C   0  0  0  0  0  2  0  0  0  0  0  0
  159.4690  210.9290  154.3580 C   0  0  0  0  0  2  0  0  0  0  0  0
  161.4380  206.8660  147.0460 O   0  0  0  0  0  0  0  0  0  0  0  0
  161.1790  206.2310  151.8050 C   0  0  0  0  0  0  0  0  0  0  0  0
  161.2970  203.8100  148.8600 C   0  0  0  0  0  3  0  0  0  0  0  0
  161.3440  206.6530  149.4320 C   0  0  0  0  0  0  0  0  0  0  0  0
  161.2780  207.5810  152.0740 C   0  0  0  0  0  0  0  0  0  0  0  0
  161.1200  206.0660  155.2420 O   0  0  0  0  0  0  0  0  0  0  0  0
  161.2580  207.8240  153.5530 C   0  0  1  0  0  3  0  0  0  0  0  0
  159.3630  210.1420  155.6390 C   0  0  0  0  0  2  0  0  0  0  0  0
  162.5030  210.4910  153.4750 C   0  0  0  0  0  1  0  0  0  0  0  0
  161.0180  204.2570  150.2690 C   0  0  0  0  0  2  0  0  0  0  0  0
  161.2030  205.7370  150.5020 C   0  0  0  0  0  0  0  0  0  0  0  0
  161.2330  210.5050  152.6320 C   0  0  2  0  0  3  0  0  0  0  0  0
  161.8660  211.1550  147.8320 O   0  0  0  0  0  0  0  0  0  0  0  0
  162.5140  213.3630  147.2390 C   0  0  0  0  0  1  0  0  0  0  0  0
  162.9590  212.0200  147.7780 C   0  0  0  0  0  2  0  0  0  0  0  0
  1  4  1  0  0  0  0
  2 19  1  0  0  0  0
  3 10  1  0  0  0  0
  4 12  1  0  0  0  0
  4 20  2  0  0  0  0
  5 11  1  0  0  0  0
  5  1  1  0  0  0  0
  7  9  1  0  0  0  0
  7 15  1  1  0  0  0
  8  6  1  1  0  0  0
  8 12  1  0  0  0  0
  9 14  1  1  0  0  0
 10 21  2  0  0  0  0
 11 28  1  6  0  0  0
 11  8  1  0  0  0  0
 12 27  1  0  0  0  0
 13  2  1  0  0  0  0
 13 18  2  0  0  0  0
 14 23  1  0  0  0  0
 15 23  1  0  0  0  0
 16  2  2  0  0  0  0
 17 20  1  0  0  0  0
 17  3  1  0  0  0  0
 18 25  1  0  0  0  0
 19  1  2  0  0  0  0
 19 26  1  0  0  0  0
 22 20  1  6  0  0  0
 22  9  1  0  0  0  0
 22 10  1  0  0  0  0
 25 26  1  0  0  0  0
 26 17  2  0  0  0  0
 27  7  1  0  0  0  0
 27 24  1  1  0  0  0
 29 30  1  0  0  0  0
 30 28  1  0  0  0  0
M  END
>  <MODEL>
2

>  <REMARK>
 VINA RESULT:      -6.4      1.804      2.854
  Name = 
  2 active torsions:
  status: ('A' for Active; 'I' for Inactive)
    1  A    between atoms: C_11  and  O_28
    2  A    between atoms: O_28  and  C_30
                            x       y       z     vdW  Elec       q    Type
                         _______ _______ _______ _____ _____    ______ ____

>  <TORSDO>
F 2

$$$$
=
 OpenBabel11122412363D

 30 35  0  0  1  0  0  0  0  0999 V2000
  161.5020  208.3020  151.2910 C   0  0  0  0  0  0  0  0  0  0  0  0
  161.5530  208.7250  153.8030 C   0  0  0  0  0  0  0  0  0  0  0  0
  160.5600  204.2530  151.8420 N   0  0  0  0  0  2  0  0  0  0  0  0
  161.3440  207.4180  150.1980 C   0  0  0  0  0  0  0  0  0  0  0  0
  161.7660  209.6800  151.0190 N   0  0  0  0  0  2  0  0  0  0  0  0
  161.7500  209.7290  147.3640 O   0  0  0  0  0  1  0  0  0  0  0  0
  162.4760  205.7810  147.8920 C   0  0  1  0  0  3  0  0  0  0  0  0
  162.0900  209.2560  148.6350 C   0  0  1  0  0  3  0  0  0  0  0  0
  161.9380  204.6560  148.6910 N   0  0  2  0  0  0  0  0  0  0  0  0
  160.4560  203.8650  150.4770 C   0  0  0  0  0  0  0  0  0  0  0  0
  161.5640  210.2290  149.6870 C   0  0  2  0  0  3  0  0  0  0  0  0
  161.5510  207.9020  148.8460 N   0  0  0  0  0  0  0  0  0  0  0  0
  161.2590  208.2160  155.1460 C   0  0  0  0  0  3  0  0  0  0  0  0
  161.5810  203.6370  147.7120 C   0  0  0  0  0  2  0  0  0  0  0  0
  162.9100  205.2370  146.5420 C   0  0  0  0  0  2  0  0  0  0  0  0
  161.9160  209.9240  153.6760 O   0  0  0  0  0  0  0  0  0  0  0  0
  160.9030  205.6270  151.7700 C   0  0  0  0  0  0  0  0  0  0  0  0
  160.9790  206.9310  155.3540 C   0  0  0  0  0  3  0  0  0  0  0  0
  161.3960  207.8310  152.6290 C   0  0  0  0  0  0  0  0  0  0  0  0
  161.0290  206.0800  150.4730 C   0  0  0  0  0  0  0  0  0  0  0  0
  160.1120  202.7030  150.1370 O   0  0  0  0  0  0  0  0  0  0  0  0
  160.7500  204.9730  149.5020 C   0  0  1  0  0  3  0  0  0  0  0  0
  162.5430  203.7750  146.5570 C   0  0  0  0  0  2  0  0  0  0  0  0
  160.1480  206.6950  147.1910 C   0  0  0  0  0  1  0  0  0  0  0  0
  161.0040  205.8990  154.2600 C   0  0  0  0  0  2  0  0  0  0  0  0
  161.0850  206.4710  152.8650 C   0  0  0  0  0  0  0  0  0  0  0  0
  161.5550  207.0010  147.6910 C   0  0  2  0  0  3  0  0  0  0  0  0
  162.2250  211.4550  149.5830 O   0  0  0  0  0  0  0  0  0  0  0  0
  161.5880  213.3110  148.2420 C   0  0  0  0  0  1  0  0  0  0  0  0
  161.2120  212.3930  149.3850 C   0  0  0  0  0  2  0  0  0  0  0  0
  1 19  1  0  0  0  0
  2 13  1  0  0  0  0
  4 20  1  0  0  0  0
  4  1  2  0  0  0  0
  5  1  1  0  0  0  0
  7 15  1  6  0  0  0
  7  9  1  0  0  0  0
  8  6  1  6  0  0  0
  8 12  1  0  0  0  0
  8 11  1  0  0  0  0
  9 14  1  6  0  0  0
  9 22  1  0  0  0  0
 10  3  1  0  0  0  0
 11 28  1  1  0  0  0
 11  5  1  0  0  0  0
 12  4  1  0  0  0  0
 13 18  2  0  0  0  0
 15 23  1  0  0  0  0
 16  2  2  0  0  0  0
 17  3  1  0  0  0  0
 17 26  1  0  0  0  0
 19 26  2  0  0  0  0
 19  2  1  0  0  0  0
 20 17  2  0  0  0  0
 21 10  2  0  0  0  0
 22 20  1  1  0  0  0
 22 10  1  0  0  0  0
 23 14  1  0  0  0  0
 25 18  1  0  0  0  0
 26 25  1  0  0  0  0
 27 24  1  1  0  0  0
 27  7  1  0  0  0  0
 27 12  1  0  0  0  0
 29 30  1  0  0  0  0
 30 28  1  0  0  0  0
M  END
>  <MODEL>
3

>  <REMARK>
 VINA RESULT:      -6.0      1.865      5.622
  Name = 
  2 active torsions:
  status: ('A' for Active; 'I' for Inactive)
    1  A    between atoms: C_11  and  O_28
    2  A    between atoms: O_28  and  C_30
                            x       y       z     vdW  Elec       q    Type
                         _______ _______ _______ _____ _____    ______ ____

>  <TORSDO>
F 2

$$$$
=
 OpenBabel11122412363D

 30 35  0  0  1  0  0  0  0  0999 V2000
  161.3060  207.6890  150.6190 C   0  0  0  0  0  0  0  0  0  0  0  0
  161.2240  205.5130  149.2960 C   0  0  0  0  0  0  0  0  0  0  0  0
  160.8050  205.6690  154.2590 N   0  0  0  0  0  2  0  0  0  0  0  0
  161.2370  208.3800  151.8510 C   0  0  0  0  0  0  0  0  0  0  0  0
  161.5360  208.4450  149.4270 N   0  0  0  0  0  2  0  0  0  0  0  0
  161.8220  211.8400  150.7480 O   0  0  0  0  0  1  0  0  0  0  0  0
  159.7870  210.1840  153.8320 C   0  0  1  0  0  3  0  0  0  0  0  0
  161.2560  210.5710  150.5950 C   0  0  1  0  0  3  0  0  0  0  0  0
  159.8630  208.9740  154.6810 N   0  0  2  0  0  0  0  0  0  0  0  0
  160.8680  206.7850  155.1390 C   0  0  0  0  0  0  0  0  0  0  0  0
  162.0020  209.8210  149.4950 C   0  0  2  0  0  3  0  0  0  0  0  0
  161.2970  209.8290  151.8670 N   0  0  0  0  0  0  0  0  0  0  0  0
  161.2370  204.0470  149.3300 C   0  0  0  0  0  3  0  0  0  0  0  0
  159.9270  209.4780  156.0480 C   0  0  0  0  0  2  0  0  0  0  0  0
  159.2930  211.3350  154.6900 C   0  0  0  0  0  2  0  0  0  0  0  0
  161.2910  206.0930  148.1810 O   0  0  0  0  0  0  0  0  0  0  0  0
  160.9440  206.2520  152.9740 C   0  0  0  0  0  0  0  0  0  0  0  0
  161.0580  203.3790  150.4680 C   0  0  0  0  0  3  0  0  0  0  0  0
  161.1550  206.2760  150.5670 C   0  0  0  0  0  0  0  0  0  0  0  0
  161.0670  207.6260  153.0210 C   0  0  0  0  0  0  0  0  0  0  0  0
  160.8280  206.6530  156.3900 O   0  0  0  0  0  0  0  0  0  0  0  0
  161.0290  208.1080  154.4390 C   0  0  1  0  0  3  0  0  0  0  0  0
  159.1500  210.7710  156.0810 C   0  0  0  0  0  2  0  0  0  0  0  0
  162.3300  210.7040  153.9490 C   0  0  0  0  0  1  0  0  0  0  0  0
  160.7670  204.0560  151.7790 C   0  0  0  0  0  2  0  0  0  0  0  0
  160.9780  205.5510  151.7690 C   0  0  0  0  0  0  0  0  0  0  0  0
  161.0740  210.6020  153.0910 C   0  0  2  0  0  3  0  0  0  0  0  0
  161.7950  210.4440  148.2620 O   0  0  0  0  0  0  0  0  0  0  0  0
  162.1660  212.6010  147.3350 C   0  0  0  0  0  1  0  0  0  0  0  0
  162.6920  211.5130  148.2470 C   0  0  0  0  0  2  0  0  0  0  0  0
  1  4  1  0  0  0  0
  2 13  1  0  0  0  0
  2 19  1  0  0  0  0
  3 10  1  0  0  0  0
  4 12  1  0  0  0  0
  4 20  2  0  0  0  0
  5 11  1  0  0  0  0
  5  1  1  0  0  0  0
  7  9  1  0  0  0  0
  7 15  1  1  0  0  0
  8  6  1  1  0  0  0
  8 12  1  0  0  0  0
  9 14  1  1  0  0  0
 10 21  2  0  0  0  0
 11 28  1  6  0  0  0
 11  8  1  0  0  0  0
 12 27  1  0  0  0  0
 13 18  2  0  0  0  0
 14 23  1  0  0  0  0
 15 23  1  0  0  0  0
 16  2  2  0  0  0  0
 17 20  1  0  0  0  0
 17  3  1  0  0  0  0
 18 25  1  0  0  0  0
 19  1  2  0  0  0  0
 19 26  1  0  0  0  0
 22 20  1  6  0  0  0
 22  9  1  0  0  0  0
 22 10  1  0  0  0  0
 26 25  1  0  0  0  0
 26 17  2  0  0  0  0
 27  7  1  0  0  0  0
 27 24  1  1  0  0  0
 29 30  1  0  0  0  0
 30 28  1  0  0  0  0
M  END
>  <MODEL>
4

>  <REMARK>
 VINA RESULT:      -6.0      1.615      2.491
  Name = 
  2 active torsions:
  status: ('A' for Active; 'I' for Inactive)
    1  A    between atoms: C_11  and  O_28
    2  A    between atoms: O_28  and  C_30
                            x       y       z     vdW  Elec       q    Type
                         _______ _______ _______ _____ _____    ______ ____

>  <TORSDO>
F 2

$$$$
=
 OpenBabel11122412363D

 30 35  0  0  1  0  0  0  0  0999 V2000
  160.7840  210.5190  151.6980 C   0  0  0  0  0  0  0  0  0  0  0  0
  161.9370  208.6340  150.4280 C   0  0  0  0  0  0  0  0  0  0  0  0
  160.5340  208.2120  155.1900 N   0  0  0  0  0  2  0  0  0  0  0  0
  160.1760  211.0130  152.8760 C   0  0  0  0  0  0  0  0  0  0  0  0
  160.8820  211.3870  150.5660 N   0  0  0  0  0  2  0  0  0  0  0  0
  159.3660  214.4530  151.8540 O   0  0  0  0  0  1  0  0  0  0  0  0
  157.7210  211.8430  154.4760 C   0  0  1  0  0  3  0  0  0  0  0  0
  159.4650  213.0800  151.6110 C   0  0  1  0  0  3  0  0  0  0  0  0
  158.1590  210.7270  155.3450 N   0  0  2  0  0  0  0  0  0  0  0  0
  159.9210  209.1720  156.0430 C   0  0  0  0  0  0  0  0  0  0  0  0
  160.6640  212.8190  150.7040 C   0  0  2  0  0  3  0  0  0  0  0  0
  159.5820  212.3370  152.8770 N   0  0  0  0  0  0  0  0  0  0  0  0
  162.5940  207.3250  150.4910 C   0  0  0  0  0  3  0  0  0  0  0  0
  157.7240  211.1030  156.6850 C   0  0  0  0  0  2  0  0  0  0  0  0
  156.6090  212.5910  155.1910 C   0  0  0  0  0  2  0  0  0  0  0  0
  161.9550  209.2690  149.3400 O   0  0  0  0  0  0  0  0  0  0  0  0
  160.6470  208.8930  153.9520 C   0  0  0  0  0  0  0  0  0  0  0  0
  162.5110  206.5610  151.5790 C   0  0  0  0  0  3  0  0  0  0  0  0
  161.2900  209.1910  151.6420 C   0  0  0  0  0  0  0  0  0  0  0  0
  160.1350  210.1740  153.9980 C   0  0  0  0  0  0  0  0  0  0  0  0
  159.7010  208.9410  157.2610 O   0  0  0  0  0  0  0  0  0  0  0  0
  159.6100  210.4810  155.3680 C   0  0  1  0  0  3  0  0  0  0  0  0
  156.4640  211.9170  156.5310 C   0  0  0  0  0  2  0  0  0  0  0  0
  159.6910  213.4130  155.1120 C   0  0  0  0  0  1  0  0  0  0  0  0
  161.7000  206.9400  152.7880 C   0  0  0  0  0  2  0  0  0  0  0  0
  161.2230  208.3720  152.7940 C   0  0  0  0  0  0  0  0  0  0  0  0
  158.8050  212.8380  154.0130 C   0  0  2  0  0  3  0  0  0  0  0  0
  160.4470  213.3810  149.4450 O   0  0  0  0  0  0  0  0  0  0  0  0
  162.2520  213.7880  147.9520 C   0  0  0  0  0  1  0  0  0  0  0  0
  161.3670  212.7490  148.6070 C   0  0  0  0  0  2  0  0  0  0  0  0
  1  4  1  0  0  0  0
  2 13  1  0  0  0  0
  2 19  1  0  0  0  0
  3 10  1  0  0  0  0
  4 12  1  0  0  0  0
  4 20  2  0  0  0  0
  5 11  1  0  0  0  0
  5  1  1  0  0  0  0
  7 15  1  1  0  0  0
  7  9  1  0  0  0  0
  8  6  1  1  0  0  0
  8 12  1  0  0  0  0
  9 22  1  0  0  0  0
  9 14  1  1  0  0  0
 10 21  2  0  0  0  0
 11 28  1  6  0  0  0
 11  8  1  0  0  0  0
 12 27  1  0  0  0  0
 13 18  2  0  0  0  0
 15 23  1  0  0  0  0
 16  2  2  0  0  0  0
 17 20  1  0  0  0  0
 17  3  1  0  0  0  0
 18 25  1  0  0  0  0
 19  1  2  0  0  0  0
 19 26  1  0  0  0  0
 22 20  1  6  0  0  0
 22 10  1  0  0  0  0
 23 14  1  0  0  0  0
 25 26  1  0  0  0  0
 26 17  2  0  0  0  0
 27  7  1  0  0  0  0
 27 24  1  1  0  0  0
 29 30  1  0  0  0  0
 30 28  1  0  0  0  0
M  END
>  <MODEL>
5

>  <REMARK>
 VINA RESULT:      -6.0      2.916      4.890
  Name = 
  2 active torsions:
  status: ('A' for Active; 'I' for Inactive)
    1  A    between atoms: C_11  and  O_28
    2  A    between atoms: O_28  and  C_30
                            x       y       z     vdW  Elec       q    Type
                         _______ _______ _______ _____ _____    ______ ____

>  <TORSDO>
F 2

$$$$
=
 OpenBabel11122412363D

 30 35  0  0  1  0  0  0  0  0999 V2000
  161.1560  209.0690  152.1840 C   0  0  0  0  0  0  0  0  0  0  0  0
  162.1630  208.8610  149.8530 C   0  0  0  0  0  0  0  0  0  0  0  0
  160.0670  213.0630  151.5190 N   0  0  0  0  0  2  0  0  0  0  0  0
  160.5200  209.8440  153.1830 C   0  0  0  0  0  0  0  0  0  0  0  0
  161.4440  207.6980  152.4680 N   0  0  0  0  0  2  0  0  0  0  0  0
  160.1030  207.3450  155.8500 O   0  0  0  0  0  1  0  0  0  0  0  0
  160.5600  211.3680  155.8200 C   0  0  1  0  0  3  0  0  0  0  0  0
  160.8320  207.9460  154.8200 C   0  0  1  0  0  3  0  0  0  0  0  0
  160.2360  212.5090  154.9330 N   0  0  2  0  0  0  0  0  0  0  0  0
  159.4340  213.3270  152.7660 C   0  0  0  0  0  0  0  0  0  0  0  0
  160.8290  207.0260  153.6020 C   0  0  2  0  0  3  0  0  0  0  0  0
  160.2700  209.2670  154.4900 N   0  0  0  0  0  0  0  0  0  0  0  0
  162.3270  209.4550  148.5220 C   0  0  0  0  0  3  0  0  0  0  0  0
  159.4440  213.4130  155.7590 C   0  0  0  0  0  2  0  0  0  0  0  0
  160.4130  211.8300  157.2590 C   0  0  0  0  0  2  0  0  0  0  0  0
  162.5760  207.6880  150.0470 O   0  0  0  0  0  0  0  0  0  0  0  0
  160.5010  211.7190  151.6470 C   0  0  0  0  0  0  0  0  0  0  0  0
  162.0110  210.7270  148.2880 C   0  0  0  0  0  3  0  0  0  0  0  0
  161.4970  209.6400  150.9270 C   0  0  0  0  0  0  0  0  0  0  0  0
  160.1920  211.1720  152.8750 C   0  0  0  0  0  0  0  0  0  0  0  0
  158.8710  214.4270  153.0110 O   0  0  0  0  0  0  0  0  0  0  0  0
  159.4650  212.1690  153.7260 C   0  0  1  0  0  3  0  0  0  0  0  0
  159.9280  213.2550  157.1800 C   0  0  0  0  0  2  0  0  0  0  0  0
  158.2430  210.2190  155.5640 C   0  0  0  0  0  1  0  0  0  0  0  0
  161.5290  211.6640  149.3620 C   0  0  0  0  0  2  0  0  0  0  0  0
  161.1550  210.9860  150.6580 C   0  0  0  0  0  0  0  0  0  0  0  0
  159.7600  210.0660  155.6060 C   0  0  2  0  0  3  0  0  0  0  0  0
  161.5290  205.8510  153.8850 O   0  0  0  0  0  0  0  0  0  0  0  0
  160.8500  204.1770  152.3400 C   0  0  0  0  0  1  0  0  0  0  0  0
  161.8220  205.3000  152.6370 C   0  0  0  0  0  2  0  0  0  0  0  0
  1  5  1  0  0  0  0
  1  4  1  0  0  0  0
  2 16  2  0  0  0  0
  2 19  1  0  0  0  0
  3 17  1  0  0  0  0
  3 10  1  0  0  0  0
  4 12  1  0  0  0  0
  5 11  1  0  0  0  0
  7 15  1  1  0  0  0
  8  6  1  1  0  0  0
  9 14  1  1  0  0  0
  9  7  1  0  0  0  0
 10 21  2  0  0  0  0
 11 28  1  1  0  0  0
 11  8  1  0  0  0  0
 12  8  1  0  0  0  0
 12 27  1  0  0  0  0
 13  2  1  0  0  0  0
 14 23  1  0  0  0  0
 17 20  1  0  0  0  0
 18 13  2  0  0  0  0
 18 25  1  0  0  0  0
 19  1  2  0  0  0  0
 20  4  2  0  0  0  0
 20 22  1  0  0  0  0
 22 10  1  6  0  0  0
 22  9  1  0  0  0  0
 23 15  1  0  0  0  0
 25 26  1  0  0  0  0
 26 19  1  0  0  0  0
 26 17  2  0  0  0  0
 27 24  1  6  0  0  0
 27  7  1  0  0  0  0
 29 30  1  0  0  0  0
 30 28  1  0  0  0  0
M  END
>  <MODEL>
6

>  <REMARK>
 VINA RESULT:      -5.8      2.463      5.934
  Name = 
  2 active torsions:
  status: ('A' for Active; 'I' for Inactive)
    1  A    between atoms: C_11  and  O_28
    2  A    between atoms: O_28  and  C_30
                            x       y       z     vdW  Elec       q    Type
                         _______ _______ _______ _____ _____    ______ ____

>  <TORSDO>
F 2

$$$$
=
 OpenBabel11122412363D

 30 35  0  0  1  0  0  0  0  0999 V2000
  160.8850  209.7420  152.3200 C   0  0  0  0  0  0  0  0  0  0  0  0
  160.4560  212.2050  151.8300 C   0  0  0  0  0  0  0  0  0  0  0  0
  162.0230  208.9990  148.3530 N   0  0  0  0  0  2  0  0  0  0  0  0
  161.2550  208.4490  151.8800 C   0  0  0  0  0  0  0  0  0  0  0  0
  160.5660  209.9250  153.7010 N   0  0  0  0  0  2  0  0  0  0  0  0
  161.0860  206.5620  155.0340 O   0  0  0  0  0  1  0  0  0  0  0  0
  160.5710  205.5740  151.1410 C   0  0  1  0  0  3  0  0  0  0  0  0
  160.6070  207.5230  154.1380 C   0  0  1  0  0  3  0  0  0  0  0  0
  161.0710  206.0080  149.8160 N   0  0  2  0  0  0  0  0  0  0  0  0
  162.3420  207.6170  148.4720 C   0  0  0  0  0  0  0  0  0  0  0  0
  160.9120  208.9140  154.6870 C   0  0  2  0  0  3  0  0  0  0  0  0
  161.2040  207.3330  152.8060 N   0  0  0  0  0  0  0  0  0  0  0  0
  160.5960  213.3180  150.8860 C   0  0  0  0  0  3  0  0  0  0  0  0
  161.6300  204.8050  149.2140 C   0  0  0  0  0  2  0  0  0  0  0  0
  160.3690  204.0700  151.1000 C   0  0  0  0  0  2  0  0  0  0  0  0
  160.0310  212.4460  152.9910 O   0  0  0  0  0  0  0  0  0  0  0  0
  161.5970  209.3540  149.6580 C   0  0  0  0  0  0  0  0  0  0  0  0
  160.9330  213.1090  149.6150 C   0  0  0  0  0  3  0  0  0  0  0  0
  160.8370  210.8330  151.4100 C   0  0  0  0  0  0  0  0  0  0  0  0
  161.6210  208.2900  150.5360 C   0  0  0  0  0  0  0  0  0  0  0  0
  162.8100  206.9530  147.5100 O   0  0  0  0  0  0  0  0  0  0  0  0
  162.1090  207.0520  149.8470 C   0  0  1  0  0  3  0  0  0  0  0  0
  160.8310  203.6350  149.7330 C   0  0  0  0  0  2  0  0  0  0  0  0
  162.9050  205.6010  152.2830 C   0  0  0  0  0  1  0  0  0  0  0  0
  161.1330  211.7370  149.0340 C   0  0  0  0  0  2  0  0  0  0  0  0
  161.2060  210.6300  150.0590 C   0  0  0  0  0  0  0  0  0  0  0  0
  161.4240  205.9520  152.3700 C   0  0  2  0  0  3  0  0  0  0  0  0
  160.1880  209.1390  155.8600 O   0  0  0  0  0  0  0  0  0  0  0  0
  162.3150  209.3650  156.8960 C   0  0  0  0  0  1  0  0  0  0  0  0
  160.9780  210.0130  156.6070 C   0  0  0  0  0  2  0  0  0  0  0  0
  1  5  1  0  0  0  0
  2 16  2  0  0  0  0
  3 10  1  0  0  0  0
  3 17  1  0  0  0  0
  4  1  1  0  0  0  0
  4 12  1  0  0  0  0
  5 11  1  0  0  0  0
  7 15  1  6  0  0  0
  7 27  1  0  0  0  0
  8 11  1  0  0  0  0
  8  6  1  1  0  0  0
  9 14  1  1  0  0  0
  9 22  1  0  0  0  0
  9  7  1  0  0  0  0
 11 28  1  1  0  0  0
 12  8  1  0  0  0  0
 13  2  1  0  0  0  0
 14 23  1  0  0  0  0
 17 26  2  0  0  0  0
 17 20  1  0  0  0  0
 18 13  2  0  0  0  0
 19  2  1  0  0  0  0
 19  1  2  0  0  0  0
 20  4  2  0  0  0  0
 21 10  2  0  0  0  0
 22 10  1  6  0  0  0
 22 20  1  0  0  0  0
 23 15  1  0  0  0  0
 25 18  1  0  0  0  0
 25 26  1  0  0  0  0
 26 19  1  0  0  0  0
 27 24  1  6  0  0  0
 27 12  1  0  0  0  0
 28 30  1  0  0  0  0
 30 29  1  0  0  0  0
M  END
>  <MODEL>
7

>  <REMARK>
 VINA RESULT:      -5.5      1.947      7.292
  Name = 
  2 active torsions:
  status: ('A' for Active; 'I' for Inactive)
    1  A    between atoms: C_11  and  O_28
    2  A    between atoms: O_28  and  C_30
                            x       y       z     vdW  Elec       q    Type
                         _______ _______ _______ _____ _____    ______ ____

>  <TORSDO>
F 2

$$$$
=
 OpenBabel11122412363D

 30 35  0  0  1  0  0  0  0  0999 V2000
  160.7860  210.4710  151.7180 C   0  0  0  0  0  0  0  0  0  0  0  0
  161.9070  208.2690  151.0960 C   0  0  0  0  0  0  0  0  0  0  0  0
  159.8440  209.0780  155.5590 N   0  0  0  0  0  2  0  0  0  0  0  0
  160.0770  211.2690  152.6480 C   0  0  0  0  0  0  0  0  0  0  0  0
  161.1190  211.0390  150.4490 N   0  0  0  0  0  2  0  0  0  0  0  0
  159.7540  214.4150  150.7680 O   0  0  0  0  0  1  0  0  0  0  0  0
  157.5240  212.6110  153.6250 C   0  0  1  0  0  3  0  0  0  0  0  0
  159.7490  213.0200  150.8570 C   0  0  1  0  0  3  0  0  0  0  0  0
  157.7300  211.7070  154.7800 N   0  0  2  0  0  0  0  0  0  0  0  0
  159.2210  210.2500  156.0710 C   0  0  0  0  0  0  0  0  0  0  0  0
  161.0270  212.4740  150.2270 C   0  0  2  0  0  3  0  0  0  0  0  0
  159.6220  212.5910  152.2600 N   0  0  0  0  0  0  0  0  0  0  0  0
  162.4170  206.9720  151.5520 C   0  0  0  0  0  3  0  0  0  0  0  0
  157.1590  212.4160  155.9190 C   0  0  0  0  0  2  0  0  0  0  0  0
  156.4060  213.5780  153.9750 C   0  0  0  0  0  2  0  0  0  0  0  0
  162.1330  208.6260  149.9100 O   0  0  0  0  0  0  0  0  0  0  0  0
  160.1890  209.4380  154.2320 C   0  0  0  0  0  0  0  0  0  0  0  0
  162.1150  206.4950  152.7580 C   0  0  0  0  0  3  0  0  0  0  0  0
  161.1610  209.1380  152.0410 C   0  0  0  0  0  0  0  0  0  0  0  0
  159.8040  210.7230  153.9100 C   0  0  0  0  0  0  0  0  0  0  0  0
  158.8180  210.3290  157.2610 O   0  0  0  0  0  0  0  0  0  0  0  0
  159.1340  211.3790  155.0790 C   0  0  1  0  0  3  0  0  0  0  0  0
  156.0170  213.2510  155.3940 C   0  0  0  0  0  2  0  0  0  0  0  0
  159.5360  214.1560  154.1860 C   0  0  0  0  0  1  0  0  0  0  0  0
  161.1910  207.2000  153.7120 C   0  0  0  0  0  2  0  0  0  0  0  0
  160.8600  208.6210  153.3230 C   0  0  0  0  0  0  0  0  0  0  0  0
  158.7530  213.3960  153.1220 C   0  0  2  0  0  3  0  0  0  0  0  0
  161.0370  212.7340  148.8550 O   0  0  0  0  0  0  0  0  0  0  0  0
  163.2010  212.5730  147.8830 C   0  0  0  0  0  1  0  0  0  0  0  0
  161.9580  211.8300  148.3250 C   0  0  0  0  0  2  0  0  0  0  0  0
  1 19  2  0  0  0  0
  1  4  1  0  0  0  0
  2 13  1  0  0  0  0
  2 19  1  0  0  0  0
  3 10  1  0  0  0  0
  4 20  2  0  0  0  0
  5  1  1  0  0  0  0
  7 15  1  1  0  0  0
  7  9  1  0  0  0  0
  8  6  1  1  0  0  0
  8 12  1  0  0  0  0
  9 22  1  0  0  0  0
  9 14  1  1  0  0  0
 10 21  2  0  0  0  0
 11 28  1  6  0  0  0
 11  5  1  0  0  0  0
 11  8  1  0  0  0  0
 12  4  1  0  0  0  0
 12 27  1  0  0  0  0
 13 18  2  0  0  0  0
 15 23  1  0  0  0  0
 16  2  2  0  0  0  0
 17  3  1  0  0  0  0
 18 25  1  0  0  0  0
 19 26  1  0  0  0  0
 20 17  1  0  0  0  0
 22 20  1  6  0  0  0
 22 10  1  0  0  0  0
 23 14  1  0  0  0  0
 26 25  1  0  0  0  0
 26 17  2  0  0  0  0
 27  7  1  0  0  0  0
 27 24  1  1  0  0  0
 29 30  1  0  0  0  0
 30 28  1  0  0  0  0
M  END
>  <MODEL>
8

>  <REMARK>
 VINA RESULT:      -5.5      3.082      4.833
  Name = 
  2 active torsions:
  status: ('A' for Active; 'I' for Inactive)
    1  A    between atoms: C_11  and  O_28
    2  A    between atoms: O_28  and  C_30
                            x       y       z     vdW  Elec       q    Type
                         _______ _______ _______ _____ _____    ______ ____

>  <TORSDO>
F 2

$$$$
=
 OpenBabel11122412363D

 30 35  0  0  1  0  0  0  0  0999 V2000
  160.2320  209.4560  153.5600 C   0  0  0  0  0  0  0  0  0  0  0  0
  159.2410  211.6450  154.4090 C   0  0  0  0  0  0  0  0  0  0  0  0
  161.4180  211.2220  149.9470 N   0  0  0  0  0  2  0  0  0  0  0  0
  160.8770  208.7130  152.5440 C   0  0  0  0  0  0  0  0  0  0  0  0
  159.9110  208.7950  154.7870 N   0  0  0  0  0  2  0  0  0  0  0  0
  161.2150  205.4360  154.1800 O   0  0  0  0  0  1  0  0  0  0  0  0
  160.8500  206.6240  150.3270 C   0  0  1  0  0  3  0  0  0  0  0  0
  160.5090  206.6050  153.8860 C   0  0  1  0  0  3  0  0  0  0  0  0
  161.2070  207.7960  149.4940 N   0  0  2  0  0  0  0  0  0  0  0  0
  162.0470  210.0940  149.3480 C   0  0  0  0  0  0  0  0  0  0  0  0
  160.5010  207.5080  155.1170 C   0  0  2  0  0  3  0  0  0  0  0  0
  161.1030  207.2920  152.7260 N   0  0  0  0  0  0  0  0  0  0  0  0
  159.1020  213.0920  154.2180 C   0  0  0  0  0  3  0  0  0  0  0  0
  162.0130  207.2520  148.4080 C   0  0  0  0  0  2  0  0  0  0  0  0
  160.9960  205.3760  149.4740 C   0  0  0  0  0  2  0  0  0  0  0  0
  158.7990  211.1290  155.4690 O   0  0  0  0  0  0  0  0  0  0  0  0
  160.9530  210.7210  151.1890 C   0  0  0  0  0  0  0  0  0  0  0  0
  159.4490  213.6760  153.0740 C   0  0  0  0  0  3  0  0  0  0  0  0
  159.9150  210.8290  153.3680 C   0  0  0  0  0  0  0  0  0  0  0  0
  161.2390  209.3830  151.3670 C   0  0  0  0  0  0  0  0  0  0  0  0
  162.6320  210.1670  148.2360 O   0  0  0  0  0  0  0  0  0  0  0  0
  161.9810  208.8430  150.1820 C   0  0  1  0  0  3  0  0  0  0  0  0
  161.5140  205.8530  148.1420 C   0  0  0  0  0  2  0  0  0  0  0  0
  163.1420  206.5060  151.5460 C   0  0  0  0  0  1  0  0  0  0  0  0
  159.9430  212.9090  151.8780 C   0  0  0  0  0  2  0  0  0  0  0  0
  160.2900  211.4680  152.1620 C   0  0  0  0  0  0  0  0  0  0  0  0
  161.6220  206.4440  151.6500 C   0  0  2  0  0  3  0  0  0  0  0  0
  159.7710  206.9110  156.1470 O   0  0  0  0  0  0  0  0  0  0  0  0
  161.7500  207.9270  156.9860 C   0  0  0  0  0  1  0  0  0  0  0  0
  160.6090  206.9700  157.2610 C   0  0  0  0  0  2  0  0  0  0  0  0
  1  5  1  0  0  0  0
  2 16  2  0  0  0  0
  3 17  1  0  0  0  0
  4 12  1  0  0  0  0
  4  1  2  0  0  0  0
  5 11  1  0  0  0  0
  7 15  1  6  0  0  0
  7 27  1  0  0  0  0
  8  6  1  1  0  0  0
  8 11  1  0  0  0  0
  9 14  1  6  0  0  0
  9 22  1  0  0  0  0
  9  7  1  0  0  0  0
 10  3  1  0  0  0  0
 11 28  1  1  0  0  0
 12  8  1  0  0  0  0
 13  2  1  0  0  0  0
 17 20  2  0  0  0  0
 17 26  1  0  0  0  0
 18 13  2  0  0  0  0
 19  1  1  0  0  0  0
 19  2  1  0  0  0  0
 20  4  1  0  0  0  0
 21 10  2  0  0  0  0
 22 10  1  6  0  0  0
 22 20  1  0  0  0  0
 23 14  1  0  0  0  0
 23 15  1  0  0  0  0
 25 26  1  0  0  0  0
 25 18  1  0  0  0  0
 26 19  2  0  0  0  0
 27 24  1  6  0  0  0
 27 12  1  0  0  0  0
 28 30  1  0  0  0  0
 29 30  1  0  0  0  0
M  END
>  <MODEL>
9

>  <REMARK>
 VINA RESULT:      -5.4      2.106      7.336
  Name = 
  2 active torsions:
  status: ('A' for Active; 'I' for Inactive)
    1  A    between atoms: C_11  and  O_28
    2  A    between atoms: O_28  and  C_30
                            x       y       z     vdW  Elec       q    Type
                         _______ _______ _______ _____ _____    ______ ____

>  <TORSDO>
F 2

$$$$
