=
 OpenBabel11122414413D

 34 40  0  0  1  0  0  0  0  0999 V2000
  161.0910  207.8790  154.4460 C   0  0  1  0  0  3  0  0  0  0  0  0
  162.0800  206.0670  153.2490 C   0  0  0  0  0  2  0  0  0  0  0  0
  156.8590  212.8270  153.9140 C   0  0  1  0  0  3  0  0  0  0  0  0
  159.6510  209.7130  155.4230 C   0  0  0  0  0  0  0  0  0  0  0  0
  159.1380  211.7280  154.1600 C   0  0  0  0  0  0  0  0  0  0  0  0
  158.9120  213.9120  153.0380 N   0  0  0  0  0  1  0  0  0  0  0  0
  156.5240  212.6310  152.5720 O   0  0  0  0  0  1  0  0  0  0  0  0
  156.7160  211.6620  156.2140 C   0  0  0  0  0  2  0  0  0  0  0  0
  162.0110  208.1620  152.2890 C   0  0  2  0  0  3  0  0  0  0  0  0
  161.8750  208.9040  149.1210 C   0  0  0  0  0  2  0  0  0  0  0  0
  159.8380  211.2130  153.0620 C   0  0  0  0  0  3  0  0  0  0  0  0
  158.2220  211.4960  156.4970 C   0  0  0  0  0  2  0  0  0  0  0  0
  161.1700  209.3990  151.9230 C   0  0  1  0  0  3  0  0  0  0  0  0
  162.7240  205.6420  151.6050 S   0  0  0  0  0  0  0  0  0  0  0  0
  159.0290  210.9680  155.3390 C   0  0  0  0  0  0  0  0  0  0  0  0
  156.3080  211.6510  154.7340 C   0  0  0  0  0  2  0  0  0  0  0  0
  161.7610  207.5170  149.7820 C   0  0  1  0  0  3  0  0  0  0  0  0
  160.3850  209.2170  154.3270 C   0  0  0  0  0  0  0  0  0  0  0  0
  158.3780  213.0270  154.0650 C   0  0  1  0  0  3  0  0  0  0  0  0
  160.4930  209.9780  153.1450 C   0  0  0  0  0  0  0  0  0  0  0  0
  160.1860  207.6890  156.7500 C   0  0  0  0  0  2  0  0  0  0  0  0
  162.7020  209.9200  149.9170 C   0  0  0  0  0  2  0  0  0  0  0  0
  159.4990  208.9290  156.5750 O   0  0  0  0  0  0  0  0  0  0  0  0
  161.9740  210.4580  151.1540 C   0  0  0  0  0  2  0  0  0  0  0  0
  162.5630  207.3770  151.0950 C   0  0  1  0  0  3  0  0  0  0  0  0
  160.3260  206.9690  155.4140 C   0  0  0  0  0  2  0  0  0  0  0  0
  161.2400  207.2510  153.1270 N   0  0  2  0  0  0  0  0  0  0  0  0
  160.3560  207.1850  149.9730 N   0  0  0  0  0  2  0  0  0  0  0  0
  159.9900  206.3700  148.9540 O   0  0  0  0  0  0  0  0  0  0  0  0
  161.3850  203.4610  147.7780 O   0  0  0  0  0  0  0  0  0  0  0  0
  161.4280  205.7420  147.1760 C   0  0  0  0  0  2  0  0  0  0  0  0
  161.1450  205.6520  148.6460 C   0  0  2  0  0  3  0  0  0  0  0  0
  161.2420  204.3270  146.6850 C   0  0  0  0  0  2  0  0  0  0  0  0
  160.9000  204.1780  148.8820 C   0  0  0  0  0  2  0  0  0  0  0  0
  1 26  1  1  0  0  0
  3  7  1  6  0  0  0
  3 19  1  0  0  0  0
  3 16  1  0  0  0  0
  4 23  1  0  0  0  0
  5 15  2  0  0  0  0
  6 19  1  0  0  0  0
  8 12  1  0  0  0  0
  9 27  1  0  0  0  0
 10 17  1  0  0  0  0
 10 22  1  0  0  0  0
 11 20  2  0  0  0  0
 11  5  1  0  0  0  0
 13  9  1  0  0  0  0
 13 20  1  0  0  0  0
 14  2  1  0  0  0  0
 15  4  1  0  0  0  0
 15 12  1  0  0  0  0
 16  8  1  0  0  0  0
 17 28  1  0  0  0  0
 17 25  1  0  0  0  0
 18  1  1  0  0  0  0
 18  4  2  0  0  0  0
 19  5  1  0  0  0  0
 20 18  1  0  0  0  0
 22 24  1  0  0  0  0
 23 21  1  0  0  0  0
 24 13  1  0  0  0  0
 25 14  1  0  0  0  0
 25  9  1  0  0  0  0
 26 21  1  0  0  0  0
 27  2  1  0  0  0  0
 27  1  1  0  0  0  0
 29 28  1  0  0  0  0
 30 34  1  0  0  0  0
 31 32  1  0  0  0  0
 32 34  1  0  0  0  0
 32 29  1  0  0  0  0
 33 31  1  0  0  0  0
 33 30  1  0  0  0  0
M  END
>  <MODEL>
1

>  <REMARK>
 VINA RESULT:      -6.6      0.000      0.000
  Name = 
  3 active torsions:
  status: ('A' for Active; 'I' for Inactive)
    1  A    between atoms: C_17  and  N_28
    2  A    between atoms: N_28  and  O_29
    3  A    between atoms: O_29  and  C_32
                            x       y       z     vdW  Elec       q    Type
                         _______ _______ _______ _____ _____    ______ ____

>  <TORSDO>
F 3

$$$$
=
 OpenBabel11122414413D

 34 40  0  0  1  0  0  0  0  0999 V2000
  160.8660  212.0860  151.3480 C   0  0  1  0  0  3  0  0  0  0  0  0
  159.6990  213.7460  152.6050 C   0  0  0  0  0  2  0  0  0  0  0  0
  161.1850  205.6720  150.1540 C   0  0  1  0  0  3  0  0  0  0  0  0
  161.6690  210.0890  150.0220 C   0  0  0  0  0  0  0  0  0  0  0  0
  161.9660  207.9120  151.0650 C   0  0  0  0  0  0  0  0  0  0  0  0
  162.6100  205.8110  152.1810 N   0  0  0  0  0  1  0  0  0  0  0  0
  160.1710  205.2770  151.0300 O   0  0  0  0  0  1  0  0  0  0  0  0
  161.5700  207.0830  148.0260 C   0  0  0  0  0  2  0  0  0  0  0  0
  160.4630  211.8450  153.6630 C   0  0  2  0  0  3  0  0  0  0  0  0
  159.2020  210.3710  156.2780 C   0  0  0  0  0  2  0  0  0  0  0  0
  161.4870  208.4320  152.2750 C   0  0  0  0  0  3  0  0  0  0  0  0
  162.4960  208.1640  148.6140 C   0  0  0  0  0  2  0  0  0  0  0  0
  160.5490  210.3080  153.6760 C   0  0  1  0  0  3  0  0  0  0  0  0
  158.9590  214.0200  154.2410 S   0  0  0  0  0  0  0  0  0  0  0  0
  162.0410  208.7400  149.9300 C   0  0  0  0  0  0  0  0  0  0  0  0
  160.5560  206.4670  149.0000 C   0  0  0  0  0  2  0  0  0  0  0  0
  158.6150  211.5420  155.4680 C   0  0  1  0  0  3  0  0  0  0  0  0
  161.2230  210.6140  151.2510 C   0  0  0  0  0  0  0  0  0  0  0  0
  162.2790  206.4450  150.9120 C   0  0  1  0  0  3  0  0  0  0  0  0
  161.1460  209.7850  152.3890 C   0  0  0  0  0  0  0  0  0  0  0  0
  161.4120  212.3040  148.9360 C   0  0  0  0  0  2  0  0  0  0  0  0
  160.7320  210.2810  156.2470 C   0  0  0  0  0  2  0  0  0  0  0  0
  161.6900  210.9030  148.8800 O   0  0  0  0  0  0  0  0  0  0  0  0
  161.2810  209.7640  154.9120 C   0  0  0  0  0  2  0  0  0  0  0  0
  159.6790  212.4610  154.8270 C   0  0  1  0  0  3  0  0  0  0  0  0
  160.3530  212.5910  149.9950 C   0  0  0  0  0  2  0  0  0  0  0  0
  159.8780  212.3130  152.4110 N   0  0  2  0  0  0  0  0  0  0  0  0
  157.6830  211.0260  154.4740 N   0  0  0  0  0  2  0  0  0  0  0  0
  156.4470  211.0500  155.0280 O   0  0  0  0  0  0  0  0  0  0  0  0
  154.7610  213.7140  156.3900 O   0  0  0  0  0  0  0  0  0  0  0  0
  155.8490  211.7850  157.2030 C   0  0  0  0  0  2  0  0  0  0  0  0
  156.4670  212.1500  155.8860 C   0  0  2  0  0  3  0  0  0  0  0  0
  154.5980  212.6270  157.2610 C   0  0  0  0  0  2  0  0  0  0  0  0
  155.5580  213.2290  155.3420 C   0  0  0  0  0  2  0  0  0  0  0  0
  1 26  1  6  0  0  0
  1 27  1  0  0  0  0
  2 14  1  0  0  0  0
  3 19  1  0  0  0  0
  3  7  1  1  0  0  0
  4 18  1  0  0  0  0
  5 11  2  0  0  0  0
  8 12  1  0  0  0  0
  8 16  1  0  0  0  0
  9 13  1  0  0  0  0
  9 25  1  0  0  0  0
 11 20  1  0  0  0  0
 12 15  1  0  0  0  0
 13 24  1  0  0  0  0
 14 25  1  0  0  0  0
 15  4  2  0  0  0  0
 15  5  1  0  0  0  0
 16  3  1  0  0  0  0
 17 10  1  0  0  0  0
 18  1  1  0  0  0  0
 18 20  2  0  0  0  0
 19  5  1  0  0  0  0
 19  6  1  0  0  0  0
 20 13  1  0  0  0  0
 21 26  1  0  0  0  0
 22 10  1  0  0  0  0
 23 21  1  0  0  0  0
 23  4  1  0  0  0  0
 24 22  1  0  0  0  0
 25 17  1  0  0  0  0
 27  2  1  0  0  0  0
 27  9  1  0  0  0  0
 28 29  1  0  0  0  0
 28 17  1  0  0  0  0
 29 32  1  0  0  0  0
 30 33  1  0  0  0  0
 31 33  1  0  0  0  0
 32 31  1  0  0  0  0
 34 32  1  0  0  0  0
 34 30  1  0  0  0  0
M  END
>  <MODEL>
2

>  <REMARK>
 VINA RESULT:      -6.1      2.576      8.380
  Name = 
  3 active torsions:
  status: ('A' for Active; 'I' for Inactive)
    1  A    between atoms: C_17  and  N_28
    2  A    between atoms: N_28  and  O_29
    3  A    between atoms: O_29  and  C_32
                            x       y       z     vdW  Elec       q    Type
                         _______ _______ _______ _____ _____    ______ ____

>  <TORSDO>
F 3

$$$$
=
 OpenBabel11122414413D

 34 40  0  0  1  0  0  0  0  0999 V2000
  160.6740  209.2030  154.3850 C   0  0  1  0  0  3  0  0  0  0  0  0
  161.5030  206.9880  154.0660 C   0  0  0  0  0  2  0  0  0  0  0  0
  157.2470  213.9800  151.5390 C   0  0  1  0  0  3  0  0  0  0  0  0
  159.4250  211.4000  154.4310 C   0  0  0  0  0  0  0  0  0  0  0  0
  159.3170  212.8370  152.4700 C   0  0  0  0  0  0  0  0  0  0  0  0
  159.5030  214.4530  150.6190 N   0  0  0  0  0  1  0  0  0  0  0  0
  157.0110  213.3310  150.3250 O   0  0  0  0  0  1  0  0  0  0  0  0
  156.7350  213.7800  154.0620 C   0  0  0  0  0  2  0  0  0  0  0  0
  161.8160  208.5680  152.4160 C   0  0  2  0  0  3  0  0  0  0  0  0
  162.0720  208.0810  149.2070 C   0  0  0  0  0  2  0  0  0  0  0  0
  160.0340  211.8830  151.7370 C   0  0  0  0  0  3  0  0  0  0  0  0
  158.1710  213.5850  154.5880 C   0  0  0  0  0  2  0  0  0  0  0  0
  161.1940  209.6540  151.5200 C   0  0  1  0  0  3  0  0  0  0  0  0
  162.2260  205.9180  152.7880 S   0  0  0  0  0  0  0  0  0  0  0  0
  158.9960  212.5870  153.8170 C   0  0  0  0  0  0  0  0  0  0  0  0
  156.4650  213.2570  152.6440 C   0  0  0  0  0  2  0  0  0  0  0  0
  161.7050  207.0600  150.3000 C   0  0  1  0  0  3  0  0  0  0  0  0
  160.1780  210.4620  153.6980 C   0  0  0  0  0  0  0  0  0  0  0  0
  158.7590  214.0730  151.8130 C   0  0  1  0  0  3  0  0  0  0  0  0
  160.4980  210.7100  152.3470 C   0  0  0  0  0  0  0  0  0  0  0  0
  159.5480  209.9770  156.4570 C   0  0  0  0  0  2  0  0  0  0  0  0
  162.9590  209.2350  149.6880 C   0  0  0  0  0  2  0  0  0  0  0  0
  159.0610  211.1230  155.7560 O   0  0  0  0  0  0  0  0  0  0  0  0
  162.2050  210.2650  150.5380 C   0  0  0  0  0  2  0  0  0  0  0  0
  162.3570  207.3430  151.6720 C   0  0  1  0  0  3  0  0  0  0  0  0
  159.7050  208.8000  155.5010 C   0  0  0  0  0  2  0  0  0  0  0  0
  160.8520  208.1160  153.4130 N   0  0  2  0  0  0  0  0  0  0  0  0
  160.2550  206.9620  150.4050 N   0  0  0  0  0  2  0  0  0  0  0  0
  159.8600  205.9370  149.6130 O   0  0  0  0  0  0  0  0  0  0  0  0
  160.7920  202.6350  149.7810 O   0  0  0  0  0  0  0  0  0  0  0  0
  161.2220  204.4610  148.3500 C   0  0  0  0  0  2  0  0  0  0  0  0
  160.8900  205.0010  149.7090 C   0  0  2  0  0  3  0  0  0  0  0  0
  160.8190  203.0090  148.4300 C   0  0  0  0  0  2  0  0  0  0  0  0
  160.4020  203.7910  150.4740 C   0  0  0  0  0  2  0  0  0  0  0  0
  1 26  1  1  0  0  0
  3  7  1  6  0  0  0
  3 19  1  0  0  0  0
  3 16  1  0  0  0  0
  4 23  1  0  0  0  0
  5 15  2  0  0  0  0
  6 19  1  0  0  0  0
  8 12  1  0  0  0  0
  9 27  1  0  0  0  0
 10 22  1  0  0  0  0
 10 17  1  0  0  0  0
 11 20  2  0  0  0  0
 11  5  1  0  0  0  0
 13 20  1  0  0  0  0
 13  9  1  0  0  0  0
 14  2  1  0  0  0  0
 15  4  1  0  0  0  0
 15 12  1  0  0  0  0
 16  8  1  0  0  0  0
 17 28  1  0  0  0  0
 17 25  1  0  0  0  0
 18  1  1  0  0  0  0
 18  4  2  0  0  0  0
 19  5  1  0  0  0  0
 20 18  1  0  0  0  0
 22 24  1  0  0  0  0
 23 21  1  0  0  0  0
 24 13  1  0  0  0  0
 25  9  1  0  0  0  0
 25 14  1  0  0  0  0
 26 21  1  0  0  0  0
 27  2  1  0  0  0  0
 27  1  1  0  0  0  0
 29 32  1  0  0  0  0
 29 28  1  0  0  0  0
 30 34  1  0  0  0  0
 31 33  1  0  0  0  0
 31 32  1  0  0  0  0
 32 34  1  0  0  0  0
 33 30  1  0  0  0  0
M  END
>  <MODEL>
3

>  <REMARK>
 VINA RESULT:      -5.6      1.435      1.810
  Name = 
  3 active torsions:
  status: ('A' for Active; 'I' for Inactive)
    1  A    between atoms: C_17  and  N_28
    2  A    between atoms: N_28  and  O_29
    3  A    between atoms: O_29  and  C_32
                            x       y       z     vdW  Elec       q    Type
                         _______ _______ _______ _____ _____    ______ ____

>  <TORSDO>
F 3

$$$$
=
 OpenBabel11122414413D

 34 40  0  0  1  0  0  0  0  0999 V2000
  161.0010  211.6850  152.1360 C   0  0  1  0  0  3  0  0  0  0  0  0
  159.9920  213.2220  153.6580 C   0  0  0  0  0  2  0  0  0  0  0  0
  161.0290  205.4330  150.2430 C   0  0  1  0  0  3  0  0  0  0  0  0
  161.6300  209.8280  150.5400 C   0  0  0  0  0  0  0  0  0  0  0  0
  161.9500  207.5450  151.3170 C   0  0  0  0  0  0  0  0  0  0  0  0
  162.6230  205.3220  152.1430 N   0  0  0  0  0  1  0  0  0  0  0  0
  160.0810  204.9670  151.1560 O   0  0  0  0  0  1  0  0  0  0  0  0
  161.2760  207.0590  148.2520 C   0  0  0  0  0  2  0  0  0  0  0  0
  160.7860  211.2020  154.4390 C   0  0  2  0  0  3  0  0  0  0  0  0
  159.7060  209.4790  156.9810 C   0  0  0  0  0  2  0  0  0  0  0  0
  161.5890  207.9400  152.6120 C   0  0  0  0  0  3  0  0  0  0  0  0
  162.2800  208.0510  148.8690 C   0  0  0  0  0  2  0  0  0  0  0  0
  160.8280  209.6710  154.2800 C   0  0  1  0  0  3  0  0  0  0  0  0
  159.4010  213.3320  155.3720 S   0  0  0  0  0  0  0  0  0  0  0  0
  161.9540  208.4890  150.2740 C   0  0  0  0  0  0  0  0  0  0  0  0
  160.3300  206.3610  149.2390 C   0  0  0  0  0  2  0  0  0  0  0  0
  159.0880  210.7430  156.3540 C   0  0  1  0  0  3  0  0  0  0  0  0
  161.3050  210.2260  151.8520 C   0  0  0  0  0  0  0  0  0  0  0  0
  162.2050  206.0980  150.9820 C   0  0  1  0  0  3  0  0  0  0  0  0
  161.2990  209.2800  152.8980 C   0  0  0  0  0  0  0  0  0  0  0  0
  161.3490  212.1520  149.7230 C   0  0  0  0  0  2  0  0  0  0  0  0
  161.2250  209.3620  156.8080 C   0  0  0  0  0  2  0  0  0  0  0  0
  161.5800  210.7610  149.4940 O   0  0  0  0  0  0  0  0  0  0  0  0
  161.6440  208.9810  155.3830 C   0  0  0  0  0  2  0  0  0  0  0  0
  160.1210  211.7040  155.7250 C   0  0  1  0  0  3  0  0  0  0  0  0
  160.3910  212.3440  150.8940 C   0  0  0  0  0  2  0  0  0  0  0  0
  160.1130  211.8150  153.2990 N   0  0  2  0  0  0  0  0  0  0  0  0
  158.0610  210.3560  155.3950 N   0  0  0  0  0  2  0  0  0  0  0  0
  156.8640  210.4680  156.0180 O   0  0  0  0  0  0  0  0  0  0  0  0
  155.2350  213.1240  154.5730 O   0  0  0  0  0  0  0  0  0  0  0  0
  156.7760  211.4800  153.8740 C   0  0  0  0  0  2  0  0  0  0  0  0
  155.9940  210.9270  155.0290 C   0  0  2  0  0  3  0  0  0  0  0  0
  156.4440  212.9520  153.8860 C   0  0  0  0  0  2  0  0  0  0  0  0
  155.2210  212.1180  155.5500 C   0  0  0  0  0  2  0  0  0  0  0  0
  1 26  1  6  0  0  0
  1 27  1  0  0  0  0
  2 14  1  0  0  0  0
  3 19  1  0  0  0  0
  3  7  1  1  0  0  0
  4 18  1  0  0  0  0
  5 11  2  0  0  0  0
  8 12  1  0  0  0  0
  8 16  1  0  0  0  0
  9 25  1  0  0  0  0
 11 20  1  0  0  0  0
 12 15  1  0  0  0  0
 13  9  1  0  0  0  0
 13 24  1  0  0  0  0
 14 25  1  0  0  0  0
 15  4  2  0  0  0  0
 15  5  1  0  0  0  0
 16  3  1  0  0  0  0
 17 10  1  0  0  0  0
 18  1  1  0  0  0  0
 18 20  2  0  0  0  0
 19  5  1  0  0  0  0
 19  6  1  0  0  0  0
 20 13  1  0  0  0  0
 21 26  1  0  0  0  0
 22 10  1  0  0  0  0
 23 21  1  0  0  0  0
 23  4  1  0  0  0  0
 24 22  1  0  0  0  0
 25 17  1  0  0  0  0
 27  2  1  0  0  0  0
 27  9  1  0  0  0  0
 28 29  1  0  0  0  0
 28 17  1  0  0  0  0
 30 34  1  0  0  0  0
 31 33  1  0  0  0  0
 31 32  1  0  0  0  0
 32 34  1  0  0  0  0
 32 29  1  0  0  0  0
 33 30  1  0  0  0  0
M  END
>  <MODEL>
4

>  <REMARK>
 VINA RESULT:      -4.7      2.482      7.892
  Name = 
  3 active torsions:
  status: ('A' for Active; 'I' for Inactive)
    1  A    between atoms: C_17  and  N_28
    2  A    between atoms: N_28  and  O_29
    3  A    between atoms: O_29  and  C_32
                            x       y       z     vdW  Elec       q    Type
                         _______ _______ _______ _____ _____    ______ ____

>  <TORSDO>
F 3

$$$$
=
 OpenBabel11122414413D

 34 40  0  0  1  0  0  0  0  0999 V2000
  159.0460  210.8050  154.8670 C   0  0  1  0  0  3  0  0  0  0  0  0
  160.1180  208.8110  155.6200 C   0  0  0  0  0  2  0  0  0  0  0  0
  156.6450  213.7920  149.5770 C   0  0  1  0  0  3  0  0  0  0  0  0
  157.6990  212.6200  153.7340 C   0  0  0  0  0  0  0  0  0  0  0  0
  158.2600  213.4070  151.5010 C   0  0  0  0  0  0  0  0  0  0  0  0
  159.0320  214.4530  149.4070 N   0  0  0  0  0  1  0  0  0  0  0  0
  156.9690  212.8000  148.6500 O   0  0  0  0  0  1  0  0  0  0  0  0
  155.1870  214.1910  151.6710 C   0  0  0  0  0  2  0  0  0  0  0  0
  160.9280  209.9050  153.7580 C   0  0  2  0  0  3  0  0  0  0  0  0
  162.4850  208.6190  151.2050 C   0  0  0  0  0  2  0  0  0  0  0  0
  159.2890  212.4580  151.4310 C   0  0  0  0  0  3  0  0  0  0  0  0
  156.3050  214.4530  152.7000 C   0  0  0  0  0  2  0  0  0  0  0  0
  160.6250  210.5480  152.3930 C   0  0  1  0  0  3  0  0  0  0  0  0
  161.3800  207.6060  155.1140 S   0  0  0  0  0  0  0  0  0  0  0  0
  157.4510  213.4760  152.6500 C   0  0  0  0  0  0  0  0  0  0  0  0
  155.5510  213.2540  150.5110 C   0  0  0  0  0  2  0  0  0  0  0  0
  161.8000  207.8840  152.3730 C   0  0  1  0  0  3  0  0  0  0  0  0
  158.7590  211.6940  153.6710 C   0  0  0  0  0  0  0  0  0  0  0  0
  157.9080  214.2700  150.3170 C   0  0  1  0  0  3  0  0  0  0  0  0
  159.5700  211.6230  152.5190 C   0  0  0  0  0  0  0  0  0  0  0  0
  157.1240  211.8670  156.0250 C   0  0  0  0  0  2  0  0  0  0  0  0
  163.0040  210.0190  151.5510 C   0  0  0  0  0  2  0  0  0  0  0  0
  156.8620  212.6480  154.8580 O   0  0  0  0  0  0  0  0  0  0  0  0
  161.8880  211.0620  151.6850 C   0  0  0  0  0  2  0  0  0  0  0  0
  161.8250  208.6630  153.7070 C   0  0  1  0  0  3  0  0  0  0  0  0
  157.7500  210.5320  155.6380 C   0  0  0  0  0  2  0  0  0  0  0  0
  159.6880  209.5540  154.4430 N   0  0  2  0  0  0  0  0  0  0  0  0
  160.4440  207.5200  151.9880 N   0  0  0  0  0  2  0  0  0  0  0  0
  160.3120  206.1860  152.1840 O   0  0  0  0  0  0  0  0  0  0  0  0
  161.4130  203.4150  150.4800 O   0  0  0  0  0  0  0  0  0  0  0  0
  160.8030  205.6270  149.9310 C   0  0  0  0  0  2  0  0  0  0  0  0
  161.2760  205.6120  151.3550 C   0  0  2  0  0  3  0  0  0  0  0  0
  160.6290  204.1660  149.5940 C   0  0  0  0  0  2  0  0  0  0  0  0
  161.4090  204.1410  151.6800 C   0  0  0  0  0  2  0  0  0  0  0  0
  1 26  1  6  0  0  0
  3  7  1  6  0  0  0
  3 19  1  0  0  0  0
  3 16  1  0  0  0  0
  4 23  1  0  0  0  0
  5 15  1  0  0  0  0
  6 19  1  0  0  0  0
  8 12  1  0  0  0  0
  9 27  1  0  0  0  0
 10 22  1  0  0  0  0
 10 17  1  0  0  0  0
 11  5  2  0  0  0  0
 11 20  1  0  0  0  0
 13 20  1  0  0  0  0
 13  9  1  0  0  0  0
 14  2  1  0  0  0  0
 15 12  1  0  0  0  0
 15  4  2  0  0  0  0
 16  8  1  0  0  0  0
 17 25  1  0  0  0  0
 18  4  1  0  0  0  0
 18  1  1  0  0  0  0
 19  5  1  0  0  0  0
 20 18  2  0  0  0  0
 22 24  1  0  0  0  0
 23 21  1  0  0  0  0
 24 13  1  0  0  0  0
 25  9  1  0  0  0  0
 25 14  1  0  0  0  0
 26 21  1  0  0  0  0
 27  1  1  0  0  0  0
 27  2  1  0  0  0  0
 28 29  1  0  0  0  0
 28 17  1  0  0  0  0
 30 34  1  0  0  0  0
 31 32  1  0  0  0  0
 32 34  1  0  0  0  0
 32 29  1  0  0  0  0
 33 31  1  0  0  0  0
 33 30  1  0  0  0  0
M  END
>  <MODEL>
5

>  <REMARK>
 VINA RESULT:      -4.3      2.326      3.497
  Name = 
  3 active torsions:
  status: ('A' for Active; 'I' for Inactive)
    1  A    between atoms: C_17  and  N_28
    2  A    between atoms: N_28  and  O_29
    3  A    between atoms: O_29  and  C_32
                            x       y       z     vdW  Elec       q    Type
                         _______ _______ _______ _____ _____    ______ ____

>  <TORSDO>
F 3

$$$$
