=
 OpenBabel11122413033D

 32 36  0  0  1  0  0  0  0  0999 V2000
  160.6590  210.1200  151.9890 C   0  0  1  0  0  3  0  0  0  0  0  0
  160.3230  208.8310  156.7280 C   0  0  0  0  0  3  0  0  0  0  0  0
  160.3650  207.4870  156.3520 C   0  0  0  0  0  3  0  0  0  0  0  0
  161.3210  208.4150  150.2260 C   0  0  2  0  0  3  0  0  0  0  0  0
  161.4270  206.8940  150.0270 C   0  0  2  0  0  3  0  0  0  0  0  0
  160.0700  212.4780  151.4480 C   0  0  2  0  0  3  0  0  0  0  0  0
  160.4730  211.8480  153.8100 O   0  0  0  0  0  0  0  0  0  0  0  0
  161.8120  204.7900  150.7910 C   0  0  2  0  0  3  0  0  0  0  0  0
  160.5110  209.8290  155.7710 C   0  0  0  0  0  3  0  0  0  0  0  0
  160.9930  210.5790  153.4150 C   0  0  1  0  0  3  0  0  0  0  0  0
  160.7330  209.4950  154.4270 C   0  0  0  0  0  0  0  0  0  0  0  0
  160.9970  207.7290  152.6010 C   0  0  2  0  0  3  0  0  0  0  0  0
  160.3300  204.8070  150.4610 C   0  0  0  0  0  2  0  0  0  0  0  0
  159.5290  212.3870  152.8940 C   0  0  2  0  0  3  0  0  0  0  0  0
  160.0760  206.2050  149.9370 C   0  0  0  0  0  2  0  0  0  0  0  0
  160.6060  207.1410  155.0200 C   0  0  0  0  0  3  0  0  0  0  0  0
  160.8240  208.1330  154.0520 C   0  0  0  0  0  0  0  0  0  0  0  0
  161.9710  206.5610  152.4330 C   0  0  0  0  0  2  0  0  0  0  0  0
  160.9540  211.2860  151.0650 C   0  0  0  0  0  2  0  0  0  0  0  0
  162.2930  209.0480  149.4510 O   0  0  0  0  0  1  0  0  0  0  0  0
  162.1580  203.8080  151.9060 C   0  0  0  0  0  1  0  0  0  0  0  0
  161.4630  208.8590  151.6850 C   0  0  2  0  0  3  0  0  0  0  0  0
  162.2400  206.1740  151.0230 N   0  0  2  0  0  0  0  0  0  0  0  0
  157.7710  211.5080  154.4380 C   0  0  0  0  0  1  0  0  0  0  0  0
  158.1770  211.6660  152.9830 C   0  0  1  0  0  3  0  0  0  0  0  0
  157.1910  212.3860  152.3040 O   0  0  0  0  0  0  0  0  0  0  0  0
  156.9500  213.5080  153.1030 C   0  0  0  0  0  2  0  0  0  0  0  0
  155.6140  214.0790  152.7820 C   0  0  0  0  0  0  0  0  0  0  0  0
  155.3530  214.4530  151.6100 O   0  0  0  0  0  0  0  0  0  0  0  0
  154.6450  214.1730  153.7720 O   0  0  0  0  0  1  0  0  0  0  0  0
  160.4350  214.4440  149.9610 C   0  0  0  0  0  1  0  0  0  0  0  0
  160.8320  213.7780  151.2640 C   0  0  0  0  0  2  0  0  0  0  0  0
  1 19  1  6  0  0  0
  1 10  1  0  0  0  0
  3  2  1  0  0  0  0
  4 20  1  6  0  0  0
  4 22  1  0  0  0  0
  5 15  1  1  0  0  0
  5  4  1  0  0  0  0
  5 23  1  0  0  0  0
  6 32  1  1  0  0  0
  6 14  1  0  0  0  0
  8 23  1  0  0  0  0
  8 21  1  1  0  0  0
  9  2  2  0  0  0  0
 10  7  1  1  0  0  0
 10 11  1  0  0  0  0
 11  9  1  0  0  0  0
 12 18  1  1  0  0  0
 12 17  1  0  0  0  0
 13  8  1  0  0  0  0
 14 25  1  6  0  0  0
 14  7  1  0  0  0  0
 15 13  1  0  0  0  0
 16  3  2  0  0  0  0
 17 11  2  0  0  0  0
 17 16  1  0  0  0  0
 19  6  1  0  0  0  0
 22  1  1  0  0  0  0
 22 12  1  0  0  0  0
 23 18  1  0  0  0  0
 25 24  1  0  0  0  0
 26 25  1  0  0  0  0
 26 27  1  0  0  0  0
 28 27  1  0  0  0  0
 28 30  1  0  0  0  0
 29 28  2  0  0  0  0
 31 32  1  0  0  0  0
M  END
>  <MODEL>
1

>  <REMARK>
 VINA RESULT:      -4.9      0.000      0.000
  Name = 
  5 active torsions:
  status: ('A' for Active; 'I' for Inactive)
    1  A    between atoms: C_7  and  C_19
    2  A    between atoms: C_10  and  C_17
    3  A    between atoms: C_10  and  O_20
    4  A    between atoms: O_20  and  C_29
    5  A    between atoms: C_29  and  C_30
                            x       y       z     vdW  Elec       q    Type
                         _______ _______ _______ _____ _____    ______ ____

>  <TORSDO>
F 5

$$$$
=
 OpenBabel11122413033D

 32 36  0  0  1  0  0  0  0  0999 V2000
  161.0300  208.8210  152.2140 C   0  0  1  0  0  3  0  0  0  0  0  0
  162.2430  211.8970  148.5670 C   0  0  0  0  0  3  0  0  0  0  0  0
  161.3360  212.8310  149.0700 C   0  0  0  0  0  3  0  0  0  0  0  0
  159.7040  209.6450  154.2170 C   0  0  2  0  0  3  0  0  0  0  0  0
  158.8200  210.8270  154.6500 C   0  0  2  0  0  3  0  0  0  0  0  0
  161.7200  206.4460  151.9220 C   0  0  2  0  0  3  0  0  0  0  0  0
  162.7220  208.1800  150.4620 O   0  0  0  0  0  0  0  0  0  0  0  0
  158.2370  213.0220  154.6060 C   0  0  2  0  0  3  0  0  0  0  0  0
  162.5000  210.7220  149.2750 C   0  0  0  0  0  3  0  0  0  0  0  0
  162.1740  209.2210  151.2710 C   0  0  1  0  0  3  0  0  0  0  0  0
  161.8450  210.4630  150.4870 C   0  0  0  0  0  0  0  0  0  0  0  0
  160.1820  211.1620  152.2970 C   0  0  2  0  0  3  0  0  0  0  0  0
  157.0840  212.3110  153.9210 C   0  0  0  0  0  2  0  0  0  0  0  0
  161.9620  206.9780  150.4900 C   0  0  2  0  0  3  0  0  0  0  0  0
  157.4650  210.8460  153.9640 C   0  0  0  0  0  2  0  0  0  0  0  0
  160.6930  212.5940  150.2870 C   0  0  0  0  0  3  0  0  0  0  0  0
  160.9600  211.4300  151.0230 C   0  0  0  0  0  0  0  0  0  0  0  0
  160.1070  212.3920  153.2030 C   0  0  0  0  0  2  0  0  0  0  0  0
  161.4700  207.5650  152.9400 C   0  0  0  0  0  2  0  0  0  0  0  0
  160.3710  209.1390  155.3320 O   0  0  0  0  0  1  0  0  0  0  0  0
  158.4270  214.4530  154.1120 C   0  0  0  0  0  1  0  0  0  0  0  0
  160.7230  210.0020  153.1300 C   0  0  2  0  0  3  0  0  0  0  0  0
  159.4230  212.1640  154.5040 N   0  0  2  0  0  0  0  0  0  0  0  0
  160.9830  207.6720  148.2980 C   0  0  0  0  0  1  0  0  0  0  0  0
  160.6710  207.1040  149.6710 C   0  0  1  0  0  3  0  0  0  0  0  0
  160.0580  205.8570  149.5280 O   0  0  0  0  0  0  0  0  0  0  0  0
  160.8350  205.1810  148.5820 C   0  0  0  0  0  2  0  0  0  0  0  0
  160.8080  203.7180  148.8570 C   0  0  0  0  0  0  0  0  0  0  0  0
  160.3800  203.2920  149.9600 O   0  0  0  0  0  1  0  0  0  0  0  0
  161.2280  202.8230  147.8830 O   0  0  0  0  0  0  0  0  0  0  0  0
  162.6690  204.1430  151.9690 C   0  0  0  0  0  1  0  0  0  0  0  0
  162.8950  205.5910  152.3600 C   0  0  0  0  0  2  0  0  0  0  0  0
  1 19  1  1  0  0  0
  1 22  1  0  0  0  0
  2  3  2  0  0  0  0
  2  9  1  0  0  0  0
  3 16  1  0  0  0  0
  4  5  1  0  0  0  0
  4 20  1  1  0  0  0
  5 15  1  6  0  0  0
  6 32  1  1  0  0  0
  6 19  1  0  0  0  0
  7 14  1  0  0  0  0
  8 21  1  6  0  0  0
  9 11  2  0  0  0  0
 10  7  1  6  0  0  0
 10  1  1  0  0  0  0
 11 17  1  0  0  0  0
 11 10  1  0  0  0  0
 12 22  1  0  0  0  0
 12 18  1  1  0  0  0
 13 15  1  0  0  0  0
 13  8  1  0  0  0  0
 14 25  1  1  0  0  0
 14  6  1  0  0  0  0
 16 17  2  0  0  0  0
 17 12  1  0  0  0  0
 18 23  1  0  0  0  0
 22  4  1  0  0  0  0
 23  8  1  0  0  0  0
 23  5  1  0  0  0  0
 24 25  1  0  0  0  0
 26 25  1  0  0  0  0
 27 28  1  0  0  0  0
 27 26  1  0  0  0  0
 28 29  1  0  0  0  0
 30 28  2  0  0  0  0
 31 32  1  0  0  0  0
M  END
>  <MODEL>
2

>  <REMARK>
 VINA RESULT:      -4.7      2.997      7.827
  Name = 
  5 active torsions:
  status: ('A' for Active; 'I' for Inactive)
    1  A    between atoms: C_7  and  C_19
    2  A    between atoms: C_10  and  C_17
    3  A    between atoms: C_10  and  O_20
    4  A    between atoms: O_20  and  C_29
    5  A    between atoms: C_29  and  C_30
                            x       y       z     vdW  Elec       q    Type
                         _______ _______ _______ _____ _____    ______ ____

>  <TORSDO>
F 5

$$$$
=
 OpenBabel11122413033D

 32 36  0  0  1  0  0  0  0  0999 V2000
  161.2110  211.0220  149.4180 C   0  0  1  0  0  3  0  0  0  0  0  0
  159.4540  212.3180  153.8310 C   0  0  0  0  0  3  0  0  0  0  0  0
  159.3930  210.9700  154.1880 C   0  0  0  0  0  3  0  0  0  0  0  0
  162.0510  208.6620  149.0000 C   0  0  2  0  0  3  0  0  0  0  0  0
  161.9780  207.2510  149.6080 C   0  0  2  0  0  3  0  0  0  0  0  0
  161.1420  212.7760  147.6520 C   0  0  2  0  0  3  0  0  0  0  0  0
  160.8120  213.4350  150.0170 O   0  0  0  0  0  0  0  0  0  0  0  0
  161.8300  205.8290  151.3730 C   0  0  2  0  0  3  0  0  0  0  0  0
  160.0330  212.6930  152.6170 C   0  0  0  0  0  3  0  0  0  0  0  0
  161.2230  212.1440  150.4670 C   0  0  1  0  0  3  0  0  0  0  0  0
  160.5480  211.7240  151.7440 C   0  0  0  0  0  0  0  0  0  0  0  0
  161.0160  209.2750  151.1840 C   0  0  2  0  0  3  0  0  0  0  0  0
  160.5070  205.6680  150.6460 C   0  0  0  0  0  2  0  0  0  0  0  0
  160.2330  213.4290  148.7190 C   0  0  2  0  0  3  0  0  0  0  0  0
  160.6110  206.6050  149.4610 C   0  0  0  0  0  2  0  0  0  0  0  0
  159.9210  209.9970  153.3360 C   0  0  0  0  0  3  0  0  0  0  0  0
  160.5310  210.3600  152.1250 C   0  0  0  0  0  0  0  0  0  0  0  0
  161.8140  208.1900  151.9080 C   0  0  0  0  0  2  0  0  0  0  0  0
  161.9080  211.5590  148.1830 C   0  0  0  0  0  2  0  0  0  0  0  0
  163.2750  208.8190  148.3500 O   0  0  0  0  0  1  0  0  0  0  0  0
  161.7210  205.5520  152.8690 C   0  0  0  0  0  1  0  0  0  0  0  0
  161.8690  209.7860  150.0240 C   0  0  2  0  0  3  0  0  0  0  0  0
  162.3840  207.1410  151.0200 N   0  0  2  0  0  0  0  0  0  0  0  0
  157.9030  213.7260  149.5720 C   0  0  0  0  0  1  0  0  0  0  0  0
  158.8140  212.8460  148.7340 C   0  0  1  0  0  3  0  0  0  0  0  0
  158.3050  212.7590  147.4360 O   0  0  0  0  0  0  0  0  0  0  0  0
  157.5920  213.9470  147.2480 C   0  0  0  0  0  2  0  0  0  0  0  0
  157.3360  214.1590  145.7970 C   0  0  0  0  0  0  0  0  0  0  0  0
  158.2940  214.1660  144.9820 O   0  0  0  0  0  0  0  0  0  0  0  0
  156.0350  214.3190  145.3400 O   0  0  0  0  0  1  0  0  0  0  0  0
  162.3300  213.5830  145.6150 C   0  0  0  0  0  1  0  0  0  0  0  0
  162.1100  213.8060  147.1000 C   0  0  0  0  0  2  0  0  0  0  0  0
  1 19  1  6  0  0  0
  1 22  1  0  0  0  0
  1 10  1  0  0  0  0
  2  3  1  0  0  0  0
  4 20  1  1  0  0  0
  4  5  1  0  0  0  0
  4 22  1  0  0  0  0
  5 15  1  1  0  0  0
  5 23  1  0  0  0  0
  6 32  1  1  0  0  0
  6 19  1  0  0  0  0
  6 14  1  0  0  0  0
  8 21  1  1  0  0  0
  9  2  2  0  0  0  0
 10  7  1  6  0  0  0
 10 11  1  0  0  0  0
 11 17  2  0  0  0  0
 11  9  1  0  0  0  0
 12 18  1  1  0  0  0
 12 17  1  0  0  0  0
 13  8  1  0  0  0  0
 14 25  1  1  0  0  0
 14  7  1  0  0  0  0
 15 13  1  0  0  0  0
 16  3  2  0  0  0  0
 17 16  1  0  0  0  0
 22 12  1  0  0  0  0
 23  8  1  0  0  0  0
 23 18  1  0  0  0  0
 25 24  1  0  0  0  0
 26 25  1  0  0  0  0
 27 26  1  0  0  0  0
 28 27  1  0  0  0  0
 29 28  2  0  0  0  0
 30 28  1  0  0  0  0
 31 32  1  0  0  0  0
M  END
>  <MODEL>
3

>  <REMARK>
 VINA RESULT:      -4.3      2.907      4.039
  Name = 
  5 active torsions:
  status: ('A' for Active; 'I' for Inactive)
    1  A    between atoms: C_7  and  C_19
    2  A    between atoms: C_10  and  C_17
    3  A    between atoms: C_10  and  O_20
    4  A    between atoms: O_20  and  C_29
    5  A    between atoms: C_29  and  C_30
                            x       y       z     vdW  Elec       q    Type
                         _______ _______ _______ _____ _____    ______ ____

>  <TORSDO>
F 5

$$$$
=
 OpenBabel11122413033D

 32 36  0  0  1  0  0  0  0  0999 V2000
  161.3090  210.4790  150.0060 C   0  0  1  0  0  3  0  0  0  0  0  0
  160.2080  210.8360  154.7910 C   0  0  0  0  0  3  0  0  0  0  0  0
  160.0460  209.4510  154.8430 C   0  0  0  0  0  3  0  0  0  0  0  0
  161.8410  208.2250  148.9630 C   0  0  2  0  0  3  0  0  0  0  0  0
  161.6880  206.7200  149.2460 C   0  0  2  0  0  3  0  0  0  0  0  0
  161.2270  212.5970  148.7000 C   0  0  2  0  0  3  0  0  0  0  0  0
  161.2380  212.7080  151.1750 O   0  0  0  0  0  0  0  0  0  0  0  0
  161.5910  204.9400  150.6530 C   0  0  2  0  0  3  0  0  0  0  0  0
  160.6830  211.4390  153.6250 C   0  0  0  0  0  3  0  0  0  0  0  0
  161.5580  211.3190  151.2660 C   0  0  1  0  0  3  0  0  0  0  0  0
  160.9900  210.6650  152.4970 C   0  0  0  0  0  0  0  0  0  0  0  0
  161.1300  208.3870  151.3480 C   0  0  2  0  0  3  0  0  0  0  0  0
  160.1850  205.0570  150.0930 C   0  0  0  0  0  2  0  0  0  0  0  0
  160.5190  213.0500  149.9970 C   0  0  2  0  0  3  0  0  0  0  0  0
  160.2520  206.2350  149.1440 C   0  0  0  0  0  2  0  0  0  0  0  0
  160.3680  208.6660  153.7340 C   0  0  0  0  0  3  0  0  0  0  0  0
  160.8720  209.2550  152.5640 C   0  0  0  0  0  0  0  0  0  0  0  0
  161.8860  207.1040  151.6980 C   0  0  0  0  0  2  0  0  0  0  0  0
  161.9140  211.2340  148.8390 C   0  0  0  0  0  2  0  0  0  0  0  0
  162.9940  208.4340  148.2060 O   0  0  0  0  0  1  0  0  0  0  0  0
  161.6230  204.3290  152.0510 C   0  0  0  0  0  1  0  0  0  0  0  0
  161.8970  209.0880  150.2270 C   0  0  2  0  0  3  0  0  0  0  0  0
  162.2370  206.2520  150.5300 N   0  0  2  0  0  0  0  0  0  0  0  0
  158.4310  213.0710  151.3710 C   0  0  0  0  0  1  0  0  0  0  0  0
  159.0560  212.5920  150.0730 C   0  0  1  0  0  3  0  0  0  0  0  0
  158.3270  213.0970  148.9940 O   0  0  0  0  0  0  0  0  0  0  0  0
  157.4430  214.0220  149.5590 C   0  0  0  0  0  2  0  0  0  0  0  0
  156.3100  214.2730  148.6270 C   0  0  0  0  0  0  0  0  0  0  0  0
  155.1500  214.4510  149.0790 O   0  0  0  0  0  1  0  0  0  0  0  0
  156.5400  214.3390  147.2590 O   0  0  0  0  0  0  0  0  0  0  0  0
  162.5590  213.4930  146.7940 C   0  0  0  0  0  1  0  0  0  0  0  0
  162.2310  213.6500  148.2660 C   0  0  0  0  0  2  0  0  0  0  0  0
  1 19  1  6  0  0  0
  1 22  1  0  0  0  0
  1 10  1  0  0  0  0
  2  3  1  0  0  0  0
  4 20  1  1  0  0  0
  4  5  1  0  0  0  0
  4 22  1  0  0  0  0
  5 15  1  1  0  0  0
  5 23  1  0  0  0  0
  6 32  1  1  0  0  0
  6 19  1  0  0  0  0
  6 14  1  0  0  0  0
  8 21  1  1  0  0  0
  9  2  2  0  0  0  0
 10  7  1  6  0  0  0
 10 11  1  0  0  0  0
 11 17  2  0  0  0  0
 11  9  1  0  0  0  0
 12 18  1  1  0  0  0
 12 17  1  0  0  0  0
 13  8  1  0  0  0  0
 14 25  1  1  0  0  0
 14  7  1  0  0  0  0
 15 13  1  0  0  0  0
 16  3  2  0  0  0  0
 17 16  1  0  0  0  0
 22 12  1  0  0  0  0
 23  8  1  0  0  0  0
 23 18  1  0  0  0  0
 25 24  1  0  0  0  0
 26 27  1  0  0  0  0
 26 25  1  0  0  0  0
 28 29  1  0  0  0  0
 28 27  1  0  0  0  0
 30 28  2  0  0  0  0
 31 32  1  0  0  0  0
M  END
>  <MODEL>
4

>  <REMARK>
 VINA RESULT:      -4.3      2.044      2.702
  Name = 
  5 active torsions:
  status: ('A' for Active; 'I' for Inactive)
    1  A    between atoms: C_7  and  C_19
    2  A    between atoms: C_10  and  C_17
    3  A    between atoms: C_10  and  O_20
    4  A    between atoms: O_20  and  C_29
    5  A    between atoms: C_29  and  C_30
                            x       y       z     vdW  Elec       q    Type
                         _______ _______ _______ _____ _____    ______ ____

>  <TORSDO>
F 5

$$$$
=
 OpenBabel11122413033D

 32 36  0  0  1  0  0  0  0  0999 V2000
  160.2390  212.0010  151.3390 C   0  0  1  0  0  3  0  0  0  0  0  0
  156.7670  213.5020  154.4890 C   0  0  0  0  0  3  0  0  0  0  0  0
  156.8760  212.2870  155.1680 C   0  0  0  0  0  3  0  0  0  0  0  0
  161.6660  209.9640  151.8570 C   0  0  2  0  0  3  0  0  0  0  0  0
  161.6860  208.7330  152.7790 C   0  0  2  0  0  3  0  0  0  0  0  0
  160.4350  213.2970  149.2220 C   0  0  2  0  0  3  0  0  0  0  0  0
  159.1360  214.2520  151.1030 O   0  0  0  0  0  0  0  0  0  0  0  0
  161.2230  207.6830  154.7390 C   0  0  2  0  0  3  0  0  0  0  0  0
  157.6490  213.8030  153.4500 C   0  0  0  0  0  3  0  0  0  0  0  0
  159.6260  213.2480  151.9920 C   0  0  1  0  0  3  0  0  0  0  0  0
  158.6430  212.8880  153.0730 C   0  0  0  0  0  0  0  0  0  0  0  0
  159.8040  210.6320  153.3750 C   0  0  2  0  0  3  0  0  0  0  0  0
  160.3220  207.0030  153.7240 C   0  0  0  0  0  2  0  0  0  0  0  0
  159.0820  213.8330  149.7450 C   0  0  2  0  0  3  0  0  0  0  0  0
  160.6410  207.6930  152.4140 C   0  0  0  0  0  2  0  0  0  0  0  0
  157.8740  211.3770  154.8150 C   0  0  0  0  0  3  0  0  0  0  0  0
  158.7860  211.6760  153.7910 C   0  0  0  0  0  0  0  0  0  0  0  0
  160.5010  209.9870  154.5740 C   0  0  0  0  0  2  0  0  0  0  0  0
  161.2010  212.4840  150.2710 C   0  0  0  0  0  2  0  0  0  0  0  0
  162.9770  210.3570  151.5870 O   0  0  0  0  0  1  0  0  0  0  0  0
  160.6430  207.6660  156.1500 C   0  0  0  0  0  1  0  0  0  0  0  0
  160.8860  211.1510  152.4300 C   0  0  2  0  0  3  0  0  0  0  0  0
  161.5670  209.0120  154.2210 N   0  0  2  0  0  0  0  0  0  0  0  0
  156.6100  213.5110  149.9230 C   0  0  0  0  0  1  0  0  0  0  0  0
  157.9170  212.8670  149.4950 C   0  0  1  0  0  3  0  0  0  0  0  0
  157.8440  212.5270  148.1420 O   0  0  0  0  0  0  0  0  0  0  0  0
  157.1850  213.6000  147.5360 C   0  0  0  0  0  2  0  0  0  0  0  0
  156.9740  213.3140  146.0910 C   0  0  0  0  0  0  0  0  0  0  0  0
  157.6250  212.3950  145.5290 O   0  0  0  0  0  1  0  0  0  0  0  0
  156.0380  214.0420  145.3700 O   0  0  0  0  0  0  0  0  0  0  0  0
  162.3950  213.9360  147.8220 C   0  0  0  0  0  1  0  0  0  0  0  0
  161.2880  214.4490  148.7230 C   0  0  0  0  0  2  0  0  0  0  0  0
  1 19  1  6  0  0  0
  1 10  1  0  0  0  0
  1 22  1  0  0  0  0
  2  3  1  0  0  0  0
  4 20  1  1  0  0  0
  4 22  1  0  0  0  0
  4  5  1  0  0  0  0
  5 15  1  6  0  0  0
  5 23  1  0  0  0  0
  6 32  1  1  0  0  0
  6 14  1  0  0  0  0
  6 19  1  0  0  0  0
  8 21  1  1  0  0  0
  9  2  2  0  0  0  0
 10  7  1  6  0  0  0
 10 11  1  0  0  0  0
 11  9  1  0  0  0  0
 11 17  2  0  0  0  0
 12 17  1  0  0  0  0
 12 18  1  1  0  0  0
 13  8  1  0  0  0  0
 14 25  1  1  0  0  0
 14  7  1  0  0  0  0
 15 13  1  0  0  0  0
 16  3  2  0  0  0  0
 17 16  1  0  0  0  0
 22 12  1  0  0  0  0
 23 18  1  0  0  0  0
 23  8  1  0  0  0  0
 25 24  1  0  0  0  0
 26 25  1  0  0  0  0
 27 26  1  0  0  0  0
 28 27  1  0  0  0  0
 29 28  1  0  0  0  0
 30 28  2  0  0  0  0
 31 32  1  0  0  0  0
M  END
>  <MODEL>
5

>  <REMARK>
 VINA RESULT:      -4.3      2.707      4.493
  Name = 
  5 active torsions:
  status: ('A' for Active; 'I' for Inactive)
    1  A    between atoms: C_7  and  C_19
    2  A    between atoms: C_10  and  C_17
    3  A    between atoms: C_10  and  O_20
    4  A    between atoms: O_20  and  C_29
    5  A    between atoms: C_29  and  C_30
                            x       y       z     vdW  Elec       q    Type
                         _______ _______ _______ _____ _____    ______ ____

>  <TORSDO>
F 5

$$$$
=
 OpenBabel11122413033D

 32 36  0  0  1  0  0  0  0  0999 V2000
  161.1950  207.7840  152.5830 C   0  0  1  0  0  3  0  0  0  0  0  0
  162.3280  211.0910  149.1170 C   0  0  0  0  0  3  0  0  0  0  0  0
  161.5560  212.0410  149.7890 C   0  0  0  0  0  3  0  0  0  0  0  0
  160.1370  208.5120  154.7730 C   0  0  2  0  0  3  0  0  0  0  0  0
  159.4030  209.7130  155.3950 C   0  0  2  0  0  3  0  0  0  0  0  0
  161.6470  205.4010  152.0150 C   0  0  2  0  0  3  0  0  0  0  0  0
  162.6550  207.1840  150.6210 O   0  0  0  0  0  0  0  0  0  0  0  0
  159.0110  211.9410  155.6030 C   0  0  2  0  0  3  0  0  0  0  0  0
  162.5460  209.8370  149.6900 C   0  0  0  0  0  3  0  0  0  0  0  0
  162.2770  208.1820  151.5690 C   0  0  1  0  0  3  0  0  0  0  0  0
  161.9860  209.5160  150.9340 C   0  0  0  0  0  0  0  0  0  0  0  0
  160.5660  210.1650  152.9560 C   0  0  2  0  0  3  0  0  0  0  0  0
  157.7420  211.3900  154.9780 C   0  0  0  0  0  2  0  0  0  0  0  0
  161.8010  206.0480  150.6190 C   0  0  2  0  0  3  0  0  0  0  0  0
  157.9970  209.9030  154.8520 C   0  0  0  0  0  2  0  0  0  0  0  0
  161.0100  211.7390  151.0390 C   0  0  0  0  0  3  0  0  0  0  0  0
  161.2430  210.4930  151.6400 C   0  0  0  0  0  0  0  0  0  0  0  0
  160.6810  211.3040  153.9700 C   0  0  0  0  0  2  0  0  0  0  0  0
  161.5900  206.4330  153.1480 C   0  0  0  0  0  2  0  0  0  0  0  0
  160.8580  207.8510  155.7670 O   0  0  0  0  0  1  0  0  0  0  0  0
  159.2790  213.3930  155.2200 C   0  0  0  0  0  1  0  0  0  0  0  0
  161.0780  208.8910  153.6260 C   0  0  2  0  0  3  0  0  0  0  0  0
  160.1040  211.0060  155.3080 N   0  0  2  0  0  0  0  0  0  0  0  0
  160.6600  207.3150  148.7920 C   0  0  0  0  0  1  0  0  0  0  0  0
  160.4550  206.3520  149.9480 C   0  0  1  0  0  3  0  0  0  0  0  0
  159.8680  205.1770  149.4720 O   0  0  0  0  0  0  0  0  0  0  0  0
  160.8270  204.6120  148.6260 C   0  0  0  0  0  2  0  0  0  0  0  0
  160.7500  203.1270  148.6930 C   0  0  0  0  0  0  0  0  0  0  0  0
  161.2990  202.4270  147.8040 O   0  0  0  0  0  0  0  0  0  0  0  0
  160.0960  202.5150  149.7540 O   0  0  0  0  0  1  0  0  0  0  0  0
  162.3050  202.9980  152.0150 C   0  0  0  0  0  1  0  0  0  0  0  0
  162.7780  204.4190  152.2560 C   0  0  0  0  0  2  0  0  0  0  0  0
  1 19  1  1  0  0  0
  1 22  1  0  0  0  0
  2  9  2  0  0  0  0
  2  3  1  0  0  0  0
  3 16  2  0  0  0  0
  4  5  1  0  0  0  0
  4 20  1  1  0  0  0
  5 15  1  6  0  0  0
  6 32  1  1  0  0  0
  6 19  1  0  0  0  0
  8 21  1  6  0  0  0
  9 11  1  0  0  0  0
 10  7  1  6  0  0  0
 10  1  1  0  0  0  0
 11 10  1  0  0  0  0
 11 17  2  0  0  0  0
 12 22  1  0  0  0  0
 12 18  1  1  0  0  0
 13  8  1  0  0  0  0
 14 25  1  1  0  0  0
 14  7  1  0  0  0  0
 14  6  1  0  0  0  0
 15 13  1  0  0  0  0
 16 17  1  0  0  0  0
 17 12  1  0  0  0  0
 18 23  1  0  0  0  0
 22  4  1  0  0  0  0
 23  5  1  0  0  0  0
 23  8  1  0  0  0  0
 24 25  1  0  0  0  0
 26 25  1  0  0  0  0
 27 28  1  0  0  0  0
 27 26  1  0  0  0  0
 28 30  1  0  0  0  0
 29 28  2  0  0  0  0
 31 32  1  0  0  0  0
M  END
>  <MODEL>
6

>  <REMARK>
 VINA RESULT:      -3.0      3.361      7.843
  Name = 
  5 active torsions:
  status: ('A' for Active; 'I' for Inactive)
    1  A    between atoms: C_7  and  C_19
    2  A    between atoms: C_10  and  C_17
    3  A    between atoms: C_10  and  O_20
    4  A    between atoms: O_20  and  C_29
    5  A    between atoms: C_29  and  C_30
                            x       y       z     vdW  Elec       q    Type
                         _______ _______ _______ _____ _____    ______ ____

>  <TORSDO>
F 5

$$$$
=
 OpenBabel11122413033D

 32 36  0  0  1  0  0  0  0  0999 V2000
  159.6900  210.2850  154.6450 C   0  0  1  0  0  3  0  0  0  0  0  0
  160.9950  212.2470  150.3230 C   0  0  0  0  0  3  0  0  0  0  0  0
  159.7130  212.7850  150.1950 C   0  0  0  0  0  3  0  0  0  0  0  0
  157.5570  211.0200  155.8110 C   0  0  2  0  0  3  0  0  0  0  0  0
  156.2380  211.7550  155.5190 C   0  0  2  0  0  3  0  0  0  0  0  0
  161.1880  208.5090  155.5420 C   0  0  2  0  0  3  0  0  0  0  0  0
  161.9950  209.9450  153.6900 O   0  0  0  0  0  0  0  0  0  0  0  0
  155.0100  213.3210  154.4240 C   0  0  2  0  0  3  0  0  0  0  0  0
  161.3660  211.6000  151.5030 C   0  0  0  0  0  3  0  0  0  0  0  0
  160.8870  210.8300  153.8530 C   0  0  1  0  0  3  0  0  0  0  0  0
  160.4570  211.4770  152.5630 C   0  0  0  0  0  0  0  0  0  0  0  0
  158.1380  211.8960  153.5500 C   0  0  2  0  0  3  0  0  0  0  0  0
  154.4750  211.9960  153.9130 C   0  0  0  0  0  2  0  0  0  0  0  0
  161.7210  208.6090  154.0930 C   0  0  2  0  0  3  0  0  0  0  0  0
  155.2830  210.9510  154.6530 C   0  0  0  0  0  2  0  0  0  0  0  0
  158.8060  212.6870  151.2520 C   0  0  0  0  0  3  0  0  0  0  0  0
  159.1730  212.0640  152.4550 C   0  0  0  0  0  0  0  0  0  0  0  0
  157.3460  213.1800  153.8050 C   0  0  0  0  0  2  0  0  0  0  0  0
  160.2420  209.6580  155.9100 C   0  0  0  0  0  2  0  0  0  0  0  0
  157.9230  211.2460  157.1380 O   0  0  0  0  0  1  0  0  0  0  0  0
  154.8710  214.4490  153.4050 C   0  0  0  0  0  1  0  0  0  0  0  0
  158.7080  211.4280  154.8870 C   0  0  2  0  0  3  0  0  0  0  0  0
  156.3710  213.0970  154.9250 N   0  0  2  0  0  0  0  0  0  0  0  0
  161.4090  208.0380  151.6800 C   0  0  0  0  0  1  0  0  0  0  0  0
  160.8320  207.8820  153.0760 C   0  0  1  0  0  3  0  0  0  0  0  0
  160.7400  206.5230  153.3890 O   0  0  0  0  0  0  0  0  0  0  0  0
  161.7690  205.9160  152.6630 C   0  0  0  0  0  2  0  0  0  0  0  0
  161.2210  204.7980  151.8470 C   0  0  0  0  0  0  0  0  0  0  0  0
  161.0850  203.6550  152.3560 O   0  0  0  0  0  1  0  0  0  0  0  0
  160.8330  205.0240  150.5340 O   0  0  0  0  0  0  0  0  0  0  0  0
  162.5430  209.7990  157.1880 C   0  0  0  0  0  1  0  0  0  0  0  0
  162.3510  208.4530  156.5160 C   0  0  0  0  0  2  0  0  0  0  0  0
  1 22  1  0  0  0  0
  1 19  1  1  0  0  0
  2  9  1  0  0  0  0
  3  2  2  0  0  0  0
  3 16  1  0  0  0  0
  4 20  1  1  0  0  0
  5 15  1  6  0  0  0
  5  4  1  0  0  0  0
  6 19  1  0  0  0  0
  6 32  1  1  0  0  0
  7 10  1  0  0  0  0
  7 14  1  0  0  0  0
  8 21  1  6  0  0  0
  8 23  1  0  0  0  0
  9 11  2  0  0  0  0
 10 11  1  6  0  0  0
 10  1  1  0  0  0  0
 12 18  1  1  0  0  0
 12 22  1  0  0  0  0
 13  8  1  0  0  0  0
 13 15  1  0  0  0  0
 14 25  1  6  0  0  0
 14  6  1  0  0  0  0
 16 17  2  0  0  0  0
 17 11  1  0  0  0  0
 17 12  1  0  0  0  0
 18 23  1  0  0  0  0
 22  4  1  0  0  0  0
 23  5  1  0  0  0  0
 24 25  1  0  0  0  0
 25 26  1  0  0  0  0
 27 26  1  0  0  0  0
 28 29  1  0  0  0  0
 28 27  1  0  0  0  0
 30 28  2  0  0  0  0
 32 31  1  0  0  0  0
M  END
>  <MODEL>
7

>  <REMARK>
 VINA RESULT:      -2.6      2.907      7.770
  Name = 
  5 active torsions:
  status: ('A' for Active; 'I' for Inactive)
    1  A    between atoms: C_7  and  C_19
    2  A    between atoms: C_10  and  C_17
    3  A    between atoms: C_10  and  O_20
    4  A    between atoms: O_20  and  C_29
    5  A    between atoms: C_29  and  C_30
                            x       y       z     vdW  Elec       q    Type
                         _______ _______ _______ _____ _____    ______ ____

>  <TORSDO>
F 5

$$$$
