=
 OpenBabel11122412503D

 32 37  0  0  1  0  0  0  0  0999 V2000
  161.7890  208.1060  150.5080 C   0  0  0  0  0  2  0  0  0  0  0  0
  161.4390  212.7230  147.5860 C   0  0  1  0  0  3  0  0  0  0  0  0
  157.0680  213.4320  149.8030 C   0  0  0  0  0  2  0  0  0  0  0  0
  156.4530  213.9710  148.5190 C   0  0  0  0  0  2  0  0  0  0  0  0
  161.6970  212.8640  145.0540 C   0  0  1  0  0  3  0  0  0  0  0  0
  160.9870  213.3060  143.8080 C   0  0  0  0  0  0  0  0  0  0  0  0
  162.0320  210.8120  148.6270 C   0  0  1  0  0  3  0  0  0  0  0  0
  161.2370  212.6690  150.0710 C   0  0  0  0  0  2  0  0  0  0  0  0
  159.3240  213.9980  142.5480 N   0  0  0  0  0  0  0  0  0  0  0  0
  161.9750  210.5430  151.1540 C   0  0  0  0  0  2  0  0  0  0  0  0
  158.5630  213.7310  149.8010 C   0  0  0  0  0  2  0  0  0  0  0  0
  160.6670  213.3070  148.7900 C   0  0  2  0  0  3  0  0  0  0  0  0
  159.2160  213.0640  148.6670 N   0  0  2  0  0  0  0  0  0  0  0  0
  159.3960  213.1250  146.1870 C   0  0  1  0  0  3  0  0  0  0  0  0
  160.4260  213.7690  141.7980 C   0  0  0  0  0  3  0  0  0  0  0  0
  161.3500  208.3770  149.0740 C   0  0  0  0  0  2  0  0  0  0  0  0
  161.3000  211.1520  149.9370 C   0  0  2  0  0  3  0  0  0  0  0  0
  161.4720  213.3330  142.5480 N   0  0  0  0  0  0  0  0  0  0  0  0
  162.3390  209.3250  148.4070 C   0  0  0  0  0  2  0  0  0  0  0  0
  161.3280  209.2000  151.4710 C   0  0  2  0  0  3  0  0  0  0  0  0
  157.1850  213.3960  147.3130 C   0  0  0  0  0  2  0  0  0  0  0  0
  158.6880  213.6780  147.4280 C   0  0  1  0  0  3  0  0  0  0  0  0
  158.8700  213.7410  144.9650 N   0  0  0  0  0  2  0  0  0  0  0  0
  161.3030  211.3190  147.5390 O   0  0  0  0  0  0  0  0  0  0  0  0
  163.1110  213.4220  145.0710 C   0  0  0  0  0  1  0  0  0  0  0  0
  158.0280  214.4530  142.0820 C   0  0  0  0  0  1  0  0  0  0  0  0
  160.9210  213.3540  146.3010 C   0  0  1  0  0  3  0  0  0  0  0  0
  159.6840  213.6880  143.7960 C   0  0  0  0  0  0  0  0  0  0  0  0
  161.6620  208.8230  152.8360 N   0  0  0  0  0  2  0  0  0  0  0  0
  160.9190  209.2830  153.9660 C   0  0  0  0  0  0  0  0  0  0  0  0
  159.9450  210.0690  153.8190 O   0  0  0  0  0  0  0  0  0  0  0  0
  161.3040  208.8360  155.3300 C   0  0  0  0  0  1  0  0  0  0  0  0
  1 20  1  0  0  0  0
  2 24  1  6  0  0  0
  2 12  1  0  0  0  0
  4  3  1  0  0  0  0
  5 25  1  6  0  0  0
  5 27  1  0  0  0  0
  6  5  1  0  0  0  0
  7 19  1  6  0  0  0
  7 17  1  0  0  0  0
  9 28  1  0  0  0  0
 10 20  1  0  0  0  0
 11  3  1  0  0  0  0
 12  8  1  1  0  0  0
 13 12  1  0  0  0  0
 13 11  1  1  0  0  0
 14 23  1  6  0  0  0
 14 27  1  0  0  0  0
 14 22  1  0  0  0  0
 15  9  1  0  0  0  0
 15 18  2  0  0  0  0
 16  1  1  0  0  0  0
 17  8  1  1  0  0  0
 17 10  1  0  0  0  0
 18  6  1  0  0  0  0
 19 16  1  0  0  0  0
 20 29  1  1  0  0  0
 21  4  1  0  0  0  0
 22 21  1  6  0  0  0
 22 13  1  0  0  0  0
 24  7  1  0  0  0  0
 26  9  1  0  0  0  0
 27  2  1  0  0  0  0
 28  6  2  0  0  0  0
 28 23  1  0  0  0  0
 29 30  1  0  0  0  0
 30 32  1  0  0  0  0
 31 30  2  0  0  0  0
M  END
>  <MODEL>
1

>  <REMARK>
 VINA RESULT:      -5.3      0.000      0.000
  Name = 
  1 active torsions:
  status: ('A' for Active; 'I' for Inactive)
    1  A    between atoms: C_20  and  N_29
                            x       y       z     vdW  Elec       q    Type
                         _______ _______ _______ _____ _____    ______ ____

>  <TORSDO>
F 1

$$$$
=
 OpenBabel11122412503D

 32 37  0  0  1  0  0  0  0  0999 V2000
  160.7990  209.2190  153.0430 C   0  0  0  0  0  2  0  0  0  0  0  0
  161.1040  213.2260  149.3250 C   0  0  1  0  0  3  0  0  0  0  0  0
  156.2100  213.7160  149.9010 C   0  0  0  0  0  2  0  0  0  0  0  0
  156.0140  213.9600  148.4110 C   0  0  0  0  0  2  0  0  0  0  0  0
  162.1660  212.9920  147.0190 C   0  0  1  0  0  3  0  0  0  0  0  0
  161.8740  213.1340  145.5530 C   0  0  0  0  0  0  0  0  0  0  0  0
  161.4550  211.5970  150.8460 C   0  0  1  0  0  3  0  0  0  0  0  0
  160.1040  213.5450  151.5860 C   0  0  0  0  0  2  0  0  0  0  0  0
  160.6710  213.3970  143.7330 N   0  0  0  0  0  0  0  0  0  0  0  0
  160.5930  211.7310  153.2330 C   0  0  0  0  0  2  0  0  0  0  0  0
  157.5990  214.1990  150.3040 C   0  0  0  0  0  2  0  0  0  0  0  0
  159.9420  213.8910  150.0940 C   0  0  2  0  0  3  0  0  0  0  0  0
  158.6310  213.4480  149.5780 N   0  0  2  0  0  0  0  0  0  0  0  0
  159.6090  213.1340  147.3120 C   0  0  1  0  0  3  0  0  0  0  0  0
  161.9700  213.1940  143.4190 C   0  0  0  0  0  3  0  0  0  0  0  0
  160.8360  209.1990  151.5200 C   0  0  0  0  0  2  0  0  0  0  0  0
  160.3130  212.0470  151.7740 C   0  0  2  0  0  3  0  0  0  0  0  0
  162.7410  213.0210  144.5250 N   0  0  0  0  0  0  0  0  0  0  0  0
  161.9200  210.1470  151.0210 C   0  0  0  0  0  2  0  0  0  0  0  0
  159.9740  210.3860  153.5870 C   0  0  2  0  0  3  0  0  0  0  0  0
  157.1380  213.2980  147.6250 C   0  0  0  0  0  2  0  0  0  0  0  0
  158.4970  213.7840  148.1430 C   0  0  1  0  0  3  0  0  0  0  0  0
  159.4700  213.4740  145.8930 N   0  0  0  0  0  2  0  0  0  0  0  0
  161.0890  211.8270  149.5090 O   0  0  0  0  0  0  0  0  0  0  0  0
  163.4540  213.7210  147.3640 C   0  0  0  0  0  1  0  0  0  0  0  0
  159.5700  213.6020  142.8100 C   0  0  0  0  0  1  0  0  0  0  0  0
  160.9920  213.5720  147.8460 C   0  0  1  0  0  3  0  0  0  0  0  0
  160.6230  213.3390  145.0660 C   0  0  0  0  0  0  0  0  0  0  0  0
  159.8670  210.2770  155.0340 N   0  0  0  0  0  2  0  0  0  0  0  0
  158.8690  210.9670  155.7880 C   0  0  0  0  0  0  0  0  0  0  0  0
  158.0450  211.7310  155.2160 O   0  0  0  0  0  0  0  0  0  0  0  0
  158.8070  210.7900  157.2610 C   0  0  0  0  0  1  0  0  0  0  0  0
  1 20  1  0  0  0  0
  2 24  1  6  0  0  0
  2 12  1  0  0  0  0
  3 11  1  0  0  0  0
  4  3  1  0  0  0  0
  5 25  1  6  0  0  0
  5 27  1  0  0  0  0
  6  5  1  0  0  0  0
  7 19  1  6  0  0  0
  7 17  1  0  0  0  0
  9 28  1  0  0  0  0
 10 20  1  0  0  0  0
 12  8  1  1  0  0  0
 13 12  1  0  0  0  0
 13 11  1  1  0  0  0
 14 23  1  6  0  0  0
 14 27  1  0  0  0  0
 14 22  1  0  0  0  0
 15  9  1  0  0  0  0
 15 18  2  0  0  0  0
 16  1  1  0  0  0  0
 17  8  1  1  0  0  0
 17 10  1  0  0  0  0
 18  6  1  0  0  0  0
 19 16  1  0  0  0  0
 20 29  1  1  0  0  0
 21  4  1  0  0  0  0
 22 21  1  6  0  0  0
 22 13  1  0  0  0  0
 24  7  1  0  0  0  0
 26  9  1  0  0  0  0
 27  2  1  0  0  0  0
 28  6  2  0  0  0  0
 28 23  1  0  0  0  0
 29 30  1  0  0  0  0
 30 32  1  0  0  0  0
 31 30  2  0  0  0  0
M  END
>  <MODEL>
2

>  <REMARK>
 VINA RESULT:      -4.6      1.715      2.168
  Name = 
  1 active torsions:
  status: ('A' for Active; 'I' for Inactive)
    1  A    between atoms: C_20  and  N_29
                            x       y       z     vdW  Elec       q    Type
                         _______ _______ _______ _____ _____    ______ ____

>  <TORSDO>
F 1

$$$$
=
 OpenBabel11122412503D

 32 37  0  0  1  0  0  0  0  0999 V2000
  156.7010  213.7720  147.4450 C   0  0  0  0  0  2  0  0  0  0  0  0
  159.9130  213.0070  151.8120 C   0  0  1  0  0  3  0  0  0  0  0  0
  162.0880  209.4060  149.1980 C   0  0  0  0  0  2  0  0  0  0  0  0
  162.2100  208.5230  150.4320 C   0  0  0  0  0  2  0  0  0  0  0  0
  159.0700  212.6180  154.1860 C   0  0  1  0  0  3  0  0  0  0  0  0
  159.1330  211.6450  155.3280 C   0  0  0  0  0  0  0  0  0  0  0  0
  158.4490  213.7120  150.2480 C   0  0  1  0  0  3  0  0  0  0  0  0
  160.8100  213.4420  149.5270 C   0  0  0  0  0  2  0  0  0  0  0  0
  159.5750  209.7680  156.3810 N   0  0  0  0  0  0  0  0  0  0  0  0
  159.1400  214.2840  147.8700 C   0  0  0  0  0  2  0  0  0  0  0  0
  162.1180  210.8680  149.6300 C   0  0  0  0  0  2  0  0  0  0  0  0
  161.0160  212.6100  150.8050 C   0  0  2  0  0  3  0  0  0  0  0  0
  160.9840  211.1620  150.5160 N   0  0  2  0  0  0  0  0  0  0  0  0
  160.1000  210.7060  152.7960 C   0  0  1  0  0  3  0  0  0  0  0  0
  158.9100  210.6220  157.1910 C   0  0  0  0  0  3  0  0  0  0  0  0
  156.4950  213.0010  148.7430 C   0  0  0  0  0  2  0  0  0  0  0  0
  159.3610  213.3650  149.0590 C   0  0  2  0  0  3  0  0  0  0  0  0
  158.6160  211.7930  156.5660 N   0  0  0  0  0  0  0  0  0  0  0  0
  156.9570  213.8490  149.9210 C   0  0  0  0  0  2  0  0  0  0  0  0
  158.1320  213.6490  146.9200 C   0  0  2  0  0  3  0  0  0  0  0  0
  161.1220  208.8810  151.4350 C   0  0  0  0  0  2  0  0  0  0  0  0
  161.1780  210.3790  151.7570 C   0  0  1  0  0  3  0  0  0  0  0  0
  160.3010  209.9290  154.0230 N   0  0  0  0  0  2  0  0  0  0  0  0
  158.6320  212.7670  151.2700 O   0  0  0  0  0  0  0  0  0  0  0  0
  159.3580  214.0240  154.6870 C   0  0  0  0  0  1  0  0  0  0  0  0
  160.0310  208.4290  156.7070 C   0  0  0  0  0  1  0  0  0  0  0  0
  160.1040  212.2220  153.1030 C   0  0  1  0  0  3  0  0  0  0  0  0
  159.6900  210.4120  155.2170 C   0  0  0  0  0  0  0  0  0  0  0  0
  158.2340  214.2940  145.6190 N   0  0  0  0  0  2  0  0  0  0  0  0
  158.6190  213.5890  144.4380 C   0  0  0  0  0  0  0  0  0  0  0  0
  158.9170  212.3650  144.4870 O   0  0  0  0  0  0  0  0  0  0  0  0
  158.6780  214.3080  143.1400 C   0  0  0  0  0  1  0  0  0  0  0  0
  1 16  1  0  0  0  0
  2 24  1  6  0  0  0
  2 27  1  0  0  0  0
  3 11  1  0  0  0  0
  3  4  1  0  0  0  0
  4 21  1  0  0  0  0
  5 25  1  1  0  0  0
  5  6  1  0  0  0  0
  6 18  1  0  0  0  0
  7 19  1  6  0  0  0
  7 24  1  0  0  0  0
  9 26  1  0  0  0  0
  9 15  1  0  0  0  0
 12  8  1  6  0  0  0
 12  2  1  0  0  0  0
 13 11  1  6  0  0  0
 13 12  1  0  0  0  0
 13 22  1  0  0  0  0
 14 27  1  0  0  0  0
 14 23  1  1  0  0  0
 16 19  1  0  0  0  0
 17 10  1  6  0  0  0
 17  8  1  0  0  0  0
 17  7  1  0  0  0  0
 18 15  2  0  0  0  0
 20 29  1  6  0  0  0
 20  1  1  0  0  0  0
 20 10  1  0  0  0  0
 22 21  1  6  0  0  0
 22 14  1  0  0  0  0
 23 28  1  0  0  0  0
 27  5  1  0  0  0  0
 28  6  2  0  0  0  0
 28  9  1  0  0  0  0
 30 31  2  0  0  0  0
 30 29  1  0  0  0  0
 32 30  1  0  0  0  0
M  END
>  <MODEL>
3

>  <REMARK>
 VINA RESULT:      -4.5      2.489      9.082
  Name = 
  1 active torsions:
  status: ('A' for Active; 'I' for Inactive)
    1  A    between atoms: C_20  and  N_29
                            x       y       z     vdW  Elec       q    Type
                         _______ _______ _______ _____ _____    ______ ____

>  <TORSDO>
F 1

$$$$
=
 OpenBabel11122412503D

 32 37  0  0  1  0  0  0  0  0999 V2000
  159.4880  213.8440  147.5670 C   0  0  0  0  0  2  0  0  0  0  0  0
  162.0690  210.5180  151.0680 C   0  0  1  0  0  3  0  0  0  0  0  0
  161.1100  206.8830  147.8440 C   0  0  0  0  0  2  0  0  0  0  0  0
  160.8190  205.9000  148.9690 C   0  0  0  0  0  2  0  0  0  0  0  0
  161.5080  210.2960  153.5440 C   0  0  1  0  0  3  0  0  0  0  0  0
  161.1020  209.2960  154.5890 C   0  0  0  0  0  0  0  0  0  0  0  0
  161.1750  212.2340  149.9080 C   0  0  1  0  0  3  0  0  0  0  0  0
  162.7130  210.7280  148.6680 C   0  0  0  0  0  2  0  0  0  0  0  0
  160.4060  207.3820  155.4140 N   0  0  0  0  0  0  0  0  0  0  0  0
  161.7350  212.6900  147.4710 C   0  0  0  0  0  2  0  0  0  0  0  0
  162.1110  207.9210  148.3390 C   0  0  0  0  0  2  0  0  0  0  0  0
  162.5240  209.7260  149.8220 C   0  0  2  0  0  3  0  0  0  0  0  0
  161.5500  208.6740  149.4680 N   0  0  2  0  0  0  0  0  0  0  0  0
  160.9020  208.4420  151.8590 C   0  0  1  0  0  3  0  0  0  0  0  0
  160.5460  208.3000  156.3960 C   0  0  0  0  0  3  0  0  0  0  0  0
  159.0250  213.1350  148.8340 C   0  0  0  0  0  2  0  0  0  0  0  0
  161.4910  211.6280  148.5290 C   0  0  2  0  0  3  0  0  0  0  0  0
  160.9700  209.4990  155.9160 N   0  0  0  0  0  0  0  0  0  0  0  0
  160.0740  213.3000  149.9260 C   0  0  0  0  0  2  0  0  0  0  0  0
  160.4340  212.9780  146.7340 C   0  0  2  0  0  3  0  0  0  0  0  0
  160.3490  206.6540  150.2070 C   0  0  0  0  0  2  0  0  0  0  0  0
  161.3780  207.7240  150.5910 C   0  0  1  0  0  3  0  0  0  0  0  0
  160.7370  207.4950  152.9660 N   0  0  0  0  0  2  0  0  0  0  0  0
  160.8630  211.2040  150.8100 O   0  0  0  0  0  0  0  0  0  0  0  0
  162.6800  211.1230  154.0460 C   0  0  0  0  0  1  0  0  0  0  0  0
  159.9590  206.0090  155.5570 C   0  0  0  0  0  1  0  0  0  0  0  0
  161.9000  209.5600  152.2390 C   0  0  1  0  0  3  0  0  0  0  0  0
  160.7380  208.0230  154.2900 C   0  0  0  0  0  0  0  0  0  0  0  0
  160.7360  213.6520  145.4800 N   0  0  0  0  0  2  0  0  0  0  0  0
  160.5030  213.0510  144.2060 C   0  0  0  0  0  0  0  0  0  0  0  0
  160.0410  211.8810  144.1210 O   0  0  0  0  0  0  0  0  0  0  0  0
  160.8150  213.8090  142.9670 C   0  0  0  0  0  1  0  0  0  0  0  0
  1 16  1  0  0  0  0
  2 24  1  6  0  0  0
  2 27  1  0  0  0  0
  3 11  1  0  0  0  0
  3  4  1  0  0  0  0
  4 21  1  0  0  0  0
  5 25  1  1  0  0  0
  5  6  1  0  0  0  0
  6 18  1  0  0  0  0
  7 19  1  6  0  0  0
  7 24  1  0  0  0  0
  9 26  1  0  0  0  0
  9 15  1  0  0  0  0
 12  8  1  6  0  0  0
 12  2  1  0  0  0  0
 13 11  1  6  0  0  0
 13 12  1  0  0  0  0
 13 22  1  0  0  0  0
 14 27  1  0  0  0  0
 14 23  1  1  0  0  0
 16 19  1  0  0  0  0
 17 10  1  6  0  0  0
 17  8  1  0  0  0  0
 17  7  1  0  0  0  0
 18 15  2  0  0  0  0
 20 29  1  6  0  0  0
 20 10  1  0  0  0  0
 20  1  1  0  0  0  0
 22 21  1  6  0  0  0
 22 14  1  0  0  0  0
 23 28  1  0  0  0  0
 27  5  1  0  0  0  0
 28  6  2  0  0  0  0
 28  9  1  0  0  0  0
 30 29  1  0  0  0  0
 31 30  2  0  0  0  0
 32 30  1  0  0  0  0
M  END
>  <MODEL>
4

>  <REMARK>
 VINA RESULT:      -3.1      1.894      8.967
  Name = 
  1 active torsions:
  status: ('A' for Active; 'I' for Inactive)
    1  A    between atoms: C_20  and  N_29
                            x       y       z     vdW  Elec       q    Type
                         _______ _______ _______ _____ _____    ______ ____

>  <TORSDO>
F 1

$$$$
=
 OpenBabel11122412503D

 32 37  0  0  1  0  0  0  0  0999 V2000
  160.4560  204.5990  146.9740 C   0  0  0  0  0  2  0  0  0  0  0  0
  162.2950  208.9250  149.7820 C   0  0  1  0  0  3  0  0  0  0  0  0
  160.9360  206.4680  153.8620 C   0  0  0  0  0  2  0  0  0  0  0  0
  160.4350  207.7460  154.5190 C   0  0  0  0  0  2  0  0  0  0  0  0
  161.5810  211.3360  149.3690 C   0  0  1  0  0  3  0  0  0  0  0  0
  160.9690  212.5300  150.0450 C   0  0  0  0  0  0  0  0  0  0  0  0
  161.7450  207.3590  148.2550 C   0  0  1  0  0  3  0  0  0  0  0  0
  163.0850  206.5980  150.2020 C   0  0  0  0  0  2  0  0  0  0  0  0
  159.9370  213.6770  151.6090 N   0  0  0  0  0  0  0  0  0  0  0  0
  162.4930  204.9370  148.4320 C   0  0  0  0  0  2  0  0  0  0  0  0
  162.0630  206.8160  152.8950 C   0  0  0  0  0  2  0  0  0  0  0  0
  162.6820  207.9160  150.8870 C   0  0  2  0  0  3  0  0  0  0  0  0
  161.5720  207.7100  151.8400 N   0  0  2  0  0  0  0  0  0  0  0  0
  160.7750  210.0340  151.4430 C   0  0  1  0  0  3  0  0  0  0  0  0
  160.1710  214.4530  150.5270 C   0  0  0  0  0  3  0  0  0  0  0  0
  159.8220  205.9440  147.3120 C   0  0  0  0  0  2  0  0  0  0  0  0
  162.0300  206.1700  149.1890 C   0  0  2  0  0  3  0  0  0  0  0  0
  160.8040  213.7690  149.5370 N   0  0  0  0  0  0  0  0  0  0  0  0
  160.8280  207.0610  147.0630 C   0  0  0  0  0  2  0  0  0  0  0  0
  161.2930  204.0490  148.1300 C   0  0  2  0  0  3  0  0  0  0  0  0
  160.0300  208.7540  153.4520 C   0  0  0  0  0  2  0  0  0  0  0  0
  161.1940  208.9890  152.4830 C   0  0  1  0  0  3  0  0  0  0  0  0
  160.4060  211.2970  152.0880 N   0  0  0  0  0  2  0  0  0  0  0  0
  161.2280  208.4280  149.0040 O   0  0  0  0  0  0  0  0  0  0  0  0
  162.8430  211.7500  148.6300 C   0  0  0  0  0  1  0  0  0  0  0  0
  159.2710  214.0680  152.8380 C   0  0  0  0  0  1  0  0  0  0  0  0
  161.9170  210.2530  150.4240 C   0  0  1  0  0  3  0  0  0  0  0  0
  160.4230  212.4760  151.2870 C   0  0  0  0  0  0  0  0  0  0  0  0
  161.7620  202.7110  147.7990 N   0  0  0  0  0  2  0  0  0  0  0  0
  161.0550  201.5300  148.1810 C   0  0  0  0  0  0  0  0  0  0  0  0
  159.9920  201.6060  148.8530 O   0  0  0  0  0  0  0  0  0  0  0  0
  161.5830  200.1990  147.7880 C   0  0  0  0  0  1  0  0  0  0  0  0
  1 16  1  0  0  0  0
  1 20  1  0  0  0  0
  2 24  1  1  0  0  0
  2 27  1  0  0  0  0
  2 12  1  0  0  0  0
  3  4  1  0  0  0  0
  5 25  1  1  0  0  0
  5  6  1  0  0  0  0
  5 27  1  0  0  0  0
  6 28  2  0  0  0  0
  7 19  1  6  0  0  0
  7 24  1  0  0  0  0
  7 17  1  0  0  0  0
  9 26  1  0  0  0  0
 11  3  1  0  0  0  0
 12  8  1  6  0  0  0
 12 13  1  0  0  0  0
 13 22  1  0  0  0  0
 13 11  1  1  0  0  0
 14 23  1  1  0  0  0
 14 22  1  0  0  0  0
 15  9  1  0  0  0  0
 17 10  1  6  0  0  0
 17  8  1  0  0  0  0
 18  6  1  0  0  0  0
 18 15  2  0  0  0  0
 19 16  1  0  0  0  0
 20 29  1  6  0  0  0
 20 10  1  0  0  0  0
 21  4  1  0  0  0  0
 22 21  1  1  0  0  0
 27 14  1  0  0  0  0
 28  9  1  0  0  0  0
 28 23  1  0  0  0  0
 29 30  1  0  0  0  0
 30 31  2  0  0  0  0
 32 30  1  0  0  0  0
M  END
>  <MODEL>
5

>  <REMARK>
 VINA RESULT:      -2.7      3.990      7.172
  Name = 
  1 active torsions:
  status: ('A' for Active; 'I' for Inactive)
    1  A    between atoms: C_20  and  N_29
                            x       y       z     vdW  Elec       q    Type
                         _______ _______ _______ _____ _____    ______ ____

>  <TORSDO>
F 1

$$$$
