=
 OpenBabel11122414343D

 34 42  0  0  1  0  0  0  0  0999 V2000
  161.7590  208.4930  150.2380 C   0  0  0  0  0  0  0  0  0  0  0  0
  161.3520  210.5440  151.7370 C   0  0  0  0  0  2  0  0  0  0  0  0
  161.1790  201.9100  149.1360 C   0  0  1  0  0  0  0  0  0  0  0  0
  161.8190  206.4350  148.9330 C   0  0  0  0  0  0  0  0  0  0  0  0
  161.2060  204.2900  150.1070 C   0  0  0  0  0  0  0  0  0  0  0  0
  160.9780  201.8920  151.0790 C   0  0  1  0  0  3  0  0  0  0  0  0
  161.2060  200.8900  150.1360 O   0  0  0  0  0  0  0  0  0  0  0  0
  160.9270  203.2220  147.0850 C   0  0  0  0  0  3  0  0  0  0  0  0
  161.5650  208.4090  152.7430 C   0  0  2  0  0  3  0  0  0  0  0  0
  160.5070  207.9350  155.6540 C   0  0  0  0  0  3  0  0  0  0  0  0
  161.0060  205.0540  151.3020 N   0  0  0  0  0  0  0  0  0  0  0  0
  161.1090  204.4760  147.5360 C   0  0  0  0  0  3  0  0  0  0  0  0
  160.8310  207.0740  152.6450 C   0  0  1  0  0  3  0  0  0  0  0  0
  161.1640  210.7030  153.1820 N   0  0  0  0  0  2  0  0  0  0  0  0
  161.7370  204.9270  148.8410 C   0  0  0  0  0  0  0  0  0  0  0  0
  161.1420  201.9530  147.8130 C   0  0  0  0  0  2  0  0  0  0  0  0
  161.2920  209.0970  155.0990 C   0  0  1  0  0  3  0  0  0  0  0  0
  161.6020  207.0970  150.1580 C   0  0  0  0  0  0  0  0  0  0  0  0
  161.1230  202.9730  150.1580 C   0  0  2  0  0  3  0  0  0  0  0  0
  161.1930  206.3380  151.3690 C   0  0  0  0  0  0  0  0  0  0  0  0
  162.3350  208.5710  147.8880 C   0  0  0  0  0  3  0  0  0  0  0  0
  160.4630  206.7020  155.1180 C   0  0  0  0  0  3  0  0  0  0  0  0
  162.2030  207.1830  147.8090 C   0  0  0  0  0  3  0  0  0  0  0  0
  161.2050  206.2590  153.8850 C   0  0  0  0  0  2  0  0  0  0  0  0
  160.8500  209.3560  153.6630 C   0  0  2  0  0  3  0  0  0  0  0  0
  162.1110  209.2270  149.1000 C   0  0  0  0  0  3  0  0  0  0  0  0
  161.5880  209.1340  151.5030 N   0  0  0  0  0  0  0  0  0  0  0  0
  161.0530  210.2230  155.8920 O   0  0  0  0  0  0  0  0  0  0  0  0
  159.8630  209.9400  156.5690 C   0  0  0  0  0  2  0  0  0  0  0  0
  159.6640  212.8270  155.0540 O   0  0  0  0  0  0  0  0  0  0  0  0
  158.0290  211.1810  155.4640 C   0  0  0  0  0  2  0  0  0  0  0  0
  158.9900  211.1810  156.6180 C   0  0  2  0  0  3  0  0  0  0  0  0
  158.3570  212.4530  154.7230 C   0  0  0  0  0  2  0  0  0  0  0  0
  159.8380  212.4090  156.3800 C   0  0  0  0  0  2  0  0  0  0  0  0
  1 27  1  0  0  0  0
  2 14  1  0  0  0  0
  3 16  1  6  0  0  0
  3  7  1  0  0  0  0
  3 19  1  0  0  0  0
  3  6  1  0  0  0  0
  4 18  1  0  0  0  0
  5 11  2  0  0  0  0
  6  7  1  1  0  0  0
  8 12  2  0  0  0  0
  8 16  1  0  0  0  0
  9 27  1  6  0  0  0
  9 25  1  0  0  0  0
 11 20  1  0  0  0  0
 12 15  1  0  0  0  0
 13  9  1  0  0  0  0
 13 24  1  1  0  0  0
 15  4  2  0  0  0  0
 15  5  1  0  0  0  0
 17 10  1  0  0  0  0
 17 28  1  1  0  0  0
 18  1  1  0  0  0  0
 18 20  2  0  0  0  0
 19  5  1  1  0  0  0
 19  6  1  0  0  0  0
 20 13  1  0  0  0  0
 21 26  1  0  0  0  0
 22 10  2  0  0  0  0
 23 21  2  0  0  0  0
 23  4  1  0  0  0  0
 24 22  1  0  0  0  0
 25 14  1  6  0  0  0
 25 17  1  0  0  0  0
 26  1  2  0  0  0  0
 27  2  1  0  0  0  0
 28 29  1  0  0  0  0
 30 34  1  0  0  0  0
 31 32  1  0  0  0  0
 32 29  1  6  0  0  0
 33 30  1  0  0  0  0
 33 31  1  0  0  0  0
 34 32  1  0  0  0  0
M  END
>  <MODEL>
1

>  <REMARK>
 VINA RESULT:      -9.5      0.000      0.000
  Name = 
  3 active torsions:
  status: ('A' for Active; 'I' for Inactive)
    1  A    between atoms: C_17  and  O_28
    2  A    between atoms: O_28  and  C_29
    3  A    between atoms: C_29  and  C_32
                            x       y       z     vdW  Elec       q    Type
                         _______ _______ _______ _____ _____    ______ ____

>  <TORSDO>
F 3

$$$$
=
 OpenBabel11122414343D

 34 42  0  0  1  0  0  0  0  0999 V2000
  161.0150  204.9710  151.8590 C   0  0  0  0  0  0  0  0  0  0  0  0
  161.5740  206.5160  153.8390 C   0  0  0  0  0  2  0  0  0  0  0  0
  161.0350  203.7480  145.2710 C   0  0  1  0  0  0  0  0  0  0  0  0
  160.7980  203.6250  149.8380 C   0  0  0  0  0  0  0  0  0  0  0  0
  161.2000  204.7660  147.6260 C   0  0  0  0  0  0  0  0  0  0  0  0
  161.1990  205.6940  145.2010 C   0  0  1  0  0  3  0  0  0  0  0  0
  160.9010  204.7270  144.2400 O   0  0  0  0  0  0  0  0  0  0  0  0
  161.4380  201.7280  146.5940 C   0  0  0  0  0  3  0  0  0  0  0  0
  161.1560  207.4760  151.7130 C   0  0  2  0  0  3  0  0  0  0  0  0
  162.1160  210.3940  151.0950 C   0  0  0  0  0  3  0  0  0  0  0  0
  161.4440  205.9780  148.3490 N   0  0  0  0  0  0  0  0  0  0  0  0
  161.3580  202.2000  147.8510 C   0  0  0  0  0  3  0  0  0  0  0  0
  161.7720  207.3640  150.3200 C   0  0  1  0  0  3  0  0  0  0  0  0
  161.7480  207.9670  153.9540 N   0  0  0  0  0  2  0  0  0  0  0  0
  160.7490  203.5040  148.3310 C   0  0  0  0  0  0  0  0  0  0  0  0
  161.0990  202.4270  145.3360 C   0  0  0  0  0  2  0  0  0  0  0  0
  161.4460  209.8500  152.3300 C   0  0  1  0  0  3  0  0  0  0  0  0
  161.0500  204.8650  150.4570 C   0  0  0  0  0  0  0  0  0  0  0  0
  161.1650  204.7910  146.3070 C   0  0  2  0  0  3  0  0  0  0  0  0
  161.3700  206.0680  149.6420 C   0  0  0  0  0  0  0  0  0  0  0  0
  160.4900  202.6140  152.0310 C   0  0  0  0  0  3  0  0  0  0  0  0
  162.0620  209.8350  149.8720 C   0  0  0  0  0  3  0  0  0  0  0  0
  160.5010  202.5100  150.6380 C   0  0  0  0  0  3  0  0  0  0  0  0
  161.3050  208.5810  149.5190 C   0  0  0  0  0  2  0  0  0  0  0  0
  161.9350  208.4270  152.5760 C   0  0  2  0  0  3  0  0  0  0  0  0
  160.7490  203.8420  152.6420 C   0  0  0  0  0  3  0  0  0  0  0  0
  161.2190  206.2500  152.4590 N   0  0  0  0  0  0  0  0  0  0  0  0
  161.7690  210.6690  153.4160 O   0  0  0  0  0  0  0  0  0  0  0  0
  160.6360  211.4610  153.6180 C   0  0  0  0  0  2  0  0  0  0  0  0
  159.6250  209.6460  156.1390 O   0  0  0  0  0  0  0  0  0  0  0  0
  161.5140  211.0330  155.8920 C   0  0  0  0  0  2  0  0  0  0  0  0
  160.3860  211.6370  155.1050 C   0  0  2  0  0  3  0  0  0  0  0  0
  160.8380  209.9890  156.7460 C   0  0  0  0  0  2  0  0  0  0  0  0
  159.1820  210.8230  155.5180 C   0  0  0  0  0  2  0  0  0  0  0  0
  1 27  1  0  0  0  0
  1 26  1  0  0  0  0
  2 14  1  0  0  0  0
  3 16  1  6  0  0  0
  3 19  1  0  0  0  0
  4 18  1  0  0  0  0
  4 23  2  0  0  0  0
  5 15  2  0  0  0  0
  5 11  1  0  0  0  0
  6  7  1  1  0  0  0
  6  3  1  0  0  0  0
  6 19  1  0  0  0  0
  7  3  1  0  0  0  0
  8 12  2  0  0  0  0
  9 27  1  1  0  0  0
  9 25  1  0  0  0  0
 10 17  1  0  0  0  0
 11 20  2  0  0  0  0
 12 15  1  0  0  0  0
 13 24  1  6  0  0  0
 13  9  1  0  0  0  0
 15  4  1  0  0  0  0
 16  8  1  0  0  0  0
 17 25  1  0  0  0  0
 17 28  1  1  0  0  0
 18  1  2  0  0  0  0
 19  5  1  1  0  0  0
 20 13  1  0  0  0  0
 20 18  1  0  0  0  0
 21 26  2  0  0  0  0
 22 10  2  0  0  0  0
 23 21  1  0  0  0  0
 24 22  1  0  0  0  0
 25 14  1  1  0  0  0
 27  2  1  0  0  0  0
 28 29  1  0  0  0  0
 30 33  1  0  0  0  0
 31 33  1  0  0  0  0
 32 29  1  6  0  0  0
 32 34  1  0  0  0  0
 32 31  1  0  0  0  0
 34 30  1  0  0  0  0
M  END
>  <MODEL>
2

>  <REMARK>
 VINA RESULT:      -9.4      1.955      4.036
  Name = 
  3 active torsions:
  status: ('A' for Active; 'I' for Inactive)
    1  A    between atoms: C_17  and  O_28
    2  A    between atoms: O_28  and  C_29
    3  A    between atoms: C_29  and  C_32
                            x       y       z     vdW  Elec       q    Type
                         _______ _______ _______ _____ _____    ______ ____

>  <TORSDO>
F 3

$$$$
=
 OpenBabel11122414343D

 34 42  0  0  1  0  0  0  0  0999 V2000
  161.5730  209.3140  150.9620 C   0  0  0  0  0  0  0  0  0  0  0  0
  161.0560  211.3050  152.5070 C   0  0  0  0  0  2  0  0  0  0  0  0
  161.2050  202.7580  149.6310 C   0  0  1  0  0  0  0  0  0  0  0  0
  161.7370  207.3010  149.5960 C   0  0  0  0  0  0  0  0  0  0  0  0
  161.1330  205.1050  150.6770 C   0  0  0  0  0  0  0  0  0  0  0  0
  160.9290  202.6730  151.5630 C   0  0  1  0  0  3  0  0  0  0  0  0
  161.2200  201.7080  150.5990 O   0  0  0  0  0  0  0  0  0  0  0  0
  161.0000  204.1300  147.6140 C   0  0  0  0  0  3  0  0  0  0  0  0
  161.2840  209.1450  153.4530 C   0  0  2  0  0  3  0  0  0  0  0  0
  160.1270  208.5510  156.3040 C   0  0  0  0  0  3  0  0  0  0  0  0
  160.8680  205.8260  151.8860 N   0  0  0  0  0  0  0  0  0  0  0  0
  161.1320  205.3730  148.1110 C   0  0  0  0  0  3  0  0  0  0  0  0
  160.5890  207.7960  153.2840 C   0  0  1  0  0  3  0  0  0  0  0  0
  160.8080  211.4130  153.9480 N   0  0  0  0  0  2  0  0  0  0  0  0
  161.6970  205.7970  149.4540 C   0  0  0  0  0  0  0  0  0  0  0  0
  161.2190  202.8440  148.3090 C   0  0  0  0  0  2  0  0  0  0  0  0
  160.9020  209.7480  155.8170 C   0  0  1  0  0  3  0  0  0  0  0  0
  161.4550  207.9190  150.8310 C   0  0  0  0  0  0  0  0  0  0  0  0
  161.0830  203.7860  150.6820 C   0  0  2  0  0  3  0  0  0  0  0  0
  161.0190  207.1100  152.0010 C   0  0  0  0  0  0  0  0  0  0  0  0
  162.2380  209.4830  148.6400 C   0  0  0  0  0  3  0  0  0  0  0  0
  160.1350  207.3340  155.7280 C   0  0  0  0  0  3  0  0  0  0  0  0
  162.1450  208.0950  148.5130 C   0  0  0  0  0  3  0  0  0  0  0  0
  160.9360  206.9500  154.5110 C   0  0  0  0  0  2  0  0  0  0  0  0
  160.5100  210.0440  154.3740 C   0  0  2  0  0  3  0  0  0  0  0  0
  161.9500  210.0930  149.8620 C   0  0  0  0  0  3  0  0  0  0  0  0
  161.3370  209.9090  152.2380 N   0  0  0  0  0  0  0  0  0  0  0  0
  160.6040  210.8420  156.6350 O   0  0  0  0  0  0  0  0  0  0  0  0
  159.3440  210.5590  157.1680 C   0  0  0  0  0  2  0  0  0  0  0  0
  159.3190  213.5310  155.8120 O   0  0  0  0  0  0  0  0  0  0  0  0
  157.6010  211.9410  156.0810 C   0  0  0  0  0  2  0  0  0  0  0  0
  158.5240  211.8340  157.2610 C   0  0  2  0  0  3  0  0  0  0  0  0
  158.0080  213.2350  155.4220 C   0  0  0  0  0  2  0  0  0  0  0  0
  159.4330  213.0330  157.1170 C   0  0  0  0  0  2  0  0  0  0  0  0
  1 27  1  0  0  0  0
  2 14  1  0  0  0  0
  3 16  1  6  0  0  0
  3  7  1  0  0  0  0
  3 19  1  0  0  0  0
  3  6  1  0  0  0  0
  4 18  1  0  0  0  0
  5 11  2  0  0  0  0
  6  7  1  1  0  0  0
  8 12  2  0  0  0  0
  8 16  1  0  0  0  0
  9 27  1  6  0  0  0
  9 25  1  0  0  0  0
 11 20  1  0  0  0  0
 12 15  1  0  0  0  0
 13  9  1  0  0  0  0
 13 24  1  1  0  0  0
 15  4  2  0  0  0  0
 15  5  1  0  0  0  0
 17 10  1  0  0  0  0
 17 28  1  1  0  0  0
 18  1  1  0  0  0  0
 18 20  2  0  0  0  0
 19  5  1  1  0  0  0
 19  6  1  0  0  0  0
 20 13  1  0  0  0  0
 21 26  1  0  0  0  0
 22 10  2  0  0  0  0
 23 21  2  0  0  0  0
 23  4  1  0  0  0  0
 24 22  1  0  0  0  0
 25 14  1  6  0  0  0
 25 17  1  0  0  0  0
 26  1  2  0  0  0  0
 27  2  1  0  0  0  0
 28 29  1  0  0  0  0
 30 34  1  0  0  0  0
 31 32  1  0  0  0  0
 32 29  1  6  0  0  0
 33 30  1  0  0  0  0
 33 31  1  0  0  0  0
 34 32  1  0  0  0  0
M  END
>  <MODEL>
3

>  <REMARK>
 VINA RESULT:      -9.1      0.933      1.047
  Name = 
  3 active torsions:
  status: ('A' for Active; 'I' for Inactive)
    1  A    between atoms: C_17  and  O_28
    2  A    between atoms: O_28  and  C_29
    3  A    between atoms: C_29  and  C_32
                            x       y       z     vdW  Elec       q    Type
                         _______ _______ _______ _____ _____    ______ ____

>  <TORSDO>
F 3

$$$$
=
 OpenBabel11122414343D

 34 42  0  0  1  0  0  0  0  0999 V2000
  161.7270  207.7730  149.8180 C   0  0  0  0  0  0  0  0  0  0  0  0
  162.3140  206.1250  147.9310 C   0  0  0  0  0  2  0  0  0  0  0  0
  160.5270  208.9810  156.2980 C   0  0  1  0  0  0  0  0  0  0  0  0
  161.3990  209.1390  151.8100 C   0  0  0  0  0  0  0  0  0  0  0  0
  160.9680  207.9440  153.9870 C   0  0  0  0  0  0  0  0  0  0  0  0
  160.1640  207.0610  156.2930 C   0  0  1  0  0  3  0  0  0  0  0  0
  159.9090  208.0770  157.2140 O   0  0  0  0  0  0  0  0  0  0  0  0
  161.7330  210.8170  155.2160 C   0  0  0  0  0  3  0  0  0  0  0  0
  161.1810  205.3200  149.8500 C   0  0  2  0  0  3  0  0  0  0  0  0
  161.1860  202.2550  150.5030 C   0  0  0  0  0  3  0  0  0  0  0  0
  161.0530  206.7070  153.2710 N   0  0  0  0  0  0  0  0  0  0  0  0
  161.8290  210.3760  153.9490 C   0  0  0  0  0  3  0  0  0  0  0  0
  161.4620  205.2730  151.3500 C   0  0  1  0  0  3  0  0  0  0  0  0
  162.1310  204.6790  147.7760 N   0  0  0  0  0  2  0  0  0  0  0  0
  161.0340  209.2760  153.2710 C   0  0  0  0  0  0  0  0  0  0  0  0
  160.9430  210.2390  156.3240 C   0  0  0  0  0  2  0  0  0  0  0  0
  160.9850  202.9510  149.1810 C   0  0  1  0  0  3  0  0  0  0  0  0
  161.4610  207.8730  151.1950 C   0  0  0  0  0  0  0  0  0  0  0  0
  160.6220  207.9350  155.2610 C   0  0  2  0  0  3  0  0  0  0  0  0
  161.2610  206.6330  151.9920 C   0  0  0  0  0  0  0  0  0  0  0  0
  161.8810  210.1840  149.6650 C   0  0  0  0  0  3  0  0  0  0  0  0
  160.9940  202.8160  151.7120 C   0  0  0  0  0  3  0  0  0  0  0  0
  161.5940  210.2890  151.0270 C   0  0  0  0  0  3  0  0  0  0  0  0
  160.5250  204.2260  151.9550 C   0  0  0  0  0  2  0  0  0  0  0  0
  161.8670  204.1930  149.1320 C   0  0  2  0  0  3  0  0  0  0  0  0
  161.9500  208.9290  149.0600 C   0  0  0  0  0  3  0  0  0  0  0  0
  161.7290  206.4820  149.2080 N   0  0  0  0  0  0  0  0  0  0  0  0
  161.3300  202.0700  148.1510 O   0  0  0  0  0  0  0  0  0  0  0  0
  160.2500  202.1120  147.2660 C   0  0  0  0  0  2  0  0  0  0  0  0
  159.1400  202.9530  144.3110 O   0  0  0  0  0  0  0  0  0  0  0  0
  161.1300  203.5270  145.4360 C   0  0  0  0  0  2  0  0  0  0  0  0
  160.7560  202.1280  145.8340 C   0  0  2  0  0  3  0  0  0  0  0  0
  160.2440  203.8120  144.2490 C   0  0  0  0  0  2  0  0  0  0  0  0
  159.6280  201.7740  144.8930 C   0  0  0  0  0  2  0  0  0  0  0  0
  1 18  1  0  0  0  0
  2 27  1  0  0  0  0
  3 16  1  1  0  0  0
  3  7  1  0  0  0  0
  4 15  1  0  0  0  0
  6  3  1  0  0  0  0
  6  7  1  6  0  0  0
  8 16  1  0  0  0  0
  9 27  1  6  0  0  0
  9 13  1  0  0  0  0
 10 22  2  0  0  0  0
 11  5  1  0  0  0  0
 12  8  2  0  0  0  0
 13 24  1  1  0  0  0
 13 20  1  0  0  0  0
 14  2  1  0  0  0  0
 15 12  1  0  0  0  0
 15  5  2  0  0  0  0
 17 28  1  6  0  0  0
 17 10  1  0  0  0  0
 18  4  2  0  0  0  0
 18 20  1  0  0  0  0
 19  5  1  6  0  0  0
 19  6  1  0  0  0  0
 19  3  1  0  0  0  0
 20 11  2  0  0  0  0
 21 23  2  0  0  0  0
 22 24  1  0  0  0  0
 23  4  1  0  0  0  0
 25 14  1  6  0  0  0
 25 17  1  0  0  0  0
 25  9  1  0  0  0  0
 26 21  1  0  0  0  0
 26  1  2  0  0  0  0
 27  1  1  0  0  0  0
 29 28  1  0  0  0  0
 30 34  1  0  0  0  0
 31 32  1  0  0  0  0
 32 29  1  1  0  0  0
 33 30  1  0  0  0  0
 33 31  1  0  0  0  0
 34 32  1  0  0  0  0
M  END
>  <MODEL>
4

>  <REMARK>
 VINA RESULT:      -8.7      1.996      8.429
  Name = 
  3 active torsions:
  status: ('A' for Active; 'I' for Inactive)
    1  A    between atoms: C_17  and  O_28
    2  A    between atoms: O_28  and  C_29
    3  A    between atoms: C_29  and  C_32
                            x       y       z     vdW  Elec       q    Type
                         _______ _______ _______ _____ _____    ______ ____

>  <TORSDO>
F 3

$$$$
=
 OpenBabel11122414343D

 34 42  0  0  1  0  0  0  0  0999 V2000
  161.0540  205.1560  151.9230 C   0  0  0  0  0  0  0  0  0  0  0  0
  161.5680  207.2130  153.3800 C   0  0  0  0  0  2  0  0  0  0  0  0
  161.0810  202.1310  145.9450 C   0  0  1  0  0  0  0  0  0  0  0  0
  160.8720  203.2890  150.3650 C   0  0  0  0  0  0  0  0  0  0  0  0
  161.2230  203.7740  147.9170 C   0  0  0  0  0  0  0  0  0  0  0  0
  161.1770  203.9820  145.3280 C   0  0  1  0  0  3  0  0  0  0  0  0
  160.9070  202.7750  144.6830 O   0  0  0  0  0  0  0  0  0  0  0  0
  161.5600  200.5780  147.7760 C   0  0  0  0  0  3  0  0  0  0  0  0
  161.1070  207.5220  151.0770 C   0  0  2  0  0  3  0  0  0  0  0  0
  161.9620  210.1780  149.6490 C   0  0  0  0  0  3  0  0  0  0  0  0
  161.4290  205.1480  148.2650 N   0  0  0  0  0  0  0  0  0  0  0  0
  161.4710  201.3820  148.8500 C   0  0  0  0  0  3  0  0  0  0  0  0
  161.7190  207.0420  149.7630 C   0  0  1  0  0  3  0  0  0  0  0  0
  161.6930  208.6430  153.0810 N   0  0  0  0  0  2  0  0  0  0  0  0
  160.8200  202.7490  148.9540 C   0  0  0  0  0  0  0  0  0  0  0  0
  161.1910  200.8830  146.3770 C   0  0  0  0  0  2  0  0  0  0  0  0
  161.3180  209.9810  150.9980 C   0  0  1  0  0  3  0  0  0  0  0  0
  161.0850  204.6620  150.6070 C   0  0  0  0  0  0  0  0  0  0  0  0
  161.1810  203.4270  146.6440 C   0  0  2  0  0  3  0  0  0  0  0  0
  161.3580  205.5960  149.4820 C   0  0  0  0  0  0  0  0  0  0  0  0
  160.6110  202.9270  152.7580 C   0  0  0  0  0  3  0  0  0  0  0  0
  161.9200  209.2950  148.6340 C   0  0  0  0  0  3  0  0  0  0  0  0
  160.6180  202.4360  151.4510 C   0  0  0  0  0  3  0  0  0  0  0  0
  161.2060  207.9690  148.6590 C   0  0  0  0  0  2  0  0  0  0  0  0
  161.8570  208.7010  151.6270 C   0  0  2  0  0  3  0  0  0  0  0  0
  160.8310  204.2850  152.9950 C   0  0  0  0  0  3  0  0  0  0  0  0
  161.2160  206.5590  152.1360 N   0  0  0  0  0  0  0  0  0  0  0  0
  161.6170  211.0830  151.8050 O   0  0  0  0  0  0  0  0  0  0  0  0
  160.4560  211.3110  152.5480 C   0  0  0  0  0  2  0  0  0  0  0  0
  158.3020  213.1200  150.8890 O   0  0  0  0  0  0  0  0  0  0  0  0
  158.7760  213.0090  153.1940 C   0  0  0  0  0  2  0  0  0  0  0  0
  160.0540  212.7710  152.4430 C   0  0  2  0  0  3  0  0  0  0  0  0
  157.8320  213.5330  152.1410 C   0  0  0  0  0  2  0  0  0  0  0  0
  159.6980  213.0980  151.0120 C   0  0  0  0  0  2  0  0  0  0  0  0
  1 27  1  0  0  0  0
  1 26  1  0  0  0  0
  3 16  1  6  0  0  0
  3 19  1  0  0  0  0
  4 18  1  0  0  0  0
  4 23  2  0  0  0  0
  5 11  1  0  0  0  0
  5 15  2  0  0  0  0
  6  7  1  1  0  0  0
  6  3  1  0  0  0  0
  6 19  1  0  0  0  0
  7  3  1  0  0  0  0
  8 12  2  0  0  0  0
  9 25  1  0  0  0  0
  9 27  1  1  0  0  0
 10 17  1  0  0  0  0
 11 20  2  0  0  0  0
 12 15  1  0  0  0  0
 13 24  1  6  0  0  0
 13  9  1  0  0  0  0
 14  2  1  0  0  0  0
 15  4  1  0  0  0  0
 16  8  1  0  0  0  0
 17 25  1  0  0  0  0
 17 28  1  1  0  0  0
 18  1  2  0  0  0  0
 19  5  1  1  0  0  0
 20 13  1  0  0  0  0
 20 18  1  0  0  0  0
 21 26  2  0  0  0  0
 22 24  1  0  0  0  0
 22 10  2  0  0  0  0
 23 21  1  0  0  0  0
 25 14  1  1  0  0  0
 27  2  1  0  0  0  0
 28 29  1  0  0  0  0
 30 34  1  0  0  0  0
 30 33  1  0  0  0  0
 32 29  1  6  0  0  0
 32 31  1  0  0  0  0
 33 31  1  0  0  0  0
 34 32  1  0  0  0  0
M  END
>  <MODEL>
5

>  <REMARK>
 VINA RESULT:      -7.9      2.283      4.274
  Name = 
  3 active torsions:
  status: ('A' for Active; 'I' for Inactive)
    1  A    between atoms: C_17  and  O_28
    2  A    between atoms: O_28  and  C_29
    3  A    between atoms: C_29  and  C_32
                            x       y       z     vdW  Elec       q    Type
                         _______ _______ _______ _____ _____    ______ ____

>  <TORSDO>
F 3

$$$$
=
 OpenBabel11122414343D

 34 42  0  0  1  0  0  0  0  0999 V2000
  160.8450  207.3960  154.3240 C   0  0  0  0  0  0  0  0  0  0  0  0
  161.0870  204.9530  153.5520 C   0  0  0  0  0  2  0  0  0  0  0  0
  159.3800  213.7890  152.9600 C   0  0  1  0  0  0  0  0  0  0  0  0
  160.3310  209.7240  154.8300 C   0  0  0  0  0  0  0  0  0  0  0  0
  159.9060  211.2740  152.8880 C   0  0  0  0  0  0  0  0  0  0  0  0
  159.7660  213.1910  151.1410 C   0  0  1  0  0  3  0  0  0  0  0  0
  159.6130  214.4520  151.7170 O   0  0  0  0  0  0  0  0  0  0  0  0
  158.6470  213.1240  155.1990 C   0  0  0  0  0  3  0  0  0  0  0  0
  161.3990  206.6940  151.9750 C   0  0  2  0  0  3  0  0  0  0  0  0
  161.2180  206.0800  148.9070 C   0  0  0  0  0  3  0  0  0  0  0  0
  160.1400  210.1660  152.0110 N   0  0  0  0  0  0  0  0  0  0  0  0
  159.0660  211.8470  155.2590 C   0  0  0  0  0  3  0  0  0  0  0  0
  160.5530  207.8420  151.4280 C   0  0  1  0  0  3  0  0  0  0  0  0
  161.3530  204.3400  152.2470 N   0  0  0  0  0  2  0  0  0  0  0  0
  160.0910  211.1490  154.3850 C   0  0  0  0  0  0  0  0  0  0  0  0
  158.9550  214.1360  154.1660 C   0  0  0  0  0  2  0  0  0  0  0  0
  161.9020  205.2990  150.0000 C   0  0  1  0  0  3  0  0  0  0  0  0
  160.5480  208.6990  153.8870 C   0  0  0  0  0  0  0  0  0  0  0  0
  159.7260  212.4790  152.3780 C   0  0  2  0  0  3  0  0  0  0  0  0
  160.4520  208.9770  152.4290 C   0  0  0  0  0  0  0  0  0  0  0  0
  160.7000  208.1250  156.6270 C   0  0  0  0  0  3  0  0  0  0  0  0
  160.9070  207.3880  148.9670 C   0  0  0  0  0  3  0  0  0  0  0  0
  160.4280  209.4260  156.1980 C   0  0  0  0  0  3  0  0  0  0  0  0
  161.2060  208.3040  150.1240 C   0  0  0  0  0  2  0  0  0  0  0  0
  161.0780  205.4020  151.2780 C   0  0  2  0  0  3  0  0  0  0  0  0
  160.9060  207.1100  155.6920 C   0  0  0  0  0  3  0  0  0  0  0  0
  161.1160  206.3870  153.3490 N   0  0  0  0  0  0  0  0  0  0  0  0
  162.0110  203.9640  149.5990 O   0  0  0  0  0  0  0  0  0  0  0  0
  161.2070  203.8630  148.4610 C   0  0  0  0  0  2  0  0  0  0  0  0
  161.5800  200.6240  148.2610 O   0  0  0  0  0  0  0  0  0  0  0  0
  160.5200  201.9600  149.8870 C   0  0  0  0  0  2  0  0  0  0  0  0
  160.3390  202.6210  148.5510 C   0  0  2  0  0  3  0  0  0  0  0  0
  161.0160  200.5780  149.5410 C   0  0  0  0  0  2  0  0  0  0  0  0
  160.8320  201.5850  147.5670 C   0  0  0  0  0  2  0  0  0  0  0  0
  1 26  1  0  0  0  0
  3 16  1  1  0  0  0
  4 23  2  0  0  0  0
  5 15  2  0  0  0  0
  6  7  1  1  0  0  0
  6 19  1  0  0  0  0
  6  3  1  0  0  0  0
  7  3  1  0  0  0  0
  8 12  2  0  0  0  0
  9 27  1  1  0  0  0
 10 22  2  0  0  0  0
 10 17  1  0  0  0  0
 11 20  2  0  0  0  0
 11  5  1  0  0  0  0
 13 24  1  6  0  0  0
 13  9  1  0  0  0  0
 13 20  1  0  0  0  0
 14  2  1  0  0  0  0
 15  4  1  0  0  0  0
 15 12  1  0  0  0  0
 16  8  1  0  0  0  0
 17 28  1  6  0  0  0
 17 25  1  0  0  0  0
 18  1  2  0  0  0  0
 18  4  1  0  0  0  0
 19  5  1  1  0  0  0
 19  3  1  0  0  0  0
 20 18  1  0  0  0  0
 22 24  1  0  0  0  0
 23 21  1  0  0  0  0
 25  9  1  0  0  0  0
 25 14  1  1  0  0  0
 26 21  2  0  0  0  0
 27  2  1  0  0  0  0
 27  1  1  0  0  0  0
 29 28  1  0  0  0  0
 30 33  1  0  0  0  0
 32 29  1  1  0  0  0
 32 31  1  0  0  0  0
 33 31  1  0  0  0  0
 34 30  1  0  0  0  0
 34 32  1  0  0  0  0
M  END
>  <MODEL>
6

>  <REMARK>
 VINA RESULT:      -7.2      1.765      9.059
  Name = 
  3 active torsions:
  status: ('A' for Active; 'I' for Inactive)
    1  A    between atoms: C_17  and  O_28
    2  A    between atoms: O_28  and  C_29
    3  A    between atoms: C_29  and  C_32
                            x       y       z     vdW  Elec       q    Type
                         _______ _______ _______ _____ _____    ______ ____

>  <TORSDO>
F 3

$$$$
=
 OpenBabel11122414343D

 34 42  0  0  1  0  0  0  0  0999 V2000
  160.8040  207.4270  154.3790 C   0  0  0  0  0  0  0  0  0  0  0  0
  160.9920  204.9570  153.6810 C   0  0  0  0  0  2  0  0  0  0  0  0
  159.4840  213.8080  152.8240 C   0  0  1  0  0  0  0  0  0  0  0  0
  160.3410  209.7800  154.8150 C   0  0  0  0  0  0  0  0  0  0  0  0
  159.9540  211.2810  152.8270 C   0  0  0  0  0  0  0  0  0  0  0  0
  159.8590  213.1480  151.0240 C   0  0  1  0  0  3  0  0  0  0  0  0
  159.7340  214.4290  151.5620 O   0  0  0  0  0  0  0  0  0  0  0  0
  158.7330  213.2260  155.0800 C   0  0  0  0  0  3  0  0  0  0  0  0
  161.3450  206.6430  152.0530 C   0  0  2  0  0  3  0  0  0  0  0  0
  161.1560  205.9430  149.0050 C   0  0  0  0  0  3  0  0  0  0  0  0
  160.1650  210.1430  151.9840 N   0  0  0  0  0  0  0  0  0  0  0  0
  159.1230  211.9430  155.1780 C   0  0  0  0  0  3  0  0  0  0  0  0
  160.5270  207.7930  151.4710 C   0  0  1  0  0  3  0  0  0  0  0  0
  161.2470  204.3000  152.3950 N   0  0  0  0  0  2  0  0  0  0  0  0
  160.1340  211.1960  154.3280 C   0  0  0  0  0  0  0  0  0  0  0  0
  159.0650  214.2000  154.0180 C   0  0  0  0  0  2  0  0  0  0  0  0
  161.8200  205.1790  150.1220 C   0  0  1  0  0  3  0  0  0  0  0  0
  160.5370  208.7230  153.9040 C   0  0  0  0  0  0  0  0  0  0  0  0
  159.8020  212.4740  152.2810 C   0  0  2  0  0  3  0  0  0  0  0  0
  160.4490  208.9600  152.4380 C   0  0  0  0  0  0  0  0  0  0  0  0
  160.6720  208.2270  156.6600 C   0  0  0  0  0  3  0  0  0  0  0  0
  160.8730  207.2590  149.0250 C   0  0  0  0  0  3  0  0  0  0  0  0
  160.4300  209.5210  156.1920 C   0  0  0  0  0  3  0  0  0  0  0  0
  161.1910  208.2020  150.1550 C   0  0  0  0  0  2  0  0  0  0  0  0
  160.9960  205.3390  151.3940 C   0  0  2  0  0  3  0  0  0  0  0  0
  160.8560  207.1800  155.7560 C   0  0  0  0  0  3  0  0  0  0  0  0
  161.0540  206.3840  153.4360 N   0  0  0  0  0  0  0  0  0  0  0  0
  161.9000  203.8310  149.7610 O   0  0  0  0  0  0  0  0  0  0  0  0
  161.0370  203.6990  148.6700 C   0  0  0  0  0  2  0  0  0  0  0  0
  160.1410  201.7960  146.1710 O   0  0  0  0  0  0  0  0  0  0  0  0
  161.6330  203.6170  146.2700 C   0  0  0  0  0  2  0  0  0  0  0  0
  161.7060  202.8840  147.5780 C   0  0  2  0  0  3  0  0  0  0  0  0
  160.8820  202.6700  145.3670 C   0  0  0  0  0  2  0  0  0  0  0  0
  160.9130  201.6220  147.3280 C   0  0  0  0  0  2  0  0  0  0  0  0
  1 26  1  0  0  0  0
  3 16  1  1  0  0  0
  4 23  2  0  0  0  0
  5 15  2  0  0  0  0
  6  7  1  1  0  0  0
  6 19  1  0  0  0  0
  6  3  1  0  0  0  0
  7  3  1  0  0  0  0
  8 12  2  0  0  0  0
  9 27  1  1  0  0  0
 10 22  2  0  0  0  0
 10 17  1  0  0  0  0
 11 20  2  0  0  0  0
 11  5  1  0  0  0  0
 13 24  1  6  0  0  0
 13  9  1  0  0  0  0
 13 20  1  0  0  0  0
 14  2  1  0  0  0  0
 15  4  1  0  0  0  0
 15 12  1  0  0  0  0
 16  8  1  0  0  0  0
 17 28  1  6  0  0  0
 17 25  1  0  0  0  0
 18  1  2  0  0  0  0
 18  4  1  0  0  0  0
 19  3  1  0  0  0  0
 19  5  1  1  0  0  0
 20 18  1  0  0  0  0
 22 24  1  0  0  0  0
 23 21  1  0  0  0  0
 25  9  1  0  0  0  0
 25 14  1  1  0  0  0
 26 21  2  0  0  0  0
 27  2  1  0  0  0  0
 27  1  1  0  0  0  0
 29 28  1  0  0  0  0
 30 34  1  0  0  0  0
 31 32  1  0  0  0  0
 32 29  1  1  0  0  0
 33 30  1  0  0  0  0
 33 31  1  0  0  0  0
 34 32  1  0  0  0  0
M  END
>  <MODEL>
7

>  <REMARK>
 VINA RESULT:      -7.0      1.919      9.160
  Name = 
  3 active torsions:
  status: ('A' for Active; 'I' for Inactive)
    1  A    between atoms: C_17  and  O_28
    2  A    between atoms: O_28  and  C_29
    3  A    between atoms: C_29  and  C_32
                            x       y       z     vdW  Elec       q    Type
                         _______ _______ _______ _____ _____    ______ ____

>  <TORSDO>
F 3

$$$$
=
 OpenBabel11122414343D

 34 42  0  0  1  0  0  0  0  0999 V2000
  161.2210  206.7600  152.3010 C   0  0  0  0  0  0  0  0  0  0  0  0
  161.7770  209.2030  152.8860 C   0  0  0  0  0  2  0  0  0  0  0  0
  161.1110  201.7400  147.8660 C   0  0  1  0  0  0  0  0  0  0  0  0
  160.9970  204.4530  151.5480 C   0  0  0  0  0  0  0  0  0  0  0  0
  161.3020  203.9930  149.0880 C   0  0  0  0  0  0  0  0  0  0  0  0
  161.2070  203.2300  146.6070 C   0  0  1  0  0  3  0  0  0  0  0  0
  160.9170  201.8740  146.4580 O   0  0  0  0  0  0  0  0  0  0  0  0
  161.6170  200.9680  150.1340 C   0  0  0  0  0  3  0  0  0  0  0  0
  161.2720  208.6450  150.6390 C   0  0  2  0  0  3  0  0  0  0  0  0
  162.1140  210.5740  148.3180 C   0  0  0  0  0  3  0  0  0  0  0  0
  161.5230  205.3960  148.9000 N   0  0  0  0  0  0  0  0  0  0  0  0
  161.5540  202.1130  150.8360 C   0  0  0  0  0  3  0  0  0  0  0  0
  161.8540  207.7050  149.5860 C   0  0  1  0  0  3  0  0  0  0  0  0
  161.9050  210.4190  152.0770 N   0  0  0  0  0  2  0  0  0  0  0  0
  160.9140  203.4290  150.4380 C   0  0  0  0  0  0  0  0  0  0  0  0
  161.2220  200.7390  148.7270 C   0  0  0  0  0  2  0  0  0  0  0  0
  161.4960  210.8980  149.6530 C   0  0  1  0  0  3  0  0  0  0  0  0
  161.2230  205.8140  151.2610 C   0  0  0  0  0  0  0  0  0  0  0  0
  161.2320  203.2010  148.0350 C   0  0  2  0  0  3  0  0  0  0  0  0
  161.4790  206.2630  149.8660 C   0  0  0  0  0  0  0  0  0  0  0  0
  160.7810  205.0040  153.9090 C   0  0  0  0  0  3  0  0  0  0  0  0
  162.0470  209.3790  147.7010 C   0  0  0  0  0  3  0  0  0  0  0  0
  160.7590  204.0640  152.8760 C   0  0  0  0  0  3  0  0  0  0  0  0
  161.3250  208.1650  148.2260 C   0  0  0  0  0  2  0  0  0  0  0  0
  162.0390  209.9340  150.7020 C   0  0  2  0  0  3  0  0  0  0  0  0
  161.0140  206.3500  153.6240 C   0  0  0  0  0  3  0  0  0  0  0  0
  161.3960  208.1400  151.9780 N   0  0  0  0  0  0  0  0  0  0  0  0
  161.8180  212.2160  149.9910 O   0  0  0  0  0  0  0  0  0  0  0  0
  160.9390  213.0040  149.2440 C   0  0  0  0  0  2  0  0  0  0  0  0
  162.8000  213.1430  146.5630 O   0  0  0  0  0  0  0  0  0  0  0  0
  160.9560  214.4470  147.2330 C   0  0  0  0  0  2  0  0  0  0  0  0
  161.7180  214.0490  148.4650 C   0  0  2  0  0  3  0  0  0  0  0  0
  161.8950  214.1070  146.1040 C   0  0  0  0  0  2  0  0  0  0  0  0
  162.9870  213.4360  147.9210 C   0  0  0  0  0  2  0  0  0  0  0  0
  1 26  1  0  0  0  0
  3 19  1  0  0  0  0
  3 16  1  1  0  0  0
  4 23  2  0  0  0  0
  5 15  2  0  0  0  0
  6  7  1  1  0  0  0
  6  3  1  0  0  0  0
  6 19  1  0  0  0  0
  7  3  1  0  0  0  0
  8 12  2  0  0  0  0
  9 25  1  0  0  0  0
  9 27  1  1  0  0  0
 10 17  1  0  0  0  0
 11  5  1  0  0  0  0
 11 20  2  0  0  0  0
 13 24  1  6  0  0  0
 13 20  1  0  0  0  0
 13  9  1  0  0  0  0
 14  2  1  0  0  0  0
 15 12  1  0  0  0  0
 15  4  1  0  0  0  0
 16  8  1  0  0  0  0
 17 28  1  1  0  0  0
 17 25  1  0  0  0  0
 18  4  1  0  0  0  0
 18  1  2  0  0  0  0
 19  5  1  1  0  0  0
 20 18  1  0  0  0  0
 22 24  1  0  0  0  0
 22 10  2  0  0  0  0
 23 21  1  0  0  0  0
 25 14  1  1  0  0  0
 26 21  2  0  0  0  0
 27  1  1  0  0  0  0
 27  2  1  0  0  0  0
 29 28  1  0  0  0  0
 30 34  1  0  0  0  0
 31 32  1  0  0  0  0
 32 29  1  6  0  0  0
 33 30  1  0  0  0  0
 33 31  1  0  0  0  0
 34 32  1  0  0  0  0
M  END
>  <MODEL>
8

>  <REMARK>
 VINA RESULT:      -6.6      2.905      5.391
  Name = 
  3 active torsions:
  status: ('A' for Active; 'I' for Inactive)
    1  A    between atoms: C_17  and  O_28
    2  A    between atoms: O_28  and  C_29
    3  A    between atoms: C_29  and  C_32
                            x       y       z     vdW  Elec       q    Type
                         _______ _______ _______ _____ _____    ______ ____

>  <TORSDO>
F 3

$$$$
=
 OpenBabel11122414343D

 34 42  0  0  1  0  0  0  0  0999 V2000
  160.9280  207.0940  153.8110 C   0  0  0  0  0  0  0  0  0  0  0  0
  161.5610  205.2880  152.0910 C   0  0  0  0  0  2  0  0  0  0  0  0
  158.7690  213.2850  155.1910 C   0  0  1  0  0  0  0  0  0  0  0  0
  160.0660  208.8980  155.2060 C   0  0  0  0  0  0  0  0  0  0  0  0
  159.6270  211.1200  154.1000 C   0  0  0  0  0  0  0  0  0  0  0  0
  159.4000  213.6020  153.3690 C   0  0  1  0  0  3  0  0  0  0  0  0
  159.0290  214.4520  154.4110 O   0  0  0  0  0  0  0  0  0  0  0  0
  157.9220  211.6270  156.7810 C   0  0  0  0  0  3  0  0  0  0  0  0
  161.7890  207.5710  151.4980 C   0  0  2  0  0  3  0  0  0  0  0  0
  161.9810  208.3960  148.4810 C   0  0  0  0  0  3  0  0  0  0  0  0
  160.0860  210.5480  152.8710 N   0  0  0  0  0  0  0  0  0  0  0  0
  158.4980  210.4970  156.3350 C   0  0  0  0  0  3  0  0  0  0  0  0
  160.8550  208.7750  151.3950 C   0  0  1  0  0  3  0  0  0  0  0  0
  162.0280  205.3520  150.7020 N   0  0  0  0  0  2  0  0  0  0  0  0
  159.6840  210.3480  155.4010 C   0  0  0  0  0  0  0  0  0  0  0  0
  158.1900  213.0160  156.3520 C   0  0  0  0  0  2  0  0  0  0  0  0
  162.6560  207.2590  149.2060 C   0  0  1  0  0  3  0  0  0  0  0  0
  160.5050  208.4280  153.9510 C   0  0  0  0  0  0  0  0  0  0  0  0
  159.3380  212.4080  154.1490 C   0  0  2  0  0  3  0  0  0  0  0  0
  160.5110  209.3250  152.7650 C   0  0  0  0  0  0  0  0  0  0  0  0
  160.4720  206.6930  156.1540 C   0  0  0  0  0  3  0  0  0  0  0  0
  161.4960  209.5080  149.0620 C   0  0  0  0  0  3  0  0  0  0  0  0
  160.0720  208.0230  156.3040 C   0  0  0  0  0  3  0  0  0  0  0  0
  161.5610  209.8240  150.5330 C   0  0  0  0  0  2  0  0  0  0  0  0
  161.7080  206.7130  150.2680 C   0  0  2  0  0  3  0  0  0  0  0  0
  160.8960  206.2270  154.9090 C   0  0  0  0  0  3  0  0  0  0  0  0
  161.4200  206.6580  152.5430 N   0  0  0  0  0  0  0  0  0  0  0  0
  162.9770  206.2610  148.2820 O   0  0  0  0  0  0  0  0  0  0  0  0
  162.2530  206.5890  147.1330 C   0  0  0  0  0  2  0  0  0  0  0  0
  161.2940  204.6240  144.7060 O   0  0  0  0  0  0  0  0  0  0  0  0
  161.7690  204.1670  146.9680 C   0  0  0  0  0  2  0  0  0  0  0  0
  161.1780  205.5450  146.8850 C   0  0  2  0  0  3  0  0  0  0  0  0
  161.4900  203.5740  145.6100 C   0  0  0  0  0  2  0  0  0  0  0  0
  160.6940  205.6440  145.4570 C   0  0  0  0  0  2  0  0  0  0  0  0
  1 18  2  0  0  0  0
  1 26  1  0  0  0  0
  2 27  1  0  0  0  0
  3 16  1  6  0  0  0
  4 15  1  0  0  0  0
  4 23  2  0  0  0  0
  5 15  2  0  0  0  0
  6 19  1  0  0  0  0
  6  7  1  1  0  0  0
  6  3  1  0  0  0  0
  7  3  1  0  0  0  0
  9 27  1  1  0  0  0
 10 22  2  0  0  0  0
 10 17  1  0  0  0  0
 11  5  1  0  0  0  0
 12  8  2  0  0  0  0
 13 24  1  6  0  0  0
 13  9  1  0  0  0  0
 13 20  1  0  0  0  0
 14  2  1  0  0  0  0
 15 12  1  0  0  0  0
 16  8  1  0  0  0  0
 17 28  1  6  0  0  0
 17 25  1  0  0  0  0
 18  4  1  0  0  0  0
 19  5  1  1  0  0  0
 19  3  1  0  0  0  0
 20 11  2  0  0  0  0
 20 18  1  0  0  0  0
 21 23  1  0  0  0  0
 22 24  1  0  0  0  0
 25 14  1  1  0  0  0
 25  9  1  0  0  0  0
 26 21  2  0  0  0  0
 27  1  1  0  0  0  0
 29 28  1  0  0  0  0
 30 34  1  0  0  0  0
 30 33  1  0  0  0  0
 32 31  1  0  0  0  0
 32 29  1  6  0  0  0
 33 31  1  0  0  0  0
 34 32  1  0  0  0  0
M  END
>  <MODEL>
9

>  <REMARK>
 VINA RESULT:      -6.5      2.075      9.106
  Name = 
  3 active torsions:
  status: ('A' for Active; 'I' for Inactive)
    1  A    between atoms: C_17  and  O_28
    2  A    between atoms: O_28  and  C_29
    3  A    between atoms: C_29  and  C_32
                            x       y       z     vdW  Elec       q    Type
                         _______ _______ _______ _____ _____    ______ ____

>  <TORSDO>
F 3

$$$$
