=
 OpenBabel11122412453D

 30 35  0  0  1  0  0  0  0  0999 V2000
  161.1910  208.3650  151.2780 C   0  0  0  0  0  0  0  0  0  0  0  0
  161.2640  209.3680  153.5760 C   0  0  0  0  0  0  0  0  0  0  0  0
  161.0040  204.5820  152.8270 O   0  0  0  0  0  0  0  0  0  0  0  0
  161.0920  207.2130  150.4560 C   0  0  0  0  0  0  0  0  0  0  0  0
  161.2660  209.6980  150.5770 C   0  0  0  0  0  2  0  0  0  0  0  0
  163.2820  207.7770  148.3050 O   0  0  0  0  0  1  0  0  0  0  0  0
  161.6540  205.0820  148.1940 C   0  0  1  0  0  3  0  0  0  0  0  0
  162.0590  208.4320  148.4570 C   0  0  2  0  0  3  0  0  0  0  0  0
  161.1630  204.2170  149.2430 N   0  0  0  0  0  0  0  0  0  0  0  0
  160.9920  203.8370  151.7420 C   0  0  0  0  0  0  0  0  0  0  0  0
  162.2480  209.6420  149.3960 C   0  0  1  0  0  3  0  0  0  0  0  0
  160.9850  207.4570  148.9640 C   0  0  1  0  0  3  0  0  0  0  0  0
  161.2530  209.1830  154.9620 C   0  0  0  0  0  3  0  0  0  0  0  0
  160.9760  202.8490  148.8040 C   0  0  0  0  0  2  0  0  0  0  0  0
  161.6690  204.2410  146.9280 C   0  0  0  0  0  2  0  0  0  0  0  0
  161.3470  210.6710  153.0980 O   0  0  0  0  0  1  0  0  0  0  0  0
  161.0540  205.8400  152.4550 C   0  0  0  0  0  0  0  0  0  0  0  0
  161.1720  207.9060  155.5120 C   0  0  0  0  0  3  0  0  0  0  0  0
  161.1900  208.2490  152.7040 C   0  0  0  0  0  0  0  0  0  0  0  0
  161.0620  205.9530  151.0850 C   0  0  0  0  0  0  0  0  0  0  0  0
  160.9660  202.3490  151.7790 C   0  0  0  0  0  1  0  0  0  0  0  0
  161.0350  204.6470  150.6090 C   0  0  0  0  0  0  0  0  0  0  0  0
  161.4800  202.7980  147.3730 C   0  0  0  0  0  2  0  0  0  0  0  0
  159.8170  206.2810  147.3010 O   0  0  0  0  0  0  0  0  0  0  0  0
  161.1020  206.7920  154.6780 C   0  0  0  0  0  3  0  0  0  0  0  0
  161.1100  206.9520  153.2900 C   0  0  0  0  0  0  0  0  0  0  0  0
  160.7640  206.2770  148.0740 C   0  0  0  0  0  0  0  0  0  0  0  0
  162.2700  210.9560  148.6220 C   0  0  0  0  0  2  0  0  0  0  0  0
  161.5010  213.3070  148.4970 C   0  0  0  0  0  1  0  0  0  0  0  0
  161.5420  212.0670  149.3620 C   0  0  0  0  0  2  0  0  0  0  0  0
  1 19  1  0  0  0  0
  2 13  1  0  0  0  0
  4 20  1  0  0  0  0
  4  1  2  0  0  0  0
  5  1  1  0  0  0  0
  7 15  1  6  0  0  0
  7  9  1  0  0  0  0
  8  6  1  1  0  0  0
  8 12  1  0  0  0  0
  8 11  1  0  0  0  0
  9 22  1  0  0  0  0
 10 21  1  0  0  0  0
 10  3  1  0  0  0  0
 11 28  1  6  0  0  0
 11  5  1  0  0  0  0
 12 27  1  6  0  0  0
 12  4  1  0  0  0  0
 13 18  2  0  0  0  0
 14  9  1  0  0  0  0
 15 23  1  0  0  0  0
 16  2  1  0  0  0  0
 17  3  1  0  0  0  0
 17 26  1  0  0  0  0
 19 26  1  0  0  0  0
 19  2  2  0  0  0  0
 20 17  2  0  0  0  0
 22 20  1  0  0  0  0
 22 10  2  0  0  0  0
 23 14  1  0  0  0  0
 24 27  2  0  0  0  0
 25 18  1  0  0  0  0
 26 25  2  0  0  0  0
 27  7  1  0  0  0  0
 28 30  1  0  0  0  0
 29 30  1  0  0  0  0
M  END
>  <MODEL>
1

>  <REMARK>
 VINA RESULT:      -9.9      0.000      0.000
  Name = 
  2 active torsions:
  status: ('A' for Active; 'I' for Inactive)
    1  A    between atoms: C_11  and  C_28
    2  A    between atoms: C_28  and  C_30
                            x       y       z     vdW  Elec       q    Type
                         _______ _______ _______ _____ _____    ______ ____

>  <TORSDO>
F 2

$$$$
=
 OpenBabel11122412453D

 30 35  0  0  1  0  0  0  0  0999 V2000
  161.8530  207.2700  151.3680 C   0  0  0  0  0  0  0  0  0  0  0  0
  162.0550  209.7490  151.0410 C   0  0  0  0  0  0  0  0  0  0  0  0
  161.5700  206.6610  147.3310 O   0  0  0  0  0  0  0  0  0  0  0  0
  161.7360  205.9740  150.8020 C   0  0  0  0  0  0  0  0  0  0  0  0
  161.9350  207.3530  152.8710 C   0  0  0  0  0  2  0  0  0  0  0  0
  159.5360  204.6900  152.6060 O   0  0  0  0  0  1  0  0  0  0  0  0
  160.7430  203.0350  150.2130 C   0  0  1  0  0  3  0  0  0  0  0  0
  160.8480  205.0000  152.9660 C   0  0  2  0  0  3  0  0  0  0  0  0
  161.1600  203.4340  148.8870 N   0  0  0  0  0  0  0  0  0  0  0  0
  161.4120  205.3560  147.2570 C   0  0  0  0  0  0  0  0  0  0  0  0
  160.8910  206.4370  153.5290 C   0  0  1  0  0  3  0  0  0  0  0  0
  161.7940  204.8090  151.7710 C   0  0  1  0  0  3  0  0  0  0  0  0
  162.1160  210.8380  150.1670 C   0  0  0  0  0  3  0  0  0  0  0  0
  161.1200  202.3450  147.9330 C   0  0  0  0  0  2  0  0  0  0  0  0
  160.5350  201.5300  150.1520 C   0  0  0  0  0  2  0  0  0  0  0  0
  162.1360  210.0080  152.4050 O   0  0  0  0  0  1  0  0  0  0  0  0
  161.6840  206.9840  148.5990 C   0  0  0  0  0  0  0  0  0  0  0  0
  162.0390  210.6540  148.7880 C   0  0  0  0  0  3  0  0  0  0  0  0
  161.9160  208.4300  150.5320 C   0  0  0  0  0  0  0  0  0  0  0  0
  161.6160  205.8720  149.4030 C   0  0  0  0  0  0  0  0  0  0  0  0
  161.2220  204.6330  145.9690 C   0  0  0  0  0  1  0  0  0  0  0  0
  161.4250  204.8030  148.5350 C   0  0  0  0  0  0  0  0  0  0  0  0
  160.5350  201.1590  148.6770 C   0  0  0  0  0  2  0  0  0  0  0  0
  162.6830  202.6510  151.5160 O   0  0  0  0  0  0  0  0  0  0  0  0
  161.8990  209.3700  148.2650 C   0  0  0  0  0  3  0  0  0  0  0  0
  161.8380  208.2660  149.1180 C   0  0  0  0  0  0  0  0  0  0  0  0
  161.7900  203.4260  151.2050 C   0  0  0  0  0  0  0  0  0  0  0  0
  161.0180  206.4410  155.0490 C   0  0  0  0  0  2  0  0  0  0  0  0
  160.1940  207.3440  157.2040 C   0  0  0  0  0  1  0  0  0  0  0  0
  159.9950  207.3570  155.7040 C   0  0  0  0  0  2  0  0  0  0  0  0
  1  5  1  0  0  0  0
  2 16  1  0  0  0  0
  3 17  1  0  0  0  0
  4  1  1  0  0  0  0
  5 11  1  0  0  0  0
  7 15  1  6  0  0  0
  7 27  1  0  0  0  0
  8  6  1  6  0  0  0
  8 11  1  0  0  0  0
  9  7  1  0  0  0  0
 10  3  1  0  0  0  0
 10 22  2  0  0  0  0
 11 28  1  1  0  0  0
 12  4  1  6  0  0  0
 12  8  1  0  0  0  0
 13  2  2  0  0  0  0
 14 23  1  0  0  0  0
 14  9  1  0  0  0  0
 17 26  2  0  0  0  0
 17 20  1  0  0  0  0
 18 13  1  0  0  0  0
 19  2  1  0  0  0  0
 19  1  2  0  0  0  0
 20  4  2  0  0  0  0
 21 10  1  0  0  0  0
 22  9  1  0  0  0  0
 22 20  1  0  0  0  0
 23 15  1  0  0  0  0
 25 18  2  0  0  0  0
 25 26  1  0  0  0  0
 26 19  1  0  0  0  0
 27 24  2  0  0  0  0
 27 12  1  0  0  0  0
 28 30  1  0  0  0  0
 30 29  1  0  0  0  0
M  END
>  <MODEL>
2

>  <REMARK>
 VINA RESULT:      -8.1      1.352      5.008
  Name = 
  2 active torsions:
  status: ('A' for Active; 'I' for Inactive)
    1  A    between atoms: C_11  and  C_28
    2  A    between atoms: C_28  and  C_30
                            x       y       z     vdW  Elec       q    Type
                         _______ _______ _______ _____ _____    ______ ____

>  <TORSDO>
F 2

$$$$
