=
 OpenBabel11122413303D

 31 35  0  0  1  0  0  0  0  0999 V2000
  160.7800  207.5750  156.2310 C   0  0  0  0  0  0  0  0  0  0  0  0
  161.9460  208.8920  152.8550 C   0  0  2  0  0  3  0  0  0  0  0  0
  161.4530  207.9520  151.7710 C   0  0  0  0  0  0  0  0  0  0  0  0
  157.9390  212.3420  152.3820 O   0  0  0  0  0  0  0  0  0  0  0  0
  158.8680  212.7010  151.6070 C   0  0  0  0  0  0  0  0  0  0  0  0
  160.5300  205.8230  151.0470 C   0  0  0  0  0  0  0  0  0  0  0  0
  161.1870  208.7420  154.1470 C   0  0  0  0  0  0  0  0  0  0  0  0
  159.6620  208.3810  156.4660 C   0  0  0  0  0  3  0  0  0  0  0  0
  160.8970  206.6980  152.0720 C   0  0  0  0  0  3  0  0  0  0  0  0
  160.5180  210.9640  152.4950 C   0  0  0  0  0  0  0  0  0  0  0  0
  161.1340  206.5950  157.1480 O   0  0  0  0  0  1  0  0  0  0  0  0
  162.2900  209.5510  150.0950 N   0  0  0  0  0  0  0  0  0  0  0  0
  159.9810  204.6210  151.3470 F   0  0  0  0  0  0  0  0  0  0  0  0
  159.7280  210.5970  153.4650 N   0  0  0  0  0  0  0  0  0  0  0  0
  161.9080  210.3640  152.3770 C   0  0  2  0  0  3  0  0  0  0  0  0
  160.1390  212.0400  151.6240 N   0  0  0  0  0  2  0  0  0  0  0  0
  161.5400  207.7510  155.0700 C   0  0  0  0  0  3  0  0  0  0  0  0
  160.7400  206.1800  149.7130 C   0  0  0  0  0  3  0  0  0  0  0  0
  160.0700  209.5580  154.3900 C   0  0  0  0  0  0  0  0  0  0  0  0
  159.3060  209.3720  155.5450 C   0  0  0  0  0  3  0  0  0  0  0  0
  162.4510  210.4940  150.9750 C   0  0  0  0  0  3  0  0  0  0  0  0
  161.6720  208.3000  150.4240 C   0  0  0  0  0  0  0  0  0  0  0  0
  161.3150  207.4150  149.4010 C   0  0  0  0  0  3  0  0  0  0  0  0
  157.6850  213.4500  147.8760 N   0  0  0  0  0  0  0  0  0  0  0  0
  157.1800  213.9000  150.2150 C   0  0  0  0  0  2  0  0  0  0  0  0
  160.8130  213.8680  149.6110 O   0  0  0  0  0  0  0  0  0  0  0  0
  157.4170  212.5360  146.7810 C   0  0  0  0  0  1  0  0  0  0  0  0
  156.9040  212.9890  149.0200 C   0  0  0  0  0  2  0  0  0  0  0  0
  159.5740  213.7040  149.4620 C   0  0  0  0  0  0  0  0  0  0  0  0
  158.6500  213.8240  150.6420 C   0  0  2  0  0  3  0  0  0  0  0  0
  159.0550  213.3280  148.1810 N   0  0  0  0  0  2  0  0  0  0  0  0
  1  8  1  0  0  0  0
  1 11  1  0  0  0  0
  2  3  1  6  0  0  0
  2  7  1  0  0  0  0
  3  9  1  0  0  0  0
  5 16  1  0  0  0  0
  5  4  2  0  0  0  0
  6 13  1  0  0  0  0
  6  9  2  0  0  0  0
  7 19  2  0  0  0  0
  7 17  1  0  0  0  0
 10 14  2  0  0  0  0
 12 22  1  0  0  0  0
 12 21  2  0  0  0  0
 14 19  1  0  0  0  0
 15 21  1  6  0  0  0
 15 10  1  0  0  0  0
 15  2  1  0  0  0  0
 16 10  1  0  0  0  0
 17  1  2  0  0  0  0
 18  6  1  0  0  0  0
 19 20  1  0  0  0  0
 20  8  2  0  0  0  0
 22  3  2  0  0  0  0
 23 18  2  0  0  0  0
 23 22  1  0  0  0  0
 24 31  1  0  0  0  0
 24 28  1  0  0  0  0
 25 30  1  0  0  0  0
 27 24  1  0  0  0  0
 28 25  1  0  0  0  0
 29 26  2  0  0  0  0
 29 30  1  0  0  0  0
 30  5  1  1  0  0  0
 31 29  1  0  0  0  0
M  END
>  <MODEL>
1

>  <REMARK>
 VINA RESULT:      -6.7      0.000      0.000
  Name = 
  1 active torsions:
  status: ('A' for Active; 'I' for Inactive)
    1  A    between atoms: C_5  and  C_30
                            x       y       z     vdW  Elec       q    Type
                         _______ _______ _______ _____ _____    ______ ____

>  <TORSDO>
F 1

$$$$
=
 OpenBabel11122413303D

 31 35  0  0  1  0  0  0  0  0999 V2000
  162.2180  213.7960  147.0090 C   0  0  0  0  0  0  0  0  0  0  0  0
  159.9000  214.4130  149.9630 C   0  0  2  0  0  3  0  0  0  0  0  0
  158.4700  214.1650  149.5180 C   0  0  0  0  0  0  0  0  0  0  0  0
  160.6190  209.5790  152.0350 O   0  0  0  0  0  0  0  0  0  0  0  0
  160.1740  210.3380  152.9400 C   0  0  0  0  0  0  0  0  0  0  0  0
  156.7960  213.8560  147.7830 C   0  0  0  0  0  0  0  0  0  0  0  0
  160.9130  213.7770  149.0490 C   0  0  0  0  0  0  0  0  0  0  0  0
  162.6770  212.5050  147.2880 C   0  0  0  0  0  3  0  0  0  0  0  0
  158.1320  213.9990  148.1650 C   0  0  0  0  0  3  0  0  0  0  0  0
  160.3570  212.4440  151.5060 C   0  0  0  0  0  0  0  0  0  0  0  0
  162.6380  214.4460  145.8560 O   0  0  0  0  0  1  0  0  0  0  0  0
  157.7600  214.4530  151.8590 N   0  0  0  0  0  0  0  0  0  0  0  0
  156.4810  213.6820  146.4770 F   0  0  0  0  0  0  0  0  0  0  0  0
  160.9850  211.8280  150.5440 N   0  0  0  0  0  0  0  0  0  0  0  0
  160.1190  213.9430  151.4220 C   0  0  2  0  0  3  0  0  0  0  0  0
  160.0190  211.7440  152.7120 N   0  0  0  0  0  2  0  0  0  0  0  0
  161.3330  214.4300  147.8850 C   0  0  0  0  0  3  0  0  0  0  0  0
  155.7830  213.9060  148.7440 C   0  0  0  0  0  3  0  0  0  0  0  0
  161.3840  212.4840  149.3350 C   0  0  0  0  0  0  0  0  0  0  0  0
  162.2600  211.8490  148.4500 C   0  0  0  0  0  3  0  0  0  0  0  0
  158.9780  214.3730  152.3090 C   0  0  0  0  0  3  0  0  0  0  0  0
  157.4430  214.2260  150.4800 C   0  0  0  0  0  0  0  0  0  0  0  0
  156.1060  214.0960  150.0910 C   0  0  0  0  0  3  0  0  0  0  0  0
  161.5450  209.8220  156.6450 N   0  0  0  0  0  0  0  0  0  0  0  0
  159.7750  210.8720  155.3440 C   0  0  0  0  0  2  0  0  0  0  0  0
  160.6310  207.5480  154.0060 O   0  0  0  0  0  0  0  0  0  0  0  0
  162.8750  210.0320  157.1860 C   0  0  0  0  0  1  0  0  0  0  0  0
  161.1590  211.0540  155.9640 C   0  0  0  0  0  2  0  0  0  0  0  0
  160.6830  208.6290  154.6500 C   0  0  0  0  0  0  0  0  0  0  0  0
  159.7880  209.7760  154.2720 C   0  0  2  0  0  3  0  0  0  0  0  0
  161.6510  208.7890  155.6930 N   0  0  0  0  0  2  0  0  0  0  0  0
  1  8  2  0  0  0  0
  1 17  1  0  0  0  0
  2  7  1  6  0  0  0
  2 15  1  0  0  0  0
  3  2  1  0  0  0  0
  3 22  1  0  0  0  0
  4  5  2  0  0  0  0
  6  9  1  0  0  0  0
  6 18  2  0  0  0  0
  7 19  1  0  0  0  0
  8 20  1  0  0  0  0
  9  3  2  0  0  0  0
 10 16  1  0  0  0  0
 11  1  1  0  0  0  0
 12 21  2  0  0  0  0
 13  6  1  0  0  0  0
 14 10  2  0  0  0  0
 15 10  1  0  0  0  0
 15 21  1  1  0  0  0
 16  5  1  0  0  0  0
 17  7  2  0  0  0  0
 18 23  1  0  0  0  0
 19 14  1  0  0  0  0
 20 19  2  0  0  0  0
 22 12  1  0  0  0  0
 23 22  2  0  0  0  0
 24 27  1  0  0  0  0
 25 28  1  0  0  0  0
 26 29  2  0  0  0  0
 28 24  1  0  0  0  0
 29 31  1  0  0  0  0
 30  5  1  6  0  0  0
 30 29  1  0  0  0  0
 30 25  1  0  0  0  0
 31 24  1  0  0  0  0
M  END
>  <MODEL>
2

>  <REMARK>
 VINA RESULT:      -5.7      3.321      8.009
  Name = 
  1 active torsions:
  status: ('A' for Active; 'I' for Inactive)
    1  A    between atoms: C_5  and  C_30
                            x       y       z     vdW  Elec       q    Type
                         _______ _______ _______ _____ _____    ______ ____

>  <TORSDO>
F 1

$$$$
=
 OpenBabel11122413303D

 31 35  0  0  1  0  0  0  0  0999 V2000
  161.4970  206.1780  152.9880 C   0  0  0  0  0  0  0  0  0  0  0  0
  159.8950  209.5380  153.7820 C   0  0  2  0  0  3  0  0  0  0  0  0
  160.7340  210.2400  154.8330 C   0  0  0  0  0  0  0  0  0  0  0  0
  162.1130  212.0120  149.6420 O   0  0  0  0  0  0  0  0  0  0  0  0
  161.1200  212.6890  150.0260 C   0  0  0  0  0  0  0  0  0  0  0  0
  162.4570  210.2290  156.5480 C   0  0  0  0  0  0  0  0  0  0  0  0
  160.6470  208.4440  153.0700 C   0  0  0  0  0  0  0  0  0  0  0  0
  162.1820  206.4760  151.8050 C   0  0  0  0  0  3  0  0  0  0  0  0
  161.7590  209.5770  155.5290 C   0  0  0  0  0  3  0  0  0  0  0  0
  160.3360  210.9210  151.6950 C   0  0  0  0  0  0  0  0  0  0  0  0
  161.5810  204.9050  153.5360 O   0  0  0  0  0  1  0  0  0  0  0  0
  159.3110  212.2300  154.5470 N   0  0  0  0  0  0  0  0  0  0  0  0
  163.4540  209.5870  157.2030 F   0  0  0  0  0  0  0  0  0  0  0  0
  161.2060  210.0400  151.2870 N   0  0  0  0  0  0  0  0  0  0  0  0
  159.3190  210.5500  152.7610 C   0  0  2  0  0  3  0  0  0  0  0  0
  160.2360  212.1930  151.0390 N   0  0  0  0  0  2  0  0  0  0  0  0
  160.7350  207.1620  153.6230 C   0  0  0  0  0  3  0  0  0  0  0  0
  162.1190  211.5380  156.9020 C   0  0  0  0  0  3  0  0  0  0  0  0
  161.3240  208.7390  151.8750 C   0  0  0  0  0  0  0  0  0  0  0  0
  162.0960  207.7560  151.2490 C   0  0  0  0  0  3  0  0  0  0  0  0
  158.7740  211.7720  153.4560 C   0  0  0  0  0  3  0  0  0  0  0  0
  160.3920  211.5550  155.2040 C   0  0  0  0  0  0  0  0  0  0  0  0
  161.0840  212.1990  156.2340 C   0  0  0  0  0  3  0  0  0  0  0  0
  159.4460  214.4530  146.8690 N   0  0  0  0  0  0  0  0  0  0  0  0
  159.3470  214.2850  149.2960 C   0  0  0  0  0  2  0  0  0  0  0  0
  162.8280  214.2630  148.0930 O   0  0  0  0  0  0  0  0  0  0  0  0
  158.9360  213.8760  145.6390 C   0  0  0  0  0  1  0  0  0  0  0  0
  158.8140  213.7380  147.9730 C   0  0  0  0  0  2  0  0  0  0  0  0
  161.5710  214.1970  148.1210 C   0  0  0  0  0  0  0  0  0  0  0  0
  160.8530  214.0370  149.4320 C   0  0  2  0  0  3  0  0  0  0  0  0
  160.8310  214.1980  146.8950 N   0  0  0  0  0  2  0  0  0  0  0  0
  1 11  1  0  0  0  0
  1 17  1  0  0  0  0
  2  7  1  6  0  0  0
  2  3  1  0  0  0  0
  3 22  2  0  0  0  0
  3  9  1  0  0  0  0
  4  5  2  0  0  0  0
  5 16  1  0  0  0  0
  6 18  1  0  0  0  0
  6 13  1  0  0  0  0
  7 17  2  0  0  0  0
  8  1  2  0  0  0  0
  9  6  2  0  0  0  0
 10 15  1  0  0  0  0
 12 22  1  0  0  0  0
 14 10  2  0  0  0  0
 14 19  1  0  0  0  0
 15 21  1  1  0  0  0
 15  2  1  0  0  0  0
 16 10  1  0  0  0  0
 19  7  1  0  0  0  0
 20  8  1  0  0  0  0
 20 19  2  0  0  0  0
 21 12  2  0  0  0  0
 22 23  1  0  0  0  0
 23 18  2  0  0  0  0
 24 31  1  0  0  0  0
 24 28  1  0  0  0  0
 25 30  1  0  0  0  0
 26 29  2  0  0  0  0
 27 24  1  0  0  0  0
 28 25  1  0  0  0  0
 29 30  1  0  0  0  0
 30  5  1  6  0  0  0
 31 29  1  0  0  0  0
M  END
>  <MODEL>
3

>  <REMARK>
 VINA RESULT:      -5.3      2.568      4.424
  Name = 
  1 active torsions:
  status: ('A' for Active; 'I' for Inactive)
    1  A    between atoms: C_5  and  C_30
                            x       y       z     vdW  Elec       q    Type
                         _______ _______ _______ _____ _____    ______ ____

>  <TORSDO>
F 1

$$$$
=
 OpenBabel11122413303D

 31 35  0  0  1  0  0  0  0  0999 V2000
  162.3500  207.5390  139.6110 C   0  0  0  0  0  0  0  0  0  0  0  0
  161.1780  210.9480  140.8320 C   0  0  2  0  0  3  0  0  0  0  0  0
  162.1160  212.0090  140.2860 C   0  0  0  0  0  0  0  0  0  0  0  0
  157.5340  211.4950  137.0110 O   0  0  0  0  0  0  0  0  0  0  0  0
  157.2440  212.2810  137.9540 C   0  0  0  0  0  0  0  0  0  0  0  0
  164.2110  212.6780  139.2490 C   0  0  0  0  0  0  0  0  0  0  0  0
  161.2570  209.6510  140.0710 C   0  0  0  0  0  0  0  0  0  0  0  0
  161.4810  207.3210  138.5370 C   0  0  0  0  0  3  0  0  0  0  0  0
  163.3320  211.6760  139.6660 C   0  0  0  0  0  3  0  0  0  0  0  0
  159.0430  211.3550  139.5130 C   0  0  0  0  0  0  0  0  0  0  0  0
  163.3250  206.5990  139.9150 O   0  0  0  0  0  1  0  0  0  0  0  0
  160.6050  213.7250  141.2000 N   0  0  0  0  0  0  0  0  0  0  0  0
  165.3740  212.3480  138.6400 F   0  0  0  0  0  0  0  0  0  0  0  0
  159.3440  210.3750  138.7090 N   0  0  0  0  0  0  0  0  0  0  0  0
  159.7180  211.4620  140.8700 C   0  0  2  0  0  3  0  0  0  0  0  0
  157.9690  212.2510  139.1890 N   0  0  0  0  0  2  0  0  0  0  0  0
  162.2430  208.7060  140.3740 C   0  0  0  0  0  3  0  0  0  0  0  0
  163.8970  214.0220  139.4730 C   0  0  0  0  0  3  0  0  0  0  0  0
  160.3770  209.4260  138.9990 C   0  0  0  0  0  0  0  0  0  0  0  0
  160.4950  208.2640  138.2310 C   0  0  0  0  0  3  0  0  0  0  0  0
  159.6510  212.8680  141.4140 C   0  0  0  0  0  3  0  0  0  0  0  0
  161.8130  213.3640  140.5180 C   0  0  0  0  0  0  0  0  0  0  0  0
  162.7020  214.3640  140.1110 C   0  0  0  0  0  3  0  0  0  0  0  0
  154.2400  213.9840  139.9440 N   0  0  0  0  0  0  0  0  0  0  0  0
  156.3120  214.4530  138.7550 C   0  0  0  0  0  2  0  0  0  0  0  0
  154.3890  211.7850  137.0960 O   0  0  0  0  0  0  0  0  0  0  0  0
  153.6920  213.6720  141.2510 C   0  0  0  0  0  1  0  0  0  0  0  0
  155.6790  214.1580  140.1130 C   0  0  0  0  0  2  0  0  0  0  0  0
  154.7940  212.6100  137.9560 C   0  0  0  0  0  0  0  0  0  0  0  0
  156.1340  213.2720  137.7930 C   0  0  2  0  0  3  0  0  0  0  0  0
  154.0110  212.8590  139.1280 N   0  0  0  0  0  2  0  0  0  0  0  0
  1 11  1  0  0  0  0
  1 17  1  0  0  0  0
  2  7  1  6  0  0  0
  2 15  1  0  0  0  0
  3 22  1  0  0  0  0
  3  2  1  0  0  0  0
  4  5  2  0  0  0  0
  5 16  1  0  0  0  0
  6 18  2  0  0  0  0
  6  9  1  0  0  0  0
  7 17  2  0  0  0  0
  8  1  2  0  0  0  0
  9  3  2  0  0  0  0
 10 15  1  0  0  0  0
 12 21  2  0  0  0  0
 13  6  1  0  0  0  0
 14 19  1  0  0  0  0
 14 10  2  0  0  0  0
 15 21  1  6  0  0  0
 16 10  1  0  0  0  0
 18 23  1  0  0  0  0
 19  7  1  0  0  0  0
 20  8  1  0  0  0  0
 20 19  2  0  0  0  0
 22 12  1  0  0  0  0
 23 22  2  0  0  0  0
 24 28  1  0  0  0  0
 24 27  1  0  0  0  0
 25 28  1  0  0  0  0
 26 29  2  0  0  0  0
 29 31  1  0  0  0  0
 30  5  1  1  0  0  0
 30 29  1  0  0  0  0
 30 25  1  0  0  0  0
 31 24  1  0  0  0  0
M  END
>  <MODEL>
4

>  <REMARK>
 VINA RESULT:      -4.5     11.791     13.347
  Name = 
  1 active torsions:
  status: ('A' for Active; 'I' for Inactive)
    1  A    between atoms: C_5  and  C_30
                            x       y       z     vdW  Elec       q    Type
                         _______ _______ _______ _____ _____    ______ ____

>  <TORSDO>
F 1

$$$$
=
 OpenBabel11122413303D

 31 35  0  0  1  0  0  0  0  0999 V2000
  162.5020  213.3470  147.0150 C   0  0  0  0  0  0  0  0  0  0  0  0
  160.0160  214.2360  149.7560 C   0  0  2  0  0  3  0  0  0  0  0  0
  158.6130  213.9530  149.2500 C   0  0  0  0  0  0  0  0  0  0  0  0
  160.5690  209.6070  152.2950 O   0  0  0  0  0  0  0  0  0  0  0  0
  160.0770  210.4460  153.0990 C   0  0  0  0  0  0  0  0  0  0  0  0
  157.0440  213.4930  147.4520 C   0  0  0  0  0  0  0  0  0  0  0  0
  161.0770  213.5170  148.9660 C   0  0  0  0  0  0  0  0  0  0  0  0
  162.9320  212.0850  147.4370 C   0  0  0  0  0  3  0  0  0  0  0  0
  158.3550  213.6670  147.8990 C   0  0  0  0  0  3  0  0  0  0  0  0
  160.3630  212.4130  151.4950 C   0  0  0  0  0  0  0  0  0  0  0  0
  162.9950  213.8900  145.8360 O   0  0  0  0  0  1  0  0  0  0  0  0
  157.7670  214.4530  151.5090 N   0  0  0  0  0  0  0  0  0  0  0  0
  156.8060  213.2020  146.1500 F   0  0  0  0  0  0  0  0  0  0  0  0
  161.0430  211.7110  150.6320 N   0  0  0  0  0  0  0  0  0  0  0  0
  160.1430  213.8990  151.2620 C   0  0  2  0  0  3  0  0  0  0  0  0
  159.9480  211.8260  152.7360 N   0  0  0  0  0  2  0  0  0  0  0  0
  161.5710  214.0610  147.7760 C   0  0  0  0  0  3  0  0  0  0  0  0
  155.9760  213.6320  148.3420 C   0  0  0  0  0  3  0  0  0  0  0  0
  161.5190  212.2540  149.3950 C   0  0  0  0  0  0  0  0  0  0  0  0
  162.4410  211.5390  148.6260 C   0  0  0  0  0  3  0  0  0  0  0  0
  158.9540  214.4110  152.0360 C   0  0  0  0  0  3  0  0  0  0  0  0
  157.5310  214.1030  150.1390 C   0  0  0  0  0  0  0  0  0  0  0  0
  156.2180  213.9420  149.6830 C   0  0  0  0  0  3  0  0  0  0  0  0
  159.1320  211.8560  156.7040 N   0  0  0  0  0  0  0  0  0  0  0  0
  158.2520  210.6380  154.7890 C   0  0  0  0  0  2  0  0  0  0  0  0
  161.7340  209.6740  155.5050 O   0  0  0  0  0  0  0  0  0  0  0  0
  159.3030  213.1850  157.2610 C   0  0  0  0  0  1  0  0  0  0  0  0
  158.4260  212.0100  155.4360 C   0  0  0  0  0  2  0  0  0  0  0  0
  160.6430  210.3020  155.5010 C   0  0  0  0  0  0  0  0  0  0  0  0
  159.6080  210.0080  154.4510 C   0  0  2  0  0  3  0  0  0  0  0  0
  160.4220  211.3520  156.4490 N   0  0  0  0  0  2  0  0  0  0  0  0
  1  8  2  0  0  0  0
  1 17  1  0  0  0  0
  2  7  1  6  0  0  0
  2 15  1  0  0  0  0
  3  2  1  0  0  0  0
  3 22  1  0  0  0  0
  4  5  2  0  0  0  0
  6  9  1  0  0  0  0
  6 18  2  0  0  0  0
  7 19  1  0  0  0  0
  8 20  1  0  0  0  0
  9  3  2  0  0  0  0
 10 16  1  0  0  0  0
 11  1  1  0  0  0  0
 12 21  2  0  0  0  0
 13  6  1  0  0  0  0
 14 10  2  0  0  0  0
 15 10  1  0  0  0  0
 15 21  1  1  0  0  0
 16  5  1  0  0  0  0
 17  7  2  0  0  0  0
 18 23  1  0  0  0  0
 19 14  1  0  0  0  0
 20 19  2  0  0  0  0
 22 12  1  0  0  0  0
 23 22  2  0  0  0  0
 24 27  1  0  0  0  0
 25 28  1  0  0  0  0
 28 24  1  0  0  0  0
 29 26  2  0  0  0  0
 29 31  1  0  0  0  0
 30  5  1  6  0  0  0
 30 25  1  0  0  0  0
 30 29  1  0  0  0  0
 31 24  1  0  0  0  0
M  END
>  <MODEL>
5

>  <REMARK>
 VINA RESULT:      -4.5      3.410      7.664
  Name = 
  1 active torsions:
  status: ('A' for Active; 'I' for Inactive)
    1  A    between atoms: C_5  and  C_30
                            x       y       z     vdW  Elec       q    Type
                         _______ _______ _______ _____ _____    ______ ____

>  <TORSDO>
F 1

$$$$
