=
 OpenBabel11122414063D

 28 31  0  0  1  0  0  0  0  0999 V2000
  161.2200  210.3320  137.6960 C   0  0  0  0  0  0  0  0  0  0  0  0
  157.5160  210.0380  137.0110 O   0  0  0  0  0  0  0  0  0  0  0  0
  161.5200  207.6900  138.5890 C   0  0  0  0  0  3  0  0  0  0  0  0
  161.0790  211.7290  137.1780 C   0  0  0  0  0  2  0  0  0  0  0  0
  156.7920  209.8150  139.3530 O   0  0  0  0  0  0  0  0  0  0  0  0
  157.2670  210.7740  138.2970 S   0  0  0  0  0  0  0  0  0  0  0  0
  156.7600  213.4050  137.8520 C   0  0  1  0  0  3  0  0  0  0  0  0
  158.7090  211.5910  138.7980 N   0  0  1  0  0  0  0  0  0  0  0  0
  163.8940  211.6880  138.8590 C   0  0  0  0  0  1  0  0  0  0  0  0
  160.1620  211.6870  140.6680 C   0  0  2  0  0  3  0  0  0  0  0  0
  157.6800  213.8130  139.0230 C   0  0  0  0  0  2  0  0  0  0  0  0
  156.0470  212.0580  138.0460 C   0  0  0  0  0  2  0  0  0  0  0  0
  162.9840  212.7680  138.4910 N   0  0  0  0  0  0  0  0  0  0  0  0
  160.5010  209.8830  138.8310 C   0  0  0  0  0  0  0  0  0  0  0  0
  155.7820  214.4510  137.6120 N   0  0  0  0  0  1  0  0  0  0  0  0
  161.9710  213.0980  139.5120 C   0  0  0  0  0  2  0  0  0  0  0  0
  160.6710  208.5650  139.2700 C   0  0  0  0  0  3  0  0  0  0  0  0
  162.0570  209.4400  137.0120 C   0  0  0  0  0  3  0  0  0  0  0  0
  162.2090  208.1270  137.4570 C   0  0  0  0  0  3  0  0  0  0  0  0
  162.4040  212.5030  137.1670 C   0  0  0  0  0  2  0  0  0  0  0  0
  159.3760  212.9230  140.6330 N   0  0  0  0  0  0  0  0  0  0  0  0
  161.6660  211.9650  140.5060 C   0  0  1  0  0  3  0  0  0  0  0  0
  158.2670  212.5980  139.7450 C   0  0  2  0  0  3  0  0  0  0  0  0
  159.5480  210.7490  139.6240 C   0  0  2  0  0  3  0  0  0  0  0  0
  162.6040  213.6160  141.6470 C   0  0  0  0  0  1  0  0  0  0  0  0
  162.2240  212.2760  141.7480 O   0  0  0  0  0  0  0  0  0  0  0  0
  158.8150  213.1130  141.9610 C   0  0  0  0  0  2  0  0  0  0  0  0
  159.3030  214.4260  142.5410 C   0  0  0  0  0  1  0  0  0  0  0  0
  1 14  1  0  0  0  0
  2  6  2  0  0  0  0
  3 17  1  0  0  0  0
  4  1  1  0  0  0  0
  6  5  2  0  0  0  0
  7 15  1  1  0  0  0
  7 12  1  0  0  0  0
  7 11  1  0  0  0  0
  8  6  1  1  0  0  0
  8 24  1  0  0  0  0
  8 23  1  0  0  0  0
 10 21  1  6  0  0  0
 12  6  1  0  0  0  0
 13  9  1  0  0  0  0
 13 16  1  0  0  0  0
 14 17  2  0  0  0  0
 16 22  1  0  0  0  0
 18 19  1  0  0  0  0
 18  1  2  0  0  0  0
 19  3  2  0  0  0  0
 20  4  1  0  0  0  0
 20 13  1  0  0  0  0
 21 27  1  0  0  0  0
 22 10  1  0  0  0  0
 22 26  1  1  0  0  0
 23 11  1  6  0  0  0
 23 21  1  0  0  0  0
 24 14  1  6  0  0  0
 24 10  1  0  0  0  0
 25 26  1  0  0  0  0
 27 28  1  0  0  0  0
M  END
>  <MODEL>
1

>  <REMARK>
 VINA RESULT:      -4.2      0.000      0.000
  Name = 
  2 active torsions:
  status: ('A' for Active; 'I' for Inactive)
    1  A    between atoms: C_5  and  N_24
    2  A    between atoms: O_17  and  C_25
                            x       y       z     vdW  Elec       q    Type
                         _______ _______ _______ _____ _____    ______ ____

>  <TORSDO>
F 2

$$$$
=
 OpenBabel11122414063D

 28 31  0  0  1  0  0  0  0  0999 V2000
  161.0800  209.2730  155.8300 C   0  0  0  0  0  0  0  0  0  0  0  0
  158.8740  211.9880  157.2550 O   0  0  0  0  0  0  0  0  0  0  0  0
  163.4670  210.3230  156.8610 C   0  0  0  0  0  3  0  0  0  0  0  0
  159.8060  208.6800  155.3140 C   0  0  0  0  0  2  0  0  0  0  0  0
  159.7060  213.8260  155.8450 O   0  0  0  0  0  0  0  0  0  0  0  0
  158.8280  212.6050  155.8860 S   0  0  0  0  0  0  0  0  0  0  0  0
  156.5400  211.9520  154.5780 C   0  0  1  0  0  3  0  0  0  0  0  0
  159.3170  211.4440  154.6980 N   0  0  1  0  0  0  0  0  0  0  0  0
  162.2030  207.2880  153.5620 C   0  0  0  0  0  1  0  0  0  0  0  0
  160.9400  211.1970  152.9890 C   0  0  2  0  0  3  0  0  0  0  0  0
  157.3240  211.6780  153.2770 C   0  0  0  0  0  2  0  0  0  0  0  0
  157.1470  213.0490  155.4650 C   0  0  0  0  0  2  0  0  0  0  0  0
  160.7810  207.4880  153.2980 N   0  0  0  0  0  0  0  0  0  0  0  0
  161.5090  210.5660  155.4440 C   0  0  0  0  0  0  0  0  0  0  0  0
  155.1630  212.2820  154.2580 N   0  0  0  0  0  1  0  0  0  0  0  0
  160.4600  208.7130  152.5410 C   0  0  0  0  0  2  0  0  0  0  0  0
  162.7080  211.0710  155.9590 C   0  0  0  0  0  3  0  0  0  0  0  0
  161.8430  208.5380  156.7470 C   0  0  0  0  0  3  0  0  0  0  0  0
  163.0320  209.0580  157.2590 C   0  0  0  0  0  3  0  0  0  0  0  0
  160.0200  207.3660  154.5490 C   0  0  0  0  0  2  0  0  0  0  0  0
  159.6360  211.4160  152.3570 N   0  0  0  0  0  0  0  0  0  0  0  0
  161.5230  209.8200  152.6250 C   0  0  1  0  0  3  0  0  0  0  0  0
  158.8210  211.9580  153.4360 C   0  0  2  0  0  3  0  0  0  0  0  0
  160.7490  211.4570  154.4870 C   0  0  2  0  0  3  0  0  0  0  0  0
  161.5800  208.9650  150.5830 C   0  0  0  0  0  1  0  0  0  0  0  0
  162.2020  209.9040  151.4080 O   0  0  0  0  0  0  0  0  0  0  0  0
  159.8080  212.4790  151.3790 C   0  0  0  0  0  2  0  0  0  0  0  0
  159.4850  213.8170  152.0150 C   0  0  0  0  0  1  0  0  0  0  0  0
  1 18  1  0  0  0  0
  3 19  1  0  0  0  0
  4  1  1  0  0  0  0
  5  6  2  0  0  0  0
  6  2  2  0  0  0  0
  7 15  1  6  0  0  0
  7 12  1  0  0  0  0
  8  6  1  1  0  0  0
 10 21  1  6  0  0  0
 10 24  1  0  0  0  0
 11  7  1  0  0  0  0
 12  6  1  0  0  0  0
 13  9  1  0  0  0  0
 13 20  1  0  0  0  0
 14  1  2  0  0  0  0
 14 17  1  0  0  0  0
 16 22  1  0  0  0  0
 16 13  1  0  0  0  0
 17  3  2  0  0  0  0
 18 19  2  0  0  0  0
 20  4  1  0  0  0  0
 21 23  1  0  0  0  0
 22 26  1  6  0  0  0
 22 10  1  0  0  0  0
 23 11  1  6  0  0  0
 23  8  1  0  0  0  0
 24  8  1  0  0  0  0
 24 14  1  1  0  0  0
 25 26  1  0  0  0  0
 27 28  1  0  0  0  0
 27 21  1  0  0  0  0
M  END
>  <MODEL>
2

>  <REMARK>
 VINA RESULT:      -2.4     13.240     15.784
  Name = 
  2 active torsions:
  status: ('A' for Active; 'I' for Inactive)
    1  A    between atoms: C_5  and  N_24
    2  A    between atoms: O_17  and  C_25
                            x       y       z     vdW  Elec       q    Type
                         _______ _______ _______ _____ _____    ______ ____

>  <TORSDO>
F 2

$$$$
