=
 OpenBabel11122413323D

 37 44  0  0  1  0  0  0  0  0999 V2000
  161.1720  203.3110  149.4970 O   0  0  0  0  0  0  0  0  0  0  0  0
  161.3040  206.2150  146.0710 C   0  0  0  0  0  0  0  0  0  0  0  0
  161.5390  207.8000  149.9270 C   0  0  0  0  0  0  0  0  0  0  0  0
  160.4450  202.1100  149.5160 C   0  0  2  0  0  3  0  0  0  0  0  0
  161.3780  205.4720  153.0050 O   0  0  0  0  0  0  0  0  0  0  0  0
  161.5900  208.1950  147.5350 C   0  0  0  0  0  0  0  0  0  0  0  0
  161.2030  206.6970  150.7350 C   0  0  0  0  0  0  0  0  0  0  0  0
  161.5920  201.9590  151.7700 C   0  0  0  0  0  0  0  0  0  0  0  0
  161.4100  207.3820  148.6310 C   0  0  0  0  0  0  0  0  0  0  0  0
  161.0020  206.6600  152.2850 C   0  0  2  0  0  3  0  0  0  0  0  0
  161.9260  209.5360  147.7540 C   0  0  0  0  0  3  0  0  0  0  0  0
  160.9150  201.2040  150.6580 C   0  0  0  0  0  2  0  0  0  0  0  0
  161.0050  206.1210  148.5340 N   0  0  0  0  0  0  0  0  0  0  0  0
  162.6960  205.6330  145.9030 C   0  0  0  0  0  1  0  0  0  0  0  0
  162.0400  209.7220  151.5470 C   0  0  0  0  0  2  0  0  0  0  0  0
  162.0660  210.0070  149.0780 C   0  0  0  0  0  3  0  0  0  0  0  0
  160.6080  205.5090  147.2640 C   0  0  0  0  0  2  0  0  0  0  0  0
  160.9110  203.0790  152.5110 C   0  0  1  0  0  3  0  0  0  0  0  0
  161.5550  204.3950  152.1370 C   0  0  1  0  0  3  0  0  0  0  0  0
  161.8610  209.1510  150.1840 C   0  0  0  0  0  0  0  0  0  0  0  0
  160.8380  205.6760  149.7960 C   0  0  0  0  0  0  0  0  0  0  0  0
  161.4070  207.6400  146.2630 O   0  0  0  0  0  0  0  0  0  0  0  0
  161.5140  207.8820  153.0640 C   0  0  1  0  0  3  0  0  0  0  0  0
  160.5130  205.9390  144.8110 C   0  0  0  0  0  1  0  0  0  0  0  0
  160.1660  204.0710  151.6090 C   0  0  1  0  0  3  0  0  0  0  0  0
  162.7160  201.6240  152.1070 O   0  0  0  0  0  0  0  0  0  0  0  0
  160.3370  204.2710  150.0980 C   0  0  2  0  0  3  0  0  0  0  0  0
  161.0020  209.1930  152.5080 C   0  0  0  0  0  2  0  0  0  0  0  0
  162.0100  208.4220  155.4560 C   0  0  0  0  0  3  0  0  0  0  0  0
  161.1750  207.7950  154.5230 C   0  0  0  0  0  0  0  0  0  0  0  0
  160.0390  207.0990  154.9680 C   0  0  0  0  0  3  0  0  0  0  0  0
  158.6520  206.3580  156.7580 F   0  0  0  0  0  0  0  0  0  0  0  0
  160.5860  207.6580  157.2600 C   0  0  0  0  0  3  0  0  0  0  0  0
  159.7480  207.0310  156.3330 C   0  0  0  0  0  0  0  0  0  0  0  0
  161.7160  208.3530  156.8210 C   0  0  0  0  0  3  0  0  0  0  0  0
  161.6080  200.2520  148.3360 C   0  0  0  0  0  1  0  0  0  0  0  0
  160.6040  201.3790  148.1960 C   0  0  0  0  0  2  0  0  0  0  0  0
  1  4  1  0  0  0  0
  1 27  1  0  0  0  0
  2 22  1  0  0  0  0
  2 17  1  0  0  0  0
  3 20  1  0  0  0  0
  3  7  1  0  0  0  0
  4 37  1  6  0  0  0
  4 12  1  0  0  0  0
  6 11  2  0  0  0  0
  6  9  1  0  0  0  0
  8 26  2  0  0  0  0
  9  3  2  0  0  0  0
 10  7  1  6  0  0  0
 10  5  1  0  0  0  0
 10 23  1  0  0  0  0
 11 16  1  0  0  0  0
 12  8  1  0  0  0  0
 13  9  1  0  0  0  0
 13 21  1  0  0  0  0
 14  2  1  0  0  0  0
 15 28  1  0  0  0  0
 16 20  2  0  0  0  0
 17 13  1  0  0  0  0
 18  8  1  6  0  0  0
 19 18  1  0  0  0  0
 19  5  1  1  0  0  0
 20 15  1  0  0  0  0
 21 27  1  0  0  0  0
 21  7  2  0  0  0  0
 22  6  1  0  0  0  0
 23 30  1  1  0  0  0
 24  2  1  0  0  0  0
 25 19  1  0  0  0  0
 25 18  1  0  0  0  0
 27 25  1  0  0  0  0
 28 23  1  0  0  0  0
 29 35  1  0  0  0  0
 30 31  1  0  0  0  0
 30 29  2  0  0  0  0
 31 34  2  0  0  0  0
 34 32  1  0  0  0  0
 34 33  1  0  0  0  0
 35 33  2  0  0  0  0
 37 36  1  0  0  0  0
M  END
>  <MODEL>
1

>  <REMARK>
 VINA RESULT:      -6.6      0.000      0.000
  Name = 
  2 active torsions:
  status: ('A' for Active; 'I' for Inactive)
    1  A    between atoms: C_4  and  C_37
    2  A    between atoms: C_23  and  C_30
                            x       y       z     vdW  Elec       q    Type
                         _______ _______ _______ _____ _____    ______ ____

>  <TORSDO>
F 2

$$$$
=
 OpenBabel11122413323D

 37 44  0  0  1  0  0  0  0  0999 V2000
  161.4630  210.0390  148.4510 O   0  0  0  0  0  0  0  0  0  0  0  0
  161.7170  206.1320  146.2500 C   0  0  0  0  0  0  0  0  0  0  0  0
  161.0730  205.9610  150.3710 C   0  0  0  0  0  0  0  0  0  0  0  0
  162.1780  211.2040  148.1260 C   0  0  2  0  0  3  0  0  0  0  0  0
  160.8890  209.2110  152.4520 O   0  0  0  0  0  0  0  0  0  0  0  0
  161.2830  204.7660  148.2730 C   0  0  0  0  0  0  0  0  0  0  0  0
  161.3140  207.2880  150.7760 C   0  0  0  0  0  0  0  0  0  0  0  0
  160.7930  212.0720  150.0610 C   0  0  0  0  0  0  0  0  0  0  0  0
  161.3390  205.9130  149.0300 C   0  0  0  0  0  0  0  0  0  0  0  0
  161.3460  207.8650  152.2300 C   0  0  2  0  0  3  0  0  0  0  0  0
  160.9320  203.5690  148.9070 C   0  0  0  0  0  3  0  0  0  0  0  0
  161.5830  212.4260  148.8300 C   0  0  0  0  0  2  0  0  0  0  0  0
  161.7470  207.0790  148.5440 N   0  0  0  0  0  0  0  0  0  0  0  0
  160.3490  206.5610  145.7520 C   0  0  0  0  0  1  0  0  0  0  0  0
  160.4090  204.6950  152.4990 C   0  0  0  0  0  2  0  0  0  0  0  0
  160.6520  203.5770  150.2920 C   0  0  0  0  0  3  0  0  0  0  0  0
  162.2770  207.2330  147.1870 C   0  0  0  0  0  2  0  0  0  0  0  0
  161.3950  211.3050  151.2080 C   0  0  1  0  0  3  0  0  0  0  0  0
  160.8020  209.9160  151.2510 C   0  0  1  0  0  3  0  0  0  0  0  0
  160.7320  204.7690  151.0470 C   0  0  0  0  0  0  0  0  0  0  0  0
  161.7740  207.9380  149.5840 C   0  0  0  0  0  0  0  0  0  0  0  0
  161.6000  204.8560  146.9120 O   0  0  0  0  0  0  0  0  0  0  0  0
  160.7590  206.9650  153.3280 C   0  0  1  0  0  3  0  0  0  0  0  0
  162.6390  205.9900  145.0580 C   0  0  0  0  0  1  0  0  0  0  0  0
  162.2380  210.0960  150.7860 C   0  0  1  0  0  3  0  0  0  0  0  0
  159.6380  212.4550  150.1460 O   0  0  0  0  0  0  0  0  0  0  0  0
  162.2330  209.3810  149.4280 C   0  0  2  0  0  3  0  0  0  0  0  0
  161.3330  205.5650  153.3150 C   0  0  0  0  0  2  0  0  0  0  0  0
  160.2590  206.9960  155.7800 C   0  0  0  0  0  3  0  0  0  0  0  0
  160.9360  207.5620  154.6930 C   0  0  0  0  0  0  0  0  0  0  0  0
  161.7670  208.6760  154.8990 C   0  0  0  0  0  3  0  0  0  0  0  0
  162.7150  210.2900  156.3740 F   0  0  0  0  0  0  0  0  0  0  0  0
  161.2340  208.6460  157.2600 C   0  0  0  0  0  3  0  0  0  0  0  0
  161.9140  209.2150  156.1800 C   0  0  0  0  0  0  0  0  0  0  0  0
  160.4070  207.5370  157.0600 C   0  0  0  0  0  3  0  0  0  0  0  0
  161.8110  212.8700  146.3130 C   0  0  0  0  0  1  0  0  0  0  0  0
  162.1600  211.4280  146.6250 C   0  0  0  0  0  2  0  0  0  0  0  0
  1 27  1  0  0  0  0
  2 22  1  0  0  0  0
  2 17  1  0  0  0  0
  3  7  1  0  0  0  0
  3 20  1  0  0  0  0
  4 37  1  6  0  0  0
  4  1  1  0  0  0  0
  4 12  1  0  0  0  0
  6 11  2  0  0  0  0
  6  9  1  0  0  0  0
  8 26  2  0  0  0  0
  9  3  2  0  0  0  0
 10  7  1  6  0  0  0
 10  5  1  0  0  0  0
 10 23  1  0  0  0  0
 11 16  1  0  0  0  0
 12  8  1  0  0  0  0
 13  9  1  0  0  0  0
 13 21  1  0  0  0  0
 14  2  1  0  0  0  0
 15 28  1  0  0  0  0
 16 20  2  0  0  0  0
 17 13  1  0  0  0  0
 18  8  1  6  0  0  0
 18 19  1  0  0  0  0
 19  5  1  1  0  0  0
 20 15  1  0  0  0  0
 21  7  2  0  0  0  0
 22  6  1  0  0  0  0
 23 30  1  1  0  0  0
 24  2  1  0  0  0  0
 25 18  1  0  0  0  0
 25 19  1  0  0  0  0
 27 21  1  0  0  0  0
 27 25  1  0  0  0  0
 28 23  1  0  0  0  0
 29 35  1  0  0  0  0
 30 31  1  0  0  0  0
 30 29  2  0  0  0  0
 31 34  2  0  0  0  0
 34 32  1  0  0  0  0
 34 33  1  0  0  0  0
 35 33  2  0  0  0  0
 36 37  1  0  0  0  0
M  END
>  <MODEL>
2

>  <REMARK>
 VINA RESULT:      -6.2      2.130      5.729
  Name = 
  2 active torsions:
  status: ('A' for Active; 'I' for Inactive)
    1  A    between atoms: C_4  and  C_37
    2  A    between atoms: C_23  and  C_30
                            x       y       z     vdW  Elec       q    Type
                         _______ _______ _______ _____ _____    ______ ____

>  <TORSDO>
F 2

$$$$
=
 OpenBabel11122413323D

 37 44  0  0  1  0  0  0  0  0999 V2000
  161.3520  202.9800  149.5850 O   0  0  0  0  0  0  0  0  0  0  0  0
  161.6440  205.6740  146.0020 C   0  0  0  0  0  0  0  0  0  0  0  0
  161.6240  207.4920  149.7610 C   0  0  0  0  0  0  0  0  0  0  0  0
  160.6430  201.7680  149.6350 C   0  0  2  0  0  3  0  0  0  0  0  0
  161.3140  205.3510  152.9610 O   0  0  0  0  0  0  0  0  0  0  0  0
  161.8120  207.7440  147.3570 C   0  0  0  0  0  0  0  0  0  0  0  0
  161.2570  206.4340  150.6140 C   0  0  0  0  0  0  0  0  0  0  0  0
  161.6550  201.7750  151.9570 C   0  0  0  0  0  0  0  0  0  0  0  0
  161.5790  206.9950  148.4870 C   0  0  0  0  0  0  0  0  0  0  0  0
  160.9640  206.4860  152.1490 C   0  0  2  0  0  3  0  0  0  0  0  0
  162.1140  209.1020  147.5120 C   0  0  0  0  0  3  0  0  0  0  0  0
  161.0580  200.9420  150.8560 C   0  0  0  0  0  2  0  0  0  0  0  0
  161.2000  205.7230  148.4440 N   0  0  0  0  0  0  0  0  0  0  0  0
  163.0520  205.1100  145.9520 C   0  0  0  0  0  1  0  0  0  0  0  0
  161.9970  209.5170  151.2880 C   0  0  0  0  0  2  0  0  0  0  0  0
  162.1660  209.6540  148.8110 C   0  0  0  0  0  3  0  0  0  0  0  0
  160.8890  205.0290  147.1930 C   0  0  0  0  0  2  0  0  0  0  0  0
  160.9140  202.9240  152.5870 C   0  0  1  0  0  3  0  0  0  0  0  0
  161.5590  204.2270  152.1720 C   0  0  1  0  0  3  0  0  0  0  0  0
  161.9090  208.8620  149.9530 C   0  0  0  0  0  0  0  0  0  0  0  0
  160.9640  205.3520  149.7190 C   0  0  0  0  0  0  0  0  0  0  0  0
  161.7140  207.1100  146.1120 O   0  0  0  0  0  0  0  0  0  0  0  0
  161.4090  207.7620  152.8800 C   0  0  1  0  0  3  0  0  0  0  0  0
  160.9340  205.3090  144.7170 C   0  0  0  0  0  1  0  0  0  0  0  0
  160.2090  203.8460  151.5840 C   0  0  1  0  0  3  0  0  0  0  0  0
  162.7620  201.4820  152.3790 O   0  0  0  0  0  0  0  0  0  0  0  0
  160.4670  203.9580  150.0760 C   0  0  2  0  0  3  0  0  0  0  0  0
  160.9120  209.0280  152.2160 C   0  0  0  0  0  2  0  0  0  0  0  0
  160.3940  206.6060  154.8540 C   0  0  0  0  0  3  0  0  0  0  0  0
  160.9860  207.7570  154.3200 C   0  0  0  0  0  0  0  0  0  0  0  0
  161.1740  208.8830  155.1380 C   0  0  0  0  0  3  0  0  0  0  0  0
  160.9490  209.9430  157.2610 F   0  0  0  0  0  0  0  0  0  0  0  0
  160.1760  207.7030  157.0020 C   0  0  0  0  0  3  0  0  0  0  0  0
  160.7680  208.8540  156.4750 C   0  0  0  0  0  0  0  0  0  0  0  0
  159.9890  206.5800  156.1910 C   0  0  0  0  0  3  0  0  0  0  0  0
  160.8320  201.8620  147.1550 C   0  0  0  0  0  1  0  0  0  0  0  0
  160.8920  200.9630  148.3730 C   0  0  0  0  0  2  0  0  0  0  0  0
  1  4  1  0  0  0  0
  1 27  1  0  0  0  0
  2 22  1  0  0  0  0
  2 17  1  0  0  0  0
  3 20  1  0  0  0  0
  3  7  1  0  0  0  0
  4 37  1  6  0  0  0
  4 12  1  0  0  0  0
  6 11  2  0  0  0  0
  6  9  1  0  0  0  0
  8 26  2  0  0  0  0
  9  3  2  0  0  0  0
 10  7  1  6  0  0  0
 10 23  1  0  0  0  0
 10  5  1  0  0  0  0
 11 16  1  0  0  0  0
 12  8  1  0  0  0  0
 13  9  1  0  0  0  0
 13 21  1  0  0  0  0
 14  2  1  0  0  0  0
 15 28  1  0  0  0  0
 16 20  2  0  0  0  0
 17 13  1  0  0  0  0
 18  8  1  6  0  0  0
 19 18  1  0  0  0  0
 19  5  1  1  0  0  0
 20 15  1  0  0  0  0
 21 27  1  0  0  0  0
 21  7  2  0  0  0  0
 22  6  1  0  0  0  0
 23 30  1  1  0  0  0
 24  2  1  0  0  0  0
 25 19  1  0  0  0  0
 25 18  1  0  0  0  0
 27 25  1  0  0  0  0
 28 23  1  0  0  0  0
 29 35  1  0  0  0  0
 30 29  2  0  0  0  0
 30 31  1  0  0  0  0
 31 34  2  0  0  0  0
 34 33  1  0  0  0  0
 34 32  1  0  0  0  0
 35 33  2  0  0  0  0
 36 37  1  0  0  0  0
M  END
>  <MODEL>
3

>  <REMARK>
 VINA RESULT:      -6.1      0.874      1.165
  Name = 
  2 active torsions:
  status: ('A' for Active; 'I' for Inactive)
    1  A    between atoms: C_4  and  C_37
    2  A    between atoms: C_23  and  C_30
                            x       y       z     vdW  Elec       q    Type
                         _______ _______ _______ _____ _____    ______ ____

>  <TORSDO>
F 2

$$$$
=
 OpenBabel11122413323D

 37 44  0  0  1  0  0  0  0  0999 V2000
  161.1800  206.4470  151.7060 O   0  0  0  0  0  0  0  0  0  0  0  0
  160.1730  208.0560  155.7780 C   0  0  0  0  0  0  0  0  0  0  0  0
  160.3850  210.8020  152.6410 C   0  0  0  0  0  0  0  0  0  0  0  0
  162.0310  205.3600  151.4490 C   0  0  2  0  0  3  0  0  0  0  0  0
  161.3000  209.6250  149.0770 O   0  0  0  0  0  0  0  0  0  0  0  0
  159.9060  210.3880  154.9810 C   0  0  0  0  0  0  0  0  0  0  0  0
  160.9680  210.0450  151.6070 C   0  0  0  0  0  0  0  0  0  0  0  0
  161.2860  205.8950  149.0880 C   0  0  0  0  0  0  0  0  0  0  0  0
  160.3500  209.9900  153.7410 C   0  0  0  0  0  0  0  0  0  0  0  0
  161.4200  210.5290  150.1900 C   0  0  2  0  0  3  0  0  0  0  0  0
  159.4610  211.7060  155.1340 C   0  0  0  0  0  3  0  0  0  0  0  0
  161.8560  204.8550  150.0150 C   0  0  0  0  0  2  0  0  0  0  0  0
  160.8730  208.7910  153.5130 N   0  0  0  0  0  0  0  0  0  0  0  0
  158.8470  207.3760  155.4910 C   0  0  0  0  0  1  0  0  0  0  0  0
  159.9390  213.1190  151.6390 C   0  0  0  0  0  2  0  0  0  0  0  0
  159.4840  212.5770  154.0220 C   0  0  0  0  0  3  0  0  0  0  0  0
  161.1270  207.8190  154.5790 C   0  0  0  0  0  2  0  0  0  0  0  0
  161.9470  207.2310  148.8770 C   0  0  1  0  0  3  0  0  0  0  0  0
  161.1080  208.3140  149.5150 C   0  0  1  0  0  3  0  0  0  0  0  0
  159.9590  212.1430  152.7630 C   0  0  0  0  0  0  0  0  0  0  0  0
  161.2900  208.7940  152.2300 C   0  0  0  0  0  0  0  0  0  0  0  0
  159.9430  209.4580  156.0270 O   0  0  0  0  0  0  0  0  0  0  0  0
  160.9060  211.9090  149.7510 C   0  0  1  0  0  3  0  0  0  0  0  0
  160.7780  207.4260  157.0150 C   0  0  0  0  0  1  0  0  0  0  0  0
  162.4220  207.9110  150.1670 C   0  0  1  0  0  3  0  0  0  0  0  0
  160.2760  205.6280  148.4580 O   0  0  0  0  0  0  0  0  0  0  0  0
  161.9880  207.5950  151.6050 C   0  0  2  0  0  3  0  0  0  0  0  0
  161.1700  212.9910  150.7750 C   0  0  0  0  0  2  0  0  0  0  0  0
  162.8690  212.4570  148.3000 C   0  0  0  0  0  3  0  0  0  0  0  0
  161.4820  212.3240  148.4290 C   0  0  0  0  0  0  0  0  0  0  0  0
  160.6550  212.5800  147.3220 C   0  0  0  0  0  3  0  0  0  0  0  0
  160.4160  213.2160  145.0380 F   0  0  0  0  0  0  0  0  0  0  0  0
  162.6020  213.1010  145.9800 C   0  0  0  0  0  3  0  0  0  0  0  0
  161.2160  212.9690  146.1020 C   0  0  0  0  0  0  0  0  0  0  0  0
  163.4280  212.8450  147.0790 C   0  0  0  0  0  3  0  0  0  0  0  0
  161.0840  203.0710  151.6990 C   0  0  0  0  0  1  0  0  0  0  0  0
  161.7450  204.2290  152.4200 C   0  0  0  0  0  2  0  0  0  0  0  0
  2 22  1  0  0  0  0
  2 24  1  0  0  0  0
  3 20  2  0  0  0  0
  3  9  1  0  0  0  0
  4  1  1  0  0  0  0
  4 37  1  1  0  0  0
  6 11  1  0  0  0  0
  6 22  1  0  0  0  0
  7 21  2  0  0  0  0
  7  3  1  0  0  0  0
  8 12  1  0  0  0  0
  9  6  2  0  0  0  0
 10  5  1  6  0  0  0
 10  7  1  0  0  0  0
 12  4  1  0  0  0  0
 13  9  1  0  0  0  0
 13 17  1  0  0  0  0
 14  2  1  0  0  0  0
 15 20  1  0  0  0  0
 16 11  2  0  0  0  0
 17  2  1  0  0  0  0
 18  8  1  1  0  0  0
 18 19  1  0  0  0  0
 18 25  1  0  0  0  0
 19  5  1  6  0  0  0
 19 25  1  0  0  0  0
 20 16  1  0  0  0  0
 21 13  1  0  0  0  0
 23 30  1  6  0  0  0
 23 10  1  0  0  0  0
 23 28  1  0  0  0  0
 25 27  1  0  0  0  0
 26  8  2  0  0  0  0
 27  1  1  0  0  0  0
 27 21  1  0  0  0  0
 28 15  1  0  0  0  0
 29 30  1  0  0  0  0
 31 30  2  0  0  0  0
 32 34  1  0  0  0  0
 33 34  2  0  0  0  0
 33 35  1  0  0  0  0
 34 31  1  0  0  0  0
 35 29  2  0  0  0  0
 36 37  1  0  0  0  0
M  END
>  <MODEL>
4

>  <REMARK>
 VINA RESULT:      -6.1      3.459      7.345
  Name = 
  2 active torsions:
  status: ('A' for Active; 'I' for Inactive)
    1  A    between atoms: C_4  and  C_37
    2  A    between atoms: C_23  and  C_30
                            x       y       z     vdW  Elec       q    Type
                         _______ _______ _______ _____ _____    ______ ____

>  <TORSDO>
F 2

$$$$
=
 OpenBabel11122413323D

 37 44  0  0  1  0  0  0  0  0999 V2000
  160.9950  204.2540  147.4460 O   0  0  0  0  0  0  0  0  0  0  0  0
  161.1960  202.7950  151.6900 C   0  0  0  0  0  0  0  0  0  0  0  0
  161.3920  206.9210  151.0790 C   0  0  0  0  0  0  0  0  0  0  0  0
  161.5140  203.5790  146.3290 C   0  0  2  0  0  3  0  0  0  0  0  0
  161.3000  208.3680  147.4990 O   0  0  0  0  0  0  0  0  0  0  0  0
  161.3040  205.0780  152.6520 C   0  0  0  0  0  0  0  0  0  0  0  0
  161.5760  207.0180  149.6870 C   0  0  0  0  0  0  0  0  0  0  0  0
  160.4560  205.5720  145.1780 C   0  0  0  0  0  0  0  0  0  0  0  0
  161.3940  205.5860  151.3760 C   0  0  0  0  0  0  0  0  0  0  0  0
  161.8350  208.3030  148.8320 C   0  0  2  0  0  3  0  0  0  0  0  0
  161.2030  205.9790  153.7180 C   0  0  0  0  0  3  0  0  0  0  0  0
  160.9510  204.1590  145.0280 C   0  0  0  0  0  2  0  0  0  0  0  0
  161.5810  204.8200  150.3080 N   0  0  0  0  0  0  0  0  0  0  0  0
  159.7220  202.5280  151.4500 C   0  0  0  0  0  1  0  0  0  0  0  0
  161.2850  209.3350  151.9360 C   0  0  0  0  0  2  0  0  0  0  0  0
  161.2000  207.3670  153.4520 C   0  0  0  0  0  3  0  0  0  0  0  0
  161.8170  203.3780  150.3940 C   0  0  0  0  0  2  0  0  0  0  0  0
  161.3440  206.6860  145.6660 C   0  0  1  0  0  3  0  0  0  0  0  0
  160.9100  207.1050  147.0520 C   0  0  1  0  0  3  0  0  0  0  0  0
  161.3090  207.8580  152.1310 C   0  0  0  0  0  0  0  0  0  0  0  0
  161.7270  205.6570  149.2600 C   0  0  0  0  0  0  0  0  0  0  0  0
  161.3380  203.6880  152.8140 O   0  0  0  0  0  0  0  0  0  0  0  0
  161.5650  209.6450  149.5300 C   0  0  1  0  0  3  0  0  0  0  0  0
  161.8770  201.4820  152.0110 C   0  0  0  0  0  1  0  0  0  0  0  0
  162.2030  206.3220  146.8830 C   0  0  1  0  0  3  0  0  0  0  0  0
  159.3080  205.8280  144.8550 O   0  0  0  0  0  0  0  0  0  0  0  0
  162.0020  205.1490  147.8520 C   0  0  2  0  0  3  0  0  0  0  0  0
  162.2610  209.7650  150.8690 C   0  0  0  0  0  2  0  0  0  0  0  0
  163.2820  211.2310  148.6360 C   0  0  0  0  0  3  0  0  0  0  0  0
  161.9470  210.8100  148.6650 C   0  0  0  0  0  0  0  0  0  0  0  0
  160.9910  211.4820  147.8860 C   0  0  0  0  0  3  0  0  0  0  0  0
  160.4470  213.2140  146.3410 F   0  0  0  0  0  0  0  0  0  0  0  0
  162.7060  212.9830  147.0670 C   0  0  0  0  0  3  0  0  0  0  0  0
  161.3720  212.5670  147.0900 C   0  0  0  0  0  0  0  0  0  0  0  0
  163.6600  212.3150  147.8400 C   0  0  0  0  0  3  0  0  0  0  0  0
  160.2630  201.7070  145.2670 C   0  0  0  0  0  1  0  0  0  0  0  0
  161.1810  202.1010  146.4080 C   0  0  0  0  0  2  0  0  0  0  0  0
  1 27  1  0  0  0  0
  2 24  1  0  0  0  0
  2 22  1  0  0  0  0
  3  9  2  0  0  0  0
  3 20  1  0  0  0  0
  4 37  1  1  0  0  0
  4  1  1  0  0  0  0
  6 22  1  0  0  0  0
  6 11  2  0  0  0  0
  7  3  1  0  0  0  0
  9  6  1  0  0  0  0
 10  5  1  6  0  0  0
 10 23  1  0  0  0  0
 10  7  1  0  0  0  0
 12  8  1  0  0  0  0
 12  4  1  0  0  0  0
 13 17  1  0  0  0  0
 13  9  1  0  0  0  0
 14  2  1  0  0  0  0
 15 20  1  0  0  0  0
 16 11  1  0  0  0  0
 17  2  1  0  0  0  0
 18  8  1  1  0  0  0
 18 25  1  0  0  0  0
 18 19  1  0  0  0  0
 19  5  1  6  0  0  0
 20 16  2  0  0  0  0
 21  7  2  0  0  0  0
 21 13  1  0  0  0  0
 23 30  1  6  0  0  0
 23 28  1  0  0  0  0
 25 19  1  0  0  0  0
 25 27  1  0  0  0  0
 26  8  2  0  0  0  0
 27 21  1  0  0  0  0
 28 15  1  0  0  0  0
 29 30  1  0  0  0  0
 31 30  2  0  0  0  0
 32 34  1  0  0  0  0
 33 34  2  0  0  0  0
 33 35  1  0  0  0  0
 34 31  1  0  0  0  0
 35 29  2  0  0  0  0
 36 37  1  0  0  0  0
M  END
>  <MODEL>
5

>  <REMARK>
 VINA RESULT:      -5.9      2.711      6.341
  Name = 
  2 active torsions:
  status: ('A' for Active; 'I' for Inactive)
    1  A    between atoms: C_4  and  C_37
    2  A    between atoms: C_23  and  C_30
                            x       y       z     vdW  Elec       q    Type
                         _______ _______ _______ _____ _____    ______ ____

>  <TORSDO>
F 2

$$$$
=
 OpenBabel11122413323D

 37 44  0  0  1  0  0  0  0  0999 V2000
  161.2740  208.1110  151.8680 O   0  0  0  0  0  0  0  0  0  0  0  0
  159.8920  210.6010  155.3430 C   0  0  0  0  0  0  0  0  0  0  0  0
  160.1010  212.4730  151.6170 C   0  0  0  0  0  0  0  0  0  0  0  0
  162.2170  207.0730  151.9360 C   0  0  2  0  0  3  0  0  0  0  0  0
  161.3260  210.5190  148.5190 O   0  0  0  0  0  0  0  0  0  0  0  0
  159.5050  212.6230  153.9620 C   0  0  0  0  0  0  0  0  0  0  0  0
  160.8030  211.5340  150.8390 C   0  0  0  0  0  0  0  0  0  0  0  0
  161.5880  206.9270  149.4870 C   0  0  0  0  0  0  0  0  0  0  0  0
  160.0550  211.9650  152.8860 C   0  0  0  0  0  0  0  0  0  0  0  0
  161.3070  211.6820  149.3650 C   0  0  2  0  0  3  0  0  0  0  0  0
  158.9540  213.8930  153.7520 C   0  0  0  0  0  3  0  0  0  0  0  0
  162.1720  206.2090  150.6730 C   0  0  0  0  0  2  0  0  0  0  0  0
  160.6790  210.7990  152.9970 N   0  0  0  0  0  0  0  0  0  0  0  0
  158.6410  209.7570  155.1830 C   0  0  0  0  0  1  0  0  0  0  0  0
  159.5490  214.4140  150.0350 C   0  0  0  0  0  2  0  0  0  0  0  0
  158.9840  214.4530  152.4560 C   0  0  0  0  0  3  0  0  0  0  0  0
  160.9360  210.1540  154.2870 C   0  0  0  0  0  2  0  0  0  0  0  0
  162.1600  208.2190  148.9680 C   0  0  1  0  0  3  0  0  0  0  0  0
  161.2040  209.3500  149.2700 C   0  0  1  0  0  3  0  0  0  0  0  0
  159.5700  213.7590  151.3730 C   0  0  0  0  0  0  0  0  0  0  0  0
  161.1760  210.5150  151.7760 C   0  0  0  0  0  0  0  0  0  0  0  0
  159.5430  211.9940  155.2130 O   0  0  0  0  0  0  0  0  0  0  0  0
  160.7210  212.8560  148.5650 C   0  0  1  0  0  3  0  0  0  0  0  0
  160.4610  210.3590  156.7250 C   0  0  0  0  0  1  0  0  0  0  0  0
  162.5000  209.2420  150.0590 C   0  0  1  0  0  3  0  0  0  0  0  0
  160.6420  206.4220  148.9040 O   0  0  0  0  0  0  0  0  0  0  0  0
  161.9990  209.2620  151.5100 C   0  0  2  0  0  3  0  0  0  0  0  0
  160.8390  214.1810  149.2870 C   0  0  0  0  0  2  0  0  0  0  0  0
  162.7310  213.1700  147.1070 C   0  0  0  0  0  3  0  0  0  0  0  0
  161.3490  212.9730  147.2070 C   0  0  0  0  0  0  0  0  0  0  0  0
  160.5750  212.8880  146.0370 C   0  0  0  0  0  3  0  0  0  0  0  0
  160.4330  212.9220  143.6590 F   0  0  0  0  0  0  0  0  0  0  0  0
  162.5630  213.2010  144.6910 C   0  0  0  0  0  3  0  0  0  0  0  0
  161.1830  213.0030  144.7840 C   0  0  0  0  0  0  0  0  0  0  0  0
  163.3370  213.2840  145.8530 C   0  0  0  0  0  3  0  0  0  0  0  0
  161.2030  204.9500  152.7500 C   0  0  0  0  0  1  0  0  0  0  0  0
  161.9540  206.2040  153.1520 C   0  0  0  0  0  2  0  0  0  0  0  0
  1  4  1  0  0  0  0
  2 24  1  0  0  0  0
  3  9  1  0  0  0  0
  4 37  1  1  0  0  0
  6 22  1  0  0  0  0
  7  3  1  0  0  0  0
  7 21  2  0  0  0  0
  8 12  1  0  0  0  0
  9 13  1  0  0  0  0
  9  6  2  0  0  0  0
 10  5  1  6  0  0  0
 10  7  1  0  0  0  0
 11  6  1  0  0  0  0
 12  4  1  0  0  0  0
 13 17  1  0  0  0  0
 14  2  1  0  0  0  0
 15 20  1  0  0  0  0
 16 11  2  0  0  0  0
 17  2  1  0  0  0  0
 18 19  1  0  0  0  0
 18  8  1  1  0  0  0
 18 25  1  0  0  0  0
 19  5  1  6  0  0  0
 19 25  1  0  0  0  0
 20  3  2  0  0  0  0
 20 16  1  0  0  0  0
 21 13  1  0  0  0  0
 22  2  1  0  0  0  0
 23 30  1  6  0  0  0
 23 28  1  0  0  0  0
 23 10  1  0  0  0  0
 25 27  1  0  0  0  0
 26  8  2  0  0  0  0
 27 21  1  0  0  0  0
 27  1  1  0  0  0  0
 28 15  1  0  0  0  0
 29 30  1  0  0  0  0
 31 30  2  0  0  0  0
 32 34  1  0  0  0  0
 33 34  2  0  0  0  0
 33 35  1  0  0  0  0
 34 31  1  0  0  0  0
 35 29  2  0  0  0  0
 36 37  1  0  0  0  0
M  END
>  <MODEL>
6

>  <REMARK>
 VINA RESULT:      -5.7      4.256      8.239
  Name = 
  2 active torsions:
  status: ('A' for Active; 'I' for Inactive)
    1  A    between atoms: C_4  and  C_37
    2  A    between atoms: C_23  and  C_30
                            x       y       z     vdW  Elec       q    Type
                         _______ _______ _______ _____ _____    ______ ____

>  <TORSDO>
F 2

$$$$
=
 OpenBabel11122413323D

 37 44  0  0  1  0  0  0  0  0999 V2000
  161.0970  210.7340  148.4150 O   0  0  0  0  0  0  0  0  0  0  0  0
  161.7210  206.4320  147.2840 C   0  0  0  0  0  0  0  0  0  0  0  0
  161.2050  207.2830  151.3390 C   0  0  0  0  0  0  0  0  0  0  0  0
  161.6710  211.8380  147.7640 C   0  0  2  0  0  3  0  0  0  0  0  0
  160.7180  210.9290  152.5190 O   0  0  0  0  0  0  0  0  0  0  0  0
  161.4910  205.6070  149.6110 C   0  0  0  0  0  0  0  0  0  0  0  0
  161.3090  208.6870  151.3750 C   0  0  0  0  0  0  0  0  0  0  0  0
  160.2490  213.0410  149.4800 C   0  0  0  0  0  0  0  0  0  0  0  0
  161.4410  206.9130  150.0440 C   0  0  0  0  0  0  0  0  0  0  0  0
  161.3150  209.6240  152.6270 C   0  0  2  0  0  3  0  0  0  0  0  0
  161.2900  204.5890  150.5510 C   0  0  0  0  0  3  0  0  0  0  0  0
  160.9640  213.1370  148.1600 C   0  0  0  0  0  2  0  0  0  0  0  0
  161.7050  207.9450  149.2520 N   0  0  0  0  0  0  0  0  0  0  0  0
  160.3030  206.5780  146.7660 C   0  0  0  0  0  1  0  0  0  0  0  0
  160.7370  206.5590  153.7530 C   0  0  0  0  0  2  0  0  0  0  0  0
  161.0460  204.9320  151.8990 C   0  0  0  0  0  3  0  0  0  0  0  0
  162.1800  207.7900  147.8750 C   0  0  0  0  0  2  0  0  0  0  0  0
  160.9600  212.6650  150.7530 C   0  0  1  0  0  3  0  0  0  0  0  0
  160.5240  211.2830  151.1840 C   0  0  1  0  0  3  0  0  0  0  0  0
  161.0140  206.2820  152.3160 C   0  0  0  0  0  0  0  0  0  0  0  0
  161.6650  209.0440  150.0330 C   0  0  0  0  0  0  0  0  0  0  0  0
  161.7620  205.3690  148.2580 O   0  0  0  0  0  0  0  0  0  0  0  0
  160.8570  208.9900  153.9500 C   0  0  1  0  0  3  0  0  0  0  0  0
  162.6230  206.0750  146.1220 C   0  0  0  0  0  1  0  0  0  0  0  0
  161.9200  211.4760  150.6120 C   0  0  1  0  0  3  0  0  0  0  0  0
  159.0610  213.3160  149.5250 O   0  0  0  0  0  0  0  0  0  0  0  0
  161.9590  210.4340  149.4860 C   0  0  2  0  0  3  0  0  0  0  0  0
  161.5820  207.6990  154.2670 C   0  0  0  0  0  2  0  0  0  0  0  0
  162.2740  210.1670  155.6430 C   0  0  0  0  0  3  0  0  0  0  0  0
  161.0030  209.9380  155.1030 C   0  0  0  0  0  0  0  0  0  0  0  0
  159.8890  210.5980  155.6490 C   0  0  0  0  0  3  0  0  0  0  0  0
  158.9750  212.1080  157.2500 F   0  0  0  0  0  0  0  0  0  0  0  0
  161.3230  211.6980  157.2610 C   0  0  0  0  0  3  0  0  0  0  0  0
  160.0510  211.4750  156.7250 C   0  0  0  0  0  0  0  0  0  0  0  0
  162.4340  211.0450  156.7190 C   0  0  0  0  0  3  0  0  0  0  0  0
  160.5240  212.5650  145.6770 C   0  0  0  0  0  1  0  0  0  0  0  0
  161.5910  211.6580  146.2590 C   0  0  0  0  0  2  0  0  0  0  0  0
  1 27  1  0  0  0  0
  2 17  1  0  0  0  0
  2 22  1  0  0  0  0
  3  7  1  0  0  0  0
  3 20  1  0  0  0  0
  4 37  1  6  0  0  0
  4 12  1  0  0  0  0
  4  1  1  0  0  0  0
  5 10  1  0  0  0  0
  6  9  1  0  0  0  0
  6 11  2  0  0  0  0
  8 26  2  0  0  0  0
  9  3  2  0  0  0  0
 10  7  1  6  0  0  0
 10 23  1  0  0  0  0
 11 16  1  0  0  0  0
 12  8  1  0  0  0  0
 13 21  1  0  0  0  0
 13  9  1  0  0  0  0
 14  2  1  0  0  0  0
 15 28  1  0  0  0  0
 16 20  2  0  0  0  0
 17 13  1  0  0  0  0
 18  8  1  6  0  0  0
 18 19  1  0  0  0  0
 19  5  1  1  0  0  0
 20 15  1  0  0  0  0
 21  7  2  0  0  0  0
 22  6  1  0  0  0  0
 23 28  1  0  0  0  0
 23 30  1  1  0  0  0
 24  2  1  0  0  0  0
 25 18  1  0  0  0  0
 25 19  1  0  0  0  0
 27 21  1  0  0  0  0
 27 25  1  0  0  0  0
 29 35  1  0  0  0  0
 30 29  2  0  0  0  0
 30 31  1  0  0  0  0
 31 34  2  0  0  0  0
 34 32  1  0  0  0  0
 34 33  1  0  0  0  0
 35 33  2  0  0  0  0
 36 37  1  0  0  0  0
M  END
>  <MODEL>
7

>  <REMARK>
 VINA RESULT:      -5.7      2.704      6.191
  Name = 
  2 active torsions:
  status: ('A' for Active; 'I' for Inactive)
    1  A    between atoms: C_4  and  C_37
    2  A    between atoms: C_23  and  C_30
                            x       y       z     vdW  Elec       q    Type
                         _______ _______ _______ _____ _____    ______ ____

>  <TORSDO>
F 2

$$$$
=
 OpenBabel11122413323D

 37 44  0  0  1  0  0  0  0  0999 V2000
  161.4120  212.0380  150.6710 O   0  0  0  0  0  0  0  0  0  0  0  0
  160.3710  210.6490  154.8140 C   0  0  0  0  0  0  0  0  0  0  0  0
  161.2660  207.7110  151.9850 C   0  0  0  0  0  0  0  0  0  0  0  0
  160.8760  213.1690  150.0340 C   0  0  2  0  0  3  0  0  0  0  0  0
  162.1240  208.7010  148.3510 O   0  0  0  0  0  0  0  0  0  0  0  0
  160.7170  208.2520  154.2840 C   0  0  0  0  0  0  0  0  0  0  0  0
  161.2740  208.4370  150.7790 C   0  0  0  0  0  0  0  0  0  0  0  0
  162.5170  212.4090  148.2590 C   0  0  0  0  0  0  0  0  0  0  0  0
  160.9020  208.5950  152.9640 C   0  0  0  0  0  0  0  0  0  0  0  0
  161.4390  207.8900  149.3230 C   0  0  2  0  0  3  0  0  0  0  0  0
  160.9120  206.9160  154.6550 C   0  0  0  0  0  3  0  0  0  0  0  0
  161.7110  213.5550  148.8090 C   0  0  0  0  0  2  0  0  0  0  0  0
  160.6570  209.8120  152.4950 N   0  0  0  0  0  0  0  0  0  0  0  0
  161.7510  211.1980  155.1220 C   0  0  0  0  0  1  0  0  0  0  0  0
  161.8630  205.3010  151.3500 C   0  0  0  0  0  2  0  0  0  0  0  0
  161.2860  205.9730  153.6730 C   0  0  0  0  0  3  0  0  0  0  0  0
  160.0650  210.8750  153.3100 C   0  0  0  0  0  2  0  0  0  0  0  0
  161.8800  211.1190  147.8170 C   0  0  1  0  0  3  0  0  0  0  0  0
  162.2400  210.0200  148.7910 C   0  0  1  0  0  3  0  0  0  0  0  0
  161.4550  206.3530  152.3220 C   0  0  0  0  0  0  0  0  0  0  0  0
  160.8430  209.7510  151.1600 C   0  0  0  0  0  0  0  0  0  0  0  0
  160.3240  209.2540  155.1790 O   0  0  0  0  0  0  0  0  0  0  0  0
  161.9480  206.4460  149.1950 C   0  0  1  0  0  3  0  0  0  0  0  0
  159.3560  211.4110  155.6380 C   0  0  0  0  0  1  0  0  0  0  0  0
  160.8230  210.5720  148.7850 C   0  0  1  0  0  3  0  0  0  0  0  0
  163.7220  212.5490  148.1320 O   0  0  0  0  0  0  0  0  0  0  0  0
  160.6160  210.9540  150.2570 C   0  0  2  0  0  3  0  0  0  0  0  0
  161.1530  205.4640  150.0290 C   0  0  0  0  0  2  0  0  0  0  0  0
  163.0550  205.2360  147.3060 C   0  0  0  0  0  3  0  0  0  0  0  0
  161.9660  205.9850  147.7680 C   0  0  0  0  0  0  0  0  0  0  0  0
  160.9130  206.2900  146.8900 C   0  0  0  0  0  3  0  0  0  0  0  0
  159.9390  206.1490  144.7190 F   0  0  0  0  0  0  0  0  0  0  0  0
  162.0470  205.1050  145.1080 C   0  0  0  0  0  3  0  0  0  0  0  0
  160.9560  205.8510  145.5630 C   0  0  0  0  0  0  0  0  0  0  0  0
  163.0950  204.7980  145.9790 C   0  0  0  0  0  3  0  0  0  0  0  0
  159.4440  214.4530  151.6140 C   0  0  0  0  0  1  0  0  0  0  0  0
  160.8250  214.3390  150.9980 C   0  0  0  0  0  2  0  0  0  0  0  0
  2 14  1  0  0  0  0
  2 22  1  0  0  0  0
  2 24  1  0  0  0  0
  3 20  2  0  0  0  0
  3  9  1  0  0  0  0
  4  1  1  0  0  0  0
  4 37  1  1  0  0  0
  6 11  1  0  0  0  0
  6 22  1  0  0  0  0
  7 21  2  0  0  0  0
  7  3  1  0  0  0  0
  8 12  1  0  0  0  0
  9  6  2  0  0  0  0
 10  5  1  6  0  0  0
 10  7  1  0  0  0  0
 12  4  1  0  0  0  0
 13  9  1  0  0  0  0
 13 17  1  0  0  0  0
 15 20  1  0  0  0  0
 16 11  2  0  0  0  0
 17  2  1  0  0  0  0
 18  8  1  1  0  0  0
 18 25  1  0  0  0  0
 18 19  1  0  0  0  0
 19  5  1  6  0  0  0
 20 16  1  0  0  0  0
 21 13  1  0  0  0  0
 23 30  1  6  0  0  0
 23 10  1  0  0  0  0
 23 28  1  0  0  0  0
 25 19  1  0  0  0  0
 25 27  1  0  0  0  0
 26  8  2  0  0  0  0
 27  1  1  0  0  0  0
 27 21  1  0  0  0  0
 28 15  1  0  0  0  0
 29 30  1  0  0  0  0
 31 30  2  0  0  0  0
 32 34  1  0  0  0  0
 33 34  2  0  0  0  0
 33 35  1  0  0  0  0
 34 31  1  0  0  0  0
 35 29  2  0  0  0  0
 37 36  1  0  0  0  0
M  END
>  <MODEL>
8

>  <REMARK>
 VINA RESULT:      -5.3      3.458      8.733
  Name = 
  2 active torsions:
  status: ('A' for Active; 'I' for Inactive)
    1  A    between atoms: C_4  and  C_37
    2  A    between atoms: C_23  and  C_30
                            x       y       z     vdW  Elec       q    Type
                         _______ _______ _______ _____ _____    ______ ____

>  <TORSDO>
F 2

$$$$
=
 OpenBabel11122413323D

 37 44  0  0  1  0  0  0  0  0999 V2000
  160.1330  208.9120  153.8950 O   0  0  0  0  0  0  0  0  0  0  0  0
  157.0330  211.5760  155.7570 C   0  0  0  0  0  0  0  0  0  0  0  0
  158.5220  212.7020  152.0230 C   0  0  0  0  0  0  0  0  0  0  0  0
  161.1050  208.1810  154.5980 C   0  0  2  0  0  3  0  0  0  0  0  0
  161.2400  210.5770  150.2860 O   0  0  0  0  0  0  0  0  0  0  0  0
  156.9650  213.1350  153.8300 C   0  0  0  0  0  0  0  0  0  0  0  0
  159.6260  211.8440  151.8590 C   0  0  0  0  0  0  0  0  0  0  0  0
  161.6140  207.4190  152.2360 C   0  0  0  0  0  0  0  0  0  0  0  0
  158.0180  212.4480  153.2690 C   0  0  0  0  0  0  0  0  0  0  0  0
  160.6810  211.8340  150.7050 C   0  0  2  0  0  3  0  0  0  0  0  0
  156.3690  214.1590  153.0850 C   0  0  0  0  0  3  0  0  0  0  0  0
  161.7380  207.1110  153.7040 C   0  0  0  0  0  2  0  0  0  0  0  0
  158.7060  211.5220  153.9250 N   0  0  0  0  0  0  0  0  0  0  0  0
  156.1170  210.4270  155.3790 C   0  0  0  0  0  1  0  0  0  0  0  0
  158.4070  214.1030  149.8790 C   0  0  0  0  0  2  0  0  0  0  0  0
  156.8640  214.4530  151.7950 C   0  0  0  0  0  3  0  0  0  0  0  0
  158.4830  211.2190  155.3400 C   0  0  0  0  0  2  0  0  0  0  0  0
  162.1460  208.6920  151.6350 C   0  0  1  0  0  3  0  0  0  0  0  0
  160.9910  209.5780  151.2280 C   0  0  1  0  0  3  0  0  0  0  0  0
  157.9550  213.7390  151.2500 C   0  0  0  0  0  0  0  0  0  0  0  0
  159.7150  211.1490  153.1110 C   0  0  0  0  0  0  0  0  0  0  0  0
  156.5630  212.7840  155.1250 O   0  0  0  0  0  0  0  0  0  0  0  0
  160.3210  212.6470  149.4520 C   0  0  1  0  0  3  0  0  0  0  0  0
  156.9870  211.7540  157.2600 C   0  0  0  0  0  1  0  0  0  0  0  0
  161.8240  209.9560  152.4440 C   0  0  1  0  0  3  0  0  0  0  0  0
  161.0990  206.5890  151.5050 O   0  0  0  0  0  0  0  0  0  0  0  0
  160.7550  210.1210  153.5320 C   0  0  2  0  0  3  0  0  0  0  0  0
  159.9120  214.0700  149.7670 C   0  0  0  0  0  2  0  0  0  0  0  0
  162.7070  212.2040  148.8420 C   0  0  0  0  0  3  0  0  0  0  0  0
  161.4420  212.6610  148.4540 C   0  0  0  0  0  0  0  0  0  0  0  0
  161.2440  213.1240  147.1430 C   0  0  0  0  0  3  0  0  0  0  0  0
  162.1110  213.5780  144.9700 F   0  0  0  0  0  0  0  0  0  0  0  0
  163.5670  212.6730  146.6270 C   0  0  0  0  0  3  0  0  0  0  0  0
  162.3060  213.1300  146.2330 C   0  0  0  0  0  0  0  0  0  0  0  0
  163.7670  212.2100  147.9310 C   0  0  0  0  0  3  0  0  0  0  0  0
  160.4280  208.4960  156.9730 C   0  0  0  0  0  1  0  0  0  0  0  0
  160.4860  207.5190  155.8150 C   0  0  0  0  0  2  0  0  0  0  0  0
  1  4  1  0  0  0  0
  2 24  1  0  0  0  0
  3  9  1  0  0  0  0
  4 37  1  1  0  0  0
  6 22  1  0  0  0  0
  7  3  1  0  0  0  0
  7 21  2  0  0  0  0
  8 12  1  0  0  0  0
  9  6  2  0  0  0  0
  9 13  1  0  0  0  0
 10  5  1  6  0  0  0
 10  7  1  0  0  0  0
 11  6  1  0  0  0  0
 12  4  1  0  0  0  0
 13 17  1  0  0  0  0
 14  2  1  0  0  0  0
 15 20  1  0  0  0  0
 16 11  2  0  0  0  0
 17  2  1  0  0  0  0
 18  8  1  1  0  0  0
 18 25  1  0  0  0  0
 19  5  1  6  0  0  0
 19 18  1  0  0  0  0
 19 25  1  0  0  0  0
 20 16  1  0  0  0  0
 20  3  2  0  0  0  0
 21 27  1  0  0  0  0
 21 13  1  0  0  0  0
 22  2  1  0  0  0  0
 23 30  1  6  0  0  0
 23 28  1  0  0  0  0
 23 10  1  0  0  0  0
 25 27  1  0  0  0  0
 26  8  2  0  0  0  0
 27  1  1  0  0  0  0
 28 15  1  0  0  0  0
 30 29  1  0  0  0  0
 31 30  2  0  0  0  0
 32 34  1  0  0  0  0
 33 35  1  0  0  0  0
 34 33  2  0  0  0  0
 34 31  1  0  0  0  0
 35 29  2  0  0  0  0
 37 36  1  0  0  0  0
M  END
>  <MODEL>
9

>  <REMARK>
 VINA RESULT:      -4.9      4.817      8.702
  Name = 
  2 active torsions:
  status: ('A' for Active; 'I' for Inactive)
    1  A    between atoms: C_4  and  C_37
    2  A    between atoms: C_23  and  C_30
                            x       y       z     vdW  Elec       q    Type
                         _______ _______ _______ _____ _____    ______ ____

>  <TORSDO>
F 2

$$$$
