=
 OpenBabel11122412553D

 32 37  0  0  1  0  0  0  0  0999 V2000
  160.0700  208.4130  156.8900 C   0  0  0  0  0  2  0  0  0  0  0  0
  161.0930  206.9340  152.0370 C   0  0  0  0  0  0  0  0  0  0  0  0
  162.5600  210.8420  149.4880 C   0  0  0  0  0  2  0  0  0  0  0  0
  161.9780  210.2350  148.2260 C   0  0  0  0  0  2  0  0  0  0  0  0
  161.1930  204.6550  150.9680 C   0  0  1  0  0  3  0  0  0  0  0  0
  161.0780  204.0190  149.6240 C   0  0  0  0  0  0  0  0  0  0  0  0
  161.0530  207.0130  154.4930 N   0  0  1  0  0  0  0  0  0  0  0  0
  161.2030  209.1150  153.2340 C   0  0  0  0  0  2  0  0  0  0  0  0
  161.2460  203.7590  147.3620 C   0  0  0  0  0  0  0  0  0  0  0  0
  160.7230  209.1510  155.7140 C   0  0  2  0  0  3  0  0  0  0  0  0
  161.7510  210.3520  150.6800 C   0  0  0  0  0  2  0  0  0  0  0  0
  161.2940  208.2680  151.9830 C   0  0  0  0  0  0  0  0  0  0  0  0
  161.6850  208.8860  150.7400 N   0  0  0  0  0  0  0  0  0  0  0  0
  161.5620  206.7730  149.5780 C   0  0  0  0  0  0  0  0  0  0  0  0
  160.9430  202.6020  147.8630 N   0  0  0  0  0  0  0  0  0  0  0  0
  159.5140  207.0460  156.4960 C   0  0  0  0  0  2  0  0  0  0  0  0
  160.5320  208.3850  154.3960 C   0  0  2  0  0  3  0  0  0  0  0  0
  160.8480  202.7530  149.2920 C   0  0  0  0  0  3  0  0  0  0  0  0
  160.5440  206.2740  155.6640 C   0  0  0  0  0  2  0  0  0  0  0  0
  162.2100  208.7320  148.2350 C   0  0  0  0  0  2  0  0  0  0  0  0
  161.7720  208.0970  149.5300 C   0  0  0  0  0  0  0  0  0  0  0  0
  161.5900  205.9990  148.3630 N   0  0  0  0  0  0  0  0  0  0  0  0
  160.5930  206.2910  153.3110 C   0  0  0  0  0  2  0  0  0  0  0  0
  162.4520  204.1440  151.6550 C   0  0  0  0  0  1  0  0  0  0  0  0
  161.4240  204.0100  145.9080 C   0  0  0  0  0  1  0  0  0  0  0  0
  161.2530  206.1300  150.8480 N   0  0  0  0  0  0  0  0  0  0  0  0
  161.3550  204.7310  148.4210 C   0  0  0  0  0  0  0  0  0  0  0  0
  162.0840  209.3300  155.9850 O   0  0  0  0  0  0  0  0  0  0  0  0
  162.1270  209.8950  157.2610 C   0  0  0  0  0  2  0  0  0  0  0  0
  162.6950  211.2680  157.1820 C   0  0  0  0  0  0  0  0  0  0  0  0
  164.1040  211.4520  157.2490 N   0  0  0  0  0  2  0  0  0  0  0  0
  161.9110  212.2910  157.2610 N   0  0  0  0  0  1  0  0  0  0  0  0
  2 23  1  0  0  0  0
  3 11  1  0  0  0  0
  4 20  1  0  0  0  0
  4  3  1  0  0  0  0
  5 24  1  6  0  0  0
  6  5  1  0  0  0  0
  7 23  1  6  0  0  0
  7 19  1  0  0  0  0
  9 15  2  0  0  0  0
  9 27  1  0  0  0  0
 10 28  1  1  0  0  0
 10  1  1  0  0  0  0
 11 13  1  0  0  0  0
 12  2  2  0  0  0  0
 12  8  1  0  0  0  0
 13 12  1  0  0  0  0
 14 26  1  0  0  0  0
 15 18  1  0  0  0  0
 16  1  1  0  0  0  0
 17  8  1  6  0  0  0
 17  7  1  0  0  0  0
 17 10  1  0  0  0  0
 18  6  2  0  0  0  0
 19 16  1  0  0  0  0
 20 21  1  0  0  0  0
 21 14  2  0  0  0  0
 21 13  1  0  0  0  0
 22 27  2  0  0  0  0
 22 14  1  0  0  0  0
 25  9  1  0  0  0  0
 26  5  1  0  0  0  0
 26  2  1  0  0  0  0
 27  6  1  0  0  0  0
 28 29  1  0  0  0  0
 30 31  2  0  0  0  0
 30 29  1  0  0  0  0
 30 32  1  0  0  0  0
M  END
>  <MODEL>
1

>  <REMARK>
 VINA RESULT:      -6.8      0.000      0.000
  Name = 
  3 active torsions:
  status: ('A' for Active; 'I' for Inactive)
    1  A    between atoms: C_10  and  O_20
    2  A    between atoms: O_20  and  C_29
    3  A    between atoms: C_29  and  C_30
                            x       y       z     vdW  Elec       q    Type
                         _______ _______ _______ _____ _____    ______ ____

>  <TORSDO>
F 3

$$$$
=
 OpenBabel11122412553D

 32 37  0  0  1  0  0  0  0  0999 V2000
  162.4140  213.0010  148.8730 C   0  0  0  0  0  2  0  0  0  0  0  0
  161.5710  207.9130  149.2980 C   0  0  0  0  0  0  0  0  0  0  0  0
  160.6860  206.8610  153.9910 C   0  0  0  0  0  2  0  0  0  0  0  0
  161.2850  205.4830  153.7940 C   0  0  0  0  0  2  0  0  0  0  0  0
  161.3080  206.1090  147.5580 C   0  0  1  0  0  3  0  0  0  0  0  0
  161.4470  204.6310  147.4180 C   0  0  0  0  0  0  0  0  0  0  0  0
  161.4550  210.2400  148.5170 N   0  0  1  0  0  0  0  0  0  0  0  0
  161.6050  209.7970  150.9260 C   0  0  0  0  0  2  0  0  0  0  0  0
  161.4040  202.4180  147.9790 C   0  0  0  0  0  0  0  0  0  0  0  0
  161.9200  212.1430  150.0440 C   0  0  2  0  0  3  0  0  0  0  0  0
  161.3580  207.8270  153.0260 C   0  0  0  0  0  2  0  0  0  0  0  0
  161.5110  208.3260  150.5810 C   0  0  0  0  0  0  0  0  0  0  0  0
  161.2700  207.3690  151.6330 N   0  0  0  0  0  0  0  0  0  0  0  0
  161.2530  205.5430  150.0550 C   0  0  0  0  0  0  0  0  0  0  0  0
  161.5530  202.4880  146.6930 N   0  0  0  0  0  0  0  0  0  0  0  0
  162.8530  212.1670  147.6710 C   0  0  0  0  0  2  0  0  0  0  0  0
  162.1200  210.6450  149.7650 C   0  0  2  0  0  3  0  0  0  0  0  0
  161.5670  203.8820  146.3280 C   0  0  0  0  0  3  0  0  0  0  0  0
  161.8070  211.0900  147.3630 C   0  0  0  0  0  2  0  0  0  0  0  0
  160.9000  204.9570  152.4200 C   0  0  0  0  0  2  0  0  0  0  0  0
  161.1830  205.9570  151.3280 C   0  0  0  0  0  0  0  0  0  0  0  0
  161.2260  204.1330  149.7580 N   0  0  0  0  0  0  0  0  0  0  0  0
  161.9170  208.8930  148.1990 C   0  0  0  0  0  2  0  0  0  0  0  0
  159.9610  206.5390  146.9960 C   0  0  0  0  0  1  0  0  0  0  0  0
  161.3500  201.1400  148.7370 C   0  0  0  0  0  1  0  0  0  0  0  0
  161.4080  206.5140  148.9800 N   0  0  0  0  0  0  0  0  0  0  0  0
  161.3250  203.7480  148.5310 C   0  0  0  0  0  0  0  0  0  0  0  0
  160.5700  212.4230  150.2800 O   0  0  0  0  0  0  0  0  0  0  0  0
  160.3380  213.6430  149.6420 C   0  0  0  0  0  2  0  0  0  0  0  0
  158.9790  213.6400  149.0350 C   0  0  0  0  0  0  0  0  0  0  0  0
  157.8360  213.7940  149.8680 N   0  0  0  0  0  1  0  0  0  0  0  0
  158.8300  213.2950  147.8000 N   0  0  0  0  0  2  0  0  0  0  0  0
  1 10  1  0  0  0  0
  2 12  2  0  0  0  0
  4  3  1  0  0  0  0
  5 24  1  1  0  0  0
  5 26  1  0  0  0  0
  6  5  1  0  0  0  0
  6 27  1  0  0  0  0
  7 19  1  6  0  0  0
  7 17  1  0  0  0  0
  9 27  1  0  0  0  0
  9 25  1  0  0  0  0
 10 28  1  6  0  0  0
 11  3  1  0  0  0  0
 12  8  1  0  0  0  0
 12 13  1  0  0  0  0
 13 11  1  0  0  0  0
 14 21  2  0  0  0  0
 15  9  2  0  0  0  0
 16  1  1  0  0  0  0
 17 10  1  0  0  0  0
 17  8  1  1  0  0  0
 18 15  1  0  0  0  0
 18  6  2  0  0  0  0
 19 16  1  0  0  0  0
 20  4  1  0  0  0  0
 21 13  1  0  0  0  0
 21 20  1  0  0  0  0
 22 14  1  0  0  0  0
 23  7  1  0  0  0  0
 23  2  1  0  0  0  0
 26  2  1  0  0  0  0
 26 14  1  0  0  0  0
 27 22  2  0  0  0  0
 29 28  1  0  0  0  0
 30 29  1  0  0  0  0
 30 31  1  0  0  0  0
 32 30  2  0  0  0  0
M  END
>  <MODEL>
2

>  <REMARK>
 VINA RESULT:      -5.9      2.949      5.916
  Name = 
  3 active torsions:
  status: ('A' for Active; 'I' for Inactive)
    1  A    between atoms: C_10  and  O_20
    2  A    between atoms: O_20  and  C_29
    3  A    between atoms: C_29  and  C_30
                            x       y       z     vdW  Elec       q    Type
                         _______ _______ _______ _____ _____    ______ ____

>  <TORSDO>
F 3

$$$$
=
 OpenBabel11122412553D

 32 37  0  0  1  0  0  0  0  0999 V2000
  162.3320  213.1330  148.6590 C   0  0  0  0  0  2  0  0  0  0  0  0
  161.5400  208.0600  149.3040 C   0  0  0  0  0  0  0  0  0  0  0  0
  160.6170  207.2090  154.0310 C   0  0  0  0  0  2  0  0  0  0  0  0
  161.2340  205.8300  153.9010 C   0  0  0  0  0  2  0  0  0  0  0  0
  161.3160  206.1770  147.6440 C   0  0  1  0  0  3  0  0  0  0  0  0
  161.4720  204.6960  147.5720 C   0  0  0  0  0  0  0  0  0  0  0  0
  161.4070  210.3480  148.4180 N   0  0  1  0  0  0  0  0  0  0  0  0
  161.5370  210.0150  150.8470 C   0  0  0  0  0  2  0  0  0  0  0  0
  161.4480  202.5100  148.2310 C   0  0  0  0  0  0  0  0  0  0  0  0
  161.8350  212.3230  149.8630 C   0  0  2  0  0  3  0  0  0  0  0  0
  161.2900  208.1380  153.0300 C   0  0  0  0  0  2  0  0  0  0  0  0
  161.4630  208.5290  150.5670 C   0  0  0  0  0  0  0  0  0  0  0  0
  161.2210  207.6170  151.6580 N   0  0  0  0  0  0  0  0  0  0  0  0
  161.2400  205.7220  150.1630 C   0  0  0  0  0  0  0  0  0  0  0  0
  161.6090  202.5240  146.9450 N   0  0  0  0  0  0  0  0  0  0  0  0
  162.7920  212.2510  147.5000 C   0  0  0  0  0  2  0  0  0  0  0  0
  162.0540  210.8160  149.6540 C   0  0  2  0  0  3  0  0  0  0  0  0
  161.6120  203.9000  146.5180 C   0  0  0  0  0  3  0  0  0  0  0  0
  161.7610  211.1500  147.2310 C   0  0  0  0  0  2  0  0  0  0  0  0
  160.8690  205.2390  152.5490 C   0  0  0  0  0  2  0  0  0  0  0  0
  161.1530  206.1920  151.4160 C   0  0  0  0  0  0  0  0  0  0  0  0
  161.2320  204.3010  149.9300 N   0  0  0  0  0  0  0  0  0  0  0  0
  161.8870  208.9930  148.1660 C   0  0  0  0  0  2  0  0  0  0  0  0
  159.9700  206.5660  147.0490 C   0  0  0  0  0  1  0  0  0  0  0  0
  161.4000  201.2670  149.0450 C   0  0  0  0  0  1  0  0  0  0  0  0
  161.3960  206.6460  149.0480 N   0  0  0  0  0  0  0  0  0  0  0  0
  161.3490  203.8620  148.7220 C   0  0  0  0  0  0  0  0  0  0  0  0
  160.4800  212.5970  150.0730 O   0  0  0  0  0  0  0  0  0  0  0  0
  160.4530  213.4680  151.1650 C   0  0  0  0  0  2  0  0  0  0  0  0
  159.5410  212.9310  152.2110 C   0  0  0  0  0  0  0  0  0  0  0  0
  160.0790  212.2000  153.3070 N   0  0  0  0  0  1  0  0  0  0  0  0
  158.2650  212.9480  152.0180 N   0  0  0  0  0  2  0  0  0  0  0  0
  1 10  1  0  0  0  0
  2 12  2  0  0  0  0
  4  3  1  0  0  0  0
  5 24  1  1  0  0  0
  5 26  1  0  0  0  0
  6  5  1  0  0  0  0
  6 27  1  0  0  0  0
  7 19  1  6  0  0  0
  7 17  1  0  0  0  0
  9 27  1  0  0  0  0
  9 25  1  0  0  0  0
 10 28  1  6  0  0  0
 11  3  1  0  0  0  0
 12  8  1  0  0  0  0
 12 13  1  0  0  0  0
 13 11  1  0  0  0  0
 14 21  2  0  0  0  0
 15  9  2  0  0  0  0
 16  1  1  0  0  0  0
 17 10  1  0  0  0  0
 17  8  1  1  0  0  0
 18 15  1  0  0  0  0
 18  6  2  0  0  0  0
 19 16  1  0  0  0  0
 20  4  1  0  0  0  0
 21 13  1  0  0  0  0
 21 20  1  0  0  0  0
 22 14  1  0  0  0  0
 23  7  1  0  0  0  0
 23  2  1  0  0  0  0
 26  2  1  0  0  0  0
 26 14  1  0  0  0  0
 27 22  2  0  0  0  0
 28 29  1  0  0  0  0
 29 30  1  0  0  0  0
 30 31  1  0  0  0  0
 32 30  2  0  0  0  0
M  END
>  <MODEL>
3

>  <REMARK>
 VINA RESULT:      -5.5      2.575      5.409
  Name = 
  3 active torsions:
  status: ('A' for Active; 'I' for Inactive)
    1  A    between atoms: C_10  and  O_20
    2  A    between atoms: O_20  and  C_29
    3  A    between atoms: C_29  and  C_30
                            x       y       z     vdW  Elec       q    Type
                         _______ _______ _______ _____ _____    ______ ____

>  <TORSDO>
F 3

$$$$
=
 OpenBabel11122412553D

 32 37  0  0  1  0  0  0  0  0999 V2000
  162.5320  211.5230  150.4140 C   0  0  0  0  0  2  0  0  0  0  0  0
  161.4840  206.6360  149.0690 C   0  0  0  0  0  0  0  0  0  0  0  0
  160.7780  204.0120  153.1360 C   0  0  0  0  0  2  0  0  0  0  0  0
  161.3060  202.7790  152.4290 C   0  0  0  0  0  2  0  0  0  0  0  0
  161.0580  205.5730  146.8250 C   0  0  1  0  0  3  0  0  0  0  0  0
  161.1240  204.2370  146.1650 C   0  0  0  0  0  0  0  0  0  0  0  0
  161.4350  209.0910  149.1670 N   0  0  1  0  0  0  0  0  0  0  0  0
  161.6800  207.8190  151.2520 C   0  0  0  0  0  2  0  0  0  0  0  0
  161.0100  201.9720  145.9120 C   0  0  0  0  0  0  0  0  0  0  0  0
  162.0570  210.3170  151.2360 C   0  0  2  0  0  3  0  0  0  0  0  0
  161.4460  205.2400  152.5340 C   0  0  0  0  0  2  0  0  0  0  0  0
  161.5050  206.5690  150.4170 C   0  0  0  0  0  0  0  0  0  0  0  0
  161.2710  205.3080  151.0770 N   0  0  0  0  0  0  0  0  0  0  0  0
  161.0970  204.1600  148.9610 C   0  0  0  0  0  0  0  0  0  0  0  0
  161.0990  202.4890  144.7260 N   0  0  0  0  0  0  0  0  0  0  0  0
  162.8750  211.1580  148.9710 C   0  0  0  0  0  2  0  0  0  0  0  0
  162.1760  209.0110  150.4360 C   0  0  2  0  0  3  0  0  0  0  0  0
  161.1590  203.9200  144.8760 C   0  0  0  0  0  3  0  0  0  0  0  0
  161.7690  210.2860  148.3680 C   0  0  0  0  0  2  0  0  0  0  0  0
  160.8320  202.7840  150.9850 C   0  0  0  0  0  2  0  0  0  0  0  0
  161.1070  204.0980  150.3000 C   0  0  0  0  0  0  0  0  0  0  0  0
  160.9930  202.9490  148.1890 N   0  0  0  0  0  0  0  0  0  0  0  0
  161.8200  207.9330  148.3680 C   0  0  0  0  0  2  0  0  0  0  0  0
  159.7070  206.2080  146.5330 C   0  0  0  0  0  1  0  0  0  0  0  0
  160.9350  200.5100  146.1730 C   0  0  0  0  0  1  0  0  0  0  0  0
  161.2440  205.4450  148.2900 N   0  0  0  0  0  0  0  0  0  0  0  0
  161.0170  203.0210  146.9000 C   0  0  0  0  0  0  0  0  0  0  0  0
  160.7340  210.5290  151.6370 O   0  0  0  0  0  0  0  0  0  0  0  0
  160.8290  211.2530  152.8270 C   0  0  0  0  0  2  0  0  0  0  0  0
  161.2390  210.3470  153.9330 C   0  0  0  0  0  0  0  0  0  0  0  0
  160.4430  209.2100  154.2450 N   0  0  0  0  0  2  0  0  0  0  0  0
  162.1890  210.7020  154.7330 N   0  0  0  0  0  1  0  0  0  0  0  0
  1 10  1  0  0  0  0
  2 12  2  0  0  0  0
  4  3  1  0  0  0  0
  5 24  1  1  0  0  0
  5 26  1  0  0  0  0
  6  5  1  0  0  0  0
  6 27  1  0  0  0  0
  7 19  1  6  0  0  0
  7 17  1  0  0  0  0
  9 25  1  0  0  0  0
  9 27  1  0  0  0  0
 10 28  1  6  0  0  0
 11  3  1  0  0  0  0
 12 13  1  0  0  0  0
 12  8  1  0  0  0  0
 13 11  1  0  0  0  0
 14 21  2  0  0  0  0
 15 18  1  0  0  0  0
 15  9  2  0  0  0  0
 16  1  1  0  0  0  0
 17 10  1  0  0  0  0
 17  8  1  1  0  0  0
 18  6  2  0  0  0  0
 19 16  1  0  0  0  0
 20  4  1  0  0  0  0
 21 20  1  0  0  0  0
 21 13  1  0  0  0  0
 22 14  1  0  0  0  0
 23  2  1  0  0  0  0
 23  7  1  0  0  0  0
 26 14  1  0  0  0  0
 26  2  1  0  0  0  0
 27 22  2  0  0  0  0
 28 29  1  0  0  0  0
 29 30  1  0  0  0  0
 30 31  2  0  0  0  0
 30 32  1  0  0  0  0
M  END
>  <MODEL>
4

>  <REMARK>
 VINA RESULT:      -4.5      2.168      5.063
  Name = 
  3 active torsions:
  status: ('A' for Active; 'I' for Inactive)
    1  A    between atoms: C_10  and  O_20
    2  A    between atoms: O_20  and  C_29
    3  A    between atoms: C_29  and  C_30
                            x       y       z     vdW  Elec       q    Type
                         _______ _______ _______ _____ _____    ______ ____

>  <TORSDO>
F 3

$$$$
=
 OpenBabel11122412553D

 32 37  0  0  1  0  0  0  0  0999 V2000
  162.1080  213.9400  147.3410 C   0  0  0  0  0  2  0  0  0  0  0  0
  160.6450  211.4230  151.6200 C   0  0  0  0  0  0  0  0  0  0  0  0
  157.0800  213.9720  153.7910 C   0  0  0  0  0  2  0  0  0  0  0  0
  157.5330  213.4520  155.1410 C   0  0  0  0  0  2  0  0  0  0  0  0
  161.2600  209.1510  152.5180 C   0  0  1  0  0  3  0  0  0  0  0  0
  161.2980  208.4070  153.8100 C   0  0  0  0  0  0  0  0  0  0  0  0
  161.2530  211.9030  149.2880 N   0  0  1  0  0  0  0  0  0  0  0  0
  159.9200  213.5440  150.5340 C   0  0  0  0  0  2  0  0  0  0  0  0
  160.7030  207.7440  155.9120 C   0  0  0  0  0  0  0  0  0  0  0  0
  160.9360  214.1620  148.3050 C   0  0  2  0  0  3  0  0  0  0  0  0
  158.2870  214.0390  152.8670 C   0  0  0  0  0  2  0  0  0  0  0  0
  159.8910  212.5420  151.6680 C   0  0  0  0  0  0  0  0  0  0  0  0
  158.9810  212.7480  152.7680 N   0  0  0  0  0  0  0  0  0  0  0  0
  159.6970  210.7000  153.8270 C   0  0  0  0  0  0  0  0  0  0  0  0
  161.5810  206.8970  155.4740 N   0  0  0  0  0  0  0  0  0  0  0  0
  163.0760  212.8600  147.8230 C   0  0  0  0  0  2  0  0  0  0  0  0
  161.1020  213.3350  149.5890 C   0  0  2  0  0  3  0  0  0  0  0  0
  161.9530  207.3000  154.1420 C   0  0  0  0  0  3  0  0  0  0  0  0
  162.3000  211.6230  148.2860 C   0  0  0  0  0  2  0  0  0  0  0  0
  157.9700  212.0020  155.0030 C   0  0  0  0  0  2  0  0  0  0  0  0
  158.9410  211.8070  153.8670 C   0  0  0  0  0  0  0  0  0  0  0  0
  159.7000  209.7950  154.9480 N   0  0  0  0  0  0  0  0  0  0  0  0
  161.6680  211.2430  150.5220 C   0  0  0  0  0  2  0  0  0  0  0  0
  160.5500  208.3010  151.4740 C   0  0  0  0  0  1  0  0  0  0  0  0
  160.0820  207.6690  157.2610 C   0  0  0  0  0  1  0  0  0  0  0  0
  160.5520  210.4430  152.6760 N   0  0  0  0  0  0  0  0  0  0  0  0
  160.4570  208.7500  154.9080 C   0  0  0  0  0  0  0  0  0  0  0  0
  159.7410  213.8300  147.6580 O   0  0  0  0  0  0  0  0  0  0  0  0
  160.0360  213.9060  146.2950 C   0  0  0  0  0  2  0  0  0  0  0  0
  159.2380  212.8930  145.5530 C   0  0  0  0  0  0  0  0  0  0  0  0
  159.7160  212.3920  144.3100 N   0  0  0  0  0  2  0  0  0  0  0  0
  158.0320  212.6270  145.9280 N   0  0  0  0  0  1  0  0  0  0  0  0
  1 16  1  0  0  0  0
  1 10  1  0  0  0  0
  2 12  2  0  0  0  0
  2 26  1  0  0  0  0
  3  4  1  0  0  0  0
  5 24  1  6  0  0  0
  5 26  1  0  0  0  0
  5  6  1  0  0  0  0
  6 18  2  0  0  0  0
  6 27  1  0  0  0  0
  7 19  1  6  0  0  0
  7 17  1  0  0  0  0
  7 23  1  0  0  0  0
  8 12  1  0  0  0  0
  9 25  1  0  0  0  0
 10 28  1  6  0  0  0
 10 17  1  0  0  0  0
 11  3  1  0  0  0  0
 12 13  1  0  0  0  0
 13 11  1  0  0  0  0
 13 21  1  0  0  0  0
 14 21  2  0  0  0  0
 14 22  1  0  0  0  0
 15  9  2  0  0  0  0
 16 19  1  0  0  0  0
 17  8  1  1  0  0  0
 18 15  1  0  0  0  0
 20  4  1  0  0  0  0
 21 20  1  0  0  0  0
 23  2  1  0  0  0  0
 26 14  1  0  0  0  0
 27 22  2  0  0  0  0
 27  9  1  0  0  0  0
 29 28  1  0  0  0  0
 30 32  1  0  0  0  0
 30 29  1  0  0  0  0
 31 30  2  0  0  0  0
M  END
>  <MODEL>
5

>  <REMARK>
 VINA RESULT:      -4.3      4.126      8.397
  Name = 
  3 active torsions:
  status: ('A' for Active; 'I' for Inactive)
    1  A    between atoms: C_10  and  O_20
    2  A    between atoms: O_20  and  C_29
    3  A    between atoms: C_29  and  C_30
                            x       y       z     vdW  Elec       q    Type
                         _______ _______ _______ _____ _____    ______ ____

>  <TORSDO>
F 3

$$$$
=
 OpenBabel11122412553D

 32 37  0  0  1  0  0  0  0  0999 V2000
  161.6170  201.6670  150.1150 C   0  0  0  0  0  2  0  0  0  0  0  0
  161.3360  206.3670  152.2620 C   0  0  0  0  0  0  0  0  0  0  0  0
  161.6630  209.7260  148.7220 C   0  0  0  0  0  2  0  0  0  0  0  0
  162.3160  210.6870  149.6960 C   0  0  0  0  0  2  0  0  0  0  0  0
  160.8310  207.1030  154.6180 C   0  0  1  0  0  3  0  0  0  0  0  0
  161.0600  208.2660  155.5240 C   0  0  0  0  0  0  0  0  0  0  0  0
  160.8420  204.0280  151.6950 N   0  0  1  0  0  0  0  0  0  0  0  0
  161.5880  205.5530  149.9220 C   0  0  0  0  0  2  0  0  0  0  0  0
  161.3390  210.4310  156.1920 C   0  0  0  0  0  0  0  0  0  0  0  0
  161.4860  203.0650  149.4970 C   0  0  2  0  0  3  0  0  0  0  0  0
  162.0070  208.3030  149.1380 C   0  0  0  0  0  2  0  0  0  0  0  0
  161.5420  206.6540  150.9590 C   0  0  0  0  0  0  0  0  0  0  0  0
  161.6360  208.0290  150.5330 N   0  0  0  0  0  0  0  0  0  0  0  0
  161.4080  208.8160  152.8040 C   0  0  0  0  0  0  0  0  0  0  0  0
  161.1770  209.7150  157.2610 N   0  0  0  0  0  0  0  0  0  0  0  0
  161.8340  201.7050  151.6270 C   0  0  0  0  0  2  0  0  0  0  0  0
  161.7420  204.1650  150.5390 C   0  0  2  0  0  3  0  0  0  0  0  0
  160.9860  208.3480  156.8480 C   0  0  0  0  0  3  0  0  0  0  0  0
  160.8410  202.6730  152.2790 C   0  0  0  0  0  2  0  0  0  0  0  0
  161.6680  210.5380  151.0630 C   0  0  0  0  0  2  0  0  0  0  0  0
  161.6020  209.0990  151.5080 C   0  0  0  0  0  0  0  0  0  0  0  0
  161.4340  209.8750  153.7790 N   0  0  0  0  0  0  0  0  0  0  0  0
  161.3310  204.9300  152.7320 C   0  0  0  0  0  2  0  0  0  0  0  0
  159.3580  206.7220  154.6580 C   0  0  0  0  0  1  0  0  0  0  0  0
  161.5730  211.8990  156.2090 C   0  0  0  0  0  1  0  0  0  0  0  0
  161.2250  207.4340  153.2290 N   0  0  0  0  0  0  0  0  0  0  0  0
  161.2770  209.5840  155.0270 C   0  0  0  0  0  0  0  0  0  0  0  0
  160.2090  203.2020  148.9430 O   0  0  0  0  0  0  0  0  0  0  0  0
  160.0320  202.0610  148.1590 C   0  0  0  0  0  2  0  0  0  0  0  0
  160.7770  202.2100  146.8800 C   0  0  0  0  0  0  0  0  0  0  0  0
  161.2300  203.4960  146.4740 N   0  0  0  0  0  1  0  0  0  0  0  0
  160.8300  201.2220  146.0500 N   0  0  0  0  0  2  0  0  0  0  0  0
  1 16  1  0  0  0  0
  2 23  1  0  0  0  0
  2 26  1  0  0  0  0
  3 11  1  0  0  0  0
  3  4  1  0  0  0  0
  4 20  1  0  0  0  0
  5 24  1  6  0  0  0
  5  6  1  0  0  0  0
  6 18  2  0  0  0  0
  7 19  1  1  0  0  0
  7 23  1  0  0  0  0
  8 12  1  0  0  0  0
  9 25  1  0  0  0  0
  9 15  2  0  0  0  0
 10 28  1  1  0  0  0
 10  1  1  0  0  0  0
 10 17  1  0  0  0  0
 11 13  1  0  0  0  0
 12  2  2  0  0  0  0
 13 12  1  0  0  0  0
 13 21  1  0  0  0  0
 14 26  1  0  0  0  0
 14 22  1  0  0  0  0
 16 19  1  0  0  0  0
 17  8  1  6  0  0  0
 17  7  1  0  0  0  0
 18 15  1  0  0  0  0
 20 21  1  0  0  0  0
 21 14  2  0  0  0  0
 22 27  2  0  0  0  0
 26  5  1  0  0  0  0
 27  6  1  0  0  0  0
 27  9  1  0  0  0  0
 29 28  1  0  0  0  0
 30 29  1  0  0  0  0
 31 30  1  0  0  0  0
 32 30  2  0  0  0  0
M  END
>  <MODEL>
6

>  <REMARK>
 VINA RESULT:      -4.3      2.261      7.867
  Name = 
  3 active torsions:
  status: ('A' for Active; 'I' for Inactive)
    1  A    between atoms: C_10  and  O_20
    2  A    between atoms: O_20  and  C_29
    3  A    between atoms: C_29  and  C_30
                            x       y       z     vdW  Elec       q    Type
                         _______ _______ _______ _____ _____    ______ ____

>  <TORSDO>
F 3

$$$$
