=
 OpenBabel11122412573D

 32 37  0  0  1  0  0  0  0  0999 V2000
  160.0390  201.9210  150.0770 C   0  0  0  0  0  2  0  0  0  0  0  0
  161.2280  206.5160  151.7920 C   0  0  1  0  0  3  0  0  0  0  0  0
  161.9590  210.0650  148.4450 C   0  0  0  0  0  2  0  0  0  0  0  0
  161.2120  210.8730  149.5090 C   0  0  0  0  0  2  0  0  0  0  0  0
  160.6800  207.2570  154.1830 C   0  0  0  0  0  0  0  0  0  0  0  0
  160.7210  208.2460  155.1700 C   0  0  0  0  0  0  0  0  0  0  0  0
  161.8160  204.1410  151.1800 N   0  0  2  0  0  0  0  0  0  0  0  0
  161.8260  205.9440  149.4290 C   0  0  0  0  0  2  0  0  0  0  0  0
  161.1730  210.3100  156.0540 N   0  0  0  0  0  0  0  0  0  0  0  0
  161.5210  203.5700  148.7890 C   0  0  0  0  0  2  0  0  0  0  0  0
  162.4020  208.6900  148.9630 C   0  0  0  0  0  2  0  0  0  0  0  0
  162.0380  206.9550  150.5730 C   0  0  1  0  0  3  0  0  0  0  0  0
  161.6810  208.3280  150.1910 N   0  0  1  0  0  0  0  0  0  0  0  0
  161.6580  208.8790  152.6170 C   0  0  0  0  0  0  0  0  0  0  0  0
  160.5660  209.5700  157.1530 C   0  0  0  0  0  3  0  0  0  0  0  0
  161.1250  201.9000  150.9590 O   0  0  0  0  0  0  0  0  0  0  0  0
  161.2430  204.5980  149.8890 C   0  0  1  0  0  3  0  0  0  0  0  0
  160.2510  208.1670  156.5870 C   0  0  0  0  0  3  0  0  0  0  0  0
  160.9780  203.0670  151.7180 C   0  0  0  0  0  2  0  0  0  0  0  0
  160.4520  202.4760  148.7080 C   0  0  1  0  0  3  0  0  0  0  0  0
  161.8680  210.7220  150.8830 C   0  0  0  0  0  2  0  0  0  0  0  0
  162.1710  209.2470  151.2380 C   0  0  2  0  0  3  0  0  0  0  0  0
  161.7000  209.8370  153.6490 C   0  0  0  0  0  3  0  0  0  0  0  0
  161.8250  205.1760  152.2320 C   0  0  0  0  0  2  0  0  0  0  0  0
  160.0470  205.9400  154.5000 C   0  0  0  0  0  1  0  0  0  0  0  0
  161.6220  211.6920  156.1350 C   0  0  0  0  0  1  0  0  0  0  0  0
  161.2200  207.5530  152.9000 C   0  0  0  0  0  0  0  0  0  0  0  0
  161.2340  209.4830  154.9120 C   0  0  0  0  0  0  0  0  0  0  0  0
  160.9360  201.3950  147.8600 N   0  0  0  0  0  2  0  0  0  0  0  0
  160.6680  201.3410  146.4550 C   0  0  0  0  0  0  0  0  0  0  0  0
  160.0470  202.2780  145.8810 O   0  0  0  0  0  0  0  0  0  0  0  0
  161.1330  200.1710  145.6620 C   0  0  0  0  0  1  0  0  0  0  0  0
  1 16  1  0  0  0  0
  2 24  1  1  0  0  0
  2 27  1  0  0  0  0
  3 11  1  0  0  0  0
  3  4  1  0  0  0  0
  4 21  1  0  0  0  0
  5 25  1  0  0  0  0
  5  6  1  0  0  0  0
  6 18  1  0  0  0  0
  7 19  1  1  0  0  0
  7 24  1  0  0  0  0
  8 17  1  0  0  0  0
  9 26  1  0  0  0  0
  9 15  1  0  0  0  0
 12  8  1  6  0  0  0
 12  2  1  0  0  0  0
 13 11  1  6  0  0  0
 13 12  1  0  0  0  0
 13 22  1  0  0  0  0
 14 27  1  0  0  0  0
 14 23  2  0  0  0  0
 16 19  1  0  0  0  0
 17 10  1  6  0  0  0
 17  7  1  0  0  0  0
 18 15  2  0  0  0  0
 20 29  1  6  0  0  0
 20 10  1  0  0  0  0
 20  1  1  0  0  0  0
 22 21  1  6  0  0  0
 22 14  1  0  0  0  0
 23 28  1  0  0  0  0
 27  5  2  0  0  0  0
 28  6  2  0  0  0  0
 28  9  1  0  0  0  0
 30 29  1  0  0  0  0
 31 30  2  0  0  0  0
 32 30  1  0  0  0  0
M  END
>  <MODEL>
1

>  <REMARK>
 VINA RESULT:      -7.0      0.000      0.000
  Name = 
  1 active torsions:
  status: ('A' for Active; 'I' for Inactive)
    1  A    between atoms: C_20  and  N_29
                            x       y       z     vdW  Elec       q    Type
                         _______ _______ _______ _____ _____    ______ ____

>  <TORSDO>
F 1

$$$$
=
 OpenBabel11122412573D

 32 37  0  0  1  0  0  0  0  0999 V2000
  161.8880  209.3680  156.7450 C   0  0  0  0  0  2  0  0  0  0  0  0
  161.2830  207.1650  152.2460 C   0  0  1  0  0  3  0  0  0  0  0  0
  162.4970  209.7940  148.2530 C   0  0  0  0  0  2  0  0  0  0  0  0
  163.0230  208.4230  147.8200 C   0  0  0  0  0  2  0  0  0  0  0  0
  161.1830  204.6170  151.9830 C   0  0  0  0  0  0  0  0  0  0  0  0
  161.0500  203.5030  151.1500 C   0  0  0  0  0  0  0  0  0  0  0  0
  160.4020  208.3830  154.2700 N   0  0  2  0  0  0  0  0  0  0  0  0
  161.3670  209.6650  152.3360 C   0  0  0  0  0  2  0  0  0  0  0  0
  160.8180  202.3830  149.1660 N   0  0  0  0  0  0  0  0  0  0  0  0
  161.3150  210.6600  154.6050 C   0  0  0  0  0  2  0  0  0  0  0  0
  161.6110  209.7090  149.5030 C   0  0  0  0  0  2  0  0  0  0  0  0
  161.0320  208.4470  151.4540 C   0  0  1  0  0  3  0  0  0  0  0  0
  161.7950  208.4280  150.1970 N   0  0  1  0  0  0  0  0  0  0  0  0
  161.1580  206.0340  149.9750 C   0  0  0  0  0  0  0  0  0  0  0  0
  160.8530  201.3310  150.1730 C   0  0  0  0  0  3  0  0  0  0  0  0
  160.6000  208.8490  156.5710 O   0  0  0  0  0  0  0  0  0  0  0  0
  161.4490  209.3420  153.8370 C   0  0  1  0  0  3  0  0  0  0  0  0
  161.0070  202.0570  151.5290 C   0  0  0  0  0  3  0  0  0  0  0  0
  160.7540  207.8600  155.5920 C   0  0  0  0  0  2  0  0  0  0  0  0
  162.0760  210.6570  155.9350 C   0  0  1  0  0  3  0  0  0  0  0  0
  161.9430  207.3470  147.9490 C   0  0  0  0  0  2  0  0  0  0  0  0
  161.2150  207.3970  149.3140 C   0  0  2  0  0  3  0  0  0  0  0  0
  161.0030  204.8830  149.1770 C   0  0  0  0  0  3  0  0  0  0  0  0
  160.2890  207.1890  153.4100 C   0  0  0  0  0  2  0  0  0  0  0  0
  161.3640  204.4080  153.4530 C   0  0  0  0  0  1  0  0  0  0  0  0
  160.6930  202.1540  147.7350 C   0  0  0  0  0  1  0  0  0  0  0  0
  161.1680  205.9130  151.3950 C   0  0  0  0  0  0  0  0  0  0  0  0
  160.9440  203.6390  149.7980 C   0  0  0  0  0  0  0  0  0  0  0  0
  161.6590  211.8070  156.7270 N   0  0  0  0  0  2  0  0  0  0  0  0
  160.4550  212.5310  156.4550 C   0  0  0  0  0  0  0  0  0  0  0  0
  159.6660  212.1520  155.5460 O   0  0  0  0  0  0  0  0  0  0  0  0
  160.1260  213.7390  157.2600 C   0  0  0  0  0  1  0  0  0  0  0  0
  2 24  1  1  0  0  0
  3 11  1  0  0  0  0
  4 21  1  0  0  0  0
  4  3  1  0  0  0  0
  5 25  1  0  0  0  0
  6 18  1  0  0  0  0
  6  5  2  0  0  0  0
  7 24  1  6  0  0  0
  7 19  1  0  0  0  0
  9 28  1  0  0  0  0
  9 15  1  0  0  0  0
 10 20  1  0  0  0  0
 12  2  1  0  0  0  0
 12  8  1  1  0  0  0
 13 11  1  6  0  0  0
 13 12  1  0  0  0  0
 14 27  2  0  0  0  0
 15 18  2  0  0  0  0
 16  1  1  0  0  0  0
 17  8  1  6  0  0  0
 17  7  1  0  0  0  0
 17 10  1  0  0  0  0
 19 16  1  0  0  0  0
 20 29  1  1  0  0  0
 20  1  1  0  0  0  0
 22 21  1  6  0  0  0
 22 14  1  0  0  0  0
 22 13  1  0  0  0  0
 23 28  2  0  0  0  0
 23 14  1  0  0  0  0
 26  9  1  0  0  0  0
 27  5  1  0  0  0  0
 27  2  1  0  0  0  0
 28  6  1  0  0  0  0
 30 29  1  0  0  0  0
 30 32  1  0  0  0  0
 31 30  2  0  0  0  0
M  END
>  <MODEL>
2

>  <REMARK>
 VINA RESULT:      -5.8      3.016      8.160
  Name = 
  1 active torsions:
  status: ('A' for Active; 'I' for Inactive)
    1  A    between atoms: C_20  and  N_29
                            x       y       z     vdW  Elec       q    Type
                         _______ _______ _______ _____ _____    ______ ____

>  <TORSDO>
F 1

$$$$
=
 OpenBabel11122412573D

 32 37  0  0  1  0  0  0  0  0999 V2000
  161.2680  204.8650  149.6110 C   0  0  0  0  0  2  0  0  0  0  0  0
  160.8520  209.4370  151.7070 C   0  0  1  0  0  3  0  0  0  0  0  0
  160.4010  213.2930  148.6630 C   0  0  0  0  0  2  0  0  0  0  0  0
  159.4170  213.7190  149.7570 C   0  0  0  0  0  2  0  0  0  0  0  0
  160.0650  209.7560  154.1250 C   0  0  0  0  0  0  0  0  0  0  0  0
  159.7670  210.6180  155.1840 C   0  0  0  0  0  0  0  0  0  0  0  0
  162.1990  207.4480  150.9410 N   0  0  2  0  0  0  0  0  0  0  0  0
  161.6290  209.2910  149.3310 C   0  0  0  0  0  2  0  0  0  0  0  0
  159.5020  212.6350  156.2350 N   0  0  0  0  0  0  0  0  0  0  0  0
  162.1340  207.0110  148.5040 C   0  0  0  0  0  2  0  0  0  0  0  0
  161.2680  212.1020  149.0940 C   0  0  0  0  0  2  0  0  0  0  0  0
  161.4830  210.2170  150.5540 C   0  0  1  0  0  3  0  0  0  0  0  0
  160.6960  211.4230  150.2640 N   0  0  1  0  0  0  0  0  0  0  0  0
  160.4670  211.7330  152.7210 C   0  0  0  0  0  0  0  0  0  0  0  0
  159.1630  211.6490  157.2530 C   0  0  0  0  0  3  0  0  0  0  0  0
  162.2920  205.1300  150.5280 O   0  0  0  0  0  0  0  0  0  0  0  0
  161.5200  207.7950  149.6680 C   0  0  1  0  0  3  0  0  0  0  0  0
  159.3360  210.2710  156.5730 C   0  0  0  0  0  3  0  0  0  0  0  0
  161.7590  206.1170  151.3660 C   0  0  0  0  0  2  0  0  0  0  0  0
  161.4880  205.6360  148.3030 C   0  0  1  0  0  3  0  0  0  0  0  0
  160.0720  213.6790  151.1390 C   0  0  0  0  0  2  0  0  0  0  0  0
  160.8430  212.3620  151.3940 C   0  0  2  0  0  3  0  0  0  0  0  0
  160.1790  212.5630  153.8230 C   0  0  0  0  0  3  0  0  0  0  0  0
  161.8550  208.3370  152.0670 C   0  0  0  0  0  2  0  0  0  0  0  0
  159.9010  208.2820  154.3190 C   0  0  0  0  0  1  0  0  0  0  0  0
  159.4670  214.0760  156.4360 C   0  0  0  0  0  1  0  0  0  0  0  0
  160.4900  210.3180  152.8880 C   0  0  0  0  0  0  0  0  0  0  0  0
  159.8440  211.9720  155.0380 C   0  0  0  0  0  0  0  0  0  0  0  0
  162.3120  204.8490  147.3950 N   0  0  0  0  0  2  0  0  0  0  0  0
  162.1240  204.8670  145.9760 C   0  0  0  0  0  0  0  0  0  0  0  0
  161.2660  205.6280  145.4490 O   0  0  0  0  0  0  0  0  0  0  0  0
  162.9550  203.9840  145.1130 C   0  0  0  0  0  1  0  0  0  0  0  0
  1 16  1  0  0  0  0
  2 24  1  1  0  0  0
  2 27  1  0  0  0  0
  3 11  1  0  0  0  0
  3  4  1  0  0  0  0
  4 21  1  0  0  0  0
  5 25  1  0  0  0  0
  5  6  1  0  0  0  0
  6 18  1  0  0  0  0
  7 19  1  1  0  0  0
  7 24  1  0  0  0  0
  8 17  1  0  0  0  0
  9 26  1  0  0  0  0
  9 15  1  0  0  0  0
 12  8  1  6  0  0  0
 12  2  1  0  0  0  0
 13 11  1  6  0  0  0
 13 12  1  0  0  0  0
 13 22  1  0  0  0  0
 14 27  1  0  0  0  0
 14 23  2  0  0  0  0
 16 19  1  0  0  0  0
 17 10  1  6  0  0  0
 17  7  1  0  0  0  0
 18 15  2  0  0  0  0
 20 29  1  6  0  0  0
 20 10  1  0  0  0  0
 20  1  1  0  0  0  0
 22 21  1  6  0  0  0
 22 14  1  0  0  0  0
 23 28  1  0  0  0  0
 27  5  2  0  0  0  0
 28  6  2  0  0  0  0
 28  9  1  0  0  0  0
 30 29  1  0  0  0  0
 31 30  2  0  0  0  0
 32 30  1  0  0  0  0
M  END
>  <MODEL>
3

>  <REMARK>
 VINA RESULT:      -4.3      2.348      3.231
  Name = 
  1 active torsions:
  status: ('A' for Active; 'I' for Inactive)
    1  A    between atoms: C_20  and  N_29
                            x       y       z     vdW  Elec       q    Type
                         _______ _______ _______ _____ _____    ______ ____

>  <TORSDO>
F 1

$$$$
