=
 OpenBabel11122412553D

 32 37  0  0  1  0  0  0  0  0999 V2000
  161.2450  204.1450  147.3300 C   0  0  0  0  0  2  0  0  0  0  0  0
  162.4030  208.6430  149.3890 C   0  0  1  0  0  3  0  0  0  0  0  0
  161.2170  207.2700  153.9950 C   0  0  0  0  0  3  0  0  0  0  0  0
  161.1030  208.6080  154.3730 C   0  0  0  0  0  3  0  0  0  0  0  0
  162.0680  211.0950  148.6550 C   0  0  1  0  0  3  0  0  0  0  0  0
  161.2580  212.3110  149.0010 C   0  0  0  0  0  0  0  0  0  0  0  0
  162.1400  206.7480  147.7480 C   0  0  1  0  0  3  0  0  0  0  0  0
  160.5770  207.0510  149.7020 O   0  0  0  0  0  0  0  0  0  0  0  0
  159.9650  213.7550  150.1730 C   0  0  0  0  0  0  0  0  0  0  0  0
  160.5990  204.8730  148.5260 C   0  0  2  0  0  3  0  0  0  0  0  0
  161.4480  206.9400  152.6580 C   0  0  0  0  0  3  0  0  0  0  0  0
  161.7830  207.5260  150.2630 C   0  0  2  0  0  3  0  0  0  0  0  0
  161.5630  207.9430  151.6880 C   0  0  0  0  0  0  0  0  0  0  0  0
  161.6400  210.4120  151.0630 C   0  0  2  0  0  3  0  0  0  0  0  0
  160.6710  214.4530  149.3450 N   0  0  0  0  0  0  0  0  0  0  0  0
  161.2750  205.0230  146.0720 C   0  0  0  0  0  2  0  0  0  0  0  0
  160.8250  206.3920  148.4650 C   0  0  2  0  0  3  0  0  0  0  0  0
  161.5030  213.5540  148.6200 C   0  0  0  0  0  3  0  0  0  0  0  0
  162.0910  206.3130  146.2820 C   0  0  0  0  0  2  0  0  0  0  0  0
  161.2140  209.6160  153.4120 C   0  0  0  0  0  3  0  0  0  0  0  0
  161.4190  209.2990  152.0600 C   0  0  0  0  0  0  0  0  0  0  0  0
  160.7290  211.6400  151.3240 C   0  0  0  0  0  2  0  0  0  0  0  0
  162.4160  208.2350  147.9040 C   0  0  0  0  0  2  0  0  0  0  0  0
  163.8170  211.4340  148.8510 Cl  0  0  0  0  0  0  0  0  0  0  0  0
  158.9580  214.3710  151.0790 C   0  0  0  0  0  1  0  0  0  0  0  0
  161.6230  209.9470  149.5860 C   0  0  2  0  0  3  0  0  0  0  0  0
  160.1920  212.2880  150.0400 C   0  0  2  0  0  3  0  0  0  0  0  0
  161.1040  204.3480  149.7220 O   0  0  0  0  0  0  0  0  0  0  0  0
  161.0750  203.0020  149.5600 N   0  0  0  0  0  2  0  0  0  0  0  0
  161.1060  202.1120  150.6770 C   0  0  0  0  0  0  0  0  0  0  0  0
  161.0820  200.8700  150.4860 O   0  0  0  0  0  0  0  0  0  0  0  0
  161.1610  202.6210  152.0050 N   0  0  0  0  0  1  0  0  0  0  0  0
  1 10  1  0  0  0  0
  2 23  1  6  0  0  0
  2 26  1  0  0  0  0
  2 12  1  0  0  0  0
  3  4  1  0  0  0  0
  5 24  1  1  0  0  0
  5  6  1  0  0  0  0
  5 26  1  0  0  0  0
  6 27  1  0  0  0  0
  7 19  1  6  0  0  0
  7 23  1  0  0  0  0
  7 17  1  0  0  0  0
  9 25  1  0  0  0  0
 10 28  1  1  0  0  0
 11  3  2  0  0  0  0
 12  8  1  6  0  0  0
 12 13  1  0  0  0  0
 13 21  2  0  0  0  0
 13 11  1  0  0  0  0
 14 22  1  6  0  0  0
 14 21  1  0  0  0  0
 15  9  2  0  0  0  0
 16 19  1  0  0  0  0
 16  1  1  0  0  0  0
 17 10  1  0  0  0  0
 17  8  1  1  0  0  0
 18  6  2  0  0  0  0
 18 15  1  0  0  0  0
 20  4  2  0  0  0  0
 21 20  1  0  0  0  0
 26 14  1  0  0  0  0
 27  9  1  0  0  0  0
 27 22  1  0  0  0  0
 29 28  1  0  0  0  0
 29 30  1  0  0  0  0
 30 32  1  0  0  0  0
 31 30  2  0  0  0  0
M  END
>  <MODEL>
1

>  <REMARK>
 VINA RESULT:      -6.5      0.000      0.000
  Name = 
  2 active torsions:
  status: ('A' for Active; 'I' for Inactive)
    1  A    between atoms: C_10  and  O_20
    2  A    between atoms: O_20  and  N_29
                            x       y       z     vdW  Elec       q    Type
                         _______ _______ _______ _____ _____    ______ ____

>  <TORSDO>
F 2

$$$$
=
 OpenBabel11122412553D

 32 37  0  0  1  0  0  0  0  0999 V2000
  161.8570  206.5050  152.9370 C   0  0  0  0  0  2  0  0  0  0  0  0
  161.7400  211.0540  150.6790 C   0  0  1  0  0  3  0  0  0  0  0  0
  159.1070  213.1990  154.2800 C   0  0  0  0  0  3  0  0  0  0  0  0
  158.7320  214.2220  153.4080 C   0  0  0  0  0  3  0  0  0  0  0  0
  161.4540  211.8420  148.2370 C   0  0  1  0  0  3  0  0  0  0  0  0
  160.4580  212.5270  147.3470 C   0  0  0  0  0  0  0  0  0  0  0  0
  162.2790  208.6510  151.2140 C   0  0  1  0  0  3  0  0  0  0  0  0
  160.0920  209.7110  151.8810 O   0  0  0  0  0  0  0  0  0  0  0  0
  158.6930  213.7810  146.6830 C   0  0  0  0  0  0  0  0  0  0  0  0
  160.7540  207.5810  152.9540 C   0  0  2  0  0  3  0  0  0  0  0  0
  159.8380  212.1090  153.8040 C   0  0  0  0  0  3  0  0  0  0  0  0
  160.9590  210.8210  151.9950 C   0  0  2  0  0  3  0  0  0  0  0  0
  160.1970  212.0300  152.4530 C   0  0  0  0  0  0  0  0  0  0  0  0
  160.2520  213.0500  150.1180 C   0  0  2  0  0  3  0  0  0  0  0  0
  159.5780  213.8320  145.7420 N   0  0  0  0  0  0  0  0  0  0  0  0
  162.2550  206.1130  151.5080 C   0  0  0  0  0  2  0  0  0  0  0  0
  160.8350  208.5080  151.7300 C   0  0  2  0  0  3  0  0  0  0  0  0
  160.7010  213.0640  146.1610 C   0  0  0  0  0  3  0  0  0  0  0  0
  162.8080  207.3080  150.7090 C   0  0  0  0  0  2  0  0  0  0  0  0
  159.0840  214.1510  152.0580 C   0  0  0  0  0  3  0  0  0  0  0  0
  159.7950  213.0480  151.5590 C   0  0  0  0  0  0  0  0  0  0  0  0
  159.1920  213.6450  149.1550 C   0  0  0  0  0  2  0  0  0  0  0  0
  162.3310  209.7340  150.1490 C   0  0  0  0  0  2  0  0  0  0  0  0
  162.9710  212.7940  148.3250 Cl  0  0  0  0  0  0  0  0  0  0  0  0
  157.3700  214.4530  146.5700 C   0  0  0  0  0  1  0  0  0  0  0  0
  160.8170  211.6930  149.6360 C   0  0  2  0  0  3  0  0  0  0  0  0
  159.0960  212.9010  147.8160 C   0  0  2  0  0  3  0  0  0  0  0  0
  160.8400  208.3230  154.1380 O   0  0  0  0  0  0  0  0  0  0  0  0
  160.2220  207.5640  155.0790 N   0  0  0  0  0  2  0  0  0  0  0  0
  160.7100  207.4880  156.4180 C   0  0  0  0  0  0  0  0  0  0  0  0
  160.1130  206.7700  157.2600 O   0  0  0  0  0  0  0  0  0  0  0  0
  161.8660  208.2210  156.8100 N   0  0  0  0  0  1  0  0  0  0  0  0
  1 10  1  0  0  0  0
  2 23  1  6  0  0  0
  2 12  1  0  0  0  0
  4  3  2  0  0  0  0
  5 24  1  1  0  0  0
  5 26  1  0  0  0  0
  6 27  1  0  0  0  0
  6  5  1  0  0  0  0
  7 23  1  6  0  0  0
  7 17  1  0  0  0  0
  9 27  1  0  0  0  0
 10 28  1  1  0  0  0
 11  3  1  0  0  0  0
 12  8  1  6  0  0  0
 12 13  1  0  0  0  0
 13 11  2  0  0  0  0
 14 22  1  6  0  0  0
 14 21  1  0  0  0  0
 15 18  1  0  0  0  0
 15  9  2  0  0  0  0
 16  1  1  0  0  0  0
 17  8  1  1  0  0  0
 17 10  1  0  0  0  0
 18  6  2  0  0  0  0
 19  7  1  0  0  0  0
 19 16  1  0  0  0  0
 20  4  1  0  0  0  0
 21 20  2  0  0  0  0
 21 13  1  0  0  0  0
 25  9  1  0  0  0  0
 26 14  1  0  0  0  0
 26  2  1  0  0  0  0
 27 22  1  0  0  0  0
 28 29  1  0  0  0  0
 29 30  1  0  0  0  0
 30 32  1  0  0  0  0
 30 31  2  0  0  0  0
M  END
>  <MODEL>
2

>  <REMARK>
 VINA RESULT:      -6.1      3.416      4.821
  Name = 
  2 active torsions:
  status: ('A' for Active; 'I' for Inactive)
    1  A    between atoms: C_10  and  O_20
    2  A    between atoms: O_20  and  N_29
                            x       y       z     vdW  Elec       q    Type
                         _______ _______ _______ _____ _____    ______ ____

>  <TORSDO>
F 2

$$$$
=
 OpenBabel11122412553D

 32 37  0  0  1  0  0  0  0  0999 V2000
  161.5500  204.1700  147.3300 C   0  0  0  0  0  2  0  0  0  0  0  0
  162.1510  208.2100  150.3510 C   0  0  1  0  0  3  0  0  0  0  0  0
  161.1140  205.7340  154.5090 C   0  0  0  0  0  3  0  0  0  0  0  0
  160.8390  206.9350  155.1650 C   0  0  0  0  0  3  0  0  0  0  0  0
  161.5280  210.7090  150.1560 C   0  0  1  0  0  3  0  0  0  0  0  0
  160.5770  211.7160  150.7320 C   0  0  0  0  0  0  0  0  0  0  0  0
  162.1250  206.7040  148.3300 C   0  0  1  0  0  3  0  0  0  0  0  0
  160.5270  206.3880  150.2530 O   0  0  0  0  0  0  0  0  0  0  0  0
  159.1140  212.7090  152.1480 C   0  0  0  0  0  0  0  0  0  0  0  0
  160.8160  204.5380  148.6340 C   0  0  2  0  0  3  0  0  0  0  0  0
  161.3900  205.7340  153.1410 C   0  0  0  0  0  3  0  0  0  0  0  0
  161.6650  206.8650  150.9410 C   0  0  2  0  0  3  0  0  0  0  0  0
  161.3890  206.9310  152.4160 C   0  0  0  0  0  0  0  0  0  0  0  0
  161.1730  209.4700  152.3430 C   0  0  2  0  0  3  0  0  0  0  0  0
  159.7350  213.6490  151.5140 N   0  0  0  0  0  0  0  0  0  0  0  0
  161.4820  205.3000  146.2940 C   0  0  0  0  0  2  0  0  0  0  0  0
  160.8590  206.0500  148.9110 C   0  0  2  0  0  3  0  0  0  0  0  0
  160.6730  213.0330  150.6370 C   0  0  0  0  0  3  0  0  0  0  0  0
  162.1360  206.5980  146.8040 C   0  0  0  0  0  2  0  0  0  0  0  0
  160.8330  208.1340  154.4500 C   0  0  0  0  0  3  0  0  0  0  0  0
  161.0820  208.1470  153.0680 C   0  0  0  0  0  0  0  0  0  0  0  0
  160.1200  210.4970  152.8360 C   0  0  0  0  0  2  0  0  0  0  0  0
  162.2200  208.1420  148.8140 C   0  0  0  0  0  2  0  0  0  0  0  0
  163.2230  211.1960  150.4750 Cl  0  0  0  0  0  0  0  0  0  0  0  0
  158.0360  212.9910  153.1340 C   0  0  0  0  0  1  0  0  0  0  0  0
  161.2190  209.3410  150.8020 C   0  0  2  0  0  3  0  0  0  0  0  0
  159.5160  211.3440  151.7080 C   0  0  2  0  0  3  0  0  0  0  0  0
  161.3740  203.8270  149.7030 O   0  0  0  0  0  0  0  0  0  0  0  0
  160.4080  202.9590  150.0950 N   0  0  0  0  0  2  0  0  0  0  0  0
  160.4210  201.5900  149.6890 C   0  0  0  0  0  0  0  0  0  0  0  0
  159.5050  200.8170  150.0700 O   0  0  0  0  0  0  0  0  0  0  0  0
  161.4640  201.0920  148.8590 N   0  0  0  0  0  1  0  0  0  0  0  0
  1 10  1  0  0  0  0
  2 23  1  6  0  0  0
  2 26  1  0  0  0  0
  2 12  1  0  0  0  0
  3  4  1  0  0  0  0
  5 24  1  1  0  0  0
  5  6  1  0  0  0  0
  5 26  1  0  0  0  0
  6 27  1  0  0  0  0
  7 19  1  6  0  0  0
  7 23  1  0  0  0  0
  7 17  1  0  0  0  0
  9 25  1  0  0  0  0
 10 17  1  0  0  0  0
 10 28  1  1  0  0  0
 11  3  2  0  0  0  0
 12  8  1  6  0  0  0
 12 13  1  0  0  0  0
 13 21  2  0  0  0  0
 13 11  1  0  0  0  0
 14 22  1  6  0  0  0
 14 21  1  0  0  0  0
 15  9  2  0  0  0  0
 16 19  1  0  0  0  0
 16  1  1  0  0  0  0
 17  8  1  1  0  0  0
 18  6  2  0  0  0  0
 18 15  1  0  0  0  0
 20  4  2  0  0  0  0
 21 20  1  0  0  0  0
 26 14  1  0  0  0  0
 27  9  1  0  0  0  0
 27 22  1  0  0  0  0
 28 29  1  0  0  0  0
 30 31  2  0  0  0  0
 30 29  1  0  0  0  0
 32 30  1  0  0  0  0
M  END
>  <MODEL>
3

>  <REMARK>
 VINA RESULT:      -6.0      1.253      1.626
  Name = 
  2 active torsions:
  status: ('A' for Active; 'I' for Inactive)
    1  A    between atoms: C_10  and  O_20
    2  A    between atoms: O_20  and  N_29
                            x       y       z     vdW  Elec       q    Type
                         _______ _______ _______ _____ _____    ______ ____

>  <TORSDO>
F 2

$$$$
=
 OpenBabel11122412553D

 32 37  0  0  1  0  0  0  0  0999 V2000
  158.7740  211.7900  155.5960 C   0  0  0  0  0  2  0  0  0  0  0  0
  161.6000  208.4950  152.9580 C   0  0  1  0  0  3  0  0  0  0  0  0
  162.0460  211.4500  149.0120 C   0  0  0  0  0  3  0  0  0  0  0  0
  162.3860  210.3530  148.2190 C   0  0  0  0  0  3  0  0  0  0  0  0
  161.5500  205.9330  152.6430 C   0  0  1  0  0  3  0  0  0  0  0  0
  161.2280  204.8970  151.6060 C   0  0  0  0  0  0  0  0  0  0  0  0
  160.3080  209.6010  154.8170 C   0  0  1  0  0  3  0  0  0  0  0  0
  159.7430  209.9760  152.3890 O   0  0  0  0  0  0  0  0  0  0  0  0
  160.8490  203.9360  149.5900 C   0  0  0  0  0  0  0  0  0  0  0  0
  158.8250  211.5380  154.0770 C   0  0  2  0  0  3  0  0  0  0  0  0
  161.6560  211.2580  150.3380 C   0  0  0  0  0  3  0  0  0  0  0  0
  161.1450  209.8230  152.3060 C   0  0  2  0  0  3  0  0  0  0  0  0
  161.5980  209.9690  150.8820 C   0  0  0  0  0  0  0  0  0  0  0  0
  161.9620  207.4570  150.6550 C   0  0  2  0  0  3  0  0  0  0  0  0
  161.3080  203.0170  150.3750 N   0  0  0  0  0  0  0  0  0  0  0  0
  158.5000  210.5020  156.3830 C   0  0  0  0  0  2  0  0  0  0  0  0
  159.3360  210.1260  153.7450 C   0  0  2  0  0  3  0  0  0  0  0  0
  161.5700  203.6180  151.6390 C   0  0  0  0  0  3  0  0  0  0  0  0
  159.5930  209.4400  156.1600 C   0  0  0  0  0  2  0  0  0  0  0  0
  162.3290  209.0640  148.7520 C   0  0  0  0  0  3  0  0  0  0  0  0
  161.9120  208.8510  150.0760 C   0  0  0  0  0  0  0  0  0  0  0  0
  161.5190  206.3700  149.6400 C   0  0  0  0  0  2  0  0  0  0  0  0
  160.9400  208.3050  154.3360 C   0  0  0  0  0  2  0  0  0  0  0  0
  163.2640  205.7980  153.1500 Cl  0  0  0  0  0  0  0  0  0  0  0  0
  160.4390  203.6550  148.1880 C   0  0  0  0  0  1  0  0  0  0  0  0
  161.2660  207.3220  152.0300 C   0  0  2  0  0  3  0  0  0  0  0  0
  160.6780  205.2510  150.2690 C   0  0  2  0  0  3  0  0  0  0  0  0
  159.6310  212.5070  153.4670 O   0  0  0  0  0  0  0  0  0  0  0  0
  159.0000  212.8150  152.3060 N   0  0  0  0  0  2  0  0  0  0  0  0
  157.9460  213.7770  152.2570 C   0  0  0  0  0  0  0  0  0  0  0  0
  157.3840  214.0310  151.1610 O   0  0  0  0  0  0  0  0  0  0  0  0
  157.5300  214.4530  153.4380 N   0  0  0  0  0  1  0  0  0  0  0  0
  1 16  1  0  0  0  0
  2 23  1  1  0  0  0
  3 11  1  0  0  0  0
  4 20  1  0  0  0  0
  4  3  2  0  0  0  0
  5 24  1  6  0  0  0
  6 18  2  0  0  0  0
  6  5  1  0  0  0  0
  7 23  1  6  0  0  0
  7 19  1  0  0  0  0
  9 27  1  0  0  0  0
  9 15  2  0  0  0  0
 10 28  1  6  0  0  0
 10  1  1  0  0  0  0
 11 13  2  0  0  0  0
 12 13  1  6  0  0  0
 12  8  1  0  0  0  0
 12  2  1  0  0  0  0
 14 22  1  6  0  0  0
 14 26  1  0  0  0  0
 15 18  1  0  0  0  0
 17  8  1  6  0  0  0
 17 10  1  0  0  0  0
 17  7  1  0  0  0  0
 19 16  1  0  0  0  0
 20 21  2  0  0  0  0
 21 14  1  0  0  0  0
 21 13  1  0  0  0  0
 22 27  1  0  0  0  0
 25  9  1  0  0  0  0
 26  5  1  0  0  0  0
 26  2  1  0  0  0  0
 27  6  1  0  0  0  0
 29 28  1  0  0  0  0
 30 29  1  0  0  0  0
 30 32  1  0  0  0  0
 31 30  2  0  0  0  0
M  END
>  <MODEL>
4

>  <REMARK>
 VINA RESULT:      -5.6      3.031      8.297
  Name = 
  2 active torsions:
  status: ('A' for Active; 'I' for Inactive)
    1  A    between atoms: C_10  and  O_20
    2  A    between atoms: O_20  and  N_29
                            x       y       z     vdW  Elec       q    Type
                         _______ _______ _______ _____ _____    ______ ____

>  <TORSDO>
F 2

$$$$
=
 OpenBabel11122412553D

 32 37  0  0  1  0  0  0  0  0999 V2000
  159.1160  210.9790  155.9680 C   0  0  0  0  0  2  0  0  0  0  0  0
  161.7830  208.4260  152.4780 C   0  0  1  0  0  3  0  0  0  0  0  0
  161.9880  212.2190  149.3040 C   0  0  0  0  0  3  0  0  0  0  0  0
  162.2810  211.3400  148.2610 C   0  0  0  0  0  3  0  0  0  0  0  0
  161.7170  206.0050  151.5820 C   0  0  1  0  0  3  0  0  0  0  0  0
  161.3350  205.2320  150.3540 C   0  0  0  0  0  0  0  0  0  0  0  0
  160.6030  209.0530  154.6150 C   0  0  1  0  0  3  0  0  0  0  0  0
  159.8930  209.9700  152.3770 O   0  0  0  0  0  0  0  0  0  0  0  0
  160.8370  204.7580  148.1960 C   0  0  0  0  0  0  0  0  0  0  0  0
  159.0770  211.0860  154.4310 C   0  0  2  0  0  3  0  0  0  0  0  0
  161.6780  211.7200  150.5710 C   0  0  0  0  0  3  0  0  0  0  0  0
  161.2880  209.8610  152.1790 C   0  0  2  0  0  3  0  0  0  0  0  0
  161.6550  210.3400  150.8040 C   0  0  0  0  0  0  0  0  0  0  0  0
  162.0080  207.9540  149.9800 C   0  0  2  0  0  3  0  0  0  0  0  0
  161.3430  203.6890  148.7190 N   0  0  0  0  0  0  0  0  0  0  0  0
  158.8920  209.5400  156.4490 C   0  0  0  0  0  2  0  0  0  0  0  0
  159.5680  209.7970  153.7520 C   0  0  2  0  0  3  0  0  0  0  0  0
  161.6790  203.9860  150.0700 C   0  0  0  0  0  3  0  0  0  0  0  0
  159.9710  208.5750  155.9230 C   0  0  0  0  0  2  0  0  0  0  0  0
  162.2570  209.9620  148.4830 C   0  0  0  0  0  3  0  0  0  0  0  0
  161.9210  209.4430  149.7440 C   0  0  0  0  0  0  0  0  0  0  0  0
  161.5060  207.1250  148.7690 C   0  0  0  0  0  2  0  0  0  0  0  0
  161.2070  207.9130  153.8110 C   0  0  0  0  0  2  0  0  0  0  0  0
  163.4590  205.7830  151.9430 Cl  0  0  0  0  0  0  0  0  0  0  0  0
  160.3430  204.8020  146.7920 C   0  0  0  0  0  1  0  0  0  0  0  0
  161.3960  207.4940  151.3250 C   0  0  2  0  0  3  0  0  0  0  0  0
  160.7050  205.8780  149.1690 C   0  0  2  0  0  3  0  0  0  0  0  0
  159.8430  212.1820  154.0160 O   0  0  0  0  0  0  0  0  0  0  0  0
  158.9650  213.2110  153.9140 N   0  0  0  0  0  2  0  0  0  0  0  0
  158.2680  213.4840  152.6980 C   0  0  0  0  0  0  0  0  0  0  0  0
  157.4660  214.4500  152.6420 O   0  0  0  0  0  0  0  0  0  0  0  0
  158.4710  212.6680  151.5500 N   0  0  0  0  0  1  0  0  0  0  0  0
  1 16  1  0  0  0  0
  2 23  1  1  0  0  0
  3 11  1  0  0  0  0
  4 20  1  0  0  0  0
  4  3  2  0  0  0  0
  5 24  1  6  0  0  0
  6  5  1  0  0  0  0
  7 23  1  6  0  0  0
  7 19  1  0  0  0  0
  9 15  2  0  0  0  0
  9 27  1  0  0  0  0
 10 28  1  1  0  0  0
 10  1  1  0  0  0  0
 11 13  2  0  0  0  0
 12 13  1  6  0  0  0
 12  8  1  0  0  0  0
 12  2  1  0  0  0  0
 14 22  1  6  0  0  0
 14 26  1  0  0  0  0
 15 18  1  0  0  0  0
 17  8  1  6  0  0  0
 17 10  1  0  0  0  0
 17  7  1  0  0  0  0
 18  6  2  0  0  0  0
 19 16  1  0  0  0  0
 20 21  2  0  0  0  0
 21 14  1  0  0  0  0
 21 13  1  0  0  0  0
 22 27  1  0  0  0  0
 25  9  1  0  0  0  0
 26  5  1  0  0  0  0
 26  2  1  0  0  0  0
 27  6  1  0  0  0  0
 29 28  1  0  0  0  0
 30 29  1  0  0  0  0
 31 30  2  0  0  0  0
 32 30  1  0  0  0  0
M  END
>  <MODEL>
5

>  <REMARK>
 VINA RESULT:      -5.2      2.942      7.998
  Name = 
  2 active torsions:
  status: ('A' for Active; 'I' for Inactive)
    1  A    between atoms: C_10  and  O_20
    2  A    between atoms: O_20  and  N_29
                            x       y       z     vdW  Elec       q    Type
                         _______ _______ _______ _____ _____    ______ ____

>  <TORSDO>
F 2

$$$$
=
 OpenBabel11122412553D

 32 37  0  0  1  0  0  0  0  0999 V2000
  160.0890  209.5730  155.7520 C   0  0  0  0  0  2  0  0  0  0  0  0
  162.0220  206.2280  152.4540 C   0  0  1  0  0  3  0  0  0  0  0  0
  162.2950  209.4770  148.7310 C   0  0  0  0  0  3  0  0  0  0  0  0
  162.3620  208.4300  147.8110 C   0  0  0  0  0  3  0  0  0  0  0  0
  161.5740  203.7350  151.9510 C   0  0  1  0  0  3  0  0  0  0  0  0
  160.9650  202.8540  150.8990 C   0  0  0  0  0  0  0  0  0  0  0  0
  161.1770  207.2970  154.5730 C   0  0  1  0  0  3  0  0  0  0  0  0
  160.3240  207.9770  152.3010 O   0  0  0  0  0  0  0  0  0  0  0  0
  160.1690  202.1510  148.8990 C   0  0  0  0  0  0  0  0  0  0  0  0
  159.8850  209.4670  154.2280 C   0  0  2  0  0  3  0  0  0  0  0  0
  162.0790  209.2060  150.0820 C   0  0  0  0  0  3  0  0  0  0  0  0
  161.6650  207.6590  151.9870 C   0  0  2  0  0  3  0  0  0  0  0  0
  161.9230  207.8870  150.5260 C   0  0  0  0  0  0  0  0  0  0  0  0
  161.9000  205.3840  150.0480 C   0  0  2  0  0  3  0  0  0  0  0  0
  160.6060  201.1090  149.5280 N   0  0  0  0  0  0  0  0  0  0  0  0
  159.7570  208.2580  156.4690 C   0  0  0  0  0  2  0  0  0  0  0  0
  160.1420  208.0420  153.7110 C   0  0  2  0  0  3  0  0  0  0  0  0
  161.1280  201.5460  150.7780 C   0  0  0  0  0  3  0  0  0  0  0  0
  160.6500  207.0950  155.9950 C   0  0  0  0  0  2  0  0  0  0  0  0
  162.2060  207.1120  148.2430 C   0  0  0  0  0  3  0  0  0  0  0  0
  161.9600  206.8240  149.5950 C   0  0  0  0  0  0  0  0  0  0  0  0
  161.1690  204.4660  149.0330 C   0  0  0  0  0  2  0  0  0  0  0  0
  161.5490  205.9860  153.8990 C   0  0  0  0  0  2  0  0  0  0  0  0
  163.3080  203.3380  152.1710 Cl  0  0  0  0  0  0  0  0  0  0  0  0
  159.5260  202.0620  147.5600 C   0  0  0  0  0  1  0  0  0  0  0  0
  161.3990  205.2020  151.5010 C   0  0  2  0  0  3  0  0  0  0  0  0
  160.2820  203.4040  149.6970 C   0  0  2  0  0  3  0  0  0  0  0  0
  160.7200  210.3840  153.5780 O   0  0  0  0  0  0  0  0  0  0  0  0
  160.3700  211.5970  154.0740 N   0  0  0  0  0  2  0  0  0  0  0  0
  159.4350  212.4410  153.4010 C   0  0  0  0  0  0  0  0  0  0  0  0
  159.1400  213.5610  153.8900 O   0  0  0  0  0  0  0  0  0  0  0  0
  158.8310  212.0220  152.1810 N   0  0  0  0  0  1  0  0  0  0  0  0
  1 16  1  0  0  0  0
  2 23  1  1  0  0  0
  3 11  1  0  0  0  0
  4 20  1  0  0  0  0
  4  3  2  0  0  0  0
  5 24  1  6  0  0  0
  6  5  1  0  0  0  0
  7 23  1  6  0  0  0
  7 19  1  0  0  0  0
  9 15  2  0  0  0  0
  9 27  1  0  0  0  0
 10 28  1  6  0  0  0
 10  1  1  0  0  0  0
 11 13  2  0  0  0  0
 12 13  1  6  0  0  0
 12  8  1  0  0  0  0
 12  2  1  0  0  0  0
 14 22  1  6  0  0  0
 14 26  1  0  0  0  0
 15 18  1  0  0  0  0
 17  8  1  6  0  0  0
 17 10  1  0  0  0  0
 17  7  1  0  0  0  0
 18  6  2  0  0  0  0
 19 16  1  0  0  0  0
 20 21  2  0  0  0  0
 21 14  1  0  0  0  0
 21 13  1  0  0  0  0
 22 27  1  0  0  0  0
 25  9  1  0  0  0  0
 26  5  1  0  0  0  0
 26  2  1  0  0  0  0
 27  6  1  0  0  0  0
 28 29  1  0  0  0  0
 30 31  2  0  0  0  0
 30 29  1  0  0  0  0
 32 30  1  0  0  0  0
M  END
>  <MODEL>
6

>  <REMARK>
 VINA RESULT:      -4.7      3.022      8.373
  Name = 
  2 active torsions:
  status: ('A' for Active; 'I' for Inactive)
    1  A    between atoms: C_10  and  O_20
    2  A    between atoms: O_20  and  N_29
                            x       y       z     vdW  Elec       q    Type
                         _______ _______ _______ _____ _____    ______ ____

>  <TORSDO>
F 2

$$$$
=
 OpenBabel11122412553D

 32 37  0  0  1  0  0  0  0  0999 V2000
  161.3220  213.4100  147.3970 C   0  0  0  0  0  2  0  0  0  0  0  0
  161.3290  213.3940  142.3170 C   0  0  1  0  0  3  0  0  0  0  0  0
  156.5100  214.4530  141.9260 C   0  0  0  0  0  3  0  0  0  0  0  0
  156.5030  213.9750  140.6150 C   0  0  0  0  0  3  0  0  0  0  0  0
  162.4690  211.9250  140.5260 C   0  0  1  0  0  3  0  0  0  0  0  0
  162.1400  210.8830  139.4970 C   0  0  0  0  0  0  0  0  0  0  0  0
  162.0850  213.3330  144.7200 C   0  0  1  0  0  3  0  0  0  0  0  0
  159.8000  212.5330  144.0160 O   0  0  0  0  0  0  0  0  0  0  0  0
  160.9530  209.6180  138.0410 C   0  0  0  0  0  0  0  0  0  0  0  0
  160.2130  212.9830  146.4150 C   0  0  2  0  0  3  0  0  0  0  0  0
  157.6580  214.3250  142.7090 C   0  0  0  0  0  3  0  0  0  0  0  0
  160.0020  213.5810  143.0900 C   0  0  2  0  0  3  0  0  0  0  0  0
  158.8070  213.7150  142.1920 C   0  0  0  0  0  0  0  0  0  0  0  0
  160.0470  212.6310  140.2460 C   0  0  2  0  0  3  0  0  0  0  0  0
  162.1670  209.6790  137.5980 N   0  0  0  0  0  0  0  0  0  0  0  0
  162.6420  212.6770  147.1260 C   0  0  0  0  0  2  0  0  0  0  0  0
  160.7830  212.5790  145.0450 C   0  0  2  0  0  3  0  0  0  0  0  0
  162.9140  210.4920  138.4970 C   0  0  0  0  0  3  0  0  0  0  0  0
  163.1870  212.9600  145.7140 C   0  0  0  0  0  2  0  0  0  0  0  0
  157.6430  213.3620  140.0900 C   0  0  0  0  0  3  0  0  0  0  0  0
  158.7970  213.2010  140.8740 C   0  0  0  0  0  0  0  0  0  0  0  0
  159.7470  211.4680  139.2640 C   0  0  0  0  0  2  0  0  0  0  0  0
  162.4830  213.0570  143.2790 C   0  0  0  0  0  2  0  0  0  0  0  0
  163.1900  213.3680  139.7440 Cl  0  0  0  0  0  0  0  0  0  0  0  0
  159.8960  208.8230  137.3590 C   0  0  0  0  0  1  0  0  0  0  0  0
  161.1640  212.2930  141.2630 C   0  0  2  0  0  3  0  0  0  0  0  0
  160.7690  210.3250  139.3380 C   0  0  2  0  0  3  0  0  0  0  0  0
  159.2850  214.0210  146.2750 O   0  0  0  0  0  0  0  0  0  0  0  0
  158.5550  214.0020  147.4180 N   0  0  0  0  0  2  0  0  0  0  0  0
  157.1350  213.8470  147.3980 C   0  0  0  0  0  0  0  0  0  0  0  0
  156.4930  213.8390  148.4780 O   0  0  0  0  0  0  0  0  0  0  0  0
  156.4420  213.6970  146.1630 N   0  0  0  0  0  1  0  0  0  0  0  0
  2 12  1  0  0  0  0
  2 23  1  1  0  0  0
  3 11  1  0  0  0  0
  4  3  2  0  0  0  0
  5 24  1  6  0  0  0
  5 26  1  0  0  0  0
  6  5  1  0  0  0  0
  7 23  1  6  0  0  0
  7 17  1  0  0  0  0
  7 19  1  0  0  0  0
  9 27  1  0  0  0  0
 10 28  1  6  0  0  0
 10  1  1  0  0  0  0
 12 13  1  6  0  0  0
 12  8  1  0  0  0  0
 13 11  2  0  0  0  0
 14 22  1  1  0  0  0
 14 21  1  0  0  0  0
 14 26  1  0  0  0  0
 15  9  2  0  0  0  0
 15 18  1  0  0  0  0
 16  1  1  0  0  0  0
 17  8  1  6  0  0  0
 17 10  1  0  0  0  0
 18  6  2  0  0  0  0
 19 16  1  0  0  0  0
 20  4  1  0  0  0  0
 20 21  2  0  0  0  0
 21 13  1  0  0  0  0
 22 27  1  0  0  0  0
 25  9  1  0  0  0  0
 26  2  1  0  0  0  0
 27  6  1  0  0  0  0
 28 29  1  0  0  0  0
 30 29  1  0  0  0  0
 30 31  2  0  0  0  0
 32 30  1  0  0  0  0
M  END
>  <MODEL>
7

>  <REMARK>
 VINA RESULT:      -4.7      7.331     11.038
  Name = 
  2 active torsions:
  status: ('A' for Active; 'I' for Inactive)
    1  A    between atoms: C_10  and  O_20
    2  A    between atoms: O_20  and  N_29
                            x       y       z     vdW  Elec       q    Type
                         _______ _______ _______ _____ _____    ______ ____

>  <TORSDO>
F 2

$$$$
=
 OpenBabel11122412553D

 32 37  0  0  1  0  0  0  0  0999 V2000
  162.5800  207.7930  149.2640 C   0  0  0  0  0  2  0  0  0  0  0  0
  160.9110  210.4410  153.2650 C   0  0  1  0  0  3  0  0  0  0  0  0
  161.1530  206.6080  156.3870 C   0  0  0  0  0  3  0  0  0  0  0  0
  160.2760  207.2530  157.2600 C   0  0  0  0  0  3  0  0  0  0  0  0
  159.0980  212.2510  153.5940 C   0  0  1  0  0  3  0  0  0  0  0  0
  157.7440  212.4390  154.2140 C   0  0  0  0  0  0  0  0  0  0  0  0
  161.7340  209.8310  150.9630 C   0  0  1  0  0  3  0  0  0  0  0  0
  160.4600  208.2010  152.4030 O   0  0  0  0  0  0  0  0  0  0  0  0
  155.9320  212.1060  155.5300 C   0  0  0  0  0  0  0  0  0  0  0  0
  161.7170  207.3330  150.4550 C   0  0  2  0  0  3  0  0  0  0  0  0
  161.4360  207.1700  155.1410 C   0  0  0  0  0  3  0  0  0  0  0  0
  161.1660  208.9200  153.3930 C   0  0  2  0  0  3  0  0  0  0  0  0
  160.8440  208.3780  154.7560 C   0  0  0  0  0  0  0  0  0  0  0  0
  159.3560  210.3780  155.2880 C   0  0  2  0  0  3  0  0  0  0  0  0
  156.0020  213.3730  155.2840 N   0  0  0  0  0  0  0  0  0  0  0  0
  161.9760  209.0120  148.5540 C   0  0  0  0  0  2  0  0  0  0  0  0
  160.9660  208.5050  151.1080 C   0  0  2  0  0  3  0  0  0  0  0  0
  157.1520  213.5940  154.4750 C   0  0  0  0  0  3  0  0  0  0  0  0
  161.8510  210.2290  149.4910 C   0  0  0  0  0  2  0  0  0  0  0  0
  159.6790  208.4580  156.8840 C   0  0  0  0  0  3  0  0  0  0  0  0
  159.9330  209.0220  155.6240 C   0  0  0  0  0  0  0  0  0  0  0  0
  157.9080  210.5590  155.8150 C   0  0  0  0  0  2  0  0  0  0  0  0
  161.0580  210.9020  151.8030 C   0  0  0  0  0  2  0  0  0  0  0  0
  160.2880  213.3620  154.3430 Cl  0  0  0  0  0  0  0  0  0  0  0  0
  154.8290  211.5090  156.3320 C   0  0  0  0  0  1  0  0  0  0  0  0
  159.5150  210.7790  153.8020 C   0  0  2  0  0  3  0  0  0  0  0  0
  156.9940  211.3180  154.8430 C   0  0  2  0  0  3  0  0  0  0  0  0
  162.5240  206.6810  151.3950 O   0  0  0  0  0  0  0  0  0  0  0  0
  162.4150  205.3610  151.1040 N   0  0  0  0  0  2  0  0  0  0  0  0
  161.6690  204.4700  151.9340 C   0  0  0  0  0  0  0  0  0  0  0  0
  161.5950  203.2510  151.6330 O   0  0  0  0  0  0  0  0  0  0  0  0
  161.0070  204.9500  153.0990 N   0  0  0  0  0  1  0  0  0  0  0  0
  1 10  1  0  0  0  0
  2 23  1  6  0  0  0
  2 12  1  0  0  0  0
  2 26  1  0  0  0  0
  3  4  1  0  0  0  0
  5 26  1  0  0  0  0
  5  6  1  0  0  0  0
  5 24  1  1  0  0  0
  6 18  2  0  0  0  0
  6 27  1  0  0  0  0
  7 19  1  6  0  0  0
  7 17  1  0  0  0  0
  7 23  1  0  0  0  0
  9 25  1  0  0  0  0
 10 17  1  0  0  0  0
 10 28  1  1  0  0  0
 11  3  2  0  0  0  0
 12  8  1  6  0  0  0
 12 13  1  0  0  0  0
 13 11  1  0  0  0  0
 13 21  2  0  0  0  0
 14 21  1  0  0  0  0
 14 22  1  6  0  0  0
 15  9  2  0  0  0  0
 16  1  1  0  0  0  0
 16 19  1  0  0  0  0
 17  8  1  1  0  0  0
 18 15  1  0  0  0  0
 20  4  2  0  0  0  0
 21 20  1  0  0  0  0
 26 14  1  0  0  0  0
 27  9  1  0  0  0  0
 27 22  1  0  0  0  0
 29 28  1  0  0  0  0
 29 30  1  0  0  0  0
 30 32  1  0  0  0  0
 31 30  2  0  0  0  0
M  END
>  <MODEL>
8

>  <REMARK>
 VINA RESULT:      -4.6      3.347      4.751
  Name = 
  2 active torsions:
  status: ('A' for Active; 'I' for Inactive)
    1  A    between atoms: C_10  and  O_20
    2  A    between atoms: O_20  and  N_29
                            x       y       z     vdW  Elec       q    Type
                         _______ _______ _______ _____ _____    ______ ____

>  <TORSDO>
F 2

$$$$
=
 OpenBabel11122412553D

 32 37  0  0  1  0  0  0  0  0999 V2000
  161.3120  202.8170  150.0360 C   0  0  0  0  0  2  0  0  0  0  0  0
  160.4560  207.1920  152.4720 C   0  0  1  0  0  3  0  0  0  0  0  0
  161.9590  210.0270  148.7030 C   0  0  0  0  0  3  0  0  0  0  0  0
  162.1430  211.1020  149.5750 C   0  0  0  0  0  3  0  0  0  0  0  0
  160.8060  207.9950  154.9010 C   0  0  1  0  0  3  0  0  0  0  0  0
  161.6770  208.9160  155.7060 C   0  0  0  0  0  0  0  0  0  0  0  0
  160.5310  204.7410  151.8910 C   0  0  1  0  0  3  0  0  0  0  0  0
  162.2520  206.3710  151.0350 O   0  0  0  0  0  0  0  0  0  0  0  0
  163.1000  210.5980  156.2260 C   0  0  0  0  0  0  0  0  0  0  0  0
  162.0720  204.1550  149.9460 C   0  0  2  0  0  3  0  0  0  0  0  0
  161.6140  208.7720  149.2070 C   0  0  0  0  0  3  0  0  0  0  0  0
  161.1090  207.2000  151.0690 C   0  0  2  0  0  3  0  0  0  0  0  0
  161.4530  208.5790  150.5840 C   0  0  0  0  0  0  0  0  0  0  0  0
  161.4010  209.5130  152.9550 C   0  0  2  0  0  3  0  0  0  0  0  0
  162.3530  210.3910  157.2610 N   0  0  0  0  0  0  0  0  0  0  0  0
  161.2090  202.3110  151.4810 C   0  0  0  0  0  2  0  0  0  0  0  0
  161.8870  205.0070  151.2130 C   0  0  2  0  0  3  0  0  0  0  0  0
  161.4400  209.3490  156.9340 C   0  0  0  0  0  3  0  0  0  0  0  0
  160.4520  203.2970  152.3900 C   0  0  0  0  0  2  0  0  0  0  0  0
  161.9870  210.9180  150.9500 C   0  0  0  0  0  3  0  0  0  0  0  0
  161.6660  209.6560  151.4740 C   0  0  0  0  0  0  0  0  0  0  0  0
  162.3670  210.3640  153.8210 C   0  0  0  0  0  2  0  0  0  0  0  0
  160.3140  205.7540  153.0040 C   0  0  0  0  0  2  0  0  0  0  0  0
  159.0880  208.4940  155.0250 Cl  0  0  0  0  0  0  0  0  0  0  0  0
  164.1940  211.6080  156.2220 C   0  0  0  0  0  1  0  0  0  0  0  0
  161.2880  208.0460  153.4350 C   0  0  2  0  0  3  0  0  0  0  0  0
  162.8200  209.6570  155.1060 C   0  0  2  0  0  3  0  0  0  0  0  0
  161.6470  204.8600  148.8140 O   0  0  0  0  0  0  0  0  0  0  0  0
  161.5570  203.9310  147.8290 N   0  0  0  0  0  2  0  0  0  0  0  0
  161.7070  204.2810  146.4530 C   0  0  0  0  0  0  0  0  0  0  0  0
  161.6120  203.3920  145.5690 O   0  0  0  0  0  0  0  0  0  0  0  0
  161.9670  205.6280  146.0740 N   0  0  0  0  0  1  0  0  0  0  0  0
  1 16  1  0  0  0  0
  2 23  1  1  0  0  0
  2 26  1  0  0  0  0
  3 11  2  0  0  0  0
  3  4  1  0  0  0  0
  4 20  2  0  0  0  0
  5 24  1  6  0  0  0
  5  6  1  0  0  0  0
  6 18  2  0  0  0  0
  7 19  1  1  0  0  0
  7 23  1  0  0  0  0
  8 12  1  0  0  0  0
  9 15  2  0  0  0  0
 10 28  1  6  0  0  0
 10  1  1  0  0  0  0
 10 17  1  0  0  0  0
 11 13  1  0  0  0  0
 12 13  1  1  0  0  0
 12  2  1  0  0  0  0
 13 21  2  0  0  0  0
 14 26  1  0  0  0  0
 14 22  1  1  0  0  0
 16 19  1  0  0  0  0
 17  8  1  6  0  0  0
 17  7  1  0  0  0  0
 18 15  1  0  0  0  0
 20 21  1  0  0  0  0
 21 14  1  0  0  0  0
 22 27  1  0  0  0  0
 25  9  1  0  0  0  0
 26  5  1  0  0  0  0
 27  6  1  0  0  0  0
 27  9  1  0  0  0  0
 29 28  1  0  0  0  0
 30 29  1  0  0  0  0
 31 30  2  0  0  0  0
 32 30  1  0  0  0  0
M  END
>  <MODEL>
9

>  <REMARK>
 VINA RESULT:      -3.7      2.995      5.374
  Name = 
  2 active torsions:
  status: ('A' for Active; 'I' for Inactive)
    1  A    between atoms: C_10  and  O_20
    2  A    between atoms: O_20  and  N_29
                            x       y       z     vdW  Elec       q    Type
                         _______ _______ _______ _____ _____    ______ ____

>  <TORSDO>
F 2

$$$$
