=
 OpenBabel11122414113D

 28 32  0  0  1  0  0  0  0  0999 V2000
  160.9490  208.6240  155.2400 C   0  0  0  0  0  0  0  0  0  0  0  0
  157.9460  211.1560  154.3140 O   0  0  0  0  0  0  0  0  0  0  0  0
  161.8000  208.4150  149.0930 N   0  0  0  0  0  1  0  0  0  0  0  0
  162.7650  210.3780  156.4490 C   0  0  0  0  0  3  0  0  0  0  0  0
  161.9300  210.6300  150.2110 C   0  0  0  0  0  0  0  0  0  0  0  0
  160.0820  207.7270  154.6200 O   0  0  0  0  0  0  0  0  0  0  0  0
  158.9770  213.2920  154.9500 O   0  0  0  0  0  0  0  0  0  0  0  0
  158.7910  212.3040  153.8340 S   0  0  0  0  0  0  0  0  0  0  0  0
  158.4830  212.8260  151.2070 C   0  0  0  0  0  0  0  0  0  0  0  0
  160.3510  211.7480  153.3120 N   0  0  2  0  0  0  0  0  0  0  0  0
  162.5360  206.4260  152.7740 O   0  0  0  0  0  0  0  0  0  0  0  0
  161.3610  209.9520  152.2270 C   0  0  0  0  0  0  0  0  0  0  0  0
  159.6730  212.3550  150.9940 N   0  0  0  0  0  0  0  0  0  0  0  0
  158.0100  213.0770  152.5190 N   0  0  0  0  0  2  0  0  0  0  0  0
  161.3800  206.8090  152.8530 C   0  0  0  0  0  0  0  0  0  0  0  0
  161.1670  209.8910  154.6760 C   0  0  0  0  0  0  0  0  0  0  0  0
  161.8180  209.2490  150.2500 C   0  0  0  0  0  0  0  0  0  0  0  0
  157.5670  213.0290  150.0560 C   0  0  0  0  0  1  0  0  0  0  0  0
  160.7520  207.5580  151.7230 C   0  0  0  0  0  2  0  0  0  0  0  0
  162.0920  210.7580  155.2850 C   0  0  0  0  0  3  0  0  0  0  0  0
  161.6300  208.2440  156.4040 C   0  0  0  0  0  3  0  0  0  0  0  0
  162.5320  209.1210  157.0100 C   0  0  0  0  0  3  0  0  0  0  0  0
  160.5740  206.5110  154.0760 C   0  0  0  0  0  2  0  0  0  0  0  0
  161.6150  211.0540  151.4890 C   0  0  0  0  0  0  0  0  0  0  0  0
  161.4280  208.8300  151.4740 N   0  0  0  0  0  0  0  0  0  0  0  0
  160.7760  212.1860  151.9560 C   0  0  2  0  0  3  0  0  0  0  0  0
  161.9770  211.4740  148.9840 C   0  0  0  0  0  1  0  0  0  0  0  0
  160.4880  210.2790  153.3850 C   0  0  1  0  0  3  0  0  0  0  0  0
  1 21  1  0  0  0  0
  3 17  1  0  0  0  0
  4 22  1  0  0  0  0
  5 17  2  0  0  0  0
  5 24  1  0  0  0  0
  6  1  1  0  0  0  0
  8  2  2  0  0  0  0
  8  7  2  0  0  0  0
  9 14  1  0  0  0  0
 10 28  1  0  0  0  0
 10  8  1  6  0  0  0
 11 15  2  0  0  0  0
 13  9  2  0  0  0  0
 14  8  1  0  0  0  0
 15 23  1  0  0  0  0
 16  1  2  0  0  0  0
 16 20  1  0  0  0  0
 17 25  1  0  0  0  0
 18  9  1  0  0  0  0
 19 15  1  0  0  0  0
 20  4  2  0  0  0  0
 21 22  2  0  0  0  0
 23  6  1  0  0  0  0
 24 26  1  0  0  0  0
 24 12  2  0  0  0  0
 25 19  1  0  0  0  0
 25 12  1  0  0  0  0
 26 13  1  6  0  0  0
 26 10  1  0  0  0  0
 27  5  1  0  0  0  0
 28 12  1  6  0  0  0
 28 16  1  0  0  0  0
M  END
>  <MODEL>
1

>  <REMARK>
 VINA RESULT:      -5.6      0.000      0.000
  Name = 
  0 active torsions:
  status: ('A' for Active; 'I' for Inactive)
                            x       y       z     vdW  Elec       q    Type
                         _______ _______ _______ _____ _____    ______ ____

>  <TORSDO>
F 0

$$$$
=
 OpenBabel11122414113D

 28 32  0  0  1  0  0  0  0  0999 V2000
  161.5110  210.8290  138.6780 C   0  0  0  0  0  0  0  0  0  0  0  0
  161.7010  211.9190  142.5590 O   0  0  0  0  0  0  0  0  0  0  0  0
  155.3900  211.5260  139.4540 N   0  0  0  0  0  1  0  0  0  0  0  0
  162.6320  213.0770  137.4430 C   0  0  0  0  0  3  0  0  0  0  0  0
  156.8520  213.4830  139.9100 C   0  0  0  0  0  0  0  0  0  0  0  0
  160.9250  209.7060  139.2550 O   0  0  0  0  0  0  0  0  0  0  0  0
  162.5020  214.2290  142.3160 O   0  0  0  0  0  0  0  0  0  0  0  0
  161.2830  213.3540  142.3860 S   0  0  0  0  0  0  0  0  0  0  0  0
  158.9170  213.9180  143.5490 C   0  0  0  0  0  0  0  0  0  0  0  0
  160.3610  213.5580  140.9290 N   0  0  2  0  0  0  0  0  0  0  0  0
  158.4100  209.7300  137.0650 O   0  0  0  0  0  0  0  0  0  0  0  0
  158.7790  212.4590  139.6210 C   0  0  0  0  0  0  0  0  0  0  0  0
  158.3830  214.0150  142.3710 N   0  0  0  0  0  0  0  0  0  0  0  0
  160.3210  213.8320  143.7220 N   0  0  0  0  0  2  0  0  0  0  0  0
  158.7910  209.5800  138.2140 C   0  0  0  0  0  0  0  0  0  0  0  0
  161.1620  212.1130  139.1270 C   0  0  0  0  0  0  0  0  0  0  0  0
  156.6540  212.1870  139.4600 C   0  0  0  0  0  0  0  0  0  0  0  0
  158.0340  213.8110  144.7390 C   0  0  0  0  0  1  0  0  0  0  0  0
  157.9720  210.0850  139.3560 C   0  0  0  0  0  2  0  0  0  0  0  0
  161.7210  213.2340  138.4900 C   0  0  0  0  0  3  0  0  0  0  0  0
  162.4210  210.6760  137.6230 C   0  0  0  0  0  3  0  0  0  0  0  0
  162.9840  211.7980  137.0110 C   0  0  0  0  0  3  0  0  0  0  0  0
  160.0750  208.8650  138.4900 C   0  0  0  0  0  2  0  0  0  0  0  0
  158.2230  213.6220  140.0200 C   0  0  0  0  0  0  0  0  0  0  0  0
  157.8330  211.5390  139.3210 N   0  0  0  0  0  0  0  0  0  0  0  0
  159.0530  214.2490  141.0800 C   0  0  2  0  0  3  0  0  0  0  0  0
  155.8200  214.3680  140.5190 C   0  0  0  0  0  1  0  0  0  0  0  0
  160.1290  212.2850  140.2160 C   0  0  1  0  0  3  0  0  0  0  0  0
  1 16  1  0  0  0  0
  1  6  1  0  0  0  0
  3 17  1  0  0  0  0
  4 20  1  0  0  0  0
  5 24  1  0  0  0  0
  5 27  1  0  0  0  0
  7  8  2  0  0  0  0
  8  2  2  0  0  0  0
  8 14  1  0  0  0  0
  9 14  1  0  0  0  0
  9 18  1  0  0  0  0
 10 26  1  0  0  0  0
 10  8  1  1  0  0  0
 11 15  2  0  0  0  0
 12 24  2  0  0  0  0
 12 28  1  0  0  0  0
 13  9  2  0  0  0  0
 15 23  1  0  0  0  0
 15 19  1  0  0  0  0
 17  5  2  0  0  0  0
 20 16  2  0  0  0  0
 21  1  2  0  0  0  0
 22  4  2  0  0  0  0
 22 21  1  0  0  0  0
 23  6  1  0  0  0  0
 25 19  1  0  0  0  0
 25 17  1  0  0  0  0
 25 12  1  0  0  0  0
 26 24  1  6  0  0  0
 26 13  1  0  0  0  0
 28 16  1  6  0  0  0
 28 10  1  0  0  0  0
M  END
>  <MODEL>
2

>  <REMARK>
 VINA RESULT:      -4.5     10.763     13.794
  Name = 
  0 active torsions:
  status: ('A' for Active; 'I' for Inactive)
                            x       y       z     vdW  Elec       q    Type
                         _______ _______ _______ _____ _____    ______ ____

>  <TORSDO>
F 0

$$$$
