=
 OpenBabel11122412393D

 30 35  0  0  1  0  0  0  0  0999 V2000
  161.2640  204.2380  148.2680 C   0  0  0  0  0  0  0  0  0  0  0  0
  161.0070  201.7610  148.5790 C   0  0  0  0  0  0  0  0  0  0  0  0
  161.1250  204.8840  152.3270 N   0  0  0  0  0  0  0  0  0  0  0  0
  161.3500  205.5360  148.8380 C   0  0  0  0  0  0  0  0  0  0  0  0
  161.3280  204.1210  146.8720 O   0  0  0  0  0  0  0  0  0  0  0  0
  159.7980  206.5410  146.3870 O   0  0  0  0  0  1  0  0  0  0  0  0
  161.2560  208.6620  149.3200 C   0  0  1  0  0  3  0  0  0  0  0  0
  161.1880  206.5170  146.5420 C   0  0  2  0  0  3  0  0  0  0  0  0
  161.2390  208.1980  150.7580 C   0  0  2  0  0  3  0  0  0  0  0  0
  161.2050  206.2320  152.2950 C   0  0  0  0  0  0  0  0  0  0  0  0
  161.7600  205.1950  146.0380 C   0  0  2  0  0  3  0  0  0  0  0  0
  161.5210  206.6590  147.9560 N   0  0  0  0  0  0  0  0  0  0  0  0
  160.8740  200.6790  149.4560 C   0  0  0  0  0  3  0  0  0  0  0  0
  162.3440  208.9900  151.4220 C   0  0  0  0  0  2  0  0  0  0  0  0
  161.7440  210.0920  149.4310 C   0  0  0  0  0  2  0  0  0  0  0  0
  161.0190  201.3570  146.8660 Cl  0  0  0  0  0  0  0  0  0  0  0  0
  161.1850  204.5430  151.0300 C   0  0  0  0  0  0  0  0  0  0  0  0
  160.8460  200.8700  150.8350 C   0  0  0  0  0  3  0  0  0  0  0  0
  161.1160  203.0830  149.0940 C   0  0  0  0  0  0  0  0  0  0  0  0
  161.3000  205.6560  150.2400 C   0  0  0  0  0  0  0  0  0  0  0  0
  161.0980  207.0520  153.5380 C   0  0  0  0  0  1  0  0  0  0  0  0
  161.3200  206.7520  151.0410 N   0  0  0  0  0  0  0  0  0  0  0  0
  162.4940  210.2360  150.6790 N   0  0  0  0  0  2  0  0  0  0  0  0
  163.5860  207.6360  148.8770 C   0  0  0  0  0  1  0  0  0  0  0  0
  160.9520  202.1540  151.3600 C   0  0  0  0  0  3  0  0  0  0  0  0
  161.0870  203.2550  150.5080 C   0  0  0  0  0  0  0  0  0  0  0  0
  162.1650  207.8870  148.3720 C   0  0  2  0  0  3  0  0  0  0  0  0
  161.3790  204.9360  144.5880 C   0  0  0  0  0  2  0  0  0  0  0  0
  159.2870  203.9140  144.1120 O   0  0  0  0  0  1  0  0  0  0  0  0
  160.6040  203.6380  144.4760 C   0  0  0  0  0  2  0  0  0  0  0  0
  1  4  2  0  0  0  0
  1 19  1  0  0  0  0
  2 19  2  0  0  0  0
  2 13  1  0  0  0  0
  4 20  1  0  0  0  0
  5  1  1  0  0  0  0
  7 15  1  1  0  0  0
  7  9  1  0  0  0  0
  8  6  1  1  0  0  0
  8 12  1  0  0  0  0
  9 22  1  0  0  0  0
  9 14  1  1  0  0  0
 10  3  2  0  0  0  0
 10 21  1  0  0  0  0
 11 28  1  6  0  0  0
 11  8  1  0  0  0  0
 11  5  1  0  0  0  0
 12 27  1  0  0  0  0
 12  4  1  0  0  0  0
 13 18  2  0  0  0  0
 15 23  1  0  0  0  0
 16  2  1  0  0  0  0
 17  3  1  0  0  0  0
 18 25  1  0  0  0  0
 19 26  1  0  0  0  0
 20 17  2  0  0  0  0
 20 22  1  0  0  0  0
 22 10  1  0  0  0  0
 23 14  1  0  0  0  0
 26 17  1  0  0  0  0
 26 25  2  0  0  0  0
 27 24  1  1  0  0  0
 27  7  1  0  0  0  0
 29 30  1  0  0  0  0
 30 28  1  0  0  0  0
M  END
>  <MODEL>
1

>  <REMARK>
 VINA RESULT:      -7.2      0.000      0.000
  Name = 
  2 active torsions:
  status: ('A' for Active; 'I' for Inactive)
    1  A    between atoms: C_11  and  C_28
    2  A    between atoms: C_28  and  C_30
                            x       y       z     vdW  Elec       q    Type
                         _______ _______ _______ _____ _____    ______ ____

>  <TORSDO>
F 2

$$$$
=
 OpenBabel11122412393D

 30 35  0  0  1  0  0  0  0  0999 V2000
  161.5150  207.5180  150.5060 C   0  0  0  0  0  0  0  0  0  0  0  0
  161.1680  208.1300  152.9150 C   0  0  0  0  0  0  0  0  0  0  0  0
  160.8780  203.5330  151.3020 N   0  0  0  0  0  0  0  0  0  0  0  0
  161.5800  206.5180  149.4990 C   0  0  0  0  0  0  0  0  0  0  0  0
  161.7410  208.8510  150.1330 O   0  0  0  0  0  0  0  0  0  0  0  0
  163.8150  208.1840  148.2140 O   0  0  0  0  0  1  0  0  0  0  0  0
  162.2210  204.8880  146.8640 C   0  0  1  0  0  3  0  0  0  0  0  0
  162.4530  208.2340  147.9010 C   0  0  2  0  0  3  0  0  0  0  0  0
  161.8180  203.7420  147.7620 C   0  0  2  0  0  3  0  0  0  0  0  0
  161.0930  203.0670  150.0520 C   0  0  0  0  0  0  0  0  0  0  0  0
  161.7420  209.2690  148.7690 C   0  0  2  0  0  3  0  0  0  0  0  0
  161.8510  206.9280  148.1480 N   0  0  0  0  0  0  0  0  0  0  0  0
  160.8700  207.7150  154.2180 C   0  0  0  0  0  3  0  0  0  0  0  0
  160.7850  202.9810  146.9600 C   0  0  0  0  0  2  0  0  0  0  0  0
  162.0340  204.3130  145.4750 C   0  0  0  0  0  2  0  0  0  0  0  0
  161.4530  209.8540  152.7110 Cl  0  0  0  0  0  0  0  0  0  0  0  0
  161.0380  204.8590  151.1640 C   0  0  0  0  0  0  0  0  0  0  0  0
  160.6290  206.3740  154.5080 C   0  0  0  0  0  3  0  0  0  0  0  0
  161.2270  207.1750  151.8620 C   0  0  0  0  0  0  0  0  0  0  0  0
  161.3400  205.1810  149.8670 C   0  0  0  0  0  0  0  0  0  0  0  0
  161.0900  201.6040  149.7520 C   0  0  0  0  0  1  0  0  0  0  0  0
  161.3720  204.0360  149.1370 N   0  0  0  0  0  0  0  0  0  0  0  0
  161.0720  203.2130  145.5480 N   0  0  0  0  0  2  0  0  0  0  0  0
  159.8860  205.9880  146.9970 C   0  0  0  0  0  1  0  0  0  0  0  0
  160.6820  205.4240  153.4930 C   0  0  0  0  0  3  0  0  0  0  0  0
  160.9760  205.8100  152.1810 C   0  0  0  0  0  0  0  0  0  0  0  0
  161.4030  206.1690  146.9980 C   0  0  2  0  0  3  0  0  0  0  0  0
  162.3740  210.6450  148.6300 C   0  0  0  0  0  2  0  0  0  0  0  0
  162.0870  212.5580  147.2500 O   0  0  0  0  0  1  0  0  0  0  0  0
  161.3910  211.6100  147.9970 C   0  0  0  0  0  2  0  0  0  0  0  0
  1 19  1  0  0  0  0
  2 13  1  0  0  0  0
  4 20  1  0  0  0  0
  4  1  2  0  0  0  0
  5  1  1  0  0  0  0
  7 15  1  6  0  0  0
  7 27  1  0  0  0  0
  7  9  1  0  0  0  0
  8 12  1  0  0  0  0
  8  6  1  1  0  0  0
  8 11  1  0  0  0  0
  9 14  1  6  0  0  0
  9 22  1  0  0  0  0
 10  3  2  0  0  0  0
 11 28  1  1  0  0  0
 11  5  1  0  0  0  0
 12  4  1  0  0  0  0
 13 18  2  0  0  0  0
 15 23  1  0  0  0  0
 16  2  1  0  0  0  0
 17  3  1  0  0  0  0
 17 26  1  0  0  0  0
 19 26  1  0  0  0  0
 19  2  2  0  0  0  0
 20 17  2  0  0  0  0
 21 10  1  0  0  0  0
 22 20  1  0  0  0  0
 22 10  1  0  0  0  0
 23 14  1  0  0  0  0
 25 18  1  0  0  0  0
 26 25  2  0  0  0  0
 27 24  1  1  0  0  0
 27 12  1  0  0  0  0
 29 30  1  0  0  0  0
 30 28  1  0  0  0  0
M  END
>  <MODEL>
2

>  <REMARK>
 VINA RESULT:      -7.2      2.976      5.738
  Name = 
  2 active torsions:
  status: ('A' for Active; 'I' for Inactive)
    1  A    between atoms: C_11  and  C_28
    2  A    between atoms: C_28  and  C_30
                            x       y       z     vdW  Elec       q    Type
                         _______ _______ _______ _____ _____    ______ ____

>  <TORSDO>
F 2

$$$$
=
 OpenBabel11122412393D

 30 35  0  0  1  0  0  0  0  0999 V2000
  161.3990  206.1350  150.0440 C   0  0  0  0  0  0  0  0  0  0  0  0
  161.0990  205.6290  152.4840 C   0  0  0  0  0  0  0  0  0  0  0  0
  160.8020  202.1940  149.0310 N   0  0  0  0  0  0  0  0  0  0  0  0
  161.4480  205.6760  148.7010 C   0  0  0  0  0  0  0  0  0  0  0  0
  161.6100  207.5000  150.2870 O   0  0  0  0  0  0  0  0  0  0  0  0
  163.6470  207.7680  148.2350 O   0  0  0  0  0  1  0  0  0  0  0  0
  162.0430  205.3690  145.6080 C   0  0  1  0  0  3  0  0  0  0  0  0
  162.2780  207.9300  147.9980 C   0  0  2  0  0  3  0  0  0  0  0  0
  161.6660  203.9400  145.9220 C   0  0  2  0  0  3  0  0  0  0  0  0
  160.9930  202.3220  147.7000 C   0  0  0  0  0  0  0  0  0  0  0  0
  161.5800  208.4720  149.2420 C   0  0  2  0  0  3  0  0  0  0  0  0
  161.6890  206.6380  147.6600 N   0  0  0  0  0  0  0  0  0  0  0  0
  160.8310  204.6830  153.4800 C   0  0  0  0  0  3  0  0  0  0  0  0
  160.6210  203.5900  144.8850 C   0  0  0  0  0  2  0  0  0  0  0  0
  161.8300  205.4550  144.1110 C   0  0  0  0  0  2  0  0  0  0  0  0
  161.3700  207.2730  153.0490 Cl  0  0  0  0  0  0  0  0  0  0  0  0
  160.9510  203.4490  149.4830 C   0  0  0  0  0  0  0  0  0  0  0  0
  160.6040  203.3470  153.1590 C   0  0  0  0  0  3  0  0  0  0  0  0
  161.1420  205.2300  151.1190 C   0  0  0  0  0  0  0  0  0  0  0  0
  161.2240  204.3090  148.4520 C   0  0  0  0  0  0  0  0  0  0  0  0
  160.9920  201.1380  146.7910 C   0  0  0  0  0  1  0  0  0  0  0  0
  161.2480  203.5980  147.2950 N   0  0  0  0  0  0  0  0  0  0  0  0
  160.8760  204.4190  143.7120 N   0  0  0  0  0  2  0  0  0  0  0  0
  159.7060  206.2660  146.2460 C   0  0  0  0  0  1  0  0  0  0  0  0
  160.6410  202.9350  151.8300 C   0  0  0  0  0  3  0  0  0  0  0  0
  160.9050  203.8600  150.8140 C   0  0  0  0  0  0  0  0  0  0  0  0
  161.2210  206.4510  146.3010 C   0  0  2  0  0  3  0  0  0  0  0  0
  162.2000  209.7800  149.7080 C   0  0  0  0  0  2  0  0  0  0  0  0
  162.7050  210.1660  151.9980 O   0  0  0  0  0  1  0  0  0  0  0  0
  161.6610  210.1560  151.0740 C   0  0  0  0  0  2  0  0  0  0  0  0
  1  5  1  0  0  0  0
  1 19  1  0  0  0  0
  2 16  1  0  0  0  0
  2 13  1  0  0  0  0
  3 17  1  0  0  0  0
  4  1  2  0  0  0  0
  7 15  1  6  0  0  0
  7  9  1  0  0  0  0
  7 27  1  0  0  0  0
  8  6  1  1  0  0  0
  8 11  1  0  0  0  0
  9 14  1  6  0  0  0
  9 22  1  0  0  0  0
 10  3  2  0  0  0  0
 11 28  1  1  0  0  0
 11  5  1  0  0  0  0
 12  8  1  0  0  0  0
 12  4  1  0  0  0  0
 17 26  1  0  0  0  0
 18 13  2  0  0  0  0
 19  2  2  0  0  0  0
 20  4  1  0  0  0  0
 20 17  2  0  0  0  0
 21 10  1  0  0  0  0
 22 10  1  0  0  0  0
 22 20  1  0  0  0  0
 23 15  1  0  0  0  0
 23 14  1  0  0  0  0
 25 18  1  0  0  0  0
 26 19  1  0  0  0  0
 26 25  2  0  0  0  0
 27 24  1  1  0  0  0
 27 12  1  0  0  0  0
 28 30  1  0  0  0  0
 30 29  1  0  0  0  0
M  END
>  <MODEL>
3

>  <REMARK>
 VINA RESULT:      -6.2      2.852      5.656
  Name = 
  2 active torsions:
  status: ('A' for Active; 'I' for Inactive)
    1  A    between atoms: C_11  and  C_28
    2  A    between atoms: C_28  and  C_30
                            x       y       z     vdW  Elec       q    Type
                         _______ _______ _______ _____ _____    ______ ____

>  <TORSDO>
F 2

$$$$
=
 OpenBabel11122412393D

 30 35  0  0  1  0  0  0  0  0999 V2000
  161.3300  208.5590  151.2600 C   0  0  0  0  0  0  0  0  0  0  0  0
  161.4820  206.5470  149.7670 C   0  0  0  0  0  0  0  0  0  0  0  0
  160.6180  206.2070  154.5580 N   0  0  0  0  0  0  0  0  0  0  0  0
  161.1190  209.1030  152.5550 C   0  0  0  0  0  0  0  0  0  0  0  0
  161.5710  209.4450  150.2000 O   0  0  0  0  0  0  0  0  0  0  0  0
  159.7020  211.4450  151.1660 O   0  0  0  0  0  1  0  0  0  0  0  0
  160.4170  211.0150  154.9770 C   0  0  1  0  0  3  0  0  0  0  0  0
  161.0470  211.3910  151.5440 C   0  0  2  0  0  3  0  0  0  0  0  0
  160.3200  209.6840  155.6870 C   0  0  2  0  0  3  0  0  0  0  0  0
  160.4610  207.2030  155.4560 C   0  0  0  0  0  0  0  0  0  0  0  0
  161.8990  210.8170  150.4150 C   0  0  2  0  0  3  0  0  0  0  0  0
  161.1870  210.5310  152.7150 N   0  0  0  0  0  0  0  0  0  0  0  0
  161.4450  205.1550  149.6380 C   0  0  0  0  0  3  0  0  0  0  0  0
  161.1840  209.8500  156.9180 C   0  0  0  0  0  2  0  0  0  0  0  0
  160.6280  211.9920  156.1160 C   0  0  0  0  0  2  0  0  0  0  0  0
  161.7600  207.4430  148.2780 Cl  0  0  0  0  0  0  0  0  0  0  0  0
  160.8850  206.8620  153.4170 C   0  0  0  0  0  0  0  0  0  0  0  0
  161.2270  204.3370  150.7440 C   0  0  0  0  0  3  0  0  0  0  0  0
  161.2960  207.1480  151.0440 C   0  0  0  0  0  0  0  0  0  0  0  0
  160.8890  208.2160  153.6240 C   0  0  0  0  0  0  0  0  0  0  0  0
  160.0700  206.9280  156.8700 C   0  0  0  0  0  1  0  0  0  0  0  0
  160.6240  208.4520  154.9350 N   0  0  0  0  0  0  0  0  0  0  0  0
  161.1940  211.2690  157.2560 N   0  0  0  0  0  2  0  0  0  0  0  0
  162.9270  210.7000  154.4500 C   0  0  0  0  0  1  0  0  0  0  0  0
  161.0430  204.9030  152.0020 C   0  0  0  0  0  3  0  0  0  0  0  0
  161.0770  206.2920  152.1610 C   0  0  0  0  0  0  0  0  0  0  0  0
  161.5520  211.1590  153.9680 C   0  0  2  0  0  3  0  0  0  0  0  0
  161.7370  211.6150  149.1300 C   0  0  0  0  0  2  0  0  0  0  0  0
  163.4390  212.7330  147.9060 O   0  0  0  0  0  1  0  0  0  0  0  0
  162.9730  211.4690  148.2650 C   0  0  0  0  0  2  0  0  0  0  0  0
  1  4  1  0  0  0  0
  2 19  1  0  0  0  0
  3 10  2  0  0  0  0
  4 12  1  0  0  0  0
  4 20  2  0  0  0  0
  5 11  1  0  0  0  0
  5  1  1  0  0  0  0
  7  9  1  0  0  0  0
  7 15  1  1  0  0  0
  8  6  1  6  0  0  0
  8 12  1  0  0  0  0
  9 14  1  1  0  0  0
 10 21  1  0  0  0  0
 11 28  1  6  0  0  0
 11  8  1  0  0  0  0
 12 27  1  0  0  0  0
 13  2  2  0  0  0  0
 13 18  1  0  0  0  0
 14 23  1  0  0  0  0
 15 23  1  0  0  0  0
 16  2  1  0  0  0  0
 17 20  1  0  0  0  0
 17  3  1  0  0  0  0
 18 25  2  0  0  0  0
 19  1  2  0  0  0  0
 19 26  1  0  0  0  0
 20 22  1  0  0  0  0
 22 10  1  0  0  0  0
 22  9  1  0  0  0  0
 25 26  1  0  0  0  0
 26 17  2  0  0  0  0
 27 24  1  1  0  0  0
 27  7  1  0  0  0  0
 29 30  1  0  0  0  0
 30 28  1  0  0  0  0
M  END
>  <MODEL>
4

>  <REMARK>
 VINA RESULT:      -6.2      3.615      5.849
  Name = 
  2 active torsions:
  status: ('A' for Active; 'I' for Inactive)
    1  A    between atoms: C_11  and  C_28
    2  A    between atoms: C_28  and  C_30
                            x       y       z     vdW  Elec       q    Type
                         _______ _______ _______ _____ _____    ______ ____

>  <TORSDO>
F 2

$$$$
=
 OpenBabel11122412393D

 30 35  0  0  1  0  0  0  0  0999 V2000
  161.3350  208.6310  151.3540 C   0  0  0  0  0  0  0  0  0  0  0  0
  160.9970  209.5480  153.6660 C   0  0  0  0  0  0  0  0  0  0  0  0
  161.1330  204.7600  152.7300 N   0  0  0  0  0  0  0  0  0  0  0  0
  161.4720  207.5070  150.4960 C   0  0  0  0  0  0  0  0  0  0  0  0
  161.4120  209.9120  150.7870 O   0  0  0  0  0  0  0  0  0  0  0  0
  163.4860  209.1790  148.8920 O   0  0  0  0  0  1  0  0  0  0  0  0
  162.1990  205.5840  148.0910 C   0  0  1  0  0  3  0  0  0  0  0  0
  162.1180  209.0510  148.6350 C   0  0  2  0  0  3  0  0  0  0  0  0
  161.9430  204.5450  149.1580 C   0  0  2  0  0  3  0  0  0  0  0  0
  161.3580  204.1410  151.5500 C   0  0  0  0  0  0  0  0  0  0  0  0
  161.3300  210.1260  149.3790 C   0  0  2  0  0  3  0  0  0  0  0  0
  161.6600  207.7420  149.0900 N   0  0  0  0  0  0  0  0  0  0  0  0
  160.7820  209.2990  155.0260 C   0  0  0  0  0  3  0  0  0  0  0  0
  160.9700  203.5790  148.5170 C   0  0  0  0  0  2  0  0  0  0  0  0
  162.0310  204.7990  146.8060 C   0  0  0  0  0  2  0  0  0  0  0  0
  161.0990  211.2440  153.2090 Cl  0  0  0  0  0  0  0  0  0  0  0  0
  161.1520  206.0610  152.4000 C   0  0  0  0  0  0  0  0  0  0  0  0
  160.6890  207.9970  155.5120 C   0  0  0  0  0  3  0  0  0  0  0  0
  161.1240  208.4610  152.7560 C   0  0  0  0  0  0  0  0  0  0  0  0
  161.3810  206.2200  151.0590 C   0  0  0  0  0  0  0  0  0  0  0  0
  161.4970  202.6580  151.4590 C   0  0  0  0  0  1  0  0  0  0  0  0
  161.5100  204.9910  150.4960 N   0  0  0  0  0  0  0  0  0  0  0  0
  161.1890  203.6320  147.0760 N   0  0  0  0  0  2  0  0  0  0  0  0
  159.7690  206.4590  148.1700 C   0  0  0  0  0  1  0  0  0  0  0  0
  160.8090  206.9190  154.6400 C   0  0  0  0  0  3  0  0  0  0  0  0
  161.0230  207.1380  153.2750 C   0  0  0  0  0  0  0  0  0  0  0  0
  161.2590  206.7850  148.0790 C   0  0  2  0  0  3  0  0  0  0  0  0
  161.8130  211.5230  149.0200 C   0  0  0  0  0  2  0  0  0  0  0  0
  160.9480  212.9150  147.2990 O   0  0  0  0  0  1  0  0  0  0  0  0
  161.6840  211.7530  147.5280 C   0  0  0  0  0  2  0  0  0  0  0  0
  1 19  1  0  0  0  0
  2 13  1  0  0  0  0
  4 20  1  0  0  0  0
  4  1  2  0  0  0  0
  5  1  1  0  0  0  0
  7 15  1  6  0  0  0
  7  9  1  0  0  0  0
  8  6  1  1  0  0  0
  8 12  1  0  0  0  0
  8 11  1  0  0  0  0
  9 14  1  6  0  0  0
  9 22  1  0  0  0  0
 10  3  2  0  0  0  0
 11 28  1  1  0  0  0
 11  5  1  0  0  0  0
 12  4  1  0  0  0  0
 13 18  2  0  0  0  0
 15 23  1  0  0  0  0
 16  2  1  0  0  0  0
 17  3  1  0  0  0  0
 17 26  1  0  0  0  0
 19 26  1  0  0  0  0
 19  2  2  0  0  0  0
 20 17  2  0  0  0  0
 21 10  1  0  0  0  0
 22 20  1  0  0  0  0
 22 10  1  0  0  0  0
 23 14  1  0  0  0  0
 25 18  1  0  0  0  0
 26 25  2  0  0  0  0
 27  7  1  0  0  0  0
 27 24  1  1  0  0  0
 27 12  1  0  0  0  0
 29 30  1  0  0  0  0
 30 28  1  0  0  0  0
M  END
>  <MODEL>
5

>  <REMARK>
 VINA RESULT:      -5.3      3.321      6.090
  Name = 
  2 active torsions:
  status: ('A' for Active; 'I' for Inactive)
    1  A    between atoms: C_11  and  C_28
    2  A    between atoms: C_28  and  C_30
                            x       y       z     vdW  Elec       q    Type
                         _______ _______ _______ _____ _____    ______ ____

>  <TORSDO>
F 2

$$$$
=
 OpenBabel11122412393D

 30 35  0  0  1  0  0  0  0  0999 V2000
  160.2280  211.8200  152.0380 C   0  0  0  0  0  0  0  0  0  0  0  0
  160.8220  212.9420  149.8730 C   0  0  0  0  0  0  0  0  0  0  0  0
  162.2000  208.3830  150.9370 N   0  0  0  0  0  0  0  0  0  0  0  0
  160.2840  210.6710  152.8710 C   0  0  0  0  0  0  0  0  0  0  0  0
  159.5360  212.9460  152.5060 O   0  0  0  0  0  0  0  0  0  0  0  0
  157.4420  211.3910  153.7830 O   0  0  0  0  0  1  0  0  0  0  0  0
  159.6860  208.4650  155.0600 C   0  0  1  0  0  3  0  0  0  0  0  0
  158.6370  211.7520  154.4130 C   0  0  2  0  0  3  0  0  0  0  0  0
  160.5860  207.6610  154.1500 C   0  0  2  0  0  3  0  0  0  0  0  0
  161.9050  207.6500  152.0330 C   0  0  0  0  0  0  0  0  0  0  0  0
  159.1460  213.0860  153.8720 C   0  0  2  0  0  3  0  0  0  0  0  0
  159.6470  210.7310  154.1600 N   0  0  0  0  0  0  0  0  0  0  0  0
  161.4760  212.8750  148.6380 C   0  0  0  0  0  3  0  0  0  0  0  0
  161.6300  207.0760  155.0760 C   0  0  0  0  0  2  0  0  0  0  0  0
  159.7730  207.7150  156.3730 C   0  0  0  0  0  2  0  0  0  0  0  0
  159.9860  214.4530  150.2120 Cl  0  0  0  0  0  0  0  0  0  0  0  0
  161.6170  209.5640  151.1930 C   0  0  0  0  0  0  0  0  0  0  0  0
  162.1680  211.7300  148.2520 C   0  0  0  0  0  3  0  0  0  0  0  0
  160.8600  211.8280  150.7570 C   0  0  0  0  0  0  0  0  0  0  0  0
  160.9890  209.5430  152.4100 C   0  0  0  0  0  0  0  0  0  0  0  0
  162.3010  206.2150  152.1450 C   0  0  0  0  0  1  0  0  0  0  0  0
  161.1720  208.3180  152.9670 N   0  0  0  0  0  0  0  0  0  0  0  0
  161.0220  206.9530  156.3960 N   0  0  0  0  0  2  0  0  0  0  0  0
  161.5490  210.1660  155.6200 C   0  0  0  0  0  1  0  0  0  0  0  0
  162.2190  210.6290  149.1020 C   0  0  0  0  0  3  0  0  0  0  0  0
  161.5760  210.6680  150.3440 C   0  0  0  0  0  0  0  0  0  0  0  0
  160.0790  209.9220  155.2810 C   0  0  2  0  0  3  0  0  0  0  0  0
  158.1070  214.1860  154.0240 C   0  0  0  0  0  2  0  0  0  0  0  0
  156.5000  214.1830  155.7740 O   0  0  0  0  0  1  0  0  0  0  0  0
  157.8380  214.4520  155.4920 C   0  0  0  0  0  2  0  0  0  0  0  0
  1  5  1  0  0  0  0
  1  4  1  0  0  0  0
  2 16  1  0  0  0  0
  2 19  1  0  0  0  0
  3 17  1  0  0  0  0
  3 10  2  0  0  0  0
  4 12  1  0  0  0  0
  5 11  1  0  0  0  0
  7 27  1  0  0  0  0
  7 15  1  1  0  0  0
  8  6  1  6  0  0  0
  9  7  1  0  0  0  0
  9 14  1  1  0  0  0
 10 21  1  0  0  0  0
 10 22  1  0  0  0  0
 11 28  1  6  0  0  0
 11  8  1  0  0  0  0
 12  8  1  0  0  0  0
 12 27  1  0  0  0  0
 13  2  2  0  0  0  0
 14 23  1  0  0  0  0
 15 23  1  0  0  0  0
 17 20  1  0  0  0  0
 18 13  1  0  0  0  0
 18 25  2  0  0  0  0
 19  1  2  0  0  0  0
 20  4  2  0  0  0  0
 20 22  1  0  0  0  0
 22  9  1  0  0  0  0
 25 26  1  0  0  0  0
 26 19  1  0  0  0  0
 26 17  2  0  0  0  0
 27 24  1  6  0  0  0
 28 30  1  0  0  0  0
 30 29  1  0  0  0  0
M  END
>  <MODEL>
6

>  <REMARK>
 VINA RESULT:      -5.0      5.700      9.005
  Name = 
  2 active torsions:
  status: ('A' for Active; 'I' for Inactive)
    1  A    between atoms: C_11  and  C_28
    2  A    between atoms: C_28  and  C_30
                            x       y       z     vdW  Elec       q    Type
                         _______ _______ _______ _____ _____    ______ ____

>  <TORSDO>
F 2

$$$$
=
 OpenBabel11122412393D

 30 35  0  0  1  0  0  0  0  0999 V2000
  160.4660  209.0830  153.9130 C   0  0  0  0  0  0  0  0  0  0  0  0
  161.7990  207.5690  152.4180 C   0  0  0  0  0  0  0  0  0  0  0  0
  160.4100  212.0470  151.0620 N   0  0  0  0  0  0  0  0  0  0  0  0
  159.8310  210.3350  154.1250 C   0  0  0  0  0  0  0  0  0  0  0  0
  160.4250  208.1340  154.9440 O   0  0  0  0  0  0  0  0  0  0  0  0
  160.7160  210.1060  157.0560 O   0  0  0  0  0  1  0  0  0  0  0  0
  158.5470  212.9150  155.4330 C   0  0  1  0  0  3  0  0  0  0  0  0
  159.4850  209.7120  156.5240 C   0  0  2  0  0  3  0  0  0  0  0  0
  158.8040  213.4530  154.0450 C   0  0  2  0  0  3  0  0  0  0  0  0
  159.7420  212.9740  151.7830 C   0  0  0  0  0  0  0  0  0  0  0  0
  159.5420  208.2600  156.0580 C   0  0  2  0  0  3  0  0  0  0  0  0
  159.1600  210.5550  155.3780 N   0  0  0  0  0  0  0  0  0  0  0  0
  162.4180  207.3620  151.1800 C   0  0  0  0  0  3  0  0  0  0  0  0
  157.4800  214.0520  153.6230 C   0  0  0  0  0  2  0  0  0  0  0  0
  157.4810  213.8490  155.9680 C   0  0  0  0  0  2  0  0  0  0  0  0
  161.9230  206.2400  153.5640 Cl  0  0  0  0  0  0  0  0  0  0  0  0
  160.4730  210.9980  151.8960 C   0  0  0  0  0  0  0  0  0  0  0  0
  162.3930  208.3430  150.1910 C   0  0  0  0  0  3  0  0  0  0  0  0
  161.1300  208.7980  152.6800 C   0  0  0  0  0  0  0  0  0  0  0  0
  159.8580  211.2850  153.0860 C   0  0  0  0  0  0  0  0  0  0  0  0
  159.5070  214.3520  151.2600 C   0  0  0  0  0  1  0  0  0  0  0  0
  159.3770  212.5530  153.0260 N   0  0  0  0  0  0  0  0  0  0  0  0
  156.7770  214.4530  154.8370 N   0  0  0  0  0  2  0  0  0  0  0  0
  156.8990  211.1190  154.5770 C   0  0  0  0  0  1  0  0  0  0  0  0
  161.7440  209.5510  150.4270 C   0  0  0  0  0  3  0  0  0  0  0  0
  161.1160  209.7850  151.6540 C   0  0  0  0  0  0  0  0  0  0  0  0
  158.0500  211.4760  155.5170 C   0  0  2  0  0  3  0  0  0  0  0  0
  159.9610  207.3270  157.1830 C   0  0  0  0  0  2  0  0  0  0  0  0
  162.2860  207.7930  157.0310 O   0  0  0  0  0  1  0  0  0  0  0  0
  161.3450  206.7710  156.9130 C   0  0  0  0  0  2  0  0  0  0  0  0
  1  4  1  0  0  0  0
  1  5  1  0  0  0  0
  2 19  1  0  0  0  0
  2 16  1  0  0  0  0
  3 10  2  0  0  0  0
  3 17  1  0  0  0  0
  4 12  1  0  0  0  0
  5 11  1  0  0  0  0
  7 27  1  0  0  0  0
  7 15  1  6  0  0  0
  8  6  1  6  0  0  0
  9 14  1  6  0  0  0
  9  7  1  0  0  0  0
 10 22  1  0  0  0  0
 11  8  1  0  0  0  0
 11 28  1  1  0  0  0
 12 27  1  0  0  0  0
 12  8  1  0  0  0  0
 13  2  2  0  0  0  0
 14 23  1  0  0  0  0
 17 20  1  0  0  0  0
 18 25  2  0  0  0  0
 18 13  1  0  0  0  0
 19  1  2  0  0  0  0
 20  4  2  0  0  0  0
 21 10  1  0  0  0  0
 22 20  1  0  0  0  0
 22  9  1  0  0  0  0
 23 15  1  0  0  0  0
 25 26  1  0  0  0  0
 26 17  2  0  0  0  0
 26 19  1  0  0  0  0
 27 24  1  6  0  0  0
 30 29  1  0  0  0  0
 30 28  1  0  0  0  0
M  END
>  <MODEL>
7

>  <REMARK>
 VINA RESULT:      -4.4      5.597      8.718
  Name = 
  2 active torsions:
  status: ('A' for Active; 'I' for Inactive)
    1  A    between atoms: C_11  and  C_28
    2  A    between atoms: C_28  and  C_30
                            x       y       z     vdW  Elec       q    Type
                         _______ _______ _______ _____ _____    ______ ____

>  <TORSDO>
F 2

$$$$
