=
 OpenBabel11122414423D

 34 40  0  0  1  0  0  0  0  0999 V2000
  161.1890  207.8580  154.1820 C   0  0  1  0  0  3  0  0  0  0  0  0
  162.3170  206.0390  152.7720 C   0  0  0  0  0  2  0  0  0  0  0  0
  156.9040  212.8970  154.3290 C   0  0  1  0  0  3  0  0  0  0  0  0
  159.8970  209.6340  155.3210 C   0  0  2  0  0  3  0  0  0  0  0  0
  159.1020  211.6510  154.0350 C   0  0  0  0  0  0  0  0  0  0  0  0
  158.5600  213.7230  152.6540 C   0  0  0  0  0  1  0  0  0  0  0  0
  156.2600  211.8530  153.6760 F   0  0  0  0  0  0  0  0  0  0  0  0
  156.9760  211.6170  156.2360 C   0  0  0  0  0  2  0  0  0  0  0  0
  162.1700  208.2690  152.0040 N   0  0  2  0  0  0  0  0  0  0  0  0
  161.6910  208.8350  148.8710 C   0  0  0  0  0  2  0  0  0  0  0  0
  159.7060  211.0900  152.7560 C   0  0  0  0  0  2  0  0  0  0  0  0
  158.4760  211.4580  156.4460 C   0  0  0  0  0  2  0  0  0  0  0  0
  161.2720  209.4050  151.6980 C   0  0  1  0  0  3  0  0  0  0  0  0
  162.8930  206.0640  151.3680 C   0  0  0  0  0  2  0  0  0  0  0  0
  159.1170  210.9280  155.1920 C   0  0  0  0  0  0  0  0  0  0  0  0
  156.6850  212.8940  155.7230 O   0  0  0  0  0  0  0  0  0  0  0  0
  161.7360  207.4910  149.6190 C   0  0  1  0  0  3  0  0  0  0  0  0
  160.2390  209.0270  153.9640 C   0  0  1  0  0  3  0  0  0  0  0  0
  158.3930  212.9970  153.9810 C   0  0  1  0  0  3  0  0  0  0  0  0
  160.8120  210.0720  153.0140 C   0  0  2  0  0  3  0  0  0  0  0  0
  160.0830  207.6380  156.3960 C   0  0  0  0  0  2  0  0  0  0  0  0
  162.5510  209.9250  149.5100 C   0  0  0  0  0  2  0  0  0  0  0  0
  159.1830  208.6770  156.0740 O   0  0  0  0  0  0  0  0  0  0  0  0
  161.9590  210.4610  150.8170 C   0  0  0  0  0  2  0  0  0  0  0  0
  162.6650  207.4870  150.8590 C   0  0  1  0  0  3  0  0  0  0  0  0
  160.5140  206.8720  155.1340 C   0  0  0  0  0  2  0  0  0  0  0  0
  161.4610  207.2800  152.8040 C   0  0  2  0  0  3  0  0  0  0  0  0
  160.4360  207.0940  149.9540 O   0  0  0  0  0  0  0  0  0  0  0  0
  159.9930  206.3310  148.8700 C   0  0  0  0  0  2  0  0  0  0  0  0
  161.6960  203.2810  147.8010 C   0  0  0  0  0  2  0  0  0  0  0  0
  161.2720  205.6180  146.5630 S   0  0  0  0  0  0  0  0  0  0  0  0
  161.1240  205.4540  148.3670 C   0  0  2  0  0  3  0  0  0  0  0  0
  161.5140  203.8310  146.4060 C   0  0  0  0  0  2  0  0  0  0  0  0
  160.8690  204.0620  148.7020 N   0  0  0  0  0  2  0  0  0  0  0  0
  1 26  1  1  0  0  0
  2 27  1  0  0  0  0
  3  7  1  1  0  0  0
  3 16  1  0  0  0  0
  4 15  1  6  0  0  0
  4 23  1  0  0  0  0
  5 15  2  0  0  0  0
  6 19  1  0  0  0  0
  8 12  1  0  0  0  0
  9 27  1  0  0  0  0
 10 22  1  0  0  0  0
 10 17  1  0  0  0  0
 11 20  1  0  0  0  0
 11  5  1  0  0  0  0
 13  9  1  0  0  0  0
 13 20  1  0  0  0  0
 14  2  1  0  0  0  0
 15 12  1  0  0  0  0
 16  8  1  0  0  0  0
 17 28  1  0  0  0  0
 17 25  1  0  0  0  0
 18  1  1  0  0  0  0
 18  4  1  0  0  0  0
 19  5  1  0  0  0  0
 19  3  1  0  0  0  0
 20 18  1  0  0  0  0
 22 24  1  0  0  0  0
 23 21  1  0  0  0  0
 24 13  1  0  0  0  0
 25 14  1  0  0  0  0
 25  9  1  0  0  0  0
 26 21  1  0  0  0  0
 27  1  1  0  0  0  0
 29 28  1  0  0  0  0
 30 34  1  0  0  0  0
 31 32  1  0  0  0  0
 32 34  1  0  0  0  0
 32 29  1  0  0  0  0
 33 31  1  0  0  0  0
 33 30  1  0  0  0  0
M  END
>  <MODEL>
1

>  <REMARK>
 VINA RESULT:      -7.5      0.000      0.000
  Name = 
  3 active torsions:
  status: ('A' for Active; 'I' for Inactive)
    1  A    between atoms: C_17  and  O_28
    2  A    between atoms: O_28  and  C_29
    3  A    between atoms: C_29  and  C_32
                            x       y       z     vdW  Elec       q    Type
                         _______ _______ _______ _____ _____    ______ ____

>  <TORSDO>
F 3

$$$$
=
 OpenBabel11122414423D

 34 40  0  0  1  0  0  0  0  0999 V2000
  161.7310  209.9870  152.2860 C   0  0  1  0  0  3  0  0  0  0  0  0
  161.1080  211.7900  153.9990 C   0  0  0  0  0  2  0  0  0  0  0  0
  160.5530  203.9040  149.9640 C   0  0  1  0  0  3  0  0  0  0  0  0
  162.0690  208.1180  150.7010 C   0  0  2  0  0  3  0  0  0  0  0  0
  161.5550  205.7510  151.3990 C   0  0  0  0  0  0  0  0  0  0  0  0
  161.1990  203.4020  152.3220 C   0  0  0  0  0  1  0  0  0  0  0  0
  159.3160  204.5270  150.0810 F   0  0  0  0  0  0  0  0  0  0  0  0
  161.1490  205.4590  148.3800 C   0  0  0  0  0  2  0  0  0  0  0  0
  161.4410  209.5430  154.6510 N   0  0  2  0  0  0  0  0  0  0  0  0
  159.6010  208.2830  156.9740 C   0  0  0  0  0  2  0  0  0  0  0  0
  161.0950  206.2400  152.7650 C   0  0  0  0  0  2  0  0  0  0  0  0
  162.3210  206.1580  149.0560 C   0  0  0  0  0  2  0  0  0  0  0  0
  161.0410  208.1340  154.4440 C   0  0  1  0  0  3  0  0  0  0  0  0
  160.7860  211.7050  155.4790 C   0  0  0  0  0  2  0  0  0  0  0  0
  161.9150  206.6350  150.4240 C   0  0  0  0  0  0  0  0  0  0  0  0
  161.1450  204.0890  148.6960 O   0  0  0  0  0  0  0  0  0  0  0  0
  159.5220  209.6740  156.3210 C   0  0  1  0  0  3  0  0  0  0  0  0
  161.3540  208.5450  151.9800 C   0  0  1  0  0  3  0  0  0  0  0  0
  161.5150  204.2580  151.1030 C   0  0  1  0  0  3  0  0  0  0  0  0
  161.6690  207.6030  153.1350 C   0  0  2  0  0  3  0  0  0  0  0  0
  162.0220  210.2190  149.8290 C   0  0  0  0  0  2  0  0  0  0  0  0
  161.0100  207.6890  156.9930 C   0  0  0  0  0  2  0  0  0  0  0  0
  161.5760  208.8940  149.6300 O   0  0  0  0  0  0  0  0  0  0  0  0
  161.4830  207.2330  155.6090 C   0  0  0  0  0  2  0  0  0  0  0  0
  160.8880  210.2230  155.8340 C   0  0  1  0  0  3  0  0  0  0  0  0
  161.3640  210.8400  151.0730 C   0  0  0  0  0  2  0  0  0  0  0  0
  160.9640  210.3590  153.5430 C   0  0  2  0  0  3  0  0  0  0  0  0
  158.5810  209.6560  155.2860 O   0  0  0  0  0  0  0  0  0  0  0  0
  157.4540  210.3010  155.8010 C   0  0  0  0  0  2  0  0  0  0  0  0
  157.0580  213.1560  153.5580 C   0  0  0  0  0  2  0  0  0  0  0  0
  155.9110  212.5550  155.9030 S   0  0  0  0  0  0  0  0  0  0  0  0
  157.4490  211.7530  155.3590 C   0  0  2  0  0  3  0  0  0  0  0  0
  155.7640  213.3890  154.3030 C   0  0  0  0  0  2  0  0  0  0  0  0
  157.5470  211.8370  153.9110 N   0  0  0  0  0  2  0  0  0  0  0  0
  1 26  1  6  0  0  0
  1 27  1  0  0  0  0
  2 14  1  0  0  0  0
  3  7  1  6  0  0  0
  3 19  1  0  0  0  0
  4 23  1  6  0  0  0
  4 18  1  0  0  0  0
  5 11  1  0  0  0  0
  8 16  1  0  0  0  0
  8 12  1  0  0  0  0
  9 25  1  0  0  0  0
 10 22  1  0  0  0  0
 11 20  1  0  0  0  0
 12 15  1  0  0  0  0
 13  9  1  0  0  0  0
 13 24  1  0  0  0  0
 14 25  1  0  0  0  0
 15  4  1  0  0  0  0
 15  5  2  0  0  0  0
 16  3  1  0  0  0  0
 17 10  1  0  0  0  0
 18  1  1  0  0  0  0
 18 20  1  0  0  0  0
 19  5  1  0  0  0  0
 19  6  1  0  0  0  0
 20 13  1  0  0  0  0
 21 26  1  0  0  0  0
 23 21  1  0  0  0  0
 24 22  1  0  0  0  0
 25 17  1  0  0  0  0
 27  2  1  0  0  0  0
 27  9  1  0  0  0  0
 28 29  1  0  0  0  0
 28 17  1  0  0  0  0
 30 34  1  0  0  0  0
 30 33  1  0  0  0  0
 32 29  1  0  0  0  0
 32 31  1  0  0  0  0
 33 31  1  0  0  0  0
 34 32  1  0  0  0  0
M  END
>  <MODEL>
2

>  <REMARK>
 VINA RESULT:      -5.8      3.368      8.137
  Name = 
  3 active torsions:
  status: ('A' for Active; 'I' for Inactive)
    1  A    between atoms: C_17  and  O_28
    2  A    between atoms: O_28  and  C_29
    3  A    between atoms: C_29  and  C_32
                            x       y       z     vdW  Elec       q    Type
                         _______ _______ _______ _____ _____    ______ ____

>  <TORSDO>
F 3

$$$$
=
 OpenBabel11122414423D

 34 40  0  0  1  0  0  0  0  0999 V2000
  159.0830  212.7080  137.3370 C   0  0  1  0  0  3  0  0  0  0  0  0
  161.5760  213.0330  137.8340 C   0  0  0  0  0  2  0  0  0  0  0  0
  153.4690  209.5960  138.9440 C   0  0  1  0  0  3  0  0  0  0  0  0
  156.6570  212.2680  137.1290 C   0  0  2  0  0  3  0  0  0  0  0  0
  155.7070  210.0370  137.8170 C   0  0  0  0  0  0  0  0  0  0  0  0
  154.9350  207.6660  138.3470 C   0  0  0  0  0  1  0  0  0  0  0  0
  154.0100  210.0710  140.1330 F   0  0  0  0  0  0  0  0  0  0  0  0
  153.2170  211.7660  138.2300 C   0  0  0  0  0  2  0  0  0  0  0  0
  160.6320  210.8730  137.6680 N   0  0  2  0  0  0  0  0  0  0  0  0
  161.6940  208.5300  139.6040 C   0  0  0  0  0  2  0  0  0  0  0  0
  157.0890  209.5650  138.2450 C   0  0  0  0  0  2  0  0  0  0  0  0
  154.1310  211.8000  137.0130 C   0  0  0  0  0  2  0  0  0  0  0  0
  159.5910  209.9480  138.1680 C   0  0  1  0  0  3  0  0  0  0  0  0
  162.6750  212.0410  138.1670 C   0  0  0  0  0  2  0  0  0  0  0  0
  155.5050  211.3160  137.3890 C   0  0  0  0  0  0  0  0  0  0  0  0
  152.5860  210.5130  138.3350 O   0  0  0  0  0  0  0  0  0  0  0  0
  162.0820  210.0190  139.5790 C   0  0  1  0  0  3  0  0  0  0  0  0
  157.9440  211.8200  137.8160 C   0  0  1  0  0  3  0  0  0  0  0  0
  154.5300  209.0830  137.9640 C   0  0  1  0  0  3  0  0  0  0  0  0
  158.2190  210.3410  137.5750 C   0  0  2  0  0  3  0  0  0  0  0  0
  157.3280  214.4390  137.0190 C   0  0  0  0  0  2  0  0  0  0  0  0
  161.2690  207.9800  138.2430 C   0  0  0  0  0  2  0  0  0  0  0  0
  156.3490  213.5760  137.5600 O   0  0  0  0  0  0  0  0  0  0  0  0
  159.8940  208.4870  137.7980 C   0  0  0  0  0  2  0  0  0  0  0  0
  161.9990  210.6710  138.1750 C   0  0  1  0  0  3  0  0  0  0  0  0
  158.7090  214.1590  137.6360 C   0  0  0  0  0  2  0  0  0  0  0  0
  160.3200  212.2350  138.0790 C   0  0  2  0  0  3  0  0  0  0  0  0
  161.3150  210.7220  140.5150 O   0  0  0  0  0  0  0  0  0  0  0  0
  162.2350  211.4560  141.2680 C   0  0  0  0  0  2  0  0  0  0  0  0
  160.0310  212.6250  143.9350 C   0  0  0  0  0  2  0  0  0  0  0  0
  162.6220  213.0800  143.4310 S   0  0  0  0  0  0  0  0  0  0  0  0
  161.4990  212.4450  142.1520 C   0  0  2  0  0  3  0  0  0  0  0  0
  161.3130  212.9360  144.6730 C   0  0  0  0  0  2  0  0  0  0  0  0
  160.3620  211.7990  142.7900 N   0  0  0  0  0  2  0  0  0  0  0  0
  1 26  1  1  0  0  0
  1 18  1  0  0  0  0
  1 27  1  0  0  0  0
  2 27  1  0  0  0  0
  2 14  1  0  0  0  0
  3  7  1  1  0  0  0
  4 15  1  1  0  0  0
  4 23  1  0  0  0  0
  4 18  1  0  0  0  0
  5 19  1  0  0  0  0
  5 11  1  0  0  0  0
  8 16  1  0  0  0  0
  9 27  1  0  0  0  0
  9 13  1  0  0  0  0
  9 25  1  0  0  0  0
 12 15  1  0  0  0  0
 12  8  1  0  0  0  0
 14 25  1  0  0  0  0
 15  5  2  0  0  0  0
 16  3  1  0  0  0  0
 17 10  1  0  0  0  0
 17 28  1  0  0  0  0
 19  6  1  0  0  0  0
 19  3  1  0  0  0  0
 20 18  1  0  0  0  0
 20 13  1  0  0  0  0
 20 11  1  0  0  0  0
 21 23  1  0  0  0  0
 21 26  1  0  0  0  0
 22 10  1  0  0  0  0
 24 13  1  0  0  0  0
 24 22  1  0  0  0  0
 25 17  1  0  0  0  0
 28 29  1  0  0  0  0
 29 32  1  0  0  0  0
 30 33  1  0  0  0  0
 31 33  1  0  0  0  0
 32 34  1  0  0  0  0
 32 31  1  0  0  0  0
 34 30  1  0  0  0  0
M  END
>  <MODEL>
3

>  <REMARK>
 VINA RESULT:      -5.5     11.394     15.009
  Name = 
  3 active torsions:
  status: ('A' for Active; 'I' for Inactive)
    1  A    between atoms: C_17  and  O_28
    2  A    between atoms: O_28  and  C_29
    3  A    between atoms: C_29  and  C_32
                            x       y       z     vdW  Elec       q    Type
                         _______ _______ _______ _____ _____    ______ ____

>  <TORSDO>
F 3

$$$$
=
 OpenBabel11122414423D

 34 40  0  0  1  0  0  0  0  0999 V2000
  160.8810  211.8870  151.7890 C   0  0  1  0  0  3  0  0  0  0  0  0
  159.7400  213.6160  153.2980 C   0  0  0  0  0  2  0  0  0  0  0  0
  161.2190  205.5610  149.8780 C   0  0  1  0  0  3  0  0  0  0  0  0
  161.7470  210.0390  150.3900 C   0  0  2  0  0  3  0  0  0  0  0  0
  161.6760  207.6650  151.2340 C   0  0  0  0  0  0  0  0  0  0  0  0
  161.7340  205.3560  152.3120 C   0  0  0  0  0  1  0  0  0  0  0  0
  159.8740  205.9090  149.8490 F   0  0  0  0  0  0  0  0  0  0  0  0
  161.6210  207.1070  148.2250 C   0  0  0  0  0  2  0  0  0  0  0  0
  160.4720  211.5380  154.1530 N   0  0  2  0  0  0  0  0  0  0  0  0
  158.7290  210.0580  156.4200 C   0  0  0  0  0  2  0  0  0  0  0  0
  161.0000  208.1270  152.5170 C   0  0  0  0  0  2  0  0  0  0  0  0
  162.5540  208.0810  148.9320 C   0  0  0  0  0  2  0  0  0  0  0  0
  160.3970  210.0660  154.0290 C   0  0  1  0  0  3  0  0  0  0  0  0
  159.3070  213.5560  154.7510 C   0  0  0  0  0  2  0  0  0  0  0  0
  161.9320  208.5440  150.2220 C   0  0  0  0  0  0  0  0  0  0  0  0
  161.8740  205.7900  148.6490 O   0  0  0  0  0  0  0  0  0  0  0  0
  158.4230  211.3570  155.6530 C   0  0  1  0  0  3  0  0  0  0  0  0
  160.8440  210.3810  151.5720 C   0  0  1  0  0  3  0  0  0  0  0  0
  161.9760  206.1830  151.0570 C   0  0  1  0  0  3  0  0  0  0  0  0
  161.2400  209.6030  152.8200 C   0  0  2  0  0  3  0  0  0  0  0  0
  161.3440  212.0230  149.3520 C   0  0  0  0  0  2  0  0  0  0  0  0
  160.2230  209.7830  156.5950 C   0  0  0  0  0  2  0  0  0  0  0  0
  161.2040  210.6230  149.2260 O   0  0  0  0  0  0  0  0  0  0  0  0
  160.9070  209.3550  155.2940 C   0  0  0  0  0  2  0  0  0  0  0  0
  159.6830  212.1550  155.2310 C   0  0  1  0  0  3  0  0  0  0  0  0
  160.4580  212.5640  150.4870 C   0  0  0  0  0  2  0  0  0  0  0  0
  159.9410  212.1630  152.9490 C   0  0  2  0  0  3  0  0  0  0  0  0
  157.6050  211.0730  154.5530 O   0  0  0  0  0  0  0  0  0  0  0  0
  156.3790  210.6810  155.0960 C   0  0  0  0  0  2  0  0  0  0  0  0
  155.2070  213.8720  156.4320 C   0  0  0  0  0  2  0  0  0  0  0  0
  155.8330  213.0990  153.9450 S   0  0  0  0  0  0  0  0  0  0  0  0
  155.4810  211.8930  155.2580 C   0  0  2  0  0  3  0  0  0  0  0  0
  155.7400  214.4530  155.1430 C   0  0  0  0  0  2  0  0  0  0  0  0
  155.7080  212.5160  156.5530 N   0  0  0  0  0  2  0  0  0  0  0  0
  1 26  1  6  0  0  0
  1 27  1  0  0  0  0
  2 14  1  0  0  0  0
  3  7  1  6  0  0  0
  3 19  1  0  0  0  0
  4 23  1  6  0  0  0
  4 18  1  0  0  0  0
  5 11  1  0  0  0  0
  8 16  1  0  0  0  0
  8 12  1  0  0  0  0
  9 25  1  0  0  0  0
 10 22  1  0  0  0  0
 11 20  1  0  0  0  0
 12 15  1  0  0  0  0
 13  9  1  0  0  0  0
 13 24  1  0  0  0  0
 14 25  1  0  0  0  0
 15  4  1  0  0  0  0
 15  5  2  0  0  0  0
 16  3  1  0  0  0  0
 17 10  1  0  0  0  0
 18  1  1  0  0  0  0
 18 20  1  0  0  0  0
 19  5  1  0  0  0  0
 19  6  1  0  0  0  0
 20 13  1  0  0  0  0
 21 26  1  0  0  0  0
 23 21  1  0  0  0  0
 24 22  1  0  0  0  0
 25 17  1  0  0  0  0
 27  2  1  0  0  0  0
 27  9  1  0  0  0  0
 28 29  1  0  0  0  0
 28 17  1  0  0  0  0
 29 32  1  0  0  0  0
 30 34  1  0  0  0  0
 31 33  1  0  0  0  0
 31 32  1  0  0  0  0
 32 34  1  0  0  0  0
 33 30  1  0  0  0  0
M  END
>  <MODEL>
4

>  <REMARK>
 VINA RESULT:      -4.9      3.426      8.365
  Name = 
  3 active torsions:
  status: ('A' for Active; 'I' for Inactive)
    1  A    between atoms: C_17  and  O_28
    2  A    between atoms: O_28  and  C_29
    3  A    between atoms: C_29  and  C_32
                            x       y       z     vdW  Elec       q    Type
                         _______ _______ _______ _____ _____    ______ ____

>  <TORSDO>
F 3

$$$$
