=
 OpenBabel11122412383D

 30 35  0  0  1  0  0  0  0  0999 V2000
  161.2710  210.2950  151.2570 C   0  0  0  0  0  0  0  0  0  0  0  0
  161.8040  210.7750  148.9010 C   0  0  0  0  0  0  0  0  0  0  0  0
  159.2940  214.4530  151.6310 S   0  0  0  0  0  0  0  0  0  0  0  0
  160.6100  210.6960  152.5320 C   0  0  0  0  0  0  0  0  0  0  0  0
  162.1100  209.0430  151.2690 C   0  0  0  0  0  2  0  0  0  0  0  0
  160.8290  207.4530  154.5300 C   0  0  0  0  0  1  0  0  0  0  0  0
  160.5130  211.5620  155.3950 N   0  0  1  0  0  0  0  0  0  0  0  0
  161.0930  208.4520  153.4440 C   0  0  0  0  0  0  0  0  0  0  0  0
  159.7140  212.6990  154.9070 C   0  0  2  0  0  3  0  0  0  0  0  0
  158.4350  213.7080  153.0070 C   0  0  0  0  0  0  0  0  0  0  0  0
  161.7460  208.0560  152.3430 C   0  0  0  0  0  0  0  0  0  0  0  0
  160.5940  209.8470  153.5920 C   0  0  0  0  0  0  0  0  0  0  0  0
  161.7790  211.6740  147.8340 C   0  0  0  0  0  3  0  0  0  0  0  0
  158.7390  213.0730  155.9980 C   0  0  0  0  0  2  0  0  0  0  0  0
  160.4280  211.5970  156.8540 C   0  0  0  0  0  2  0  0  0  0  0  0
  162.3610  209.4900  148.6360 N   0  0  0  0  0  1  0  0  0  0  0  0
  160.0950  212.8570  151.4350 C   0  0  0  0  0  0  0  0  0  0  0  0
  161.2110  212.9320  147.9710 C   0  0  0  0  0  3  0  0  0  0  0  0
  161.2430  211.1340  150.1710 C   0  0  0  0  0  0  0  0  0  0  0  0
  160.0050  212.0010  152.5690 N   0  0  0  0  0  0  0  0  0  0  0  0
  157.3690  214.1460  153.4070 O   0  0  0  0  0  0  0  0  0  0  0  0
  159.0320  212.4520  153.5570 C   0  0  1  0  0  3  0  0  0  0  0  0
  159.4660  212.6980  157.2610 C   0  0  0  0  0  2  0  0  0  0  0  0
  158.5510  209.9650  155.1000 C   0  0  0  0  0  1  0  0  0  0  0  0
  160.6500  213.3030  149.1830 C   0  0  0  0  0  3  0  0  0  0  0  0
  160.6460  212.4330  150.2830 C   0  0  0  0  0  0  0  0  0  0  0  0
  160.0510  210.2330  154.9470 C   0  0  2  0  0  3  0  0  0  0  0  0
  162.1430  206.7190  152.2200 O   0  0  0  0  0  0  0  0  0  0  0  0
  161.2010  204.5240  152.0400 C   0  0  0  0  0  1  0  0  0  0  0  0
  161.5190  205.8160  151.3180 C   0  0  0  0  0  2  0  0  0  0  0  0
  1  5  1  0  0  0  0
  1  4  1  0  0  0  0
  2 19  1  0  0  0  0
  3 10  1  0  0  0  0
  4 20  1  0  0  0  0
  4 12  2  0  0  0  0
  5 11  1  0  0  0  0
  7 15  1  1  0  0  0
  8 12  1  0  0  0  0
  8  6  1  0  0  0  0
  9  7  1  0  0  0  0
  9 14  1  1  0  0  0
 10 21  2  0  0  0  0
 11  8  2  0  0  0  0
 12 27  1  0  0  0  0
 13 18  1  0  0  0  0
 13  2  2  0  0  0  0
 14 23  1  0  0  0  0
 15 23  1  0  0  0  0
 16  2  1  0  0  0  0
 17  3  1  0  0  0  0
 17 20  1  0  0  0  0
 18 25  2  0  0  0  0
 19 26  1  0  0  0  0
 19  1  2  0  0  0  0
 20 22  1  0  0  0  0
 22 10  1  6  0  0  0
 22  9  1  0  0  0  0
 25 26  1  0  0  0  0
 26 17  2  0  0  0  0
 27 24  1  6  0  0  0
 27  7  1  0  0  0  0
 28 11  1  0  0  0  0
 30 29  1  0  0  0  0
 30 28  1  0  0  0  0
M  END
>  <MODEL>
1

>  <REMARK>
 VINA RESULT:      -5.8      0.000      0.000
  Name = 
  2 active torsions:
  status: ('A' for Active; 'I' for Inactive)
    1  A    between atoms: C_11  and  O_28
    2  A    between atoms: O_28  and  C_30
                            x       y       z     vdW  Elec       q    Type
                         _______ _______ _______ _____ _____    ______ ____

>  <TORSDO>
F 2

$$$$
=
 OpenBabel11122412383D

 30 35  0  0  1  0  0  0  0  0999 V2000
  161.1640  206.0800  150.3190 C   0  0  0  0  0  0  0  0  0  0  0  0
  161.0150  203.6220  150.3270 C   0  0  0  0  0  0  0  0  0  0  0  0
  160.6610  206.1000  154.9110 S   0  0  0  0  0  0  0  0  0  0  0  0
  161.2270  207.3650  151.0720 C   0  0  0  0  0  0  0  0  0  0  0  0
  161.0830  206.1550  148.8160 C   0  0  0  0  0  2  0  0  0  0  0  0
  162.2030  209.7990  148.3000 C   0  0  0  0  0  1  0  0  0  0  0  0
  160.2240  210.0250  152.0110 N   0  0  1  0  0  0  0  0  0  0  0  0
  161.7330  208.5370  148.9570 C   0  0  0  0  0  0  0  0  0  0  0  0
  160.4370  209.5000  153.3700 C   0  0  2  0  0  3  0  0  0  0  0  0
  161.4370  207.7030  154.7960 C   0  0  0  0  0  0  0  0  0  0  0  0
  161.6340  207.4200  148.2210 C   0  0  0  0  0  0  0  0  0  0  0  0
  161.4210  208.5370  150.4130 C   0  0  0  0  0  0  0  0  0  0  0  0
  160.8310  202.4430  151.0500 C   0  0  0  0  0  3  0  0  0  0  0  0
  160.8180  210.6640  154.2540 C   0  0  0  0  0  2  0  0  0  0  0  0
  159.9450  211.4520  152.1610 C   0  0  0  0  0  2  0  0  0  0  0  0
  161.2500  203.4800  148.9280 N   0  0  0  0  0  1  0  0  0  0  0  0
  160.8310  206.0340  153.1240 C   0  0  0  0  0  0  0  0  0  0  0  0
  160.6490  202.4670  152.4240 C   0  0  0  0  0  3  0  0  0  0  0  0
  161.0170  204.8920  150.9920 C   0  0  0  0  0  0  0  0  0  0  0  0
  161.0740  207.2910  152.5010 N   0  0  0  0  0  0  0  0  0  0  0  0
  162.0200  208.2000  155.7460 O   0  0  0  0  0  0  0  0  0  0  0  0
  161.4380  208.3410  153.4440 C   0  0  1  0  0  3  0  0  0  0  0  0
  160.1080  211.8300  153.6220 C   0  0  0  0  0  2  0  0  0  0  0  0
  162.7280  210.3270  151.6570 C   0  0  0  0  0  1  0  0  0  0  0  0
  160.6570  203.6790  153.0970 C   0  0  0  0  0  3  0  0  0  0  0  0
  160.8440  204.8900  152.4160 C   0  0  0  0  0  0  0  0  0  0  0  0
  161.3740  209.8830  151.0960 C   0  0  2  0  0  3  0  0  0  0  0  0
  161.9960  207.4520  146.8700 O   0  0  0  0  0  0  0  0  0  0  0  0
  160.5690  206.2030  145.4040 C   0  0  0  0  0  1  0  0  0  0  0  0
  161.9420  206.3020  146.0370 C   0  0  0  0  0  2  0  0  0  0  0  0
  1 19  2  0  0  0  0
  1  4  1  0  0  0  0
  2 19  1  0  0  0  0
  2 13  2  0  0  0  0
  4 20  1  0  0  0  0
  5  1  1  0  0  0  0
  6  8  1  0  0  0  0
  7 15  1  1  0  0  0
  7  9  1  0  0  0  0
  8 12  1  0  0  0  0
  9 22  1  0  0  0  0
  9 14  1  1  0  0  0
 10  3  1  0  0  0  0
 10 21  2  0  0  0  0
 11  5  1  0  0  0  0
 11  8  2  0  0  0  0
 12  4  2  0  0  0  0
 12 27  1  0  0  0  0
 13 18  1  0  0  0  0
 15 23  1  0  0  0  0
 16  2  1  0  0  0  0
 17  3  1  0  0  0  0
 18 25  2  0  0  0  0
 19 26  1  0  0  0  0
 20 17  1  0  0  0  0
 20 22  1  0  0  0  0
 22 10  1  1  0  0  0
 23 14  1  0  0  0  0
 26 25  1  0  0  0  0
 26 17  2  0  0  0  0
 27 24  1  1  0  0  0
 27  7  1  0  0  0  0
 28 11  1  0  0  0  0
 29 30  1  0  0  0  0
 30 28  1  0  0  0  0
M  END
>  <MODEL>
2

>  <REMARK>
 VINA RESULT:      -5.8      3.217      6.292
  Name = 
  2 active torsions:
  status: ('A' for Active; 'I' for Inactive)
    1  A    between atoms: C_11  and  O_28
    2  A    between atoms: O_28  and  C_30
                            x       y       z     vdW  Elec       q    Type
                         _______ _______ _______ _____ _____    ______ ____

>  <TORSDO>
F 2

$$$$
=
 OpenBabel11122412383D

 30 35  0  0  1  0  0  0  0  0999 V2000
  161.2720  210.6440  150.7320 C   0  0  0  0  0  0  0  0  0  0  0  0
  161.0170  212.3720  148.9950 C   0  0  0  0  0  0  0  0  0  0  0  0
  158.9930  213.3380  153.7130 S   0  0  0  0  0  0  0  0  0  0  0  0
  160.9740  210.1510  152.1070 C   0  0  0  0  0  0  0  0  0  0  0  0
  162.2250  209.8340  149.8910 C   0  0  0  0  0  2  0  0  0  0  0  0
  162.1790  206.5380  151.8750 C   0  0  0  0  0  1  0  0  0  0  0  0
  161.6240  209.3870  154.9270 N   0  0  1  0  0  0  0  0  0  0  0  0
  161.9820  207.9770  151.5060 C   0  0  0  0  0  0  0  0  0  0  0  0
  160.5820  210.3530  155.3100 C   0  0  2  0  0  3  0  0  0  0  0  0
  158.6810  211.8010  154.5650 C   0  0  0  0  0  0  0  0  0  0  0  0
  162.3230  208.3840  150.2750 C   0  0  0  0  0  0  0  0  0  0  0  0
  161.3800  208.9140  152.4940 C   0  0  0  0  0  0  0  0  0  0  0  0
  160.5650  213.6420  148.6380 C   0  0  0  0  0  3  0  0  0  0  0  0
  159.9360  209.8480  156.5790 C   0  0  0  0  0  2  0  0  0  0  0  0
  161.9730  208.6540  156.1430 C   0  0  0  0  0  2  0  0  0  0  0  0
  161.6260  211.6000  147.9630 N   0  0  0  0  0  1  0  0  0  0  0  0
  159.8910  212.3410  152.5180 C   0  0  0  0  0  0  0  0  0  0  0  0
  159.9110  214.4530  149.5540 C   0  0  0  0  0  3  0  0  0  0  0  0
  160.8180  211.8740  150.3250 C   0  0  0  0  0  0  0  0  0  0  0  0
  160.2500  211.0410  152.9740 N   0  0  0  0  0  0  0  0  0  0  0  0
  157.7360  211.6740  155.3260 O   0  0  0  0  0  0  0  0  0  0  0  0
  159.5660  210.6520  154.2020 C   0  0  1  0  0  3  0  0  0  0  0  0
  161.0460  209.0960  157.2610 C   0  0  0  0  0  2  0  0  0  0  0  0
  159.8790  207.7030  154.1500 C   0  0  0  0  0  1  0  0  0  0  0  0
  159.6930  213.9950  150.8440 C   0  0  0  0  0  3  0  0  0  0  0  0
  160.1240  212.7240  151.2490 C   0  0  0  0  0  0  0  0  0  0  0  0
  161.2200  208.4000  153.9060 C   0  0  2  0  0  3  0  0  0  0  0  0
  162.8290  207.4560  149.3580 O   0  0  0  0  0  0  0  0  0  0  0  0
  160.8700  206.5610  148.3070 C   0  0  0  0  0  1  0  0  0  0  0  0
  162.2190  207.2160  148.0970 C   0  0  0  0  0  2  0  0  0  0  0  0
  1  4  1  0  0  0  0
  2 19  1  0  0  0  0
  3 10  1  0  0  0  0
  4 12  2  0  0  0  0
  4 20  1  0  0  0  0
  5 11  1  0  0  0  0
  5  1  1  0  0  0  0
  7  9  1  0  0  0  0
  7 15  1  1  0  0  0
  8  6  1  0  0  0  0
  8 12  1  0  0  0  0
  9 14  1  1  0  0  0
 10 21  2  0  0  0  0
 11  8  2  0  0  0  0
 12 27  1  0  0  0  0
 13  2  2  0  0  0  0
 13 18  1  0  0  0  0
 14 23  1  0  0  0  0
 15 23  1  0  0  0  0
 16  2  1  0  0  0  0
 17 20  1  0  0  0  0
 17  3  1  0  0  0  0
 18 25  2  0  0  0  0
 19  1  2  0  0  0  0
 19 26  1  0  0  0  0
 20 22  1  0  0  0  0
 22 10  1  1  0  0  0
 22  9  1  0  0  0  0
 25 26  1  0  0  0  0
 26 17  2  0  0  0  0
 27 24  1  1  0  0  0
 27  7  1  0  0  0  0
 28 11  1  0  0  0  0
 30 29  1  0  0  0  0
 30 28  1  0  0  0  0
M  END
>  <MODEL>
3

>  <REMARK>
 VINA RESULT:      -5.6      1.773      2.494
  Name = 
  2 active torsions:
  status: ('A' for Active; 'I' for Inactive)
    1  A    between atoms: C_11  and  O_28
    2  A    between atoms: O_28  and  C_30
                            x       y       z     vdW  Elec       q    Type
                         _______ _______ _______ _____ _____    ______ ____

>  <TORSDO>
F 2

$$$$
=
 OpenBabel11122412383D

 30 35  0  0  1  0  0  0  0  0999 V2000
  161.5500  208.4710  151.4850 C   0  0  0  0  0  0  0  0  0  0  0  0
  161.3200  208.7980  153.9150 C   0  0  0  0  0  0  0  0  0  0  0  0
  160.9370  203.9290  152.0620 S   0  0  0  0  0  0  0  0  0  0  0  0
  161.5040  207.5670  150.3010 C   0  0  0  0  0  0  0  0  0  0  0  0
  161.9990  209.8920  151.2620 C   0  0  0  0  0  2  0  0  0  0  0  0
  161.5970  210.0910  147.4400 C   0  0  0  0  0  1  0  0  0  0  0  0
  162.6420  206.0480  147.9870 N   0  0  1  0  0  0  0  0  0  0  0  0
  161.7010  209.5440  148.8320 C   0  0  0  0  0  0  0  0  0  0  0  0
  162.0330  204.8620  148.6110 C   0  0  2  0  0  3  0  0  0  0  0  0
  160.4610  203.9700  150.3420 C   0  0  0  0  0  0  0  0  0  0  0  0
  161.8030  210.3980  149.8600 C   0  0  0  0  0  0  0  0  0  0  0  0
  161.6510  208.0720  149.0480 C   0  0  0  0  0  0  0  0  0  0  0  0
  161.1460  208.2360  155.1810 C   0  0  0  0  0  3  0  0  0  0  0  0
  161.6320  203.9180  147.5010 C   0  0  0  0  0  2  0  0  0  0  0  0
  163.0890  205.6300  146.6580 C   0  0  0  0  0  2  0  0  0  0  0  0
  161.4080  210.2190  153.8580 N   0  0  0  0  0  1  0  0  0  0  0  0
  161.1910  205.7000  151.8990 C   0  0  0  0  0  0  0  0  0  0  0  0
  160.9950  206.8660  155.3410 C   0  0  0  0  0  3  0  0  0  0  0  0
  161.3510  207.9670  152.7470 C   0  0  0  0  0  0  0  0  0  0  0  0
  161.2970  206.1670  150.5580 N   0  0  0  0  0  0  0  0  0  0  0  0
  159.7510  203.1070  149.8550 O   0  0  0  0  0  0  0  0  0  0  0  0
  160.8810  205.1800  149.5690 C   0  0  1  0  0  3  0  0  0  0  0  0
  162.6400  204.2010  146.4200 C   0  0  0  0  0  2  0  0  0  0  0  0
  160.3710  206.8880  147.1980 C   0  0  0  0  0  1  0  0  0  0  0  0
  161.0090  206.0390  154.2290 C   0  0  0  0  0  3  0  0  0  0  0  0
  161.1760  206.5560  152.9360 C   0  0  0  0  0  0  0  0  0  0  0  0
  161.7360  207.2020  147.8160 C   0  0  2  0  0  3  0  0  0  0  0  0
  161.7840  211.7760  149.6150 O   0  0  0  0  0  0  0  0  0  0  0  0
  160.3150  213.4550  148.7420 C   0  0  0  0  0  1  0  0  0  0  0  0
  160.6690  212.5940  149.9360 C   0  0  0  0  0  2  0  0  0  0  0  0
  1 19  2  0  0  0  0
  2 13  2  0  0  0  0
  4 20  1  0  0  0  0
  4  1  1  0  0  0  0
  5  1  1  0  0  0  0
  6  8  1  0  0  0  0
  7 15  1  6  0  0  0
  7  9  1  0  0  0  0
  8 12  1  0  0  0  0
  8 11  2  0  0  0  0
  9 14  1  6  0  0  0
  9 22  1  0  0  0  0
 10  3  1  0  0  0  0
 11  5  1  0  0  0  0
 12  4  2  0  0  0  0
 13 18  1  0  0  0  0
 16  2  1  0  0  0  0
 17  3  1  0  0  0  0
 17 26  2  0  0  0  0
 19 26  1  0  0  0  0
 19  2  1  0  0  0  0
 20 17  1  0  0  0  0
 21 10  2  0  0  0  0
 22 10  1  1  0  0  0
 22 20  1  0  0  0  0
 23 15  1  0  0  0  0
 23 14  1  0  0  0  0
 25 18  2  0  0  0  0
 26 25  1  0  0  0  0
 27 24  1  1  0  0  0
 27  7  1  0  0  0  0
 27 12  1  0  0  0  0
 28 11  1  0  0  0  0
 28 30  1  0  0  0  0
 29 30  1  0  0  0  0
M  END
>  <MODEL>
4

>  <REMARK>
 VINA RESULT:      -5.5      3.453      8.229
  Name = 
  2 active torsions:
  status: ('A' for Active; 'I' for Inactive)
    1  A    between atoms: C_11  and  O_28
    2  A    between atoms: O_28  and  C_30
                            x       y       z     vdW  Elec       q    Type
                         _______ _______ _______ _____ _____    ______ ____

>  <TORSDO>
F 2

$$$$
=
 OpenBabel11122412383D

 30 35  0  0  1  0  0  0  0  0999 V2000
  160.8820  210.2590  151.4900 C   0  0  0  0  0  0  0  0  0  0  0  0
  162.1570  208.4310  150.4430 C   0  0  0  0  0  0  0  0  0  0  0  0
  160.2650  207.6430  155.2470 S   0  0  0  0  0  0  0  0  0  0  0  0
  160.1720  210.8130  152.6780 C   0  0  0  0  0  0  0  0  0  0  0  0
  160.8370  211.0580  150.2140 C   0  0  0  0  0  2  0  0  0  0  0  0
  159.7090  214.4530  151.6310 C   0  0  0  0  0  1  0  0  0  0  0  0
  157.7980  211.7540  154.2380 N   0  0  1  0  0  0  0  0  0  0  0  0
  160.0120  212.9900  151.5200 C   0  0  0  0  0  0  0  0  0  0  0  0
  158.2140  210.7700  155.2510 C   0  0  2  0  0  3  0  0  0  0  0  0
  159.9980  209.2100  156.0580 C   0  0  0  0  0  0  0  0  0  0  0  0
  160.5950  212.5300  150.4040 C   0  0  0  0  0  0  0  0  0  0  0  0
  159.6940  212.0850  152.6590 C   0  0  0  0  0  0  0  0  0  0  0  0
  162.6450  207.1260  150.5160 C   0  0  0  0  0  3  0  0  0  0  0  0
  157.8290  211.3180  156.6050 C   0  0  0  0  0  2  0  0  0  0  0  0
  156.7510  212.5650  154.8600 C   0  0  0  0  0  2  0  0  0  0  0  0
  162.4890  209.1680  149.2690 N   0  0  0  0  0  1  0  0  0  0  0  0
  160.5170  208.6080  153.7530 C   0  0  0  0  0  0  0  0  0  0  0  0
  162.4240  206.3410  151.6380 C   0  0  0  0  0  3  0  0  0  0  0  0
  161.4080  208.9920  151.5290 C   0  0  0  0  0  0  0  0  0  0  0  0
  160.0300  209.9440  153.8150 N   0  0  0  0  0  0  0  0  0  0  0  0
  160.1540  209.3420  157.2610 O   0  0  0  0  0  0  0  0  0  0  0  0
  159.6920  210.3720  155.1680 C   0  0  1  0  0  3  0  0  0  0  0  0
  156.6100  212.1490  156.3120 C   0  0  0  0  0  2  0  0  0  0  0  0
  159.6990  213.3240  154.8780 C   0  0  0  0  0  1  0  0  0  0  0  0
  161.7140  206.8590  152.7090 C   0  0  0  0  0  3  0  0  0  0  0  0
  161.2070  208.1670  152.6850 C   0  0  0  0  0  0  0  0  0  0  0  0
  158.8620  212.6680  153.7770 C   0  0  2  0  0  3  0  0  0  0  0  0
  160.9320  213.4260  149.3830 O   0  0  0  0  0  0  0  0  0  0  0  0
  162.6980  213.0270  147.8140 C   0  0  0  0  0  1  0  0  0  0  0  0
  161.2030  213.0050  148.0540 C   0  0  0  0  0  2  0  0  0  0  0  0
  1 19  2  0  0  0  0
  1  4  1  0  0  0  0
  2 13  2  0  0  0  0
  2 19  1  0  0  0  0
  3 10  1  0  0  0  0
  4 20  1  0  0  0  0
  5 11  1  0  0  0  0
  5  1  1  0  0  0  0
  7 15  1  1  0  0  0
  7  9  1  0  0  0  0
  8  6  1  0  0  0  0
  8 12  1  0  0  0  0
  9 14  1  1  0  0  0
 10 21  2  0  0  0  0
 11  8  2  0  0  0  0
 12  4  2  0  0  0  0
 12 27  1  0  0  0  0
 13 18  1  0  0  0  0
 15 23  1  0  0  0  0
 16  2  1  0  0  0  0
 17 20  1  0  0  0  0
 17  3  1  0  0  0  0
 18 25  2  0  0  0  0
 19 26  1  0  0  0  0
 20 22  1  0  0  0  0
 22  9  1  0  0  0  0
 22 10  1  1  0  0  0
 23 14  1  0  0  0  0
 26 25  1  0  0  0  0
 26 17  2  0  0  0  0
 27  7  1  0  0  0  0
 27 24  1  1  0  0  0
 28 11  1  0  0  0  0
 29 30  1  0  0  0  0
 30 28  1  0  0  0  0
M  END
>  <MODEL>
5

>  <REMARK>
 VINA RESULT:      -4.8      2.412      5.023
  Name = 
  2 active torsions:
  status: ('A' for Active; 'I' for Inactive)
    1  A    between atoms: C_11  and  O_28
    2  A    between atoms: O_28  and  C_30
                            x       y       z     vdW  Elec       q    Type
                         _______ _______ _______ _____ _____    ______ ____

>  <TORSDO>
F 2

$$$$
=
 OpenBabel11122412383D

 30 35  0  0  1  0  0  0  0  0999 V2000
  161.5730  209.3090  151.0620 C   0  0  0  0  0  0  0  0  0  0  0  0
  161.9840  209.8260  148.6890 C   0  0  0  0  0  0  0  0  0  0  0  0
  160.0870  213.6330  151.7210 S   0  0  0  0  0  0  0  0  0  0  0  0
  161.0530  209.7250  152.3950 C   0  0  0  0  0  0  0  0  0  0  0  0
  162.2710  207.9770  150.9690 C   0  0  0  0  0  2  0  0  0  0  0  0
  161.0650  206.3980  154.2640 C   0  0  0  0  0  1  0  0  0  0  0  0
  161.2560  210.4790  155.2840 N   0  0  1  0  0  0  0  0  0  0  0  0
  161.3560  207.4070  153.1950 C   0  0  0  0  0  0  0  0  0  0  0  0
  160.5510  211.7120  154.8960 C   0  0  2  0  0  3  0  0  0  0  0  0
  159.2540  212.9260  153.1330 C   0  0  0  0  0  0  0  0  0  0  0  0
  161.8820  206.9900  152.0340 C   0  0  0  0  0  0  0  0  0  0  0  0
  161.0220  208.8390  153.4250 C   0  0  0  0  0  0  0  0  0  0  0  0
  161.9790  210.7650  147.6580 C   0  0  0  0  0  3  0  0  0  0  0  0
  159.7020  212.1420  156.0700 C   0  0  0  0  0  2  0  0  0  0  0  0
  161.2800  210.4630  156.7470 C   0  0  0  0  0  2  0  0  0  0  0  0
  162.3790  208.5020  148.3410 N   0  0  0  0  0  1  0  0  0  0  0  0
  160.6950  211.9710  151.4120 C   0  0  0  0  0  0  0  0  0  0  0  0
  161.5610  212.0690  147.8780 C   0  0  0  0  0  3  0  0  0  0  0  0
  161.5570  210.1900  150.0090 C   0  0  0  0  0  0  0  0  0  0  0  0
  160.5960  211.0830  152.5210 N   0  0  0  0  0  0  0  0  0  0  0  0
  158.2730  213.4560  153.6270 O   0  0  0  0  0  0  0  0  0  0  0  0
  159.7510  211.5930  153.5940 C   0  0  1  0  0  3  0  0  0  0  0  0
  160.4740  211.6420  157.2610 C   0  0  0  0  0  2  0  0  0  0  0  0
  159.1180  209.1090  155.0870 C   0  0  0  0  0  1  0  0  0  0  0  0
  161.1320  212.4480  149.1410 C   0  0  0  0  0  3  0  0  0  0  0  0
  161.1130  211.5390  150.2090 C   0  0  0  0  0  0  0  0  0  0  0  0
  160.6220  209.2260  154.8300 C   0  0  2  0  0  3  0  0  0  0  0  0
  162.1230  205.6250  151.8380 O   0  0  0  0  0  0  0  0  0  0  0  0
  160.8780  203.5970  151.5620 C   0  0  0  0  0  1  0  0  0  0  0  0
  161.4010  204.8500  150.8920 C   0  0  0  0  0  2  0  0  0  0  0  0
  1  4  1  0  0  0  0
  2 19  1  0  0  0  0
  3 10  1  0  0  0  0
  4 20  1  0  0  0  0
  4 12  2  0  0  0  0
  5  1  1  0  0  0  0
  5 11  1  0  0  0  0
  7 15  1  1  0  0  0
  8 12  1  0  0  0  0
  8  6  1  0  0  0  0
  9  7  1  0  0  0  0
  9 14  1  1  0  0  0
 10 21  2  0  0  0  0
 11  8  2  0  0  0  0
 12 27  1  0  0  0  0
 13 18  1  0  0  0  0
 13  2  2  0  0  0  0
 14 23  1  0  0  0  0
 15 23  1  0  0  0  0
 16  2  1  0  0  0  0
 17  3  1  0  0  0  0
 17 20  1  0  0  0  0
 18 25  2  0  0  0  0
 19 26  1  0  0  0  0
 19  1  2  0  0  0  0
 20 22  1  0  0  0  0
 22 10  1  6  0  0  0
 22  9  1  0  0  0  0
 25 26  1  0  0  0  0
 26 17  2  0  0  0  0
 27 24  1  6  0  0  0
 27  7  1  0  0  0  0
 28 11  1  0  0  0  0
 30 29  1  0  0  0  0
 30 28  1  0  0  0  0
M  END
>  <MODEL>
6

>  <REMARK>
 VINA RESULT:      -4.8      1.030      1.129
  Name = 
  2 active torsions:
  status: ('A' for Active; 'I' for Inactive)
    1  A    between atoms: C_11  and  O_28
    2  A    between atoms: O_28  and  C_30
                            x       y       z     vdW  Elec       q    Type
                         _______ _______ _______ _____ _____    ______ ____

>  <TORSDO>
F 2

$$$$
=
 OpenBabel11122412383D

 30 35  0  0  1  0  0  0  0  0999 V2000
  161.3500  207.9440  151.2700 C   0  0  0  0  0  0  0  0  0  0  0  0
  161.6510  210.3300  150.7440 C   0  0  0  0  0  0  0  0  0  0  0  0
  161.9560  206.9090  146.8090 S   0  0  0  0  0  0  0  0  0  0  0  0
  161.3580  206.5200  150.8280 C   0  0  0  0  0  0  0  0  0  0  0  0
  160.9030  208.2350  152.6800 C   0  0  0  0  0  2  0  0  0  0  0  0
  161.1960  204.7040  154.1800 C   0  0  0  0  0  1  0  0  0  0  0  0
  160.1460  203.8590  150.1900 N   0  0  1  0  0  0  0  0  0  0  0  0
  161.1290  205.8250  153.1870 C   0  0  0  0  0  0  0  0  0  0  0  0
  160.7660  204.0200  148.8640 C   0  0  2  0  0  3  0  0  0  0  0  0
  162.3820  205.2950  147.4410 C   0  0  0  0  0  0  0  0  0  0  0  0
  161.0600  207.0860  153.6360 C   0  0  0  0  0  0  0  0  0  0  0  0
  161.1770  205.5210  151.7310 C   0  0  0  0  0  0  0  0  0  0  0  0
  161.8590  211.3210  149.7830 C   0  0  0  0  0  3  0  0  0  0  0  0
  161.1310  202.6430  148.3610 C   0  0  0  0  0  2  0  0  0  0  0  0
  159.6590  202.4810  150.2510 C   0  0  0  0  0  2  0  0  0  0  0  0
  161.5690  210.7670  152.0980 N   0  0  0  0  0  1  0  0  0  0  0  0
  161.7060  207.3700  148.5270 C   0  0  0  0  0  0  0  0  0  0  0  0
  162.0060  210.9970  148.4420 C   0  0  0  0  0  3  0  0  0  0  0  0
  161.5820  208.9490  150.3650 C   0  0  0  0  0  0  0  0  0  0  0  0
  161.5650  206.2750  149.4260 N   0  0  0  0  0  0  0  0  0  0  0  0
  163.0750  204.5210  146.8000 O   0  0  0  0  0  0  0  0  0  0  0  0
  161.9480  204.9960  148.8400 C   0  0  1  0  0  3  0  0  0  0  0  0
  160.0940  201.7540  148.9920 C   0  0  0  0  0  2  0  0  0  0  0  0
  162.3980  203.3420  151.2610 C   0  0  0  0  0  1  0  0  0  0  0  0
  161.9560  209.6690  148.0470 C   0  0  0  0  0  3  0  0  0  0  0  0
  161.7550  208.6380  148.9760 C   0  0  0  0  0  0  0  0  0  0  0  0
  161.0530  204.0680  151.3360 C   0  0  2  0  0  3  0  0  0  0  0  0
  161.0790  207.3290  155.0150 O   0  0  0  0  0  0  0  0  0  0  0  0
  160.0810  206.9990  157.1680 C   0  0  0  0  0  1  0  0  0  0  0  0
  159.8960  207.5490  155.7690 C   0  0  0  0  0  2  0  0  0  0  0  0
  1  5  1  0  0  0  0
  2 16  1  0  0  0  0
  3 10  1  0  0  0  0
  3 17  1  0  0  0  0
  4  1  1  0  0  0  0
  4 12  2  0  0  0  0
  5 11  1  0  0  0  0
  7 15  1  6  0  0  0
  7 27  1  0  0  0  0
  8 11  2  0  0  0  0
  8  6  1  0  0  0  0
  9 14  1  1  0  0  0
  9  7  1  0  0  0  0
 11 28  1  0  0  0  0
 12  8  1  0  0  0  0
 13  2  2  0  0  0  0
 14 23  1  0  0  0  0
 17 26  2  0  0  0  0
 17 20  1  0  0  0  0
 18 13  1  0  0  0  0
 19  2  1  0  0  0  0
 19  1  2  0  0  0  0
 20  4  1  0  0  0  0
 21 10  2  0  0  0  0
 22 10  1  6  0  0  0
 22  9  1  0  0  0  0
 22 20  1  0  0  0  0
 23 15  1  0  0  0  0
 25 18  2  0  0  0  0
 25 26  1  0  0  0  0
 26 19  1  0  0  0  0
 27 24  1  6  0  0  0
 27 12  1  0  0  0  0
 28 30  1  0  0  0  0
 30 29  1  0  0  0  0
M  END
>  <MODEL>
7

>  <REMARK>
 VINA RESULT:      -4.8      3.611      7.220
  Name = 
  2 active torsions:
  status: ('A' for Active; 'I' for Inactive)
    1  A    between atoms: C_11  and  O_28
    2  A    between atoms: O_28  and  C_30
                            x       y       z     vdW  Elec       q    Type
                         _______ _______ _______ _____ _____    ______ ____

>  <TORSDO>
F 2

$$$$
=
 OpenBabel11122412383D

 30 35  0  0  1  0  0  0  0  0999 V2000
  161.5190  207.7850  149.3310 C   0  0  0  0  0  0  0  0  0  0  0  0
  161.6710  205.8940  147.7610 C   0  0  0  0  0  0  0  0  0  0  0  0
  160.7470  204.8210  152.7890 S   0  0  0  0  0  0  0  0  0  0  0  0
  161.3810  208.2870  150.7280 C   0  0  0  0  0  0  0  0  0  0  0  0
  161.5190  208.8030  148.2200 C   0  0  0  0  0  2  0  0  0  0  0  0
  162.2160  211.9820  150.2730 C   0  0  0  0  0  1  0  0  0  0  0  0
  160.0080  209.6600  153.0060 N   0  0  1  0  0  0  0  0  0  0  0  0
  161.8650  210.5690  149.9170 C   0  0  0  0  0  0  0  0  0  0  0  0
  160.2030  208.3970  153.7370 C   0  0  2  0  0  3  0  0  0  0  0  0
  161.3290  206.1630  153.8120 C   0  0  0  0  0  0  0  0  0  0  0  0
  161.9460  210.1830  148.6350 C   0  0  0  0  0  0  0  0  0  0  0  0
  161.4700  209.6170  150.9900 C   0  0  0  0  0  0  0  0  0  0  0  0
  161.5890  204.5180  147.5440 C   0  0  0  0  0  3  0  0  0  0  0  0
  160.3860  208.7390  155.1970 C   0  0  0  0  0  2  0  0  0  0  0  0
  159.5500  210.6390  153.9910 C   0  0  0  0  0  2  0  0  0  0  0  0
  162.0030  206.6970  146.6320 N   0  0  0  0  0  1  0  0  0  0  0  0
  161.0300  205.9290  151.4030 C   0  0  0  0  0  0  0  0  0  0  0  0
  161.3240  203.6430  148.5860 C   0  0  0  0  0  3  0  0  0  0  0  0
  161.4790  206.4370  149.0740 C   0  0  0  0  0  0  0  0  0  0  0  0
  161.1550  207.3030  151.7530 N   0  0  0  0  0  0  0  0  0  0  0  0
  161.7890  205.9650  154.9240 O   0  0  0  0  0  0  0  0  0  0  0  0
  161.3310  207.5200  153.1840 C   0  0  1  0  0  3  0  0  0  0  0  0
  159.5790  209.9970  155.3660 C   0  0  0  0  0  2  0  0  0  0  0  0
  162.4730  210.2570  153.2360 C   0  0  0  0  0  1  0  0  0  0  0  0
  161.1450  204.1370  149.8690 C   0  0  0  0  0  3  0  0  0  0  0  0
  161.2230  205.5110  150.1390 C   0  0  0  0  0  0  0  0  0  0  0  0
  161.2190  210.2030  152.3600 C   0  0  2  0  0  3  0  0  0  0  0  0
  162.3810  211.0960  147.6670 O   0  0  0  0  0  0  0  0  0  0  0  0
  162.3980  213.3070  146.7430 C   0  0  0  0  0  1  0  0  0  0  0  0
  161.5460  212.1250  147.1570 C   0  0  0  0  0  2  0  0  0  0  0  0
  1  4  1  0  0  0  0
  2 19  1  0  0  0  0
  3 10  1  0  0  0  0
  4 12  2  0  0  0  0
  4 20  1  0  0  0  0
  5 11  1  0  0  0  0
  5  1  1  0  0  0  0
  7  9  1  0  0  0  0
  7 15  1  1  0  0  0
  8  6  1  0  0  0  0
  8 12  1  0  0  0  0
  9 14  1  1  0  0  0
 10 21  2  0  0  0  0
 11  8  2  0  0  0  0
 12 27  1  0  0  0  0
 13  2  2  0  0  0  0
 13 18  1  0  0  0  0
 14 23  1  0  0  0  0
 15 23  1  0  0  0  0
 16  2  1  0  0  0  0
 17 20  1  0  0  0  0
 17  3  1  0  0  0  0
 18 25  2  0  0  0  0
 19  1  2  0  0  0  0
 19 26  1  0  0  0  0
 20 22  1  0  0  0  0
 22  9  1  0  0  0  0
 22 10  1  1  0  0  0
 25 26  1  0  0  0  0
 26 17  2  0  0  0  0
 27  7  1  0  0  0  0
 27 24  1  1  0  0  0
 28 11  1  0  0  0  0
 29 30  1  0  0  0  0
 30 28  1  0  0  0  0
M  END
>  <MODEL>
8

>  <REMARK>
 VINA RESULT:      -4.5      3.035      6.060
  Name = 
  2 active torsions:
  status: ('A' for Active; 'I' for Inactive)
    1  A    between atoms: C_11  and  O_28
    2  A    between atoms: O_28  and  C_30
                            x       y       z     vdW  Elec       q    Type
                         _______ _______ _______ _____ _____    ______ ____

>  <TORSDO>
F 2

$$$$
=
 OpenBabel11122412383D

 30 35  0  0  1  0  0  0  0  0999 V2000
  161.0870  209.9710  152.1700 C   0  0  0  0  0  0  0  0  0  0  0  0
  161.9430  209.9020  149.8620 C   0  0  0  0  0  0  0  0  0  0  0  0
  159.4920  214.2420  151.4240 S   0  0  0  0  0  0  0  0  0  0  0  0
  160.3200  210.6790  153.2340 C   0  0  0  0  0  0  0  0  0  0  0  0
  161.7930  208.6950  152.5480 C   0  0  0  0  0  2  0  0  0  0  0  0
  159.9820  207.9260  155.8550 C   0  0  0  0  0  1  0  0  0  0  0  0
  159.9640  212.1370  155.8240 N   0  0  1  0  0  0  0  0  0  0  0  0
  160.4690  208.6510  154.6370 C   0  0  0  0  0  0  0  0  0  0  0  0
  159.3440  213.1970  155.0120 C   0  0  2  0  0  3  0  0  0  0  0  0
  158.4060  213.8670  152.7900 C   0  0  0  0  0  0  0  0  0  0  0  0
  161.2090  207.9860  153.7380 C   0  0  0  0  0  0  0  0  0  0  0  0
  160.0940  210.0770  154.4310 C   0  0  0  0  0  0  0  0  0  0  0  0
  162.1340  210.5550  148.6430 C   0  0  0  0  0  3  0  0  0  0  0  0
  158.2850  213.8620  155.8610 C   0  0  0  0  0  2  0  0  0  0  0  0
  159.7080  212.4860  157.2200 C   0  0  0  0  0  2  0  0  0  0  0  0
  162.4010  208.5550  149.9400 N   0  0  0  0  0  1  0  0  0  0  0  0
  160.1520  212.5890  151.6650 C   0  0  0  0  0  0  0  0  0  0  0  0
  161.6780  211.8490  148.4450 C   0  0  0  0  0  3  0  0  0  0  0  0
  161.2710  210.5610  150.9440 C   0  0  0  0  0  0  0  0  0  0  0  0
  159.8440  212.0010  152.9250 N   0  0  0  0  0  0  0  0  0  0  0  0
  157.3470  214.4530  152.9430 O   0  0  0  0  0  0  0  0  0  0  0  0
  158.8080  212.7180  153.6580 C   0  0  1  0  0  3  0  0  0  0  0  0
  158.8160  213.7130  157.2610 C   0  0  0  0  0  2  0  0  0  0  0  0
  157.9070  210.6540  155.5890 C   0  0  0  0  0  1  0  0  0  0  0  0
  161.0150  212.5070  149.4680 C   0  0  0  0  0  3  0  0  0  0  0  0
  160.7940  211.8930  150.7090 C   0  0  0  0  0  0  0  0  0  0  0  0
  159.4320  210.7790  155.5930 C   0  0  2  0  0  3  0  0  0  0  0  0
  161.4860  206.6290  153.9430 O   0  0  0  0  0  0  0  0  0  0  0  0
  161.9270  205.2860  152.0080 C   0  0  0  0  0  1  0  0  0  0  0  0
  160.9480  205.6060  153.1170 C   0  0  0  0  0  2  0  0  0  0  0  0
  1  5  1  0  0  0  0
  1  4  1  0  0  0  0
  2 16  1  0  0  0  0
  2 19  1  0  0  0  0
  3 17  1  0  0  0  0
  3 10  1  0  0  0  0
  4 12  2  0  0  0  0
  5 11  1  0  0  0  0
  7 15  1  1  0  0  0
  8  6  1  0  0  0  0
  9  7  1  0  0  0  0
  9 14  1  1  0  0  0
 10 21  2  0  0  0  0
 11 28  1  0  0  0  0
 11  8  2  0  0  0  0
 12  8  1  0  0  0  0
 12 27  1  0  0  0  0
 13  2  2  0  0  0  0
 14 23  1  0  0  0  0
 15 23  1  0  0  0  0
 17 20  1  0  0  0  0
 18 13  1  0  0  0  0
 18 25  2  0  0  0  0
 19  1  2  0  0  0  0
 20  4  1  0  0  0  0
 20 22  1  0  0  0  0
 22 10  1  6  0  0  0
 22  9  1  0  0  0  0
 25 26  1  0  0  0  0
 26 19  1  0  0  0  0
 26 17  2  0  0  0  0
 27 24  1  6  0  0  0
 27  7  1  0  0  0  0
 29 30  1  0  0  0  0
 30 28  1  0  0  0  0
M  END
>  <MODEL>
9

>  <REMARK>
 VINA RESULT:      -4.4      0.943      1.120
  Name = 
  2 active torsions:
  status: ('A' for Active; 'I' for Inactive)
    1  A    between atoms: C_11  and  O_28
    2  A    between atoms: O_28  and  C_30
                            x       y       z     vdW  Elec       q    Type
                         _______ _______ _______ _____ _____    ______ ____

>  <TORSDO>
F 2

$$$$
