=
 OpenBabel11122414183D

 34 40  0  0  1  0  0  0  0  0999 V2000
  160.9620  207.9570  154.2900 C   0  0  0  0  0  0  0  0  0  0  0  0
  161.7830  205.8600  153.1570 C   0  0  0  0  0  3  0  0  0  0  0  0
  157.5160  213.4510  154.0770 C   0  0  0  0  0  0  0  0  0  0  0  0
  159.7790  209.9110  155.0620 C   0  0  0  0  0  0  0  0  0  0  0  0
  159.5600  211.9540  153.5050 C   0  0  2  0  0  3  0  0  0  0  0  0
  159.2710  214.2280  152.4870 C   0  0  0  0  0  1  0  0  0  0  0  0
  156.3430  213.4670  153.7420 O   0  0  0  0  0  0  0  0  0  0  0  0
  159.3300  213.6820  155.8340 C   0  0  0  0  0  2  0  0  0  0  0  0
  162.1270  207.8990  152.0380 C   0  0  2  0  0  3  0  0  0  0  0  0
  161.3070  207.6970  149.0660 N   0  0  0  0  0  0  0  0  0  0  0  0
  159.7210  210.9250  152.3930 C   0  0  0  0  0  2  0  0  0  0  0  0
  159.6650  212.2020  156.0330 C   0  0  0  0  0  2  0  0  0  0  0  0
  161.1260  208.9880  151.5960 C   0  0  1  0  0  3  0  0  0  0  0  0
  162.1610  205.5060  151.9430 C   0  0  0  0  0  3  0  0  0  0  0  0
  159.2250  211.3040  154.8690 C   0  0  2  0  0  3  0  0  0  0  0  0
  157.8630  213.8930  155.4780 C   0  0  0  0  0  2  0  0  0  0  0  0
  161.3660  206.6920  149.8920 C   0  0  0  0  0  0  0  0  0  0  0  0
  160.5120  209.2610  154.0500 C   0  0  0  0  0  0  0  0  0  0  0  0
  158.5480  213.0230  153.0560 C   0  0  2  0  0  3  0  0  0  0  0  0
  160.8470  209.9660  152.7540 C   0  0  2  0  0  3  0  0  0  0  0  0
  159.9350  207.9720  156.4180 C   0  0  0  0  0  3  0  0  0  0  0  0
  162.1260  208.8950  149.2170 C   0  0  0  0  0  2  0  0  0  0  0  0
  159.5000  209.2420  156.2140 N   0  0  0  0  0  0  0  0  0  0  0  0
  161.6370  209.7690  150.3750 C   0  0  0  0  0  2  0  0  0  0  0  0
  162.3300  206.7130  151.0640 C   0  0  1  0  0  3  0  0  0  0  0  0
  160.6580  207.3370  155.4610 N   0  0  0  0  0  0  0  0  0  0  0  0
  161.6860  207.2680  153.2700 N   0  0  0  0  0  0  0  0  0  0  0  0
  160.5440  205.5770  149.6940 O   0  0  0  0  0  0  0  0  0  0  0  0
  160.6680  204.7310  148.5580 C   0  0  0  0  0  2  0  0  0  0  0  0
  160.4800  201.3680  149.9170 N   0  0  0  0  0  2  0  0  0  0  0  0
  161.1720  202.4030  147.8610 C   0  0  0  0  0  2  0  0  0  0  0  0
  161.3070  203.4170  148.9600 C   0  0  2  0  0  3  0  0  0  0  0  0
  161.0300  201.0920  148.5950 C   0  0  0  0  0  2  0  0  0  0  0  0
  160.5590  202.8110  150.1230 C   0  0  0  0  0  2  0  0  0  0  0  0
  1 26  1  0  0  0  0
  2 27  1  0  0  0  0
  3 16  1  0  0  0  0
  4 23  2  0  0  0  0
  5 11  1  6  0  0  0
  5 15  1  0  0  0  0
  7  3  2  0  0  0  0
  8 12  1  0  0  0  0
  9 27  1  1  0  0  0
 10 22  1  0  0  0  0
 10 17  2  0  0  0  0
 13 24  1  6  0  0  0
 13  9  1  0  0  0  0
 13 20  1  0  0  0  0
 14  2  2  0  0  0  0
 15  4  1  0  0  0  0
 15 12  1  1  0  0  0
 16  8  1  0  0  0  0
 17 25  1  0  0  0  0
 18  1  2  0  0  0  0
 18  4  1  0  0  0  0
 19  6  1  1  0  0  0
 19  5  1  0  0  0  0
 19  3  1  0  0  0  0
 20 11  1  6  0  0  0
 20 18  1  0  0  0  0
 22 24  1  0  0  0  0
 23 21  1  0  0  0  0
 25 14  1  1  0  0  0
 25  9  1  0  0  0  0
 26 21  2  0  0  0  0
 27  1  1  0  0  0  0
 28 17  1  0  0  0  0
 29 28  1  0  0  0  0
 30 34  1  0  0  0  0
 31 33  1  0  0  0  0
 31 32  1  0  0  0  0
 32 29  1  6  0  0  0
 32 34  1  0  0  0  0
 33 30  1  0  0  0  0
M  END
>  <MODEL>
1

>  <REMARK>
 VINA RESULT:      -9.2      0.000      0.000
  Name = 
  3 active torsions:
  status: ('A' for Active; 'I' for Inactive)
    1  A    between atoms: C_17  and  O_28
    2  A    between atoms: O_28  and  C_29
    3  A    between atoms: C_29  and  C_32
                            x       y       z     vdW  Elec       q    Type
                         _______ _______ _______ _____ _____    ______ ____

>  <TORSDO>
F 3

$$$$
=
 OpenBabel11122414183D

 34 40  0  0  1  0  0  0  0  0999 V2000
  160.9230  207.7030  154.2770 C   0  0  0  0  0  0  0  0  0  0  0  0
  161.7630  205.7460  152.9300 C   0  0  0  0  0  3  0  0  0  0  0  0
  157.4250  213.1570  154.6420 C   0  0  0  0  0  0  0  0  0  0  0  0
  159.7220  209.5550  155.2490 C   0  0  0  0  0  0  0  0  0  0  0  0
  159.4830  211.7480  153.9170 C   0  0  2  0  0  3  0  0  0  0  0  0
  159.1720  214.1140  153.1430 C   0  0  0  0  0  1  0  0  0  0  0  0
  156.2520  213.1980  154.3100 O   0  0  0  0  0  0  0  0  0  0  0  0
  159.2380  213.2190  156.4150 C   0  0  0  0  0  2  0  0  0  0  0  0
  162.0870  207.8940  152.0320 C   0  0  2  0  0  3  0  0  0  0  0  0
  161.2670  207.9990  149.0550 N   0  0  0  0  0  0  0  0  0  0  0  0
  159.6530  210.8440  152.7020 C   0  0  0  0  0  2  0  0  0  0  0  0
  159.5870  211.7290  156.4560 C   0  0  0  0  0  2  0  0  0  0  0  0
  161.0750  209.0150  151.7060 C   0  0  1  0  0  3  0  0  0  0  0  0
  162.1440  205.5260  151.6850 C   0  0  0  0  0  3  0  0  0  0  0  0
  159.1550  210.9550  155.2040 C   0  0  2  0  0  3  0  0  0  0  0  0
  157.7680  213.4520  156.0820 C   0  0  0  0  0  2  0  0  0  0  0  0
  161.3360  206.9130  149.7700 C   0  0  0  0  0  0  0  0  0  0  0  0
  160.4600  209.0220  154.1750 C   0  0  0  0  0  0  0  0  0  0  0  0
  158.4600  212.8490  153.5820 C   0  0  2  0  0  3  0  0  0  0  0  0
  160.7880  209.8620  152.9610 C   0  0  2  0  0  3  0  0  0  0  0  0
  159.8970  207.4850  156.3940 C   0  0  0  0  0  3  0  0  0  0  0  0
  162.0750  209.1820  149.3320 C   0  0  0  0  0  2  0  0  0  0  0  0
  159.4500  208.7660  156.3240 N   0  0  0  0  0  0  0  0  0  0  0  0
  161.5790  209.9250  150.5750 C   0  0  0  0  0  2  0  0  0  0  0  0
  162.3010  206.8190  150.9380 C   0  0  1  0  0  3  0  0  0  0  0  0
  160.6250  206.9610  155.3760 N   0  0  0  0  0  0  0  0  0  0  0  0
  161.6530  207.1330  153.1900 N   0  0  0  0  0  0  0  0  0  0  0  0
  160.5250  205.8180  149.4550 O   0  0  0  0  0  0  0  0  0  0  0  0
  160.9500  204.7820  148.5790 C   0  0  0  0  0  2  0  0  0  0  0  0
  162.3370  204.5210  145.2320 N   0  0  0  0  0  2  0  0  0  0  0  0
  160.6500  205.8210  146.3440 C   0  0  0  0  0  2  0  0  0  0  0  0
  161.6500  205.3800  147.3740 C   0  0  2  0  0  3  0  0  0  0  0  0
  161.3520  205.5780  145.0310 C   0  0  0  0  0  2  0  0  0  0  0  0
  162.4680  204.3220  146.6720 C   0  0  0  0  0  2  0  0  0  0  0  0
  1 26  1  0  0  0  0
  2 27  1  0  0  0  0
  3 16  1  0  0  0  0
  4 23  2  0  0  0  0
  5 11  1  6  0  0  0
  5 15  1  0  0  0  0
  7  3  2  0  0  0  0
  8 12  1  0  0  0  0
  9 27  1  1  0  0  0
 10 22  1  0  0  0  0
 10 17  2  0  0  0  0
 13 24  1  6  0  0  0
 13  9  1  0  0  0  0
 13 20  1  0  0  0  0
 14  2  2  0  0  0  0
 15  4  1  0  0  0  0
 15 12  1  1  0  0  0
 16  8  1  0  0  0  0
 17 25  1  0  0  0  0
 18  1  2  0  0  0  0
 18  4  1  0  0  0  0
 19  6  1  1  0  0  0
 19  5  1  0  0  0  0
 19  3  1  0  0  0  0
 20 11  1  6  0  0  0
 20 18  1  0  0  0  0
 22 24  1  0  0  0  0
 23 21  1  0  0  0  0
 25 14  1  1  0  0  0
 25  9  1  0  0  0  0
 26 21  2  0  0  0  0
 27  1  1  0  0  0  0
 28 17  1  0  0  0  0
 29 28  1  0  0  0  0
 30 34  1  0  0  0  0
 31 32  1  0  0  0  0
 32 29  1  1  0  0  0
 33 30  1  0  0  0  0
 33 31  1  0  0  0  0
 34 32  1  0  0  0  0
M  END
>  <MODEL>
2

>  <REMARK>
 VINA RESULT:      -8.5      1.426      1.817
  Name = 
  3 active torsions:
  status: ('A' for Active; 'I' for Inactive)
    1  A    between atoms: C_17  and  O_28
    2  A    between atoms: O_28  and  C_29
    3  A    between atoms: C_29  and  C_32
                            x       y       z     vdW  Elec       q    Type
                         _______ _______ _______ _____ _____    ______ ____

>  <TORSDO>
F 3

$$$$
=
 OpenBabel11122414183D

 34 40  0  0  1  0  0  0  0  0999 V2000
  161.6700  207.8150  149.4730 C   0  0  0  0  0  0  0  0  0  0  0  0
  161.6430  210.0500  150.6390 C   0  0  0  0  0  3  0  0  0  0  0  0
  159.6670  201.6520  149.1370 C   0  0  0  0  0  0  0  0  0  0  0  0
  161.2290  205.6320  148.5500 C   0  0  0  0  0  0  0  0  0  0  0  0
  161.0740  203.5990  150.1260 C   0  0  2  0  0  3  0  0  0  0  0  0
  161.0550  201.3230  151.1820 C   0  0  0  0  0  1  0  0  0  0  0  0
  158.4850  201.3540  149.1520 O   0  0  0  0  0  0  0  0  0  0  0  0
  161.8930  201.8630  147.9400 C   0  0  0  0  0  2  0  0  0  0  0  0
  162.1320  208.1560  151.9440 C   0  0  2  0  0  3  0  0  0  0  0  0
  160.5110  208.1570  154.5740 N   0  0  0  0  0  0  0  0  0  0  0  0
  160.6830  204.6370  151.1700 C   0  0  0  0  0  2  0  0  0  0  0  0
  161.9170  203.3800  147.7380 C   0  0  0  0  0  2  0  0  0  0  0  0
  161.3290  206.8570  152.1780 C   0  0  1  0  0  3  0  0  0  0  0  0
  161.5840  210.4860  151.8840 C   0  0  0  0  0  3  0  0  0  0  0  0
  160.9820  204.1470  148.6820 C   0  0  2  0  0  3  0  0  0  0  0  0
  160.4750  201.3050  147.9100 C   0  0  0  0  0  2  0  0  0  0  0  0
  160.5580  209.1460  153.7270 C   0  0  0  0  0  0  0  0  0  0  0  0
  161.4870  206.4410  149.6720 C   0  0  0  0  0  0  0  0  0  0  0  0
  160.2540  202.3180  150.3630 C   0  0  2  0  0  3  0  0  0  0  0  0
  161.6110  205.8400  151.0550 C   0  0  2  0  0  3  0  0  0  0  0  0
  161.2930  207.5500  147.1550 C   0  0  0  0  0  3  0  0  0  0  0  0
  161.5950  207.1920  154.7240 C   0  0  0  0  0  2  0  0  0  0  0  0
  161.1260  206.2120  147.3220 N   0  0  0  0  0  0  0  0  0  0  0  0
  161.6560  206.2240  153.5390 C   0  0  0  0  0  2  0  0  0  0  0  0
  161.7820  209.3570  152.8550 C   0  0  1  0  0  3  0  0  0  0  0  0
  161.5610  208.3410  148.2240 N   0  0  0  0  0  0  0  0  0  0  0  0
  161.9090  208.6600  150.6000 N   0  0  0  0  0  0  0  0  0  0  0  0
  159.4780  210.0300  153.6270 O   0  0  0  0  0  0  0  0  0  0  0  0
  159.1650  210.9690  154.6470 C   0  0  0  0  0  2  0  0  0  0  0  0
  158.6090  214.3870  153.5510 N   0  0  0  0  0  2  0  0  0  0  0  0
  158.4580  212.1840  152.6010 C   0  0  0  0  0  2  0  0  0  0  0  0
  158.2780  212.0630  154.0870 C   0  0  2  0  0  3  0  0  0  0  0  0
  158.2710  213.6580  152.3340 C   0  0  0  0  0  2  0  0  0  0  0  0
  158.7080  213.4070  154.6270 C   0  0  0  0  0  2  0  0  0  0  0  0
  1 18  1  0  0  0  0
  1 27  1  0  0  0  0
  2 14  2  0  0  0  0
  3  7  2  0  0  0  0
  3 19  1  0  0  0  0
  4 15  1  0  0  0  0
  4 18  2  0  0  0  0
  5 19  1  0  0  0  0
  5 11  1  1  0  0  0
  9 27  1  6  0  0  0
  9 13  1  0  0  0  0
  9 25  1  0  0  0  0
 10 22  1  0  0  0  0
 12  8  1  0  0  0  0
 13 24  1  1  0  0  0
 15 12  1  6  0  0  0
 15  5  1  0  0  0  0
 16  8  1  0  0  0  0
 16  3  1  0  0  0  0
 17 10  2  0  0  0  0
 18 20  1  0  0  0  0
 19  6  1  6  0  0  0
 20 11  1  6  0  0  0
 20 13  1  0  0  0  0
 21 23  2  0  0  0  0
 21 26  1  0  0  0  0
 23  4  1  0  0  0  0
 24 22  1  0  0  0  0
 25 14  1  6  0  0  0
 25 17  1  0  0  0  0
 26  1  2  0  0  0  0
 27  2  1  0  0  0  0
 28 17  1  0  0  0  0
 28 29  1  0  0  0  0
 30 34  1  0  0  0  0
 31 32  1  0  0  0  0
 32 34  1  0  0  0  0
 32 29  1  1  0  0  0
 33 31  1  0  0  0  0
 33 30  1  0  0  0  0
M  END
>  <MODEL>
3

>  <REMARK>
 VINA RESULT:      -8.1      1.934      9.140
  Name = 
  3 active torsions:
  status: ('A' for Active; 'I' for Inactive)
    1  A    between atoms: C_17  and  O_28
    2  A    between atoms: O_28  and  C_29
    3  A    between atoms: C_29  and  C_32
                            x       y       z     vdW  Elec       q    Type
                         _______ _______ _______ _____ _____    ______ ____

>  <TORSDO>
F 3

$$$$
