=
 OpenBabel11122414333D

 34 40  0  0  1  0  0  0  0  0999 V2000
  161.5540  209.2430  151.1220 C   0  0  0  0  0  0  0  0  0  0  0  0
  161.5230  211.1900  152.8180 C   0  0  0  0  0  2  0  0  0  0  0  0
  160.2820  203.0530  149.2960 C   0  0  2  0  0  3  0  0  0  0  0  0
  161.5060  207.2940  149.6630 C   0  0  0  0  0  0  0  0  0  0  0  0
  161.0890  205.0880  150.6190 C   0  0  0  0  0  0  0  0  0  0  0  0
  160.3310  203.1050  151.7170 O   0  0  0  0  0  1  0  0  0  0  0  0
  159.5910  201.7140  149.5110 C   0  0  0  0  0  1  0  0  0  0  0  0
  162.2010  204.0880  147.9700 C   0  0  0  0  0  2  0  0  0  0  0  0
  161.2610  208.9350  153.4960 C   0  0  0  0  0  0  0  0  0  0  0  0
  160.3920  208.1760  156.5240 C   0  0  0  0  0  2  0  0  0  0  0  0
  161.0340  205.6690  151.8500 N   0  0  0  0  0  0  0  0  0  0  0  0
  161.4120  205.3800  148.0710 C   0  0  0  0  0  2  0  0  0  0  0  0
  161.1080  207.5410  153.3550 C   0  0  0  0  0  0  0  0  0  0  0  0
  161.1670  211.1780  154.3110 C   0  0  0  0  0  2  0  0  0  0  0  0
  161.3590  205.9060  149.4830 C   0  0  0  0  0  0  0  0  0  0  0  0
  161.2840  202.8840  148.1530 C   0  0  0  0  0  2  0  0  0  0  0  0
  160.1200  209.2740  155.6020 N   0  0  0  0  0  0  0  0  0  0  0  0
  161.4220  207.8500  150.9450 C   0  0  0  0  0  0  0  0  0  0  0  0
  160.9770  203.5730  150.5660 C   0  0  1  0  0  3  0  0  0  0  0  0
  161.1870  207.0030  152.0530 C   0  0  0  0  0  0  0  0  0  0  0  0
  161.8720  209.4390  148.6350 C   0  0  0  0  0  3  0  0  0  0  0  0
  161.2540  207.0860  155.8710 C   0  0  0  0  0  2  0  0  0  0  0  0
  161.7480  208.1500  148.5340 N   0  0  0  0  0  0  0  0  0  0  0  0
  160.7040  206.6490  154.5120 C   0  0  0  0  0  2  0  0  0  0  0  0
  161.2340  209.7120  154.7530 C   0  0  1  0  0  3  0  0  0  0  0  0
  161.7630  210.1640  149.9490 C   0  0  0  0  0  2  0  0  0  0  0  0
  161.4600  209.7590  152.4170 C   0  0  0  0  0  0  0  0  0  0  0  0
  158.7360  209.5580  155.3390 C   0  0  0  0  0  3  0  0  0  0  0  0
  158.1650  210.7230  155.6310 C   0  0  0  0  0  3  0  0  0  0  0  0
  155.6150  212.9120  156.1080 C   0  0  0  0  0  2  0  0  0  0  0  0
  156.5940  212.0700  154.2930 C   0  0  0  0  0  2  0  0  0  0  0  0
  156.7280  210.9710  155.3250 C   0  0  2  0  0  3  0  0  0  0  0  0
  155.5820  212.9480  154.7060 O   0  0  0  0  0  0  0  0  0  0  0  0
  156.0450  211.5290  156.5370 C   0  0  0  0  0  2  0  0  0  0  0  0
  1 27  2  0  0  0  0
  2 14  1  0  0  0  0
  3  7  1  1  0  0  0
  3 19  1  0  0  0  0
  4 18  2  0  0  0  0
  5 11  1  0  0  0  0
  8 12  1  0  0  0  0
  8 16  1  0  0  0  0
  9 25  1  0  0  0  0
 11 20  2  0  0  0  0
 12 15  1  0  0  0  0
 13  9  2  0  0  0  0
 13 24  1  0  0  0  0
 15  4  1  0  0  0  0
 15  5  2  0  0  0  0
 16  3  1  0  0  0  0
 17 10  1  0  0  0  0
 18  1  1  0  0  0  0
 18 20  1  0  0  0  0
 19  5  1  0  0  0  0
 19  6  1  1  0  0  0
 20 13  1  0  0  0  0
 21 26  1  0  0  0  0
 22 10  1  0  0  0  0
 23 21  2  0  0  0  0
 23  4  1  0  0  0  0
 24 22  1  0  0  0  0
 25 14  1  6  0  0  0
 25 17  1  0  0  0  0
 26  1  1  0  0  0  0
 27  2  1  0  0  0  0
 27  9  1  0  0  0  0
 28 17  1  0  0  0  0
 28 29  2  0  0  0  0
 30 34  1  0  0  0  0
 31 33  1  0  0  0  0
 31 32  1  0  0  0  0
 32 29  1  1  0  0  0
 32 34  1  0  0  0  0
 33 30  1  0  0  0  0
M  END
>  <MODEL>
1

>  <REMARK>
 VINA RESULT:      -8.9      0.000      0.000
  Name = 
  2 active torsions:
  status: ('A' for Active; 'I' for Inactive)
    1  A    between atoms: N_17  and  C_28
    2  A    between atoms: C_29  and  C_32
                            x       y       z     vdW  Elec       q    Type
                         _______ _______ _______ _____ _____    ______ ____

>  <TORSDO>
F 2

$$$$
