=
 OpenBabel11122413173D

 31 35  0  0  1  0  0  0  0  0999 V2000
  161.0110  204.0970  152.2950 C   0  0  0  0  0  0  0  0  0  0  0  0
  161.4180  205.8680  148.9970 C   0  0  0  0  0  0  0  0  0  0  0  0
  161.3950  204.8720  147.9770 C   0  0  0  0  0  0  0  0  0  0  0  0
  161.7090  210.6580  151.1910 O   0  0  0  0  0  0  0  0  0  0  0  0
  161.8210  210.7630  149.9420 C   0  0  0  0  0  0  0  0  0  0  0  0
  161.2270  202.5590  147.2120 C   0  0  0  0  0  0  0  0  0  0  0  0
  161.2930  205.6040  150.3950 C   0  0  0  0  0  0  0  0  0  0  0  0
  161.0520  205.1780  153.1760 C   0  0  0  0  0  3  0  0  0  0  0  0
  161.2440  203.5000  148.2430 C   0  0  0  0  0  3  0  0  0  0  0  0
  161.6110  208.2480  149.5330 C   0  0  0  0  0  0  0  0  0  0  0  0
  160.8550  202.8400  152.7740 F   0  0  0  0  0  0  0  0  0  0  0  0
  161.6800  206.5840  146.3220 N   0  0  0  0  0  0  0  0  0  0  0  0
  161.0360  200.8590  147.5820 Cl  0  0  0  0  0  0  0  0  0  0  0  0
  161.4880  207.9590  150.8530 N   0  0  0  0  0  0  0  0  0  0  0  0
  161.5780  207.2160  148.5870 C   0  0  0  0  0  0  0  0  0  0  0  0
  161.7730  209.6050  149.0970 N   0  0  0  0  0  2  0  0  0  0  0  0
  161.1300  204.3110  150.9210 C   0  0  0  0  0  3  0  0  0  0  0  0
  161.3610  202.9740  145.8870 C   0  0  0  0  0  3  0  0  0  0  0  0
  161.3330  206.6910  151.3050 C   0  0  0  0  0  0  0  0  0  0  0  0
  161.2130  206.4710  152.6800 C   0  0  0  0  0  3  0  0  0  0  0  0
  161.7020  207.5190  147.2670 N   0  0  0  0  0  0  0  0  0  0  0  0
  161.5320  205.2740  146.6270 C   0  0  0  0  0  0  0  0  0  0  0  0
  161.5140  204.3290  145.5960 C   0  0  0  0  0  3  0  0  0  0  0  0
  159.9680  213.0280  147.4560 C   0  0  1  0  0  3  0  0  0  0  0  0
  160.8090  213.0350  149.6690 C   0  0  0  0  0  2  0  0  0  0  0  0
  163.3300  211.8670  147.4060 O   0  0  0  0  0  0  0  0  0  0  0  0
  158.7190  212.9140  146.6090 C   0  0  0  0  0  1  0  0  0  0  0  0
  159.6460  212.7030  148.8450 N   0  0  0  0  0  2  0  0  0  0  0  0
  162.2080  212.0360  147.8520 C   0  0  0  0  0  0  0  0  0  0  0  0
  161.9960  212.1220  149.3390 C   0  0  2  0  0  3  0  0  0  0  0  0
  161.0320  212.0740  146.9200 C   0  0  0  0  0  2  0  0  0  0  0  0
  1 11  1  0  0  0  0
  1  8  1  0  0  0  0
  2  7  1  0  0  0  0
  3  9  1  0  0  0  0
  3  2  2  0  0  0  0
  5  4  2  0  0  0  0
  6 13  1  0  0  0  0
  6  9  2  0  0  0  0
  7 17  1  0  0  0  0
  7 19  2  0  0  0  0
 10 14  2  0  0  0  0
 12 22  2  0  0  0  0
 12 21  1  0  0  0  0
 14 19  1  0  0  0  0
 15  2  1  0  0  0  0
 15 10  1  0  0  0  0
 16 10  1  0  0  0  0
 16  5  1  0  0  0  0
 17  1  2  0  0  0  0
 18  6  1  0  0  0  0
 19 20  1  0  0  0  0
 20  8  2  0  0  0  0
 21 15  2  0  0  0  0
 22  3  1  0  0  0  0
 23 18  2  0  0  0  0
 23 22  1  0  0  0  0
 24 27  1  6  0  0  0
 24 28  1  0  0  0  0
 26 29  2  0  0  0  0
 28 25  1  0  0  0  0
 29 30  1  0  0  0  0
 30 25  1  0  0  0  0
 30  5  1  6  0  0  0
 31 24  1  0  0  0  0
 31 29  1  0  0  0  0
M  END
>  <MODEL>
1

>  <REMARK>
 VINA RESULT:     -10.7      0.000      0.000
  Name = 
  1 active torsions:
  status: ('A' for Active; 'I' for Inactive)
    1  A    between atoms: C_5  and  C_30
                            x       y       z     vdW  Elec       q    Type
                         _______ _______ _______ _____ _____    ______ ____

>  <TORSDO>
F 1

$$$$
=
 OpenBabel11122413173D

 31 35  0  0  1  0  0  0  0  0999 V2000
  160.8980  202.1590  150.8500 C   0  0  0  0  0  0  0  0  0  0  0  0
  161.1490  205.5270  149.1850 C   0  0  0  0  0  0  0  0  0  0  0  0
  161.1530  205.3030  147.7770 C   0  0  0  0  0  0  0  0  0  0  0  0
  161.2520  208.1800  153.7450 O   0  0  0  0  0  0  0  0  0  0  0  0
  161.3320  208.9920  152.7880 C   0  0  0  0  0  0  0  0  0  0  0  0
  161.0820  203.8520  145.8150 C   0  0  0  0  0  0  0  0  0  0  0  0
  161.0660  204.4990  150.1730 C   0  0  0  0  0  0  0  0  0  0  0  0
  160.9050  202.5340  152.1940 C   0  0  0  0  0  3  0  0  0  0  0  0
  161.0740  204.0240  147.2000 C   0  0  0  0  0  3  0  0  0  0  0  0
  161.2360  207.1680  150.9990 C   0  0  0  0  0  0  0  0  0  0  0  0
  160.8130  200.8500  150.5130 F   0  0  0  0  0  0  0  0  0  0  0  0
  161.3190  207.6680  147.4180 N   0  0  0  0  0  0  0  0  0  0  0  0
  160.9810  202.2420  145.1340 Cl  0  0  0  0  0  0  0  0  0  0  0  0
  161.1550  206.1640  151.9080 N   0  0  0  0  0  0  0  0  0  0  0  0
  161.2340  206.8710  149.6300 C   0  0  0  0  0  0  0  0  0  0  0  0
  161.3240  208.5340  151.4290 N   0  0  0  0  0  2  0  0  0  0  0  0
  160.9780  203.1330  149.8530 C   0  0  0  0  0  3  0  0  0  0  0  0
  161.1670  204.9610  144.9750 C   0  0  0  0  0  3  0  0  0  0  0  0
  161.0720  204.8620  151.5430 C   0  0  0  0  0  0  0  0  0  0  0  0
  160.9920  203.8830  152.5380 C   0  0  0  0  0  3  0  0  0  0  0  0
  161.3160  207.8860  148.7300 N   0  0  0  0  0  0  0  0  0  0  0  0
  161.2410  206.4170  146.9080 C   0  0  0  0  0  0  0  0  0  0  0  0
  161.2480  206.2420  145.5210 C   0  0  0  0  0  3  0  0  0  0  0  0
  159.1070  211.7390  154.2860 C   0  0  1  0  0  3  0  0  0  0  0  0
  161.2320  210.7380  154.5770 C   0  0  0  0  0  2  0  0  0  0  0  0
  160.7540  211.6110  151.1350 O   0  0  0  0  0  0  0  0  0  0  0  0
  157.6940  211.8180  154.8210 C   0  0  0  0  0  1  0  0  0  0  0  0
  159.8190  210.6480  154.9480 N   0  0  0  0  0  2  0  0  0  0  0  0
  160.4480  211.2450  152.2570 C   0  0  0  0  0  0  0  0  0  0  0  0
  161.4290  210.4560  153.0820 C   0  0  2  0  0  3  0  0  0  0  0  0
  159.0660  211.5090  152.7770 C   0  0  0  0  0  2  0  0  0  0  0  0
  1  8  1  0  0  0  0
  2 15  1  0  0  0  0
  2  7  1  0  0  0  0
  3  2  2  0  0  0  0
  5  4  2  0  0  0  0
  6  9  2  0  0  0  0
  7 19  2  0  0  0  0
  8 20  2  0  0  0  0
  9  3  1  0  0  0  0
 10 16  1  0  0  0  0
 10 14  2  0  0  0  0
 11  1  1  0  0  0  0
 12 21  1  0  0  0  0
 13  6  1  0  0  0  0
 15 10  1  0  0  0  0
 16  5  1  0  0  0  0
 17  7  1  0  0  0  0
 17  1  2  0  0  0  0
 18 23  2  0  0  0  0
 18  6  1  0  0  0  0
 19 14  1  0  0  0  0
 19 20  1  0  0  0  0
 21 15  2  0  0  0  0
 22 12  2  0  0  0  0
 22  3  1  0  0  0  0
 23 22  1  0  0  0  0
 24 27  1  1  0  0  0
 24 28  1  0  0  0  0
 25 28  1  0  0  0  0
 26 29  2  0  0  0  0
 29 31  1  0  0  0  0
 29 30  1  0  0  0  0
 30  5  1  1  0  0  0
 30 25  1  0  0  0  0
 31 24  1  0  0  0  0
M  END
>  <MODEL>
2

>  <REMARK>
 VINA RESULT:     -10.5      2.759      3.569
  Name = 
  1 active torsions:
  status: ('A' for Active; 'I' for Inactive)
    1  A    between atoms: C_5  and  C_30
                            x       y       z     vdW  Elec       q    Type
                         _______ _______ _______ _____ _____    ______ ____

>  <TORSDO>
F 1

$$$$
=
 OpenBabel11122413173D

 31 35  0  0  1  0  0  0  0  0999 V2000
  161.8260  206.9530  147.2540 C   0  0  0  0  0  0  0  0  0  0  0  0
  161.2270  205.0650  150.4560 C   0  0  0  0  0  0  0  0  0  0  0  0
  161.0710  203.6910  150.1140 C   0  0  0  0  0  0  0  0  0  0  0  0
  161.5260  209.3780  153.4820 O   0  0  0  0  0  0  0  0  0  0  0  0
  161.2980  208.3750  154.2060 C   0  0  0  0  0  0  0  0  0  0  0  0
  160.9830  201.8560  148.5040 C   0  0  0  0  0  0  0  0  0  0  0  0
  161.4710  206.1150  149.5200 C   0  0  0  0  0  0  0  0  0  0  0  0
  161.9560  208.2540  147.7410 C   0  0  0  0  0  3  0  0  0  0  0  0
  161.1420  203.2130  148.7940 C   0  0  0  0  0  3  0  0  0  0  0  0
  161.2720  206.7400  152.2410 C   0  0  0  0  0  0  0  0  0  0  0  0
  161.9320  206.7140  145.9260 F   0  0  0  0  0  0  0  0  0  0  0  0
  160.7540  203.1660  152.4320 N   0  0  0  0  0  0  0  0  0  0  0  0
  161.0790  201.2990  146.8480 Cl  0  0  0  0  0  0  0  0  0  0  0  0
  161.5050  207.7100  151.3220 N   0  0  0  0  0  0  0  0  0  0  0  0
  161.1300  205.4090  151.8290 C   0  0  0  0  0  0  0  0  0  0  0  0
  161.1720  207.0660  153.6350 N   0  0  0  0  0  2  0  0  0  0  0  0
  161.5860  205.8980  148.1360 C   0  0  0  0  0  3  0  0  0  0  0  0
  160.7490  200.9460  149.5340 C   0  0  0  0  0  3  0  0  0  0  0  0
  161.6060  207.4430  149.9980 C   0  0  0  0  0  0  0  0  0  0  0  0
  161.8460  208.4970  149.1100 C   0  0  0  0  0  3  0  0  0  0  0  0
  160.8980  204.4450  152.7610 N   0  0  0  0  0  0  0  0  0  0  0  0
  160.8310  202.7520  151.1460 C   0  0  0  0  0  0  0  0  0  0  0  0
  160.6730  201.3930  150.8530 C   0  0  0  0  0  3  0  0  0  0  0  0
  159.4880  210.7480  156.6220 C   0  0  1  0  0  3  0  0  0  0  0  0
  159.7070  208.4420  156.1360 C   0  0  0  0  0  2  0  0  0  0  0  0
  162.9470  209.9540  156.3780 O   0  0  0  0  0  0  0  0  0  0  0  0
  158.5930  211.9610  156.4840 C   0  0  0  0  0  1  0  0  0  0  0  0
  158.9560  209.6540  155.8100 N   0  0  0  0  0  2  0  0  0  0  0  0
  161.7570  209.8740  156.1240 C   0  0  0  0  0  0  0  0  0  0  0  0
  161.1680  208.5610  155.6850 C   0  0  2  0  0  3  0  0  0  0  0  0
  160.9010  211.1060  156.1700 C   0  0  0  0  0  2  0  0  0  0  0  0
  1  8  2  0  0  0  0
  1 17  1  0  0  0  0
  2 15  1  0  0  0  0
  3  2  2  0  0  0  0
  3 22  1  0  0  0  0
  4  5  2  0  0  0  0
  6  9  2  0  0  0  0
  6 18  1  0  0  0  0
  7 19  1  0  0  0  0
  7  2  1  0  0  0  0
  8 20  1  0  0  0  0
  9  3  1  0  0  0  0
 10 16  1  0  0  0  0
 11  1  1  0  0  0  0
 12 21  1  0  0  0  0
 13  6  1  0  0  0  0
 14 10  2  0  0  0  0
 15 10  1  0  0  0  0
 15 21  2  0  0  0  0
 16  5  1  0  0  0  0
 17  7  2  0  0  0  0
 18 23  2  0  0  0  0
 19 14  1  0  0  0  0
 20 19  2  0  0  0  0
 22 12  2  0  0  0  0
 23 22  1  0  0  0  0
 24 27  1  6  0  0  0
 28 25  1  0  0  0  0
 28 24  1  0  0  0  0
 29 31  1  0  0  0  0
 29 26  2  0  0  0  0
 30  5  1  6  0  0  0
 30 29  1  0  0  0  0
 30 25  1  0  0  0  0
 31 24  1  0  0  0  0
M  END
>  <MODEL>
3

>  <REMARK>
 VINA RESULT:     -10.3      3.591      5.801
  Name = 
  1 active torsions:
  status: ('A' for Active; 'I' for Inactive)
    1  A    between atoms: C_5  and  C_30
                            x       y       z     vdW  Elec       q    Type
                         _______ _______ _______ _____ _____    ______ ____

>  <TORSDO>
F 1

$$$$
=
 OpenBabel11122413173D

 31 35  0  0  1  0  0  0  0  0999 V2000
  160.8310  201.9560  150.6560 C   0  0  0  0  0  0  0  0  0  0  0  0
  161.0600  205.3740  149.0940 C   0  0  0  0  0  0  0  0  0  0  0  0
  161.0450  205.1950  147.6800 C   0  0  0  0  0  0  0  0  0  0  0  0
  161.2260  207.8830  153.7330 O   0  0  0  0  0  0  0  0  0  0  0  0
  161.2930  208.7260  152.8000 C   0  0  0  0  0  0  0  0  0  0  0  0
  160.9460  203.8050  145.6740 C   0  0  0  0  0  0  0  0  0  0  0  0
  160.9900  204.3160  150.0500 C   0  0  0  0  0  0  0  0  0  0  0  0
  160.8570  202.2890  152.0100 C   0  0  0  0  0  3  0  0  0  0  0  0
  160.9580  203.9340  147.0640 C   0  0  0  0  0  3  0  0  0  0  0  0
  161.1720  206.9580  150.9570 C   0  0  0  0  0  0  0  0  0  0  0  0
  160.7420  200.6590  150.2790 F   0  0  0  0  0  0  0  0  0  0  0  0
  161.2060  207.5700  147.3920 N   0  0  0  0  0  0  0  0  0  0  0  0
  160.8370  202.2180  144.9440 Cl  0  0  0  0  0  0  0  0  0  0  0  0
  161.1040  205.9260  151.8350 N   0  0  0  0  0  0  0  0  0  0  0  0
  161.1520  206.7040  149.5800 C   0  0  0  0  0  0  0  0  0  0  0  0
  161.2660  208.3100  151.4280 N   0  0  0  0  0  2  0  0  0  0  0  0
  160.8980  202.9610  149.6890 C   0  0  0  0  0  3  0  0  0  0  0  0
  161.0210  204.9400  144.8680 C   0  0  0  0  0  3  0  0  0  0  0  0
  161.0160  204.6360  151.4310 C   0  0  0  0  0  0  0  0  0  0  0  0
  160.9490  203.6260  152.3950 C   0  0  0  0  0  3  0  0  0  0  0  0
  161.2210  207.7470  148.7100 N   0  0  0  0  0  0  0  0  0  0  0  0
  161.1210  206.3360  146.8450 C   0  0  0  0  0  0  0  0  0  0  0  0
  161.1090  206.2030  145.4520 C   0  0  0  0  0  3  0  0  0  0  0  0
  160.4730  211.0110  155.7740 C   0  0  1  0  0  3  0  0  0  0  0  0
  162.2790  210.4050  154.3700 C   0  0  0  0  0  2  0  0  0  0  0  0
  159.4080  211.2160  152.3860 O   0  0  0  0  0  0  0  0  0  0  0  0
  159.8570  210.8290  157.1440 C   0  0  0  0  0  1  0  0  0  0  0  0
  161.5680  210.0580  155.6010 N   0  0  0  0  0  2  0  0  0  0  0  0
  160.0320  210.7880  153.3420 C   0  0  0  0  0  0  0  0  0  0  0  0
  161.3930  210.1800  153.1390 C   0  0  2  0  0  3  0  0  0  0  0  0
  159.4050  210.7940  154.7050 C   0  0  0  0  0  2  0  0  0  0  0  0
  1  8  1  0  0  0  0
  2 15  1  0  0  0  0
  2  7  1  0  0  0  0
  3  2  2  0  0  0  0
  5  4  2  0  0  0  0
  6  9  2  0  0  0  0
  7 19  2  0  0  0  0
  8 20  2  0  0  0  0
  9  3  1  0  0  0  0
 10 16  1  0  0  0  0
 10 14  2  0  0  0  0
 11  1  1  0  0  0  0
 12 21  1  0  0  0  0
 13  6  1  0  0  0  0
 15 10  1  0  0  0  0
 16  5  1  0  0  0  0
 17  7  1  0  0  0  0
 17  1  2  0  0  0  0
 18 23  2  0  0  0  0
 18  6  1  0  0  0  0
 19 14  1  0  0  0  0
 19 20  1  0  0  0  0
 21 15  2  0  0  0  0
 22 12  2  0  0  0  0
 22  3  1  0  0  0  0
 23 22  1  0  0  0  0
 24 27  1  1  0  0  0
 25 28  1  0  0  0  0
 26 29  2  0  0  0  0
 28 24  1  0  0  0  0
 29 31  1  0  0  0  0
 30  5  1  1  0  0  0
 30 29  1  0  0  0  0
 30 25  1  0  0  0  0
 31 24  1  0  0  0  0
M  END
>  <MODEL>
4

>  <REMARK>
 VINA RESULT:     -10.1      3.232      4.246
  Name = 
  1 active torsions:
  status: ('A' for Active; 'I' for Inactive)
    1  A    between atoms: C_5  and  C_30
                            x       y       z     vdW  Elec       q    Type
                         _______ _______ _______ _____ _____    ______ ____

>  <TORSDO>
F 1

$$$$
=
 OpenBabel11122413173D

 31 35  0  0  1  0  0  0  0  0999 V2000
  160.8180  201.7670  150.5810 C   0  0  0  0  0  0  0  0  0  0  0  0
  161.2090  205.4290  149.8000 C   0  0  0  0  0  0  0  0  0  0  0  0
  161.2900  205.5530  148.3820 C   0  0  0  0  0  0  0  0  0  0  0  0
  161.0910  206.8970  154.8660 O   0  0  0  0  0  0  0  0  0  0  0  0
  161.2370  207.9140  154.1400 C   0  0  0  0  0  0  0  0  0  0  0  0
  161.3100  204.6210  146.1240 C   0  0  0  0  0  0  0  0  0  0  0  0
  161.0560  204.1960  150.5020 C   0  0  0  0  0  0  0  0  0  0  0  0
  160.7540  201.8060  151.9750 C   0  0  0  0  0  3  0  0  0  0  0  0
  161.2260  204.4530  147.5080 C   0  0  0  0  0  3  0  0  0  0  0  0
  161.2170  206.5800  151.9600 C   0  0  0  0  0  0  0  0  0  0  0  0
  160.7340  200.5810  149.9330 F   0  0  0  0  0  0  0  0  0  0  0  0
  161.5090  207.9290  148.6170 N   0  0  0  0  0  0  0  0  0  0  0  0
  161.2260  203.2270  145.0690 Cl  0  0  0  0  0  0  0  0  0  0  0  0
  161.0710  205.3880  152.5920 N   0  0  0  0  0  0  0  0  0  0  0  0
  161.2880  206.6230  150.5620 C   0  0  0  0  0  0  0  0  0  0  0  0
  161.2980  207.7980  152.7120 N   0  0  0  0  0  2  0  0  0  0  0  0
  160.9670  202.9500  149.8560 C   0  0  0  0  0  3  0  0  0  0  0  0
  161.4580  205.8970  145.5840 C   0  0  0  0  0  3  0  0  0  0  0  0
  160.9900  204.2160  151.9180 C   0  0  0  0  0  0  0  0  0  0  0  0
  160.8410  203.0280  152.6400 C   0  0  0  0  0  3  0  0  0  0  0  0
  161.4340  207.8230  149.9400 N   0  0  0  0  0  0  0  0  0  0  0  0
  161.4420  206.8410  147.8150 C   0  0  0  0  0  0  0  0  0  0  0  0
  161.5250  207.0050  146.4290 C   0  0  0  0  0  3  0  0  0  0  0  0
  159.0650  211.0600  154.4970 C   0  0  1  0  0  3  0  0  0  0  0  0
  160.2190  209.4690  155.8150 C   0  0  0  0  0  2  0  0  0  0  0  0
  162.3720  210.7100  153.2350 O   0  0  0  0  0  0  0  0  0  0  0  0
  157.7050  211.5020  154.0000 C   0  0  0  0  0  1  0  0  0  0  0  0
  158.9450  209.7610  155.1570 N   0  0  0  0  0  2  0  0  0  0  0  0
  161.3290  210.3610  153.7600 C   0  0  0  0  0  0  0  0  0  0  0  0
  161.3360  209.2600  154.7860 C   0  0  2  0  0  3  0  0  0  0  0  0
  160.0310  210.9710  153.3190 C   0  0  0  0  0  2  0  0  0  0  0  0
  1  8  1  0  0  0  0
  2  7  1  0  0  0  0
  2 15  1  0  0  0  0
  3  2  2  0  0  0  0
  5  4  2  0  0  0  0
  6  9  2  0  0  0  0
  7 19  2  0  0  0  0
  8 20  2  0  0  0  0
  9  3  1  0  0  0  0
 10 14  2  0  0  0  0
 10 16  1  0  0  0  0
 11  1  1  0  0  0  0
 12 21  1  0  0  0  0
 13  6  1  0  0  0  0
 15 10  1  0  0  0  0
 16  5  1  0  0  0  0
 17  7  1  0  0  0  0
 17  1  2  0  0  0  0
 18  6  1  0  0  0  0
 18 23  2  0  0  0  0
 19 14  1  0  0  0  0
 19 20  1  0  0  0  0
 21 15  2  0  0  0  0
 22  3  1  0  0  0  0
 22 12  2  0  0  0  0
 23 22  1  0  0  0  0
 24 27  1  6  0  0  0
 24 28  1  0  0  0  0
 26 29  2  0  0  0  0
 28 25  1  0  0  0  0
 29 30  1  0  0  0  0
 30  5  1  6  0  0  0
 30 25  1  0  0  0  0
 31 29  1  0  0  0  0
 31 24  1  0  0  0  0
M  END
>  <MODEL>
5

>  <REMARK>
 VINA RESULT:      -9.0      3.179      4.306
  Name = 
  1 active torsions:
  status: ('A' for Active; 'I' for Inactive)
    1  A    between atoms: C_5  and  C_30
                            x       y       z     vdW  Elec       q    Type
                         _______ _______ _______ _____ _____    ______ ____

>  <TORSDO>
F 1

$$$$
=
 OpenBabel11122413173D

 31 35  0  0  1  0  0  0  0  0999 V2000
  161.7890  206.4080  146.7780 C   0  0  0  0  0  0  0  0  0  0  0  0
  161.2560  205.4040  150.3670 C   0  0  0  0  0  0  0  0  0  0  0  0
  161.1310  203.9840  150.3950 C   0  0  0  0  0  0  0  0  0  0  0  0
  161.4700  210.3600  152.1670 O   0  0  0  0  0  0  0  0  0  0  0  0
  161.2710  209.5750  153.1290 C   0  0  0  0  0  0  0  0  0  0  0  0
  161.0780  201.7930  149.3180 C   0  0  0  0  0  0  0  0  0  0  0  0
  161.4690  206.1800  149.1880 C   0  0  0  0  0  0  0  0  0  0  0  0
  161.8910  207.7930  146.9100 C   0  0  0  0  0  3  0  0  0  0  0  0
  161.2060  203.1820  149.2440 C   0  0  0  0  0  3  0  0  0  0  0  0
  161.2720  207.4850  151.6560 C   0  0  0  0  0  0  0  0  0  0  0  0
  161.8920  205.8350  145.5560 F   0  0  0  0  0  0  0  0  0  0  0  0
  160.8420  204.0720  152.7740 N   0  0  0  0  0  0  0  0  0  0  0  0
  161.1780  200.8280  147.8620 Cl  0  0  0  0  0  0  0  0  0  0  0  0
  161.4750  208.1880  150.5140 N   0  0  0  0  0  0  0  0  0  0  0  0
  161.1600  206.0900  151.6050 C   0  0  0  0  0  0  0  0  0  0  0  0
  161.1720  208.1590  152.9180 N   0  0  0  0  0  2  0  0  0  0  0  0
  161.5800  205.6130  147.9060 C   0  0  0  0  0  3  0  0  0  0  0  0
  160.8730  201.1770  150.5510 C   0  0  0  0  0  3  0  0  0  0  0  0
  161.5740  207.5890  149.3030 C   0  0  0  0  0  0  0  0  0  0  0  0
  161.7830  208.3810  148.1700 C   0  0  0  0  0  3  0  0  0  0  0  0
  160.9570  205.3970  152.7580 N   0  0  0  0  0  0  0  0  0  0  0  0
  160.9210  203.3410  151.6390 C   0  0  0  0  0  0  0  0  0  0  0  0
  160.7940  201.9500  151.7100 C   0  0  0  0  0  3  0  0  0  0  0  0
  160.4580  208.2860  156.6540 C   0  0  1  0  0  3  0  0  0  0  0  0
  162.1350  209.4690  155.4740 C   0  0  0  0  0  2  0  0  0  0  0  0
  158.9190  210.8800  154.7690 O   0  0  0  0  0  0  0  0  0  0  0  0
  160.0810  206.9520  157.2600 C   0  0  0  0  0  1  0  0  0  0  0  0
  161.6760  208.1340  155.8600 N   0  0  0  0  0  2  0  0  0  0  0  0
  159.7370  210.0130  155.0240 C   0  0  0  0  0  0  0  0  0  0  0  0
  161.1460  210.1350  154.5110 C   0  0  2  0  0  3  0  0  0  0  0  0
  159.3130  208.7870  155.7780 C   0  0  0  0  0  2  0  0  0  0  0  0
  1  8  2  0  0  0  0
  1 17  1  0  0  0  0
  2  3  2  0  0  0  0
  2 15  1  0  0  0  0
  3 22  1  0  0  0  0
  4  5  2  0  0  0  0
  6 18  1  0  0  0  0
  7 19  1  0  0  0  0
  7  2  1  0  0  0  0
  8 20  1  0  0  0  0
  9  6  2  0  0  0  0
  9  3  1  0  0  0  0
 10 16  1  0  0  0  0
 11  1  1  0  0  0  0
 13  6  1  0  0  0  0
 14 10  2  0  0  0  0
 15 10  1  0  0  0  0
 15 21  2  0  0  0  0
 16  5  1  0  0  0  0
 17  7  2  0  0  0  0
 18 23  2  0  0  0  0
 19 14  1  0  0  0  0
 20 19  2  0  0  0  0
 21 12  1  0  0  0  0
 22 23  1  0  0  0  0
 22 12  2  0  0  0  0
 24 27  1  6  0  0  0
 25 28  1  0  0  0  0
 26 29  2  0  0  0  0
 28 24  1  0  0  0  0
 29 31  1  0  0  0  0
 30  5  1  6  0  0  0
 30 29  1  0  0  0  0
 30 25  1  0  0  0  0
 31 24  1  0  0  0  0
M  END
>  <MODEL>
6

>  <REMARK>
 VINA RESULT:      -8.6      3.221      5.877
  Name = 
  1 active torsions:
  status: ('A' for Active; 'I' for Inactive)
    1  A    between atoms: C_5  and  C_30
                            x       y       z     vdW  Elec       q    Type
                         _______ _______ _______ _____ _____    ______ ____

>  <TORSDO>
F 1

$$$$
=
 OpenBabel11122413173D

 31 35  0  0  1  0  0  0  0  0999 V2000
  161.3450  205.4140  151.8070 C   0  0  0  0  0  0  0  0  0  0  0  0
  161.0600  209.0360  152.7930 C   0  0  0  0  0  0  0  0  0  0  0  0
  160.7330  209.0720  154.1800 C   0  0  0  0  0  0  0  0  0  0  0  0
  162.1840  210.8200  147.9560 O   0  0  0  0  0  0  0  0  0  0  0  0
  161.9770  211.7960  148.7230 C   0  0  0  0  0  0  0  0  0  0  0  0
  160.2470  207.9990  156.3190 C   0  0  0  0  0  0  0  0  0  0  0  0
  161.2550  207.8440  152.0330 C   0  0  0  0  0  0  0  0  0  0  0  0
  161.6610  205.5390  150.4530 C   0  0  0  0  0  3  0  0  0  0  0  0
  160.5670  207.9170  154.9630 C   0  0  0  0  0  3  0  0  0  0  0  0
  161.5160  210.3240  150.7620 C   0  0  0  0  0  0  0  0  0  0  0  0
  161.2330  204.1850  152.3650 F   0  0  0  0  0  0  0  0  0  0  0  0
  160.7160  211.4690  154.0980 N   0  0  0  0  0  0  0  0  0  0  0  0
  160.0480  206.5370  157.2610 Cl  0  0  0  0  0  0  0  0  0  0  0  0
  161.6960  209.1680  150.0730 N   0  0  0  0  0  0  0  0  0  0  0  0
  161.1970  210.2800  152.1250 C   0  0  0  0  0  0  0  0  0  0  0  0
  161.6510  211.5920  150.1050 N   0  0  0  0  0  2  0  0  0  0  0  0
  161.1450  206.5550  152.5850 C   0  0  0  0  0  3  0  0  0  0  0  0
  160.0870  209.2450  156.9240 C   0  0  0  0  0  3  0  0  0  0  0  0
  161.5770  207.9520  150.6570 C   0  0  0  0  0  0  0  0  0  0  0  0
  161.7760  206.8060  149.8810 C   0  0  0  0  0  3  0  0  0  0  0  0
  161.0210  211.4450  152.8040 N   0  0  0  0  0  0  0  0  0  0  0  0
  160.5660  210.3290  154.8110 C   0  0  0  0  0  0  0  0  0  0  0  0
  160.2460  210.4080  156.1700 C   0  0  0  0  0  3  0  0  0  0  0  0
  159.6860  214.3570  147.0100 C   0  0  1  0  0  3  0  0  0  0  0  0
  161.1120  214.1380  148.8860 C   0  0  0  0  0  2  0  0  0  0  0  0
  162.7960  213.0060  145.9320 O   0  0  0  0  0  0  0  0  0  0  0  0
  158.2450  214.3850  146.5490 C   0  0  0  0  0  1  0  0  0  0  0  0
  159.7420  213.9420  148.4100 N   0  0  0  0  0  2  0  0  0  0  0  0
  161.8610  213.2060  146.6900 C   0  0  0  0  0  0  0  0  0  0  0  0
  162.0830  213.1850  148.1780 C   0  0  2  0  0  3  0  0  0  0  0  0
  160.4780  213.3880  146.1360 C   0  0  0  0  0  2  0  0  0  0  0  0
  1 11  1  0  0  0  0
  1 17  1  0  0  0  0
  2  3  1  0  0  0  0
  3 22  2  0  0  0  0
  3  9  1  0  0  0  0
  4  5  2  0  0  0  0
  5 16  1  0  0  0  0
  6 18  1  0  0  0  0
  6 13  1  0  0  0  0
  7 17  2  0  0  0  0
  7  2  1  0  0  0  0
  8  1  2  0  0  0  0
  9  6  2  0  0  0  0
 10 15  1  0  0  0  0
 12 22  1  0  0  0  0
 14 19  1  0  0  0  0
 14 10  2  0  0  0  0
 15  2  2  0  0  0  0
 15 21  1  0  0  0  0
 16 10  1  0  0  0  0
 19  7  1  0  0  0  0
 20  8  1  0  0  0  0
 20 19  2  0  0  0  0
 21 12  2  0  0  0  0
 22 23  1  0  0  0  0
 23 18  2  0  0  0  0
 24 27  1  6  0  0  0
 24 28  1  0  0  0  0
 26 29  2  0  0  0  0
 28 25  1  0  0  0  0
 29 30  1  0  0  0  0
 30  5  1  1  0  0  0
 30 25  1  0  0  0  0
 31 29  1  0  0  0  0
 31 24  1  0  0  0  0
M  END
>  <MODEL>
7

>  <REMARK>
 VINA RESULT:      -8.3      3.234      5.767
  Name = 
  1 active torsions:
  status: ('A' for Active; 'I' for Inactive)
    1  A    between atoms: C_5  and  C_30
                            x       y       z     vdW  Elec       q    Type
                         _______ _______ _______ _____ _____    ______ ____

>  <TORSDO>
F 1

$$$$
