=
 OpenBabel11122412323D

 30 35  0  0  1  0  0  0  0  0999 V2000
  161.2460  211.0090  150.8620 C   0  0  0  0  0  0  0  0  0  0  0  0
  161.6830  212.3070  148.7540 C   0  0  0  0  0  0  0  0  0  0  0  0
  158.8270  214.1580  152.4470 C   0  0  0  0  0  2  0  0  0  0  0  0
  160.5790  210.9340  152.1100 C   0  0  0  0  0  0  0  0  0  0  0  0
  162.2090  209.9080  150.5030 C   0  0  0  0  0  2  0  0  0  0  0  0
  160.7710  207.3280  152.6520 O   0  0  0  0  0  0  0  0  0  0  0  0
  161.0920  211.1820  155.0030 C   0  0  1  0  0  3  0  0  0  0  0  0
  161.0520  208.4710  152.2000 C   0  0  0  0  0  0  0  0  0  0  0  0
  159.6070  211.4480  155.0060 C   0  0  1  0  0  3  0  0  0  0  0  0
  158.5660  213.5270  153.8280 C   0  0  1  0  0  3  0  0  0  0  0  0
  161.7250  208.6060  150.9410 N   0  0  0  0  0  0  0  0  0  0  0  0
  160.6480  209.6930  152.9750 C   0  0  1  0  0  3  0  0  0  0  0  0
  161.4750  213.4360  148.0240 N   0  0  0  0  0  0  0  0  0  0  0  0
  159.3850  212.2120  156.2950 C   0  0  0  0  0  2  0  0  0  0  0  0
  161.5080  211.2070  156.4610 C   0  0  0  0  0  2  0  0  0  0  0  0
  162.4200  211.4080  148.2690 O   0  0  0  0  0  0  0  0  0  0  0  0
  159.6350  213.1260  151.7360 C   0  0  0  0  0  0  0  0  0  0  0  0
  160.6910  214.4520  148.4630 C   0  0  0  0  0  3  0  0  0  0  0  0
  161.0710  212.1590  150.0270 C   0  0  0  0  0  0  0  0  0  0  0  0
  159.8040  212.0270  152.5250 C   0  0  0  0  0  0  0  0  0  0  0  0
  157.0720  213.3500  154.0280 C   0  0  0  0  0  1  0  0  0  0  0  0
  159.2250  212.2170  153.8110 N   0  0  0  0  0  0  0  0  0  0  0  0
  160.4300  211.8190  157.2350 N   0  0  0  0  0  2  0  0  0  0  0  0
  161.2470  208.7760  155.1110 O   0  0  0  0  0  1  0  0  0  0  0  0
  160.0620  214.3650  149.7000 C   0  0  0  0  0  2  0  0  0  0  0  0
  160.2430  213.2230  150.4830 C   0  0  0  0  0  0  0  0  0  0  0  0
  161.4590  209.8760  154.2730 C   0  0  2  0  0  3  0  0  0  0  0  0
  162.1130  207.4350  150.1700 C   0  0  0  0  0  2  0  0  0  0  0  0
  160.5710  206.5070  148.8960 C   0  0  0  0  0  1  0  0  0  0  0  0
  161.5480  207.5000  148.8960 O   0  0  0  0  0  0  0  0  0  0  0  0
  1  4  1  0  0  0  0
  2 19  1  0  0  0  0
  3 10  1  0  0  0  0
  4 20  2  0  0  0  0
  5  1  1  0  0  0  0
  5 11  1  0  0  0  0
  7  9  1  0  0  0  0
  7 15  1  1  0  0  0
  8  6  2  0  0  0  0
  8 12  1  0  0  0  0
  9 14  1  1  0  0  0
 10 21  1  6  0  0  0
 11  8  1  0  0  0  0
 12  4  1  6  0  0  0
 12 27  1  0  0  0  0
 13 18  2  0  0  0  0
 13  2  1  0  0  0  0
 14 23  1  0  0  0  0
 15 23  1  0  0  0  0
 16  2  2  0  0  0  0
 17  3  1  0  0  0  0
 17 20  1  0  0  0  0
 18 25  1  0  0  0  0
 19 26  1  0  0  0  0
 19  1  2  0  0  0  0
 20 22  1  0  0  0  0
 22 10  1  0  0  0  0
 22  9  1  0  0  0  0
 25 26  1  0  0  0  0
 26 17  2  0  0  0  0
 27  7  1  0  0  0  0
 27 24  1  1  0  0  0
 28 11  1  0  0  0  0
 30 29  1  0  0  0  0
 30 28  1  0  0  0  0
M  END
>  <MODEL>
1

>  <REMARK>
 VINA RESULT:      -6.6      0.000      0.000
  Name = 
  2 active torsions:
  status: ('A' for Active; 'I' for Inactive)
    1  A    between atoms: N_11  and  C_28
    2  A    between atoms: C_28  and  O_30
                            x       y       z     vdW  Elec       q    Type
                         _______ _______ _______ _____ _____    ______ ____

>  <TORSDO>
F 2

$$$$
=
 OpenBabel11122412323D

 30 35  0  0  1  0  0  0  0  0999 V2000
  161.0590  207.2930  151.3300 C   0  0  0  0  0  0  0  0  0  0  0  0
  160.9230  204.8250  150.8650 C   0  0  0  0  0  0  0  0  0  0  0  0
  160.8170  206.6390  155.5480 C   0  0  0  0  0  2  0  0  0  0  0  0
  161.1250  208.3330  152.2900 C   0  0  0  0  0  0  0  0  0  0  0  0
  160.9740  207.6730  149.8750 C   0  0  0  0  0  2  0  0  0  0  0  0
  162.4930  210.9810  150.1810 O   0  0  0  0  0  0  0  0  0  0  0  0
  159.4640  210.4470  153.5000 C   0  0  1  0  0  3  0  0  0  0  0  0
  161.9020  209.9150  150.5040 C   0  0  0  0  0  0  0  0  0  0  0  0
  160.4990  210.3110  154.5900 C   0  0  1  0  0  3  0  0  0  0  0  0
  160.7800  208.1190  155.9720 C   0  0  1  0  0  3  0  0  0  0  0  0
  161.8060  208.8290  149.5720 N   0  0  0  0  0  0  0  0  0  0  0  0
  161.3260  209.7770  151.8840 C   0  0  1  0  0  3  0  0  0  0  0  0
  160.8310  203.5580  151.3510 N   0  0  0  0  0  0  0  0  0  0  0  0
  159.7980  210.8570  155.8160 C   0  0  0  0  0  2  0  0  0  0  0  0
  158.5520  211.5710  153.9500 C   0  0  0  0  0  2  0  0  0  0  0  0
  160.9690  204.9860  149.6170 O   0  0  0  0  0  0  0  0  0  0  0  0
  160.9600  206.7020  154.0650 C   0  0  0  0  0  0  0  0  0  0  0  0
  160.7850  203.2910  152.6800 C   0  0  0  0  0  3  0  0  0  0  0  0
  160.9720  205.9290  151.7580 C   0  0  0  0  0  0  0  0  0  0  0  0
  161.0440  207.9980  153.6500 C   0  0  0  0  0  0  0  0  0  0  0  0
  161.9560  208.4110  156.8850 C   0  0  0  0  0  1  0  0  0  0  0  0
  160.9000  208.9020  154.7390 N   0  0  0  0  0  0  0  0  0  0  0  0
  158.7970  211.8200  155.3690 N   0  0  0  0  0  2  0  0  0  0  0  0
  160.4560  212.0130  151.9560 O   0  0  0  0  0  1  0  0  0  0  0  0
  160.8320  204.3280  153.6040 C   0  0  0  0  0  2  0  0  0  0  0  0
  160.9300  205.6460  153.1520 C   0  0  0  0  0  0  0  0  0  0  0  0
  160.0920  210.6710  152.1120 C   0  0  2  0  0  3  0  0  0  0  0  0
  162.3680  208.9380  148.2340 C   0  0  0  0  0  2  0  0  0  0  0  0
  161.9560  207.0710  147.1360 C   0  0  0  0  0  1  0  0  0  0  0  0
  162.9480  207.7240  147.8650 O   0  0  0  0  0  0  0  0  0  0  0  0
  1 19  2  0  0  0  0
  1  4  1  0  0  0  0
  2 13  1  0  0  0  0
  2 19  1  0  0  0  0
  3 10  1  0  0  0  0
  4 20  2  0  0  0  0
  5  1  1  0  0  0  0
  6  8  2  0  0  0  0
  7 15  1  1  0  0  0
  7  9  1  0  0  0  0
  9 22  1  0  0  0  0
  9 14  1  1  0  0  0
 10 21  1  1  0  0  0
 11  5  1  0  0  0  0
 11  8  1  0  0  0  0
 12  8  1  6  0  0  0
 12 27  1  0  0  0  0
 12  4  1  0  0  0  0
 13 18  2  0  0  0  0
 15 23  1  0  0  0  0
 16  2  2  0  0  0  0
 17  3  1  0  0  0  0
 18 25  1  0  0  0  0
 19 26  1  0  0  0  0
 20 17  1  0  0  0  0
 20 22  1  0  0  0  0
 22 10  1  0  0  0  0
 23 14  1  0  0  0  0
 26 25  1  0  0  0  0
 26 17  2  0  0  0  0
 27 24  1  1  0  0  0
 27  7  1  0  0  0  0
 28 11  1  0  0  0  0
 29 30  1  0  0  0  0
 30 28  1  0  0  0  0
M  END
>  <MODEL>
2

>  <REMARK>
 VINA RESULT:      -5.8      2.603      5.663
  Name = 
  2 active torsions:
  status: ('A' for Active; 'I' for Inactive)
    1  A    between atoms: N_11  and  C_28
    2  A    between atoms: C_28  and  O_30
                            x       y       z     vdW  Elec       q    Type
                         _______ _______ _______ _____ _____    ______ ____

>  <TORSDO>
F 2

$$$$
=
 OpenBabel11122412323D

 30 35  0  0  1  0  0  0  0  0999 V2000
  161.1520  207.8850  151.2620 C   0  0  0  0  0  0  0  0  0  0  0  0
  161.3360  205.5150  150.4430 C   0  0  0  0  0  0  0  0  0  0  0  0
  160.8320  206.5890  155.3240 C   0  0  0  0  0  2  0  0  0  0  0  0
  161.0550  208.7720  152.3630 C   0  0  0  0  0  0  0  0  0  0  0  0
  161.0770  208.4640  149.8730 C   0  0  0  0  0  2  0  0  0  0  0  0
  162.1690  211.8420  150.7320 O   0  0  0  0  0  0  0  0  0  0  0  0
  159.1040  210.4780  153.7690 C   0  0  1  0  0  3  0  0  0  0  0  0
  161.7000  210.6800  150.8660 C   0  0  0  0  0  0  0  0  0  0  0  0
  160.1050  210.3020  154.8830 C   0  0  1  0  0  3  0  0  0  0  0  0
  160.5990  207.9760  155.9520 C   0  0  1  0  0  3  0  0  0  0  0  0
  161.7730  209.7400  149.7850 N   0  0  0  0  0  0  0  0  0  0  0  0
  161.0940  210.2740  152.1790 C   0  0  1  0  0  3  0  0  0  0  0  0
  161.3810  204.1870  150.7370 N   0  0  0  0  0  0  0  0  0  0  0  0
  159.2970  210.5760  156.1340 C   0  0  0  0  0  2  0  0  0  0  0  0
  158.0450  211.4100  154.3230 C   0  0  0  0  0  2  0  0  0  0  0  0
  161.4100  205.8630  149.2350 O   0  0  0  0  0  0  0  0  0  0  0  0
  161.0220  206.8880  153.8750 C   0  0  0  0  0  0  0  0  0  0  0  0
  161.3170  203.7220  152.0100 C   0  0  0  0  0  3  0  0  0  0  0  0
  161.2160  206.4720  151.4850 C   0  0  0  0  0  0  0  0  0  0  0  0
  160.9630  208.2320  153.6540 C   0  0  0  0  0  0  0  0  0  0  0  0
  161.6950  208.2630  156.9610 C   0  0  0  0  0  1  0  0  0  0  0  0
  160.6690  208.9420  154.8520 N   0  0  0  0  0  0  0  0  0  0  0  0
  158.2040  211.4730  155.7740 N   0  0  0  0  0  2  0  0  0  0  0  0
  159.9560  212.3590  152.5200 O   0  0  0  0  0  1  0  0  0  0  0  0
  161.2020  204.6100  153.0740 C   0  0  0  0  0  2  0  0  0  0  0  0
  161.1560  205.9820  152.8210 C   0  0  0  0  0  0  0  0  0  0  0  0
  159.7520  210.9760  152.4630 C   0  0  2  0  0  3  0  0  0  0  0  0
  162.3680  210.1110  148.5090 C   0  0  0  0  0  2  0  0  0  0  0  0
  162.4660  212.1160  147.5990 C   0  0  0  0  0  1  0  0  0  0  0  0
  161.5810  211.0790  147.8860 O   0  0  0  0  0  0  0  0  0  0  0  0
  1 19  2  0  0  0  0
  1  4  1  0  0  0  0
  2 13  1  0  0  0  0
  2 19  1  0  0  0  0
  3 10  1  0  0  0  0
  4 20  2  0  0  0  0
  5  1  1  0  0  0  0
  6  8  2  0  0  0  0
  7 15  1  1  0  0  0
  7  9  1  0  0  0  0
  9 14  1  1  0  0  0
 10 21  1  1  0  0  0
 11  5  1  0  0  0  0
 11  8  1  0  0  0  0
 12  8  1  6  0  0  0
 12  4  1  0  0  0  0
 12 27  1  0  0  0  0
 13 18  2  0  0  0  0
 15 23  1  0  0  0  0
 16  2  2  0  0  0  0
 17  3  1  0  0  0  0
 18 25  1  0  0  0  0
 19 26  1  0  0  0  0
 20 17  1  0  0  0  0
 20 22  1  0  0  0  0
 22  9  1  0  0  0  0
 22 10  1  0  0  0  0
 23 14  1  0  0  0  0
 26 25  1  0  0  0  0
 26 17  2  0  0  0  0
 27 24  1  1  0  0  0
 27  7  1  0  0  0  0
 28 11  1  0  0  0  0
 29 30  1  0  0  0  0
 30 28  1  0  0  0  0
M  END
>  <MODEL>
3

>  <REMARK>
 VINA RESULT:      -5.8      2.430      5.549
  Name = 
  2 active torsions:
  status: ('A' for Active; 'I' for Inactive)
    1  A    between atoms: N_11  and  C_28
    2  A    between atoms: C_28  and  O_30
                            x       y       z     vdW  Elec       q    Type
                         _______ _______ _______ _____ _____    ______ ____

>  <TORSDO>
F 2

$$$$
=
 OpenBabel11122412323D

 30 35  0  0  1  0  0  0  0  0999 V2000
  161.5250  208.7000  151.9170 C   0  0  0  0  0  0  0  0  0  0  0  0
  162.2620  208.8070  149.5150 C   0  0  0  0  0  0  0  0  0  0  0  0
  160.1310  212.7400  151.8000 C   0  0  0  0  0  2  0  0  0  0  0  0
  160.8940  209.3440  153.0100 C   0  0  0  0  0  0  0  0  0  0  0  0
  162.1300  207.3400  152.1460 C   0  0  0  0  0  2  0  0  0  0  0  0
  160.0730  206.4060  155.0160 O   0  0  0  0  0  0  0  0  0  0  0  0
  161.5230  210.6560  155.5740 C   0  0  1  0  0  3  0  0  0  0  0  0
  160.6550  207.1270  154.1610 C   0  0  0  0  0  0  0  0  0  0  0  0
  160.1740  211.2810  155.3180 C   0  0  1  0  0  3  0  0  0  0  0  0
  159.7360  212.8520  153.2850 C   0  0  1  0  0  3  0  0  0  0  0  0
  161.3080  206.5290  153.0340 N   0  0  0  0  0  0  0  0  0  0  0  0
  160.6300  208.6210  154.3140 C   0  0  1  0  0  3  0  0  0  0  0  0
  162.3640  209.5270  148.3660 N   0  0  0  0  0  0  0  0  0  0  0  0
  160.2080  212.5500  156.1430 C   0  0  0  0  0  2  0  0  0  0  0  0
  161.9640  211.1890  156.9230 C   0  0  0  0  0  2  0  0  0  0  0  0
  162.7030  207.6270  149.5240 O   0  0  0  0  0  0  0  0  0  0  0  0
  160.5980  211.3300  151.6670 C   0  0  0  0  0  0  0  0  0  0  0  0
  161.9090  210.8010  148.2630 C   0  0  0  0  0  3  0  0  0  0  0  0
  161.6630  209.3840  150.6670 C   0  0  0  0  0  0  0  0  0  0  0  0
  160.4690  210.6720  152.8530 C   0  0  0  0  0  0  0  0  0  0  0  0
  158.2580  213.1810  153.3890 C   0  0  0  0  0  1  0  0  0  0  0  0
  159.9970  211.5380  153.8790 N   0  0  0  0  0  0  0  0  0  0  0  0
  161.1210  212.3350  157.2610 N   0  0  0  0  0  2  0  0  0  0  0  0
  160.9950  208.5800  156.6860 O   0  0  0  0  0  1  0  0  0  0  0  0
  161.3100  211.4200  149.3540 C   0  0  0  0  0  2  0  0  0  0  0  0
  161.1800  210.7190  150.5540 C   0  0  0  0  0  0  0  0  0  0  0  0
  161.4900  209.1180  155.4930 C   0  0  2  0  0  3  0  0  0  0  0  0
  161.3320  205.0840  152.8620 C   0  0  0  0  0  2  0  0  0  0  0  0
  160.6610  203.8780  151.1420 C   0  0  0  0  0  1  0  0  0  0  0  0
  161.6530  204.7710  151.5410 O   0  0  0  0  0  0  0  0  0  0  0  0
  1  5  1  0  0  0  0
  1  4  1  0  0  0  0
  2 16  2  0  0  0  0
  2 19  1  0  0  0  0
  3 10  1  0  0  0  0
  5 11  1  0  0  0  0
  7 15  1  1  0  0  0
  8 12  1  0  0  0  0
  8  6  2  0  0  0  0
  9  7  1  0  0  0  0
  9 14  1  1  0  0  0
 10 21  1  6  0  0  0
 10 22  1  0  0  0  0
 11  8  1  0  0  0  0
 12  4  1  6  0  0  0
 12 27  1  0  0  0  0
 13  2  1  0  0  0  0
 14 23  1  0  0  0  0
 15 23  1  0  0  0  0
 17  3  1  0  0  0  0
 17 20  1  0  0  0  0
 18 13  2  0  0  0  0
 18 25  1  0  0  0  0
 19  1  2  0  0  0  0
 20  4  2  0  0  0  0
 20 22  1  0  0  0  0
 22  9  1  0  0  0  0
 25 26  1  0  0  0  0
 26 19  1  0  0  0  0
 26 17  2  0  0  0  0
 27  7  1  0  0  0  0
 27 24  1  1  0  0  0
 28 11  1  0  0  0  0
 29 30  1  0  0  0  0
 30 28  1  0  0  0  0
M  END
>  <MODEL>
4

>  <REMARK>
 VINA RESULT:      -5.6      1.806      2.538
  Name = 
  2 active torsions:
  status: ('A' for Active; 'I' for Inactive)
    1  A    between atoms: N_11  and  C_28
    2  A    between atoms: C_28  and  O_30
                            x       y       z     vdW  Elec       q    Type
                         _______ _______ _______ _____ _____    ______ ____

>  <TORSDO>
F 2

$$$$
=
 OpenBabel11122412323D

 30 35  0  0  1  0  0  0  0  0999 V2000
  160.9170  210.5320  152.4010 C   0  0  0  0  0  0  0  0  0  0  0  0
  161.9450  210.5790  150.1070 C   0  0  0  0  0  0  0  0  0  0  0  0
  158.8920  214.2330  151.7070 C   0  0  0  0  0  2  0  0  0  0  0  0
  160.0430  211.1360  153.3390 C   0  0  0  0  0  0  0  0  0  0  0  0
  161.7050  209.3250  152.8380 C   0  0  0  0  0  2  0  0  0  0  0  0
  159.4630  208.2660  155.5210 O   0  0  0  0  0  0  0  0  0  0  0  0
  160.0880  212.7380  155.8140 C   0  0  1  0  0  3  0  0  0  0  0  0
  160.0260  209.0100  154.6730 C   0  0  0  0  0  0  0  0  0  0  0  0
  158.7010  213.0880  155.3350 C   0  0  1  0  0  3  0  0  0  0  0  0
  158.2850  214.3890  153.1150 C   0  0  1  0  0  3  0  0  0  0  0  0
  160.9190  208.4520  153.6990 N   0  0  0  0  0  0  0  0  0  0  0  0
  159.7310  210.4830  154.6690 C   0  0  1  0  0  3  0  0  0  0  0  0
  162.0800  211.2130  148.9110 N   0  0  0  0  0  0  0  0  0  0  0  0
  158.4080  214.4030  156.0250 C   0  0  0  0  0  2  0  0  0  0  0  0
  160.2450  213.4470  157.1440 C   0  0  0  0  0  2  0  0  0  0  0  0
  162.5720  209.5030  150.2890 O   0  0  0  0  0  0  0  0  0  0  0  0
  159.6040  212.9240  151.7750 C   0  0  0  0  0  0  0  0  0  0  0  0
  161.4350  212.3720  148.6240 C   0  0  0  0  0  3  0  0  0  0  0  0
  161.1060  211.1290  151.1140 C   0  0  0  0  0  0  0  0  0  0  0  0
  159.4270  212.3490  152.9980 C   0  0  0  0  0  0  0  0  0  0  0  0
  156.7730  214.4530  153.0070 C   0  0  0  0  0  1  0  0  0  0  0  0
  158.6810  213.1950  153.8670 N   0  0  0  0  0  0  0  0  0  0  0  0
  159.1840  214.4450  157.2600 N   0  0  0  0  0  2  0  0  0  0  0  0
  159.7710  210.6960  157.0590 O   0  0  0  0  0  1  0  0  0  0  0  0
  160.5980  212.9570  149.5680 C   0  0  0  0  0  2  0  0  0  0  0  0
  160.4250  212.3410  150.8080 C   0  0  0  0  0  0  0  0  0  0  0  0
  160.3260  211.2180  155.8850 C   0  0  2  0  0  3  0  0  0  0  0  0
  161.2090  207.0260  153.6790 C   0  0  0  0  0  2  0  0  0  0  0  0
  161.5590  205.3620  152.2760 C   0  0  0  0  0  1  0  0  0  0  0  0
  161.8810  206.6980  152.5010 O   0  0  0  0  0  0  0  0  0  0  0  0
  1  5  1  0  0  0  0
  1  4  1  0  0  0  0
  2 16  2  0  0  0  0
  2 19  1  0  0  0  0
  3 17  1  0  0  0  0
  3 10  1  0  0  0  0
  5 11  1  0  0  0  0
  7 27  1  0  0  0  0
  7 15  1  1  0  0  0
  8  6  2  0  0  0  0
  9  7  1  0  0  0  0
  9 14  1  1  0  0  0
 10 21  1  6  0  0  0
 10 22  1  0  0  0  0
 11  8  1  0  0  0  0
 12  4  1  6  0  0  0
 12  8  1  0  0  0  0
 12 27  1  0  0  0  0
 13  2  1  0  0  0  0
 14 23  1  0  0  0  0
 15 23  1  0  0  0  0
 17 20  1  0  0  0  0
 18 13  2  0  0  0  0
 18 25  1  0  0  0  0
 19  1  2  0  0  0  0
 20  4  2  0  0  0  0
 20 22  1  0  0  0  0
 22  9  1  0  0  0  0
 25 26  1  0  0  0  0
 26 19  1  0  0  0  0
 26 17  2  0  0  0  0
 27 24  1  1  0  0  0
 28 11  1  0  0  0  0
 29 30  1  0  0  0  0
 30 28  1  0  0  0  0
M  END
>  <MODEL>
5

>  <REMARK>
 VINA RESULT:      -5.0      1.739      2.322
  Name = 
  2 active torsions:
  status: ('A' for Active; 'I' for Inactive)
    1  A    between atoms: N_11  and  C_28
    2  A    between atoms: C_28  and  O_30
                            x       y       z     vdW  Elec       q    Type
                         _______ _______ _______ _____ _____    ______ ____

>  <TORSDO>
F 2

$$$$
=
 OpenBabel11122412323D

 30 35  0  0  1  0  0  0  0  0999 V2000
  159.2930  212.7190  153.1760 C   0  0  0  0  0  0  0  0  0  0  0  0
  159.6070  212.2510  155.6260 C   0  0  0  0  0  0  0  0  0  0  0  0
  162.3120  209.8820  152.1180 C   0  0  0  0  0  2  0  0  0  0  0  0
  159.6430  212.4090  151.8380 C   0  0  0  0  0  0  0  0  0  0  0  0
  158.3440  213.8640  153.4140 C   0  0  0  0  0  2  0  0  0  0  0  0
  156.7310  213.8060  150.1370 O   0  0  0  0  0  0  0  0  0  0  0  0
  161.2070  213.4630  149.5720 C   0  0  1  0  0  3  0  0  0  0  0  0
  157.5960  213.6160  151.0350 C   0  0  0  0  0  0  0  0  0  0  0  0
  161.1700  212.0090  149.1730 C   0  0  1  0  0  3  0  0  0  0  0  0
  162.3030  210.1460  150.6000 C   0  0  1  0  0  3  0  0  0  0  0  0
  157.2940  213.9120  152.4050 N   0  0  0  0  0  0  0  0  0  0  0  0
  158.9340  213.0470  150.6620 C   0  0  1  0  0  3  0  0  0  0  0  0
  160.2500  211.5490  156.5980 N   0  0  0  0  0  0  0  0  0  0  0  0
  162.3600  211.8640  148.2490 C   0  0  0  0  0  2  0  0  0  0  0  0
  161.9370  214.1710  148.4480 C   0  0  0  0  0  2  0  0  0  0  0  0
  158.7390  213.0960  155.9710 O   0  0  0  0  0  0  0  0  0  0  0  0
  161.2420  210.7830  152.6370 C   0  0  0  0  0  0  0  0  0  0  0  0
  161.1920  210.6140  156.3190 C   0  0  0  0  0  3  0  0  0  0  0  0
  159.9140  212.0190  154.2580 C   0  0  0  0  0  0  0  0  0  0  0  0
  160.6450  211.4530  151.6110 C   0  0  0  0  0  0  0  0  0  0  0  0
  161.9590  208.8640  149.8670 C   0  0  0  0  0  1  0  0  0  0  0  0
  161.2620  211.1510  150.3640 N   0  0  0  0  0  0  0  0  0  0  0  0
  162.6130  213.1630  147.6340 N   0  0  0  0  0  2  0  0  0  0  0  0
  159.1590  214.3630  148.6690 O   0  0  0  0  0  1  0  0  0  0  0  0
  161.5340  210.3390  154.9990 C   0  0  0  0  0  2  0  0  0  0  0  0
  160.8980  211.0320  153.9670 C   0  0  0  0  0  0  0  0  0  0  0  0
  159.8070  214.0350  149.8640 C   0  0  2  0  0  3  0  0  0  0  0  0
  155.9990  214.4530  152.7880 C   0  0  0  0  0  2  0  0  0  0  0  0
  154.9110  214.4510  154.7050 C   0  0  0  0  0  1  0  0  0  0  0  0
  155.3850  213.6020  153.7070 O   0  0  0  0  0  0  0  0  0  0  0  0
  1  5  1  0  0  0  0
  1 19  1  0  0  0  0
  2 16  2  0  0  0  0
  2 13  1  0  0  0  0
  3 17  1  0  0  0  0
  4  1  2  0  0  0  0
  6  8  2  0  0  0  0
  7 15  1  6  0  0  0
  7 27  1  0  0  0  0
  8 11  1  0  0  0  0
  9 14  1  6  0  0  0
  9  7  1  0  0  0  0
  9 22  1  0  0  0  0
 10 21  1  6  0  0  0
 10  3  1  0  0  0  0
 11 28  1  0  0  0  0
 11  5  1  0  0  0  0
 12  8  1  1  0  0  0
 12  4  1  0  0  0  0
 17 26  1  0  0  0  0
 18 13  2  0  0  0  0
 19  2  1  0  0  0  0
 20  4  1  0  0  0  0
 20 17  2  0  0  0  0
 22 10  1  0  0  0  0
 22 20  1  0  0  0  0
 23 14  1  0  0  0  0
 23 15  1  0  0  0  0
 25 18  1  0  0  0  0
 26 19  2  0  0  0  0
 26 25  1  0  0  0  0
 27 24  1  6  0  0  0
 27 12  1  0  0  0  0
 28 30  1  0  0  0  0
 30 29  1  0  0  0  0
M  END
>  <MODEL>
6

>  <REMARK>
 VINA RESULT:      -4.9      2.558      7.080
  Name = 
  2 active torsions:
  status: ('A' for Active; 'I' for Inactive)
    1  A    between atoms: N_11  and  C_28
    2  A    between atoms: C_28  and  O_30
                            x       y       z     vdW  Elec       q    Type
                         _______ _______ _______ _____ _____    ______ ____

>  <TORSDO>
F 2

$$$$
=
 OpenBabel11122412323D

 30 35  0  0  1  0  0  0  0  0999 V2000
  161.4860  210.2930  150.0940 C   0  0  0  0  0  0  0  0  0  0  0  0
  162.3320  207.9640  149.6660 C   0  0  0  0  0  0  0  0  0  0  0  0
  160.7680  209.4110  154.2150 C   0  0  0  0  0  2  0  0  0  0  0  0
  161.0060  211.2450  151.0270 C   0  0  0  0  0  0  0  0  0  0  0  0
  161.5240  210.6820  148.6390 C   0  0  0  0  0  2  0  0  0  0  0  0
  161.6720  214.2970  149.1380 O   0  0  0  0  0  0  0  0  0  0  0  0
  158.5120  212.5680  151.8770 C   0  0  1  0  0  3  0  0  0  0  0  0
  161.4580  213.0770  149.3740 C   0  0  0  0  0  0  0  0  0  0  0  0
  159.3200  212.7640  153.1360 C   0  0  1  0  0  3  0  0  0  0  0  0
  160.1270  210.7600  154.5940 C   0  0  1  0  0  3  0  0  0  0  0  0
  161.9230  212.0710  148.4640 N   0  0  0  0  0  0  0  0  0  0  0  0
  160.7400  212.6820  150.6330 C   0  0  1  0  0  3  0  0  0  0  0  0
  162.6200  206.7280  150.1560 N   0  0  0  0  0  0  0  0  0  0  0  0
  158.2680  212.9680  154.2050 C   0  0  0  0  0  2  0  0  0  0  0  0
  157.1930  213.2690  152.1330 C   0  0  0  0  0  2  0  0  0  0  0  0
  162.5330  208.1860  148.4430 O   0  0  0  0  0  0  0  0  0  0  0  0
  161.1330  209.5870  152.7800 C   0  0  0  0  0  0  0  0  0  0  0  0
  162.4430  206.4030  151.4610 C   0  0  0  0  0  3  0  0  0  0  0  0
  161.8240  208.9720  150.5290 C   0  0  0  0  0  0  0  0  0  0  0  0
  160.8160  210.8430  152.3580 C   0  0  0  0  0  0  0  0  0  0  0  0
  160.9420  211.4130  155.6940 C   0  0  0  0  0  1  0  0  0  0  0  0
  160.1690  211.5870  153.3850 N   0  0  0  0  0  0  0  0  0  0  0  0
  157.0810  213.5280  153.5670 N   0  0  0  0  0  2  0  0  0  0  0  0
  159.1250  214.4520  150.5000 O   0  0  0  0  0  1  0  0  0  0  0  0
  161.9520  207.3470  152.3560 C   0  0  0  0  0  2  0  0  0  0  0  0
  161.6460  208.6310  151.9000 C   0  0  0  0  0  0  0  0  0  0  0  0
  159.2470  213.0640  150.6170 C   0  0  2  0  0  3  0  0  0  0  0  0
  162.6310  212.4340  147.2450 C   0  0  0  0  0  2  0  0  0  0  0  0
  162.4960  213.2170  145.1880 C   0  0  0  0  0  1  0  0  0  0  0  0
  161.7140  212.7540  146.2440 O   0  0  0  0  0  0  0  0  0  0  0  0
  1 19  2  0  0  0  0
  1  4  1  0  0  0  0
  2 13  1  0  0  0  0
  2 19  1  0  0  0  0
  3 10  1  0  0  0  0
  4 20  2  0  0  0  0
  5  1  1  0  0  0  0
  6  8  2  0  0  0  0
  7 15  1  1  0  0  0
  7  9  1  0  0  0  0
  9 22  1  0  0  0  0
  9 14  1  1  0  0  0
 10 21  1  1  0  0  0
 11  5  1  0  0  0  0
 11  8  1  0  0  0  0
 12  8  1  6  0  0  0
 12  4  1  0  0  0  0
 13 18  2  0  0  0  0
 15 23  1  0  0  0  0
 16  2  2  0  0  0  0
 17  3  1  0  0  0  0
 18 25  1  0  0  0  0
 19 26  1  0  0  0  0
 20 17  1  0  0  0  0
 20 22  1  0  0  0  0
 22 10  1  0  0  0  0
 23 14  1  0  0  0  0
 26 25  1  0  0  0  0
 26 17  2  0  0  0  0
 27 24  1  1  0  0  0
 27 12  1  0  0  0  0
 27  7  1  0  0  0  0
 28 11  1  0  0  0  0
 29 30  1  0  0  0  0
 30 28  1  0  0  0  0
M  END
>  <MODEL>
7

>  <REMARK>
 VINA RESULT:      -4.7      2.087      5.108
  Name = 
  2 active torsions:
  status: ('A' for Active; 'I' for Inactive)
    1  A    between atoms: N_11  and  C_28
    2  A    between atoms: C_28  and  O_30
                            x       y       z     vdW  Elec       q    Type
                         _______ _______ _______ _____ _____    ______ ____

>  <TORSDO>
F 2

$$$$
=
 OpenBabel11122412323D

 30 35  0  0  1  0  0  0  0  0999 V2000
  160.2150  212.1700  151.0950 C   0  0  0  0  0  0  0  0  0  0  0  0
  160.5910  212.9830  148.7460 C   0  0  0  0  0  0  0  0  0  0  0  0
  156.6170  214.4530  151.4420 C   0  0  0  0  0  2  0  0  0  0  0  0
  159.3840  212.1540  152.2420 C   0  0  0  0  0  0  0  0  0  0  0  0
  161.5440  211.4650  151.1700 C   0  0  0  0  0  2  0  0  0  0  0  0
  160.6700  209.1380  153.8470 O   0  0  0  0  0  0  0  0  0  0  0  0
  159.2090  213.2720  154.9650 C   0  0  1  0  0  3  0  0  0  0  0  0
  160.6320  210.1550  153.1040 C   0  0  0  0  0  0  0  0  0  0  0  0
  157.7510  212.9490  154.7520 C   0  0  1  0  0  3  0  0  0  0  0  0
  156.3210  214.1260  152.9180 C   0  0  1  0  0  3  0  0  0  0  0  0
  161.4510  210.2250  151.9290 N   0  0  0  0  0  0  0  0  0  0  0  0
  159.6980  211.2820  153.4390 C   0  0  1  0  0  3  0  0  0  0  0  0
  160.1610  213.7350  147.6970 N   0  0  0  0  0  0  0  0  0  0  0  0
  157.0380  213.8610  155.7280 C   0  0  0  0  0  2  0  0  0  0  0  0
  159.3000  213.8070  156.3810 C   0  0  0  0  0  2  0  0  0  0  0  0
  161.6670  212.3400  148.6200 O   0  0  0  0  0  0  0  0  0  0  0  0
  157.8480  213.6640  151.1480 C   0  0  0  0  0  0  0  0  0  0  0  0
  159.0100  214.4530  147.7400 C   0  0  0  0  0  3  0  0  0  0  0  0
  159.8300  212.9290  149.9440 C   0  0  0  0  0  0  0  0  0  0  0  0
  158.2200  212.9390  152.2400 C   0  0  0  0  0  0  0  0  0  0  0  0
  154.9660  213.4520  153.0230 C   0  0  0  0  0  1  0  0  0  0  0  0
  157.3720  213.2020  153.3520 N   0  0  0  0  0  0  0  0  0  0  0  0
  157.9500  214.1340  156.8350 N   0  0  0  0  0  2  0  0  0  0  0  0
  160.1420  211.2080  155.7970 O   0  0  0  0  0  1  0  0  0  0  0  0
  158.2200  214.4380  148.8840 C   0  0  0  0  0  2  0  0  0  0  0  0
  158.6190  213.6770  149.9840 C   0  0  0  0  0  0  0  0  0  0  0  0
  160.1290  212.0680  154.6930 C   0  0  2  0  0  3  0  0  0  0  0  0
  162.3550  209.1380  151.5800 C   0  0  0  0  0  2  0  0  0  0  0  0
  162.2790  206.9730  151.1720 C   0  0  0  0  0  1  0  0  0  0  0  0
  161.6720  208.1790  150.8310 O   0  0  0  0  0  0  0  0  0  0  0  0
  1  5  1  0  0  0  0
  1  4  1  0  0  0  0
  2 19  1  0  0  0  0
  3 10  1  0  0  0  0
  5 11  1  0  0  0  0
  7 15  1  1  0  0  0
  8 12  1  0  0  0  0
  8  6  2  0  0  0  0
  9  7  1  0  0  0  0
  9 14  1  1  0  0  0
 10 21  1  6  0  0  0
 10 22  1  0  0  0  0
 11  8  1  0  0  0  0
 12  4  1  6  0  0  0
 12 27  1  0  0  0  0
 13 18  2  0  0  0  0
 13  2  1  0  0  0  0
 14 23  1  0  0  0  0
 15 23  1  0  0  0  0
 16  2  2  0  0  0  0
 17  3  1  0  0  0  0
 17 20  1  0  0  0  0
 18 25  1  0  0  0  0
 19 26  1  0  0  0  0
 19  1  2  0  0  0  0
 20  4  2  0  0  0  0
 20 22  1  0  0  0  0
 22  9  1  0  0  0  0
 25 26  1  0  0  0  0
 26 17  2  0  0  0  0
 27  7  1  0  0  0  0
 27 24  1  1  0  0  0
 28 11  1  0  0  0  0
 30 29  1  0  0  0  0
 30 28  1  0  0  0  0
M  END
>  <MODEL>
8

>  <REMARK>
 VINA RESULT:      -4.3      1.677      2.230
  Name = 
  2 active torsions:
  status: ('A' for Active; 'I' for Inactive)
    1  A    between atoms: N_11  and  C_28
    2  A    between atoms: C_28  and  O_30
                            x       y       z     vdW  Elec       q    Type
                         _______ _______ _______ _____ _____    ______ ____

>  <TORSDO>
F 2

$$$$
=
 OpenBabel11122412323D

 30 35  0  0  1  0  0  0  0  0999 V2000
  161.1980  208.1140  151.6240 C   0  0  0  0  0  0  0  0  0  0  0  0
  161.2140  205.6070  151.8170 C   0  0  0  0  0  0  0  0  0  0  0  0
  161.0470  208.5660  155.8730 C   0  0  0  0  0  2  0  0  0  0  0  0
  161.2090  209.3700  152.2800 C   0  0  0  0  0  0  0  0  0  0  0  0
  161.0710  208.0970  150.1230 C   0  0  0  0  0  2  0  0  0  0  0  0
  162.3800  211.4540  149.5200 O   0  0  0  0  0  0  0  0  0  0  0  0
  159.4310  211.6250  152.9480 C   0  0  1  0  0  3  0  0  0  0  0  0
  161.8620  210.4760  150.1240 C   0  0  0  0  0  0  0  0  0  0  0  0
  160.4840  211.8380  154.0060 C   0  0  1  0  0  3  0  0  0  0  0  0
  160.9210  210.1020  155.9000 C   0  0  1  0  0  3  0  0  0  0  0  0
  161.8250  209.1820  149.5080 N   0  0  0  0  0  0  0  0  0  0  0  0
  161.3120  210.6690  151.5090 C   0  0  1  0  0  3  0  0  0  0  0  0
  161.2100  204.5070  152.6170 N   0  0  0  0  0  0  0  0  0  0  0  0
  159.7640  212.6420  155.0680 C   0  0  0  0  0  2  0  0  0  0  0  0
  158.4540  212.7720  153.1170 C   0  0  0  0  0  2  0  0  0  0  0  0
  161.2360  205.4410  150.5690 O   0  0  0  0  0  0  0  0  0  0  0  0
  161.1680  208.2510  154.4200 C   0  0  0  0  0  0  0  0  0  0  0  0
  161.1960  204.5920  153.9710 C   0  0  0  0  0  3  0  0  0  0  0  0
  161.2030  206.9070  152.3920 C   0  0  0  0  0  0  0  0  0  0  0  0
  161.1650  209.3960  153.6820 C   0  0  0  0  0  0  0  0  0  0  0  0
  162.0870  210.6900  156.6730 C   0  0  0  0  0  1  0  0  0  0  0  0
  160.9760  210.5430  154.5040 N   0  0  0  0  0  0  0  0  0  0  0  0
  158.6990  213.3960  154.4150 N   0  0  0  0  0  2  0  0  0  0  0  0
  160.3020  212.7910  151.0230 O   0  0  0  0  0  1  0  0  0  0  0  0
  161.1870  205.8350  154.5930 C   0  0  0  0  0  2  0  0  0  0  0  0
  161.1960  206.9930  153.8130 C   0  0  0  0  0  0  0  0  0  0  0  0
  160.0260  211.5170  151.5310 C   0  0  2  0  0  3  0  0  0  0  0  0
  162.3630  208.9720  148.1720 C   0  0  0  0  0  2  0  0  0  0  0  0
  161.7710  207.1110  147.1500 C   0  0  0  0  0  1  0  0  0  0  0  0
  162.7280  207.6350  148.0160 O   0  0  0  0  0  0  0  0  0  0  0  0
  1  4  2  0  0  0  0
  1 19  1  0  0  0  0
  2 19  1  0  0  0  0
  2 13  1  0  0  0  0
  3 10  1  0  0  0  0
  4 20  1  0  0  0  0
  5  1  1  0  0  0  0
  6  8  2  0  0  0  0
  7 15  1  6  0  0  0
  7  9  1  0  0  0  0
  9 22  1  0  0  0  0
  9 14  1  1  0  0  0
 10 21  1  1  0  0  0
 11  5  1  0  0  0  0
 11  8  1  0  0  0  0
 12  8  1  6  0  0  0
 12 27  1  0  0  0  0
 12  4  1  0  0  0  0
 13 18  2  0  0  0  0
 15 23  1  0  0  0  0
 16  2  2  0  0  0  0
 17  3  1  0  0  0  0
 18 25  1  0  0  0  0
 19 26  2  0  0  0  0
 20 17  2  0  0  0  0
 20 22  1  0  0  0  0
 22 10  1  0  0  0  0
 23 14  1  0  0  0  0
 26 17  1  0  0  0  0
 26 25  1  0  0  0  0
 27 24  1  1  0  0  0
 27  7  1  0  0  0  0
 28 11  1  0  0  0  0
 29 30  1  0  0  0  0
 30 28  1  0  0  0  0
M  END
>  <MODEL>
9

>  <REMARK>
 VINA RESULT:      -4.2      2.207      5.271
  Name = 
  2 active torsions:
  status: ('A' for Active; 'I' for Inactive)
    1  A    between atoms: N_11  and  C_28
    2  A    between atoms: C_28  and  O_30
                            x       y       z     vdW  Elec       q    Type
                         _______ _______ _______ _____ _____    ______ ____

>  <TORSDO>
F 2

$$$$
