=
 OpenBabel11122414003D

 37 43  0  0  1  0  0  0  0  0999 V2000
  158.8910  211.1540  156.1860 C   0  0  1  0  0  0  0  0  0  0  0  0
  161.4000  209.1400  154.2220 C   0  0  1  0  0  3  0  0  0  0  0  0
  162.4720  209.9030  151.2460 O   0  0  0  0  0  0  0  0  0  0  0  0
  160.8430  209.9950  156.6250 C   0  0  2  0  0  3  0  0  0  0  0  0
  160.7570  209.6860  152.9430 C   0  0  2  0  0  3  0  0  0  0  0  0
  161.3520  210.3170  155.2140 C   0  0  2  0  0  3  0  0  0  0  0  0
  161.3670  209.1330  151.6400 C   0  0  2  0  0  3  0  0  0  0  0  0
  161.4250  208.6640  157.0700 C   0  0  0  0  0  2  0  0  0  0  0  0
  160.5390  211.4330  154.5680 C   0  0  2  0  0  3  0  0  0  0  0  0
  159.3710  212.2760  156.8830 O   0  0  0  0  0  1  0  0  0  0  0  0
  160.9750  206.6540  153.8620 C   0  0  0  0  0  2  0  0  0  0  0  0
  160.9770  207.5060  156.1700 C   0  0  0  0  0  2  0  0  0  0  0  0
  159.1540  211.2540  154.8020 O   0  0  0  0  0  0  0  0  0  0  0  0
  160.9580  211.2570  149.8450 C   0  0  0  0  0  2  0  0  0  0  0  0
  162.2080  210.3740  149.9430 C   0  0  0  0  0  2  0  0  0  0  0  0
  160.6560  207.8810  154.7140 C   0  0  1  0  0  3  0  0  0  0  0  0
  160.8330  211.2070  153.0920 C   0  0  2  0  0  3  0  0  0  0  0  0
  159.4350  209.9550  156.7020 O   0  0  0  0  0  0  0  0  0  0  0  0
  161.7070  207.6260  151.6910 C   0  0  1  0  0  3  0  0  0  0  0  0
  157.5210  211.1060  156.3540 F   0  0  0  0  0  0  0  0  0  0  0  0
  160.9580  212.3560  150.8910 C   0  0  0  0  0  2  0  0  0  0  0  0
  160.0250  212.0120  152.0510 C   0  0  2  0  0  3  0  0  0  0  0  0
  160.6180  206.8240  152.3930 C   0  0  0  0  0  2  0  0  0  0  0  0
  161.3190  207.7950  149.2000 C   0  0  0  0  0  2  0  0  0  0  0  0
  161.9830  207.0050  150.3170 C   0  0  2  0  0  3  0  0  0  0  0  0
  161.6080  205.5200  150.2460 C   0  0  0  0  0  2  0  0  0  0  0  0
  161.3540  203.5980  148.6400 N   0  0  0  0  0  1  0  0  0  0  0  0
  161.5760  205.7820  147.8030 N   0  0  0  0  0  0  0  0  0  0  0  0
  161.5620  204.9900  148.8360 C   0  0  0  0  0  0  0  0  0  0  0  0
  161.8010  207.2270  147.8730 C   0  0  0  0  0  2  0  0  0  0  0  0
  159.4870  213.3400  152.6070 C   0  0  1  0  0  3  0  0  0  0  0  0
  158.4190  214.0350  151.7430 C   0  0  2  0  0  3  0  0  0  0  0  0
  158.0140  213.2250  152.9530 C   0  0  2  0  0  3  0  0  0  0  0  0
  157.6980  214.1650  154.0990 C   0  0  0  0  0  2  0  0  0  0  0  0
  158.8580  214.4520  154.7930 F   0  0  0  0  0  0  0  0  0  0  0  0
  158.2700  214.0550  149.3650 O   0  0  0  0  0  1  0  0  0  0  0  0
  157.9910  213.2830  150.4900 C   0  0  0  0  0  2  0  0  0  0  0  0
  1 20  1  1  0  0  0
  1 18  1  0  0  0  0
  1 10  1  0  0  0  0
  2 16  1  0  0  0  0
  2  6  1  0  0  0  0
  3  7  1  0  0  0  0
  4 18  1  0  0  0  0
  4  8  1  0  0  0  0
  5 17  1  0  0  0  0
  5  2  1  0  0  0  0
  6  4  1  0  0  0  0
  7 19  1  0  0  0  0
  7  5  1  0  0  0  0
  9 13  1  0  0  0  0
  9  6  1  0  0  0  0
 11 16  1  0  0  0  0
 12  8  1  0  0  0  0
 13  1  1  0  0  0  0
 14 15  1  0  0  0  0
 14 21  1  0  0  0  0
 15  3  1  0  0  0  0
 16 12  1  0  0  0  0
 17  9  1  0  0  0  0
 19 23  1  0  0  0  0
 21 22  1  0  0  0  0
 22 31  1  0  0  0  0
 22 17  1  0  0  0  0
 23 11  1  0  0  0  0
 24 25  1  0  0  0  0
 25 19  1  0  0  0  0
 26 25  1  0  0  0  0
 27 29  1  0  0  0  0
 28 30  1  0  0  0  0
 28 29  2  0  0  0  0
 29 26  1  0  0  0  0
 30 24  1  0  0  0  0
 31 33  1  0  0  0  0
 32 31  1  0  0  0  0
 32 33  1  0  0  0  0
 33 34  1  0  0  0  0
 34 35  1  0  0  0  0
 36 37  1  0  0  0  0
 37 32  1  0  0  0  0
M  END
>  <MODEL>
1

>  <REMARK>
 VINA RESULT:      -7.0      0.000      0.000
  Name = 
  4 active torsions:
  status: ('A' for Active; 'I' for Inactive)
    1  A    between atoms: C_1  and  C_27
    2  A    between atoms: C_4  and  C_37
    3  A    between atoms: C_8  and  C_12
    4  A    between atoms: C_23  and  C_30
                            x       y       z     vdW  Elec       q    Type
                         _______ _______ _______ _____ _____    ______ ____

>  <TORSDO>
F 4

$$$$
=
 OpenBabel11122414003D

 37 43  0  0  1  0  0  0  0  0999 V2000
  159.7420  211.2420  154.6440 C   0  0  1  0  0  0  0  0  0  0  0  0
  161.6160  208.1900  153.4690 C   0  0  1  0  0  3  0  0  0  0  0  0
  162.9350  207.8440  150.5150 O   0  0  0  0  0  0  0  0  0  0  0  0
  161.2680  209.7510  155.5330 C   0  0  2  0  0  3  0  0  0  0  0  0
  161.1880  208.5420  152.0410 C   0  0  2  0  0  3  0  0  0  0  0  0
  161.8830  209.5500  154.1420 C   0  0  2  0  0  3  0  0  0  0  0  0
  161.6460  207.5290  150.9730 C   0  0  2  0  0  3  0  0  0  0  0  0
  161.4340  208.4730  156.3370 C   0  0  0  0  0  2  0  0  0  0  0  0
  161.4390  210.6400  153.1720 C   0  0  2  0  0  3  0  0  0  0  0  0
  160.5060  212.3320  155.0950 O   0  0  0  0  0  1  0  0  0  0  0  0
  160.5060  205.9070  153.6750 C   0  0  0  0  0  2  0  0  0  0  0  0
  160.6950  207.2890  155.7020 C   0  0  0  0  0  2  0  0  0  0  0  0
  160.0560  210.9090  153.3080 O   0  0  0  0  0  0  0  0  0  0  0  0
  161.9060  209.1500  148.6910 C   0  0  0  0  0  2  0  0  0  0  0  0
  162.8490  208.0180  149.1180 C   0  0  0  0  0  2  0  0  0  0  0  0
  160.5310  207.3500  154.1740 C   0  0  1  0  0  3  0  0  0  0  0  0
  161.6920  209.9720  151.8290 C   0  0  2  0  0  3  0  0  0  0  0  0
  159.9060  210.1150  155.4810 O   0  0  0  0  0  0  0  0  0  0  0  0
  161.5390  206.0520  151.4160 C   0  0  1  0  0  3  0  0  0  0  0  0
  158.4120  211.6120  154.6860 F   0  0  0  0  0  0  0  0  0  0  0  0
  162.1960  210.4390  149.4390 C   0  0  0  0  0  2  0  0  0  0  0  0
  161.1750  210.6700  150.5530 C   0  0  2  0  0  3  0  0  0  0  0  0
  160.2490  205.7840  152.1810 C   0  0  0  0  0  2  0  0  0  0  0  0
  160.8890  205.5090  149.0350 C   0  0  0  0  0  2  0  0  0  0  0  0
  161.6590  205.0490  150.2630 C   0  0  2  0  0  3  0  0  0  0  0  0
  161.2610  203.6240  150.6670 C   0  0  0  0  0  2  0  0  0  0  0  0
  160.8140  201.3320  149.7270 N   0  0  0  0  0  1  0  0  0  0  0  0
  160.9720  203.1680  148.2700 N   0  0  0  0  0  0  0  0  0  0  0  0
  161.0590  202.7110  149.4860 C   0  0  0  0  0  0  0  0  0  0  0  0
  161.2190  204.5610  147.8920 C   0  0  0  0  0  2  0  0  0  0  0  0
  161.0260  212.1910  150.7200 C   0  0  1  0  0  3  0  0  0  0  0  0
  160.7150  212.9720  149.4300 C   0  0  2  0  0  3  0  0  0  0  0  0
  159.6100  212.6340  150.4050 C   0  0  2  0  0  3  0  0  0  0  0  0
  159.2790  213.8630  151.2280 C   0  0  0  0  0  2  0  0  0  0  0  0
  158.8030  213.4740  152.4660 F   0  0  0  0  0  0  0  0  0  0  0  0
  160.9730  212.8420  147.0650 O   0  0  0  0  0  1  0  0  0  0  0  0
  160.5300  212.1280  148.1760 C   0  0  0  0  0  2  0  0  0  0  0  0
  1 20  1  1  0  0  0
  1 10  1  0  0  0  0
  1 18  1  0  0  0  0
  2  6  1  0  0  0  0
  2 16  1  0  0  0  0
  3  7  1  0  0  0  0
  4  8  1  0  0  0  0
  5  2  1  0  0  0  0
  6  4  1  0  0  0  0
  7 19  1  0  0  0  0
  7  5  1  0  0  0  0
  9 13  1  0  0  0  0
  9  6  1  0  0  0  0
 11 16  1  0  0  0  0
 12  8  1  0  0  0  0
 13  1  1  0  0  0  0
 14 15  1  0  0  0  0
 14 21  1  0  0  0  0
 15  3  1  0  0  0  0
 16 12  1  0  0  0  0
 17  5  1  0  0  0  0
 17  9  1  0  0  0  0
 18  4  1  0  0  0  0
 19 23  1  0  0  0  0
 21 22  1  0  0  0  0
 22 31  1  0  0  0  0
 22 17  1  0  0  0  0
 23 11  1  0  0  0  0
 24 25  1  0  0  0  0
 25 26  1  0  0  0  0
 25 19  1  0  0  0  0
 28 29  2  0  0  0  0
 29 27  1  0  0  0  0
 29 26  1  0  0  0  0
 30 28  1  0  0  0  0
 30 24  1  0  0  0  0
 32 33  1  0  0  0  0
 32 31  1  0  0  0  0
 33 31  1  0  0  0  0
 33 34  1  0  0  0  0
 34 35  1  0  0  0  0
 36 37  1  0  0  0  0
 37 32  1  0  0  0  0
M  END
>  <MODEL>
2

>  <REMARK>
 VINA RESULT:      -5.8      1.573      2.233
  Name = 
  4 active torsions:
  status: ('A' for Active; 'I' for Inactive)
    1  A    between atoms: C_1  and  C_27
    2  A    between atoms: C_4  and  C_37
    3  A    between atoms: C_8  and  C_12
    4  A    between atoms: C_23  and  C_30
                            x       y       z     vdW  Elec       q    Type
                         _______ _______ _______ _____ _____    ______ ____

>  <TORSDO>
F 4

$$$$
=
 OpenBabel11122414003D

 37 43  0  0  1  0  0  0  0  0999 V2000
  159.8210  209.3830  154.7660 C   0  0  1  0  0  0  0  0  0  0  0  0
  161.6850  207.3440  152.2010 C   0  0  1  0  0  3  0  0  0  0  0  0
  162.7720  208.4860  149.3550 O   0  0  0  0  0  0  0  0  0  0  0  0
  161.4570  207.7500  154.7700 C   0  0  2  0  0  3  0  0  0  0  0  0
  161.1330  208.2890  151.1280 C   0  0  2  0  0  3  0  0  0  0  0  0
  161.9640  208.2540  153.4130 C   0  0  2  0  0  3  0  0  0  0  0  0
  161.5340  207.9150  149.6870 C   0  0  2  0  0  3  0  0  0  0  0  0
  161.7240  206.2580  154.8760 C   0  0  0  0  0  2  0  0  0  0  0  0
  161.4120  209.6370  153.0890 C   0  0  2  0  0  3  0  0  0  0  0  0
  160.5860  210.1870  155.6270 O   0  0  0  0  0  1  0  0  0  0  0  0
  160.6620  205.1590  151.3840 C   0  0  0  0  0  2  0  0  0  0  0  0
  160.9720  205.4570  153.8060 C   0  0  0  0  0  2  0  0  0  0  0  0
  160.0370  209.7250  153.4120 O   0  0  0  0  0  0  0  0  0  0  0  0
  161.5620  210.4190  148.4100 C   0  0  0  0  0  2  0  0  0  0  0  0
  162.5690  209.2800  148.2070 C   0  0  0  0  0  2  0  0  0  0  0  0
  160.6840  206.2070  152.4950 C   0  0  1  0  0  3  0  0  0  0  0  0
  161.5760  209.6830  151.5770 C   0  0  2  0  0  3  0  0  0  0  0  0
  160.0850  208.0100  154.9720 O   0  0  0  0  0  0  0  0  0  0  0  0
  161.5060  206.3970  149.3970 C   0  0  1  0  0  3  0  0  0  0  0  0
  158.4880  209.6070  155.0510 F   0  0  0  0  0  0  0  0  0  0  0  0
  161.8730  211.2320  149.6540 C   0  0  0  0  0  2  0  0  0  0  0  0
  160.9380  210.8580  150.8040 C   0  0  2  0  0  3  0  0  0  0  0  0
  160.2900  205.7240  150.0210 C   0  0  0  0  0  2  0  0  0  0  0  0
  160.3980  206.6590  147.1410 C   0  0  0  0  0  2  0  0  0  0  0  0
  161.5630  206.0490  147.9050 C   0  0  2  0  0  3  0  0  0  0  0  0
  161.6690  204.5420  147.6460 C   0  0  0  0  0  2  0  0  0  0  0  0
  161.5880  202.8180  145.8120 N   0  0  0  0  0  1  0  0  0  0  0  0
  160.8690  205.0110  145.3710 N   0  0  0  0  0  0  0  0  0  0  0  0
  161.3960  204.1690  146.2120 C   0  0  0  0  0  0  0  0  0  0  0  0
  160.6390  206.4290  145.6570 C   0  0  0  0  0  2  0  0  0  0  0  0
  160.7590  212.1160  151.6680 C   0  0  1  0  0  3  0  0  0  0  0  0
  159.9700  213.2630  151.0100 C   0  0  2  0  0  3  0  0  0  0  0  0
  159.2950  212.3410  152.0000 C   0  0  2  0  0  3  0  0  0  0  0  0
  159.1910  213.0380  153.3400 C   0  0  0  0  0  2  0  0  0  0  0  0
  158.3350  212.3310  154.1630 F   0  0  0  0  0  0  0  0  0  0  0  0
  158.1440  213.5270  149.5030 O   0  0  0  0  0  1  0  0  0  0  0  0
  159.4170  212.9730  149.6220 C   0  0  0  0  0  2  0  0  0  0  0  0
  1 18  1  0  0  0  0
  1 20  1  1  0  0  0
  1 10  1  0  0  0  0
  2 16  1  0  0  0  0
  2  6  1  0  0  0  0
  3  7  1  0  0  0  0
  4  8  1  0  0  0  0
  4 18  1  0  0  0  0
  5 17  1  0  0  0  0
  5  2  1  0  0  0  0
  6  4  1  0  0  0  0
  7  5  1  0  0  0  0
  9 13  1  0  0  0  0
  9  6  1  0  0  0  0
 11 16  1  0  0  0  0
 12  8  1  0  0  0  0
 13  1  1  0  0  0  0
 14 21  1  0  0  0  0
 15 14  1  0  0  0  0
 15  3  1  0  0  0  0
 16 12  1  0  0  0  0
 17  9  1  0  0  0  0
 19  7  1  0  0  0  0
 19 23  1  0  0  0  0
 21 22  1  0  0  0  0
 22 17  1  0  0  0  0
 22 31  1  0  0  0  0
 23 11  1  0  0  0  0
 24 25  1  0  0  0  0
 25 19  1  0  0  0  0
 26 25  1  0  0  0  0
 27 29  1  0  0  0  0
 28 30  1  0  0  0  0
 28 29  2  0  0  0  0
 29 26  1  0  0  0  0
 30 24  1  0  0  0  0
 31 33  1  0  0  0  0
 32 31  1  0  0  0  0
 32 33  1  0  0  0  0
 33 34  1  0  0  0  0
 34 35  1  0  0  0  0
 36 37  1  0  0  0  0
 37 32  1  0  0  0  0
M  END
>  <MODEL>
3

>  <REMARK>
 VINA RESULT:      -5.2      1.670      2.450
  Name = 
  4 active torsions:
  status: ('A' for Active; 'I' for Inactive)
    1  A    between atoms: C_1  and  C_27
    2  A    between atoms: C_4  and  C_37
    3  A    between atoms: C_8  and  C_12
    4  A    between atoms: C_23  and  C_30
                            x       y       z     vdW  Elec       q    Type
                         _______ _______ _______ _____ _____    ______ ____

>  <TORSDO>
F 4

$$$$
=
 OpenBabel11122414003D

 37 43  0  0  1  0  0  0  0  0999 V2000
  161.6680  208.3910  148.2710 C   0  0  1  0  0  0  0  0  0  0  0  0
  161.5100  210.6320  151.2980 C   0  0  1  0  0  3  0  0  0  0  0  0
  161.5070  209.5910  154.3810 O   0  0  0  0  0  0  0  0  0  0  0  0
  162.5750  210.4140  148.9240 C   0  0  2  0  0  3  0  0  0  0  0  0
  160.8460  209.4760  152.0530 C   0  0  2  0  0  3  0  0  0  0  0  0
  162.5510  209.9530  150.3870 C   0  0  2  0  0  3  0  0  0  0  0  0
  160.4370  209.8160  153.5000 C   0  0  2  0  0  3  0  0  0  0  0  0
  162.4090  211.9230  148.8770 C   0  0  0  0  0  2  0  0  0  0  0  0
  162.3470  208.4460  150.4950 C   0  0  2  0  0  3  0  0  0  0  0  0
  162.9330  207.9180  147.8860 O   0  0  0  0  0  1  0  0  0  0  0  0
  159.6400  212.3530  151.4610 C   0  0  0  0  0  2  0  0  0  0  0  0
  161.0630  212.3770  149.4540 C   0  0  0  0  0  2  0  0  0  0  0  0
  161.3520  208.0020  149.5930 O   0  0  0  0  0  0  0  0  0  0  0  0
  160.6330  207.3170  154.7730 C   0  0  0  0  0  2  0  0  0  0  0  0
  161.0600  208.6710  155.3520 C   0  0  0  0  0  2  0  0  0  0  0  0
  160.4590  211.4600  150.5310 C   0  0  1  0  0  3  0  0  0  0  0  0
  161.8300  208.3120  151.9200 C   0  0  2  0  0  3  0  0  0  0  0  0
  161.5780  209.7950  148.1400 O   0  0  0  0  0  0  0  0  0  0  0  0
  159.8390  211.2300  153.6730 C   0  0  1  0  0  3  0  0  0  0  0  0
  160.7310  207.8250  147.4280 F   0  0  0  0  0  0  0  0  0  0  0  0
  161.6850  206.7420  153.8430 C   0  0  0  0  0  2  0  0  0  0  0  0
  161.2930  206.9390  152.3790 C   0  0  2  0  0  3  0  0  0  0  0  0
  158.8880  211.5840  152.5370 C   0  0  0  0  0  2  0  0  0  0  0  0
  157.6880  210.9440  154.9680 C   0  0  0  0  0  2  0  0  0  0  0  0
  159.1240  211.4420  155.0120 C   0  0  2  0  0  3  0  0  0  0  0  0
  159.1940  212.8930  155.5040 C   0  0  0  0  0  2  0  0  0  0  0  0
  158.2890  214.4530  157.2610 N   0  0  0  0  0  1  0  0  0  0  0  0
  157.2770  212.3570  156.9440 N   0  0  0  0  0  0  0  0  0  0  0  0
  158.2330  213.1810  156.6280 C   0  0  0  0  0  0  0  0  0  0  0  0
  157.1230  211.0150  156.3790 C   0  0  0  0  0  2  0  0  0  0  0  0
  161.8930  205.7660  151.5890 C   0  0  1  0  0  3  0  0  0  0  0  0
  161.4170  204.3660  152.0180 C   0  0  2  0  0  3  0  0  0  0  0  0
  160.8200  205.0360  150.8020 C   0  0  2  0  0  3  0  0  0  0  0  0
  161.4370  204.4430  149.5520 C   0  0  0  0  0  2  0  0  0  0  0  0
  160.8340  204.9910  148.4360 F   0  0  0  0  0  0  0  0  0  0  0  0
  159.7200  203.1010  153.1120 O   0  0  0  0  0  1  0  0  0  0  0  0
  160.3670  204.3350  153.1200 C   0  0  0  0  0  2  0  0  0  0  0  0
  1 20  1  6  0  0  0
  1 13  1  0  0  0  0
  2  5  1  0  0  0  0
  3 15  1  0  0  0  0
  4  6  1  0  0  0  0
  5  7  1  0  0  0  0
  6  9  1  0  0  0  0
  6  2  1  0  0  0  0
  7 19  1  0  0  0  0
  7  3  1  0  0  0  0
  8  4  1  0  0  0  0
  8 12  1  0  0  0  0
  9 17  1  0  0  0  0
 10  1  1  0  0  0  0
 11 23  1  0  0  0  0
 12 16  1  0  0  0  0
 13  9  1  0  0  0  0
 14 15  1  0  0  0  0
 16  2  1  0  0  0  0
 16 11  1  0  0  0  0
 17  5  1  0  0  0  0
 17 22  1  0  0  0  0
 18  1  1  0  0  0  0
 18  4  1  0  0  0  0
 19 25  1  0  0  0  0
 21 14  1  0  0  0  0
 22 21  1  0  0  0  0
 23 19  1  0  0  0  0
 24 25  1  0  0  0  0
 24 30  1  0  0  0  0
 25 26  1  0  0  0  0
 26 29  1  0  0  0  0
 29 28  2  0  0  0  0
 29 27  1  0  0  0  0
 30 28  1  0  0  0  0
 31 32  1  0  0  0  0
 31 22  1  0  0  0  0
 32 37  1  0  0  0  0
 33 31  1  0  0  0  0
 33 32  1  0  0  0  0
 34 33  1  0  0  0  0
 35 34  1  0  0  0  0
 36 37  1  0  0  0  0
M  END
>  <MODEL>
4

>  <REMARK>
 VINA RESULT:      -5.0      4.298      8.217
  Name = 
  4 active torsions:
  status: ('A' for Active; 'I' for Inactive)
    1  A    between atoms: C_1  and  C_27
    2  A    between atoms: C_4  and  C_37
    3  A    between atoms: C_8  and  C_12
    4  A    between atoms: C_23  and  C_30
                            x       y       z     vdW  Elec       q    Type
                         _______ _______ _______ _____ _____    ______ ____

>  <TORSDO>
F 4

$$$$
