=
 OpenBabel11122413473D

 37 42  0  0  1  0  0  0  0  0999 V2000
  161.9030  207.0630  149.0170 C   0  0  1  0  0  0  0  0  0  0  0  0
  161.1760  207.3690  153.0750 C   0  0  0  0  0  0  0  0  0  0  0  0
  158.7020  209.6580  153.8480 C   0  0  0  0  0  2  0  0  0  0  0  0
  161.8090  205.8980  151.2860 C   0  0  0  0  0  0  0  0  0  0  0  0
  160.9360  208.7180  153.1710 C   0  0  0  0  0  0  0  0  0  0  0  0
  161.6610  207.1510  151.8340 C   0  0  0  0  0  0  0  0  0  0  0  0
  160.0730  209.2740  154.1790 N   0  0  0  0  0  0  0  0  0  0  0  0
  161.4910  204.7940  152.1040 C   0  0  0  0  0  3  0  0  0  0  0  0
  161.7420  208.3370  151.1870 C   0  0  0  0  0  0  0  0  0  0  0  0
  160.4330  206.9760  148.6430 C   0  0  0  0  0  1  0  0  0  0  0  0
  160.4670  206.5830  155.2770 N   0  0  0  0  0  2  0  0  0  0  0  0
  161.0170  205.0080  153.4300 C   0  0  0  0  0  3  0  0  0  0  0  0
  162.1590  208.4140  149.7460 C   0  0  0  0  0  2  0  0  0  0  0  0
  159.5150  211.9440  153.0650 C   0  0  1  0  0  3  0  0  0  0  0  0
  158.6200  210.7380  152.7750 C   0  0  0  0  0  2  0  0  0  0  0  0
  160.8550  206.3230  153.9260 C   0  0  0  0  0  0  0  0  0  0  0  0
  161.3080  209.3320  152.0020 N   0  0  0  0  0  0  0  0  0  0  0  0
  162.2870  205.8070  149.8590 C   0  0  0  0  0  2  0  0  0  0  0  0
  160.3350  209.0810  155.6090 C   0  0  1  0  0  3  0  0  0  0  0  0
  162.6520  207.0490  147.8410 O   0  0  0  0  0  1  0  0  0  0  0  0
  161.0030  211.6590  152.8260 C   0  0  0  0  0  2  0  0  0  0  0  0
  161.2410  210.7460  151.6230 C   0  0  0  0  0  2  0  0  0  0  0  0
  161.0010  207.7430  155.9920 C   0  0  0  0  0  2  0  0  0  0  0  0
  162.4600  210.0890  156.4540 C   0  0  0  0  0  3  0  0  0  0  0  0
  161.1010  210.2410  156.1580 C   0  0  0  0  0  0  0  0  0  0  0  0
  160.4640  211.4630  156.4230 C   0  0  0  0  0  3  0  0  0  0  0  0
  160.5100  213.8180  157.2510 C   0  0  0  0  0  1  0  0  0  0  0  0
  162.5460  212.3710  157.2610 C   0  0  0  0  0  3  0  0  0  0  0  0
  161.1870  212.5270  156.9710 C   0  0  0  0  0  0  0  0  0  0  0  0
  163.1830  211.1530  157.0020 C   0  0  0  0  0  3  0  0  0  0  0  0
  159.0740  213.1250  152.2650 C   0  0  0  0  0  0  0  0  0  0  0  0
  158.6580  212.9310  150.9120 N   0  0  0  0  0  2  0  0  0  0  0  0
  159.0590  214.2760  152.7790 O   0  0  0  0  0  0  0  0  0  0  0  0
  157.0290  213.6370  149.3900 O   0  0  0  0  0  1  0  0  0  0  0  0
  158.1840  214.0230  150.0730 C   0  0  2  0  0  3  0  0  0  0  0  0
  160.4080  213.4430  149.0340 C   0  0  0  0  0  1  0  0  0  0  0  0
  159.2680  214.4470  149.0880 C   0  0  0  0  0  2  0  0  0  0  0  0
  1 10  1  6  0  0  0
  1 13  1  0  0  0  0
  1 18  1  0  0  0  0
  2  5  2  0  0  0  0
  2 16  1  0  0  0  0
  3  7  1  0  0  0  0
  4  6  1  0  0  0  0
  4  8  2  0  0  0  0
  5  7  1  0  0  0  0
  6  2  1  0  0  0  0
  7 19  1  0  0  0  0
  8 12  1  0  0  0  0
  9  6  2  0  0  0  0
  9 17  1  0  0  0  0
 11 23  1  0  0  0  0
 12 16  2  0  0  0  0
 13  9  1  0  0  0  0
 14 31  1  6  0  0  0
 15 14  1  0  0  0  0
 15  3  1  0  0  0  0
 16 11  1  0  0  0  0
 17  5  1  0  0  0  0
 18  4  1  0  0  0  0
 19 23  1  0  0  0  0
 19 25  1  6  0  0  0
 20  1  1  0  0  0  0
 21 14  1  0  0  0  0
 22 17  1  0  0  0  0
 22 21  1  0  0  0  0
 24 30  1  0  0  0  0
 25 26  1  0  0  0  0
 25 24  2  0  0  0  0
 26 29  2  0  0  0  0
 29 27  1  0  0  0  0
 29 28  1  0  0  0  0
 30 28  2  0  0  0  0
 31 33  2  0  0  0  0
 32 31  1  0  0  0  0
 35 34  1  6  0  0  0
 35 32  1  0  0  0  0
 36 37  1  0  0  0  0
 37 35  1  0  0  0  0
M  END
>  <MODEL>
1

>  <REMARK>
 VINA RESULT:      -4.2      0.000      0.000
  Name = 
  4 active torsions:
  status: ('A' for Active; 'I' for Inactive)
    1  A    between atoms: C_4  and  N_12
    2  A    between atoms: C_4  and  C_37
    3  A    between atoms: C_8  and  C_18
    4  A    between atoms: C_23  and  C_30
                            x       y       z     vdW  Elec       q    Type
                         _______ _______ _______ _____ _____    ______ ____

>  <TORSDO>
F 4

$$$$
=
 OpenBabel11122413473D

 37 42  0  0  1  0  0  0  0  0999 V2000
  157.7040  213.5340  153.9960 C   0  0  1  0  0  0  0  0  0  0  0  0
  159.8450  210.1130  154.8900 C   0  0  0  0  0  0  0  0  0  0  0  0
  162.7510  209.8010  153.0420 C   0  0  0  0  0  2  0  0  0  0  0  0
  158.4090  211.8290  155.7600 C   0  0  0  0  0  0  0  0  0  0  0  0
  160.3060  209.7890  153.6370 C   0  0  0  0  0  0  0  0  0  0  0  0
  158.9290  211.0910  154.7230 C   0  0  0  0  0  0  0  0  0  0  0  0
  161.5420  209.0810  153.4350 N   0  0  0  0  0  0  0  0  0  0  0  0
  158.8210  211.4900  157.0650 C   0  0  0  0  0  3  0  0  0  0  0  0
  158.8080  211.3470  153.3990 C   0  0  0  0  0  0  0  0  0  0  0  0
  158.9180  214.4460  154.0470 C   0  0  0  0  0  1  0  0  0  0  0  0
  161.1530  208.6080  156.3040 N   0  0  0  0  0  2  0  0  0  0  0  0
  159.7570  210.4340  157.2600 C   0  0  0  0  0  3  0  0  0  0  0  0
  157.9290  212.4560  152.8960 C   0  0  0  0  0  2  0  0  0  0  0  0
  162.0750  209.6330  150.5900 C   0  0  1  0  0  3  0  0  0  0  0  0
  162.6170  210.5260  151.7080 C   0  0  0  0  0  2  0  0  0  0  0  0
  160.2810  209.7310  156.1500 C   0  0  0  0  0  0  0  0  0  0  0  0
  159.6470  210.5410  152.7000 N   0  0  0  0  0  0  0  0  0  0  0  0
  157.4530  212.9440  155.4180 C   0  0  0  0  0  2  0  0  0  0  0  0
  161.7710  207.7520  154.0120 C   0  0  1  0  0  3  0  0  0  0  0  0
  156.5980  214.3030  153.6380 O   0  0  0  0  0  1  0  0  0  0  0  0
  160.5730  209.3530  150.7200 C   0  0  0  0  0  2  0  0  0  0  0  0
  159.7920  210.5590  151.2410 C   0  0  0  0  0  2  0  0  0  0  0  0
  161.0870  207.4840  155.3680 C   0  0  0  0  0  2  0  0  0  0  0  0
  161.1250  205.4000  153.4690 C   0  0  0  0  0  3  0  0  0  0  0  0
  161.4340  206.6880  153.0180 C   0  0  0  0  0  0  0  0  0  0  0  0
  161.4690  206.9530  151.6410 C   0  0  0  0  0  3  0  0  0  0  0  0
  161.2250  206.2200  149.2660 C   0  0  0  0  0  1  0  0  0  0  0  0
  160.8730  204.6520  151.1790 C   0  0  0  0  0  3  0  0  0  0  0  0
  161.1860  205.9360  150.7230 C   0  0  0  0  0  0  0  0  0  0  0  0
  160.8430  204.3840  152.5510 C   0  0  0  0  0  3  0  0  0  0  0  0
  162.3820  210.2260  149.2550 C   0  0  0  0  0  0  0  0  0  0  0  0
  162.3670  211.6470  149.1060 N   0  0  0  0  0  2  0  0  0  0  0  0
  162.6600  209.4840  148.2740 O   0  0  0  0  0  0  0  0  0  0  0  0
  163.9840  212.8190  147.8880 O   0  0  0  0  0  1  0  0  0  0  0  0
  162.6860  212.3070  147.8470 C   0  0  2  0  0  3  0  0  0  0  0  0
  160.2910  212.8740  147.2900 C   0  0  0  0  0  1  0  0  0  0  0  0
  161.6840  213.4210  147.5610 C   0  0  0  0  0  2  0  0  0  0  0  0
  1 10  1  1  0  0  0
  1 18  1  0  0  0  0
  2 16  1  0  0  0  0
  3  7  1  0  0  0  0
  4  8  2  0  0  0  0
  5  2  2  0  0  0  0
  6  2  1  0  0  0  0
  6  4  1  0  0  0  0
  7  5  1  0  0  0  0
  7 19  1  0  0  0  0
  8 12  1  0  0  0  0
  9  6  2  0  0  0  0
 13  9  1  0  0  0  0
 13  1  1  0  0  0  0
 14 31  1  6  0  0  0
 14 21  1  0  0  0  0
 14 15  1  0  0  0  0
 15  3  1  0  0  0  0
 16 11  1  0  0  0  0
 16 12  2  0  0  0  0
 17  9  1  0  0  0  0
 17  5  1  0  0  0  0
 18  4  1  0  0  0  0
 19 25  1  6  0  0  0
 19 23  1  0  0  0  0
 20  1  1  0  0  0  0
 21 22  1  0  0  0  0
 22 17  1  0  0  0  0
 23 11  1  0  0  0  0
 25 24  1  0  0  0  0
 26 25  2  0  0  0  0
 27 29  1  0  0  0  0
 28 30  1  0  0  0  0
 29 28  2  0  0  0  0
 29 26  1  0  0  0  0
 30 24  2  0  0  0  0
 32 31  1  0  0  0  0
 33 31  2  0  0  0  0
 35 34  1  1  0  0  0
 35 32  1  0  0  0  0
 36 37  1  0  0  0  0
 37 35  1  0  0  0  0
M  END
>  <MODEL>
2

>  <REMARK>
 VINA RESULT:      -1.6      2.043      6.308
  Name = 
  4 active torsions:
  status: ('A' for Active; 'I' for Inactive)
    1  A    between atoms: C_4  and  N_12
    2  A    between atoms: C_4  and  C_37
    3  A    between atoms: C_8  and  C_18
    4  A    between atoms: C_23  and  C_30
                            x       y       z     vdW  Elec       q    Type
                         _______ _______ _______ _____ _____    ______ ____

>  <TORSDO>
F 4

$$$$
=
 OpenBabel11122413473D

 37 42  0  0  1  0  0  0  0  0999 V2000
  158.0730  213.1630  155.0000 C   0  0  1  0  0  0  0  0  0  0  0  0
  160.1640  209.6160  154.6260 C   0  0  0  0  0  0  0  0  0  0  0  0
  162.9280  209.8740  152.5640 C   0  0  0  0  0  2  0  0  0  0  0  0
  158.8430  210.9870  156.0890 C   0  0  0  0  0  0  0  0  0  0  0  0
  160.5300  209.6950  153.3050 C   0  0  0  0  0  0  0  0  0  0  0  0
  159.2700  210.6040  154.8390 C   0  0  0  0  0  0  0  0  0  0  0  0
  161.7260  209.0760  152.8020 N   0  0  0  0  0  0  0  0  0  0  0  0
  159.3330  210.2540  157.1910 C   0  0  0  0  0  3  0  0  0  0  0  0
  159.0670  211.2620  153.6730 C   0  0  0  0  0  0  0  0  0  0  0  0
  159.3160  214.0030  155.2420 C   0  0  0  0  0  1  0  0  0  0  0  0
  161.5180  207.7350  155.4020 N   0  0  0  0  0  2  0  0  0  0  0  0
  160.2460  209.1820  156.9790 C   0  0  0  0  0  3  0  0  0  0  0  0
  158.1910  212.4800  153.6060 C   0  0  0  0  0  2  0  0  0  0  0  0
  162.0830  210.4840  150.2380 C   0  0  1  0  0  3  0  0  0  0  0  0
  162.7260  210.9790  151.5340 C   0  0  0  0  0  2  0  0  0  0  0  0
  160.6730  208.8570  155.6690 C   0  0  0  0  0  0  0  0  0  0  0  0
  159.8320  210.7080  152.6980 N   0  0  0  0  0  0  0  0  0  0  0  0
  157.9020  212.1600  156.1820 C   0  0  0  0  0  2  0  0  0  0  0  0
  161.9540  207.6320  152.9190 C   0  0  1  0  0  3  0  0  0  0  0  0
  156.9700  214.0130  154.9810 O   0  0  0  0  0  1  0  0  0  0  0  0
  160.5850  210.1890  150.3850 C   0  0  0  0  0  2  0  0  0  0  0  0
  159.8780  211.1790  151.3110 C   0  0  0  0  0  2  0  0  0  0  0  0
  161.3550  206.9600  154.1720 C   0  0  0  0  0  2  0  0  0  0  0  0
  160.8400  205.7140  151.7680 C   0  0  0  0  0  3  0  0  0  0  0  0
  161.5180  206.9340  151.6710 C   0  0  0  0  0  0  0  0  0  0  0  0
  161.8200  207.4620  150.4070 C   0  0  0  0  0  3  0  0  0  0  0  0
  161.7590  207.3400  147.9140 C   0  0  0  0  0  1  0  0  0  0  0  0
  160.7550  205.5610  149.3530 C   0  0  0  0  0  3  0  0  0  0  0  0
  161.4360  206.7780  149.2500 C   0  0  0  0  0  0  0  0  0  0  0  0
  160.4560  205.0290  150.6110 C   0  0  0  0  0  3  0  0  0  0  0  0
  162.3170  211.4610  149.1340 C   0  0  0  0  0  0  0  0  0  0  0  0
  161.3210  212.4470  148.8560 N   0  0  0  0  0  2  0  0  0  0  0  0
  163.3830  211.4230  148.4620 O   0  0  0  0  0  0  0  0  0  0  0  0
  162.3640  214.4520  148.2500 O   0  0  0  0  0  1  0  0  0  0  0  0
  161.4850  213.4560  147.8180 C   0  0  2  0  0  3  0  0  0  0  0  0
  158.9810  213.3100  148.0890 C   0  0  0  0  0  1  0  0  0  0  0  0
  160.1360  214.0630  147.4470 C   0  0  0  0  0  2  0  0  0  0  0  0
  1 10  1  1  0  0  0
  1 18  1  0  0  0  0
  2  6  1  0  0  0  0
  2 16  1  0  0  0  0
  3  7  1  0  0  0  0
  4 18  1  0  0  0  0
  4  8  2  0  0  0  0
  5  2  2  0  0  0  0
  6  4  1  0  0  0  0
  7 19  1  0  0  0  0
  7  5  1  0  0  0  0
  9  6  2  0  0  0  0
 11 16  1  0  0  0  0
 12  8  1  0  0  0  0
 13  9  1  0  0  0  0
 13  1  1  0  0  0  0
 14 31  1  6  0  0  0
 14 21  1  0  0  0  0
 14 15  1  0  0  0  0
 15  3  1  0  0  0  0
 16 12  2  0  0  0  0
 17  5  1  0  0  0  0
 17  9  1  0  0  0  0
 19 25  1  6  0  0  0
 19 23  1  0  0  0  0
 20  1  1  0  0  0  0
 21 22  1  0  0  0  0
 22 17  1  0  0  0  0
 23 11  1  0  0  0  0
 25 24  1  0  0  0  0
 26 25  2  0  0  0  0
 27 29  1  0  0  0  0
 28 30  1  0  0  0  0
 29 28  2  0  0  0  0
 29 26  1  0  0  0  0
 30 24  2  0  0  0  0
 32 31  1  0  0  0  0
 33 31  2  0  0  0  0
 35 34  1  1  0  0  0
 35 32  1  0  0  0  0
 37 35  1  0  0  0  0
 37 36  1  0  0  0  0
M  END
>  <MODEL>
3

>  <REMARK>
 VINA RESULT:      -1.4      2.139      6.267
  Name = 
  4 active torsions:
  status: ('A' for Active; 'I' for Inactive)
    1  A    between atoms: C_4  and  N_12
    2  A    between atoms: C_4  and  C_37
    3  A    between atoms: C_8  and  C_18
    4  A    between atoms: C_23  and  C_30
                            x       y       z     vdW  Elec       q    Type
                         _______ _______ _______ _____ _____    ______ ____

>  <TORSDO>
F 4

$$$$
=
 OpenBabel11122413473D

 37 42  0  0  1  0  0  0  0  0999 V2000
  160.9280  204.3580  151.3770 C   0  0  1  0  0  0  0  0  0  0  0  0
  161.6560  207.9310  149.4280 C   0  0  0  0  0  0  0  0  0  0  0  0
  163.1100  210.3210  151.4590 C   0  0  0  0  0  2  0  0  0  0  0  0
  161.5520  205.5420  149.2030 C   0  0  0  0  0  0  0  0  0  0  0  0
  161.3710  208.8140  150.4400 C   0  0  0  0  0  0  0  0  0  0  0  0
  161.2380  206.7170  149.8460 C   0  0  0  0  0  0  0  0  0  0  0  0
  162.0020  210.1040  150.5310 N   0  0  0  0  0  0  0  0  0  0  0  0
  162.2980  205.6390  148.0100 C   0  0  0  0  0  3  0  0  0  0  0  0
  160.6870  206.8500  151.0750 C   0  0  0  0  0  0  0  0  0  0  0  0
  162.3050  204.2950  152.0170 C   0  0  0  0  0  1  0  0  0  0  0  0
  162.7020  209.3940  147.7730 N   0  0  0  0  0  2  0  0  0  0  0  0
  162.7110  206.9160  147.5340 C   0  0  0  0  0  3  0  0  0  0  0  0
  160.2120  205.6560  151.8510 C   0  0  0  0  0  2  0  0  0  0  0  0
  161.4610  210.8240  153.3370 C   0  0  1  0  0  3  0  0  0  0  0  0
  162.7330  210.0850  152.9170 C   0  0  0  0  0  2  0  0  0  0  0  0
  162.3850  208.0870  148.2580 C   0  0  0  0  0  0  0  0  0  0  0  0
  160.7470  208.1500  151.4640 N   0  0  0  0  0  0  0  0  0  0  0  0
  161.0840  204.2530  149.8280 C   0  0  0  0  0  2  0  0  0  0  0  0
  161.8920  211.0930  149.4530 C   0  0  1  0  0  3  0  0  0  0  0  0
  160.1920  203.2620  151.8200 O   0  0  0  0  0  1  0  0  0  0  0  0
  160.1830  210.1820  152.7830 C   0  0  0  0  0  2  0  0  0  0  0  0
  160.2580  208.6560  152.7500 C   0  0  0  0  0  2  0  0  0  0  0  0
  161.7990  210.5180  148.0250 C   0  0  0  0  0  2  0  0  0  0  0  0
  160.0770  212.6150  148.6570 C   0  0  0  0  0  3  0  0  0  0  0  0
  160.7690  212.0400  149.7290 C   0  0  0  0  0  0  0  0  0  0  0  0
  160.4310  212.3930  151.0440 C   0  0  0  0  0  3  0  0  0  0  0  0
  159.0480  213.6810  152.6750 C   0  0  0  0  0  1  0  0  0  0  0  0
  158.7100  213.8770  150.2070 C   0  0  0  0  0  3  0  0  0  0  0  0
  159.4020  213.3080  151.2820 C   0  0  0  0  0  0  0  0  0  0  0  0
  159.0480  213.5300  148.8950 C   0  0  0  0  0  3  0  0  0  0  0  0
  161.3890  210.9320  154.8250 C   0  0  0  0  0  0  0  0  0  0  0  0
  160.4350  211.8190  155.4110 N   0  0  0  0  0  2  0  0  0  0  0  0
  162.1540  210.2440  155.5530 O   0  0  0  0  0  0  0  0  0  0  0  0
  159.0420  211.4490  157.2540 O   0  0  0  0  0  1  0  0  0  0  0  0
  160.2790  211.9610  156.8520 C   0  0  2  0  0  3  0  0  0  0  0  0
  159.5970  214.3370  156.3540 C   0  0  0  0  0  1  0  0  0  0  0  0
  160.4060  213.4240  157.2610 C   0  0  0  0  0  2  0  0  0  0  0  0
  1 20  1  0  0  0  0
  1 13  1  0  0  0  0
  1 10  1  1  0  0  0
  2  6  1  0  0  0  0
  2  5  2  0  0  0  0
  3 15  1  0  0  0  0
  4 18  1  0  0  0  0
  4  6  1  0  0  0  0
  5  7  1  0  0  0  0
  5 17  1  0  0  0  0
  6  9  2  0  0  0  0
  7  3  1  0  0  0  0
  8  4  2  0  0  0  0
  9 17  1  0  0  0  0
  9 13  1  0  0  0  0
 11 23  1  0  0  0  0
 11 16  1  0  0  0  0
 12  8  1  0  0  0  0
 12 16  2  0  0  0  0
 14 31  1  1  0  0  0
 15 14  1  0  0  0  0
 16  2  1  0  0  0  0
 17 22  1  0  0  0  0
 18  1  1  0  0  0  0
 19 25  1  1  0  0  0
 19  7  1  0  0  0  0
 21 14  1  0  0  0  0
 22 21  1  0  0  0  0
 23 19  1  0  0  0  0
 24 30  2  0  0  0  0
 24 25  1  0  0  0  0
 25 26  2  0  0  0  0
 26 29  1  0  0  0  0
 28 29  2  0  0  0  0
 29 27  1  0  0  0  0
 30 28  1  0  0  0  0
 31 32  1  0  0  0  0
 31 33  2  0  0  0  0
 32 35  1  0  0  0  0
 35 34  1  6  0  0  0
 35 37  1  0  0  0  0
 36 37  1  0  0  0  0
M  END
>  <MODEL>
4

>  <REMARK>
 VINA RESULT:      -1.3      2.647      5.626
  Name = 
  4 active torsions:
  status: ('A' for Active; 'I' for Inactive)
    1  A    between atoms: C_4  and  N_12
    2  A    between atoms: C_4  and  C_37
    3  A    between atoms: C_8  and  C_18
    4  A    between atoms: C_23  and  C_30
                            x       y       z     vdW  Elec       q    Type
                         _______ _______ _______ _____ _____    ______ ____

>  <TORSDO>
F 4

$$$$
