=
 OpenBabel11122414413D

 34 37  0  0  1  0  0  0  0  0999 V2000
  162.0990  208.5710  149.1340 C   0  0  2  0  0  3  0  0  0  0  0  0
  162.7920  206.9100  147.5280 O   0  0  0  0  0  0  0  0  0  0  0  0
  162.1440  209.6680  151.3710 C   0  0  0  0  0  2  0  0  0  0  0  0
  161.0410  206.2050  148.9800 C   0  0  2  0  0  3  0  0  0  0  0  0
  160.3050  203.3960  149.3380 C   0  0  0  0  0  2  0  0  0  0  0  0
  161.6110  205.8930  150.3880 C   0  0  1  0  0  3  0  0  0  0  0  0
  162.5220  205.5610  147.2240 C   0  0  0  0  0  2  0  0  0  0  0  0
  161.4840  203.7620  148.5600 N   0  0  0  0  0  0  0  0  0  0  0  0
  161.6140  208.4650  150.5830 C   0  0  2  0  0  3  0  0  0  0  0  0
  162.1240  207.1380  151.1570 C   0  0  1  0  0  3  0  0  0  0  0  0
  162.0970  211.0690  149.3000 C   0  0  0  0  0  2  0  0  0  0  0  0
  160.5800  203.6240  150.8160 C   0  0  0  0  0  2  0  0  0  0  0  0
  161.6350  210.9660  150.7510 C   0  0  0  0  0  2  0  0  0  0  0  0
  160.5520  205.1070  151.1620 C   0  0  0  0  0  2  0  0  0  0  0  0
  161.2780  205.0940  147.9720 C   0  0  1  0  0  3  0  0  0  0  0  0
  161.6020  209.8680  148.4990 C   0  0  0  0  0  2  0  0  0  0  0  0
  161.6940  207.3790  148.2650 C   0  0  1  0  0  3  0  0  0  0  0  0
  162.1050  207.0280  152.6900 C   0  0  0  0  0  2  0  0  0  0  0  0
  160.8780  207.6910  153.3030 C   0  0  0  0  0  2  0  0  0  0  0  0
  160.4850  206.7480  155.4710 O   0  0  0  0  0  1  0  0  0  0  0  0
  161.0570  207.8400  154.8040 C   0  0  2  0  0  3  0  0  0  0  0  0
  160.4750  209.1050  155.2560 N   0  0  0  0  0  0  0  0  0  0  0  0
  160.4210  209.1010  156.6110 O   0  0  0  0  0  1  0  0  0  0  0  0
  161.3710  210.1840  154.8650 C   0  0  0  0  0  2  0  0  0  0  0  0
  160.5710  211.3540  154.3170 C   0  0  0  0  0  2  0  0  0  0  0  0
  159.3640  210.9010  153.7850 O   0  0  0  0  0  0  0  0  0  0  0  0
  158.8820  211.9780  153.0440 C   0  0  0  0  0  1  0  0  0  0  0  0
  161.5510  202.7980  147.4710 C   0  0  0  0  0  2  0  0  0  0  0  0
  160.8200  201.5270  147.8640 C   0  0  0  0  0  2  0  0  0  0  0  0
  160.7020  200.5920  146.6590 C   0  0  1  0  0  3  0  0  0  0  0  0
  159.2720  201.6130  144.9980 O   0  0  0  0  0  1  0  0  0  0  0  0
  160.6000  201.3260  145.3200 C   0  0  0  0  0  2  0  0  0  0  0  0
  161.6230  199.5200  146.6530 O   0  0  0  0  0  0  0  0  0  0  0  0
  161.3490  198.6750  145.5650 C   0  0  0  0  0  1  0  0  0  0  0  0
  1 16  1  6  0  0  0
  1  9  1  0  0  0  0
  2 17  1  0  0  0  0
  4  6  1  0  0  0  0
  5 12  1  0  0  0  0
  6 10  1  0  0  0  0
  6 14  1  0  0  0  0
  7  2  1  0  0  0  0
  7 15  1  0  0  0  0
  8  5  1  0  0  0  0
  9 10  1  0  0  0  0
  9  3  1  0  0  0  0
 10 18  1  0  0  0  0
 11 13  1  0  0  0  0
 12 14  1  0  0  0  0
 13  3  1  0  0  0  0
 15  8  1  0  0  0  0
 15  4  1  0  0  0  0
 16 11  1  0  0  0  0
 17  4  1  0  0  0  0
 17  1  1  0  0  0  0
 18 19  1  0  0  0  0
 19 21  1  0  0  0  0
 21 22  1  0  0  0  0
 21 20  1  0  0  0  0
 22 23  1  0  0  0  0
 24 22  1  0  0  0  0
 25 24  1  0  0  0  0
 26 25  1  0  0  0  0
 27 26  1  0  0  0  0
 28 29  1  0  0  0  0
 28  8  1  0  0  0  0
 30 29  1  0  0  0  0
 31 32  1  0  0  0  0
 32 30  1  0  0  0  0
 33 30  1  0  0  0  0
 34 33  1  0  0  0  0
M  END
>  <MODEL>
1

>  <REMARK>
 VINA RESULT:      -6.7      0.000      0.000
  Name = 
  12 active torsions:
  status: ('A' for Active; 'I' for Inactive)
    1  A    between atoms: N_3  and  C_16
    2  A    between atoms: N_3  and  C_19
    3  A    between atoms: C_5  and  C_11
    4  A    between atoms: C_5  and  C_19
    5  A    between atoms: C_8  and  O_12
    6  A    between atoms: C_8  and  C_16
    7  A    between atoms: C_11  and  C_20
    8  A    between atoms: N_17  and  C_28
    9  A    between atoms: C_28  and  C_29
   10  A    between atoms: C_29  and  C_32
   11  A    between atoms: O_31  and  C_32
   12  A    between atoms: C_32  and  C_34
                            x       y       z     vdW  Elec       q    Type
                         _______ _______ _______ _____ _____    ______ ____

>  <TORSDO>
F 12

$$$$
=
 OpenBabel11122414413D

 34 37  0  0  1  0  0  0  0  0999 V2000
  160.9190  207.7490  154.3830 C   0  0  2  0  0  3  0  0  0  0  0  0
  160.4680  205.9590  152.8290 O   0  0  0  0  0  0  0  0  0  0  0  0
  160.5130  209.9970  155.3760 C   0  0  0  0  0  2  0  0  0  0  0  0
  161.9060  207.6580  151.9840 C   0  0  2  0  0  3  0  0  0  0  0  0
  162.4700  207.9910  149.1310 C   0  0  0  0  0  2  0  0  0  0  0  0
  161.0830  208.9250  151.6320 C   0  0  1  0  0  3  0  0  0  0  0  0
  160.7420  205.6370  151.4860 C   0  0  0  0  0  2  0  0  0  0  0  0
  161.4620  207.0380  149.5840 N   0  0  0  0  0  0  0  0  0  0  0  0
  161.1330  209.2520  154.1890 C   0  0  2  0  0  3  0  0  0  0  0  0
  160.4840  209.6560  152.8610 C   0  0  1  0  0  3  0  0  0  0  0  0
  160.9760  208.0440  156.8680 C   0  0  0  0  0  2  0  0  0  0  0  0
  161.9430  209.4070  149.3020 C   0  0  0  0  0  2  0  0  0  0  0  0
  161.1680  209.5460  156.6780 C   0  0  0  0  0  2  0  0  0  0  0  0
  161.9590  209.8310  150.7650 C   0  0  0  0  0  2  0  0  0  0  0  0
  161.8150  206.5670  150.9310 C   0  0  1  0  0  3  0  0  0  0  0  0
  161.5660  207.2810  155.6850 C   0  0  0  0  0  2  0  0  0  0  0  0
  161.4320  206.9020  153.2160 C   0  0  1  0  0  3  0  0  0  0  0  0
  160.2250  211.1600  152.6790 C   0  0  0  0  0  2  0  0  0  0  0  0
  158.7430  211.4770  152.5200 C   0  0  0  0  0  2  0  0  0  0  0  0
  157.5310  213.3830  153.3200 O   0  0  0  0  0  1  0  0  0  0  0  0
  158.5340  212.9780  152.4290 C   0  0  2  0  0  3  0  0  0  0  0  0
  158.2080  213.3570  151.0520 N   0  0  0  0  0  0  0  0  0  0  0  0
  157.0740  214.1020  151.0620 O   0  0  0  0  0  1  0  0  0  0  0  0
  159.2770  214.2070  150.5490 C   0  0  0  0  0  2  0  0  0  0  0  0
  159.7570  213.6990  149.2000 C   0  0  0  0  0  2  0  0  0  0  0  0
  160.9070  212.9260  149.3630 O   0  0  0  0  0  0  0  0  0  0  0  0
  161.4510  212.8340  148.0830 C   0  0  0  0  0  1  0  0  0  0  0  0
  161.5570  205.9040  148.6740 C   0  0  0  0  0  2  0  0  0  0  0  0
  161.8880  206.3940  147.2760 C   0  0  0  0  0  2  0  0  0  0  0  0
  162.1350  205.2050  146.3460 C   0  0  1  0  0  3  0  0  0  0  0  0
  161.2380  202.9610  146.4090 O   0  0  0  0  0  1  0  0  0  0  0  0
  162.0980  203.8500  147.0570 C   0  0  0  0  0  2  0  0  0  0  0  0
  161.3960  205.2360  145.1410 O   0  0  0  0  0  0  0  0  0  0  0  0
  160.3560  206.1730  145.2550 C   0  0  0  0  0  1  0  0  0  0  0  0
  1 16  1  1  0  0  0
  2 17  1  0  0  0  0
  3 13  1  0  0  0  0
  4 17  1  0  0  0  0
  5 12  1  0  0  0  0
  5  8  1  0  0  0  0
  6  4  1  0  0  0  0
  6 10  1  0  0  0  0
  7  2  1  0  0  0  0
  8 15  1  0  0  0  0
  9  1  1  0  0  0  0
  9  3  1  0  0  0  0
 10  9  1  0  0  0  0
 12 14  1  0  0  0  0
 13 11  1  0  0  0  0
 14  6  1  0  0  0  0
 15  7  1  0  0  0  0
 15  4  1  0  0  0  0
 16 11  1  0  0  0  0
 17  1  1  0  0  0  0
 18 10  1  0  0  0  0
 19 18  1  0  0  0  0
 21 19  1  0  0  0  0
 21 20  1  0  0  0  0
 22 23  1  0  0  0  0
 22 21  1  0  0  0  0
 24 22  1  0  0  0  0
 25 26  1  0  0  0  0
 25 24  1  0  0  0  0
 27 26  1  0  0  0  0
 28  8  1  0  0  0  0
 29 28  1  0  0  0  0
 30 32  1  0  0  0  0
 30 29  1  0  0  0  0
 31 32  1  0  0  0  0
 33 34  1  0  0  0  0
 33 30  1  0  0  0  0
M  END
>  <MODEL>
2

>  <REMARK>
 VINA RESULT:      -6.6      2.526      5.414
  Name = 
  12 active torsions:
  status: ('A' for Active; 'I' for Inactive)
    1  A    between atoms: N_3  and  C_16
    2  A    between atoms: N_3  and  C_19
    3  A    between atoms: C_5  and  C_11
    4  A    between atoms: C_5  and  C_19
    5  A    between atoms: C_8  and  O_12
    6  A    between atoms: C_8  and  C_16
    7  A    between atoms: C_11  and  C_20
    8  A    between atoms: N_17  and  C_28
    9  A    between atoms: C_28  and  C_29
   10  A    between atoms: C_29  and  C_32
   11  A    between atoms: O_31  and  C_32
   12  A    between atoms: C_32  and  C_34
                            x       y       z     vdW  Elec       q    Type
                         _______ _______ _______ _____ _____    ______ ____

>  <TORSDO>
F 12

$$$$
=
 OpenBabel11122414413D

 34 37  0  0  1  0  0  0  0  0999 V2000
  160.8620  207.7220  154.3770 C   0  0  2  0  0  3  0  0  0  0  0  0
  160.4670  205.9350  152.8050 O   0  0  0  0  0  0  0  0  0  0  0  0
  160.3980  209.9550  155.3800 C   0  0  0  0  0  2  0  0  0  0  0  0
  161.8800  207.6700  151.9890 C   0  0  2  0  0  3  0  0  0  0  0  0
  162.4720  208.0350  149.1460 C   0  0  0  0  0  2  0  0  0  0  0  0
  161.0360  208.9220  151.6350 C   0  0  1  0  0  3  0  0  0  0  0  0
  160.7640  205.6290  151.4620 C   0  0  0  0  0  2  0  0  0  0  0  0
  161.4780  207.0580  149.5790 N   0  0  0  0  0  0  0  0  0  0  0  0
  161.0480  209.2320  154.1960 C   0  0  2  0  0  3  0  0  0  0  0  0
  160.4070  209.6320  152.8620 C   0  0  1  0  0  3  0  0  0  0  0  0
  160.8840  208.0010  156.8640 C   0  0  0  0  0  2  0  0  0  0  0  0
  161.9140  209.4390  149.3210 C   0  0  0  0  0  2  0  0  0  0  0  0
  161.0470  209.5080  156.6870 C   0  0  0  0  0  2  0  0  0  0  0  0
  161.9040  209.8520  150.7860 C   0  0  0  0  0  2  0  0  0  0  0  0
  161.8240  206.5840  150.9280 C   0  0  1  0  0  3  0  0  0  0  0  0
  161.5030  207.2580  155.6830 C   0  0  0  0  0  2  0  0  0  0  0  0
  161.4070  206.8950  153.2100 C   0  0  1  0  0  3  0  0  0  0  0  0
  160.1190  211.1310  152.6880 C   0  0  0  0  0  2  0  0  0  0  0  0
  158.6280  211.4250  152.5770 C   0  0  0  0  0  2  0  0  0  0  0  0
  159.1810  213.7550  152.4790 O   0  0  0  0  0  1  0  0  0  0  0  0
  158.3300  212.8240  153.0880 C   0  0  2  0  0  3  0  0  0  0  0  0
  158.4530  212.8630  154.5470 N   0  0  0  0  0  0  0  0  0  0  0  0
  159.1550  213.9700  154.8960 O   0  0  0  0  0  1  0  0  0  0  0  0
  157.1200  213.0030  155.1130 C   0  0  0  0  0  2  0  0  0  0  0  0
  156.8750  211.9190  156.1490 C   0  0  0  0  0  2  0  0  0  0  0  0
  156.8250  210.6700  155.5290 O   0  0  0  0  0  0  0  0  0  0  0  0
  155.5260  210.5770  155.0330 C   0  0  0  0  0  1  0  0  0  0  0  0
  161.6080  205.9330  148.6630 C   0  0  0  0  0  2  0  0  0  0  0  0
  162.3070  206.3830  147.3930 C   0  0  0  0  0  2  0  0  0  0  0  0
  162.1630  205.3170  146.3060 C   0  0  1  0  0  3  0  0  0  0  0  0
  161.5780  203.0210  145.8240 O   0  0  0  0  0  1  0  0  0  0  0  0
  161.5230  204.0180  146.8010 C   0  0  0  0  0  2  0  0  0  0  0  0
  161.6260  205.7880  145.0850 O   0  0  0  0  0  0  0  0  0  0  0  0
  160.2830  206.1500  145.2750 C   0  0  0  0  0  1  0  0  0  0  0  0
  1 16  1  1  0  0  0
  2 17  1  0  0  0  0
  3 13  1  0  0  0  0
  4 17  1  0  0  0  0
  5 12  1  0  0  0  0
  5  8  1  0  0  0  0
  6  4  1  0  0  0  0
  6 10  1  0  0  0  0
  7  2  1  0  0  0  0
  8 15  1  0  0  0  0
  9  1  1  0  0  0  0
  9  3  1  0  0  0  0
 10  9  1  0  0  0  0
 12 14  1  0  0  0  0
 13 11  1  0  0  0  0
 14  6  1  0  0  0  0
 15  7  1  0  0  0  0
 15  4  1  0  0  0  0
 16 11  1  0  0  0  0
 17  1  1  0  0  0  0
 18 10  1  0  0  0  0
 19 18  1  0  0  0  0
 19 21  1  0  0  0  0
 20 21  1  0  0  0  0
 21 22  1  0  0  0  0
 22 23  1  0  0  0  0
 22 24  1  0  0  0  0
 24 25  1  0  0  0  0
 26 25  1  0  0  0  0
 27 26  1  0  0  0  0
 28  8  1  0  0  0  0
 29 28  1  0  0  0  0
 30 32  1  0  0  0  0
 30 29  1  0  0  0  0
 31 32  1  0  0  0  0
 33 34  1  0  0  0  0
 33 30  1  0  0  0  0
M  END
>  <MODEL>
3

>  <REMARK>
 VINA RESULT:      -6.6      2.361      5.103
  Name = 
  12 active torsions:
  status: ('A' for Active; 'I' for Inactive)
    1  A    between atoms: N_3  and  C_16
    2  A    between atoms: N_3  and  C_19
    3  A    between atoms: C_5  and  C_11
    4  A    between atoms: C_5  and  C_19
    5  A    between atoms: C_8  and  O_12
    6  A    between atoms: C_8  and  C_16
    7  A    between atoms: C_11  and  C_20
    8  A    between atoms: N_17  and  C_28
    9  A    between atoms: C_28  and  C_29
   10  A    between atoms: C_29  and  C_32
   11  A    between atoms: O_31  and  C_32
   12  A    between atoms: C_32  and  C_34
                            x       y       z     vdW  Elec       q    Type
                         _______ _______ _______ _____ _____    ______ ____

>  <TORSDO>
F 12

$$$$
=
 OpenBabel11122414413D

 34 37  0  0  1  0  0  0  0  0999 V2000
  161.2320  204.3120  150.6330 C   0  0  2  0  0  3  0  0  0  0  0  0
  162.0590  205.6930  152.4290 O   0  0  0  0  0  0  0  0  0  0  0  0
  161.4140  203.1870  148.4170 C   0  0  0  0  0  2  0  0  0  0  0  0
  161.0350  206.9010  150.6510 C   0  0  2  0  0  3  0  0  0  0  0  0
  161.4000  209.7790  150.2640 C   0  0  0  0  0  2  0  0  0  0  0  0
  161.9840  206.9500  149.4250 C   0  0  1  0  0  3  0  0  0  0  0  0
  162.2010  207.0630  152.7250 C   0  0  0  0  0  2  0  0  0  0  0  0
  162.1720  209.0600  151.2720 N   0  0  0  0  0  0  0  0  0  0  0  0
  161.1590  204.5260  149.1180 C   0  0  2  0  0  3  0  0  0  0  0  0
  162.2060  205.5780  148.7370 C   0  0  1  0  0  3  0  0  0  0  0  0
  160.4200  201.9600  150.3560 C   0  0  0  0  0  2  0  0  0  0  0  0
  161.9130  209.4180  148.8790 C   0  0  0  0  0  2  0  0  0  0  0  0
  160.3670  202.1630  148.8450 C   0  0  0  0  0  2  0  0  0  0  0  0
  161.4630  208.0220  148.4670 C   0  0  0  0  0  2  0  0  0  0  0  0
  161.3970  207.8990  151.7360 C   0  0  1  0  0  3  0  0  0  0  0  0
  160.1920  203.2860  151.0780 C   0  0  0  0  0  2  0  0  0  0  0  0
  161.0680  205.6010  151.4410 C   0  0  1  0  0  3  0  0  0  0  0  0
  162.5780  205.6340  147.2470 C   0  0  0  0  0  2  0  0  0  0  0  0
  161.3540  205.7560  146.3480 C   0  0  0  0  0  2  0  0  0  0  0  0
  161.4830  205.5370  143.9660 O   0  0  0  0  0  1  0  0  0  0  0  0
  161.4750  204.8130  145.1650 C   0  0  2  0  0  3  0  0  0  0  0  0
  160.3850  203.8350  145.1890 N   0  0  0  0  0  0  0  0  0  0  0  0
  159.6680  203.9520  144.0440 O   0  0  0  0  0  1  0  0  0  0  0  0
  160.9700  202.5010  145.1940 C   0  0  0  0  0  2  0  0  0  0  0  0
  159.8770  201.4510  145.0890 C   0  0  0  0  0  2  0  0  0  0  0  0
  160.4420  200.1770  145.0350 O   0  0  0  0  0  0  0  0  0  0  0  0
  161.1150  200.0420  146.2480 C   0  0  0  0  0  1  0  0  0  0  0  0
  162.3110  209.9820  152.3910 C   0  0  0  0  0  2  0  0  0  0  0  0
  160.9850  210.6700  152.6570 C   0  0  0  0  0  2  0  0  0  0  0  0
  160.5170  210.3810  154.0840 C   0  0  1  0  0  3  0  0  0  0  0  0
  162.1670  210.9490  155.7560 O   0  0  0  0  0  1  0  0  0  0  0  0
  161.6340  209.8960  155.0100 C   0  0  0  0  0  2  0  0  0  0  0  0
  159.7010  211.3860  154.6520 O   0  0  0  0  0  0  0  0  0  0  0  0
  158.6670  210.7870  155.3890 C   0  0  0  0  0  1  0  0  0  0  0  0
  1 16  1  1  0  0  0
  1 17  1  0  0  0  0
  2  7  1  0  0  0  0
  3 13  1  0  0  0  0
  3  9  1  0  0  0  0
  4 17  1  0  0  0  0
  4 15  1  0  0  0  0
  5  8  1  0  0  0  0
  6  4  1  0  0  0  0
  8 15  1  0  0  0  0
  8 28  1  0  0  0  0
  9  1  1  0  0  0  0
 10  9  1  0  0  0  0
 10  6  1  0  0  0  0
 11 16  1  0  0  0  0
 12  5  1  0  0  0  0
 13 11  1  0  0  0  0
 14 12  1  0  0  0  0
 14  6  1  0  0  0  0
 15  7  1  0  0  0  0
 17  2  1  0  0  0  0
 18 10  1  0  0  0  0
 19 18  1  0  0  0  0
 20 21  1  0  0  0  0
 21 22  1  0  0  0  0
 21 19  1  0  0  0  0
 22 24  1  0  0  0  0
 23 22  1  0  0  0  0
 25 24  1  0  0  0  0
 26 25  1  0  0  0  0
 26 27  1  0  0  0  0
 28 29  1  0  0  0  0
 29 30  1  0  0  0  0
 30 33  1  0  0  0  0
 30 32  1  0  0  0  0
 32 31  1  0  0  0  0
 33 34  1  0  0  0  0
M  END
>  <MODEL>
4

>  <REMARK>
 VINA RESULT:      -6.3      1.866      9.526
  Name = 
  12 active torsions:
  status: ('A' for Active; 'I' for Inactive)
    1  A    between atoms: N_3  and  C_16
    2  A    between atoms: N_3  and  C_19
    3  A    between atoms: C_5  and  C_11
    4  A    between atoms: C_5  and  C_19
    5  A    between atoms: C_8  and  O_12
    6  A    between atoms: C_8  and  C_16
    7  A    between atoms: C_11  and  C_20
    8  A    between atoms: N_17  and  C_28
    9  A    between atoms: C_28  and  C_29
   10  A    between atoms: C_29  and  C_32
   11  A    between atoms: O_31  and  C_32
   12  A    between atoms: C_32  and  C_34
                            x       y       z     vdW  Elec       q    Type
                         _______ _______ _______ _____ _____    ______ ____

>  <TORSDO>
F 12

$$$$
=
 OpenBabel11122414413D

 34 37  0  0  1  0  0  0  0  0999 V2000
  161.6200  207.4550  149.2440 C   0  0  2  0  0  3  0  0  0  0  0  0
  161.0060  209.3810  150.5620 O   0  0  0  0  0  0  0  0  0  0  0  0
  161.2010  205.2150  148.2350 C   0  0  0  0  0  2  0  0  0  0  0  0
  161.9100  207.5730  151.8220 C   0  0  2  0  0  3  0  0  0  0  0  0
  161.6150  207.3530  154.7250 C   0  0  0  0  0  2  0  0  0  0  0  0
  160.8570  206.4430  151.9600 C   0  0  1  0  0  3  0  0  0  0  0  0
  160.9400  209.7500  151.9200 C   0  0  0  0  0  2  0  0  0  0  0  0
  160.9100  208.3930  153.9830 N   0  0  0  0  0  0  0  0  0  0  0  0
  161.5650  205.9510  149.5300 C   0  0  2  0  0  3  0  0  0  0  0  0
  160.5260  205.7150  150.6310 C   0  0  1  0  0  3  0  0  0  0  0  0
  162.3190  206.9990  146.8850 C   0  0  0  0  0  2  0  0  0  0  0  0
  160.9670  206.0050  154.4490 C   0  0  0  0  0  2  0  0  0  0  0  0
  162.2450  205.5000  147.1590 C   0  0  0  0  0  2  0  0  0  0  0  0
  161.3280  205.4910  153.0610 C   0  0  0  0  0  2  0  0  0  0  0  0
  161.6810  208.7310  152.7770 C   0  0  1  0  0  3  0  0  0  0  0  0
  162.6580  207.7560  148.1660 C   0  0  0  0  0  2  0  0  0  0  0  0
  161.9010  208.3030  150.4870 C   0  0  1  0  0  3  0  0  0  0  0  0
  160.0250  204.2690  150.7710 C   0  0  0  0  0  2  0  0  0  0  0  0
  161.0840  203.2480  150.3740 C   0  0  0  0  0  2  0  0  0  0  0  0
  160.2800  200.9940  150.5040 O   0  0  0  0  0  1  0  0  0  0  0  0
  160.4410  202.0850  149.6390 C   0  0  2  0  0  3  0  0  0  0  0  0
  161.2470  201.7230  148.4700 N   0  0  0  0  0  0  0  0  0  0  0  0
  161.6450  200.4320  148.5970 O   0  0  0  0  0  1  0  0  0  0  0  0
  160.3960  201.7960  147.2910 C   0  0  0  0  0  2  0  0  0  0  0  0
  161.1980  202.2900  146.0990 C   0  0  0  0  0  2  0  0  0  0  0  0
  160.3900  202.3270  144.9620 O   0  0  0  0  0  0  0  0  0  0  0  0
  159.8700  201.0380  144.8610 C   0  0  0  0  0  1  0  0  0  0  0  0
  160.9040  209.5610  154.8530 C   0  0  0  0  0  2  0  0  0  0  0  0
  159.6570  209.5510  155.7180 C   0  0  0  0  0  2  0  0  0  0  0  0
  159.0900  210.9660  155.8420 C   0  0  1  0  0  3  0  0  0  0  0  0
  160.4120  212.7990  156.6980 O   0  0  0  0  0  1  0  0  0  0  0  0
  160.1130  212.0650  155.5480 C   0  0  0  0  0  2  0  0  0  0  0  0
  157.8440  211.1600  155.2010 O   0  0  0  0  0  0  0  0  0  0  0  0
  158.0600  211.5870  153.8810 C   0  0  0  0  0  1  0  0  0  0  0  0
  1 16  1  6  0  0  0
  1  9  1  0  0  0  0
  1 17  1  0  0  0  0
  2  7  1  0  0  0  0
  3  9  1  0  0  0  0
  4  6  1  0  0  0  0
  4 15  1  0  0  0  0
  6 14  1  0  0  0  0
  7 15  1  0  0  0  0
  8  5  1  0  0  0  0
  8 28  1  0  0  0  0
  9 10  1  0  0  0  0
 10 18  1  0  0  0  0
 10  6  1  0  0  0  0
 11 13  1  0  0  0  0
 11 16  1  0  0  0  0
 12  5  1  0  0  0  0
 13  3  1  0  0  0  0
 14 12  1  0  0  0  0
 15  8  1  0  0  0  0
 17  2  1  0  0  0  0
 17  4  1  0  0  0  0
 19 18  1  0  0  0  0
 21 19  1  0  0  0  0
 21 20  1  0  0  0  0
 22 23  1  0  0  0  0
 22 21  1  0  0  0  0
 24 22  1  0  0  0  0
 25 24  1  0  0  0  0
 26 25  1  0  0  0  0
 27 26  1  0  0  0  0
 28 29  1  0  0  0  0
 29 30  1  0  0  0  0
 32 30  1  0  0  0  0
 32 31  1  0  0  0  0
 33 30  1  0  0  0  0
 34 33  1  0  0  0  0
M  END
>  <MODEL>
5

>  <REMARK>
 VINA RESULT:      -6.1      1.915      8.997
  Name = 
  12 active torsions:
  status: ('A' for Active; 'I' for Inactive)
    1  A    between atoms: N_3  and  C_16
    2  A    between atoms: N_3  and  C_19
    3  A    between atoms: C_5  and  C_11
    4  A    between atoms: C_5  and  C_19
    5  A    between atoms: C_8  and  O_12
    6  A    between atoms: C_8  and  C_16
    7  A    between atoms: C_11  and  C_20
    8  A    between atoms: N_17  and  C_28
    9  A    between atoms: C_28  and  C_29
   10  A    between atoms: C_29  and  C_32
   11  A    between atoms: O_31  and  C_32
   12  A    between atoms: C_32  and  C_34
                            x       y       z     vdW  Elec       q    Type
                         _______ _______ _______ _____ _____    ______ ____

>  <TORSDO>
F 12

$$$$
=
 OpenBabel11122414413D

 34 37  0  0  1  0  0  0  0  0999 V2000
  161.2540  209.3700  150.9220 C   0  0  2  0  0  3  0  0  0  0  0  0
  159.8340  210.8090  152.2390 O   0  0  0  0  0  0  0  0  0  0  0  0
  161.8370  207.2140  149.8180 C   0  0  0  0  0  2  0  0  0  0  0  0
  161.3040  209.4400  153.5170 C   0  0  2  0  0  3  0  0  0  0  0  0
  160.9340  208.9470  156.3780 C   0  0  0  0  0  2  0  0  0  0  0  0
  160.7880  207.9780  153.5350 C   0  0  1  0  0  3  0  0  0  0  0  0
  159.5370  211.0400  153.5960 C   0  0  0  0  0  2  0  0  0  0  0  0
  159.9210  209.6630  155.6100 N   0  0  0  0  0  0  0  0  0  0  0  0
  161.7900  207.9550  151.1590 C   0  0  2  0  0  3  0  0  0  0  0  0
  160.8640  207.2590  152.1630 C   0  0  1  0  0  3  0  0  0  0  0  0
  162.2300  209.3720  148.6170 C   0  0  0  0  0  2  0  0  0  0  0  0
  160.9020  207.4720  156.0100 C   0  0  0  0  0  2  0  0  0  0  0  0
  162.7460  207.9540  148.8420 C   0  0  0  0  0  2  0  0  0  0  0  0
  161.5290  207.2280  154.6440 C   0  0  0  0  0  2  0  0  0  0  0  0
  160.5680  210.3520  154.4830 C   0  0  1  0  0  3  0  0  0  0  0  0
  162.1510  210.1240  149.9430 C   0  0  0  0  0  2  0  0  0  0  0  0
  161.0900  210.1840  152.2080 C   0  0  1  0  0  3  0  0  0  0  0  0
  160.9780  205.7270  152.2180 C   0  0  0  0  0  2  0  0  0  0  0  0
  160.5170  205.0650  150.9260 C   0  0  0  0  0  2  0  0  0  0  0  0
  161.7000  203.2450  151.9410 O   0  0  0  0  0  1  0  0  0  0  0  0
  160.6980  203.5600  151.0140 C   0  0  2  0  0  3  0  0  0  0  0  0
  161.0050  203.0130  149.6900 N   0  0  0  0  0  0  0  0  0  0  0  0
  160.0680  202.0850  149.3740 O   0  0  0  0  0  1  0  0  0  0  0  0
  160.8910  204.0880  148.7160 C   0  0  0  0  0  2  0  0  0  0  0  0
  161.8210  203.8300  147.5420 C   0  0  0  0  0  2  0  0  0  0  0  0
  161.3770  204.5250  146.4180 O   0  0  0  0  0  0  0  0  0  0  0  0
  161.3620  203.5730  145.4010 C   0  0  0  0  0  1  0  0  0  0  0  0
  159.3890  210.6780  156.5090 C   0  0  0  0  0  2  0  0  0  0  0  0
  157.9120  210.8870  156.2330 C   0  0  0  0  0  2  0  0  0  0  0  0
  157.5170  212.3320  156.5380 C   0  0  1  0  0  3  0  0  0  0  0  0
  158.7580  214.0260  155.3410 O   0  0  0  0  0  1  0  0  0  0  0  0
  158.6980  213.3050  156.5360 C   0  0  0  0  0  2  0  0  0  0  0  0
  156.3910  212.8000  155.8210 O   0  0  0  0  0  0  0  0  0  0  0  0
  156.0280  211.8510  154.8520 C   0  0  0  0  0  1  0  0  0  0  0  0
  1 16  1  6  0  0  0
  1  9  1  0  0  0  0
  1 17  1  0  0  0  0
  2  7  1  0  0  0  0
  3  9  1  0  0  0  0
  4  6  1  0  0  0  0
  4 15  1  0  0  0  0
  6 14  1  0  0  0  0
  7 15  1  0  0  0  0
  8  5  1  0  0  0  0
  8 28  1  0  0  0  0
  9 10  1  0  0  0  0
 10 18  1  0  0  0  0
 10  6  1  0  0  0  0
 11 13  1  0  0  0  0
 11 16  1  0  0  0  0
 12  5  1  0  0  0  0
 13  3  1  0  0  0  0
 14 12  1  0  0  0  0
 15  8  1  0  0  0  0
 17  2  1  0  0  0  0
 17  4  1  0  0  0  0
 19 21  1  0  0  0  0
 19 18  1  0  0  0  0
 21 20  1  0  0  0  0
 22 21  1  0  0  0  0
 23 22  1  0  0  0  0
 24 22  1  0  0  0  0
 25 24  1  0  0  0  0
 26 25  1  0  0  0  0
 27 26  1  0  0  0  0
 29 28  1  0  0  0  0
 29 30  1  0  0  0  0
 31 32  1  0  0  0  0
 32 30  1  0  0  0  0
 33 30  1  0  0  0  0
 34 33  1  0  0  0  0
M  END
>  <MODEL>
6

>  <REMARK>
 VINA RESULT:      -5.9      2.246      9.168
  Name = 
  12 active torsions:
  status: ('A' for Active; 'I' for Inactive)
    1  A    between atoms: N_3  and  C_16
    2  A    between atoms: N_3  and  C_19
    3  A    between atoms: C_5  and  C_11
    4  A    between atoms: C_5  and  C_19
    5  A    between atoms: C_8  and  O_12
    6  A    between atoms: C_8  and  C_16
    7  A    between atoms: C_11  and  C_20
    8  A    between atoms: N_17  and  C_28
    9  A    between atoms: C_28  and  C_29
   10  A    between atoms: C_29  and  C_32
   11  A    between atoms: O_31  and  C_32
   12  A    between atoms: C_32  and  C_34
                            x       y       z     vdW  Elec       q    Type
                         _______ _______ _______ _____ _____    ______ ____

>  <TORSDO>
F 12

$$$$
=
 OpenBabel11122414413D

 34 37  0  0  1  0  0  0  0  0999 V2000
  160.7800  207.6010  154.7960 C   0  0  2  0  0  3  0  0  0  0  0  0
  160.7050  205.6500  153.3780 O   0  0  0  0  0  0  0  0  0  0  0  0
  159.9540  209.8110  155.5960 C   0  0  0  0  0  2  0  0  0  0  0  0
  161.8600  207.5080  152.4360 C   0  0  2  0  0  3  0  0  0  0  0  0
  162.4680  207.7220  149.5820 C   0  0  0  0  0  2  0  0  0  0  0  0
  160.8450  208.5810  151.9640 C   0  0  1  0  0  3  0  0  0  0  0  0
  161.0820  205.2820  152.0710 C   0  0  0  0  0  2  0  0  0  0  0  0
  161.6230  206.6440  150.0830 N   0  0  0  0  0  0  0  0  0  0  0  0
  160.7390  209.1000  154.4880 C   0  0  2  0  0  3  0  0  0  0  0  0
  160.0820  209.2850  153.1160 C   0  0  1  0  0  3  0  0  0  0  0  0
  160.6890  208.0840  157.2500 C   0  0  0  0  0  2  0  0  0  0  0  0
  161.6980  209.0330  149.6260 C   0  0  0  0  0  2  0  0  0  0  0  0
  160.6260  209.5790  156.9460 C   0  0  0  0  0  2  0  0  0  0  0  0
  161.5850  209.5600  151.0510 C   0  0  0  0  0  2  0  0  0  0  0  0
  161.9990  206.3420  151.4720 C   0  0  1  0  0  3  0  0  0  0  0  0
  161.4470  207.3510  156.1460 C   0  0  0  0  0  2  0  0  0  0  0  0
  161.4760  206.7730  153.7120 C   0  0  1  0  0  3  0  0  0  0  0  0
  159.5740  210.7030  152.8080 C   0  0  0  0  0  2  0  0  0  0  0  0
  160.2730  211.7630  153.6510 C   0  0  0  0  0  2  0  0  0  0  0  0
  159.4560  213.3420  155.2570 O   0  0  0  0  0  1  0  0  0  0  0  0
  159.3280  212.9200  153.9280 C   0  0  2  0  0  3  0  0  0  0  0  0
  157.9510  212.5270  153.6230 N   0  0  0  0  0  0  0  0  0  0  0  0
  157.3020  212.2730  154.7870 O   0  0  0  0  0  1  0  0  0  0  0  0
  157.2820  213.6590  152.9980 C   0  0  0  0  0  2  0  0  0  0  0  0
  158.0020  214.0480  151.7170 C   0  0  0  0  0  2  0  0  0  0  0  0
  157.8240  213.0590  150.7500 O   0  0  0  0  0  0  0  0  0  0  0  0
  157.0490  213.6680  149.7650 C   0  0  0  0  0  1  0  0  0  0  0  0
  161.9480  205.4800  149.2690 C   0  0  0  0  0  2  0  0  0  0  0  0
  161.0980  205.4800  148.0110 C   0  0  0  0  0  2  0  0  0  0  0  0
  161.4200  204.2530  147.1570 C   0  0  1  0  0  3  0  0  0  0  0  0
  162.3380  205.7160  145.4660 O   0  0  0  0  0  1  0  0  0  0  0  0
  162.5200  204.4960  146.1220 C   0  0  0  0  0  2  0  0  0  0  0  0
  161.5800  203.0520  147.8870 O   0  0  0  0  0  0  0  0  0  0  0  0
  160.8360  202.0310  147.2750 C   0  0  0  0  0  1  0  0  0  0  0  0
  1 16  1  1  0  0  0
  2 17  1  0  0  0  0
  3 13  1  0  0  0  0
  4 17  1  0  0  0  0
  5 12  1  0  0  0  0
  5  8  1  0  0  0  0
  6  4  1  0  0  0  0
  6 10  1  0  0  0  0
  7  2  1  0  0  0  0
  8 15  1  0  0  0  0
  9  1  1  0  0  0  0
  9  3  1  0  0  0  0
 10  9  1  0  0  0  0
 12 14  1  0  0  0  0
 13 11  1  0  0  0  0
 14  6  1  0  0  0  0
 15  7  1  0  0  0  0
 15  4  1  0  0  0  0
 16 11  1  0  0  0  0
 17  1  1  0  0  0  0
 18 10  1  0  0  0  0
 18 19  1  0  0  0  0
 19 21  1  0  0  0  0
 21 20  1  0  0  0  0
 22 21  1  0  0  0  0
 22 23  1  0  0  0  0
 24 22  1  0  0  0  0
 25 24  1  0  0  0  0
 26 25  1  0  0  0  0
 27 26  1  0  0  0  0
 28  8  1  0  0  0  0
 29 28  1  0  0  0  0
 30 33  1  0  0  0  0
 30 29  1  0  0  0  0
 31 32  1  0  0  0  0
 32 30  1  0  0  0  0
 34 33  1  0  0  0  0
M  END
>  <MODEL>
7

>  <REMARK>
 VINA RESULT:      -5.8      2.178      4.968
  Name = 
  12 active torsions:
  status: ('A' for Active; 'I' for Inactive)
    1  A    between atoms: N_3  and  C_16
    2  A    between atoms: N_3  and  C_19
    3  A    between atoms: C_5  and  C_11
    4  A    between atoms: C_5  and  C_19
    5  A    between atoms: C_8  and  O_12
    6  A    between atoms: C_8  and  C_16
    7  A    between atoms: C_11  and  C_20
    8  A    between atoms: N_17  and  C_28
    9  A    between atoms: C_28  and  C_29
   10  A    between atoms: C_29  and  C_32
   11  A    between atoms: O_31  and  C_32
   12  A    between atoms: C_32  and  C_34
                            x       y       z     vdW  Elec       q    Type
                         _______ _______ _______ _____ _____    ______ ____

>  <TORSDO>
F 12

$$$$
=
 OpenBabel11122414413D

 34 37  0  0  1  0  0  0  0  0999 V2000
  160.9530  204.5460  149.8680 C   0  0  2  0  0  3  0  0  0  0  0  0
  160.3340  206.1990  148.2230 O   0  0  0  0  0  0  0  0  0  0  0  0
  160.8050  203.4590  152.1050 C   0  0  0  0  0  2  0  0  0  0  0  0
  162.0130  206.9130  149.7530 C   0  0  2  0  0  3  0  0  0  0  0  0
  162.7270  209.7260  150.1330 C   0  0  0  0  0  2  0  0  0  0  0  0
  161.3770  207.2310  151.1310 C   0  0  1  0  0  3  0  0  0  0  0  0
  160.6160  207.5470  147.9270 C   0  0  0  0  0  2  0  0  0  0  0  0
  161.5860  209.3540  149.3020 N   0  0  0  0  0  0  0  0  0  0  0  0
  161.3690  204.6600  151.3370 C   0  0  2  0  0  3  0  0  0  0  0  0
  160.8300  205.9880  151.8810 C   0  0  1  0  0  3  0  0  0  0  0  0
  160.9510  202.0490  150.0440 C   0  0  0  0  0  2  0  0  0  0  0  0
  162.3820  209.5040  151.5970 C   0  0  0  0  0  2  0  0  0  0  0  0
  161.3440  202.1600  151.5140 C   0  0  0  0  0  2  0  0  0  0  0  0
  162.3970  208.0230  151.9510 C   0  0  0  0  0  2  0  0  0  0  0  0
  161.8210  208.0200  148.7300 C   0  0  1  0  0  3  0  0  0  0  0  0
  161.4820  203.2480  149.2620 C   0  0  0  0  0  2  0  0  0  0  0  0
  161.3960  205.7360  149.0130 C   0  0  1  0  0  3  0  0  0  0  0  0
  160.7770  206.1050  153.4120 C   0  0  0  0  0  2  0  0  0  0  0  0
  160.4550  207.5210  153.8730 C   0  0  0  0  0  2  0  0  0  0  0  0
  159.7880  206.9490  156.1030 O   0  0  0  0  0  1  0  0  0  0  0  0
  160.7340  207.6650  155.3590 C   0  0  2  0  0  3  0  0  0  0  0  0
  160.7450  209.0810  155.7330 N   0  0  0  0  0  0  0  0  0  0  0  0
  162.0320  209.4940  155.8430 O   0  0  0  0  0  1  0  0  0  0  0  0
  160.1410  209.8430  154.6490 C   0  0  0  0  0  2  0  0  0  0  0  0
  160.8360  211.1860  154.5040 C   0  0  0  0  0  2  0  0  0  0  0  0
  160.1430  211.9870  153.5960 O   0  0  0  0  0  0  0  0  0  0  0  0
  159.3410  211.0960  152.8850 C   0  0  0  0  0  1  0  0  0  0  0  0
  161.5690  210.3140  148.2060 C   0  0  0  0  0  2  0  0  0  0  0  0
  162.3310  211.5640  148.6070 C   0  0  0  0  0  2  0  0  0  0  0  0
  161.7580  212.7840  147.8840 C   0  0  1  0  0  3  0  0  0  0  0  0
  160.6790  213.0410  145.7370 O   0  0  0  0  0  1  0  0  0  0  0  0
  160.5490  212.4640  147.0020 C   0  0  0  0  0  2  0  0  0  0  0  0
  161.5810  213.9240  148.7020 O   0  0  0  0  0  0  0  0  0  0  0  0
  160.3250  213.8590  149.3280 C   0  0  0  0  0  1  0  0  0  0  0  0
  1 16  1  6  0  0  0
  1  9  1  0  0  0  0
  2 17  1  0  0  0  0
  4  6  1  0  0  0  0
  5 12  1  0  0  0  0
  6 10  1  0  0  0  0
  6 14  1  0  0  0  0
  7  2  1  0  0  0  0
  7 15  1  0  0  0  0
  8  5  1  0  0  0  0
  9 10  1  0  0  0  0
  9  3  1  0  0  0  0
 10 18  1  0  0  0  0
 11 13  1  0  0  0  0
 12 14  1  0  0  0  0
 13  3  1  0  0  0  0
 15  8  1  0  0  0  0
 15  4  1  0  0  0  0
 16 11  1  0  0  0  0
 17  4  1  0  0  0  0
 17  1  1  0  0  0  0
 18 19  1  0  0  0  0
 19 21  1  0  0  0  0
 21 22  1  0  0  0  0
 21 20  1  0  0  0  0
 22 23  1  0  0  0  0
 24 22  1  0  0  0  0
 25 24  1  0  0  0  0
 26 25  1  0  0  0  0
 27 26  1  0  0  0  0
 28 29  1  0  0  0  0
 28  8  1  0  0  0  0
 30 29  1  0  0  0  0
 30 33  1  0  0  0  0
 31 32  1  0  0  0  0
 32 30  1  0  0  0  0
 33 34  1  0  0  0  0
M  END
>  <MODEL>
8

>  <REMARK>
 VINA RESULT:      -5.7      2.575      6.615
  Name = 
  12 active torsions:
  status: ('A' for Active; 'I' for Inactive)
    1  A    between atoms: N_3  and  C_16
    2  A    between atoms: N_3  and  C_19
    3  A    between atoms: C_5  and  C_11
    4  A    between atoms: C_5  and  C_19
    5  A    between atoms: C_8  and  O_12
    6  A    between atoms: C_8  and  C_16
    7  A    between atoms: C_11  and  C_20
    8  A    between atoms: N_17  and  C_28
    9  A    between atoms: C_28  and  C_29
   10  A    between atoms: C_29  and  C_32
   11  A    between atoms: O_31  and  C_32
   12  A    between atoms: C_32  and  C_34
                            x       y       z     vdW  Elec       q    Type
                         _______ _______ _______ _____ _____    ______ ____

>  <TORSDO>
F 12

$$$$
=
 OpenBabel11122414413D

 34 37  0  0  1  0  0  0  0  0999 V2000
  161.1550  208.5170  153.8250 C   0  0  2  0  0  3  0  0  0  0  0  0
  162.3470  210.3270  152.7640 O   0  0  0  0  0  0  0  0  0  0  0  0
  160.8950  206.1590  154.5860 C   0  0  0  0  0  2  0  0  0  0  0  0
  161.0900  208.9660  151.2680 C   0  0  2  0  0  3  0  0  0  0  0  0
  161.5220  208.9640  148.3740 C   0  0  0  0  0  2  0  0  0  0  0  0
  161.8140  207.6130  151.0450 C   0  0  1  0  0  3  0  0  0  0  0  0
  162.6050  210.7980  151.4620 C   0  0  0  0  0  2  0  0  0  0  0  0
  162.4220  209.6960  149.2590 N   0  0  0  0  0  0  0  0  0  0  0  0
  160.8310  207.0910  153.3710 C   0  0  2  0  0  3  0  0  0  0  0  0
  161.8460  206.6940  152.2940 C   0  0  1  0  0  3  0  0  0  0  0  0
  160.1940  208.0350  156.0850 C   0  0  0  0  0  2  0  0  0  0  0  0
  161.7700  207.4710  148.5200 C   0  0  0  0  0  2  0  0  0  0  0  0
  159.8900  206.6060  155.6430 C   0  0  0  0  0  2  0  0  0  0  0  0
  161.1880  206.9380  149.8230 C   0  0  0  0  0  2  0  0  0  0  0  0
  161.6840  210.1080  150.4630 C   0  0  1  0  0  3  0  0  0  0  0  0
  160.1600  208.9790  154.8870 C   0  0  0  0  0  2  0  0  0  0  0  0
  161.1970  209.5290  152.6770 C   0  0  1  0  0  3  0  0  0  0  0  0
  161.9570  205.1880  152.0100 C   0  0  0  0  0  2  0  0  0  0  0  0
  160.8310  204.6830  151.1160 C   0  0  0  0  0  2  0  0  0  0  0  0
  161.7540  202.6610  152.0120 O   0  0  0  0  0  1  0  0  0  0  0  0
  160.7980  203.1650  151.1200 C   0  0  2  0  0  3  0  0  0  0  0  0
  161.0120  202.6540  149.7640 N   0  0  0  0  0  0  0  0  0  0  0  0
  160.0420  201.7480  149.4810 O   0  0  0  0  0  1  0  0  0  0  0  0
  160.8520  203.7600  148.8310 C   0  0  0  0  0  2  0  0  0  0  0  0
  161.5810  203.4560  147.5320 C   0  0  0  0  0  2  0  0  0  0  0  0
  161.4130  204.5080  146.6330 O   0  0  0  0  0  0  0  0  0  0  0  0
  162.6810  204.7130  146.0920 C   0  0  0  0  0  1  0  0  0  0  0  0
  162.7980  210.9000  148.5300 C   0  0  0  0  0  2  0  0  0  0  0  0
  161.5680  211.5170  147.8890 C   0  0  0  0  0  2  0  0  0  0  0  0
  161.7310  213.0340  147.7880 C   0  0  1  0  0  3  0  0  0  0  0  0
  161.8200  214.1670  145.6550 O   0  0  0  0  0  1  0  0  0  0  0  0
  160.9550  213.6590  146.6260 C   0  0  0  0  0  2  0  0  0  0  0  0
  161.5800  213.7260  149.0120 O   0  0  0  0  0  0  0  0  0  0  0  0
  160.2510  213.6130  149.4510 C   0  0  0  0  0  1  0  0  0  0  0  0
  1 16  1  1  0  0  0
  3 13  1  0  0  0  0
  4 17  1  0  0  0  0
  5 12  1  0  0  0  0
  5  8  1  0  0  0  0
  6  4  1  0  0  0  0
  6 10  1  0  0  0  0
  7  2  1  0  0  0  0
  8 15  1  0  0  0  0
  9  1  1  0  0  0  0
  9  3  1  0  0  0  0
 10  9  1  0  0  0  0
 12 14  1  0  0  0  0
 13 11  1  0  0  0  0
 14  6  1  0  0  0  0
 15  4  1  0  0  0  0
 15  7  1  0  0  0  0
 16 11  1  0  0  0  0
 17  2  1  0  0  0  0
 17  1  1  0  0  0  0
 18 10  1  0  0  0  0
 19 21  1  0  0  0  0
 19 18  1  0  0  0  0
 21 20  1  0  0  0  0
 22 21  1  0  0  0  0
 23 22  1  0  0  0  0
 24 22  1  0  0  0  0
 25 24  1  0  0  0  0
 26 25  1  0  0  0  0
 27 26  1  0  0  0  0
 28  8  1  0  0  0  0
 29 28  1  0  0  0  0
 30 29  1  0  0  0  0
 30 33  1  0  0  0  0
 31 32  1  0  0  0  0
 32 30  1  0  0  0  0
 33 34  1  0  0  0  0
M  END
>  <MODEL>
9

>  <REMARK>
 VINA RESULT:      -5.7      2.762      8.066
  Name = 
  12 active torsions:
  status: ('A' for Active; 'I' for Inactive)
    1  A    between atoms: N_3  and  C_16
    2  A    between atoms: N_3  and  C_19
    3  A    between atoms: C_5  and  C_11
    4  A    between atoms: C_5  and  C_19
    5  A    between atoms: C_8  and  O_12
    6  A    between atoms: C_8  and  C_16
    7  A    between atoms: C_11  and  C_20
    8  A    between atoms: N_17  and  C_28
    9  A    between atoms: C_28  and  C_29
   10  A    between atoms: C_29  and  C_32
   11  A    between atoms: O_31  and  C_32
   12  A    between atoms: C_32  and  C_34
                            x       y       z     vdW  Elec       q    Type
                         _______ _______ _______ _____ _____    ______ ____

>  <TORSDO>
F 12

$$$$
