=
 OpenBabel11122412543D

 32 38  0  0  1  0  0  0  0  0999 V2000
  160.4640  208.7600  156.7900 C   0  0  1  0  0  3  0  0  0  0  0  0
  161.1260  206.4740  152.1600 C   0  0  0  0  0  0  0  0  0  0  0  0
  162.0390  210.1760  149.1030 C   0  0  0  0  0  3  0  0  0  0  0  0
  161.9150  209.3010  148.0210 O   0  0  0  0  0  0  0  0  0  0  0  0
  160.8340  204.1550  151.2550 C   0  0  0  0  0  0  0  0  0  0  0  0
  160.8460  203.3330  150.1330 C   0  0  0  0  0  0  0  0  0  0  0  0
  161.2710  206.9590  154.6310 C   0  0  1  0  0  3  0  0  0  0  0  0
  161.5160  208.8450  153.0560 C   0  0  0  0  0  2  0  0  0  0  0  0
  161.0570  202.7940  148.0170 N   0  0  0  0  0  0  0  0  0  0  0  0
  160.9250  209.3750  155.4640 C   0  0  2  0  0  3  0  0  0  0  0  0
  161.9450  209.7230  150.3500 C   0  0  0  0  0  3  0  0  0  0  0  0
  161.4080  207.8480  151.9160 C   0  0  0  0  0  0  0  0  0  0  0  0
  161.6790  208.2930  150.6110 C   0  0  0  0  0  0  0  0  0  0  0  0
  161.3890  206.0330  149.7510 C   0  0  0  0  0  0  0  0  0  0  0  0
  160.7630  201.6790  148.6750 N   0  0  0  0  0  0  0  0  0  0  0  0
  159.9260  207.4440  156.6110 O   0  0  0  0  0  0  0  0  0  0  0  0
  160.7970  208.3710  154.3040 C   0  0  2  0  0  3  0  0  0  0  0  0
  160.6240  201.9740  149.9930 C   0  0  0  0  0  3  0  0  0  0  0  0
  160.8350  206.5260  156.0330 C   0  0  0  0  0  2  0  0  0  0  0  0
  161.9580  208.9710  156.5100 C   0  0  1  0  0  3  0  0  0  0  0  0
  162.0610  207.8850  148.1580 C   0  0  0  0  0  2  0  0  0  0  0  0
  161.6630  207.3930  149.5330 C   0  0  0  0  0  0  0  0  0  0  0  0
  161.3890  205.1440  148.6530 C   0  0  0  0  0  3  0  0  0  0  0  0
  160.7380  206.0290  153.5580 C   0  0  0  0  0  2  0  0  0  0  0  0
  160.5670  203.5890  152.4970 O   0  0  0  0  0  1  0  0  0  0  0  0
  161.2790  202.8600  146.5820 C   0  0  0  0  0  1  0  0  0  0  0  0
  161.1090  205.5510  151.0770 C   0  0  0  0  0  0  0  0  0  0  0  0
  161.1120  203.8080  148.8900 C   0  0  0  0  0  0  0  0  0  0  0  0
  162.4180  210.1540  157.2150 N   0  0  0  0  0  2  0  0  0  0  0  0
  163.3390  211.0650  156.6180 C   0  0  0  0  0  0  0  0  0  0  0  0
  163.8210  210.8450  155.3340 O   0  0  0  0  0  0  0  0  0  0  0  0
  163.7170  212.0780  157.2610 O   0  0  0  0  0  1  0  0  0  0  0  0
  1 16  1  6  0  0  0
  2 24  1  0  0  0  0
  3 11  2  0  0  0  0
  4 21  1  0  0  0  0
  4  3  1  0  0  0  0
  5 25  1  0  0  0  0
  6  5  2  0  0  0  0
  7 24  1  6  0  0  0
  7 19  1  0  0  0  0
  8 17  1  0  0  0  0
  9 15  1  0  0  0  0
  9 28  1  0  0  0  0
 10 20  1  0  0  0  0
 10  1  1  0  0  0  0
 11 13  1  0  0  0  0
 12  2  1  0  0  0  0
 12  8  1  0  0  0  0
 13 12  2  0  0  0  0
 14 27  1  0  0  0  0
 15 18  2  0  0  0  0
 17  7  1  0  0  0  0
 17 10  1  0  0  0  0
 18  6  1  0  0  0  0
 19 16  1  0  0  0  0
 20  1  1  0  0  0  0
 20 29  1  0  0  0  0
 21 22  1  0  0  0  0
 22 14  2  0  0  0  0
 22 13  1  0  0  0  0
 23 28  2  0  0  0  0
 23 14  1  0  0  0  0
 26  9  1  0  0  0  0
 27  5  1  0  0  0  0
 27  2  2  0  0  0  0
 28  6  1  0  0  0  0
 30 29  1  0  0  0  0
 30 32  1  0  0  0  0
 31 30  2  0  0  0  0
M  END
>  <MODEL>
1

>  <REMARK>
 VINA RESULT:     -10.6      0.000      0.000
  Name = 
  1 active torsions:
  status: ('A' for Active; 'I' for Inactive)
    1  A    between atoms: C_20  and  N_29
                            x       y       z     vdW  Elec       q    Type
                         _______ _______ _______ _____ _____    ______ ____

>  <TORSDO>
F 1

$$$$
=
 OpenBabel11122412543D

 32 38  0  0  1  0  0  0  0  0999 V2000
  161.3940  201.2070  148.7910 C   0  0  1  0  0  3  0  0  0  0  0  0
  161.1450  205.7110  151.3890 C   0  0  0  0  0  0  0  0  0  0  0  0
  162.0600  209.1130  148.0010 C   0  0  0  0  0  3  0  0  0  0  0  0
  162.1610  210.0760  149.0090 O   0  0  0  0  0  0  0  0  0  0  0  0
  160.9410  206.3760  153.7970 C   0  0  0  0  0  0  0  0  0  0  0  0
  160.9400  207.4140  154.7220 C   0  0  0  0  0  0  0  0  0  0  0  0
  160.6010  203.3890  150.5700 C   0  0  1  0  0  3  0  0  0  0  0  0
  161.2750  205.0840  148.9060 C   0  0  0  0  0  2  0  0  0  0  0  0
  161.0580  209.4800  155.4510 N   0  0  0  0  0  0  0  0  0  0  0  0
  161.4420  202.6410  148.2500 C   0  0  2  0  0  3  0  0  0  0  0  0
  161.7360  207.8590  148.2990 C   0  0  0  0  0  3  0  0  0  0  0  0
  161.3380  206.0990  150.0330 C   0  0  0  0  0  0  0  0  0  0  0  0
  161.5070  207.4550  149.7030 C   0  0  0  0  0  0  0  0  0  0  0  0
  161.3090  208.0790  152.0480 C   0  0  0  0  0  0  0  0  0  0  0  0
  160.8600  208.7050  156.5100 N   0  0  0  0  0  0  0  0  0  0  0  0
  161.5510  201.1670  150.2150 O   0  0  0  0  0  0  0  0  0  0  0  0
  161.5260  203.6690  149.3920 C   0  0  2  0  0  3  0  0  0  0  0  0
  160.7810  207.4130  156.0970 C   0  0  0  0  0  3  0  0  0  0  0  0
  160.5660  201.9000  150.9210 C   0  0  0  0  0  2  0  0  0  0  0  0
  160.1300  201.8640  148.2240 C   0  0  1  0  0  3  0  0  0  0  0  0
  161.5810  209.8960  150.3030 C   0  0  0  0  0  2  0  0  0  0  0  0
  161.5000  208.4390  150.7040 C   0  0  0  0  0  0  0  0  0  0  0  0
  161.2940  209.0880  153.0370 C   0  0  0  0  0  3  0  0  0  0  0  0
  161.0630  204.2370  151.7390 C   0  0  0  0  0  2  0  0  0  0  0  0
  160.7470  205.0760  154.2500 O   0  0  0  0  0  1  0  0  0  0  0  0
  161.1910  210.9260  155.5130 C   0  0  0  0  0  1  0  0  0  0  0  0
  161.1330  206.6990  152.4130 C   0  0  0  0  0  0  0  0  0  0  0  0
  161.1090  208.7110  154.3570 C   0  0  0  0  0  0  0  0  0  0  0  0
  159.8910  201.3680  146.8800 N   0  0  0  0  0  2  0  0  0  0  0  0
  160.3070  202.1020  145.7300 C   0  0  0  0  0  0  0  0  0  0  0  0
  160.9640  203.3190  145.8680 O   0  0  0  0  0  1  0  0  0  0  0  0
  160.0800  201.6420  144.5820 O   0  0  0  0  0  0  0  0  0  0  0  0
  1 16  1  1  0  0  0
  2 24  1  0  0  0  0
  2 27  1  0  0  0  0
  3 11  2  0  0  0  0
  3  4  1  0  0  0  0
  4 21  1  0  0  0  0
  5 25  1  0  0  0  0
  5  6  1  0  0  0  0
  6 18  1  0  0  0  0
  7 19  1  1  0  0  0
  7 24  1  0  0  0  0
  8 17  1  0  0  0  0
  8 12  1  0  0  0  0
  9 26  1  0  0  0  0
  9 15  1  0  0  0  0
 10  1  1  0  0  0  0
 10 17  1  0  0  0  0
 11 13  1  0  0  0  0
 12  2  2  0  0  0  0
 13 12  1  0  0  0  0
 13 22  2  0  0  0  0
 14 27  1  0  0  0  0
 14 23  2  0  0  0  0
 16 19  1  0  0  0  0
 17  7  1  0  0  0  0
 18 15  2  0  0  0  0
 20 10  1  0  0  0  0
 20  1  1  0  0  0  0
 21 22  1  0  0  0  0
 22 14  1  0  0  0  0
 23 28  1  0  0  0  0
 27  5  2  0  0  0  0
 28  6  2  0  0  0  0
 28  9  1  0  0  0  0
 29 20  1  0  0  0  0
 30 31  1  0  0  0  0
 30 29  1  0  0  0  0
 32 30  2  0  0  0  0
M  END
>  <MODEL>
2

>  <REMARK>
 VINA RESULT:      -8.8      2.272      7.971
  Name = 
  1 active torsions:
  status: ('A' for Active; 'I' for Inactive)
    1  A    between atoms: C_20  and  N_29
                            x       y       z     vdW  Elec       q    Type
                         _______ _______ _______ _____ _____    ______ ____

>  <TORSDO>
F 1

$$$$
=
 OpenBabel11122412543D

 32 38  0  0  1  0  0  0  0  0999 V2000
  161.9240  210.3040  153.8580 C   0  0  1  0  0  3  0  0  0  0  0  0
  161.2750  206.6820  150.1760 C   0  0  0  0  0  0  0  0  0  0  0  0
  160.8320  202.4970  152.6610 C   0  0  0  0  0  3  0  0  0  0  0  0
  160.9270  201.7860  151.4610 O   0  0  0  0  0  0  0  0  0  0  0  0
  161.4010  206.6360  147.6740 C   0  0  0  0  0  0  0  0  0  0  0  0
  161.3680  205.8600  146.5190 C   0  0  0  0  0  0  0  0  0  0  0  0
  161.0620  208.8260  151.4860 C   0  0  1  0  0  3  0  0  0  0  0  0
  161.0550  206.6940  152.7310 C   0  0  0  0  0  2  0  0  0  0  0  0
  161.2060  204.0410  145.3040 N   0  0  0  0  0  0  0  0  0  0  0  0
  161.5810  208.8180  154.0120 C   0  0  2  0  0  3  0  0  0  0  0  0
  160.8280  203.8270  152.6560 C   0  0  0  0  0  3  0  0  0  0  0  0
  161.1260  205.9690  151.3990 C   0  0  0  0  0  0  0  0  0  0  0  0
  160.9550  204.5740  151.3870 C   0  0  0  0  0  0  0  0  0  0  0  0
  161.0830  204.5510  148.9560 C   0  0  0  0  0  0  0  0  0  0  0  0
  161.3720  205.0560  144.4650 N   0  0  0  0  0  0  0  0  0  0  0  0
  162.3520  210.6190  152.5270 O   0  0  0  0  0  0  0  0  0  0  0  0
  161.6720  208.0780  152.6650 C   0  0  2  0  0  3  0  0  0  0  0  0
  161.4760  206.2040  145.1830 C   0  0  0  0  0  3  0  0  0  0  0  0
  161.3930  210.3200  151.5300 C   0  0  0  0  0  2  0  0  0  0  0  0
  160.4700  209.8610  154.0610 C   0  0  1  0  0  3  0  0  0  0  0  0
  160.6510  202.3820  150.1920 C   0  0  0  0  0  2  0  0  0  0  0  0
  160.9410  203.8670  150.1740 C   0  0  0  0  0  0  0  0  0  0  0  0
  161.0550  203.8200  147.7470 C   0  0  0  0  0  3  0  0  0  0  0  0
  161.5580  208.1720  150.2110 C   0  0  0  0  0  2  0  0  0  0  0  0
  161.5610  208.0120  147.5490 O   0  0  0  0  0  1  0  0  0  0  0  0
  161.0560  202.6560  144.8900 C   0  0  0  0  0  1  0  0  0  0  0  0
  161.2600  205.9780  148.9390 C   0  0  0  0  0  0  0  0  0  0  0  0
  161.2020  204.5130  146.5570 C   0  0  0  0  0  0  0  0  0  0  0  0
  160.0850  210.0900  155.4420 N   0  0  0  0  0  2  0  0  0  0  0  0
  158.9530  210.8910  155.7760 C   0  0  0  0  0  0  0  0  0  0  0  0
  158.1790  211.4730  154.7790 O   0  0  0  0  0  0  0  0  0  0  0  0
  158.6510  211.0690  156.9840 O   0  0  0  0  0  1  0  0  0  0  0  0
  1 16  1  6  0  0  0
  1 10  1  0  0  0  0
  1 20  1  0  0  0  0
  2 24  1  0  0  0  0
  2 12  1  0  0  0  0
  4  3  1  0  0  0  0
  5 27  1  0  0  0  0
  6 28  1  0  0  0  0
  6  5  2  0  0  0  0
  7 24  1  6  0  0  0
  7 19  1  0  0  0  0
  7 17  1  0  0  0  0
  9 28  1  0  0  0  0
 10 20  1  0  0  0  0
 11  3  2  0  0  0  0
 12  8  1  0  0  0  0
 13 12  2  0  0  0  0
 13 11  1  0  0  0  0
 14 22  2  0  0  0  0
 15 18  2  0  0  0  0
 15  9  1  0  0  0  0
 17  8  1  0  0  0  0
 17 10  1  0  0  0  0
 18  6  1  0  0  0  0
 19 16  1  0  0  0  0
 20 29  1  0  0  0  0
 21  4  1  0  0  0  0
 22 21  1  0  0  0  0
 22 13  1  0  0  0  0
 23 14  1  0  0  0  0
 25  5  1  0  0  0  0
 26  9  1  0  0  0  0
 27 14  1  0  0  0  0
 27  2  2  0  0  0  0
 28 23  2  0  0  0  0
 29 30  1  0  0  0  0
 30 32  1  0  0  0  0
 31 30  2  0  0  0  0
M  END
>  <MODEL>
3

>  <REMARK>
 VINA RESULT:      -8.7      2.187      4.537
  Name = 
  1 active torsions:
  status: ('A' for Active; 'I' for Inactive)
    1  A    between atoms: C_20  and  N_29
                            x       y       z     vdW  Elec       q    Type
                         _______ _______ _______ _____ _____    ______ ____

>  <TORSDO>
F 1

$$$$
=
 OpenBabel11122412543D

 32 38  0  0  1  0  0  0  0  0999 V2000
  161.9560  203.0220  147.2720 C   0  0  1  0  0  3  0  0  0  0  0  0
  161.2760  206.6270  150.9660 C   0  0  0  0  0  0  0  0  0  0  0  0
  162.3310  210.8500  148.7430 C   0  0  0  0  0  3  0  0  0  0  0  0
  162.2990  211.4980  149.9810 O   0  0  0  0  0  0  0  0  0  0  0  0
  160.8310  206.5950  153.4310 C   0  0  0  0  0  0  0  0  0  0  0  0
  160.7020  207.3370  154.6010 C   0  0  0  0  0  0  0  0  0  0  0  0
  160.9110  204.6120  149.4940 C   0  0  1  0  0  3  0  0  0  0  0  0
  161.6520  206.7140  148.4300 C   0  0  0  0  0  2  0  0  0  0  0  0
  160.6620  209.1230  155.8760 N   0  0  0  0  0  0  0  0  0  0  0  0
  161.9870  204.5500  147.1510 C   0  0  2  0  0  3  0  0  0  0  0  0
  162.0390  209.5560  148.6540 C   0  0  0  0  0  3  0  0  0  0  0  0
  161.5700  207.3780  149.7930 C   0  0  0  0  0  0  0  0  0  0  0  0
  161.7060  208.7750  149.8640 C   0  0  0  0  0  0  0  0  0  0  0  0
  161.2740  208.7230  152.2600 C   0  0  0  0  0  0  0  0  0  0  0  0
  160.4070  208.0810  156.6580 N   0  0  0  0  0  0  0  0  0  0  0  0
  161.9880  202.5930  148.6390 O   0  0  0  0  0  0  0  0  0  0  0  0
  161.9230  205.2250  148.5330 C   0  0  2  0  0  3  0  0  0  0  0  0
  160.4220  206.9530  155.9010 C   0  0  0  0  0  3  0  0  0  0  0  0
  160.9130  203.0830  149.4190 C   0  0  0  0  0  2  0  0  0  0  0  0
  160.7180  203.7870  146.7860 C   0  0  1  0  0  3  0  0  0  0  0  0
  161.6160  210.9560  151.1140 C   0  0  0  0  0  2  0  0  0  0  0  0
  161.5670  209.4440  151.0900 C   0  0  0  0  0  0  0  0  0  0  0  0
  161.1270  209.4180  153.4810 C   0  0  0  0  0  3  0  0  0  0  0  0
  161.2300  205.1120  150.8900 C   0  0  0  0  0  2  0  0  0  0  0  0
  160.6570  205.2170  153.4910 O   0  0  0  0  0  1  0  0  0  0  0  0
  160.7240  210.4970  156.3420 C   0  0  0  0  0  1  0  0  0  0  0  0
  161.1290  207.2930  152.2150 C   0  0  0  0  0  0  0  0  0  0  0  0
  160.8430  208.6870  154.6230 C   0  0  0  0  0  0  0  0  0  0  0  0
  160.6200  203.6770  145.3420 N   0  0  0  0  0  2  0  0  0  0  0  0
  160.5410  204.8340  144.5110 C   0  0  0  0  0  0  0  0  0  0  0  0
  160.5610  206.1070  145.0670 O   0  0  0  0  0  1  0  0  0  0  0  0
  160.4550  204.7000  143.2630 O   0  0  0  0  0  0  0  0  0  0  0  0
  1 16  1  1  0  0  0
  2 27  1  0  0  0  0
  3  4  1  0  0  0  0
  4 21  1  0  0  0  0
  5 25  1  0  0  0  0
  5  6  1  0  0  0  0
  6 28  2  0  0  0  0
  6 18  1  0  0  0  0
  7 19  1  1  0  0  0
  7 24  1  0  0  0  0
  8 17  1  0  0  0  0
  8 12  1  0  0  0  0
  9 26  1  0  0  0  0
  9 15  1  0  0  0  0
 10  1  1  0  0  0  0
 10 17  1  0  0  0  0
 11  3  2  0  0  0  0
 11 13  1  0  0  0  0
 12 13  1  0  0  0  0
 12  2  2  0  0  0  0
 13 22  2  0  0  0  0
 14 23  2  0  0  0  0
 16 19  1  0  0  0  0
 17  7  1  0  0  0  0
 18 15  2  0  0  0  0
 20 10  1  0  0  0  0
 20  1  1  0  0  0  0
 22 21  1  0  0  0  0
 22 14  1  0  0  0  0
 23 28  1  0  0  0  0
 24  2  1  0  0  0  0
 27 14  1  0  0  0  0
 27  5  2  0  0  0  0
 28  9  1  0  0  0  0
 29 20  1  0  0  0  0
 30 31  1  0  0  0  0
 30 29  1  0  0  0  0
 32 30  2  0  0  0  0
M  END
>  <MODEL>
4

>  <REMARK>
 VINA RESULT:      -7.7      2.331      7.926
  Name = 
  1 active torsions:
  status: ('A' for Active; 'I' for Inactive)
    1  A    between atoms: C_20  and  N_29
                            x       y       z     vdW  Elec       q    Type
                         _______ _______ _______ _____ _____    ______ ____

>  <TORSDO>
F 1

$$$$
