=
 OpenBabel11122414363D

 34 40  0  0  1  0  0  0  0  0999 V2000
  161.7970  209.0640  151.3750 C   0  0  0  0  0  0  0  0  0  0  0  0
  161.3370  211.1190  152.7820 C   0  0  0  0  0  2  0  0  0  0  0  0
  161.4630  202.6270  150.0020 C   0  0  1  0  0  3  0  0  0  0  0  0
  161.7660  207.0520  150.0520 C   0  0  0  0  0  0  0  0  0  0  0  0
  161.5380  204.8470  151.2890 C   0  0  2  0  0  3  0  0  0  0  0  0
  161.3680  202.7480  152.4100 O   0  0  0  0  0  1  0  0  0  0  0  0
  161.4230  201.2540  150.2520 O   0  0  0  0  0  1  0  0  0  0  0  0
  160.7980  204.3230  148.2530 C   0  0  0  0  0  2  0  0  0  0  0  0
  161.5710  208.9730  153.8880 C   0  0  2  0  0  3  0  0  0  0  0  0
  159.5800  208.5040  156.3960 C   0  0  0  0  0  2  0  0  0  0  0  0
  160.7630  205.6240  152.2560 N   0  0  0  0  0  2  0  0  0  0  0  0
  160.4130  205.2940  149.1840 O   0  0  0  0  0  0  0  0  0  0  0  0
  160.8190  207.6450  153.6700 C   0  0  1  0  0  3  0  0  0  0  0  0
  161.0680  211.3360  154.2610 C   0  0  0  0  0  2  0  0  0  0  0  0
  161.5730  205.5640  149.9170 C   0  0  1  0  0  3  0  0  0  0  0  0
  160.5550  202.9250  148.8120 C   0  0  0  0  0  2  0  0  0  0  0  0
  159.5470  209.6290  155.3680 C   0  0  2  0  0  3  0  0  0  0  0  0
  161.6730  207.6720  151.3050 C   0  0  0  0  0  0  0  0  0  0  0  0
  160.9950  203.4100  151.2380 C   0  0  2  0  0  3  0  0  0  0  0  0
  161.5120  206.8440  152.5580 C   0  0  2  0  0  3  0  0  0  0  0  0
  162.0800  209.1630  149.0290 C   0  0  0  0  0  3  0  0  0  0  0  0
  159.5210  207.1360  155.7350 C   0  0  0  0  0  2  0  0  0  0  0  0
  161.9650  207.8110  148.9430 N   0  0  0  0  0  0  0  0  0  0  0  0
  160.7910  206.8320  154.9560 C   0  0  0  0  0  2  0  0  0  0  0  0
  160.9820  209.9540  154.9170 C   0  0  1  0  0  3  0  0  0  0  0  0
  161.9900  209.7820  150.2370 N   0  0  0  0  0  0  0  0  0  0  0  0
  161.6600  209.7160  152.6420 N   0  0  0  0  0  0  0  0  0  0  0  0
  158.9540  210.7480  155.9590 O   0  0  0  0  0  0  0  0  0  0  0  0
  157.6640  210.7930  155.4250 C   0  0  0  0  0  2  0  0  0  0  0  0
  158.6430  214.2130  154.7090 C   0  0  0  0  0  2  0  0  0  0  0  0
  157.7800  212.3160  153.5240 N   0  0  0  0  0  2  0  0  0  0  0  0
  157.3670  212.1900  154.9130 C   0  0  2  0  0  3  0  0  0  0  0  0
  158.1670  213.7090  153.3650 C   0  0  0  0  0  2  0  0  0  0  0  0
  158.1450  213.2060  155.7170 C   0  0  0  0  0  2  0  0  0  0  0  0
  1 27  1  0  0  0  0
  2 14  1  0  0  0  0
  3  7  1  1  0  0  0
  3 19  1  0  0  0  0
  4 18  2  0  0  0  0
  5 11  1  1  0  0  0
  8 16  1  0  0  0  0
  8 12  1  0  0  0  0
  9 27  1  6  0  0  0
  9 25  1  0  0  0  0
 11 20  1  0  0  0  0
 13  9  1  0  0  0  0
 13 24  1  1  0  0  0
 15 12  1  1  0  0  0
 15  4  1  0  0  0  0
 15  5  1  0  0  0  0
 16  3  1  0  0  0  0
 17 28  1  1  0  0  0
 17 10  1  0  0  0  0
 18  1  1  0  0  0  0
 19  5  1  0  0  0  0
 19  6  1  1  0  0  0
 20 18  1  6  0  0  0
 20 13  1  0  0  0  0
 21 26  1  0  0  0  0
 22 10  1  0  0  0  0
 23 21  2  0  0  0  0
 23  4  1  0  0  0  0
 24 22  1  0  0  0  0
 25 14  1  6  0  0  0
 25 17  1  0  0  0  0
 26  1  2  0  0  0  0
 27  2  1  0  0  0  0
 29 28  1  0  0  0  0
 30 34  1  0  0  0  0
 31 32  1  0  0  0  0
 32 29  1  1  0  0  0
 32 34  1  0  0  0  0
 33 31  1  0  0  0  0
 33 30  1  0  0  0  0
M  END
>  <MODEL>
1

>  <REMARK>
 VINA RESULT:      -7.9      0.000      0.000
  Name = 
  3 active torsions:
  status: ('A' for Active; 'I' for Inactive)
    1  A    between atoms: C_17  and  O_28
    2  A    between atoms: O_28  and  C_29
    3  A    between atoms: C_29  and  C_32
                            x       y       z     vdW  Elec       q    Type
                         _______ _______ _______ _____ _____    ______ ____

>  <TORSDO>
F 3

$$$$
=
 OpenBabel11122414363D

 34 40  0  0  1  0  0  0  0  0999 V2000
  161.2720  208.1950  152.6500 C   0  0  0  0  0  0  0  0  0  0  0  0
  161.0220  205.6970  152.9900 C   0  0  0  0  0  2  0  0  0  0  0  0
  161.7790  213.6560  148.9960 C   0  0  1  0  0  3  0  0  0  0  0  0
  161.1150  210.5260  152.0680 C   0  0  0  0  0  0  0  0  0  0  0  0
  161.9140  211.2080  149.7580 C   0  0  2  0  0  3  0  0  0  0  0  0
  162.6930  211.9030  147.6130 O   0  0  0  0  0  1  0  0  0  0  0  0
  162.1460  214.4530  147.9100 O   0  0  0  0  0  1  0  0  0  0  0  0
  160.0870  213.5450  150.8670 C   0  0  0  0  0  2  0  0  0  0  0  0
  162.1600  206.4990  151.0030 C   0  0  2  0  0  3  0  0  0  0  0  0
  161.5750  204.7970  148.3130 C   0  0  0  0  0  2  0  0  0  0  0  0
  161.4770  209.8700  149.3590 N   0  0  0  0  0  2  0  0  0  0  0  0
  159.9350  212.1570  150.7950 O   0  0  0  0  0  0  0  0  0  0  0  0
  161.6920  207.4740  149.9030 C   0  0  1  0  0  3  0  0  0  0  0  0
  161.3670  204.4860  152.1410 C   0  0  0  0  0  2  0  0  0  0  0  0
  161.2090  211.6450  151.0650 C   0  0  1  0  0  3  0  0  0  0  0  0
  160.4110  214.1170  149.4910 C   0  0  0  0  0  2  0  0  0  0  0  0
  160.8680  204.6990  149.6600 C   0  0  2  0  0  3  0  0  0  0  0  0
  161.4320  209.2120  151.7030 C   0  0  0  0  0  0  0  0  0  0  0  0
  161.7240  212.1770  148.5810 C   0  0  2  0  0  3  0  0  0  0  0  0
  162.0010  208.9140  150.3350 C   0  0  2  0  0  3  0  0  0  0  0  0
  160.5030  209.7780  154.2290 C   0  0  0  0  0  3  0  0  0  0  0  0
  161.5370  206.2140  147.7600 C   0  0  0  0  0  2  0  0  0  0  0  0
  160.6560  210.7800  153.3220 N   0  0  0  0  0  0  0  0  0  0  0  0
  162.3890  207.1640  148.5880 C   0  0  0  0  0  2  0  0  0  0  0  0
  161.8690  205.0040  150.7890 C   0  0  1  0  0  3  0  0  0  0  0  0
  160.8030  208.4960  153.8900 N   0  0  0  0  0  0  0  0  0  0  0  0
  161.5490  206.8400  152.2770 N   0  0  0  0  0  0  0  0  0  0  0  0
  160.3570  203.4050  149.7940 O   0  0  0  0  0  0  0  0  0  0  0  0
  161.3410  202.5740  149.2530 C   0  0  0  0  0  2  0  0  0  0  0  0
  160.8330  200.9750  146.0350 C   0  0  0  0  0  2  0  0  0  0  0  0
  161.5790  200.3720  148.2330 N   0  0  0  0  0  2  0  0  0  0  0  0
  160.6980  201.5220  148.3690 C   0  0  2  0  0  3  0  0  0  0  0  0
  161.3040  199.8340  146.9100 C   0  0  0  0  0  2  0  0  0  0  0  0
  160.4640  202.0870  146.9870 C   0  0  0  0  0  2  0  0  0  0  0  0
  1 26  1  0  0  0  0
  3  7  1  6  0  0  0
  3 16  1  0  0  0  0
  4 23  2  0  0  0  0
  5 11  1  6  0  0  0
  5 15  1  0  0  0  0
  9 27  1  1  0  0  0
 10 17  1  0  0  0  0
 12  8  1  0  0  0  0
 13 24  1  6  0  0  0
 13 20  1  0  0  0  0
 13  9  1  0  0  0  0
 14  2  1  0  0  0  0
 15 12  1  6  0  0  0
 15  4  1  0  0  0  0
 16  8  1  0  0  0  0
 17 28  1  1  0  0  0
 17 25  1  0  0  0  0
 18  4  1  0  0  0  0
 18  1  2  0  0  0  0
 19  6  1  6  0  0  0
 19  3  1  0  0  0  0
 19  5  1  0  0  0  0
 20 11  1  6  0  0  0
 20 18  1  0  0  0  0
 22 10  1  0  0  0  0
 22 24  1  0  0  0  0
 23 21  1  0  0  0  0
 25  9  1  0  0  0  0
 25 14  1  1  0  0  0
 26 21  2  0  0  0  0
 27  1  1  0  0  0  0
 27  2  1  0  0  0  0
 29 28  1  0  0  0  0
 30 33  1  0  0  0  0
 30 34  1  0  0  0  0
 31 32  1  0  0  0  0
 32 29  1  1  0  0  0
 33 31  1  0  0  0  0
 34 32  1  0  0  0  0
M  END
>  <MODEL>
2

>  <REMARK>
 VINA RESULT:      -7.3      3.188      8.853
  Name = 
  3 active torsions:
  status: ('A' for Active; 'I' for Inactive)
    1  A    between atoms: C_17  and  O_28
    2  A    between atoms: O_28  and  C_29
    3  A    between atoms: C_29  and  C_32
                            x       y       z     vdW  Elec       q    Type
                         _______ _______ _______ _____ _____    ______ ____

>  <TORSDO>
F 3

$$$$
=
 OpenBabel11122414363D

 34 40  0  0  1  0  0  0  0  0999 V2000
  160.9410  206.7670  154.2200 C   0  0  0  0  0  0  0  0  0  0  0  0
  161.4330  204.5100  153.1800 C   0  0  0  0  0  2  0  0  0  0  0  0
  159.3090  213.1490  154.0290 C   0  0  1  0  0  3  0  0  0  0  0  0
  160.0650  208.8810  154.9700 C   0  0  0  0  0  0  0  0  0  0  0  0
  160.2280  210.8440  153.3700 C   0  0  2  0  0  3  0  0  0  0  0  0
  160.3970  212.7290  151.9170 O   0  0  0  0  0  1  0  0  0  0  0  0
  159.2500  214.4520  153.5310 O   0  0  0  0  0  1  0  0  0  0  0  0
  158.0690  211.5780  155.5690 C   0  0  0  0  0  2  0  0  0  0  0  0
  161.9420  206.5170  151.9150 C   0  0  2  0  0  3  0  0  0  0  0  0
  161.3650  206.3110  148.7370 C   0  0  0  0  0  2  0  0  0  0  0  0
  160.1010  209.8290  152.3240 N   0  0  0  0  0  2  0  0  0  0  0  0
  158.2840  210.4500  154.7710 O   0  0  0  0  0  0  0  0  0  0  0  0
  161.0420  207.7000  151.5070 C   0  0  1  0  0  3  0  0  0  0  0  0
  161.9330  204.0740  151.8140 C   0  0  0  0  0  2  0  0  0  0  0  0
  159.6750  210.3130  154.7150 C   0  0  1  0  0  3  0  0  0  0  0  0
  157.9780  212.8320  154.7060 C   0  0  0  0  0  2  0  0  0  0  0  0
  160.9610  205.3290  149.8310 C   0  0  2  0  0  3  0  0  0  0  0  0
  160.6520  208.1100  153.9580 C   0  0  0  0  0  0  0  0  0  0  0  0
  159.5790  212.1520  152.8910 C   0  0  2  0  0  3  0  0  0  0  0  0
  161.0260  208.7400  152.6370 C   0  0  2  0  0  3  0  0  0  0  0  0
  160.0700  206.9990  156.4060 C   0  0  0  0  0  3  0  0  0  0  0  0
  160.8510  207.7140  149.0230 C   0  0  0  0  0  2  0  0  0  0  0  0
  159.7860  208.3080  156.1700 N   0  0  0  0  0  0  0  0  0  0  0  0
  161.5500  208.3360  150.2220 C   0  0  0  0  0  2  0  0  0  0  0  0
  162.0280  205.3300  150.9400 C   0  0  1  0  0  3  0  0  0  0  0  0
  160.6370  206.2360  155.4340 N   0  0  0  0  0  0  0  0  0  0  0  0
  161.5000  205.9550  153.1810 N   0  0  0  0  0  0  0  0  0  0  0  0
  160.8470  204.0590  149.2600 O   0  0  0  0  0  0  0  0  0  0  0  0
  161.2420  204.2270  147.9310 C   0  0  0  0  0  2  0  0  0  0  0  0
  160.8160  200.6570  147.4400 C   0  0  0  0  0  2  0  0  0  0  0  0
  160.9830  202.6380  146.1000 N   0  0  0  0  0  2  0  0  0  0  0  0
  161.6790  202.8960  147.3500 C   0  0  2  0  0  3  0  0  0  0  0  0
  160.8520  201.1920  146.0260 C   0  0  0  0  0  2  0  0  0  0  0  0
  161.3300  201.7800  148.3080 C   0  0  0  0  0  2  0  0  0  0  0  0
  1 26  1  0  0  0  0
  2 27  1  0  0  0  0
  3  7  1  6  0  0  0
  3 16  1  0  0  0  0
  4 23  2  0  0  0  0
  5 11  1  6  0  0  0
  5 15  1  0  0  0  0
  9 27  1  1  0  0  0
 10 22  1  0  0  0  0
 10 17  1  0  0  0  0
 12  8  1  0  0  0  0
 13 24  1  6  0  0  0
 13  9  1  0  0  0  0
 13 20  1  0  0  0  0
 14  2  1  0  0  0  0
 15 12  1  6  0  0  0
 15  4  1  0  0  0  0
 16  8  1  0  0  0  0
 17 28  1  6  0  0  0
 17 25  1  0  0  0  0
 18  1  2  0  0  0  0
 18  4  1  0  0  0  0
 19  6  1  6  0  0  0
 19  5  1  0  0  0  0
 19  3  1  0  0  0  0
 20 11  1  6  0  0  0
 20 18  1  0  0  0  0
 22 24  1  0  0  0  0
 23 21  1  0  0  0  0
 25 14  1  1  0  0  0
 25  9  1  0  0  0  0
 26 21  2  0  0  0  0
 27  1  1  0  0  0  0
 29 28  1  0  0  0  0
 30 34  1  0  0  0  0
 31 32  1  0  0  0  0
 32 29  1  1  0  0  0
 32 34  1  0  0  0  0
 33 31  1  0  0  0  0
 33 30  1  0  0  0  0
M  END
>  <MODEL>
3

>  <REMARK>
 VINA RESULT:      -7.0      2.207      8.892
  Name = 
  3 active torsions:
  status: ('A' for Active; 'I' for Inactive)
    1  A    between atoms: C_17  and  O_28
    2  A    between atoms: O_28  and  C_29
    3  A    between atoms: C_29  and  C_32
                            x       y       z     vdW  Elec       q    Type
                         _______ _______ _______ _____ _____    ______ ____

>  <TORSDO>
F 3

$$$$
=
 OpenBabel11122414363D

 34 40  0  0  1  0  0  0  0  0999 V2000
  161.4550  208.2740  149.5120 C   0  0  0  0  0  0  0  0  0  0  0  0
  161.7150  206.7460  147.5090 C   0  0  0  0  0  2  0  0  0  0  0  0
  160.7800  209.5510  155.9420 C   0  0  1  0  0  3  0  0  0  0  0  0
  161.5870  209.4990  151.5810 C   0  0  0  0  0  0  0  0  0  0  0  0
  160.6780  208.3710  153.6640 C   0  0  2  0  0  3  0  0  0  0  0  0
  159.7970  207.3680  155.6410 O   0  0  0  0  0  1  0  0  0  0  0  0
  160.3620  209.3560  157.2600 O   0  0  0  0  0  1  0  0  0  0  0  0
  162.5620  210.7380  154.6030 C   0  0  0  0  0  2  0  0  0  0  0  0
  160.4840  205.9450  149.4380 C   0  0  2  0  0  3  0  0  0  0  0  0
  160.9330  202.8170  150.1430 C   0  0  0  0  0  2  0  0  0  0  0  0
  161.0930  207.1290  153.0100 N   0  0  0  0  0  2  0  0  0  0  0  0
  162.7080  209.7030  153.6730 O   0  0  0  0  0  0  0  0  0  0  0  0
  160.9000  205.8350  150.9190 C   0  0  1  0  0  3  0  0  0  0  0  0
  161.3270  205.3040  147.2350 C   0  0  0  0  0  2  0  0  0  0  0  0
  161.4480  209.5790  153.0780 C   0  0  1  0  0  3  0  0  0  0  0  0
  162.1720  210.1770  155.9660 C   0  0  0  0  0  2  0  0  0  0  0  0
  161.7050  203.6770  149.1490 C   0  0  2  0  0  3  0  0  0  0  0  0
  161.2510  208.3250  150.8950 C   0  0  0  0  0  0  0  0  0  0  0  0
  160.8120  208.2120  155.1870 C   0  0  2  0  0  3  0  0  0  0  0  0
  160.6150  207.1670  151.6270 C   0  0  2  0  0  3  0  0  0  0  0  0
  162.3030  210.4810  149.5490 C   0  0  0  0  0  3  0  0  0  0  0  0
  160.9470  203.4220  151.5390 C   0  0  0  0  0  2  0  0  0  0  0  0
  162.1080  210.5490  150.8930 N   0  0  0  0  0  0  0  0  0  0  0  0
  160.1390  204.7090  151.6030 C   0  0  0  0  0  2  0  0  0  0  0  0
  160.7610  204.7280  148.5380 C   0  0  1  0  0  3  0  0  0  0  0  0
  161.9840  209.3480  148.8680 N   0  0  0  0  0  0  0  0  0  0  0  0
  161.1570  207.0650  148.8040 N   0  0  0  0  0  0  0  0  0  0  0  0
  162.2200  202.8420  148.1530 O   0  0  0  0  0  0  0  0  0  0  0  0
  161.2000  201.9230  147.8960 C   0  0  0  0  0  2  0  0  0  0  0  0
  160.4630  199.5080  145.2890 C   0  0  0  0  0  2  0  0  0  0  0  0
  160.1460  201.8490  145.6990 N   0  0  0  0  0  2  0  0  0  0  0  0
  161.3050  201.4230  146.4670 C   0  0  2  0  0  3  0  0  0  0  0  0
  159.9360  200.8020  144.7110 C   0  0  0  0  0  2  0  0  0  0  0  0
  161.3340  199.9120  146.4540 C   0  0  0  0  0  2  0  0  0  0  0  0
  1 18  1  0  0  0  0
  2 27  1  0  0  0  0
  3 16  1  0  0  0  0
  3  7  1  1  0  0  0
  5 11  1  6  0  0  0
  5 19  1  0  0  0  0
  8 16  1  0  0  0  0
  9 27  1  6  0  0  0
  9 13  1  0  0  0  0
 10 22  1  0  0  0  0
 12  8  1  0  0  0  0
 13 24  1  1  0  0  0
 13 20  1  0  0  0  0
 14  2  1  0  0  0  0
 15  4  1  6  0  0  0
 15  5  1  0  0  0  0
 15 12  1  0  0  0  0
 17 28  1  6  0  0  0
 17 10  1  0  0  0  0
 18  4  2  0  0  0  0
 19  6  1  1  0  0  0
 19  3  1  0  0  0  0
 20 18  1  6  0  0  0
 20 11  1  0  0  0  0
 21 23  2  0  0  0  0
 22 24  1  0  0  0  0
 23  4  1  0  0  0  0
 25 14  1  6  0  0  0
 25 17  1  0  0  0  0
 25  9  1  0  0  0  0
 26  1  2  0  0  0  0
 26 21  1  0  0  0  0
 27  1  1  0  0  0  0
 29 28  1  0  0  0  0
 30 34  1  0  0  0  0
 31 32  1  0  0  0  0
 32 29  1  1  0  0  0
 33 30  1  0  0  0  0
 33 31  1  0  0  0  0
 34 32  1  0  0  0  0
M  END
>  <MODEL>
4

>  <REMARK>
 VINA RESULT:      -6.8      2.524      8.642
  Name = 
  3 active torsions:
  status: ('A' for Active; 'I' for Inactive)
    1  A    between atoms: C_17  and  O_28
    2  A    between atoms: O_28  and  C_29
    3  A    between atoms: C_29  and  C_32
                            x       y       z     vdW  Elec       q    Type
                         _______ _______ _______ _____ _____    ______ ____

>  <TORSDO>
F 3

$$$$
=
 OpenBabel11122414363D

 34 40  0  0  1  0  0  0  0  0999 V2000
  161.5900  206.2040  147.4630 C   0  0  0  0  0  0  0  0  0  0  0  0
  161.5490  208.1390  149.0980 C   0  0  0  0  0  2  0  0  0  0  0  0
  161.0950  199.8490  145.7920 C   0  0  1  0  0  3  0  0  0  0  0  0
  161.1970  204.2740  146.0790 C   0  0  0  0  0  0  0  0  0  0  0  0
  161.5080  201.9920  147.1450 C   0  0  2  0  0  3  0  0  0  0  0  0
  161.8280  199.8250  148.0910 O   0  0  0  0  0  1  0  0  0  0  0  0
  161.2060  198.4640  145.9340 O   0  0  0  0  0  1  0  0  0  0  0  0
  159.7930  201.5930  144.5110 C   0  0  0  0  0  2  0  0  0  0  0  0
  162.2460  205.9550  149.8890 C   0  0  2  0  0  3  0  0  0  0  0  0
  161.2610  205.2070  152.8810 C   0  0  0  0  0  2  0  0  0  0  0  0
  161.0780  202.6570  148.3750 N   0  0  0  0  0  2  0  0  0  0  0  0
  159.7080  202.4800  145.5890 O   0  0  0  0  0  0  0  0  0  0  0  0
  161.5250  204.5920  149.8380 C   0  0  1  0  0  3  0  0  0  0  0  0
  161.7950  208.2520  150.5920 C   0  0  0  0  0  2  0  0  0  0  0  0
  161.0370  202.7870  145.9020 C   0  0  1  0  0  3  0  0  0  0  0  0
  159.8210  200.1520  145.0090 C   0  0  0  0  0  2  0  0  0  0  0  0
  160.8260  206.3840  152.0150 C   0  0  2  0  0  3  0  0  0  0  0  0
  161.5120  204.8140  147.3320 C   0  0  0  0  0  0  0  0  0  0  0  0
  161.0460  200.5260  147.1710 C   0  0  2  0  0  3  0  0  0  0  0  0
  161.8290  203.9070  148.4980 C   0  0  2  0  0  3  0  0  0  0  0  0
  161.0440  206.4570  145.1770 C   0  0  0  0  0  3  0  0  0  0  0  0
  161.0410  203.8780  152.1740 C   0  0  0  0  0  2  0  0  0  0  0  0
  160.9680  205.1070  145.0300 N   0  0  0  0  0  0  0  0  0  0  0  0
  161.9780  203.7080  150.9890 C   0  0  0  0  0  2  0  0  0  0  0  0
  162.0030  206.8320  151.1290 C   0  0  1  0  0  3  0  0  0  0  0  0
  161.3470  206.9980  146.3870 N   0  0  0  0  0  0  0  0  0  0  0  0
  161.8680  206.7720  148.7490 N   0  0  0  0  0  0  0  0  0  0  0  0
  160.4230  207.4240  152.8570 O   0  0  0  0  0  0  0  0  0  0  0  0
  160.8510  207.0390  154.1300 C   0  0  0  0  0  2  0  0  0  0  0  0
  160.2630  210.5380  154.8930 C   0  0  0  0  0  2  0  0  0  0  0  0
  159.9020  208.4000  155.9170 N   0  0  0  0  0  2  0  0  0  0  0  0
  161.0280  208.2640  155.0060 C   0  0  2  0  0  3  0  0  0  0  0  0
  159.7500  209.8300  156.1280 C   0  0  0  0  0  2  0  0  0  0  0  0
  161.0750  209.5070  154.1460 C   0  0  0  0  0  2  0  0  0  0  0  0
  1 27  1  0  0  0  0
  2 14  1  0  0  0  0
  3  7  1  1  0  0  0
  3 19  1  0  0  0  0
  4 18  2  0  0  0  0
  5 19  1  0  0  0  0
  5 11  1  1  0  0  0
  8 16  1  0  0  0  0
  8 12  1  0  0  0  0
  9 27  1  6  0  0  0
  9 25  1  0  0  0  0
 11 20  1  0  0  0  0
 13  9  1  0  0  0  0
 13 24  1  1  0  0  0
 15 12  1  1  0  0  0
 15  4  1  0  0  0  0
 15  5  1  0  0  0  0
 16  3  1  0  0  0  0
 17 28  1  1  0  0  0
 17 10  1  0  0  0  0
 18  1  1  0  0  0  0
 19  6  1  1  0  0  0
 20 18  1  6  0  0  0
 20 13  1  0  0  0  0
 21 26  1  0  0  0  0
 22 10  1  0  0  0  0
 23 21  2  0  0  0  0
 23  4  1  0  0  0  0
 24 22  1  0  0  0  0
 25 14  1  6  0  0  0
 25 17  1  0  0  0  0
 26  1  2  0  0  0  0
 27  2  1  0  0  0  0
 28 29  1  0  0  0  0
 30 33  1  0  0  0  0
 31 33  1  0  0  0  0
 32 29  1  6  0  0  0
 32 31  1  0  0  0  0
 34 30  1  0  0  0  0
 34 32  1  0  0  0  0
M  END
>  <MODEL>
5

>  <REMARK>
 VINA RESULT:      -6.6      2.818      4.932
  Name = 
  3 active torsions:
  status: ('A' for Active; 'I' for Inactive)
    1  A    between atoms: C_17  and  O_28
    2  A    between atoms: O_28  and  C_29
    3  A    between atoms: C_29  and  C_32
                            x       y       z     vdW  Elec       q    Type
                         _______ _______ _______ _____ _____    ______ ____

>  <TORSDO>
F 3

$$$$
=
 OpenBabel11122414363D

 34 40  0  0  1  0  0  0  0  0999 V2000
  161.9850  208.1870  149.9080 C   0  0  0  0  0  0  0  0  0  0  0  0
  161.7640  210.5290  150.8460 C   0  0  0  0  0  2  0  0  0  0  0  0
  161.2280  201.6430  150.0750 C   0  0  1  0  0  3  0  0  0  0  0  0
  161.7270  205.9380  149.0880 C   0  0  0  0  0  0  0  0  0  0  0  0
  161.5340  204.0830  150.8090 C   0  0  2  0  0  3  0  0  0  0  0  0
  161.3910  202.3020  152.3900 O   0  0  0  0  0  1  0  0  0  0  0  0
  161.1550  200.3650  150.6340 O   0  0  0  0  0  1  0  0  0  0  0  0
  160.4580  202.9480  148.0550 C   0  0  0  0  0  2  0  0  0  0  0  0
  162.0190  208.6720  152.3860 C   0  0  2  0  0  3  0  0  0  0  0  0
  160.2830  208.9060  155.1070 C   0  0  0  0  0  2  0  0  0  0  0  0
  160.8990  205.1060  151.6420 N   0  0  0  0  0  2  0  0  0  0  0  0
  160.2150  204.1250  148.7710 O   0  0  0  0  0  0  0  0  0  0  0  0
  161.1910  207.3820  152.5460 C   0  0  1  0  0  3  0  0  0  0  0  0
  161.6610  211.0870  152.2550 C   0  0  0  0  0  2  0  0  0  0  0  0
  161.4570  204.4740  149.3130 C   0  0  1  0  0  3  0  0  0  0  0  0
  160.2140  201.7280  148.9370 C   0  0  0  0  0  2  0  0  0  0  0  0
  160.1920  209.7740  153.8570 C   0  0  2  0  0  3  0  0  0  0  0  0
  161.7930  206.8260  150.1690 C   0  0  0  0  0  0  0  0  0  0  0  0
  160.9260  202.7110  151.1380 C   0  0  2  0  0  3  0  0  0  0  0  0
  161.7280  206.3100  151.5870 C   0  0  2  0  0  3  0  0  0  0  0  0
  162.0250  207.7430  147.5860 C   0  0  0  0  0  3  0  0  0  0  0  0
  160.0950  207.4320  154.7830 C   0  0  0  0  0  2  0  0  0  0  0  0
  161.8420  206.4160  147.8210 N   0  0  0  0  0  0  0  0  0  0  0  0
  161.2630  206.8790  153.9800 C   0  0  0  0  0  2  0  0  0  0  0  0
  161.5850  209.8950  153.2140 C   0  0  1  0  0  3  0  0  0  0  0  0
  162.0890  208.6190  148.6240 N   0  0  0  0  0  0  0  0  0  0  0  0
  162.0100  209.1130  151.0010 N   0  0  0  0  0  0  0  0  0  0  0  0
  159.7130  211.0330  154.2300 O   0  0  0  0  0  0  0  0  0  0  0  0
  158.3430  210.9890  153.9590 C   0  0  0  0  0  2  0  0  0  0  0  0
  155.6390  213.0140  155.2850 C   0  0  0  0  0  2  0  0  0  0  0  0
  156.4330  210.7580  155.4570 N   0  0  0  0  0  2  0  0  0  0  0  0
  157.5700  211.5970  155.1150 C   0  0  2  0  0  3  0  0  0  0  0  0
  155.4160  211.6740  155.9490 C   0  0  0  0  0  2  0  0  0  0  0  0
  157.0360  212.9540  154.7150 C   0  0  0  0  0  2  0  0  0  0  0  0
  1 18  1  0  0  0  0
  1 27  1  0  0  0  0
  2 27  1  0  0  0  0
  2 14  1  0  0  0  0
  3  7  1  1  0  0  0
  3 19  1  0  0  0  0
  4 15  1  0  0  0  0
  4 18  2  0  0  0  0
  5 19  1  0  0  0  0
  5 11  1  1  0  0  0
  8 12  1  0  0  0  0
  8 16  1  0  0  0  0
  9 27  1  6  0  0  0
  9 13  1  0  0  0  0
  9 25  1  0  0  0  0
 13 24  1  1  0  0  0
 15 12  1  1  0  0  0
 15  5  1  0  0  0  0
 16  3  1  0  0  0  0
 17 28  1  1  0  0  0
 17 10  1  0  0  0  0
 19  6  1  1  0  0  0
 20 18  1  6  0  0  0
 20 11  1  0  0  0  0
 20 13  1  0  0  0  0
 21 23  2  0  0  0  0
 21 26  1  0  0  0  0
 22 10  1  0  0  0  0
 23  4  1  0  0  0  0
 24 22  1  0  0  0  0
 25 14  1  6  0  0  0
 25 17  1  0  0  0  0
 26  1  2  0  0  0  0
 29 28  1  0  0  0  0
 30 33  1  0  0  0  0
 31 33  1  0  0  0  0
 32 29  1  6  0  0  0
 32 31  1  0  0  0  0
 34 32  1  0  0  0  0
 34 30  1  0  0  0  0
M  END
>  <MODEL>
6

>  <REMARK>
 VINA RESULT:      -5.7      1.294      1.745
  Name = 
  3 active torsions:
  status: ('A' for Active; 'I' for Inactive)
    1  A    between atoms: C_17  and  O_28
    2  A    between atoms: O_28  and  C_29
    3  A    between atoms: C_29  and  C_32
                            x       y       z     vdW  Elec       q    Type
                         _______ _______ _______ _____ _____    ______ ____

>  <TORSDO>
F 3

$$$$
=
 OpenBabel11122414363D

 34 40  0  0  1  0  0  0  0  0999 V2000
  160.9080  204.8440  151.6570 C   0  0  0  0  0  0  0  0  0  0  0  0
  161.2030  205.9710  153.9060 C   0  0  0  0  0  2  0  0  0  0  0  0
  161.0130  204.6460  145.0710 C   0  0  1  0  0  3  0  0  0  0  0  0
  161.0740  203.9100  149.4440 C   0  0  0  0  0  0  0  0  0  0  0  0
  160.8300  205.5030  147.4840 C   0  0  2  0  0  3  0  0  0  0  0  0
  160.5640  206.9550  145.6100 O   0  0  0  0  0  1  0  0  0  0  0  0
  160.8800  205.1160  143.7630 O   0  0  0  0  0  1  0  0  0  0  0  0
  162.1990  202.8590  146.4030 C   0  0  0  0  0  2  0  0  0  0  0  0
  160.5450  207.3190  152.0010 C   0  0  2  0  0  3  0  0  0  0  0  0
  161.8640  210.2730  151.8970 C   0  0  0  0  0  2  0  0  0  0  0  0
  161.4240  206.4900  148.3860 N   0  0  0  0  0  2  0  0  0  0  0  0
  162.4400  203.6850  147.5050 O   0  0  0  0  0  0  0  0  0  0  0  0
  161.2140  207.5050  150.6240 C   0  0  1  0  0  3  0  0  0  0  0  0
  161.1430  207.4160  154.3690 C   0  0  0  0  0  2  0  0  0  0  0  0
  161.1680  204.0660  147.9490 C   0  0  1  0  0  3  0  0  0  0  0  0
  162.1910  203.6770  145.1160 C   0  0  0  0  0  2  0  0  0  0  0  0
  162.2240  209.1150  152.8200 C   0  0  2  0  0  3  0  0  0  0  0  0
  160.9290  205.0310  150.2710 C   0  0  0  0  0  0  0  0  0  0  0  0
  161.2490  205.8160  146.0390 C   0  0  2  0  0  3  0  0  0  0  0  0
  160.7300  206.4030  149.6710 C   0  0  2  0  0  3  0  0  0  0  0  0
  161.1780  202.5150  151.3540 C   0  0  0  0  0  3  0  0  0  0  0  0
  161.9590  209.8740  150.4320 C   0  0  0  0  0  2  0  0  0  0  0  0
  161.1980  202.6770  150.0040 N   0  0  0  0  0  0  0  0  0  0  0  0
  160.8790  208.8730  150.0500 C   0  0  0  0  0  2  0  0  0  0  0  0
  160.9620  208.2870  153.1210 C   0  0  1  0  0  3  0  0  0  0  0  0
  161.0410  203.5930  152.1710 N   0  0  0  0  0  0  0  0  0  0  0  0
  160.8050  205.9850  152.5160 N   0  0  0  0  0  0  0  0  0  0  0  0
  162.7570  209.6440  154.0000 O   0  0  0  0  0  0  0  0  0  0  0  0
  162.1730  210.9070  154.1210 C   0  0  0  0  0  2  0  0  0  0  0  0
  159.5710  210.1910  156.5470 C   0  0  0  0  0  2  0  0  0  0  0  0
  161.9490  209.9530  156.3530 N   0  0  0  0  0  2  0  0  0  0  0  0
  161.5480  211.0560  155.4950 C   0  0  2  0  0  3  0  0  0  0  0  0
  160.8290  209.7460  157.2580 C   0  0  0  0  0  2  0  0  0  0  0  0
  160.0420  211.0240  155.3790 C   0  0  0  0  0  2  0  0  0  0  0  0
  1 26  1  0  0  0  0
  1 27  1  0  0  0  0
  2 14  1  0  0  0  0
  3  7  1  6  0  0  0
  3 16  1  0  0  0  0
  3 19  1  0  0  0  0
  4 23  2  0  0  0  0
  4 18  1  0  0  0  0
  5 15  1  0  0  0  0
  5 11  1  1  0  0  0
  8 12  1  0  0  0  0
  9 27  1  1  0  0  0
  9 25  1  0  0  0  0
 10 17  1  0  0  0  0
 13 24  1  6  0  0  0
 13  9  1  0  0  0  0
 15 12  1  1  0  0  0
 15  4  1  0  0  0  0
 16  8  1  0  0  0  0
 17 25  1  0  0  0  0
 17 28  1  1  0  0  0
 18  1  2  0  0  0  0
 19  6  1  6  0  0  0
 19  5  1  0  0  0  0
 20 11  1  6  0  0  0
 20 18  1  0  0  0  0
 20 13  1  0  0  0  0
 21 26  2  0  0  0  0
 22 10  1  0  0  0  0
 23 21  1  0  0  0  0
 24 22  1  0  0  0  0
 25 14  1  1  0  0  0
 27  2  1  0  0  0  0
 28 29  1  0  0  0  0
 30 33  1  0  0  0  0
 31 33  1  0  0  0  0
 32 29  1  6  0  0  0
 32 31  1  0  0  0  0
 34 32  1  0  0  0  0
 34 30  1  0  0  0  0
M  END
>  <MODEL>
7

>  <REMARK>
 VINA RESULT:      -5.3      2.495      4.775
  Name = 
  3 active torsions:
  status: ('A' for Active; 'I' for Inactive)
    1  A    between atoms: C_17  and  O_28
    2  A    between atoms: O_28  and  C_29
    3  A    between atoms: C_29  and  C_32
                            x       y       z     vdW  Elec       q    Type
                         _______ _______ _______ _____ _____    ______ ____

>  <TORSDO>
F 3

$$$$
=
 OpenBabel11122414363D

 34 40  0  0  1  0  0  0  0  0999 V2000
  160.8870  203.6290  151.2670 C   0  0  0  0  0  0  0  0  0  0  0  0
  161.3520  205.6270  152.7530 C   0  0  0  0  0  2  0  0  0  0  0  0
  160.3640  200.5600  145.4590 C   0  0  1  0  0  3  0  0  0  0  0  0
  160.8770  201.8170  149.6810 C   0  0  0  0  0  0  0  0  0  0  0  0
  160.3800  202.3900  147.2590 C   0  0  2  0  0  3  0  0  0  0  0  0
  159.8770  202.8740  144.9780 O   0  0  0  0  0  1  0  0  0  0  0  0
  160.0870  200.4090  144.0980 O   0  0  0  0  0  1  0  0  0  0  0  0
  161.7440  199.5310  147.3060 C   0  0  0  0  0  2  0  0  0  0  0  0
  160.4600  206.0060  150.5300 C   0  0  2  0  0  3  0  0  0  0  0  0
  161.6420  208.6070  149.0080 C   0  0  0  0  0  2  0  0  0  0  0  0
  161.0190  203.6690  147.5710 N   0  0  0  0  0  2  0  0  0  0  0  0
  162.0570  200.7560  147.9040 O   0  0  0  0  0  0  0  0  0  0  0  0
  160.9850  205.5640  149.1490 C   0  0  1  0  0  3  0  0  0  0  0  0
  161.2800  207.1290  152.5410 C   0  0  0  0  0  2  0  0  0  0  0  0
  160.8200  201.3010  148.2670 C   0  0  1  0  0  3  0  0  0  0  0  0
  161.5790  199.7010  145.8000 C   0  0  0  0  0  2  0  0  0  0  0  0
  162.1360  207.9690  150.3020 C   0  0  2  0  0  3  0  0  0  0  0  0
  160.7670  203.1890  149.9440 C   0  0  0  0  0  0  0  0  0  0  0  0
  160.6450  202.0350  145.7870 C   0  0  2  0  0  3  0  0  0  0  0  0
  160.4560  204.1590  148.8300 C   0  0  2  0  0  3  0  0  0  0  0  0
  161.2210  201.4020  151.9860 C   0  0  0  0  0  3  0  0  0  0  0  0
  161.6120  207.6050  147.8640 C   0  0  0  0  0  2  0  0  0  0  0  0
  161.1030  200.9550  150.7070 N   0  0  0  0  0  0  0  0  0  0  0  0
  160.5420  206.5440  148.0730 C   0  0  0  0  0  2  0  0  0  0  0  0
  160.9430  207.3650  151.0640 C   0  0  1  0  0  3  0  0  0  0  0  0
  161.1190  202.7300  152.2590 N   0  0  0  0  0  0  0  0  0  0  0  0
  160.8220  205.0320  151.5460 N   0  0  0  0  0  0  0  0  0  0  0  0
  162.7590  208.9580  151.0690 O   0  0  0  0  0  0  0  0  0  0  0  0
  162.0340  210.1230  150.8060 C   0  0  0  0  0  2  0  0  0  0  0  0
  160.0990  210.3430  153.8680 C   0  0  0  0  0  2  0  0  0  0  0  0
  162.4030  210.2130  153.2150 N   0  0  0  0  0  2  0  0  0  0  0  0
  161.6670  210.8070  152.1100 C   0  0  2  0  0  3  0  0  0  0  0  0
  161.5270  210.3380  154.3690 C   0  0  0  0  0  2  0  0  0  0  0  0
  160.1930  210.6210  152.3880 C   0  0  0  0  0  2  0  0  0  0  0  0
  1 27  1  0  0  0  0
  1 26  1  0  0  0  0
  3  7  1  6  0  0  0
  3 19  1  0  0  0  0
  3 16  1  0  0  0  0
  4 18  1  0  0  0  0
  4 23  2  0  0  0  0
  5 11  1  1  0  0  0
  5 15  1  0  0  0  0
  8 12  1  0  0  0  0
  9 25  1  0  0  0  0
  9 27  1  1  0  0  0
 10 17  1  0  0  0  0
 13 24  1  6  0  0  0
 13  9  1  0  0  0  0
 14  2  1  0  0  0  0
 15 12  1  6  0  0  0
 15  4  1  0  0  0  0
 16  8  1  0  0  0  0
 17 25  1  0  0  0  0
 17 28  1  1  0  0  0
 18  1  2  0  0  0  0
 19  6  1  6  0  0  0
 19  5  1  0  0  0  0
 20 11  1  6  0  0  0
 20 13  1  0  0  0  0
 20 18  1  0  0  0  0
 21 26  2  0  0  0  0
 22 24  1  0  0  0  0
 22 10  1  0  0  0  0
 23 21  1  0  0  0  0
 25 14  1  1  0  0  0
 27  2  1  0  0  0  0
 29 28  1  0  0  0  0
 30 33  1  0  0  0  0
 31 33  1  0  0  0  0
 32 29  1  6  0  0  0
 32 34  1  0  0  0  0
 32 31  1  0  0  0  0
 34 30  1  0  0  0  0
M  END
>  <MODEL>
8

>  <REMARK>
 VINA RESULT:      -5.1      2.790      5.755
  Name = 
  3 active torsions:
  status: ('A' for Active; 'I' for Inactive)
    1  A    between atoms: C_17  and  O_28
    2  A    between atoms: O_28  and  C_29
    3  A    between atoms: C_29  and  C_32
                            x       y       z     vdW  Elec       q    Type
                         _______ _______ _______ _____ _____    ______ ____

>  <TORSDO>
F 3

$$$$
