=
 OpenBabel11122414293D

 34 40  0  0  1  0  0  0  0  0999 V2000
  161.4670  208.6770  151.0560 C   0  0  0  0  0  0  0  0  0  0  0  0
  161.7230  210.6540  152.6750 C   0  0  0  0  0  2  0  0  0  0  0  0
  160.1060  202.0920  149.0780 O   0  0  0  0  0  0  0  0  0  0  0  0
  161.6160  206.6520  149.6900 C   0  0  0  0  0  0  0  0  0  0  0  0
  160.8840  204.3810  150.6890 C   0  0  1  0  0  3  0  0  0  0  0  0
  161.0020  201.9580  151.2960 C   0  0  0  0  0  2  0  0  0  0  0  0
  160.9220  201.3210  149.9130 C   0  0  0  0  0  2  0  0  0  0  0  0
  161.7940  203.3290  147.8530 C   0  0  0  0  0  2  0  0  0  0  0  0
  161.5000  208.4580  153.5100 C   0  0  2  0  0  3  0  0  0  0  0  0
  159.4410  207.9180  155.7980 C   0  0  0  0  0  2  0  0  0  0  0  0
  160.2960  205.2440  151.8080 C   0  0  0  0  0  2  0  0  0  0  0  0
  161.1400  204.6570  148.2040 C   0  0  0  0  0  2  0  0  0  0  0  0
  160.7640  207.1220  153.4280 C   0  0  1  0  0  3  0  0  0  0  0  0
  161.6430  210.7560  154.1980 C   0  0  0  0  0  2  0  0  0  0  0  0
  161.6330  205.1400  149.5680 C   0  0  1  0  0  3  0  0  0  0  0  0
  160.7840  202.1820  147.8550 C   0  0  0  0  0  2  0  0  0  0  0  0
  159.9350  209.3190  155.3850 C   0  0  2  0  0  3  0  0  0  0  0  0
  161.4240  207.2650  150.9460 C   0  0  0  0  0  0  0  0  0  0  0  0
  161.7630  203.2770  151.2560 C   0  0  0  0  0  2  0  0  0  0  0  0
  161.2420  206.3790  152.1670 C   0  0  2  0  0  3  0  0  0  0  0  0
  161.9220  208.8450  148.6810 C   0  0  0  0  0  3  0  0  0  0  0  0
  160.5720  206.9080  155.9880 C   0  0  0  0  0  2  0  0  0  0  0  0
  161.8930  207.4550  148.5730 C   0  0  0  0  0  3  0  0  0  0  0  0
  160.9960  206.2510  154.6690 C   0  0  0  0  0  2  0  0  0  0  0  0
  161.3400  209.3530  154.7370 C   0  0  1  0  0  3  0  0  0  0  0  0
  161.6910  209.4550  149.9140 C   0  0  0  0  0  3  0  0  0  0  0  0
  161.0840  209.3220  152.3580 C   0  0  2  0  0  3  0  0  0  0  0  0
  159.9040  210.2330  156.6010 C   0  0  0  0  0  2  0  0  0  0  0  0
  158.7040  211.1620  156.5370 C   0  0  0  0  0  2  0  0  0  0  0  0
  156.0730  212.1470  154.7060 C   0  0  0  0  0  3  0  0  0  0  0  0
  158.3400  212.5290  154.4750 C   0  0  0  0  0  2  0  0  0  0  0  0
  158.1160  211.1680  155.1370 C   0  0  2  0  0  3  0  0  0  0  0  0
  157.0350  213.0310  154.2570 O   0  0  0  0  0  0  0  0  0  0  0  0
  156.6300  211.0680  155.2190 C   0  0  0  0  0  3  0  0  0  0  0  0
  1 27  1  0  0  0  0
  2 14  1  0  0  0  0
  3  7  1  0  0  0  0
  4 18  2  0  0  0  0
  5 19  1  1  0  0  0
  5 11  1  0  0  0  0
  7  6  1  0  0  0  0
  8 16  1  0  0  0  0
  8 12  1  0  0  0  0
  9 25  1  0  0  0  0
 10 22  1  0  0  0  0
 11 20  1  0  0  0  0
 12 15  1  0  0  0  0
 13  9  1  0  0  0  0
 13 24  1  0  0  0  0
 14 25  1  0  0  0  0
 15  4  1  0  0  0  0
 15  5  1  0  0  0  0
 16  3  1  0  0  0  0
 17 10  1  0  0  0  0
 17 28  1  0  0  0  0
 18  1  1  0  0  0  0
 18 20  1  0  0  0  0
 19  6  1  0  0  0  0
 20 13  1  0  0  0  0
 21 26  1  0  0  0  0
 23 21  2  0  0  0  0
 23  4  1  0  0  0  0
 24 22  1  0  0  0  0
 25 17  1  0  0  0  0
 26  1  2  0  0  0  0
 27  2  1  0  0  0  0
 27  9  1  0  0  0  0
 29 28  1  0  0  0  0
 30 34  2  0  0  0  0
 31 32  1  0  0  0  0
 32 34  1  0  0  0  0
 32 29  1  0  0  0  0
 33 31  1  0  0  0  0
 33 30  1  0  0  0  0
M  END
>  <MODEL>
1

>  <REMARK>
 VINA RESULT:      -9.9      0.000      0.000
  Name = 
  3 active torsions:
  status: ('A' for Active; 'I' for Inactive)
    1  A    between atoms: C_17  and  C_28
    2  A    between atoms: C_28  and  C_29
    3  A    between atoms: C_29  and  C_32
                            x       y       z     vdW  Elec       q    Type
                         _______ _______ _______ _____ _____    ______ ____

>  <TORSDO>
F 3

$$$$
=
 OpenBabel11122414293D

 34 40  0  0  1  0  0  0  0  0999 V2000
  161.1050  205.2190  152.2590 C   0  0  0  0  0  0  0  0  0  0  0  0
  160.7880  206.4570  154.4860 C   0  0  0  0  0  2  0  0  0  0  0  0
  162.2910  204.4990  145.3890 O   0  0  0  0  0  0  0  0  0  0  0  0
  160.9890  204.1890  150.0430 C   0  0  0  0  0  0  0  0  0  0  0  0
  161.4750  205.6180  147.9420 C   0  0  1  0  0  3  0  0  0  0  0  0
  161.1520  206.5890  145.6610 C   0  0  0  0  0  2  0  0  0  0  0  0
  161.3470  205.3460  144.8000 C   0  0  0  0  0  2  0  0  0  0  0  0
  160.8220  202.9020  146.4700 C   0  0  0  0  0  2  0  0  0  0  0  0
  160.7910  207.6550  152.4530 C   0  0  2  0  0  3  0  0  0  0  0  0
  162.5520  210.2250  152.2220 C   0  0  0  0  0  2  0  0  0  0  0  0
  161.9860  206.6460  148.9570 C   0  0  0  0  0  2  0  0  0  0  0  0
  161.5100  203.1090  147.8110 C   0  0  0  0  0  2  0  0  0  0  0  0
  161.4530  207.8750  151.0950 C   0  0  1  0  0  3  0  0  0  0  0  0
  160.7060  207.9430  154.8380 C   0  0  0  0  0  2  0  0  0  0  0  0
  160.8990  204.3100  148.5330 C   0  0  1  0  0  3  0  0  0  0  0  0
  161.7580  203.2070  145.3000 C   0  0  0  0  0  2  0  0  0  0  0  0
  162.1880  209.5370  153.5520 C   0  0  2  0  0  3  0  0  0  0  0  0
  161.0780  205.3430  150.8480 C   0  0  0  0  0  0  0  0  0  0  0  0
  160.4780  206.2490  146.9830 C   0  0  0  0  0  2  0  0  0  0  0  0
  161.0740  206.7040  150.1720 C   0  0  2  0  0  3  0  0  0  0  0  0
  160.9230  202.8110  152.0480 C   0  0  0  0  0  3  0  0  0  0  0  0
  161.3510  210.4420  151.3030 C   0  0  0  0  0  2  0  0  0  0  0  0
  160.8840  202.9320  150.6590 C   0  0  0  0  0  3  0  0  0  0  0  0
  161.0370  209.2050  150.4520 C   0  0  0  0  0  2  0  0  0  0  0  0
  160.8670  208.7320  153.5330 C   0  0  1  0  0  3  0  0  0  0  0  0
  161.0520  203.9480  152.8450 C   0  0  0  0  0  3  0  0  0  0  0  0
  161.3790  206.4360  153.0960 C   0  0  2  0  0  3  0  0  0  0  0  0
  162.1390  210.5860  154.6540 C   0  0  0  0  0  2  0  0  0  0  0  0
  160.8370  211.3680  154.5850 C   0  0  0  0  0  2  0  0  0  0  0  0
  158.5010  213.0590  156.2960 C   0  0  0  0  0  3  0  0  0  0  0  0
  159.3500  210.9250  156.5470 C   0  0  0  0  0  2  0  0  0  0  0  0
  160.4320  211.8400  155.9700 C   0  0  2  0  0  3  0  0  0  0  0  0
  158.2260  211.7680  156.7050 O   0  0  0  0  0  0  0  0  0  0  0  0
  159.7430  213.1590  155.8660 C   0  0  0  0  0  3  0  0  0  0  0  0
  1 26  1  0  0  0  0
  1 27  1  0  0  0  0
  2 14  1  0  0  0  0
  4 23  2  0  0  0  0
  4 18  1  0  0  0  0
  5 19  1  1  0  0  0
  5 15  1  0  0  0  0
  5 11  1  0  0  0  0
  6 19  1  0  0  0  0
  7  3  1  0  0  0  0
  7  6  1  0  0  0  0
  8 12  1  0  0  0  0
  9 27  1  0  0  0  0
  9 25  1  0  0  0  0
 10 17  1  0  0  0  0
 11 20  1  0  0  0  0
 12 15  1  0  0  0  0
 13  9  1  0  0  0  0
 15  4  1  0  0  0  0
 16  3  1  0  0  0  0
 16  8  1  0  0  0  0
 17 28  1  0  0  0  0
 18  1  2  0  0  0  0
 20 18  1  0  0  0  0
 20 13  1  0  0  0  0
 21 26  2  0  0  0  0
 22 10  1  0  0  0  0
 23 21  1  0  0  0  0
 24 13  1  0  0  0  0
 24 22  1  0  0  0  0
 25 17  1  0  0  0  0
 25 14  1  0  0  0  0
 27  2  1  0  0  0  0
 29 28  1  0  0  0  0
 29 32  1  0  0  0  0
 30 33  1  0  0  0  0
 31 33  1  0  0  0  0
 32 31  1  0  0  0  0
 34 32  1  0  0  0  0
 34 30  2  0  0  0  0
M  END
>  <MODEL>
2

>  <REMARK>
 VINA RESULT:      -9.4      1.747      3.995
  Name = 
  3 active torsions:
  status: ('A' for Active; 'I' for Inactive)
    1  A    between atoms: C_17  and  C_28
    2  A    between atoms: C_28  and  C_29
    3  A    between atoms: C_29  and  C_32
                            x       y       z     vdW  Elec       q    Type
                         _______ _______ _______ _____ _____    ______ ____

>  <TORSDO>
F 3

$$$$
=
 OpenBabel11122414293D

 34 40  0  0  1  0  0  0  0  0999 V2000
  161.6420  208.3680  149.8700 C   0  0  0  0  0  0  0  0  0  0  0  0
  161.3740  207.2770  147.5600 C   0  0  0  0  0  2  0  0  0  0  0  0
  161.8460  208.6910  156.8680 O   0  0  0  0  0  0  0  0  0  0  0  0
  161.4460  209.3750  152.0910 C   0  0  0  0  0  0  0  0  0  0  0  0
  161.1890  207.8520  154.1660 C   0  0  1  0  0  3  0  0  0  0  0  0
  160.2540  206.9880  156.3180 C   0  0  0  0  0  2  0  0  0  0  0  0
  160.6290  208.1260  157.2600 C   0  0  0  0  0  2  0  0  0  0  0  0
  161.0480  210.6330  155.6560 C   0  0  0  0  0  2  0  0  0  0  0  0
  160.7300  206.1080  149.5060 C   0  0  2  0  0  3  0  0  0  0  0  0
  161.6860  203.1560  149.8760 C   0  0  0  0  0  2  0  0  0  0  0  0
  161.5660  206.7320  153.1920 C   0  0  0  0  0  2  0  0  0  0  0  0
  161.8650  210.2580  154.4280 C   0  0  0  0  0  2  0  0  0  0  0  0
  161.0810  205.7070  150.9380 C   0  0  1  0  0  3  0  0  0  0  0  0
  160.9600  205.8710  147.1260 C   0  0  0  0  0  2  0  0  0  0  0  0
  161.0830  209.2710  153.5610 C   0  0  1  0  0  3  0  0  0  0  0  0
  161.6670  210.0790  156.9390 C   0  0  0  0  0  2  0  0  0  0  0  0
  161.7380  203.9270  148.5420 C   0  0  2  0  0  3  0  0  0  0  0  0
  161.3550  208.2460  151.2520 C   0  0  0  0  0  0  0  0  0  0  0  0
  159.9180  207.5070  154.9260 C   0  0  0  0  0  2  0  0  0  0  0  0
  160.8810  206.9310  151.8490 C   0  0  2  0  0  3  0  0  0  0  0  0
  162.0730  210.7340  150.1720 C   0  0  0  0  0  3  0  0  0  0  0  0
  160.3380  203.2650  150.5870 C   0  0  0  0  0  2  0  0  0  0  0  0
  161.7780  210.6180  151.5300 C   0  0  0  0  0  3  0  0  0  0  0  0
  160.2290  204.5350  151.4410 C   0  0  0  0  0  2  0  0  0  0  0  0
  160.6930  205.0580  148.3980 C   0  0  1  0  0  3  0  0  0  0  0  0
  162.0240  209.6100  149.3480 C   0  0  0  0  0  3  0  0  0  0  0  0
  161.7170  207.1280  149.0240 C   0  0  2  0  0  3  0  0  0  0  0  0
  161.5920  202.9380  147.3940 C   0  0  0  0  0  2  0  0  0  0  0  0
  161.6140  201.5120  147.9160 C   0  0  0  0  0  2  0  0  0  0  0  0
  160.0840  200.9950  144.9770 C   0  0  0  0  0  3  0  0  0  0  0  0
  161.2240  199.5680  146.3920 C   0  0  0  0  0  2  0  0  0  0  0  0
  160.5600  200.6760  147.2110 C   0  0  2  0  0  3  0  0  0  0  0  0
  160.8670  199.8600  145.0540 O   0  0  0  0  0  0  0  0  0  0  0  0
  159.8770  201.5040  146.1750 C   0  0  0  0  0  3  0  0  0  0  0  0
  1 18  1  0  0  0  0
  2 27  1  0  0  0  0
  3 16  1  0  0  0  0
  3  7  1  0  0  0  0
  4 15  1  0  0  0  0
  5 11  1  6  0  0  0
  5 19  1  0  0  0  0
  6  7  1  0  0  0  0
  8 16  1  0  0  0  0
  9 13  1  0  0  0  0
 10 22  1  0  0  0  0
 12  8  1  0  0  0  0
 13 24  1  0  0  0  0
 13 20  1  0  0  0  0
 14  2  1  0  0  0  0
 14 25  1  0  0  0  0
 15  5  1  0  0  0  0
 15 12  1  0  0  0  0
 17 10  1  0  0  0  0
 18 20  1  0  0  0  0
 18  4  2  0  0  0  0
 19  6  1  0  0  0  0
 20 11  1  0  0  0  0
 21 23  2  0  0  0  0
 22 24  1  0  0  0  0
 23  4  1  0  0  0  0
 25 17  1  0  0  0  0
 25  9  1  0  0  0  0
 26  1  2  0  0  0  0
 26 21  1  0  0  0  0
 27  9  1  0  0  0  0
 27  1  1  0  0  0  0
 28 29  1  0  0  0  0
 28 17  1  0  0  0  0
 30 33  1  0  0  0  0
 30 34  2  0  0  0  0
 31 32  1  0  0  0  0
 32 29  1  0  0  0  0
 33 31  1  0  0  0  0
 34 32  1  0  0  0  0
M  END
>  <MODEL>
3

>  <REMARK>
 VINA RESULT:      -8.8      2.294      8.702
  Name = 
  3 active torsions:
  status: ('A' for Active; 'I' for Inactive)
    1  A    between atoms: C_17  and  C_28
    2  A    between atoms: C_28  and  C_29
    3  A    between atoms: C_29  and  C_32
                            x       y       z     vdW  Elec       q    Type
                         _______ _______ _______ _____ _____    ______ ____

>  <TORSDO>
F 3

$$$$
=
 OpenBabel11122414293D

 34 40  0  0  1  0  0  0  0  0999 V2000
  160.7160  207.3670  154.1930 C   0  0  0  0  0  0  0  0  0  0  0  0
  162.0350  205.5040  153.0150 C   0  0  0  0  0  2  0  0  0  0  0  0
  157.4340  213.5250  154.8470 O   0  0  0  0  0  0  0  0  0  0  0  0
  159.8570  209.3590  155.3230 C   0  0  0  0  0  0  0  0  0  0  0  0
  159.2610  211.4590  153.9350 C   0  0  1  0  0  3  0  0  0  0  0  0
  159.2000  213.8670  153.2660 C   0  0  0  0  0  2  0  0  0  0  0  0
  158.3850  214.4530  154.4120 C   0  0  0  0  0  2  0  0  0  0  0  0
  158.5720  212.6220  156.7890 C   0  0  0  0  0  2  0  0  0  0  0  0
  161.8230  207.6270  152.0070 C   0  0  2  0  0  3  0  0  0  0  0  0
  160.9720  207.7900  149.0050 C   0  0  0  0  0  2  0  0  0  0  0  0
  159.4150  210.5150  152.7390 C   0  0  0  0  0  2  0  0  0  0  0  0
  158.4020  211.1980  156.2820 C   0  0  0  0  0  2  0  0  0  0  0  0
  160.9010  208.7910  151.6490 C   0  0  1  0  0  3  0  0  0  0  0  0
  162.6780  205.4130  151.6320 C   0  0  0  0  0  2  0  0  0  0  0  0
  159.5400  210.8430  155.3260 C   0  0  1  0  0  3  0  0  0  0  0  0
  157.4840  213.5500  156.2470 C   0  0  0  0  0  2  0  0  0  0  0  0
  161.4690  206.5060  149.7000 C   0  0  2  0  0  3  0  0  0  0  0  0
  160.3720  208.7410  154.1660 C   0  0  0  0  0  0  0  0  0  0  0  0
  160.0850  212.7220  153.7420 C   0  0  0  0  0  2  0  0  0  0  0  0
  160.6090  209.5930  152.9300 C   0  0  2  0  0  3  0  0  0  0  0  0
  160.0620  207.2520  156.5240 C   0  0  0  0  0  3  0  0  0  0  0  0
  161.8610  209.0040  149.2670 C   0  0  0  0  0  2  0  0  0  0  0  0
  159.7340  208.6080  156.5030 C   0  0  0  0  0  3  0  0  0  0  0  0
  161.5100  209.7110  150.5830 C   0  0  0  0  0  2  0  0  0  0  0  0
  162.4040  206.7380  150.9100 C   0  0  1  0  0  3  0  0  0  0  0  0
  160.5330  206.6290  155.3690 C   0  0  0  0  0  3  0  0  0  0  0  0
  161.0930  206.6800  152.9110 C   0  0  2  0  0  3  0  0  0  0  0  0
  162.1620  205.6230  148.6710 C   0  0  0  0  0  2  0  0  0  0  0  0
  161.1840  204.6160  148.0910 C   0  0  0  0  0  2  0  0  0  0  0  0
  160.0480  201.7340  149.3750 C   0  0  0  0  0  3  0  0  0  0  0  0
  161.1540  202.2120  147.4040 C   0  0  0  0  0  2  0  0  0  0  0  0
  161.5850  203.2050  148.4840 C   0  0  2  0  0  3  0  0  0  0  0  0
  160.2240  201.3670  148.0550 O   0  0  0  0  0  0  0  0  0  0  0  0
  160.7970  202.7760  149.6760 C   0  0  0  0  0  3  0  0  0  0  0  0
  1 26  1  0  0  0  0
  3 16  1  0  0  0  0
  4 15  1  0  0  0  0
  4 23  2  0  0  0  0
  5 11  1  6  0  0  0
  5 15  1  0  0  0  0
  6 19  1  0  0  0  0
  6  7  1  0  0  0  0
  7  3  1  0  0  0  0
  9 27  1  0  0  0  0
 10 22  1  0  0  0  0
 10 17  1  0  0  0  0
 11 20  1  0  0  0  0
 12  8  1  0  0  0  0
 13  9  1  0  0  0  0
 13 20  1  0  0  0  0
 14  2  1  0  0  0  0
 15 12  1  0  0  0  0
 16  8  1  0  0  0  0
 17 25  1  0  0  0  0
 18  1  2  0  0  0  0
 18  4  1  0  0  0  0
 19  5  1  0  0  0  0
 20 18  1  0  0  0  0
 22 24  1  0  0  0  0
 23 21  1  0  0  0  0
 24 13  1  0  0  0  0
 25 14  1  0  0  0  0
 25  9  1  0  0  0  0
 26 21  2  0  0  0  0
 27  2  1  0  0  0  0
 27  1  1  0  0  0  0
 28 17  1  0  0  0  0
 29 32  1  0  0  0  0
 29 28  1  0  0  0  0
 30 34  2  0  0  0  0
 31 33  1  0  0  0  0
 31 32  1  0  0  0  0
 32 34  1  0  0  0  0
 33 30  1  0  0  0  0
M  END
>  <MODEL>
4

>  <REMARK>
 VINA RESULT:      -8.1      1.272      9.007
  Name = 
  3 active torsions:
  status: ('A' for Active; 'I' for Inactive)
    1  A    between atoms: C_17  and  C_28
    2  A    between atoms: C_28  and  C_29
    3  A    between atoms: C_29  and  C_32
                            x       y       z     vdW  Elec       q    Type
                         _______ _______ _______ _____ _____    ______ ____

>  <TORSDO>
F 3

$$$$
=
 OpenBabel11122414293D

 34 40  0  0  1  0  0  0  0  0999 V2000
  160.6780  207.3840  154.2960 C   0  0  0  0  0  0  0  0  0  0  0  0
  161.9440  205.3400  153.3940 C   0  0  0  0  0  2  0  0  0  0  0  0
  157.4860  213.6190  154.0550 O   0  0  0  0  0  0  0  0  0  0  0  0
  159.8710  209.5410  155.1200 C   0  0  0  0  0  0  0  0  0  0  0  0
  159.2650  211.4080  153.4350 C   0  0  1  0  0  3  0  0  0  0  0  0
  159.2150  213.6830  152.3980 C   0  0  0  0  0  2  0  0  0  0  0  0
  158.4370  214.4530  153.4570 C   0  0  0  0  0  2  0  0  0  0  0  0
  158.6630  213.0140  156.0860 C   0  0  0  0  0  2  0  0  0  0  0  0
  161.7310  207.2820  152.0700 C   0  0  2  0  0  3  0  0  0  0  0  0
  160.8050  206.9870  149.1010 C   0  0  0  0  0  2  0  0  0  0  0  0
  159.3770  210.2860  152.3980 C   0  0  0  0  0  2  0  0  0  0  0  0
  158.4640  211.5300  155.8140 C   0  0  0  0  0  2  0  0  0  0  0  0
  160.8140  208.3900  151.5570 C   0  0  1  0  0  3  0  0  0  0  0  0
  162.5500  205.0230  152.0270 C   0  0  0  0  0  2  0  0  0  0  0  0
  159.5730  211.0130  154.8980 C   0  0  1  0  0  3  0  0  0  0  0  0
  157.5730  213.8620  155.4320 C   0  0  0  0  0  2  0  0  0  0  0  0
  161.3040  205.8200  149.9770 C   0  0  2  0  0  3  0  0  0  0  0  0
  160.3490  208.7420  154.0620 C   0  0  0  0  0  0  0  0  0  0  0  0
  160.0980  212.6120  153.0260 C   0  0  0  0  0  2  0  0  0  0  0  0
  160.5640  209.3860  152.7030 C   0  0  2  0  0  3  0  0  0  0  0  0
  160.0820  207.6450  156.6310 C   0  0  0  0  0  3  0  0  0  0  0  0
  161.7140  208.2130  149.1490 C   0  0  0  0  0  2  0  0  0  0  0  0
  159.7710  208.9860  156.4050 C   0  0  0  0  0  3  0  0  0  0  0  0
  161.4060  209.1220  150.3450 C   0  0  0  0  0  2  0  0  0  0  0  0
  162.2730  206.2230  151.1130 C   0  0  1  0  0  3  0  0  0  0  0  0
  160.5160  206.8420  155.5770 C   0  0  0  0  0  3  0  0  0  0  0  0
  161.0130  206.4990  153.1290 C   0  0  2  0  0  3  0  0  0  0  0  0
  161.9600  204.7760  149.0830 C   0  0  0  0  0  2  0  0  0  0  0  0
  161.1000  204.5080  147.8600 C   0  0  0  0  0  2  0  0  0  0  0  0
  161.0780  204.6540  144.5100 C   0  0  0  0  0  3  0  0  0  0  0  0
  162.3340  205.7750  146.0920 C   0  0  0  0  0  2  0  0  0  0  0  0
  161.9680  204.3870  146.6210 C   0  0  2  0  0  3  0  0  0  0  0  0
  161.7450  205.8270  144.8070 O   0  0  0  0  0  0  0  0  0  0  0  0
  161.1700  203.7970  145.5070 C   0  0  0  0  0  3  0  0  0  0  0  0
  1 26  1  0  0  0  0
  3 16  1  0  0  0  0
  4 23  2  0  0  0  0
  5 11  1  6  0  0  0
  5 15  1  0  0  0  0
  6 19  1  0  0  0  0
  6  7  1  0  0  0  0
  7  3  1  0  0  0  0
  9 27  1  0  0  0  0
 10 22  1  0  0  0  0
 10 17  1  0  0  0  0
 11 20  1  0  0  0  0
 12  8  1  0  0  0  0
 13  9  1  0  0  0  0
 13 20  1  0  0  0  0
 14  2  1  0  0  0  0
 15  4  1  0  0  0  0
 15 12  1  0  0  0  0
 16  8  1  0  0  0  0
 17 25  1  0  0  0  0
 18  1  2  0  0  0  0
 18  4  1  0  0  0  0
 19  5  1  0  0  0  0
 20 18  1  0  0  0  0
 22 24  1  0  0  0  0
 23 21  1  0  0  0  0
 24 13  1  0  0  0  0
 25 14  1  0  0  0  0
 25  9  1  0  0  0  0
 26 21  2  0  0  0  0
 27  2  1  0  0  0  0
 27  1  1  0  0  0  0
 28 17  1  0  0  0  0
 29 28  1  0  0  0  0
 30 33  1  0  0  0  0
 30 34  2  0  0  0  0
 31 32  1  0  0  0  0
 32 29  1  0  0  0  0
 33 31  1  0  0  0  0
 34 32  1  0  0  0  0
M  END
>  <MODEL>
5

>  <REMARK>
 VINA RESULT:      -8.1      1.858      9.007
  Name = 
  3 active torsions:
  status: ('A' for Active; 'I' for Inactive)
    1  A    between atoms: C_17  and  C_28
    2  A    between atoms: C_28  and  C_29
    3  A    between atoms: C_29  and  C_32
                            x       y       z     vdW  Elec       q    Type
                         _______ _______ _______ _____ _____    ______ ____

>  <TORSDO>
F 3

$$$$
=
 OpenBabel11122414293D

 34 40  0  0  1  0  0  0  0  0999 V2000
  161.6290  208.0920  149.8730 C   0  0  0  0  0  0  0  0  0  0  0  0
  161.9320  210.3050  151.1430 C   0  0  0  0  0  2  0  0  0  0  0  0
  160.0200  201.3280  148.9920 O   0  0  0  0  0  0  0  0  0  0  0  0
  161.7220  205.8600  148.8770 C   0  0  0  0  0  0  0  0  0  0  0  0
  160.8580  203.8250  150.2180 C   0  0  1  0  0  3  0  0  0  0  0  0
  160.8460  201.5380  151.2310 C   0  0  0  0  0  2  0  0  0  0  0  0
  160.7740  200.6790  149.9740 C   0  0  0  0  0  2  0  0  0  0  0  0
  161.7970  202.2680  147.6360 C   0  0  0  0  0  2  0  0  0  0  0  0
  161.5840  208.2950  152.3290 C   0  0  2  0  0  3  0  0  0  0  0  0
  159.4390  208.2390  154.6000 C   0  0  0  0  0  2  0  0  0  0  0  0
  160.2800  204.8900  151.1540 C   0  0  0  0  0  2  0  0  0  0  0  0
  161.1950  203.6620  147.7330 C   0  0  0  0  0  2  0  0  0  0  0  0
  160.7890  206.9960  152.4480 C   0  0  1  0  0  3  0  0  0  0  0  0
  161.8140  210.6690  152.6220 C   0  0  0  0  0  2  0  0  0  0  0  0
  161.6720  204.3500  149.0130 C   0  0  1  0  0  3  0  0  0  0  0  0
  160.7350  201.1800  147.7960 C   0  0  0  0  0  2  0  0  0  0  0  0
  160.0090  209.5270  153.9740 C   0  0  2  0  0  3  0  0  0  0  0  0
  161.5240  206.6850  150.0020 C   0  0  0  0  0  0  0  0  0  0  0  0
  161.6680  202.7990  150.9950 C   0  0  0  0  0  2  0  0  0  0  0  0
  161.2670  206.0300  151.3490 C   0  0  2  0  0  3  0  0  0  0  0  0
  162.1580  207.8350  147.5220 C   0  0  0  0  0  3  0  0  0  0  0  0
  160.5150  207.2310  154.9990 C   0  0  0  0  0  2  0  0  0  0  0  0
  162.0670  206.4480  147.6500 C   0  0  0  0  0  3  0  0  0  0  0  0
  160.9450  206.3410  153.8260 C   0  0  0  0  0  2  0  0  0  0  0  0
  161.4310  209.3920  153.3800 C   0  0  1  0  0  3  0  0  0  0  0  0
  161.9210  208.6550  148.6250 C   0  0  0  0  0  3  0  0  0  0  0  0
  161.2410  208.9660  151.0330 C   0  0  2  0  0  3  0  0  0  0  0  0
  159.9860  210.6360  155.0160 C   0  0  0  0  0  2  0  0  0  0  0  0
  159.8790  210.0490  156.4140 C   0  0  0  0  0  2  0  0  0  0  0  0
  163.2170  209.8920  156.6870 C   0  0  0  0  0  3  0  0  0  0  0  0
  161.7600  211.6840  156.6210 C   0  0  0  0  0  2  0  0  0  0  0  0
  161.0620  210.4820  157.2600 C   0  0  2  0  0  3  0  0  0  0  0  0
  163.0590  211.2130  156.3150 O   0  0  0  0  0  0  0  0  0  0  0  0
  162.1120  209.4220  157.2300 C   0  0  0  0  0  3  0  0  0  0  0  0
  1 18  1  0  0  0  0
  1 27  1  0  0  0  0
  2 14  1  0  0  0  0
  3  7  1  0  0  0  0
  4 15  1  0  0  0  0
  4 18  2  0  0  0  0
  5 19  1  1  0  0  0
  5 11  1  0  0  0  0
  7  6  1  0  0  0  0
  8 12  1  0  0  0  0
  8 16  1  0  0  0  0
  9 13  1  0  0  0  0
  9 25  1  0  0  0  0
 10 22  1  0  0  0  0
 11 20  1  0  0  0  0
 12 15  1  0  0  0  0
 13 24  1  0  0  0  0
 14 25  1  0  0  0  0
 15  5  1  0  0  0  0
 16  3  1  0  0  0  0
 17 10  1  0  0  0  0
 17 28  1  0  0  0  0
 18 20  1  0  0  0  0
 19  6  1  0  0  0  0
 20 13  1  0  0  0  0
 21 23  2  0  0  0  0
 21 26  1  0  0  0  0
 23  4  1  0  0  0  0
 24 22  1  0  0  0  0
 25 17  1  0  0  0  0
 26  1  2  0  0  0  0
 27  2  1  0  0  0  0
 27  9  1  0  0  0  0
 28 29  1  0  0  0  0
 29 32  1  0  0  0  0
 30 34  2  0  0  0  0
 31 32  1  0  0  0  0
 33 31  1  0  0  0  0
 33 30  1  0  0  0  0
 34 32  1  0  0  0  0
M  END
>  <MODEL>
6

>  <REMARK>
 VINA RESULT:      -7.2      1.795      2.497
  Name = 
  3 active torsions:
  status: ('A' for Active; 'I' for Inactive)
    1  A    between atoms: C_17  and  C_28
    2  A    between atoms: C_28  and  C_29
    3  A    between atoms: C_29  and  C_32
                            x       y       z     vdW  Elec       q    Type
                         _______ _______ _______ _____ _____    ______ ____

>  <TORSDO>
F 3

$$$$
