=
 OpenBabel11122413273D

 31 35  0  0  1  0  0  0  0  0999 V2000
  162.1560  207.2070  137.9360 C   0  0  0  0  0  0  0  0  0  0  0  0
  161.5680  210.9610  137.9700 C   0  0  2  0  0  3  0  0  0  0  0  0
  160.1080  211.3590  137.8810 C   0  0  0  0  0  0  0  0  0  0  0  0
  157.7920  210.8410  137.4150 C   0  0  0  0  0  0  0  0  0  0  0  0
  161.7790  209.5470  138.4300 C   0  0  0  0  0  0  0  0  0  0  0  0
  162.1760  206.9200  139.3040 C   0  0  0  0  0  3  0  0  0  0  0  0
  159.1200  210.4280  137.5320 C   0  0  0  0  0  3  0  0  0  0  0  0
  162.2250  211.6850  140.4010 C   0  0  1  0  0  3  0  0  0  0  0  0
  162.3330  206.1870  137.0110 O   0  0  0  0  0  1  0  0  0  0  0  0
  160.7250  213.6910  138.3930 N   0  0  0  0  0  2  0  0  0  0  0  0
  156.8320  209.9440  137.0910 F   0  0  0  0  0  0  0  0  0  0  0  0
  161.5600  210.3520  140.7920 C   0  0  0  0  0  2  0  0  0  0  0  0
  162.3700  211.9260  138.8660 C   0  0  2  0  0  3  0  0  0  0  0  0
  161.9560  208.5190  137.4970 C   0  0  0  0  0  3  0  0  0  0  0  0
  157.4610  212.1440  137.6220 N   0  0  0  0  0  0  0  0  0  0  0  0
  161.8120  209.2610  139.8030 C   0  0  0  0  0  0  0  0  0  0  0  0
  161.9990  207.9460  140.2380 C   0  0  0  0  0  3  0  0  0  0  0  0
  162.1510  213.3750  138.4140 C   0  0  0  0  0  2  0  0  0  0  0  0
  159.7410  212.7070  138.0570 C   0  0  0  0  0  0  0  0  0  0  0  0
  158.4000  213.0760  137.9370 C   0  0  0  0  0  3  0  0  0  0  0  0
  162.6620  212.5870  143.0960 O   0  0  0  0  0  0  0  0  0  0  0  0
  161.7730  213.1680  142.4180 C   0  0  0  0  0  0  0  0  0  0  0  0
  161.5270  212.7810  141.0630 N   0  0  0  0  0  2  0  0  0  0  0  0
  158.9800  213.1470  144.8670 C   0  0  0  0  0  0  0  0  0  0  0  0
  161.1720  214.3020  144.5640 C   0  0  0  0  0  2  0  0  0  0  0  0
  159.0700  214.4530  141.5970 O   0  0  0  0  0  0  0  0  0  0  0  0
  157.9790  212.5820  145.8080 C   0  0  0  0  0  1  0  0  0  0  0  0
  160.4280  213.1660  145.2670 C   0  0  0  0  0  2  0  0  0  0  0  0
  159.5010  214.1030  142.7270 C   0  0  0  0  0  0  0  0  0  0  0  0
  160.9600  214.2550  143.0490 C   0  0  2  0  0  3  0  0  0  0  0  0
  158.5960  213.5480  143.6910 N   0  0  0  0  0  0  0  0  0  0  0  0
  1  6  1  0  0  0  0
  2  3  1  1  0  0  0
  2  5  1  0  0  0  0
  2 13  1  0  0  0  0
  3 19  1  0  0  0  0
  4  7  1  0  0  0  0
  4 15  2  0  0  0  0
  5 16  2  0  0  0  0
  6 17  2  0  0  0  0
  7  3  2  0  0  0  0
  8 12  1  0  0  0  0
  8 23  1  6  0  0  0
  9  1  1  0  0  0  0
 10 18  1  0  0  0  0
 11  4  1  0  0  0  0
 13 18  1  1  0  0  0
 13  8  1  0  0  0  0
 14  1  2  0  0  0  0
 14  5  1  0  0  0  0
 15 20  1  0  0  0  0
 16 17  1  0  0  0  0
 16 12  1  0  0  0  0
 19 10  1  0  0  0  0
 20 19  2  0  0  0  0
 22 21  2  0  0  0  0
 23 22  1  0  0  0  0
 24 28  1  0  0  0  0
 24 27  1  0  0  0  0
 25 28  1  0  0  0  0
 26 29  2  0  0  0  0
 29 30  1  0  0  0  0
 29 31  1  0  0  0  0
 30 22  1  1  0  0  0
 30 25  1  0  0  0  0
 31 24  2  0  0  0  0
M  END
>  <MODEL>
1

>  <REMARK>
 VINA RESULT:      -5.5      0.000      0.000
  Name = 
  2 active torsions:
  status: ('A' for Active; 'I' for Inactive)
    1  A    between atoms: C_5  and  C_30
    2  A    between atoms: C_10  and  N_16
                            x       y       z     vdW  Elec       q    Type
                         _______ _______ _______ _____ _____    ______ ____

>  <TORSDO>
F 2

$$$$
=
 OpenBabel11122413273D

 31 35  0  0  1  0  0  0  0  0999 V2000
  161.1820  201.2160  148.6300 C   0  0  0  0  0  0  0  0  0  0  0  0
  162.2530  204.7080  149.6790 C   0  0  2  0  0  3  0  0  0  0  0  0
  161.7030  205.8140  148.8000 C   0  0  0  0  0  0  0  0  0  0  0  0
  160.6480  206.5780  146.7630 C   0  0  0  0  0  0  0  0  0  0  0  0
  161.4820  203.4220  149.5810 C   0  0  0  0  0  0  0  0  0  0  0  0
  160.0390  201.0320  149.4160 C   0  0  0  0  0  3  0  0  0  0  0  0
  161.1020  205.5310  147.5660 C   0  0  0  0  0  3  0  0  0  0  0  0
  161.0120  205.0970  151.9540 C   0  0  1  0  0  3  0  0  0  0  0  0
  161.5990  200.2120  147.7680 O   0  0  0  0  0  1  0  0  0  0  0  0
  162.5090  207.4880  150.4210 N   0  0  0  0  0  2  0  0  0  0  0  0
  160.0550  206.3100  145.5750 F   0  0  0  0  0  0  0  0  0  0  0  0
  159.8650  204.3410  151.2590 C   0  0  0  0  0  2  0  0  0  0  0  0
  162.3520  205.1460  151.1540 C   0  0  2  0  0  3  0  0  0  0  0  0
  161.9030  202.4110  148.7110 C   0  0  0  0  0  3  0  0  0  0  0  0
  160.8040  207.8670  147.1680 N   0  0  0  0  0  0  0  0  0  0  0  0
  160.3440  203.2330  150.3780 C   0  0  0  0  0  0  0  0  0  0  0  0
  159.6170  202.0420  150.2860 C   0  0  0  0  0  3  0  0  0  0  0  0
  163.1240  206.4660  151.2640 C   0  0  0  0  0  2  0  0  0  0  0  0
  161.8800  207.1580  149.1790 C   0  0  0  0  0  0  0  0  0  0  0  0
  161.4060  208.1750  148.3470 C   0  0  0  0  0  3  0  0  0  0  0  0
  161.6330  206.4770  154.3990 O   0  0  0  0  0  0  0  0  0  0  0  0
  160.8740  207.0540  153.5740 C   0  0  0  0  0  0  0  0  0  0  0  0
  160.5500  206.4290  152.3290 N   0  0  0  0  0  2  0  0  0  0  0  0
  162.2510  210.0370  155.3060 C   0  0  0  0  0  0  0  0  0  0  0  0
  161.0360  209.5190  153.1880 C   0  0  0  0  0  2  0  0  0  0  0  0
  159.4380  208.0830  156.1250 O   0  0  0  0  0  0  0  0  0  0  0  0
  163.2540  210.8830  156.0030 C   0  0  0  0  0  1  0  0  0  0  0  0
  162.3950  209.8000  153.8300 C   0  0  0  0  0  2  0  0  0  0  0  0
  160.3080  208.6290  155.3990 C   0  0  0  0  0  0  0  0  0  0  0  0
  160.2980  208.3920  153.9160 C   0  0  2  0  0  3  0  0  0  0  0  0
  161.3110  209.4620  155.9970 N   0  0  0  0  0  0  0  0  0  0  0  0
  1 14  2  0  0  0  0
  1  6  1  0  0  0  0
  2  3  1  6  0  0  0
  2 13  1  0  0  0  0
  3 19  1  0  0  0  0
  4 15  2  0  0  0  0
  4  7  1  0  0  0  0
  5  2  1  0  0  0  0
  5 16  2  0  0  0  0
  6 17  2  0  0  0  0
  7  3  2  0  0  0  0
  8 23  1  6  0  0  0
  9  1  1  0  0  0  0
 10 18  1  0  0  0  0
 11  4  1  0  0  0  0
 12  8  1  0  0  0  0
 13 18  1  6  0  0  0
 13  8  1  0  0  0  0
 14  5  1  0  0  0  0
 15 20  1  0  0  0  0
 16 12  1  0  0  0  0
 17 16  1  0  0  0  0
 19 10  1  0  0  0  0
 20 19  2  0  0  0  0
 22 21  2  0  0  0  0
 23 22  1  0  0  0  0
 24 31  2  0  0  0  0
 24 27  1  0  0  0  0
 25 28  1  0  0  0  0
 25 30  1  0  0  0  0
 28 24  1  0  0  0  0
 29 31  1  0  0  0  0
 29 26  2  0  0  0  0
 30 22  1  1  0  0  0
 30 29  1  0  0  0  0
M  END
>  <MODEL>
2

>  <REMARK>
 VINA RESULT:      -3.9     10.210     12.433
  Name = 
  2 active torsions:
  status: ('A' for Active; 'I' for Inactive)
    1  A    between atoms: C_5  and  C_30
    2  A    between atoms: C_10  and  N_16
                            x       y       z     vdW  Elec       q    Type
                         _______ _______ _______ _____ _____    ______ ____

>  <TORSDO>
F 2

$$$$
=
 OpenBabel11122413273D

 31 35  0  0  1  0  0  0  0  0999 V2000
  156.2480  211.9040  156.1200 C   0  0  0  0  0  0  0  0  0  0  0  0
  159.8790  210.8160  155.8390 C   0  0  2  0  0  3  0  0  0  0  0  0
  160.0720  209.3130  155.7930 C   0  0  0  0  0  0  0  0  0  0  0  0
  159.2560  207.0580  156.1060 C   0  0  0  0  0  0  0  0  0  0  0  0
  158.4890  211.2550  155.4730 C   0  0  0  0  0  0  0  0  0  0  0  0
  155.9090  212.0780  154.7740 C   0  0  0  0  0  3  0  0  0  0  0  0
  159.0280  208.4350  156.1150 C   0  0  0  0  0  3  0  0  0  0  0  0
  160.5840  211.5700  153.4300 C   0  0  1  0  0  3  0  0  0  0  0  0
  155.3040  212.1400  157.1090 O   0  0  0  0  0  1  0  0  0  0  0  0
  162.4440  209.6480  155.2060 N   0  0  0  0  0  2  0  0  0  0  0  0
  158.2480  206.2050  156.4040 F   0  0  0  0  0  0  0  0  0  0  0  0
  159.1550  211.1280  153.0610 C   0  0  0  0  0  2  0  0  0  0  0  0
  160.9070  211.5520  154.9570 C   0  0  2  0  0  3  0  0  0  0  0  0
  157.5370  211.4910  156.4700 C   0  0  0  0  0  3  0  0  0  0  0  0
  160.4890  206.5720  155.8050 N   0  0  0  0  0  0  0  0  0  0  0  0
  158.1540  211.4410  154.1240 C   0  0  0  0  0  0  0  0  0  0  0  0
  156.8600  211.8410  153.7750 C   0  0  0  0  0  3  0  0  0  0  0  0
  162.3290  211.1010  155.3130 C   0  0  0  0  0  2  0  0  0  0  0  0
  161.3470  208.7830  155.5170 C   0  0  0  0  0  0  0  0  0  0  0  0
  161.5290  207.3990  155.5140 C   0  0  0  0  0  3  0  0  0  0  0  0
  160.1230  208.9660  152.3030 O   0  0  0  0  0  0  0  0  0  0  0  0
  161.2610  209.4830  152.1430 C   0  0  0  0  0  0  0  0  0  0  0  0
  161.5420  210.7880  152.6590 N   0  0  0  0  0  2  0  0  0  0  0  0
  161.1860  207.1440  149.2590 C   0  0  0  0  0  0  0  0  0  0  0  0
  162.4580  209.1700  149.9700 C   0  0  0  0  0  2  0  0  0  0  0  0
  162.3370  206.6000  152.5430 O   0  0  0  0  0  0  0  0  0  0  0  0
  160.6060  206.3540  148.1420 C   0  0  0  0  0  1  0  0  0  0  0  0
  161.3130  208.6330  149.1110 C   0  0  0  0  0  2  0  0  0  0  0  0
  162.0680  207.2350  151.4900 C   0  0  0  0  0  0  0  0  0  0  0  0
  162.3250  208.7130  151.4250 C   0  0  2  0  0  3  0  0  0  0  0  0
  161.5060  206.5430  150.3670 N   0  0  0  0  0  0  0  0  0  0  0  0
  1 14  1  0  0  0  0
  1  9  1  0  0  0  0
  2  5  1  6  0  0  0
  3  2  1  0  0  0  0
  3  7  1  0  0  0  0
  4  7  2  0  0  0  0
  4 11  1  0  0  0  0
  5 14  2  0  0  0  0
  6  1  2  0  0  0  0
  8 23  1  6  0  0  0
  8 13  1  0  0  0  0
 10 18  1  0  0  0  0
 10 19  1  0  0  0  0
 12  8  1  0  0  0  0
 12 16  1  0  0  0  0
 13 18  1  6  0  0  0
 13  2  1  0  0  0  0
 15  4  1  0  0  0  0
 16  5  1  0  0  0  0
 17 16  2  0  0  0  0
 17  6  1  0  0  0  0
 19  3  2  0  0  0  0
 20 19  1  0  0  0  0
 20 15  2  0  0  0  0
 22 21  2  0  0  0  0
 22 23  1  0  0  0  0
 24 31  2  0  0  0  0
 25 30  1  0  0  0  0
 27 24  1  0  0  0  0
 28 24  1  0  0  0  0
 28 25  1  0  0  0  0
 29 26  2  0  0  0  0
 30 29  1  0  0  0  0
 30 22  1  6  0  0  0
 31 29  1  0  0  0  0
M  END
>  <MODEL>
3

>  <REMARK>
 VINA RESULT:      -3.7     10.900     15.434
  Name = 
  2 active torsions:
  status: ('A' for Active; 'I' for Inactive)
    1  A    between atoms: C_5  and  C_30
    2  A    between atoms: C_10  and  N_16
                            x       y       z     vdW  Elec       q    Type
                         _______ _______ _______ _____ _____    ______ ____

>  <TORSDO>
F 2

$$$$
=
 OpenBabel11122413273D

 31 35  0  0  1  0  0  0  0  0999 V2000
  156.7590  213.9090  154.6540 C   0  0  0  0  0  0  0  0  0  0  0  0
  159.5030  213.6840  152.0340 C   0  0  2  0  0  3  0  0  0  0  0  0
  160.0790  212.2930  151.8590 C   0  0  0  0  0  0  0  0  0  0  0  0
  160.3970  210.0180  152.6150 C   0  0  0  0  0  0  0  0  0  0  0  0
  158.1480  213.6970  152.6810 C   0  0  0  0  0  0  0  0  0  0  0  0
  155.6160  213.7250  153.8700 C   0  0  0  0  0  3  0  0  0  0  0  0
  159.8110  211.2740  152.7830 C   0  0  0  0  0  3  0  0  0  0  0  0
  158.2520  214.0880  149.7670 C   0  0  1  0  0  3  0  0  0  0  0  0
  156.6370  214.1050  156.0220 O   0  0  0  0  0  1  0  0  0  0  0  0
  161.2920  213.0590  149.8540 N   0  0  0  0  0  2  0  0  0  0  0  0
  160.1320  209.0260  153.4980 F   0  0  0  0  0  0  0  0  0  0  0  0
  157.1410  213.2540  150.4310 C   0  0  0  0  0  2  0  0  0  0  0  0
  159.4510  214.4530  150.6980 C   0  0  2  0  0  3  0  0  0  0  0  0
  158.0260  213.8940  154.0610 C   0  0  0  0  0  3  0  0  0  0  0  0
  161.2350  209.7900  151.5690 N   0  0  0  0  0  0  0  0  0  0  0  0
  157.0010  213.5250  151.8930 C   0  0  0  0  0  0  0  0  0  0  0  0
  155.7360  213.5270  152.4900 C   0  0  0  0  0  3  0  0  0  0  0  0
  160.8260  214.4340  150.0210 C   0  0  0  0  0  2  0  0  0  0  0  0
  160.9770  212.0380  150.8050 C   0  0  0  0  0  0  0  0  0  0  0  0
  161.5350  210.7650  150.6710 C   0  0  0  0  0  3  0  0  0  0  0  0
  157.1340  214.4490  147.1430 O   0  0  0  0  0  0  0  0  0  0  0  0
  158.0760  213.6230  147.2720 C   0  0  0  0  0  0  0  0  0  0  0  0
  158.6910  213.4190  148.5480 N   0  0  0  0  0  2  0  0  0  0  0  0
  161.0290  213.9130  145.0380 C   0  0  0  0  0  0  0  0  0  0  0  0
  159.8710  212.1400  146.3590 C   0  0  0  0  0  2  0  0  0  0  0  0
  157.6030  214.0320  144.2330 O   0  0  0  0  0  0  0  0  0  0  0  0
  162.3110  214.4520  144.5140 C   0  0  0  0  0  1  0  0  0  0  0  0
  161.0370  213.1270  146.3180 C   0  0  0  0  0  2  0  0  0  0  0  0
  158.6430  213.7100  144.8630 C   0  0  0  0  0  0  0  0  0  0  0  0
  158.5370  212.8400  146.0830 C   0  0  2  0  0  3  0  0  0  0  0  0
  159.9200  214.1900  144.4190 N   0  0  0  0  0  0  0  0  0  0  0  0
  1  9  1  0  0  0  0
  2  3  1  6  0  0  0
  2  5  1  0  0  0  0
  3  7  1  0  0  0  0
  4  7  2  0  0  0  0
  4 11  1  0  0  0  0
  5 14  2  0  0  0  0
  6  1  2  0  0  0  0
  8 23  1  6  0  0  0
  8 12  1  0  0  0  0
  8 13  1  0  0  0  0
 10 18  1  0  0  0  0
 10 19  1  0  0  0  0
 12 16  1  0  0  0  0
 13 18  1  6  0  0  0
 13  2  1  0  0  0  0
 14  1  1  0  0  0  0
 15  4  1  0  0  0  0
 16 17  2  0  0  0  0
 16  5  1  0  0  0  0
 17  6  1  0  0  0  0
 19  3  2  0  0  0  0
 20 19  1  0  0  0  0
 20 15  2  0  0  0  0
 21 22  2  0  0  0  0
 22 23  1  0  0  0  0
 24 28  1  0  0  0  0
 26 29  2  0  0  0  0
 27 24  1  0  0  0  0
 28 25  1  0  0  0  0
 29 30  1  0  0  0  0
 30 25  1  0  0  0  0
 30 22  1  1  0  0  0
 31 29  1  0  0  0  0
 31 24  2  0  0  0  0
M  END
>  <MODEL>
4

>  <REMARK>
 VINA RESULT:      -3.2      6.930     12.271
  Name = 
  2 active torsions:
  status: ('A' for Active; 'I' for Inactive)
    1  A    between atoms: C_5  and  C_30
    2  A    between atoms: C_10  and  N_16
                            x       y       z     vdW  Elec       q    Type
                         _______ _______ _______ _____ _____    ______ ____

>  <TORSDO>
F 2

$$$$
=
 OpenBabel11122413273D

 31 35  0  0  1  0  0  0  0  0999 V2000
  162.1020  205.9910  146.5110 C   0  0  0  0  0  0  0  0  0  0  0  0
  162.6130  208.2960  149.4900 C   0  0  2  0  0  3  0  0  0  0  0  0
  161.9900  209.6680  149.3240 C   0  0  0  0  0  0  0  0  0  0  0  0
  161.0030  211.3980  147.9530 C   0  0  0  0  0  0  0  0  0  0  0  0
  162.0320  207.2560  148.5750 C   0  0  0  0  0  0  0  0  0  0  0  0
  160.9380  205.3130  146.8860 C   0  0  0  0  0  3  0  0  0  0  0  0
  161.5290  210.1110  148.0770 C   0  0  0  0  0  3  0  0  0  0  0  0
  161.1600  207.2180  151.3850 C   0  0  1  0  0  3  0  0  0  0  0  0
  162.7150  205.6990  145.3010 O   0  0  0  0  0  1  0  0  0  0  0  0
  162.4380  210.1450  151.7010 N   0  0  0  0  0  2  0  0  0  0  0  0
  160.5450  211.8270  146.7540 F   0  0  0  0  0  0  0  0  0  0  0  0
  160.1810  206.9290  150.2320 C   0  0  0  0  0  2  0  0  0  0  0  0
  162.5390  207.8060  150.9500 C   0  0  2  0  0  3  0  0  0  0  0  0
  162.6490  206.9640  147.3540 C   0  0  0  0  0  3  0  0  0  0  0  0
  160.9540  212.2220  149.0330 N   0  0  0  0  0  0  0  0  0  0  0  0
  160.8710  206.5680  148.9560 C   0  0  0  0  0  0  0  0  0  0  0  0
  160.3180  205.6050  148.1060 C   0  0  0  0  0  3  0  0  0  0  0  0
  163.1180  208.8660  151.8940 C   0  0  0  0  0  2  0  0  0  0  0  0
  161.9570  210.5540  150.4170 C   0  0  0  0  0  0  0  0  0  0  0  0
  161.4170  211.8310  150.2500 C   0  0  0  0  0  3  0  0  0  0  0  0
  161.3920  206.9610  154.2390 O   0  0  0  0  0  0  0  0  0  0  0  0
  160.6330  207.8610  153.7890 C   0  0  0  0  0  0  0  0  0  0  0  0
  160.4970  208.0540  152.3780 N   0  0  0  0  0  2  0  0  0  0  0  0
  161.6470  210.2830  156.4150 C   0  0  0  0  0  0  0  0  0  0  0  0
  160.0880  210.2040  154.4680 C   0  0  0  0  0  2  0  0  0  0  0  0
  159.7030  207.3610  156.7070 O   0  0  0  0  0  0  0  0  0  0  0  0
  162.5610  211.0960  157.2600 C   0  0  0  0  0  1  0  0  0  0  0  0
  161.4570  210.6610  154.9740 C   0  0  0  0  0  2  0  0  0  0  0  0
  160.1960  208.3860  156.1690 C   0  0  0  0  0  0  0  0  0  0  0  0
  159.8590  208.7160  154.7430 C   0  0  2  0  0  3  0  0  0  0  0  0
  161.0870  209.2230  156.9190 N   0  0  0  0  0  0  0  0  0  0  0  0
  1  6  2  0  0  0  0
  1 14  1  0  0  0  0
  2  5  1  6  0  0  0
  2 13  1  0  0  0  0
  3  2  1  0  0  0  0
  3 19  1  0  0  0  0
  4  7  1  0  0  0  0
  4 15  2  0  0  0  0
  5 16  1  0  0  0  0
  6 17  1  0  0  0  0
  7  3  2  0  0  0  0
  8 23  1  1  0  0  0
  9  1  1  0  0  0  0
 10 18  1  0  0  0  0
 11  4  1  0  0  0  0
 12  8  1  0  0  0  0
 13  8  1  0  0  0  0
 13 18  1  1  0  0  0
 14  5  2  0  0  0  0
 15 20  1  0  0  0  0
 16 12  1  0  0  0  0
 17 16  2  0  0  0  0
 19 10  1  0  0  0  0
 20 19  2  0  0  0  0
 22 21  2  0  0  0  0
 23 22  1  0  0  0  0
 24 31  2  0  0  0  0
 24 27  1  0  0  0  0
 25 30  1  0  0  0  0
 25 28  1  0  0  0  0
 28 24  1  0  0  0  0
 29 26  2  0  0  0  0
 29 31  1  0  0  0  0
 30 22  1  6  0  0  0
 30 29  1  0  0  0  0
M  END
>  <MODEL>
5

>  <REMARK>
 VINA RESULT:      -3.2      8.988     11.810
  Name = 
  2 active torsions:
  status: ('A' for Active; 'I' for Inactive)
    1  A    between atoms: C_5  and  C_30
    2  A    between atoms: C_10  and  N_16
                            x       y       z     vdW  Elec       q    Type
                         _______ _______ _______ _____ _____    ______ ____

>  <TORSDO>
F 2

$$$$
=
 OpenBabel11122413273D

 31 35  0  0  1  0  0  0  0  0999 V2000
  162.5530  213.4530  146.9970 C   0  0  0  0  0  0  0  0  0  0  0  0
  160.0660  214.1080  149.7960 C   0  0  2  0  0  3  0  0  0  0  0  0
  158.6260  213.8110  149.4260 C   0  0  0  0  0  0  0  0  0  0  0  0
  156.9050  213.3710  147.7860 C   0  0  0  0  0  0  0  0  0  0  0  0
  161.0680  213.4240  148.9100 C   0  0  0  0  0  0  0  0  0  0  0  0
  162.9370  212.1370  147.2750 C   0  0  0  0  0  3  0  0  0  0  0  0
  158.2480  213.5950  148.0940 C   0  0  0  0  0  3  0  0  0  0  0  0
  160.6070  212.2590  151.5730 C   0  0  1  0  0  3  0  0  0  0  0  0
  163.0990  214.1200  145.9100 O   0  0  0  0  0  1  0  0  0  0  0  0
  157.9750  214.0850  151.7880 N   0  0  0  0  0  2  0  0  0  0  0  0
  156.5350  213.1490  146.5020 F   0  0  0  0  0  0  0  0  0  0  0  0
  160.8270  211.3740  150.3310 C   0  0  0  0  0  2  0  0  0  0  0  0
  160.3580  213.7700  151.2720 C   0  0  2  0  0  3  0  0  0  0  0  0
  161.6170  214.0970  147.8140 C   0  0  0  0  0  3  0  0  0  0  0  0
  155.9680  213.3780  148.7700 N   0  0  0  0  0  0  0  0  0  0  0  0
  161.4630  212.1080  149.1960 C   0  0  0  0  0  0  0  0  0  0  0  0
  162.3880  211.4620  148.3700 C   0  0  0  0  0  3  0  0  0  0  0  0
  159.3320  214.4520  152.1840 C   0  0  0  0  0  2  0  0  0  0  0  0
  157.6300  213.8460  150.4200 C   0  0  0  0  0  0  0  0  0  0  0  0
  156.3000  213.6100  150.0680 C   0  0  0  0  0  3  0  0  0  0  0  0
  160.7710  211.6550  154.3780 O   0  0  0  0  0  0  0  0  0  0  0  0
  159.6960  211.3810  153.7800 C   0  0  0  0  0  0  0  0  0  0  0  0
  159.5450  211.6820  152.3900 N   0  0  0  0  0  2  0  0  0  0  0  0
  157.3000  212.5940  156.3450 C   0  0  0  0  0  0  0  0  0  0  0  0
  157.2290  211.3450  154.1850 C   0  0  0  0  0  2  0  0  0  0  0  0
  159.6360  209.9660  156.5410 O   0  0  0  0  0  0  0  0  0  0  0  0
  156.6340  213.5570  157.2610 C   0  0  0  0  0  1  0  0  0  0  0  0
  157.0520  212.7020  154.8680 C   0  0  0  0  0  2  0  0  0  0  0  0
  158.8210  210.7660  156.0130 C   0  0  0  0  0  0  0  0  0  0  0  0
  158.5830  210.7200  154.5310 C   0  0  2  0  0  3  0  0  0  0  0  0
  158.1370  211.7260  156.8310 N   0  0  0  0  0  0  0  0  0  0  0  0
  1  6  2  0  0  0  0
  1 14  1  0  0  0  0
  2  5  1  6  0  0  0
  2 13  1  0  0  0  0
  3  2  1  0  0  0  0
  3 19  1  0  0  0  0
  4  7  1  0  0  0  0
  4 15  2  0  0  0  0
  5 16  1  0  0  0  0
  6 17  1  0  0  0  0
  7  3  2  0  0  0  0
  8 23  1  6  0  0  0
  9  1  1  0  0  0  0
 10 18  1  0  0  0  0
 11  4  1  0  0  0  0
 12  8  1  0  0  0  0
 13  8  1  0  0  0  0
 13 18  1  1  0  0  0
 14  5  2  0  0  0  0
 15 20  1  0  0  0  0
 16 12  1  0  0  0  0
 17 16  2  0  0  0  0
 19 10  1  0  0  0  0
 20 19  2  0  0  0  0
 22 21  2  0  0  0  0
 23 22  1  0  0  0  0
 24 31  2  0  0  0  0
 24 27  1  0  0  0  0
 25 30  1  0  0  0  0
 25 28  1  0  0  0  0
 28 24  1  0  0  0  0
 29 26  2  0  0  0  0
 29 31  1  0  0  0  0
 30 22  1  6  0  0  0
 30 29  1  0  0  0  0
M  END
>  <MODEL>
6

>  <REMARK>
 VINA RESULT:      -3.1      8.298     11.748
  Name = 
  2 active torsions:
  status: ('A' for Active; 'I' for Inactive)
    1  A    between atoms: C_5  and  C_30
    2  A    between atoms: C_10  and  N_16
                            x       y       z     vdW  Elec       q    Type
                         _______ _______ _______ _____ _____    ______ ____

>  <TORSDO>
F 2

$$$$
