=
 OpenBabel11122413023D

 32 37  0  0  1  0  0  0  0  0999 V2000
  161.8810  202.1180  150.4990 C   0  0  0  0  0  2  0  0  0  0  0  0
  161.9500  207.2190  152.1170 N   0  0  0  0  0  0  0  0  0  0  0  0
  162.2390  210.4800  148.4520 C   0  0  0  0  0  3  0  0  0  0  0  0
  161.8480  211.4860  149.3360 C   0  0  0  0  0  3  0  0  0  0  0  0
  160.9780  207.9200  154.4160 C   0  0  1  0  0  3  0  0  0  0  0  0
  160.2820  209.1230  155.0520 C   0  0  1  0  0  3  0  0  0  0  0  0
  161.2900  204.8850  151.8900 C   0  0  1  0  0  3  0  0  0  0  0  0
  161.1780  206.4850  149.9170 C   0  0  0  0  0  2  0  0  0  0  0  0
  160.3970  211.3290  155.6390 C   0  0  2  0  0  3  0  0  0  0  0  0
  160.5230  204.0910  149.5480 C   0  0  0  0  0  2  0  0  0  0  0  0
  162.3260  209.1580  148.8940 C   0  0  0  0  0  2  0  0  0  0  0  0
  162.1400  207.4020  150.6710 C   0  0  0  0  0  0  0  0  0  0  0  0
  162.0170  208.8300  150.2210 C   0  0  0  0  0  0  0  0  0  0  0  0
  161.3300  209.5250  152.5220 C   0  0  0  0  0  0  0  0  0  0  0  0
  159.9260  210.5740  156.8840 C   0  0  0  0  0  2  0  0  0  0  0  0
  162.4710  202.9060  151.6770 C   0  0  0  0  0  2  0  0  0  0  0  0
  161.4190  205.0390  150.3480 C   0  0  2  0  0  3  0  0  0  0  0  0
  160.0540  209.0930  156.5420 C   0  0  0  0  0  2  0  0  0  0  0  0
  161.4580  203.5700  152.3960 O   0  0  0  0  0  0  0  0  0  0  0  0
  160.5050  202.6440  150.0580 C   0  0  1  0  0  3  0  0  0  0  0  0
  161.5490  211.1700  150.6640 C   0  0  0  0  0  3  0  0  0  0  0  0
  161.6330  209.8450  151.1160 C   0  0  0  0  0  0  0  0  0  0  0  0
  160.9830  210.5820  153.4320 N   0  0  0  0  0  2  0  0  0  0  0  0
  162.2050  205.8710  152.6190 C   0  0  0  0  0  2  0  0  0  0  0  0
  159.9920  206.7620  154.4310 C   0  0  0  0  0  1  0  0  0  0  0  0
  159.1850  211.9740  154.9650 C   0  0  0  0  0  1  0  0  0  0  0  0
  161.4030  208.2480  152.9760 C   0  0  0  0  0  0  0  0  0  0  0  0
  161.0530  210.3180  154.8100 N   0  0  2  0  0  0  0  0  0  0  0  0
  159.9060  201.7420  148.9910 C   0  0  0  0  0  2  0  0  0  0  0  0
  160.9130  201.4520  147.8890 C   0  0  2  0  0  3  0  0  0  0  0  0
  160.2760  201.7220  146.5440 C   0  0  0  0  0  1  0  0  0  0  0  0
  161.3120  200.1170  147.9510 O   0  0  0  0  0  1  0  0  0  0  0  0
  1 16  1  0  0  0  0
  2 24  1  0  0  0  0
  2 27  1  0  0  0  0
  3 11  1  0  0  0  0
  3  4  2  0  0  0  0
  4 21  1  0  0  0  0
  5 25  1  6  0  0  0
  5  6  1  0  0  0  0
  6 18  1  1  0  0  0
  7 19  1  0  0  0  0
  7 24  1  1  0  0  0
  8 17  1  0  0  0  0
  8 12  1  0  0  0  0
  9 26  1  6  0  0  0
  9 15  1  0  0  0  0
 10 20  1  0  0  0  0
 11 13  1  0  0  0  0
 12  2  1  0  0  0  0
 13 12  2  0  0  0  0
 13 22  1  0  0  0  0
 14 27  2  0  0  0  0
 14 23  1  0  0  0  0
 16 19  1  0  0  0  0
 17 10  1  6  0  0  0
 17  7  1  0  0  0  0
 18 15  1  0  0  0  0
 20 29  1  6  0  0  0
 20  1  1  0  0  0  0
 21 22  2  0  0  0  0
 22 14  1  0  0  0  0
 27  5  1  0  0  0  0
 28 23  1  6  0  0  0
 28  6  1  0  0  0  0
 28  9  1  0  0  0  0
 30 31  1  6  0  0  0
 30 32  1  0  0  0  0
 30 29  1  0  0  0  0
M  END
>  <MODEL>
1

>  <REMARK>
 VINA RESULT:      -7.6      0.000      0.000
  Name = 
  2 active torsions:
  status: ('A' for Active; 'I' for Inactive)
    1  A    between atoms: C_20  and  C_29
    2  A    between atoms: C_29  and  C_30
                            x       y       z     vdW  Elec       q    Type
                         _______ _______ _______ _____ _____    ______ ____

>  <TORSDO>
F 2

$$$$
=
 OpenBabel11122413023D

 32 37  0  0  1  0  0  0  0  0999 V2000
  161.9380  210.3950  153.1980 C   0  0  0  0  0  2  0  0  0  0  0  0
  162.0360  206.2370  149.8300 N   0  0  0  0  0  0  0  0  0  0  0  0
  161.0070  201.9220  151.9450 C   0  0  0  0  0  3  0  0  0  0  0  0
  160.7990  201.3690  150.6810 C   0  0  0  0  0  3  0  0  0  0  0  0
  161.6970  206.5560  147.2800 C   0  0  1  0  0  3  0  0  0  0  0  0
  161.1110  205.7920  146.0930 C   0  0  1  0  0  3  0  0  0  0  0  0
  161.5360  208.4290  150.7660 C   0  0  1  0  0  3  0  0  0  0  0  0
  160.7390  206.2990  151.9010 C   0  0  0  0  0  2  0  0  0  0  0  0
  161.2030  203.9390  144.7570 C   0  0  2  0  0  3  0  0  0  0  0  0
  160.2080  208.4980  152.9880 C   0  0  0  0  0  2  0  0  0  0  0  0
  161.3250  203.2760  152.0700 C   0  0  0  0  0  3  0  0  0  0  0  0
  161.7940  205.5380  151.1000 C   0  0  0  0  0  0  0  0  0  0  0  0
  161.4310  204.0890  150.9330 C   0  0  0  0  0  0  0  0  0  0  0  0
  161.3660  204.3630  148.4500 C   0  0  0  0  0  0  0  0  0  0  0  0
  161.1670  205.1470  143.8190 C   0  0  0  0  0  2  0  0  0  0  0  0
  162.7690  209.9660  151.9800 C   0  0  0  0  0  2  0  0  0  0  0  0
  161.2120  207.7350  152.1190 C   0  0  2  0  0  3  0  0  0  0  0  0
  161.3160  206.3720  144.7160 C   0  0  0  0  0  2  0  0  0  0  0  0
  161.9480  209.7850  150.8490 O   0  0  0  0  0  0  0  0  0  0  0  0
  160.4550  210.0090  153.0750 C   0  0  1  0  0  3  0  0  0  0  0  0
  160.9140  202.1700  149.5410 C   0  0  0  0  0  3  0  0  0  0  0  0
  161.2320  203.5310  149.6590 C   0  0  1  0  0  3  0  0  0  0  0  0
  161.2020  203.7640  147.1530 N   0  0  0  0  0  2  0  0  0  0  0  0
  162.5340  207.6040  149.9510 C   0  0  0  0  0  2  0  0  0  0  0  0
  160.8560  207.8080  147.4770 C   0  0  0  0  0  1  0  0  0  0  0  0
  159.8010  203.3340  144.8360 C   0  0  0  0  0  1  0  0  0  0  0  0
  161.6690  205.6820  148.5440 C   0  0  0  0  0  0  0  0  0  0  0  0
  161.6800  204.4680  146.0350 N   0  0  2  0  0  0  0  0  0  0  0  0
  159.6570  210.5830  154.2350 C   0  0  0  0  0  2  0  0  0  0  0  0
  158.7620  211.7220  153.7740 C   0  0  2  0  0  3  0  0  0  0  0  0
  157.4220  211.6200  154.4700 C   0  0  0  0  0  1  0  0  0  0  0  0
  158.5720  211.6490  152.3940 O   0  0  0  0  0  1  0  0  0  0  0  0
  2 24  1  0  0  0  0
  2 12  1  0  0  0  0
  3 11  2  0  0  0  0
  4  3  1  0  0  0  0
  5 25  1  1  0  0  0
  5 27  1  0  0  0  0
  6 18  1  6  0  0  0
  6  5  1  0  0  0  0
  7 24  1  1  0  0  0
  7 19  1  0  0  0  0
  7 17  1  0  0  0  0
  9 26  1  1  0  0  0
  9 28  1  0  0  0  0
 10 20  1  0  0  0  0
 12  8  1  0  0  0  0
 13 12  2  0  0  0  0
 13 11  1  0  0  0  0
 14 27  2  0  0  0  0
 14 22  1  0  0  0  0
 15 18  1  0  0  0  0
 15  9  1  0  0  0  0
 16  1  1  0  0  0  0
 17  8  1  6  0  0  0
 17 10  1  0  0  0  0
 19 16  1  0  0  0  0
 20  1  1  0  0  0  0
 20 29  1  1  0  0  0
 21  4  2  0  0  0  0
 22 21  1  6  0  0  0
 22 13  1  0  0  0  0
 23 14  1  0  0  0  0
 27  2  1  0  0  0  0
 28  6  1  0  0  0  0
 28 23  1  1  0  0  0
 30 29  1  0  0  0  0
 30 31  1  1  0  0  0
 32 30  1  0  0  0  0
M  END
>  <MODEL>
2

>  <REMARK>
 VINA RESULT:      -7.5      3.190      8.733
  Name = 
  2 active torsions:
  status: ('A' for Active; 'I' for Inactive)
    1  A    between atoms: C_20  and  C_29
    2  A    between atoms: C_29  and  C_30
                            x       y       z     vdW  Elec       q    Type
                         _______ _______ _______ _____ _____    ______ ____

>  <TORSDO>
F 2

$$$$
=
 OpenBabel11122413023D

 32 37  0  0  1  0  0  0  0  0999 V2000
  161.9460  213.4090  148.3430 C   0  0  0  0  0  2  0  0  0  0  0  0
  162.0430  208.7540  150.9810 N   0  0  0  0  0  0  0  0  0  0  0  0
  161.0550  209.1490  155.7790 C   0  0  0  0  0  3  0  0  0  0  0  0
  160.8400  207.7720  155.8330 C   0  0  0  0  0  3  0  0  0  0  0  0
  161.6840  206.4980  149.7550 C   0  0  1  0  0  3  0  0  0  0  0  0
  161.0930  205.1170  150.0370 C   0  0  1  0  0  3  0  0  0  0  0  0
  161.5370  210.4280  149.2870 C   0  0  1  0  0  3  0  0  0  0  0  0
  160.7610  210.7100  151.6910 C   0  0  0  0  0  2  0  0  0  0  0  0
  161.1860  203.1960  151.2720 C   0  0  2  0  0  3  0  0  0  0  0  0
  160.2250  212.5280  150.0460 C   0  0  0  0  0  2  0  0  0  0  0  0
  161.3650  209.7600  154.5620 C   0  0  0  0  0  3  0  0  0  0  0  0
  161.8140  209.6820  152.0980 C   0  0  0  0  0  0  0  0  0  0  0  0
  161.4590  208.9980  153.3880 C   0  0  0  0  0  0  0  0  0  0  0  0
  161.3740  206.7880  152.2260 C   0  0  0  0  0  0  0  0  0  0  0  0
  161.1370  202.7650  149.8050 C   0  0  0  0  0  2  0  0  0  0  0  0
  162.7700  212.1150  148.2900 C   0  0  0  0  0  2  0  0  0  0  0  0
  161.2270  211.4360  150.4300 C   0  0  2  0  0  3  0  0  0  0  0  0
  161.2860  204.0470  148.9920 C   0  0  0  0  0  2  0  0  0  0  0  0
  161.9420  211.0000  148.0520 O   0  0  0  0  0  0  0  0  0  0  0  0
  160.4640  213.1600  148.6690 C   0  0  1  0  0  3  0  0  0  0  0  0
  160.9430  207.0040  154.6700 C   0  0  0  0  0  3  0  0  0  0  0  0
  161.2540  207.6090  153.4440 C   0  0  1  0  0  3  0  0  0  0  0  0
  161.2040  205.3620  152.3110 N   0  0  0  0  0  2  0  0  0  0  0  0
  162.5340  209.3640  149.7480 C   0  0  0  0  0  2  0  0  0  0  0  0
  160.8370  207.1430  148.6680 C   0  0  0  0  0  1  0  0  0  0  0  0
  159.7890  203.0550  151.8760 C   0  0  0  0  0  1  0  0  0  0  0  0
  161.6700  207.3560  151.0300 C   0  0  0  0  0  0  0  0  0  0  0  0
  161.6700  204.5770  151.2440 N   0  0  2  0  0  0  0  0  0  0  0  0
  159.6710  214.4530  148.5650 C   0  0  0  0  0  2  0  0  0  0  0  0
  158.5210  214.3140  147.5800 C   0  0  2  0  0  3  0  0  0  0  0  0
  157.2600  213.9450  148.3310 C   0  0  0  0  0  1  0  0  0  0  0  0
  158.8120  213.3170  146.6490 O   0  0  0  0  0  1  0  0  0  0  0  0
  1 20  1  0  0  0  0
  2 27  1  0  0  0  0
  2 12  1  0  0  0  0
  3  4  1  0  0  0  0
  5 25  1  6  0  0  0
  5  6  1  0  0  0  0
  5 27  1  0  0  0  0
  6 18  1  6  0  0  0
  6 28  1  0  0  0  0
  7 24  1  1  0  0  0
  7 17  1  0  0  0  0
  8 12  1  0  0  0  0
  9 26  1  6  0  0  0
 11  3  2  0  0  0  0
 12 13  2  0  0  0  0
 13 22  1  0  0  0  0
 13 11  1  0  0  0  0
 14 23  1  0  0  0  0
 14 22  1  0  0  0  0
 15  9  1  0  0  0  0
 16  1  1  0  0  0  0
 17 10  1  6  0  0  0
 17  8  1  0  0  0  0
 18 15  1  0  0  0  0
 19 16  1  0  0  0  0
 19  7  1  0  0  0  0
 20 29  1  1  0  0  0
 20 10  1  0  0  0  0
 21  4  2  0  0  0  0
 22 21  1  1  0  0  0
 24  2  1  0  0  0  0
 27 14  2  0  0  0  0
 28  9  1  0  0  0  0
 28 23  1  1  0  0  0
 30 31  1  1  0  0  0
 30 29  1  0  0  0  0
 32 30  1  0  0  0  0
M  END
>  <MODEL>
3

>  <REMARK>
 VINA RESULT:      -7.0      3.207      8.015
  Name = 
  2 active torsions:
  status: ('A' for Active; 'I' for Inactive)
    1  A    between atoms: C_20  and  C_29
    2  A    between atoms: C_29  and  C_30
                            x       y       z     vdW  Elec       q    Type
                         _______ _______ _______ _____ _____    ______ ____

>  <TORSDO>
F 2

$$$$
=
 OpenBabel11122413023D

 32 37  0  0  1  0  0  0  0  0999 V2000
  162.4520  204.7200  151.6370 C   0  0  0  0  0  2  0  0  0  0  0  0
  161.3190  209.9330  152.0680 N   0  0  0  0  0  0  0  0  0  0  0  0
  161.9450  212.4700  147.9060 C   0  0  0  0  0  3  0  0  0  0  0  0
  161.2000  213.5170  148.4500 C   0  0  0  0  0  3  0  0  0  0  0  0
  159.7310  210.8220  153.9140 C   0  0  1  0  0  3  0  0  0  0  0  0
  158.7200  211.9510  154.1160 C   0  0  1  0  0  3  0  0  0  0  0  0
  161.1140  207.5120  152.2350 C   0  0  1  0  0  3  0  0  0  0  0  0
  161.2190  208.6720  149.9760 C   0  0  0  0  0  2  0  0  0  0  0  0
  158.3390  214.2030  154.2120 C   0  0  2  0  0  3  0  0  0  0  0  0
  161.0610  206.1680  150.0220 C   0  0  0  0  0  2  0  0  0  0  0  0
  162.1350  211.2950  148.6370 C   0  0  0  0  0  2  0  0  0  0  0  0
  161.8150  209.8880  150.6850 C   0  0  0  0  0  0  0  0  0  0  0  0
  161.5760  211.1560  149.9160 C   0  0  0  0  0  0  0  0  0  0  0  0
  160.2610  212.0970  151.8210 C   0  0  0  0  0  0  0  0  0  0  0  0
  157.7140  213.6040  155.4730 C   0  0  0  0  0  2  0  0  0  0  0  0
  162.6120  205.8110  152.7050 C   0  0  0  0  0  2  0  0  0  0  0  0
  161.5790  207.4090  150.7550 C   0  0  2  0  0  3  0  0  0  0  0  0
  158.1540  212.1430  155.5000 C   0  0  0  0  0  2  0  0  0  0  0  0
  161.3640  206.3720  153.0430 O   0  0  0  0  0  0  0  0  0  0  0  0
  161.1540  204.8650  150.8250 C   0  0  1  0  0  3  0  0  0  0  0  0
  160.6490  213.3900  149.7280 C   0  0  0  0  0  3  0  0  0  0  0  0
  160.8340  212.2140  150.4690 C   0  0  0  0  0  0  0  0  0  0  0  0
  159.5430  213.2070  152.3870 N   0  0  0  0  0  2  0  0  0  0  0  0
  161.6600  208.7790  152.8960 C   0  0  0  0  0  2  0  0  0  0  0  0
  158.9670  209.5080  153.9880 C   0  0  0  0  0  1  0  0  0  0  0  0
  157.2350  214.4530  153.1840 C   0  0  0  0  0  1  0  0  0  0  0  0
  160.4270  210.9660  152.5510 C   0  0  0  0  0  0  0  0  0  0  0  0
  159.3260  213.2150  153.7740 N   0  0  2  0  0  0  0  0  0  0  0  0
  160.9770  203.6820  149.8860 C   0  0  0  0  0  2  0  0  0  0  0  0
  161.2000  202.3660  150.6140 C   0  0  2  0  0  3  0  0  0  0  0  0
  160.7670  201.2220  149.7240 C   0  0  0  0  0  1  0  0  0  0  0  0
  160.4540  202.3420  151.7920 O   0  0  0  0  0  1  0  0  0  0  0  0
  1 16  1  0  0  0  0
  2 27  1  0  0  0  0
  2 24  1  0  0  0  0
  3  4  2  0  0  0  0
  3 11  1  0  0  0  0
  4 21  1  0  0  0  0
  5 25  1  6  0  0  0
  5  6  1  0  0  0  0
  6 18  1  1  0  0  0
  7 24  1  1  0  0  0
  7 19  1  0  0  0  0
  8 12  1  0  0  0  0
  9 26  1  6  0  0  0
  9 15  1  0  0  0  0
 10 17  1  0  0  0  0
 10 20  1  0  0  0  0
 11 13  1  0  0  0  0
 12  2  1  0  0  0  0
 13 22  1  0  0  0  0
 13 12  2  0  0  0  0
 14 23  1  0  0  0  0
 14 27  2  0  0  0  0
 15 18  1  0  0  0  0
 16 19  1  0  0  0  0
 17  8  1  6  0  0  0
 17  7  1  0  0  0  0
 20 29  1  6  0  0  0
 20  1  1  0  0  0  0
 21 22  2  0  0  0  0
 22 14  1  0  0  0  0
 27  5  1  0  0  0  0
 28 23  1  6  0  0  0
 28  6  1  0  0  0  0
 28  9  1  0  0  0  0
 29 30  1  0  0  0  0
 30 31  1  6  0  0  0
 30 32  1  0  0  0  0
M  END
>  <MODEL>
4

>  <REMARK>
 VINA RESULT:      -5.5      1.799      2.975
  Name = 
  2 active torsions:
  status: ('A' for Active; 'I' for Inactive)
    1  A    between atoms: C_20  and  C_29
    2  A    between atoms: C_29  and  C_30
                            x       y       z     vdW  Elec       q    Type
                         _______ _______ _______ _____ _____    ______ ____

>  <TORSDO>
F 2

$$$$
