=
 OpenBabel11122413053D

 32 36  0  0  1  0  0  0  0  0999 V2000
  159.8960  210.4460  154.0060 C   0  0  1  0  0  3  0  0  0  0  0  0
  160.4560  213.1510  149.8710 C   0  0  0  0  0  3  0  0  0  0  0  0
  159.5600  214.0900  150.3840 C   0  0  0  0  0  3  0  0  0  0  0  0
  158.9580  211.6060  156.0730 C   0  0  2  0  0  3  0  0  0  0  0  0
  157.6780  212.3290  156.2070 N   0  0  2  0  0  0  0  0  0  0  0  0
  160.4550  208.2720  154.2110 C   0  0  2  0  0  3  0  0  0  0  0  0
  160.8650  209.3840  151.9960 C   0  0  0  0  0  2  0  0  0  0  0  0
  156.1480  213.7050  154.9430 C   0  0  2  0  0  3  0  0  0  0  0  0
  160.8240  212.0430  150.6370 C   0  0  0  0  0  3  0  0  0  0  0  0
  160.7730  210.6970  152.7700 C   0  0  1  0  0  3  0  0  0  0  0  0
  160.2910  211.8550  151.9210 C   0  0  0  0  0  0  0  0  0  0  0  0
  158.7900  212.6350  153.8120 C   0  0  2  0  0  3  0  0  0  0  0  0
  155.7090  212.2710  154.7920 C   0  0  0  0  0  2  0  0  0  0  0  0
  161.3120  208.2520  152.9290 C   0  0  2  0  0  3  0  0  0  0  0  0
  156.5980  211.4680  155.7260 C   0  0  0  0  0  2  0  0  0  0  0  0
  159.0420  213.9310  151.6710 C   0  0  0  0  0  3  0  0  0  0  0  0
  159.4230  212.8370  152.4600 C   0  0  0  0  0  0  0  0  0  0  0  0
  158.5520  213.8410  154.4810 O   0  0  0  0  0  0  0  0  0  0  0  0
  160.5490  209.5290  154.8450 O   0  0  0  0  0  0  0  0  0  0  0  0
  159.9050  212.0270  157.1800 C   0  0  0  0  0  1  0  0  0  0  0  0
  156.0920  214.3630  153.7130 O   0  0  0  0  0  1  0  0  0  0  0  0
  159.6460  211.7700  154.7140 C   0  0  2  0  0  3  0  0  0  0  0  0
  157.5680  213.6200  155.4840 C   0  0  2  0  0  3  0  0  0  0  0  0
  160.0850  207.2260  156.4400 C   0  0  0  0  0  1  0  0  0  0  0  0
  160.9190  207.1920  155.1750 C   0  0  0  0  0  2  0  0  0  0  0  0
  161.1680  207.0270  152.2640 O   0  0  0  0  0  0  0  0  0  0  0  0
  160.4560  206.1760  150.1510 C   0  0  0  0  0  1  0  0  0  0  0  0
  161.0620  207.3460  150.9050 C   0  0  2  0  0  3  0  0  0  0  0  0
  162.4400  207.6310  150.3260 C   0  0  0  0  0  2  0  0  0  0  0  0
  162.3470  208.0770  148.9090 C   0  0  0  0  0  0  0  0  0  0  0  0
  161.9560  209.2410  148.6360 O   0  0  0  0  0  1  0  0  0  0  0  0
  162.7060  207.2090  147.8860 O   0  0  0  0  0  0  0  0  0  0  0  0
  1 22  1  0  0  0  0
  1 19  1  1  0  0  0
  2  3  2  0  0  0  0
  2  9  1  0  0  0  0
  3 16  1  0  0  0  0
  4  5  1  0  0  0  0
  4 20  1  1  0  0  0
  5 15  1  6  0  0  0
  6 19  1  0  0  0  0
  6 25  1  1  0  0  0
  7 14  1  0  0  0  0
  8 21  1  6  0  0  0
  8 23  1  0  0  0  0
  9 11  2  0  0  0  0
 10  7  1  6  0  0  0
 10  1  1  0  0  0  0
 11 17  1  0  0  0  0
 11 10  1  0  0  0  0
 12 17  1  6  0  0  0
 12 18  1  0  0  0  0
 12 22  1  0  0  0  0
 13  8  1  0  0  0  0
 13 15  1  0  0  0  0
 14 26  1  6  0  0  0
 14  6  1  0  0  0  0
 16 17  2  0  0  0  0
 18 23  1  0  0  0  0
 22  4  1  0  0  0  0
 23  5  1  0  0  0  0
 25 24  1  0  0  0  0
 27 28  1  0  0  0  0
 28 26  1  0  0  0  0
 29 28  1  0  0  0  0
 30 29  1  0  0  0  0
 31 30  1  0  0  0  0
 32 30  2  0  0  0  0
M  END
>  <MODEL>
1

>  <REMARK>
 VINA RESULT:      -6.4      0.000      0.000
  Name = 
  5 active torsions:
  status: ('A' for Active; 'I' for Inactive)
    1  A    between atoms: C_7  and  C_19
    2  A    between atoms: O_10  and  C_17
    3  A    between atoms: O_10  and  C_20
    4  A    between atoms: C_20  and  C_29
    5  A    between atoms: C_29  and  C_30
                            x       y       z     vdW  Elec       q    Type
                         _______ _______ _______ _____ _____    ______ ____

>  <TORSDO>
F 5

$$$$
=
 OpenBabel11122413053D

 32 36  0  0  1  0  0  0  0  0999 V2000
  161.4010  205.6380  148.6560 C   0  0  1  0  0  3  0  0  0  0  0  0
  160.6520  201.1860  150.7420 C   0  0  0  0  0  3  0  0  0  0  0  0
  160.4780  200.6380  149.4690 C   0  0  0  0  0  3  0  0  0  0  0  0
  162.0350  205.7090  146.1880 C   0  0  2  0  0  3  0  0  0  0  0  0
  161.2950  205.1430  145.0440 N   0  0  2  0  0  0  0  0  0  0  0  0
  161.2700  207.6090  149.7420 C   0  0  2  0  0  3  0  0  0  0  0  0
  160.8510  205.5130  151.0620 C   0  0  0  0  0  2  0  0  0  0  0  0
  159.8630  203.2900  144.4530 C   0  0  2  0  0  3  0  0  0  0  0  0
  160.9820  202.5360  150.8830 C   0  0  0  0  0  3  0  0  0  0  0  0
  161.5760  204.7930  149.9270 C   0  0  1  0  0  3  0  0  0  0  0  0
  161.1290  203.3560  149.7550 C   0  0  0  0  0  0  0  0  0  0  0  0
  161.1000  203.6530  147.2350 C   0  0  2  0  0  3  0  0  0  0  0  0
  158.9810  204.4310  144.8930 C   0  0  0  0  0  2  0  0  0  0  0  0
  161.3190  206.9720  151.1450 C   0  0  2  0  0  3  0  0  0  0  0  0
  159.9110  205.6140  145.0990 C   0  0  0  0  0  2  0  0  0  0  0  0
  160.6480  201.4360  148.3360 C   0  0  0  0  0  3  0  0  0  0  0  0
  161.0040  202.7850  148.4640 C   0  0  0  0  0  0  0  0  0  0  0  0
  161.6210  202.9660  146.1320 O   0  0  0  0  0  0  0  0  0  0  0  0
  162.0570  206.8670  148.8370 O   0  0  0  0  0  0  0  0  0  0  0  0
  163.4830  205.9380  145.8020 C   0  0  0  0  0  1  0  0  0  0  0  0
  159.4150  202.0880  145.0030 O   0  0  0  0  0  1  0  0  0  0  0  0
  161.9680  204.8710  147.4690 C   0  0  2  0  0  3  0  0  0  0  0  0
  161.2530  203.6640  144.9470 C   0  0  2  0  0  3  0  0  0  0  0  0
  162.0350  209.5540  148.3880 C   0  0  0  0  0  1  0  0  0  0  0  0
  161.7830  209.0390  149.7910 C   0  0  0  0  0  2  0  0  0  0  0  0
  160.4860  207.6700  152.0290 O   0  0  0  0  0  0  0  0  0  0  0  0
  160.8380  206.6420  154.1540 C   0  0  0  0  0  1  0  0  0  0  0  0
  161.2100  207.7810  153.2220 C   0  0  2  0  0  3  0  0  0  0  0  0
  160.8810  209.0960  153.9130 C   0  0  0  0  0  2  0  0  0  0  0  0
  161.4260  210.2540  153.1510 C   0  0  0  0  0  0  0  0  0  0  0  0
  162.6480  210.3000  152.8550 O   0  0  0  0  0  1  0  0  0  0  0  0
  160.5780  211.2810  152.7550 O   0  0  0  0  0  0  0  0  0  0  0  0
  1 19  1  1  0  0  0
  1 10  1  0  0  0  0
  2  9  1  0  0  0  0
  3  2  2  0  0  0  0
  4 20  1  6  0  0  0
  4 22  1  0  0  0  0
  5 15  1  1  0  0  0
  5  4  1  0  0  0  0
  6 25  1  1  0  0  0
  6 14  1  0  0  0  0
  7 14  1  0  0  0  0
  8 13  1  0  0  0  0
  8 23  1  0  0  0  0
  8 21  1  1  0  0  0
 10  7  1  1  0  0  0
 11 10  1  0  0  0  0
 11  9  2  0  0  0  0
 12 18  1  6  0  0  0
 12 22  1  0  0  0  0
 12 17  1  0  0  0  0
 13 15  1  0  0  0  0
 14 26  1  1  0  0  0
 16 17  2  0  0  0  0
 16  3  1  0  0  0  0
 17 11  1  0  0  0  0
 19  6  1  0  0  0  0
 22  1  1  0  0  0  0
 23  5  1  0  0  0  0
 23 18  1  0  0  0  0
 24 25  1  0  0  0  0
 26 28  1  0  0  0  0
 28 29  1  0  0  0  0
 28 27  1  0  0  0  0
 30 29  1  0  0  0  0
 31 30  1  0  0  0  0
 32 30  2  0  0  0  0
M  END
>  <MODEL>
2

>  <REMARK>
 VINA RESULT:      -6.2      4.338      9.951
  Name = 
  5 active torsions:
  status: ('A' for Active; 'I' for Inactive)
    1  A    between atoms: C_7  and  C_19
    2  A    between atoms: O_10  and  C_17
    3  A    between atoms: O_10  and  C_20
    4  A    between atoms: C_20  and  C_29
    5  A    between atoms: C_29  and  C_30
                            x       y       z     vdW  Elec       q    Type
                         _______ _______ _______ _____ _____    ______ ____

>  <TORSDO>
F 5

$$$$
=
 OpenBabel11122413053D

 32 36  0  0  1  0  0  0  0  0999 V2000
  161.0120  209.6840  152.6160 C   0  0  1  0  0  3  0  0  0  0  0  0
  161.1650  212.9560  148.8740 C   0  0  0  0  0  3  0  0  0  0  0  0
  160.3790  213.8300  149.6290 C   0  0  0  0  0  3  0  0  0  0  0  0
  160.3890  210.5470  154.9320 C   0  0  2  0  0  3  0  0  0  0  0  0
  159.1670  211.2720  155.3330 N   0  0  2  0  0  0  0  0  0  0  0  0
  161.5010  207.4910  152.4320 C   0  0  2  0  0  3  0  0  0  0  0  0
  161.6770  208.9090  150.3660 C   0  0  0  0  0  2  0  0  0  0  0  0
  157.5510  212.8540  154.4890 C   0  0  2  0  0  3  0  0  0  0  0  0
  161.5790  211.7390  149.4200 C   0  0  0  0  0  3  0  0  0  0  0  0
  161.7380  210.0940  151.3260 C   0  0  1  0  0  3  0  0  0  0  0  0
  161.2030  211.3760  150.7210 C   0  0  0  0  0  0  0  0  0  0  0  0
  159.9830  211.9020  152.8830 C   0  0  2  0  0  3  0  0  0  0  0  0
  157.0360  211.4690  154.1910 C   0  0  0  0  0  2  0  0  0  0  0  0
  162.1890  207.6410  151.0600 C   0  0  2  0  0  3  0  0  0  0  0  0
  158.0010  210.5160  154.8770 C   0  0  0  0  0  2  0  0  0  0  0  0
  160.0200  213.4940  150.9360 C   0  0  0  0  0  3  0  0  0  0  0  0
  160.4510  212.2880  151.5030 C   0  0  0  0  0  0  0  0  0  0  0  0
  159.8820  213.0020  153.7430 O   0  0  0  0  0  0  0  0  0  0  0  0
  161.7260  208.6380  153.2220 O   0  0  0  0  0  0  0  0  0  0  0  0
  161.4830  210.7770  155.9550 C   0  0  0  0  0  1  0  0  0  0  0  0
  157.3690  213.6880  153.3840 O   0  0  0  0  0  1  0  0  0  0  0  0
  160.9080  210.8940  153.5330 C   0  0  2  0  0  3  0  0  0  0  0  0
  159.0210  212.6570  154.8230 C   0  0  2  0  0  3  0  0  0  0  0  0
  161.1180  205.0840  152.9420 C   0  0  0  0  0  1  0  0  0  0  0  0
  162.0360  206.2700  153.1620 C   0  0  0  0  0  2  0  0  0  0  0  0
  161.9120  206.5320  150.2510 O   0  0  0  0  0  0  0  0  0  0  0  0
  160.1400  206.2770  148.6720 C   0  0  0  0  0  1  0  0  0  0  0  0
  161.3840  207.0530  149.0630 C   0  0  2  0  0  3  0  0  0  0  0  0
  162.4030  206.9290  147.9400 C   0  0  0  0  0  2  0  0  0  0  0  0
  162.0280  205.8450  146.9910 C   0  0  0  0  0  0  0  0  0  0  0  0
  161.4280  206.1200  145.9200 O   0  0  0  0  0  0  0  0  0  0  0  0
  162.3530  204.5270  147.2830 O   0  0  0  0  0  1  0  0  0  0  0  0
  1 19  1  1  0  0  0
  1 22  1  0  0  0  0
  2  9  2  0  0  0  0
  2  3  1  0  0  0  0
  3 16  2  0  0  0  0
  4  5  1  0  0  0  0
  4 20  1  1  0  0  0
  5 15  1  6  0  0  0
  6 25  1  1  0  0  0
  6 19  1  0  0  0  0
  7 14  1  0  0  0  0
  8 21  1  6  0  0  0
  8 23  1  0  0  0  0
  9 11  1  0  0  0  0
 10  7  1  6  0  0  0
 10  1  1  0  0  0  0
 11 10  1  0  0  0  0
 11 17  2  0  0  0  0
 12 17  1  6  0  0  0
 12 22  1  0  0  0  0
 12 18  1  0  0  0  0
 13  8  1  0  0  0  0
 13 15  1  0  0  0  0
 14 26  1  6  0  0  0
 14  6  1  0  0  0  0
 16 17  1  0  0  0  0
 18 23  1  0  0  0  0
 22  4  1  0  0  0  0
 23  5  1  0  0  0  0
 24 25  1  0  0  0  0
 27 28  1  0  0  0  0
 28 26  1  0  0  0  0
 29 28  1  0  0  0  0
 30 32  1  0  0  0  0
 30 29  1  0  0  0  0
 31 30  2  0  0  0  0
M  END
>  <MODEL>
3

>  <REMARK>
 VINA RESULT:      -6.2      1.711      2.164
  Name = 
  5 active torsions:
  status: ('A' for Active; 'I' for Inactive)
    1  A    between atoms: C_7  and  C_19
    2  A    between atoms: O_10  and  C_17
    3  A    between atoms: O_10  and  C_20
    4  A    between atoms: C_20  and  C_29
    5  A    between atoms: C_29  and  C_30
                            x       y       z     vdW  Elec       q    Type
                         _______ _______ _______ _____ _____    ______ ____

>  <TORSDO>
F 5

$$$$
=
 OpenBabel11122413053D

 32 36  0  0  1  0  0  0  0  0999 V2000
  160.5180  211.0410  152.4330 C   0  0  1  0  0  3  0  0  0  0  0  0
  162.1180  206.5210  151.1140 C   0  0  0  0  0  3  0  0  0  0  0  0
  162.0660  206.1300  152.4530 C   0  0  0  0  0  3  0  0  0  0  0  0
  159.3660  211.2870  154.6930 C   0  0  2  0  0  3  0  0  0  0  0  0
  159.8940  210.9330  156.0250 N   0  0  2  0  0  0  0  0  0  0  0  0
  160.6910  212.8920  151.1590 C   0  0  2  0  0  3  0  0  0  0  0  0
  161.5810  210.7380  150.2220 C   0  0  0  0  0  2  0  0  0  0  0  0
  161.3350  209.3340  157.1190 C   0  0  2  0  0  3  0  0  0  0  0  0
  161.6990  207.8000  150.7410 C   0  0  0  0  0  3  0  0  0  0  0  0
  160.7020  210.0560  151.2680 C   0  0  1  0  0  3  0  0  0  0  0  0
  161.2360  208.7080  151.7040 C   0  0  0  0  0  0  0  0  0  0  0  0
  160.6950  209.2610  154.1210 C   0  0  2  0  0  3  0  0  0  0  0  0
  162.1790  210.5200  156.7280 C   0  0  0  0  0  2  0  0  0  0  0  0
  161.0050  212.1140  149.8660 C   0  0  2  0  0  3  0  0  0  0  0  0
  161.2060  211.5580  156.1930 C   0  0  0  0  0  2  0  0  0  0  0  0
  161.5810  207.0130  153.4200 C   0  0  0  0  0  3  0  0  0  0  0  0
  161.1340  208.2900  153.0550 C   0  0  0  0  0  0  0  0  0  0  0  0
  160.0180  208.6330  155.1730 O   0  0  0  0  0  0  0  0  0  0  0  0
  159.8030  212.1580  151.9720 O   0  0  0  0  0  0  0  0  0  0  0  0
  157.8540  211.3800  154.7470 C   0  0  0  0  0  1  0  0  0  0  0  0
  162.0030  208.1440  156.8260 O   0  0  0  0  0  1  0  0  0  0  0  0
  159.7860  210.3370  153.5670 C   0  0  2  0  0  3  0  0  0  0  0  0
  160.0550  209.4870  156.3120 C   0  0  2  0  0  3  0  0  0  0  0  0
  158.5790  214.0810  150.5880 C   0  0  0  0  0  1  0  0  0  0  0  0
  160.0670  214.2380  150.8290 C   0  0  0  0  0  2  0  0  0  0  0  0
  161.9380  212.8130  149.0880 O   0  0  0  0  0  0  0  0  0  0  0  0
  162.7060  212.9530  146.8330 C   0  0  0  0  0  1  0  0  0  0  0  0
  161.5560  212.6000  147.7580 C   0  0  2  0  0  3  0  0  0  0  0  0
  160.3670  213.4820  147.4080 C   0  0  0  0  0  2  0  0  0  0  0  0
  159.3430  212.7230  146.6370 C   0  0  0  0  0  0  0  0  0  0  0  0
  159.6400  212.2030  145.5310 O   0  0  0  0  0  0  0  0  0  0  0  0
  158.0600  212.5780  147.1480 O   0  0  0  0  0  1  0  0  0  0  0  0
  1 19  1  6  0  0  0
  1 22  1  0  0  0  0
  2  3  1  0  0  0  0
  3 16  2  0  0  0  0
  4 20  1  1  0  0  0
  4  5  1  0  0  0  0
  5 15  1  6  0  0  0
  5 23  1  0  0  0  0
  6 25  1  6  0  0  0
  6 19  1  0  0  0  0
  8 21  1  6  0  0  0
  9  2  2  0  0  0  0
  9 11  1  0  0  0  0
 10  7  1  6  0  0  0
 10 11  1  0  0  0  0
 10  1  1  0  0  0  0
 11 17  2  0  0  0  0
 12 17  1  6  0  0  0
 12 18  1  0  0  0  0
 13  8  1  0  0  0  0
 14 26  1  6  0  0  0
 14  7  1  0  0  0  0
 14  6  1  0  0  0  0
 15 13  1  0  0  0  0
 17 16  1  0  0  0  0
 18 23  1  0  0  0  0
 22 12  1  0  0  0  0
 22  4  1  0  0  0  0
 23  8  1  0  0  0  0
 24 25  1  0  0  0  0
 27 28  1  0  0  0  0
 28 26  1  0  0  0  0
 29 28  1  0  0  0  0
 30 32  1  0  0  0  0
 30 29  1  0  0  0  0
 31 30  2  0  0  0  0
M  END
>  <MODEL>
4

>  <REMARK>
 VINA RESULT:      -5.9      2.328      5.771
  Name = 
  5 active torsions:
  status: ('A' for Active; 'I' for Inactive)
    1  A    between atoms: C_7  and  C_19
    2  A    between atoms: O_10  and  C_17
    3  A    between atoms: O_10  and  C_20
    4  A    between atoms: C_20  and  C_29
    5  A    between atoms: C_29  and  C_30
                            x       y       z     vdW  Elec       q    Type
                         _______ _______ _______ _____ _____    ______ ____

>  <TORSDO>
F 5

$$$$
=
 OpenBabel11122413053D

 32 36  0  0  1  0  0  0  0  0999 V2000
  161.1000  209.1570  151.8100 C   0  0  1  0  0  3  0  0  0  0  0  0
  161.7900  212.4820  148.1770 C   0  0  0  0  0  3  0  0  0  0  0  0
  161.1520  213.4460  148.9610 C   0  0  0  0  0  3  0  0  0  0  0  0
  160.6130  210.0330  154.1530 C   0  0  2  0  0  3  0  0  0  0  0  0
  159.5220  210.9310  154.5790 N   0  0  2  0  0  0  0  0  0  0  0  0
  161.2310  206.9210  151.5530 C   0  0  2  0  0  3  0  0  0  0  0  0
  161.6410  208.3590  149.5340 C   0  0  0  0  0  2  0  0  0  0  0  0
  158.1840  212.7790  153.7890 C   0  0  2  0  0  3  0  0  0  0  0  0
  162.0020  211.1980  148.6820 C   0  0  0  0  0  3  0  0  0  0  0  0
  161.8870  209.4870  150.5320 C   0  0  1  0  0  3  0  0  0  0  0  0
  161.5670  210.8570  149.9710 C   0  0  0  0  0  0  0  0  0  0  0  0
  160.4390  211.5020  152.1510 C   0  0  2  0  0  3  0  0  0  0  0  0
  157.4550  211.5050  153.4470 C   0  0  0  0  0  2  0  0  0  0  0  0
  161.9400  207.0030  150.1860 C   0  0  2  0  0  3  0  0  0  0  0  0
  158.2510  210.3880  154.1010 C   0  0  0  0  0  2  0  0  0  0  0  0
  160.7380  213.1300  150.2560 C   0  0  0  0  0  3  0  0  0  0  0  0
  160.9680  211.8520  150.7840 C   0  0  0  0  0  0  0  0  0  0  0  0
  160.5110  212.5750  153.0470 O   0  0  0  0  0  0  0  0  0  0  0  0
  161.6340  207.9900  152.3810 O   0  0  0  0  0  0  0  0  0  0  0  0
  161.7260  210.0510  155.1820 C   0  0  0  0  0  1  0  0  0  0  0  0
  158.1430  213.6670  152.7130 O   0  0  0  0  0  1  0  0  0  0  0  0
  161.1870  210.3380  152.7660 C   0  0  2  0  0  3  0  0  0  0  0  0
  159.6020  212.3380  154.1160 C   0  0  2  0  0  3  0  0  0  0  0  0
  161.2060  205.6850  153.7140 C   0  0  0  0  0  1  0  0  0  0  0  0
  161.5600  205.6070  152.2420 C   0  0  0  0  0  2  0  0  0  0  0  0
  161.4920  205.9800  149.3410 O   0  0  0  0  0  0  0  0  0  0  0  0
  160.4600  206.5040  147.2540 C   0  0  0  0  0  1  0  0  0  0  0  0
  161.7560  206.4230  148.0390 C   0  0  2  0  0  3  0  0  0  0  0  0
  162.6860  205.4470  147.3350 C   0  0  0  0  0  2  0  0  0  0  0  0
  161.9520  204.2300  146.8890 C   0  0  0  0  0  0  0  0  0  0  0  0
  161.6800  204.0650  145.6720 O   0  0  0  0  0  0  0  0  0  0  0  0
  161.5790  203.2680  147.8190 O   0  0  0  0  0  1  0  0  0  0  0  0
  1 19  1  1  0  0  0
  1 22  1  0  0  0  0
  2  9  2  0  0  0  0
  2  3  1  0  0  0  0
  3 16  2  0  0  0  0
  4  5  1  0  0  0  0
  4 20  1  1  0  0  0
  5 15  1  6  0  0  0
  6 25  1  1  0  0  0
  6 19  1  0  0  0  0
  7 14  1  0  0  0  0
  8 21  1  6  0  0  0
  8 23  1  0  0  0  0
  9 11  1  0  0  0  0
 10  7  1  6  0  0  0
 10  1  1  0  0  0  0
 11 10  1  0  0  0  0
 11 17  2  0  0  0  0
 12 17  1  6  0  0  0
 12 22  1  0  0  0  0
 12 18  1  0  0  0  0
 13  8  1  0  0  0  0
 13 15  1  0  0  0  0
 14 26  1  6  0  0  0
 14  6  1  0  0  0  0
 16 17  1  0  0  0  0
 18 23  1  0  0  0  0
 22  4  1  0  0  0  0
 23  5  1  0  0  0  0
 25 24  1  0  0  0  0
 27 28  1  0  0  0  0
 28 26  1  0  0  0  0
 29 28  1  0  0  0  0
 30 29  1  0  0  0  0
 30 32  1  0  0  0  0
 31 30  2  0  0  0  0
M  END
>  <MODEL>
5

>  <REMARK>
 VINA RESULT:      -5.8      2.089      3.082
  Name = 
  5 active torsions:
  status: ('A' for Active; 'I' for Inactive)
    1  A    between atoms: C_7  and  C_19
    2  A    between atoms: O_10  and  C_17
    3  A    between atoms: O_10  and  C_20
    4  A    between atoms: C_20  and  C_29
    5  A    between atoms: C_29  and  C_30
                            x       y       z     vdW  Elec       q    Type
                         _______ _______ _______ _____ _____    ______ ____

>  <TORSDO>
F 5

$$$$
=
 OpenBabel11122413053D

 32 36  0  0  1  0  0  0  0  0999 V2000
  160.9890  207.8850  151.7900 C   0  0  1  0  0  3  0  0  0  0  0  0
  162.3340  211.0320  148.1810 C   0  0  0  0  0  3  0  0  0  0  0  0
  161.9960  212.1020  149.0110 C   0  0  0  0  0  3  0  0  0  0  0  0
  160.8470  208.7880  154.1680 C   0  0  2  0  0  3  0  0  0  0  0  0
  160.0390  209.9200  154.6640 N   0  0  2  0  0  0  0  0  0  0  0  0
  160.5390  205.6970  151.4910 C   0  0  2  0  0  3  0  0  0  0  0  0
  161.2070  207.0420  149.4770 C   0  0  0  0  0  2  0  0  0  0  0  0
  159.1770  212.0670  153.9730 C   0  0  2  0  0  3  0  0  0  0  0  0
  162.2360  209.7210  148.6530 C   0  0  0  0  0  3  0  0  0  0  0  0
  161.7760  208.0430  150.4790 C   0  0  1  0  0  3  0  0  0  0  0  0
  161.7870  209.4640  149.9570 C   0  0  0  0  0  0  0  0  0  0  0  0
  160.9590  210.3100  152.2020 C   0  0  2  0  0  3  0  0  0  0  0  0
  158.1350  211.0280  153.6480 C   0  0  0  0  0  2  0  0  0  0  0  0
  161.1830  205.6360  150.0910 C   0  0  2  0  0  3  0  0  0  0  0  0
  158.6510  209.7280  154.2420 C   0  0  0  0  0  2  0  0  0  0  0  0
  161.5750  211.8640  150.3210 C   0  0  0  0  0  3  0  0  0  0  0  0
  161.4970  210.5540  150.8150 C   0  0  0  0  0  0  0  0  0  0  0  0
  161.3410  211.3040  153.1100 O   0  0  0  0  0  0  0  0  0  0  0  0
  161.2360  206.6060  152.3140 O   0  0  0  0  0  0  0  0  0  0  0  0
  161.9730  208.4960  155.1400 C   0  0  0  0  0  1  0  0  0  0  0  0
  159.3140  212.9670  152.9150 O   0  0  0  0  0  1  0  0  0  0  0  0
  161.4160  208.9780  152.7590 C   0  0  2  0  0  3  0  0  0  0  0  0
  160.4510  211.2730  154.2200 C   0  0  2  0  0  3  0  0  0  0  0  0
  161.9310  203.6990  152.0130 C   0  0  0  0  0  1  0  0  0  0  0  0
  160.5550  204.3230  152.1410 C   0  0  0  0  0  2  0  0  0  0  0  0
  160.4530  204.7830  149.2530 O   0  0  0  0  0  0  0  0  0  0  0  0
  162.0450  204.8380  147.4760 C   0  0  0  0  0  1  0  0  0  0  0  0
  161.4060  204.0120  148.5770 C   0  0  2  0  0  3  0  0  0  0  0  0
  160.7410  202.7980  147.9450 C   0  0  0  0  0  2  0  0  0  0  0  0
  160.9230  201.5840  148.7900 C   0  0  0  0  0  0  0  0  0  0  0  0
  161.5820  200.6040  148.3560 O   0  0  0  0  0  0  0  0  0  0  0  0
  160.3750  201.5410  150.0650 O   0  0  0  0  0  1  0  0  0  0  0  0
  1 19  1  1  0  0  0
  1 22  1  0  0  0  0
  2  9  2  0  0  0  0
  2  3  1  0  0  0  0
  3 16  2  0  0  0  0
  4  5  1  0  0  0  0
  4 20  1  1  0  0  0
  5 15  1  6  0  0  0
  6 25  1  1  0  0  0
  6 19  1  0  0  0  0
  7 14  1  0  0  0  0
  8 21  1  6  0  0  0
  8 23  1  0  0  0  0
  9 11  1  0  0  0  0
 10  7  1  6  0  0  0
 10  1  1  0  0  0  0
 11 10  1  0  0  0  0
 11 17  2  0  0  0  0
 12 17  1  6  0  0  0
 12 22  1  0  0  0  0
 12 18  1  0  0  0  0
 13  8  1  0  0  0  0
 13 15  1  0  0  0  0
 14 26  1  6  0  0  0
 14  6  1  0  0  0  0
 16 17  1  0  0  0  0
 18 23  1  0  0  0  0
 22  4  1  0  0  0  0
 23  5  1  0  0  0  0
 24 25  1  0  0  0  0
 27 28  1  0  0  0  0
 28 26  1  0  0  0  0
 29 28  1  0  0  0  0
 29 30  1  0  0  0  0
 30 32  1  0  0  0  0
 31 30  2  0  0  0  0
M  END
>  <MODEL>
6

>  <REMARK>
 VINA RESULT:      -5.2      2.718      4.310
  Name = 
  5 active torsions:
  status: ('A' for Active; 'I' for Inactive)
    1  A    between atoms: C_7  and  C_19
    2  A    between atoms: O_10  and  C_17
    3  A    between atoms: O_10  and  C_20
    4  A    between atoms: C_20  and  C_29
    5  A    between atoms: C_29  and  C_30
                            x       y       z     vdW  Elec       q    Type
                         _______ _______ _______ _____ _____    ______ ____

>  <TORSDO>
F 5

$$$$
=
 OpenBabel11122413053D

 32 36  0  0  1  0  0  0  0  0999 V2000
  160.7410  209.6090  152.4980 C   0  0  1  0  0  3  0  0  0  0  0  0
  161.8370  211.7620  148.1510 C   0  0  0  0  0  3  0  0  0  0  0  0
  161.1860  212.9200  148.5800 C   0  0  0  0  0  3  0  0  0  0  0  0
  160.1250  211.1190  154.4560 C   0  0  2  0  0  3  0  0  0  0  0  0
  159.0460  212.1240  154.5250 N   0  0  2  0  0  0  0  0  0  0  0  0
  160.7930  207.3890  152.8870 C   0  0  2  0  0  3  0  0  0  0  0  0
  161.4100  208.1910  150.5870 C   0  0  0  0  0  2  0  0  0  0  0  0
  157.8500  213.7030  153.1440 C   0  0  2  0  0  3  0  0  0  0  0  0
  161.9550  210.6670  149.0100 C   0  0  0  0  0  3  0  0  0  0  0  0
  161.6330  209.5490  151.2480 C   0  0  1  0  0  3  0  0  0  0  0  0
  161.4140  210.7120  150.3020 C   0  0  0  0  0  0  0  0  0  0  0  0
  160.1600  211.9680  152.1160 C   0  0  2  0  0  3  0  0  0  0  0  0
  157.0930  212.4000  153.1130 C   0  0  0  0  0  2  0  0  0  0  0  0
  161.6020  207.0670  151.6140 C   0  0  2  0  0  3  0  0  0  0  0  0
  157.7910  211.4950  154.1140 C   0  0  0  0  0  2  0  0  0  0  0  0
  160.6660  212.9910  149.8740 C   0  0  0  0  0  3  0  0  0  0  0  0
  160.8010  211.9080  150.7540 C   0  0  0  0  0  0  0  0  0  0  0  0
  160.2140  213.2480  152.6800 O   0  0  0  0  0  0  0  0  0  0  0  0
  161.1810  208.6390  153.4130 O   0  0  0  0  0  0  0  0  0  0  0  0
  161.1610  211.4020  155.5270 C   0  0  0  0  0  1  0  0  0  0  0  0
  157.9260  214.2530  151.8630 O   0  0  0  0  0  1  0  0  0  0  0  0
  160.8110  211.0090  153.0910 C   0  0  2  0  0  3  0  0  0  0  0  0
  159.2210  213.3410  153.6950 C   0  0  2  0  0  3  0  0  0  0  0  0
  160.6020  206.8280  155.3050 C   0  0  0  0  0  1  0  0  0  0  0  0
  161.0140  206.3150  153.9400 C   0  0  0  0  0  2  0  0  0  0  0  0
  161.1720  205.8570  151.0540 O   0  0  0  0  0  0  0  0  0  0  0  0
  160.1240  206.2970  148.9550 C   0  0  0  0  0  1  0  0  0  0  0  0
  161.4160  205.9690  149.6800 C   0  0  2  0  0  3  0  0  0  0  0  0
  161.9530  204.6540  149.1360 C   0  0  0  0  0  2  0  0  0  0  0  0
  161.2220  203.4930  149.7160 C   0  0  0  0  0  0  0  0  0  0  0  0
  161.3960  203.1720  150.9200 O   0  0  0  0  0  1  0  0  0  0  0  0
  160.3340  202.7720  148.9290 O   0  0  0  0  0  0  0  0  0  0  0  0
  1 22  1  0  0  0  0
  1 19  1  1  0  0  0
  2  3  2  0  0  0  0
  2  9  1  0  0  0  0
  3 16  1  0  0  0  0
  4  5  1  0  0  0  0
  4 20  1  1  0  0  0
  5 15  1  6  0  0  0
  6 19  1  0  0  0  0
  6 25  1  1  0  0  0
  7 14  1  0  0  0  0
  8 21  1  6  0  0  0
  8 23  1  0  0  0  0
  9 11  2  0  0  0  0
 10  7  1  6  0  0  0
 10  1  1  0  0  0  0
 11 17  1  0  0  0  0
 11 10  1  0  0  0  0
 12 17  1  6  0  0  0
 12 18  1  0  0  0  0
 12 22  1  0  0  0  0
 13  8  1  0  0  0  0
 13 15  1  0  0  0  0
 14 26  1  6  0  0  0
 14  6  1  0  0  0  0
 16 17  2  0  0  0  0
 18 23  1  0  0  0  0
 22  4  1  0  0  0  0
 23  5  1  0  0  0  0
 25 24  1  0  0  0  0
 27 28  1  0  0  0  0
 28 26  1  0  0  0  0
 29 28  1  0  0  0  0
 29 30  1  0  0  0  0
 30 31  1  0  0  0  0
 32 30  2  0  0  0  0
M  END
>  <MODEL>
7

>  <REMARK>
 VINA RESULT:      -5.0      1.941      2.681
  Name = 
  5 active torsions:
  status: ('A' for Active; 'I' for Inactive)
    1  A    between atoms: C_7  and  C_19
    2  A    between atoms: O_10  and  C_17
    3  A    between atoms: O_10  and  C_20
    4  A    between atoms: C_20  and  C_29
    5  A    between atoms: C_29  and  C_30
                            x       y       z     vdW  Elec       q    Type
                         _______ _______ _______ _____ _____    ______ ____

>  <TORSDO>
F 5

$$$$
=
 OpenBabel11122413053D

 32 36  0  0  1  0  0  0  0  0999 V2000
  161.5480  206.3780  150.2990 C   0  0  1  0  0  3  0  0  0  0  0  0
  160.8300  201.5560  151.2830 C   0  0  0  0  0  3  0  0  0  0  0  0
  160.8550  201.2900  149.9130 C   0  0  0  0  0  3  0  0  0  0  0  0
  162.4840  207.0030  148.0120 C   0  0  2  0  0  3  0  0  0  0  0  0
  161.9340  206.6720  146.6830 N   0  0  2  0  0  0  0  0  0  0  0  0
  161.1510  208.0620  151.7440 C   0  0  2  0  0  3  0  0  0  0  0  0
  160.7050  205.7170  152.5260 C   0  0  0  0  0  2  0  0  0  0  0  0
  160.7130  204.9390  145.5270 C   0  0  2  0  0  3  0  0  0  0  0  0
  161.0510  202.8540  151.7480 C   0  0  0  0  0  3  0  0  0  0  0  0
  161.6130  205.2850  151.3770 C   0  0  1  0  0  3  0  0  0  0  0  0
  161.2860  203.9040  150.8480 C   0  0  0  0  0  0  0  0  0  0  0  0
  161.5600  204.7370  148.4670 C   0  0  2  0  0  3  0  0  0  0  0  0
  159.7090  205.9250  146.0690 C   0  0  0  0  0  2  0  0  0  0  0  0
  161.0630  207.1390  152.9760 C   0  0  2  0  0  3  0  0  0  0  0  0
  160.5270  207.0690  146.6440 C   0  0  0  0  0  2  0  0  0  0  0  0
  161.1160  202.3200  149.0060 C   0  0  0  0  0  3  0  0  0  0  0  0
  161.3650  203.6220  149.4620 C   0  0  0  0  0  0  0  0  0  0  0  0
  162.2590  204.3240  147.3270 O   0  0  0  0  0  0  0  0  0  0  0  0
  162.0940  207.5610  150.8210 O   0  0  0  0  0  0  0  0  0  0  0  0
  163.9520  207.3620  147.8870 C   0  0  0  0  0  1  0  0  0  0  0  0
  160.2770  203.6310  145.7450 O   0  0  0  0  0  1  0  0  0  0  0  0
  162.3090  205.9070  149.0680 C   0  0  2  0  0  3  0  0  0  0  0  0
  162.0010  205.2470  146.2750 C   0  0  2  0  0  3  0  0  0  0  0  0
  160.3680  210.3980  152.1000 C   0  0  0  0  0  1  0  0  0  0  0  0
  161.5600  209.4650  152.1620 C   0  0  0  0  0  2  0  0  0  0  0  0
  160.0810  207.5990  153.8620 O   0  0  0  0  0  0  0  0  0  0  0  0
  160.0810  206.9340  156.1550 C   0  0  0  0  0  1  0  0  0  0  0  0
  160.7360  207.7890  155.0860 C   0  0  2  0  0  3  0  0  0  0  0  0
  160.6390  209.2480  155.5080 C   0  0  0  0  0  2  0  0  0  0  0  0
  161.9580  209.7640  155.9670 C   0  0  0  0  0  0  0  0  0  0  0  0
  162.5220  210.7030  155.3480 O   0  0  0  0  0  0  0  0  0  0  0  0
  162.5620  209.2140  157.0910 O   0  0  0  0  0  1  0  0  0  0  0  0
  1 19  1  1  0  0  0
  1 10  1  0  0  0  0
  2  9  1  0  0  0  0
  3  2  2  0  0  0  0
  4 20  1  6  0  0  0
  4 22  1  0  0  0  0
  5 15  1  1  0  0  0
  5  4  1  0  0  0  0
  6 25  1  1  0  0  0
  6 14  1  0  0  0  0
  7 14  1  0  0  0  0
  8 21  1  1  0  0  0
  8 13  1  0  0  0  0
  8 23  1  0  0  0  0
 10  7  1  1  0  0  0
 11 10  1  0  0  0  0
 11  9  2  0  0  0  0
 12 18  1  6  0  0  0
 12 22  1  0  0  0  0
 12 17  1  0  0  0  0
 13 15  1  0  0  0  0
 14 26  1  1  0  0  0
 16 17  2  0  0  0  0
 16  3  1  0  0  0  0
 17 11  1  0  0  0  0
 19  6  1  0  0  0  0
 22  1  1  0  0  0  0
 23  5  1  0  0  0  0
 23 18  1  0  0  0  0
 24 25  1  0  0  0  0
 26 28  1  0  0  0  0
 28 29  1  0  0  0  0
 28 27  1  0  0  0  0
 29 30  1  0  0  0  0
 30 32  1  0  0  0  0
 31 30  2  0  0  0  0
M  END
>  <MODEL>
8

>  <REMARK>
 VINA RESULT:      -4.3      3.871      9.063
  Name = 
  5 active torsions:
  status: ('A' for Active; 'I' for Inactive)
    1  A    between atoms: C_7  and  C_19
    2  A    between atoms: O_10  and  C_17
    3  A    between atoms: O_10  and  C_20
    4  A    between atoms: C_20  and  C_29
    5  A    between atoms: C_29  and  C_30
                            x       y       z     vdW  Elec       q    Type
                         _______ _______ _______ _____ _____    ______ ____

>  <TORSDO>
F 5

$$$$
=
 OpenBabel11122413053D

 32 36  0  0  1  0  0  0  0  0999 V2000
  161.2690  208.8690  151.4070 C   0  0  1  0  0  3  0  0  0  0  0  0
  160.8310  204.1890  153.0310 C   0  0  0  0  0  3  0  0  0  0  0  0
  160.7870  204.6660  154.3430 C   0  0  0  0  0  3  0  0  0  0  0  0
  160.5710  210.7480  152.9800 C   0  0  2  0  0  3  0  0  0  0  0  0
  161.0700  211.0270  154.3410 N   0  0  2  0  0  0  0  0  0  0  0  0
  161.9980  209.4590  149.3570 C   0  0  2  0  0  3  0  0  0  0  0  0
  161.8700  207.0080  149.8950 C   0  0  0  0  0  2  0  0  0  0  0  0
  161.8950  209.9060  156.3140 C   0  0  2  0  0  3  0  0  0  0  0  0
  160.9010  205.0850  151.9630 C   0  0  0  0  0  3  0  0  0  0  0  0
  160.9220  207.4230  151.0170 C   0  0  1  0  0  3  0  0  0  0  0  0
  160.9400  206.4680  152.1920 C   0  0  0  0  0  0  0  0  0  0  0  0
  160.9360  208.4280  153.8040 C   0  0  2  0  0  3  0  0  0  0  0  0
  163.0810  210.2410  155.4460 C   0  0  0  0  0  2  0  0  0  0  0  0
  161.8350  208.0450  148.7650 C   0  0  2  0  0  3  0  0  0  0  0  0
  162.5310  211.0800  154.3040 C   0  0  0  0  0  2  0  0  0  0  0  0
  160.7970  206.0410  154.5870 C   0  0  0  0  0  3  0  0  0  0  0  0
  160.8400  206.9500  153.5210 C   0  0  0  0  0  0  0  0  0  0  0  0
  160.1950  208.8090  154.9280 O   0  0  0  0  0  0  0  0  0  0  0  0
  160.9940  209.7090  150.3160 O   0  0  0  0  0  0  0  0  0  0  0  0
  159.2290  211.4240  152.7750 C   0  0  0  0  0  1  0  0  0  0  0  0
  162.0120  208.6100  156.8180 O   0  0  0  0  0  1  0  0  0  0  0  0
  160.4570  209.2600  152.6340 C   0  0  2  0  0  3  0  0  0  0  0  0
  160.6900  210.0580  155.3980 C   0  0  2  0  0  3  0  0  0  0  0  0
  161.9570  211.8980  148.8590 C   0  0  0  0  0  1  0  0  0  0  0  0
  161.9100  210.5070  148.2600 C   0  0  0  0  0  2  0  0  0  0  0  0
  162.8690  207.7720  147.8600 O   0  0  0  0  0  0  0  0  0  0  0  0
  160.8260  206.8230  147.0720 C   0  0  0  0  0  1  0  0  0  0  0  0
  162.3380  206.8550  146.9450 C   0  0  2  0  0  3  0  0  0  0  0  0
  162.8760  205.4600  147.2320 C   0  0  0  0  0  2  0  0  0  0  0  0
  162.1850  204.4360  146.4010 C   0  0  0  0  0  0  0  0  0  0  0  0
  162.2350  204.5000  145.1450 O   0  0  0  0  0  0  0  0  0  0  0  0
  161.4940  203.3990  147.0150 O   0  0  0  0  0  1  0  0  0  0  0  0
  1 19  1  6  0  0  0
  1 22  1  0  0  0  0
  2  3  1  0  0  0  0
  3 16  2  0  0  0  0
  4 20  1  1  0  0  0
  4  5  1  0  0  0  0
  5 15  1  6  0  0  0
  5 23  1  0  0  0  0
  6 25  1  6  0  0  0
  6 19  1  0  0  0  0
  8 21  1  6  0  0  0
  9 11  1  0  0  0  0
  9  2  2  0  0  0  0
 10  7  1  6  0  0  0
 10  1  1  0  0  0  0
 10 11  1  0  0  0  0
 11 17  2  0  0  0  0
 12 17  1  6  0  0  0
 12 18  1  0  0  0  0
 13  8  1  0  0  0  0
 14 26  1  6  0  0  0
 14  6  1  0  0  0  0
 14  7  1  0  0  0  0
 15 13  1  0  0  0  0
 17 16  1  0  0  0  0
 18 23  1  0  0  0  0
 22  4  1  0  0  0  0
 22 12  1  0  0  0  0
 23  8  1  0  0  0  0
 25 24  1  0  0  0  0
 28 27  1  0  0  0  0
 28 29  1  0  0  0  0
 28 26  1  0  0  0  0
 30 32  1  0  0  0  0
 30 29  1  0  0  0  0
 31 30  2  0  0  0  0
M  END
>  <MODEL>
9

>  <REMARK>
 VINA RESULT:      -3.4      2.769      5.931
  Name = 
  5 active torsions:
  status: ('A' for Active; 'I' for Inactive)
    1  A    between atoms: C_7  and  C_19
    2  A    between atoms: O_10  and  C_17
    3  A    between atoms: O_10  and  C_20
    4  A    between atoms: C_20  and  C_29
    5  A    between atoms: C_29  and  C_30
                            x       y       z     vdW  Elec       q    Type
                         _______ _______ _______ _____ _____    ______ ____

>  <TORSDO>
F 5

$$$$
