=
 OpenBabel11122414153D

 34 42  0  0  1  0  0  0  0  0999 V2000
  160.9550  205.0060  151.9020 C   0  0  1  0  0  3  0  0  0  0  0  0
  161.3120  206.3130  153.8470 C   0  0  0  0  0  2  0  0  0  0  0  0
  161.3200  203.8690  145.2170 C   0  0  2  0  0  0  0  0  0  0  0  0
  160.9420  203.6500  149.6790 C   0  0  0  0  0  0  0  0  0  0  0  0
  161.2340  204.8510  147.5970 C   0  0  0  0  0  0  0  0  0  0  0  0
  161.5750  205.8080  145.2260 C   0  0  2  0  0  3  0  0  0  0  0  0
  161.5550  204.8570  144.2120 O   0  0  0  0  0  0  0  0  0  0  0  0
  160.9070  201.8150  146.4030 C   0  0  0  0  0  3  0  0  0  0  0  0
  161.8010  207.3610  151.7970 C   0  0  1  0  0  3  0  0  0  0  0  0
  162.0110  210.3060  151.3690 C   0  0  0  0  0  3  0  0  0  0  0  0
  161.2990  206.0520  148.3070 O   0  0  0  0  0  0  0  0  0  0  0  0
  160.8580  202.2360  147.6810 C   0  0  0  0  0  2  0  0  0  0  0  0
  161.1390  207.3990  150.4230 C   0  0  2  0  0  3  0  0  0  0  0  0
  161.2480  207.8080  154.0560 C   0  0  0  0  0  2  0  0  0  0  0  0
  161.0130  203.5760  148.3300 C   0  0  0  0  0  0  0  0  0  0  0  0
  161.1390  202.5930  145.2200 N   0  0  0  0  0  0  0  0  0  0  0  0
  161.6390  209.7590  152.5420 C   0  0  0  0  0  0  0  0  0  0  0  0
  161.1000  204.9480  150.3960 C   0  0  0  0  0  0  0  0  0  0  0  0
  161.3580  204.8800  146.2860 C   0  0  0  0  0  0  0  0  0  0  0  0
  161.2090  206.0860  149.7030 C   0  0  0  0  0  0  0  0  0  0  0  0
  160.7510  202.4760  151.8200 C   0  0  0  0  0  3  0  0  0  0  0  0
  162.0500  209.7290  150.0040 C   0  0  0  0  0  3  0  0  0  0  0  0
  160.6200  202.4610  150.4960 C   0  0  0  0  0  3  0  0  0  0  0  0
  161.7070  208.5050  149.5880 C   0  0  0  0  0  3  0  0  0  0  0  0
  161.0880  208.3630  152.6670 C   0  0  1  0  0  3  0  0  0  0  0  0
  161.3480  203.6550  152.5290 C   0  0  0  0  0  2  0  0  0  0  0  0
  161.8060  206.0550  152.4940 N   0  0  2  0  0  0  0  0  0  0  0  0
  161.6930  210.5380  153.7100 O   0  0  0  0  0  0  0  0  0  0  0  0
  160.6670  211.4420  154.1140 C   0  0  0  0  0  2  0  0  0  0  0  0
  159.9060  209.6530  156.7380 O   0  0  0  0  0  0  0  0  0  0  0  0
  161.8460  210.8930  156.2180 C   0  0  0  0  0  2  0  0  0  0  0  0
  160.6640  211.6040  155.6260 C   0  0  2  0  0  3  0  0  0  0  0  0
  161.2280  209.8780  157.1480 C   0  0  0  0  0  2  0  0  0  0  0  0
  159.4730  210.8800  156.2100 C   0  0  0  0  0  2  0  0  0  0  0  0
  1 27  1  0  0  0  0
  1 26  1  1  0  0  0
  2 14  1  0  0  0  0
  3  7  1  1  0  0  0
  3 16  1  0  0  0  0
  3  6  1  0  0  0  0
  3 19  1  0  0  0  0
  4 18  1  0  0  0  0
  4 23  1  0  0  0  0
  5 11  1  0  0  0  0
  5 15  1  0  0  0  0
  6  7  1  1  0  0  0
  6 19  1  0  0  0  0
  8 12  1  0  0  0  0
  9 27  1  0  0  0  0
  9 25  1  0  0  0  0
 10 17  2  0  0  0  0
 11 20  1  0  0  0  0
 12 15  1  0  0  0  0
 13  9  1  0  0  0  0
 15  4  2  0  0  0  0
 16  8  2  0  0  0  0
 17 25  1  0  0  0  0
 17 28  1  0  0  0  0
 18  1  1  0  0  0  0
 19  5  2  0  0  0  0
 20 18  2  0  0  0  0
 20 13  1  0  0  0  0
 21 26  1  0  0  0  0
 22 10  1  0  0  0  0
 23 21  2  0  0  0  0
 24 22  2  0  0  0  0
 24 13  1  0  0  0  0
 25 14  1  0  0  0  0
 27  2  1  0  0  0  0
 28 29  1  0  0  0  0
 29 32  1  0  0  0  0
 30 33  1  0  0  0  0
 31 33  1  0  0  0  0
 32 34  1  0  0  0  0
 32 31  1  0  0  0  0
 34 30  1  0  0  0  0
M  END
>  <MODEL>
1

>  <REMARK>
 VINA RESULT:     -11.6      0.000      0.000
  Name = 
  3 active torsions:
  status: ('A' for Active; 'I' for Inactive)
    1  A    between atoms: C_17  and  O_28
    2  A    between atoms: O_28  and  C_29
    3  A    between atoms: C_29  and  C_32
                            x       y       z     vdW  Elec       q    Type
                         _______ _______ _______ _____ _____    ______ ____

>  <TORSDO>
F 3

$$$$
=
 OpenBabel11122414153D

 34 42  0  0  1  0  0  0  0  0999 V2000
  160.9370  205.0760  151.9360 C   0  0  1  0  0  3  0  0  0  0  0  0
  161.2810  206.4110  153.8630 C   0  0  0  0  0  2  0  0  0  0  0  0
  161.3590  203.8360  145.2720 C   0  0  2  0  0  0  0  0  0  0  0  0
  160.9400  203.6870  149.7330 C   0  0  0  0  0  0  0  0  0  0  0  0
  161.2540  204.8550  147.6350 C   0  0  0  0  0  0  0  0  0  0  0  0
  161.6200  205.7740  145.2530 C   0  0  2  0  0  3  0  0  0  0  0  0
  161.6060  204.8080  144.2540 O   0  0  0  0  0  0  0  0  0  0  0  0
  160.9280  201.8020  146.4850 C   0  0  0  0  0  3  0  0  0  0  0  0
  161.7920  207.4260  151.8020 C   0  0  1  0  0  3  0  0  0  0  0  0
  162.0160  210.3640  151.3310 C   0  0  0  0  0  3  0  0  0  0  0  0
  161.3170  206.0660  148.3280 O   0  0  0  0  0  0  0  0  0  0  0  0
  160.8690  202.2430  147.7560 C   0  0  0  0  0  2  0  0  0  0  0  0
  161.1420  207.4460  150.4220 C   0  0  2  0  0  3  0  0  0  0  0  0
  161.2200  207.9090  154.0490 C   0  0  0  0  0  2  0  0  0  0  0  0
  161.0230  203.5920  148.3860 C   0  0  0  0  0  0  0  0  0  0  0  0
  161.1740  202.5610  145.2920 N   0  0  0  0  0  0  0  0  0  0  0  0
  161.6310  209.8360  152.5090 C   0  0  0  0  0  0  0  0  0  0  0  0
  161.0960  204.9950  150.4320 C   0  0  0  0  0  0  0  0  0  0  0  0
  161.3900  204.8630  146.3260 C   0  0  0  0  0  0  0  0  0  0  0  0
  161.2150  206.1220  149.7230 C   0  0  0  0  0  0  0  0  0  0  0  0
  160.7250  202.5460  151.8900 C   0  0  0  0  0  3  0  0  0  0  0  0
  162.0650  209.7660  149.9760 C   0  0  0  0  0  3  0  0  0  0  0  0
  160.6050  202.5110  150.5650 C   0  0  0  0  0  3  0  0  0  0  0  0
  161.7220  208.5370  149.5760 C   0  0  0  0  0  3  0  0  0  0  0  0
  161.0740  208.4440  152.6510 C   0  0  1  0  0  3  0  0  0  0  0  0
  161.3200  203.7340  152.5860 C   0  0  0  0  0  2  0  0  0  0  0  0
  161.7860  206.1310  152.5190 N   0  0  2  0  0  0  0  0  0  0  0  0
  161.6770  210.6320  153.6650 O   0  0  0  0  0  0  0  0  0  0  0  0
  160.6540  211.5520  154.0410 C   0  0  0  0  0  2  0  0  0  0  0  0
  157.6410  212.7780  153.7580 O   0  0  0  0  0  0  0  0  0  0  0  0
  159.4790  212.8280  152.2780 C   0  0  0  0  0  2  0  0  0  0  0  0
  159.5190  211.5300  153.0290 C   0  0  2  0  0  3  0  0  0  0  0  0
  158.1050  213.3760  152.5780 C   0  0  0  0  0  2  0  0  0  0  0  0
  158.1940  211.4880  153.7570 C   0  0  0  0  0  2  0  0  0  0  0  0
  1 27  1  0  0  0  0
  1 26  1  1  0  0  0
  2 14  1  0  0  0  0
  3  7  1  1  0  0  0
  3 16  1  0  0  0  0
  3 19  1  0  0  0  0
  4 18  1  0  0  0  0
  4 23  1  0  0  0  0
  5 11  1  0  0  0  0
  5 15  1  0  0  0  0
  6  7  1  1  0  0  0
  6  3  1  0  0  0  0
  6 19  1  0  0  0  0
  8 12  1  0  0  0  0
  9 27  1  0  0  0  0
  9 25  1  0  0  0  0
 10 17  2  0  0  0  0
 11 20  1  0  0  0  0
 12 15  1  0  0  0  0
 13  9  1  0  0  0  0
 15  4  2  0  0  0  0
 16  8  2  0  0  0  0
 17 25  1  0  0  0  0
 17 28  1  0  0  0  0
 18  1  1  0  0  0  0
 19  5  2  0  0  0  0
 20 13  1  0  0  0  0
 20 18  2  0  0  0  0
 21 26  1  0  0  0  0
 22 10  1  0  0  0  0
 23 21  2  0  0  0  0
 24 22  2  0  0  0  0
 24 13  1  0  0  0  0
 25 14  1  0  0  0  0
 27  2  1  0  0  0  0
 28 29  1  0  0  0  0
 31 33  1  0  0  0  0
 31 32  1  0  0  0  0
 32 34  1  0  0  0  0
 32 29  1  0  0  0  0
 33 30  1  0  0  0  0
 34 30  1  0  0  0  0
M  END
>  <MODEL>
2

>  <REMARK>
 VINA RESULT:     -11.3      1.209      1.780
  Name = 
  3 active torsions:
  status: ('A' for Active; 'I' for Inactive)
    1  A    between atoms: C_17  and  O_28
    2  A    between atoms: O_28  and  C_29
    3  A    between atoms: C_29  and  C_32
                            x       y       z     vdW  Elec       q    Type
                         _______ _______ _______ _____ _____    ______ ____

>  <TORSDO>
F 3

$$$$
=
 OpenBabel11122414153D

 34 42  0  0  1  0  0  0  0  0999 V2000
  161.8470  208.7550  150.8310 C   0  0  1  0  0  3  0  0  0  0  0  0
  161.6030  210.6100  152.2850 C   0  0  0  0  0  2  0  0  0  0  0  0
  160.8370  202.2790  149.0540 C   0  0  2  0  0  0  0  0  0  0  0  0
  161.7230  206.6680  149.2780 C   0  0  0  0  0  0  0  0  0  0  0  0
  161.1070  204.5400  150.2560 C   0  0  0  0  0  0  0  0  0  0  0  0
  160.4300  202.1530  150.9620 C   0  0  2  0  0  3  0  0  0  0  0  0
  160.4150  201.2280  149.9240 O   0  0  0  0  0  0  0  0  0  0  0  0
  161.5440  203.5770  147.1530 C   0  0  0  0  0  3  0  0  0  0  0  0
  160.8080  208.5510  153.1000 C   0  0  1  0  0  3  0  0  0  0  0  0
  160.3150  207.9030  155.9710 C   0  0  0  0  0  3  0  0  0  0  0  0
  161.0250  205.1490  151.5110 O   0  0  0  0  0  0  0  0  0  0  0  0
  161.7000  204.8000  147.6940 C   0  0  0  0  0  3  0  0  0  0  0  0
  161.3090  207.1100  153.0570 C   0  0  2  0  0  3  0  0  0  0  0  0
  161.5690  210.6830  153.7930 C   0  0  0  0  0  2  0  0  0  0  0  0
  161.5100  205.3480  149.0740 C   0  0  0  0  0  0  0  0  0  0  0  0
  161.1200  202.3680  147.8000 N   0  0  0  0  0  2  0  0  0  0  0  0
  160.8570  209.0660  155.5630 C   0  0  0  0  0  0  0  0  0  0  0  0
  161.5410  207.2860  150.6230 C   0  0  0  0  0  0  0  0  0  0  0  0
  160.8370  203.2550  150.1540 C   0  0  0  0  0  0  0  0  0  0  0  0
  161.2650  206.5180  151.6810 C   0  0  0  0  0  0  0  0  0  0  0  0
  162.2440  208.8630  148.3250 C   0  0  0  0  0  3  0  0  0  0  0  0
  160.1720  206.6060  155.2680 C   0  0  0  0  0  3  0  0  0  0  0  0
  162.2290  207.5390  148.1960 C   0  0  0  0  0  3  0  0  0  0  0  0
  160.5640  206.2580  154.0380 C   0  0  0  0  0  3  0  0  0  0  0  0
  161.5300  209.2440  154.2270 C   0  0  1  0  0  3  0  0  0  0  0  0
  161.6360  209.5350  149.5200 C   0  0  0  0  0  2  0  0  0  0  0  0
  160.9850  209.3520  151.8680 N   0  0  2  0  0  0  0  0  0  0  0  0
  160.8700  210.1630  156.4410 O   0  0  0  0  0  0  0  0  0  0  0  0
  159.7160  210.6570  157.1180 C   0  0  0  0  0  2  0  0  0  0  0  0
  156.6450  211.4140  156.3040 O   0  0  0  0  0  0  0  0  0  0  0  0
  158.4020  212.7520  157.1390 C   0  0  0  0  0  2  0  0  0  0  0  0
  158.9990  211.6900  156.2630 C   0  0  2  0  0  3  0  0  0  0  0  0
  156.9250  212.6810  156.8360 C   0  0  0  0  0  2  0  0  0  0  0  0
  157.8020  211.0510  155.5960 C   0  0  0  0  0  2  0  0  0  0  0  0
  1 26  1  6  0  0  0
  1 27  1  0  0  0  0
  2 14  1  0  0  0  0
  3 16  1  1  0  0  0
  3  7  1  0  0  0  0
  3 19  1  0  0  0  0
  3  6  1  0  0  0  0
  4 18  1  0  0  0  0
  5 11  1  0  0  0  0
  6  7  1  6  0  0  0
  8 12  2  0  0  0  0
  8 16  1  0  0  0  0
  9 25  1  0  0  0  0
 11 20  1  0  0  0  0
 12 15  1  0  0  0  0
 13  9  1  0  0  0  0
 13 24  1  0  0  0  0
 14 25  1  0  0  0  0
 15  4  2  0  0  0  0
 15  5  1  0  0  0  0
 17 10  2  0  0  0  0
 17 28  1  0  0  0  0
 18  1  1  0  0  0  0
 18 20  2  0  0  0  0
 19  5  2  0  0  0  0
 19  6  1  0  0  0  0
 20 13  1  0  0  0  0
 21 26  1  0  0  0  0
 22 10  1  0  0  0  0
 23 21  2  0  0  0  0
 23  4  1  0  0  0  0
 24 22  2  0  0  0  0
 25 17  1  0  0  0  0
 27  2  1  0  0  0  0
 27  9  1  0  0  0  0
 28 29  1  0  0  0  0
 30 33  1  0  0  0  0
 32 29  1  0  0  0  0
 32 31  1  0  0  0  0
 33 31  1  0  0  0  0
 34 32  1  0  0  0  0
 34 30  1  0  0  0  0
M  END
>  <MODEL>
3

>  <REMARK>
 VINA RESULT:      -9.3      2.017      4.143
  Name = 
  3 active torsions:
  status: ('A' for Active; 'I' for Inactive)
    1  A    between atoms: C_17  and  O_28
    2  A    between atoms: O_28  and  C_29
    3  A    between atoms: C_29  and  C_32
                            x       y       z     vdW  Elec       q    Type
                         _______ _______ _______ _____ _____    ______ ____

>  <TORSDO>
F 3

$$$$
=
 OpenBabel11122414153D

 34 42  0  0  1  0  0  0  0  0999 V2000
  161.5650  208.1210  149.6760 C   0  0  1  0  0  3  0  0  0  0  0  0
  162.1310  206.7220  147.8490 C   0  0  0  0  0  2  0  0  0  0  0  0
  160.4080  209.3120  156.2610 C   0  0  2  0  0  0  0  0  0  0  0  0
  161.2610  209.5010  151.8640 C   0  0  0  0  0  0  0  0  0  0  0  0
  160.7380  208.3150  153.9100 C   0  0  0  0  0  0  0  0  0  0  0  0
  160.2390  207.3630  156.2550 C   0  0  2  0  0  3  0  0  0  0  0  0
  160.1580  208.3210  157.2600 O   0  0  0  0  0  0  0  0  0  0  0  0
  160.7630  211.3780  155.0780 C   0  0  0  0  0  3  0  0  0  0  0  0
  161.8350  205.6430  149.9190 C   0  0  1  0  0  3  0  0  0  0  0  0
  161.2970  202.7320  150.2890 C   0  0  0  0  0  3  0  0  0  0  0  0
  160.7300  207.1110  153.2010 O   0  0  0  0  0  0  0  0  0  0  0  0
  160.9600  210.9470  153.8180 C   0  0  0  0  0  3  0  0  0  0  0  0
  160.8450  205.7790  151.0720 C   0  0  2  0  0  3  0  0  0  0  0  0
  161.8080  205.2710  147.5810 C   0  0  0  0  0  2  0  0  0  0  0  0
  160.9920  209.5890  153.1870 C   0  0  0  0  0  0  0  0  0  0  0  0
  160.5090  210.5960  156.2540 N   0  0  0  0  0  2  0  0  0  0  0  0
  161.3680  203.3180  149.0790 C   0  0  0  0  0  0  0  0  0  0  0  0
  161.3210  208.1820  151.1700 C   0  0  0  0  0  0  0  0  0  0  0  0
  160.5080  208.2910  155.2060 C   0  0  0  0  0  0  0  0  0  0  0  0
  161.0020  207.0640  151.8290 C   0  0  0  0  0  0  0  0  0  0  0  0
  161.8870  210.6370  149.7870 C   0  0  0  0  0  3  0  0  0  0  0  0
  161.1000  203.3190  151.6360 C   0  0  0  0  0  3  0  0  0  0  0  0
  161.4220  210.7110  151.0310 C   0  0  0  0  0  3  0  0  0  0  0  0
  160.9290  204.5980  151.9890 C   0  0  0  0  0  3  0  0  0  0  0  0
  161.1780  204.7960  148.8610 C   0  0  1  0  0  3  0  0  0  0  0  0
  162.3840  209.3410  149.2190 C   0  0  0  0  0  2  0  0  0  0  0  0
  162.2990  206.9010  149.2910 N   0  0  2  0  0  0  0  0  0  0  0  0
  161.5580  202.5180  147.9390 O   0  0  0  0  0  0  0  0  0  0  0  0
  160.4950  201.9420  147.1830 C   0  0  0  0  0  2  0  0  0  0  0  0
  159.0520  202.8990  144.4140 O   0  0  0  0  0  0  0  0  0  0  0  0
  161.1930  203.3710  145.2890 C   0  0  0  0  0  2  0  0  0  0  0  0
  160.8190  201.9770  145.6970 C   0  0  2  0  0  3  0  0  0  0  0  0
  160.1700  203.7260  144.2370 C   0  0  0  0  0  2  0  0  0  0  0  0
  159.5660  201.6870  144.9010 C   0  0  0  0  0  2  0  0  0  0  0  0
  1 26  1  1  0  0  0
  1 18  1  0  0  0  0
  2 27  1  0  0  0  0
  3 19  1  1  0  0  0
  3  7  1  0  0  0  0
  4 15  2  0  0  0  0
  5 19  2  0  0  0  0
  6 19  1  1  0  0  0
  6  3  1  0  0  0  0
  6  7  1  0  0  0  0
  8 16  1  0  0  0  0
  9 13  1  0  0  0  0
 10 22  1  0  0  0  0
 11  5  1  0  0  0  0
 12  8  2  0  0  0  0
 13 20  1  0  0  0  0
 13 24  1  0  0  0  0
 14  2  1  0  0  0  0
 14 25  1  0  0  0  0
 15 12  1  0  0  0  0
 15  5  1  0  0  0  0
 16  3  1  0  0  0  0
 17 10  2  0  0  0  0
 18 20  2  0  0  0  0
 18  4  1  0  0  0  0
 20 11  1  0  0  0  0
 21 23  2  0  0  0  0
 22 24  2  0  0  0  0
 23  4  1  0  0  0  0
 25 17  1  0  0  0  0
 25  9  1  0  0  0  0
 26 21  1  0  0  0  0
 27  1  1  0  0  0  0
 27  9  1  0  0  0  0
 28 17  1  0  0  0  0
 29 28  1  0  0  0  0
 30 34  1  0  0  0  0
 31 32  1  0  0  0  0
 32 29  1  0  0  0  0
 33 30  1  0  0  0  0
 33 31  1  0  0  0  0
 34 32  1  0  0  0  0
M  END
>  <MODEL>
4

>  <REMARK>
 VINA RESULT:      -9.3      1.887      9.310
  Name = 
  3 active torsions:
  status: ('A' for Active; 'I' for Inactive)
    1  A    between atoms: C_17  and  O_28
    2  A    between atoms: O_28  and  C_29
    3  A    between atoms: C_29  and  C_32
                            x       y       z     vdW  Elec       q    Type
                         _______ _______ _______ _____ _____    ______ ____

>  <TORSDO>
F 3

$$$$
