=
 OpenBabel11122413543D

 37 43  0  0  1  0  0  0  0  0999 V2000
  158.2700  213.0030  151.9380 O   0  0  0  0  0  0  0  0  0  0  0  0
  158.8240  213.1460  156.3280 C   0  0  0  0  0  0  0  0  0  0  0  0
  160.9050  210.0510  154.1440 C   0  0  1  0  0  3  0  0  0  0  0  0
  157.9100  213.5120  150.6750 C   0  0  2  0  0  3  0  0  0  0  0  0
  161.3970  210.5270  151.2030 C   0  0  0  0  0  2  0  0  0  0  0  0
  160.5820  211.2620  156.2820 C   0  0  0  0  0  0  0  0  0  0  0  0
  159.8920  209.7900  153.1210 N   0  0  2  0  0  0  0  0  0  0  0  0
  160.4570  214.1510  150.3890 C   0  0  2  0  0  3  0  0  0  0  0  0
  160.3930  211.1720  154.9560 C   0  0  0  0  0  0  0  0  0  0  0  0
  160.5660  209.4020  151.8560 C   0  0  2  0  0  3  0  0  0  0  0  0
  161.3010  210.2180  156.9660 N   0  0  0  0  0  0  0  0  0  0  0  0
  158.9760  214.4530  150.0810 C   0  0  0  0  0  2  0  0  0  0  0  0
  159.4060  211.9540  154.1970 C   0  0  2  0  0  3  0  0  0  0  0  0
  159.4650  214.4530  155.8930 C   0  0  0  0  0  1  0  0  0  0  0  0
  161.2960  207.5990  154.4950 C   0  0  0  0  0  3  0  0  0  0  0  0
  161.5930  209.0840  156.3940 C   0  0  0  0  0  3  0  0  0  0  0  0
  158.2650  212.3970  155.1100 C   0  0  0  0  0  2  0  0  0  0  0  0
  160.9750  212.7610  149.9880 C   0  0  0  0  0  2  0  0  0  0  0  0
  160.5020  211.7220  150.9840 C   0  0  1  0  0  3  0  0  0  0  0  0
  161.2160  208.8400  154.9900 C   0  0  0  0  0  0  0  0  0  0  0  0
  158.9330  210.9460  153.1460 C   0  0  1  0  0  3  0  0  0  0  0  0
  159.8580  212.3030  157.1030 C   0  0  0  0  0  2  0  0  0  0  0  0
  161.4420  208.1430  152.0270 C   0  0  1  0  0  3  0  0  0  0  0  0
  157.6770  213.4690  157.2600 C   0  0  0  0  0  1  0  0  0  0  0  0
  159.2170  211.2830  150.6770 O   0  0  0  0  0  0  0  0  0  0  0  0
  160.7660  214.4530  151.7170 O   0  0  0  0  0  1  0  0  0  0  0  0
  158.4380  211.5990  151.8050 C   0  0  2  0  0  3  0  0  0  0  0  0
  160.9030  207.1920  153.0980 C   0  0  0  0  0  2  0  0  0  0  0  0
  162.3360  208.0300  149.6970 C   0  0  0  0  0  3  0  0  0  0  0  0
  161.6070  207.4250  150.7240 C   0  0  0  0  0  0  0  0  0  0  0  0
  161.0430  206.1590  150.5160 C   0  0  0  0  0  3  0  0  0  0  0  0
  160.6780  204.3020  149.0680 F   0  0  0  0  0  0  0  0  0  0  0  0
  161.9330  206.1360  148.2990 N   0  0  0  0  0  0  0  0  0  0  0  0
  161.2180  205.5250  149.2830 C   0  0  0  0  0  0  0  0  0  0  0  0
  162.4890  207.3640  148.4790 C   0  0  0  0  0  3  0  0  0  0  0  0
  156.5550  214.2010  150.7420 C   0  0  0  0  0  2  0  0  0  0  0  0
  155.6930  213.7480  149.6620 N   0  0  0  0  0  1  0  0  0  0  0  0
  2 22  1  0  0  0  0
  2 24  1  0  0  0  0
  3  9  1  1  0  0  0
  3 20  1  0  0  0  0
  4 36  1  1  0  0  0
  4  1  1  0  0  0  0
  5 10  1  0  0  0  0
  6 11  1  0  0  0  0
  6 22  1  0  0  0  0
  7 21  1  0  0  0  0
  7  3  1  0  0  0  0
  8 26  1  0  0  0  0
  9  6  2  0  0  0  0
 10 23  1  0  0  0  0
 10  7  1  0  0  0  0
 12  8  1  0  0  0  0
 12  4  1  0  0  0  0
 13  9  1  0  0  0  0
 13 17  1  0  0  0  0
 14  2  1  0  0  0  0
 15 20  2  0  0  0  0
 16 11  2  0  0  0  0
 17  2  1  0  0  0  0
 18  8  1  0  0  0  0
 18 19  1  0  0  0  0
 19  5  1  0  0  0  0
 20 16  1  0  0  0  0
 21 13  1  0  0  0  0
 23 28  1  0  0  0  0
 25 19  1  0  0  0  0
 25 27  1  0  0  0  0
 27  1  1  0  0  0  0
 27 21  1  0  0  0  0
 28 15  1  0  0  0  0
 29 30  1  0  0  0  0
 30 23  1  0  0  0  0
 31 30  2  0  0  0  0
 32 34  1  0  0  0  0
 33 35  1  0  0  0  0
 33 34  2  0  0  0  0
 34 31  1  0  0  0  0
 35 29  2  0  0  0  0
 37 36  1  0  0  0  0
M  END
>  <MODEL>
1

>  <REMARK>
 VINA RESULT:      -2.9      0.000      0.000
  Name = 
  2 active torsions:
  status: ('A' for Active; 'I' for Inactive)
    1  A    between atoms: C_4  and  C_36
    2  A    between atoms: C_23  and  C_30
                            x       y       z     vdW  Elec       q    Type
                         _______ _______ _______ _____ _____    ______ ____

>  <TORSDO>
F 2

$$$$
=
 OpenBabel11122413543D

 37 43  0  0  1  0  0  0  0  0999 V2000
  160.5040  211.1110  155.3990 O   0  0  0  0  0  0  0  0  0  0  0  0
  156.4370  212.7400  156.0380 C   0  0  0  0  0  0  0  0  0  0  0  0
  158.0020  212.7780  152.0100 C   0  0  1  0  0  3  0  0  0  0  0  0
  161.6520  210.3660  155.7300 C   0  0  2  0  0  3  0  0  0  0  0  0
  160.2070  210.8180  151.3650 C   0  0  0  0  0  2  0  0  0  0  0  0
  156.0570  213.0900  153.5140 C   0  0  0  0  0  0  0  0  0  0  0  0
  159.4070  213.0380  152.3260 N   0  0  2  0  0  0  0  0  0  0  0  0
  160.5850  208.4060  154.3170 C   0  0  2  0  0  3  0  0  0  0  0  0
  157.3050  212.6430  153.3030 C   0  0  0  0  0  0  0  0  0  0  0  0
  160.2650  212.3600  151.3210 C   0  0  2  0  0  3  0  0  0  0  0  0
  155.3530  213.7500  152.4440 N   0  0  0  0  0  0  0  0  0  0  0  0
  161.4730  208.8540  155.4960 C   0  0  0  0  0  2  0  0  0  0  0  0
  158.2520  212.2780  154.3680 C   0  0  2  0  0  3  0  0  0  0  0  0
  156.2420  211.2730  156.3860 C   0  0  0  0  0  1  0  0  0  0  0  0
  158.0320  214.4510  150.1420 C   0  0  0  0  0  3  0  0  0  0  0  0
  155.9480  214.1240  151.3460 C   0  0  0  0  0  3  0  0  0  0  0  0
  157.9020  213.0050  155.6630 C   0  0  0  0  0  2  0  0  0  0  0  0
  160.9810  208.9170  152.9230 C   0  0  0  0  0  2  0  0  0  0  0  0
  160.5600  210.3630  152.7590 C   0  0  1  0  0  3  0  0  0  0  0  0
  157.3820  213.8510  151.1470 C   0  0  0  0  0  0  0  0  0  0  0  0
  159.5870  212.7560  153.7900 C   0  0  1  0  0  3  0  0  0  0  0  0
  155.4680  213.1300  154.9040 C   0  0  0  0  0  2  0  0  0  0  0  0
  159.9760  212.8490  149.8870 C   0  0  1  0  0  3  0  0  0  0  0  0
  156.0980  213.5650  157.2610 C   0  0  0  0  0  1  0  0  0  0  0  0
  161.5120  211.2250  153.2970 O   0  0  0  0  0  0  0  0  0  0  0  0
  159.2350  208.6400  154.5880 O   0  0  0  0  0  1  0  0  0  0  0  0
  160.8350  211.9460  154.2980 C   0  0  2  0  0  3  0  0  0  0  0  0
  159.5020  214.3040  149.8440 C   0  0  0  0  0  2  0  0  0  0  0  0
  162.0240  211.5790  149.2310 C   0  0  0  0  0  3  0  0  0  0  0  0
  161.1720  212.6630  149.0060 C   0  0  0  0  0  0  0  0  0  0  0  0
  161.4520  213.5550  147.9620 C   0  0  0  0  0  3  0  0  0  0  0  0
  162.8630  214.2000  146.1540 F   0  0  0  0  0  0  0  0  0  0  0  0
  163.3950  212.2830  147.4060 N   0  0  0  0  0  0  0  0  0  0  0  0
  162.5800  213.3460  147.1660 C   0  0  0  0  0  0  0  0  0  0  0  0
  163.1430  211.4040  148.4130 C   0  0  0  0  0  3  0  0  0  0  0  0
  162.0780  210.6470  157.1640 C   0  0  0  0  0  2  0  0  0  0  0  0
  163.4180  211.2110  157.2020 N   0  0  0  0  0  1  0  0  0  0  0  0
  1  4  1  0  0  0  0
  2 14  1  0  0  0  0
  2 24  1  0  0  0  0
  3 20  1  1  0  0  0
  3  7  1  0  0  0  0
  3  9  1  0  0  0  0
  4 36  1  1  0  0  0
  5 19  1  0  0  0  0
  6 22  1  0  0  0  0
  7 21  1  0  0  0  0
  8 26  1  0  0  0  0
  8 12  1  0  0  0  0
  9  6  2  0  0  0  0
  9 13  1  0  0  0  0
 10  5  1  0  0  0  0
 10  7  1  0  0  0  0
 11  6  1  0  0  0  0
 12  4  1  0  0  0  0
 13 17  1  0  0  0  0
 15 20  2  0  0  0  0
 16 11  2  0  0  0  0
 17  2  1  0  0  0  0
 18  8  1  0  0  0  0
 19 18  1  0  0  0  0
 19 25  1  0  0  0  0
 20 16  1  0  0  0  0
 21 27  1  0  0  0  0
 21 13  1  0  0  0  0
 22  2  1  0  0  0  0
 23 10  1  0  0  0  0
 25 27  1  0  0  0  0
 27  1  1  0  0  0  0
 28 23  1  0  0  0  0
 28 15  1  0  0  0  0
 30 29  1  0  0  0  0
 30 23  1  0  0  0  0
 31 30  2  0  0  0  0
 32 34  1  0  0  0  0
 33 35  1  0  0  0  0
 34 33  2  0  0  0  0
 34 31  1  0  0  0  0
 35 29  2  0  0  0  0
 36 37  1  0  0  0  0
M  END
>  <MODEL>
2

>  <REMARK>
 VINA RESULT:      -2.6      3.006      6.049
  Name = 
  2 active torsions:
  status: ('A' for Active; 'I' for Inactive)
    1  A    between atoms: C_4  and  C_36
    2  A    between atoms: C_23  and  C_30
                            x       y       z     vdW  Elec       q    Type
                         _______ _______ _______ _____ _____    ______ ____

>  <TORSDO>
F 2

$$$$
=
 OpenBabel11122413543D

 37 43  0  0  1  0  0  0  0  0999 V2000
  160.8460  209.2630  153.8670 O   0  0  0  0  0  0  0  0  0  0  0  0
  162.1450  210.4170  149.7950 C   0  0  0  0  0  0  0  0  0  0  0  0
  159.4300  213.0710  151.8610 C   0  0  1  0  0  3  0  0  0  0  0  0
  160.9180  208.5540  155.0810 C   0  0  2  0  0  3  0  0  0  0  0  0
  159.3550  212.8970  154.8750 C   0  0  0  0  0  2  0  0  0  0  0  0
  160.9350  212.6890  149.9290 C   0  0  0  0  0  0  0  0  0  0  0  0
  158.6450  212.0630  152.5750 N   0  0  2  0  0  0  0  0  0  0  0  0
  162.2280  210.6420  156.0310 C   0  0  2  0  0  3  0  0  0  0  0  0
  160.4930  212.3370  151.1470 C   0  0  0  0  0  0  0  0  0  0  0  0
  158.2070  212.6220  153.8800 C   0  0  2  0  0  3  0  0  0  0  0  0
  160.3470  213.8240  149.2650 N   0  0  0  0  0  0  0  0  0  0  0  0
  161.9810  209.1190  156.0430 C   0  0  0  0  0  2  0  0  0  0  0  0
  160.7390  211.0330  151.7810 C   0  0  2  0  0  3  0  0  0  0  0  0
  163.4510  210.4880  150.5680 C   0  0  0  0  0  1  0  0  0  0  0  0
  157.3650  214.3380  151.2160 C   0  0  0  0  0  3  0  0  0  0  0  0
  159.2600  214.3970  149.6970 C   0  0  0  0  0  3  0  0  0  0  0  0
  161.0050  209.9690  150.7190 C   0  0  0  0  0  2  0  0  0  0  0  0
  161.0130  211.5400  156.3080 C   0  0  0  0  0  2  0  0  0  0  0  0
  160.1330  211.6200  155.0770 C   0  0  1  0  0  3  0  0  0  0  0  0
  158.6000  213.9120  150.9230 C   0  0  0  0  0  0  0  0  0  0  0  0
  159.4240  210.7800  152.5220 C   0  0  1  0  0  3  0  0  0  0  0  0
  161.8600  211.7880  149.1460 C   0  0  0  0  0  2  0  0  0  0  0  0
  157.3530  213.8950  153.7090 C   0  0  1  0  0  3  0  0  0  0  0  0
  162.3010  209.3920  148.6930 C   0  0  0  0  0  1  0  0  0  0  0  0
  159.2620  210.5360  155.0130 O   0  0  0  0  0  0  0  0  0  0  0  0
  162.9040  211.0320  154.8720 O   0  0  0  0  0  1  0  0  0  0  0  0
  159.5700  209.8840  153.8050 C   0  0  2  0  0  3  0  0  0  0  0  0
  156.5520  213.8970  152.4050 C   0  0  0  0  0  2  0  0  0  0  0  0
  156.9930  214.1840  156.1630 C   0  0  0  0  0  3  0  0  0  0  0  0
  156.4440  214.0920  154.8830 C   0  0  0  0  0  0  0  0  0  0  0  0
  155.0560  214.1830  154.7190 C   0  0  0  0  0  3  0  0  0  0  0  0
  152.9000  214.4530  155.6970 F   0  0  0  0  0  0  0  0  0  0  0  0
  154.8030  214.4500  157.0790 N   0  0  0  0  0  0  0  0  0  0  0  0
  154.2440  214.3630  155.8410 C   0  0  0  0  0  0  0  0  0  0  0  0
  156.1480  214.3640  157.2610 C   0  0  0  0  0  3  0  0  0  0  0  0
  161.1530  207.0730  154.8230 C   0  0  0  0  0  2  0  0  0  0  0  0
  161.2660  206.8100  153.3970 N   0  0  0  0  0  1  0  0  0  0  0  0
  1  4  1  0  0  0  0
  2 14  1  0  0  0  0
  2 17  1  0  0  0  0
  3 20  1  6  0  0  0
  3  7  1  0  0  0  0
  4 36  1  6  0  0  0
  4 12  1  0  0  0  0
  5 19  1  0  0  0  0
  6  9  2  0  0  0  0
  7 10  1  0  0  0  0
  8 12  1  0  0  0  0
  8 18  1  0  0  0  0
  9 13  1  0  0  0  0
  9  3  1  0  0  0  0
 10  5  1  0  0  0  0
 11 16  2  0  0  0  0
 11  6  1  0  0  0  0
 13 21  1  0  0  0  0
 15 28  1  0  0  0  0
 16 20  1  0  0  0  0
 17 13  1  0  0  0  0
 19 18  1  0  0  0  0
 20 15  2  0  0  0  0
 21  7  1  0  0  0  0
 21 27  1  0  0  0  0
 22  2  1  0  0  0  0
 22  6  1  0  0  0  0
 23 10  1  0  0  0  0
 23 30  1  0  0  0  0
 24  2  1  0  0  0  0
 25 19  1  0  0  0  0
 26  8  1  0  0  0  0
 27  1  1  0  0  0  0
 27 25  1  0  0  0  0
 28 23  1  0  0  0  0
 29 35  1  0  0  0  0
 30 29  2  0  0  0  0
 31 30  1  0  0  0  0
 31 34  2  0  0  0  0
 32 34  1  0  0  0  0
 33 35  2  0  0  0  0
 34 33  1  0  0  0  0
 37 36  1  0  0  0  0
M  END
>  <MODEL>
3

>  <REMARK>
 VINA RESULT:      -1.6      3.450      8.059
  Name = 
  2 active torsions:
  status: ('A' for Active; 'I' for Inactive)
    1  A    between atoms: C_4  and  C_36
    2  A    between atoms: C_23  and  C_30
                            x       y       z     vdW  Elec       q    Type
                         _______ _______ _______ _____ _____    ______ ____

>  <TORSDO>
F 2

$$$$
=
 OpenBabel11122413543D

 37 43  0  0  1  0  0  0  0  0999 V2000
  162.5180  210.6730  148.7610 O   0  0  0  0  0  0  0  0  0  0  0  0
  161.7870  206.5370  147.3600 C   0  0  0  0  0  0  0  0  0  0  0  0
  160.8310  207.4590  151.4720 C   0  0  1  0  0  3  0  0  0  0  0  0
  162.7520  212.0530  148.6110 C   0  0  2  0  0  3  0  0  0  0  0  0
  160.3250  210.3570  152.1570 C   0  0  0  0  0  2  0  0  0  0  0  0
  160.6900  205.8540  149.5900 C   0  0  0  0  0  0  0  0  0  0  0  0
  161.9120  208.4090  151.7380 N   0  0  2  0  0  0  0  0  0  0  0  0
  160.1440  212.3580  148.8960 C   0  0  2  0  0  3  0  0  0  0  0  0
  160.9460  207.0890  150.0490 C   0  0  0  0  0  0  0  0  0  0  0  0
  161.4350  209.4330  152.7020 C   0  0  2  0  0  3  0  0  0  0  0  0
  160.2990  204.8230  150.5170 N   0  0  0  0  0  0  0  0  0  0  0  0
  161.4730  212.8460  148.2820 C   0  0  0  0  0  2  0  0  0  0  0  0
  161.6750  208.1250  149.3000 C   0  0  2  0  0  3  0  0  0  0  0  0
  160.7940  207.3270  146.5240 C   0  0  0  0  0  1  0  0  0  0  0  0
  161.1940  206.3100  153.6710 C   0  0  0  0  0  3  0  0  0  0  0  0
  160.3880  204.9770  151.8070 C   0  0  0  0  0  3  0  0  0  0  0  0
  162.5910  207.4830  148.2620 C   0  0  0  0  0  2  0  0  0  0  0  0
  160.0900  212.2530  150.4270 C   0  0  0  0  0  2  0  0  0  0  0  0
  160.8200  211.0090  150.8900 C   0  0  1  0  0  3  0  0  0  0  0  0
  160.8720  206.2490  152.3730 C   0  0  0  0  0  0  0  0  0  0  0  0
  162.4700  208.8230  150.4060 C   0  0  1  0  0  3  0  0  0  0  0  0
  161.0320  205.4640  148.1710 C   0  0  0  0  0  2  0  0  0  0  0  0
  160.9790  208.8060  154.0360 C   0  0  1  0  0  3  0  0  0  0  0  0
  162.7460  205.8380  146.4210 C   0  0  0  0  0  1  0  0  0  0  0  0
  162.1890  211.2440  150.9990 O   0  0  0  0  0  0  0  0  0  0  0  0
  159.7090  211.1810  148.2820 O   0  0  0  0  0  1  0  0  0  0  0  0
  162.7920  210.3330  150.1120 C   0  0  2  0  0  3  0  0  0  0  0  0
  161.7420  207.5240  154.3760 C   0  0  0  0  0  2  0  0  0  0  0  0
  159.9270  210.3670  155.6780 C   0  0  0  0  0  3  0  0  0  0  0  0
  161.0890  209.7930  155.1570 C   0  0  0  0  0  0  0  0  0  0  0  0
  162.3340  210.1520  155.6890 C   0  0  0  0  0  3  0  0  0  0  0  0
  163.5880  211.4350  157.2570 F   0  0  0  0  0  0  0  0  0  0  0  0
  161.2450  211.6240  157.2230 N   0  0  0  0  0  0  0  0  0  0  0  0
  162.3920  211.0790  156.7320 C   0  0  0  0  0  0  0  0  0  0  0  0
  160.0260  211.2910  156.7210 C   0  0  0  0  0  3  0  0  0  0  0  0
  163.8290  212.3030  147.5650 C   0  0  0  0  0  2  0  0  0  0  0  0
  163.2660  212.9530  146.3920 N   0  0  0  0  0  1  0  0  0  0  0  0
  1 27  1  0  0  0  0
  2 22  1  0  0  0  0
  2 17  1  0  0  0  0
  3  9  1  6  0  0  0
  3  7  1  0  0  0  0
  3 20  1  0  0  0  0
  4 36  1  6  0  0  0
  4  1  1  0  0  0  0
  5 10  1  0  0  0  0
  6  9  2  0  0  0  0
  6 11  1  0  0  0  0
  7 10  1  0  0  0  0
  8 18  1  0  0  0  0
 10 23  1  0  0  0  0
 11 16  2  0  0  0  0
 12  4  1  0  0  0  0
 12  8  1  0  0  0  0
 13  9  1  0  0  0  0
 13 21  1  0  0  0  0
 14  2  1  0  0  0  0
 15 28  1  0  0  0  0
 16 20  1  0  0  0  0
 17 13  1  0  0  0  0
 18 19  1  0  0  0  0
 19 25  1  0  0  0  0
 19  5  1  0  0  0  0
 20 15  2  0  0  0  0
 21  7  1  0  0  0  0
 22  6  1  0  0  0  0
 23 28  1  0  0  0  0
 23 30  1  0  0  0  0
 24  2  1  0  0  0  0
 26  8  1  0  0  0  0
 27 21  1  0  0  0  0
 27 25  1  0  0  0  0
 29 35  1  0  0  0  0
 30 29  2  0  0  0  0
 30 31  1  0  0  0  0
 31 34  2  0  0  0  0
 34 33  1  0  0  0  0
 34 32  1  0  0  0  0
 35 33  2  0  0  0  0
 37 36  1  0  0  0  0
M  END
>  <MODEL>
4

>  <REMARK>
 VINA RESULT:      -1.5      3.068      7.052
  Name = 
  2 active torsions:
  status: ('A' for Active; 'I' for Inactive)
    1  A    between atoms: C_4  and  C_36
    2  A    between atoms: C_23  and  C_30
                            x       y       z     vdW  Elec       q    Type
                         _______ _______ _______ _____ _____    ______ ____

>  <TORSDO>
F 2

$$$$
=
 OpenBabel11122413543D

 37 43  0  0  1  0  0  0  0  0999 V2000
  162.4260  210.8640  148.6720 O   0  0  0  0  0  0  0  0  0  0  0  0
  161.7570  206.6440  147.5120 C   0  0  0  0  0  0  0  0  0  0  0  0
  160.8220  207.7780  151.5760 C   0  0  1  0  0  3  0  0  0  0  0  0
  162.6330  212.2380  148.4440 C   0  0  2  0  0  3  0  0  0  0  0  0
  160.2690  210.7000  152.1030 C   0  0  0  0  0  2  0  0  0  0  0  0
  160.6940  206.0670  149.7870 C   0  0  0  0  0  0  0  0  0  0  0  0
  161.8880  208.7600  151.7770 N   0  0  2  0  0  0  0  0  0  0  0  0
  160.0230  212.5120  148.7370 C   0  0  2  0  0  3  0  0  0  0  0  0
  160.9310  207.3310  150.1740 C   0  0  0  0  0  0  0  0  0  0  0  0
  161.4010  209.8280  152.6880 C   0  0  2  0  0  3  0  0  0  0  0  0
  160.3300  205.0830  150.7740 N   0  0  0  0  0  0  0  0  0  0  0  0
  161.3360  212.9880  148.0840 C   0  0  0  0  0  2  0  0  0  0  0  0
  161.6340  208.3360  149.3620 C   0  0  2  0  0  3  0  0  0  0  0  0
  160.7430  207.3690  146.6430 C   0  0  0  0  0  1  0  0  0  0  0  0
  161.2260  206.7600  153.8320 C   0  0  0  0  0  3  0  0  0  0  0  0
  160.4280  205.3110  152.0530 C   0  0  0  0  0  3  0  0  0  0  0  0
  162.5530  207.6530  148.3520 C   0  0  0  0  0  2  0  0  0  0  0  0
  159.9840  212.4920  150.2730 C   0  0  0  0  0  2  0  0  0  0  0  0
  160.7410  211.2890  150.7970 C   0  0  1  0  0  3  0  0  0  0  0  0
  160.8940  206.6210  152.5420 C   0  0  0  0  0  0  0  0  0  0  0  0
  162.4260  209.1090  150.4190 C   0  0  1  0  0  3  0  0  0  0  0  0
  161.0300  205.6050  148.3890 C   0  0  0  0  0  2  0  0  0  0  0  0
  160.9690  209.2680  154.0590 C   0  0  1  0  0  3  0  0  0  0  0  0
  162.7210  205.9110  146.6040 C   0  0  0  0  0  1  0  0  0  0  0  0
  162.1060  211.5530  150.8790 O   0  0  0  0  0  0  0  0  0  0  0  0
  159.6040  211.2950  148.1940 O   0  0  0  0  0  1  0  0  0  0  0  0
  162.7180  210.6050  150.0380 C   0  0  2  0  0  3  0  0  0  0  0  0
  161.7580  208.0210  154.4620 C   0  0  0  0  0  2  0  0  0  0  0  0
  162.0950  210.2360  156.0680 C   0  0  0  0  0  3  0  0  0  0  0  0
  161.0710  210.3190  155.1220 C   0  0  0  0  0  0  0  0  0  0  0  0
  160.1570  211.3790  155.1840 C   0  0  0  0  0  3  0  0  0  0  0  0
  159.4110  213.3660  156.2670 F   0  0  0  0  0  0  0  0  0  0  0  0
  161.2930  212.2330  157.1040 N   0  0  0  0  0  0  0  0  0  0  0  0
  160.2870  212.3350  156.1940 C   0  0  0  0  0  0  0  0  0  0  0  0
  162.1910  211.2120  157.0620 C   0  0  0  0  0  3  0  0  0  0  0  0
  163.6960  212.4480  147.3750 C   0  0  0  0  0  2  0  0  0  0  0  0
  163.2130  213.3470  146.3390 N   0  0  0  0  0  1  0  0  0  0  0  0
  1 27  1  0  0  0  0
  2 17  1  0  0  0  0
  2 22  1  0  0  0  0
  3  9  1  6  0  0  0
  3  7  1  0  0  0  0
  3 20  1  0  0  0  0
  4 36  1  6  0  0  0
  4  1  1  0  0  0  0
  5 10  1  0  0  0  0
  6  9  2  0  0  0  0
  6 11  1  0  0  0  0
  7 10  1  0  0  0  0
  8 18  1  0  0  0  0
 10 23  1  0  0  0  0
 11 16  2  0  0  0  0
 12  4  1  0  0  0  0
 12  8  1  0  0  0  0
 13  9  1  0  0  0  0
 13 21  1  0  0  0  0
 14  2  1  0  0  0  0
 15 28  1  0  0  0  0
 16 20  1  0  0  0  0
 17 13  1  0  0  0  0
 18 19  1  0  0  0  0
 19 25  1  0  0  0  0
 19  5  1  0  0  0  0
 20 15  2  0  0  0  0
 21  7  1  0  0  0  0
 22  6  1  0  0  0  0
 23 28  1  0  0  0  0
 23 30  1  0  0  0  0
 24  2  1  0  0  0  0
 26  8  1  0  0  0  0
 27 21  1  0  0  0  0
 27 25  1  0  0  0  0
 29 35  1  0  0  0  0
 30 31  1  0  0  0  0
 30 29  2  0  0  0  0
 31 34  2  0  0  0  0
 34 32  1  0  0  0  0
 34 33  1  0  0  0  0
 35 33  2  0  0  0  0
 37 36  1  0  0  0  0
M  END
>  <MODEL>
5

>  <REMARK>
 VINA RESULT:      -1.1      3.001      6.997
  Name = 
  2 active torsions:
  status: ('A' for Active; 'I' for Inactive)
    1  A    between atoms: C_4  and  C_36
    2  A    between atoms: C_23  and  C_30
                            x       y       z     vdW  Elec       q    Type
                         _______ _______ _______ _____ _____    ______ ____

>  <TORSDO>
F 2

$$$$
