=
 OpenBabel11122412453D

 30 35  0  0  1  0  0  0  0  0999 V2000
  161.5870  208.1410  151.3840 C   0  0  0  0  0  0  0  0  0  0  0  0
  160.8180  209.5210  153.3350 C   0  0  2  0  0  3  0  0  0  0  0  0
  160.9400  204.4270  153.2120 N   0  0  0  0  0  2  0  0  0  0  0  0
  161.8170  206.8250  150.6910 C   0  0  0  0  0  0  0  0  0  0  0  0
  162.0050  209.4160  150.7040 C   0  0  0  0  0  2  0  0  0  0  0  0
  163.0520  208.2090  147.5020 O   0  0  0  0  0  0  0  0  0  0  0  0
  161.4730  204.4520  148.5620 C   0  0  1  0  0  3  0  0  0  0  0  0
  162.4680  208.1290  148.6160 C   0  0  0  0  0  0  0  0  0  0  0  0
  160.8330  203.9830  149.7840 N   0  0  1  0  0  0  0  0  0  0  0  0
  161.3350  203.5410  152.1740 C   0  0  0  0  0  0  0  0  0  0  0  0
  161.9650  209.3090  149.2530 N   0  0  0  0  0  0  0  0  0  0  0  0
  162.2660  206.7790  149.2430 C   0  0  2  0  0  3  0  0  0  0  0  0
  160.5000  209.3880  154.8030 C   0  0  0  0  0  3  0  0  0  0  0  0
  160.6890  202.5500  149.5380 C   0  0  0  0  0  2  0  0  0  0  0  0
  160.8830  203.6660  147.4120 C   0  0  0  0  0  2  0  0  0  0  0  0
  159.7460  210.1490  152.6960 O   0  0  0  0  0  1  0  0  0  0  0  0
  161.0980  205.7110  152.7000 N   0  0  0  0  0  0  0  0  0  0  0  0
  160.3340  208.2090  155.4050 C   0  0  0  0  0  3  0  0  0  0  0  0
  161.1130  208.1970  152.6550 C   0  0  0  0  0  0  0  0  0  0  0  0
  161.5890  205.6800  151.3730 C   0  0  0  0  0  0  0  0  0  0  0  0
  161.3840  202.2940  152.3390 O   0  0  0  0  0  0  0  0  0  0  0  0
  161.7540  204.2490  150.9010 C   0  0  2  0  0  3  0  0  0  0  0  0
  160.4600  202.3620  148.0490 C   0  0  0  0  0  2  0  0  0  0  0  0
  160.3870  206.4250  147.8200 O   0  0  0  0  0  0  0  0  0  0  0  0
  160.4950  206.9430  154.6730 C   0  0  0  0  0  3  0  0  0  0  0  0
  160.8590  206.9350  153.3900 C   0  0  0  0  0  0  0  0  0  0  0  0
  161.3300  205.9320  148.4270 C   0  0  0  0  0  0  0  0  0  0  0  0
  161.7840  210.5390  148.4940 C   0  0  0  0  0  2  0  0  0  0  0  0
  161.1980  212.9440  148.8370 C   0  0  0  0  0  1  0  0  0  0  0  0
  161.9530  211.7540  149.3930 C   0  0  0  0  0  2  0  0  0  0  0  0
  1 19  2  0  0  0  0
  2 16  1  6  0  0  0
  2 13  1  0  0  0  0
  4 20  2  0  0  0  0
  4  1  1  0  0  0  0
  5  1  1  0  0  0  0
  6  8  2  0  0  0  0
  7 15  1  6  0  0  0
  7  9  1  0  0  0  0
  8 12  1  0  0  0  0
  8 11  1  0  0  0  0
  9 14  1  6  0  0  0
  9 22  1  0  0  0  0
 10 21  2  0  0  0  0
 10  3  1  0  0  0  0
 11  5  1  0  0  0  0
 12 27  1  6  0  0  0
 12  4  1  0  0  0  0
 13 18  2  0  0  0  0
 15 23  1  0  0  0  0
 17  3  1  0  0  0  0
 17 26  1  0  0  0  0
 19  2  1  0  0  0  0
 19 26  1  0  0  0  0
 20 17  1  0  0  0  0
 22 20  1  1  0  0  0
 22 10  1  0  0  0  0
 23 14  1  0  0  0  0
 24 27  2  0  0  0  0
 25 18  1  0  0  0  0
 26 25  2  0  0  0  0
 27  7  1  0  0  0  0
 28 11  1  0  0  0  0
 28 30  1  0  0  0  0
 29 30  1  0  0  0  0
M  END
>  <MODEL>
1

>  <REMARK>
 VINA RESULT:      -8.1      0.000      0.000
  Name = 
  2 active torsions:
  status: ('A' for Active; 'I' for Inactive)
    1  A    between atoms: N_11  and  C_28
    2  A    between atoms: C_28  and  C_30
                            x       y       z     vdW  Elec       q    Type
                         _______ _______ _______ _____ _____    ______ ____

>  <TORSDO>
F 2

$$$$
=
 OpenBabel11122412453D

 30 35  0  0  1  0  0  0  0  0999 V2000
  161.4590  209.1390  151.4290 C   0  0  0  0  0  0  0  0  0  0  0  0
  160.6020  210.7480  153.1560 C   0  0  2  0  0  3  0  0  0  0  0  0
  160.8230  205.6870  153.7170 N   0  0  0  0  0  2  0  0  0  0  0  0
  161.7370  207.7480  150.9250 C   0  0  0  0  0  0  0  0  0  0  0  0
  161.8750  210.3210  150.5980 C   0  0  0  0  0  2  0  0  0  0  0  0
  163.0480  208.7240  147.6180 O   0  0  0  0  0  0  0  0  0  0  0  0
  161.5060  205.1060  149.1230 C   0  0  1  0  0  3  0  0  0  0  0  0
  162.4300  208.7790  148.7150 C   0  0  0  0  0  0  0  0  0  0  0  0
  160.8360  204.7890  150.3770 N   0  0  1  0  0  0  0  0  0  0  0  0
  161.2680  204.6790  152.8180 C   0  0  0  0  0  0  0  0  0  0  0  0
  161.8840  210.0220  149.1740 N   0  0  0  0  0  0  0  0  0  0  0  0
  162.2330  207.5200  149.5110 C   0  0  2  0  0  3  0  0  0  0  0  0
  160.2400  210.8030  154.6180 C   0  0  0  0  0  3  0  0  0  0  0  0
  160.7270  203.3330  150.3200 C   0  0  0  0  0  2  0  0  0  0  0  0
  160.9680  204.1610  148.0710 C   0  0  0  0  0  2  0  0  0  0  0  0
  159.5400  211.2600  152.4080 O   0  0  0  0  0  1  0  0  0  0  0  0
  160.9740  206.8950  153.0430 N   0  0  0  0  0  0  0  0  0  0  0  0
  160.0760  209.7110  155.3670 C   0  0  0  0  0  3  0  0  0  0  0  0
  160.9430  209.3520  152.6670 C   0  0  0  0  0  0  0  0  0  0  0  0
  161.5080  206.6990  151.7470 C   0  0  0  0  0  0  0  0  0  0  0  0
  161.3360  203.4670  153.1490 O   0  0  0  0  0  0  0  0  0  0  0  0
  161.7150  205.2220  151.4750 C   0  0  2  0  0  3  0  0  0  0  0  0
  160.5500  202.9440  148.8630 C   0  0  0  0  0  2  0  0  0  0  0  0
  160.4080  206.9380  148.0930 O   0  0  0  0  0  0  0  0  0  0  0  0
  160.2850  208.3630  154.8150 C   0  0  0  0  0  3  0  0  0  0  0  0
  160.6900  208.1930  153.5560 C   0  0  0  0  0  0  0  0  0  0  0  0
  161.3390  206.5520  148.7870 C   0  0  0  0  0  0  0  0  0  0  0  0
  161.7040  211.1360  148.2520 C   0  0  0  0  0  2  0  0  0  0  0  0
  162.3750  213.5420  148.1760 C   0  0  0  0  0  1  0  0  0  0  0  0
  162.8590  212.1190  148.3690 C   0  0  0  0  0  2  0  0  0  0  0  0
  1 19  2  0  0  0  0
  2 16  1  6  0  0  0
  2 13  1  0  0  0  0
  4  1  1  0  0  0  0
  4 20  2  0  0  0  0
  5  1  1  0  0  0  0
  6  8  2  0  0  0  0
  7 15  1  6  0  0  0
  7  9  1  0  0  0  0
  8 11  1  0  0  0  0
  9 14  1  1  0  0  0
  9 22  1  0  0  0  0
 10 21  2  0  0  0  0
 10  3  1  0  0  0  0
 11  5  1  0  0  0  0
 12  8  1  6  0  0  0
 12  4  1  0  0  0  0
 13 18  2  0  0  0  0
 15 23  1  0  0  0  0
 17 26  1  0  0  0  0
 17  3  1  0  0  0  0
 19  2  1  0  0  0  0
 19 26  1  0  0  0  0
 20 17  1  0  0  0  0
 22 20  1  1  0  0  0
 22 10  1  0  0  0  0
 23 14  1  0  0  0  0
 24 27  2  0  0  0  0
 25 18  1  0  0  0  0
 26 25  2  0  0  0  0
 27  7  1  0  0  0  0
 27 12  1  0  0  0  0
 28 30  1  0  0  0  0
 28 11  1  0  0  0  0
 29 30  1  0  0  0  0
M  END
>  <MODEL>
2

>  <REMARK>
 VINA RESULT:      -6.9      0.982      1.108
  Name = 
  2 active torsions:
  status: ('A' for Active; 'I' for Inactive)
    1  A    between atoms: N_11  and  C_28
    2  A    between atoms: C_28  and  C_30
                            x       y       z     vdW  Elec       q    Type
                         _______ _______ _______ _____ _____    ______ ____

>  <TORSDO>
F 2

$$$$
=
 OpenBabel11122412453D

 30 35  0  0  1  0  0  0  0  0999 V2000
  161.5120  207.3080  151.3530 C   0  0  0  0  0  0  0  0  0  0  0  0
  161.3550  205.1400  150.0980 C   0  0  0  0  0  0  0  0  0  0  0  0
  161.8870  209.7350  147.9580 N   0  0  0  0  0  2  0  0  0  0  0  0
  161.6040  208.8090  151.4130 C   0  0  0  0  0  0  0  0  0  0  0  0
  161.5480  206.5150  152.6310 C   0  0  0  0  0  2  0  0  0  0  0  0
  161.5110  209.1150  155.0890 O   0  0  0  0  0  0  0  0  0  0  0  0
  160.7520  211.8490  151.9770 C   0  0  1  0  0  3  0  0  0  0  0  0
  161.3650  208.6370  153.9310 C   0  0  0  0  0  0  0  0  0  0  0  0
  160.6260  211.6640  150.5370 N   0  0  1  0  0  0  0  0  0  0  0  0
  161.9720  211.0230  148.5530 C   0  0  0  0  0  0  0  0  0  0  0  0
  161.0120  207.2590  153.7600 N   0  0  0  0  0  0  0  0  0  0  0  0
  161.5190  209.5390  152.7400 C   0  0  2  0  0  3  0  0  0  0  0  0
  161.5860  204.5720  148.7210 C   0  0  0  0  0  3  0  0  0  0  0  0
  160.5360  213.0360  150.0460 C   0  0  0  0  0  2  0  0  0  0  0  0
  159.8690  213.0160  152.3600 C   0  0  0  0  0  2  0  0  0  0  0  0
  160.0750  204.7800  150.5260 O   0  0  0  0  0  1  0  0  0  0  0  0
  161.7390  208.8360  149.0100 N   0  0  0  0  0  0  0  0  0  0  0  0
  161.7480  205.3360  147.6380 C   0  0  0  0  0  3  0  0  0  0  0  0
  161.5110  206.6480  150.1660 C   0  0  0  0  0  0  0  0  0  0  0  0
  161.7340  209.5020  150.2590 C   0  0  0  0  0  0  0  0  0  0  0  0
  162.1890  212.0620  147.8760 O   0  0  0  0  0  0  0  0  0  0  0  0
  161.8520  211.0000  150.0640 C   0  0  2  0  0  3  0  0  0  0  0  0
  159.8170  213.8550  151.1040 C   0  0  0  0  0  2  0  0  0  0  0  0
  159.3000  210.3380  153.0880 O   0  0  0  0  0  0  0  0  0  0  0  0
  161.7570  206.8040  147.7290 C   0  0  0  0  0  3  0  0  0  0  0  0
  161.6470  207.4180  148.9080 C   0  0  2  0  0  3  0  0  0  0  0  0
  160.4360  210.5820  152.7010 C   0  0  0  0  0  0  0  0  0  0  0  0
  160.4650  206.4930  154.8710 C   0  0  0  0  0  2  0  0  0  0  0  0
  160.0680  207.1090  157.2610 C   0  0  0  0  0  1  0  0  0  0  0  0
  159.6960  207.3990  155.8200 C   0  0  0  0  0  2  0  0  0  0  0  0
  1  4  1  0  0  0  0
  1  5  1  0  0  0  0
  2 19  1  0  0  0  0
  2 16  1  0  0  0  0
  3 10  1  0  0  0  0
  3 17  1  0  0  0  0
  5 11  1  0  0  0  0
  7 15  1  1  0  0  0
  7 27  1  0  0  0  0
  8  6  2  0  0  0  0
  9 14  1  6  0  0  0
  9  7  1  0  0  0  0
 11  8  1  0  0  0  0
 11 28  1  0  0  0  0
 12  4  1  6  0  0  0
 12  8  1  0  0  0  0
 13  2  2  0  0  0  0
 14 23  1  0  0  0  0
 17 20  1  0  0  0  0
 18 25  2  0  0  0  0
 18 13  1  0  0  0  0
 19  1  2  0  0  0  0
 20  4  2  0  0  0  0
 21 10  2  0  0  0  0
 22 10  1  6  0  0  0
 22 20  1  0  0  0  0
 22  9  1  0  0  0  0
 23 15  1  0  0  0  0
 26 25  1  1  0  0  0
 26 17  1  0  0  0  0
 26 19  1  0  0  0  0
 27 12  1  0  0  0  0
 27 24  2  0  0  0  0
 28 30  1  0  0  0  0
 30 29  1  0  0  0  0
M  END
>  <MODEL>
3

>  <REMARK>
 VINA RESULT:      -6.3      1.962      7.220
  Name = 
  2 active torsions:
  status: ('A' for Active; 'I' for Inactive)
    1  A    between atoms: N_11  and  C_28
    2  A    between atoms: C_28  and  C_30
                            x       y       z     vdW  Elec       q    Type
                         _______ _______ _______ _____ _____    ______ ____

>  <TORSDO>
F 2

$$$$
=
 OpenBabel11122412453D

 30 35  0  0  1  0  0  0  0  0999 V2000
  160.0560  212.5310  150.9150 C   0  0  0  0  0  0  0  0  0  0  0  0
  158.1040  214.0350  151.3950 C   0  0  2  0  0  3  0  0  0  0  0  0
  159.6960  210.2450  154.4080 N   0  0  0  0  0  2  0  0  0  0  0  0
  160.9460  211.3600  151.2340 C   0  0  0  0  0  0  0  0  0  0  0  0
  160.3680  213.3900  149.7210 C   0  0  0  0  0  2  0  0  0  0  0  0
  163.0940  211.6030  148.2450 O   0  0  0  0  0  0  0  0  0  0  0  0
  162.3310  208.4800  150.9660 C   0  0  1  0  0  3  0  0  0  0  0  0
  162.1030  211.7420  149.0110 C   0  0  0  0  0  0  0  0  0  0  0  0
  161.3510  208.3490  152.0360 N   0  0  1  0  0  0  0  0  0  0  0  0
  160.7660  209.3240  154.2420 C   0  0  0  0  0  0  0  0  0  0  0  0
  161.0500  212.6510  148.6690 N   0  0  0  0  0  0  0  0  0  0  0  0
  162.0170  210.9110  150.2600 C   0  0  2  0  0  3  0  0  0  0  0  0
  157.1830  214.4240  152.5230 C   0  0  0  0  0  3  0  0  0  0  0  0
  161.7500  207.1010  152.6820 C   0  0  0  0  0  2  0  0  0  0  0  0
  162.6010  207.0920  150.4290 C   0  0  0  0  0  2  0  0  0  0  0  0
  157.3340  213.6860  150.2840 O   0  0  0  0  0  1  0  0  0  0  0  0
  159.7090  211.0560  153.2770 N   0  0  0  0  0  0  0  0  0  0  0  0
  157.0910  213.7270  153.6580 C   0  0  0  0  0  3  0  0  0  0  0  0
  159.0440  212.8950  151.7440 C   0  0  0  0  0  0  0  0  0  0  0  0
  160.7550  210.6930  152.3950 C   0  0  0  0  0  0  0  0  0  0  0  0
  161.0800  208.4920  155.1330 O   0  0  0  0  0  0  0  0  0  0  0  0
  161.5180  209.5010  152.9380 C   0  0  2  0  0  3  0  0  0  0  0  0
  162.3150  206.1890  151.6060 C   0  0  0  0  0  2  0  0  0  0  0  0
  161.2190  209.0800  148.9590 O   0  0  0  0  0  0  0  0  0  0  0  0
  157.9270  212.5420  153.9010 C   0  0  0  0  0  3  0  0  0  0  0  0
  158.8400  212.1520  153.0100 C   0  0  0  0  0  0  0  0  0  0  0  0
  161.8580  209.4520  149.9340 C   0  0  0  0  0  0  0  0  0  0  0  0
  160.9110  213.1420  147.3040 C   0  0  0  0  0  2  0  0  0  0  0  0
  158.5940  212.6050  146.5350 C   0  0  0  0  0  1  0  0  0  0  0  0
  160.0520  212.1950  146.4800 C   0  0  0  0  0  2  0  0  0  0  0  0
  1  4  1  0  0  0  0
  1 19  2  0  0  0  0
  2 16  1  6  0  0  0
  2 19  1  0  0  0  0
  2 13  1  0  0  0  0
  4 20  2  0  0  0  0
  5  1  1  0  0  0  0
  6  8  2  0  0  0  0
  7 15  1  6  0  0  0
  7  9  1  0  0  0  0
  9 14  1  1  0  0  0
  9 22  1  0  0  0  0
 10  3  1  0  0  0  0
 10 21  2  0  0  0  0
 11  8  1  0  0  0  0
 11  5  1  0  0  0  0
 12  8  1  6  0  0  0
 12  4  1  0  0  0  0
 13 18  2  0  0  0  0
 15 23  1  0  0  0  0
 17  3  1  0  0  0  0
 18 25  1  0  0  0  0
 19 26  1  0  0  0  0
 20 17  1  0  0  0  0
 22 20  1  6  0  0  0
 22 10  1  0  0  0  0
 23 14  1  0  0  0  0
 24 27  2  0  0  0  0
 26 17  1  0  0  0  0
 26 25  2  0  0  0  0
 27 12  1  0  0  0  0
 27  7  1  0  0  0  0
 28 11  1  0  0  0  0
 30 29  1  0  0  0  0
 30 28  1  0  0  0  0
M  END
>  <MODEL>
4

>  <REMARK>
 VINA RESULT:      -5.8      3.100      5.029
  Name = 
  2 active torsions:
  status: ('A' for Active; 'I' for Inactive)
    1  A    between atoms: N_11  and  C_28
    2  A    between atoms: C_28  and  C_30
                            x       y       z     vdW  Elec       q    Type
                         _______ _______ _______ _____ _____    ______ ____

>  <TORSDO>
F 2

$$$$
=
 OpenBabel11122412453D

 30 35  0  0  1  0  0  0  0  0999 V2000
  161.3290  208.4980  152.6620 C   0  0  0  0  0  0  0  0  0  0  0  0
  161.3820  206.0210  152.2510 C   0  0  0  0  0  0  0  0  0  0  0  0
  161.9760  209.6010  148.6720 N   0  0  0  0  0  2  0  0  0  0  0  0
  161.3600  209.9270  152.1920 C   0  0  0  0  0  0  0  0  0  0  0  0
  161.2570  208.2070  154.1360 C   0  0  0  0  0  2  0  0  0  0  0  0
  160.8670  211.4940  155.4950 O   0  0  0  0  0  0  0  0  0  0  0  0
  160.3460  212.9040  151.5610 C   0  0  1  0  0  3  0  0  0  0  0  0
  160.8610  210.6320  154.5760 C   0  0  0  0  0  0  0  0  0  0  0  0
  160.3810  212.2170  150.2770 N   0  0  1  0  0  0  0  0  0  0  0  0
  161.9510  211.0190  148.7750 C   0  0  0  0  0  0  0  0  0  0  0  0
  160.5780  209.2600  154.8760 N   0  0  0  0  0  0  0  0  0  0  0  0
  161.1090  211.0670  153.1600 C   0  0  2  0  0  3  0  0  0  0  0  0
  161.7780  205.0250  151.1920 C   0  0  0  0  0  3  0  0  0  0  0  0
  160.2950  213.3200  149.3240 C   0  0  0  0  0  2  0  0  0  0  0  0
  159.3870  214.0660  151.4270 C   0  0  0  0  0  2  0  0  0  0  0  0
  160.0780  205.7450  152.6670 O   0  0  0  0  0  1  0  0  0  0  0  0
  161.7490  209.1200  149.9580 N   0  0  0  0  0  0  0  0  0  0  0  0
  162.0280  205.3710  149.9270 C   0  0  0  0  0  3  0  0  0  0  0  0
  161.4770  207.4650  151.7930 C   0  0  0  0  0  0  0  0  0  0  0  0
  161.5880  210.1790  150.8830 C   0  0  0  0  0  0  0  0  0  0  0  0
  162.2020  211.7670  147.7940 O   0  0  0  0  0  0  0  0  0  0  0  0
  161.6730  211.5180  150.1790 C   0  0  2  0  0  3  0  0  0  0  0  0
  159.4390  214.4050  149.9550 C   0  0  0  0  0  2  0  0  0  0  0  0
  158.8390  211.7790  153.0070 O   0  0  0  0  0  0  0  0  0  0  0  0
  161.9750  206.7740  149.4900 C   0  0  0  0  0  3  0  0  0  0  0  0
  161.7190  207.7540  150.3590 C   0  0  2  0  0  3  0  0  0  0  0  0
  160.0000  211.9510  152.6590 C   0  0  0  0  0  0  0  0  0  0  0  0
  159.9430  208.8940  156.1350 C   0  0  0  0  0  2  0  0  0  0  0  0
  160.5300  206.7410  157.2610 C   0  0  0  0  0  1  0  0  0  0  0  0
  159.6830  207.3970  156.1880 C   0  0  0  0  0  2  0  0  0  0  0  0
  1  5  1  0  0  0  0
  2 16  1  0  0  0  0
  3 10  1  0  0  0  0
  3 17  1  0  0  0  0
  4  1  1  0  0  0  0
  5 11  1  0  0  0  0
  7 15  1  6  0  0  0
  7 27  1  0  0  0  0
  8 11  1  0  0  0  0
  8  6  2  0  0  0  0
  9 14  1  6  0  0  0
  9  7  1  0  0  0  0
 11 28  1  0  0  0  0
 12  4  1  6  0  0  0
 12  8  1  0  0  0  0
 13  2  2  0  0  0  0
 14 23  1  0  0  0  0
 17 26  1  0  0  0  0
 17 20  1  0  0  0  0
 18 13  1  0  0  0  0
 19  2  1  0  0  0  0
 19  1  2  0  0  0  0
 20  4  2  0  0  0  0
 21 10  2  0  0  0  0
 22 10  1  6  0  0  0
 22  9  1  0  0  0  0
 22 20  1  0  0  0  0
 23 15  1  0  0  0  0
 25 18  2  0  0  0  0
 26 25  1  1  0  0  0
 26 19  1  0  0  0  0
 27 24  2  0  0  0  0
 27 12  1  0  0  0  0
 28 30  1  0  0  0  0
 30 29  1  0  0  0  0
M  END
>  <MODEL>
5

>  <REMARK>
 VINA RESULT:      -5.6      2.509      7.282
  Name = 
  2 active torsions:
  status: ('A' for Active; 'I' for Inactive)
    1  A    between atoms: N_11  and  C_28
    2  A    between atoms: C_28  and  C_30
                            x       y       z     vdW  Elec       q    Type
                         _______ _______ _______ _____ _____    ______ ____

>  <TORSDO>
F 2

$$$$
=
 OpenBabel11122412453D

 30 35  0  0  1  0  0  0  0  0999 V2000
  160.8320  204.1350  148.6370 C   0  0  0  0  0  0  0  0  0  0  0  0
  161.1540  201.6590  148.8940 C   0  0  2  0  0  3  0  0  0  0  0  0
  161.1070  205.0230  152.7220 N   0  0  0  0  0  2  0  0  0  0  0  0
  160.7670  205.5350  149.1870 C   0  0  0  0  0  0  0  0  0  0  0  0
  160.5570  203.9030  147.1770 C   0  0  0  0  0  2  0  0  0  0  0  0
  160.2290  207.2560  145.9690 O   0  0  0  0  0  0  0  0  0  0  0  0
  161.5800  208.5900  149.7280 C   0  0  1  0  0  3  0  0  0  0  0  0
  160.5620  206.3710  146.8030 C   0  0  0  0  0  0  0  0  0  0  0  0
  161.9480  207.8630  150.9360 N   0  0  1  0  0  0  0  0  0  0  0  0
  160.9520  206.4360  152.7050 C   0  0  0  0  0  0  0  0  0  0  0  0
  160.9070  205.0540  146.3570 N   0  0  0  0  0  0  0  0  0  0  0  0
  160.6380  206.7280  148.2600 C   0  0  2  0  0  3  0  0  0  0  0  0
  161.1520  200.5880  149.9550 C   0  0  0  0  0  3  0  0  0  0  0  0
  162.1540  208.9370  151.9040 C   0  0  0  0  0  2  0  0  0  0  0  0
  162.4090  209.8540  149.6910 C   0  0  0  0  0  2  0  0  0  0  0  0
  162.3310  201.5550  148.1510 O   0  0  0  0  0  1  0  0  0  0  0  0
  161.0510  204.6150  151.3940 N   0  0  0  0  0  0  0  0  0  0  0  0
  161.1970  200.8600  151.2610 C   0  0  0  0  0  3  0  0  0  0  0  0
  161.0230  203.0650  149.4510 C   0  0  0  0  0  0  0  0  0  0  0  0
  160.8540  205.7150  150.5250 C   0  0  0  0  0  0  0  0  0  0  0  0
  160.8790  207.1160  153.7610 O   0  0  0  0  0  0  0  0  0  0  0  0
  160.8070  207.0100  151.3100 C   0  0  2  0  0  3  0  0  0  0  0  0
  162.6980  210.1360  151.1470 C   0  0  0  0  0  2  0  0  0  0  0  0
  162.7810  207.7020  147.8860 O   0  0  0  0  0  0  0  0  0  0  0  0
  161.2070  202.2450  151.7570 C   0  0  0  0  0  3  0  0  0  0  0  0
  161.1250  203.2760  150.9140 C   0  0  0  0  0  0  0  0  0  0  0  0
  161.7350  207.7220  148.5220 C   0  0  0  0  0  0  0  0  0  0  0  0
  161.2350  204.8080  144.9600 C   0  0  0  0  0  2  0  0  0  0  0  0
  163.4960  204.7030  146.0210 C   0  0  0  0  0  1  0  0  0  0  0  0
  162.6590  204.2890  144.8270 C   0  0  0  0  0  2  0  0  0  0  0  0
  1  4  1  0  0  0  0
  1 19  2  0  0  0  0
  2 16  1  1  0  0  0
  2 19  1  0  0  0  0
  2 13  1  0  0  0  0
  4 20  2  0  0  0  0
  5  1  1  0  0  0  0
  6  8  2  0  0  0  0
  7 15  1  6  0  0  0
  7  9  1  0  0  0  0
  9 22  1  0  0  0  0
  9 14  1  1  0  0  0
 10  3  1  0  0  0  0
 10 21  2  0  0  0  0
 11  8  1  0  0  0  0
 11  5  1  0  0  0  0
 12  8  1  6  0  0  0
 12 27  1  0  0  0  0
 12  4  1  0  0  0  0
 13 18  2  0  0  0  0
 15 23  1  0  0  0  0
 17  3  1  0  0  0  0
 18 25  1  0  0  0  0
 19 26  1  0  0  0  0
 20 17  1  0  0  0  0
 22 20  1  6  0  0  0
 22 10  1  0  0  0  0
 23 14  1  0  0  0  0
 24 27  2  0  0  0  0
 26 17  1  0  0  0  0
 26 25  2  0  0  0  0
 27  7  1  0  0  0  0
 28 11  1  0  0  0  0
 30 28  1  0  0  0  0
 30 29  1  0  0  0  0
M  END
>  <MODEL>
6

>  <REMARK>
 VINA RESULT:      -5.4      1.961      5.882
  Name = 
  2 active torsions:
  status: ('A' for Active; 'I' for Inactive)
    1  A    between atoms: N_11  and  C_28
    2  A    between atoms: C_28  and  C_30
                            x       y       z     vdW  Elec       q    Type
                         _______ _______ _______ _____ _____    ______ ____

>  <TORSDO>
F 2

$$$$
=
 OpenBabel11122412453D

 30 35  0  0  1  0  0  0  0  0999 V2000
  161.1460  207.4330  150.9070 C   0  0  0  0  0  0  0  0  0  0  0  0
  161.9580  209.8080  150.9240 C   0  0  0  0  0  0  0  0  0  0  0  0
  161.3280  206.9530  146.7490 N   0  0  0  0  0  2  0  0  0  0  0  0
  160.8160  206.1420  150.2070 C   0  0  0  0  0  0  0  0  0  0  0  0
  160.8900  207.5560  152.3850 C   0  0  0  0  0  2  0  0  0  0  0  0
  159.8780  204.2260  153.2160 O   0  0  0  0  0  0  0  0  0  0  0  0
  161.0190  203.0630  149.3330 C   0  0  1  0  0  3  0  0  0  0  0  0
  160.3980  205.1110  152.4850 C   0  0  0  0  0  0  0  0  0  0  0  0
  161.5500  203.8280  148.2130 N   0  0  1  0  0  0  0  0  0  0  0  0
  160.8960  205.6070  146.6110 C   0  0  0  0  0  0  0  0  0  0  0  0
  160.9870  206.2770  153.0720 N   0  0  0  0  0  0  0  0  0  0  0  0
  160.4330  204.9060  150.9970 C   0  0  2  0  0  3  0  0  0  0  0  0
  162.1910  210.9660  149.9880 C   0  0  0  0  0  3  0  0  0  0  0  0
  161.5600  202.8450  147.1320 C   0  0  0  0  0  2  0  0  0  0  0  0
  161.5800  201.6620  149.2310 C   0  0  0  0  0  2  0  0  0  0  0  0
  163.1150  209.5940  151.6750 O   0  0  0  0  0  1  0  0  0  0  0  0
  161.3250  207.2200  148.1150 N   0  0  0  0  0  0  0  0  0  0  0  0
  162.2090  210.8330  148.6600 C   0  0  0  0  0  3  0  0  0  0  0  0
  161.5630  208.5250  150.2170 C   0  0  0  0  0  0  0  0  0  0  0  0
  160.8950  206.0940  148.8580 C   0  0  0  0  0  0  0  0  0  0  0  0
  160.7130  205.0730  145.4860 O   0  0  0  0  0  0  0  0  0  0  0  0
  160.6090  204.9260  147.9350 C   0  0  2  0  0  3  0  0  0  0  0  0
  161.8390  201.4860  147.7520 C   0  0  0  0  0  2  0  0  0  0  0  0
  162.3320  203.4890  151.2610 O   0  0  0  0  0  0  0  0  0  0  0  0
  161.9560  209.5360  148.0150 C   0  0  0  0  0  3  0  0  0  0  0  0
  161.6530  208.4570  148.7390 C   0  0  2  0  0  3  0  0  0  0  0  0
  161.3170  203.7470  150.6270 C   0  0  0  0  0  0  0  0  0  0  0  0
  161.3270  206.3000  154.4890 C   0  0  0  0  0  2  0  0  0  0  0  0
  159.7510  207.3270  156.1350 C   0  0  0  0  0  1  0  0  0  0  0  0
  160.8550  207.5960  155.1320 C   0  0  0  0  0  2  0  0  0  0  0  0
  1  5  1  0  0  0  0
  2 16  1  0  0  0  0
  3 17  1  0  0  0  0
  4  1  1  0  0  0  0
  5 11  1  0  0  0  0
  7 15  1  1  0  0  0
  7 27  1  0  0  0  0
  8 11  1  0  0  0  0
  8  6  2  0  0  0  0
  9 14  1  6  0  0  0
  9  7  1  0  0  0  0
 10  3  1  0  0  0  0
 11 28  1  0  0  0  0
 12  4  1  6  0  0  0
 12  8  1  0  0  0  0
 13  2  2  0  0  0  0
 14 23  1  0  0  0  0
 17 26  1  0  0  0  0
 17 20  1  0  0  0  0
 18 13  1  0  0  0  0
 19  1  2  0  0  0  0
 19  2  1  0  0  0  0
 20  4  2  0  0  0  0
 21 10  2  0  0  0  0
 22 10  1  6  0  0  0
 22  9  1  0  0  0  0
 22 20  1  0  0  0  0
 23 15  1  0  0  0  0
 25 18  2  0  0  0  0
 26 25  1  6  0  0  0
 26 19  1  0  0  0  0
 27 12  1  0  0  0  0
 27 24  2  0  0  0  0
 28 30  1  0  0  0  0
 30 29  1  0  0  0  0
M  END
>  <MODEL>
7

>  <REMARK>
 VINA RESULT:      -5.4      1.735      4.997
  Name = 
  2 active torsions:
  status: ('A' for Active; 'I' for Inactive)
    1  A    between atoms: N_11  and  C_28
    2  A    between atoms: C_28  and  C_30
                            x       y       z     vdW  Elec       q    Type
                         _______ _______ _______ _____ _____    ______ ____

>  <TORSDO>
F 2

$$$$
=
 OpenBabel11122412453D

 30 35  0  0  1  0  0  0  0  0999 V2000
  161.2260  210.3360  151.5430 C   0  0  0  0  0  0  0  0  0  0  0  0
  160.0550  211.7970  153.2160 C   0  0  2  0  0  3  0  0  0  0  0  0
  160.7600  206.7720  153.6970 N   0  0  0  0  0  2  0  0  0  0  0  0
  161.6920  208.9960  151.0400 C   0  0  0  0  0  0  0  0  0  0  0  0
  161.5860  211.5780  150.7760 C   0  0  0  0  0  2  0  0  0  0  0  0
  163.1770  210.1970  147.8840 O   0  0  0  0  0  0  0  0  0  0  0  0
  161.9000  206.3970  149.1730 C   0  0  1  0  0  3  0  0  0  0  0  0
  162.4630  210.1560  148.9210 C   0  0  0  0  0  0  0  0  0  0  0  0
  161.1600  205.9760  150.3550 N   0  0  1  0  0  0  0  0  0  0  0  0
  161.3860  205.8430  152.8230 C   0  0  0  0  0  0  0  0  0  0  0  0
  161.7510  211.3220  149.3530 N   0  0  0  0  0  0  0  0  0  0  0  0
  162.3310  208.8610  149.6710 C   0  0  2  0  0  3  0  0  0  0  0  0
  159.5630  211.7730  154.6400 C   0  0  0  0  0  3  0  0  0  0  0  0
  161.2110  204.5190  150.2610 C   0  0  0  0  0  2  0  0  0  0  0  0
  161.5590  205.4310  148.0600 C   0  0  0  0  0  2  0  0  0  0  0  0
  159.0150  212.2190  152.3850 O   0  0  0  0  0  1  0  0  0  0  0  0
  160.8400  208.0080  153.0630 N   0  0  0  0  0  0  0  0  0  0  0  0
  159.4500  210.6490  155.3500 C   0  0  0  0  0  3  0  0  0  0  0  0
  160.5840  210.4590  152.7330 C   0  0  0  0  0  0  0  0  0  0  0  0
  161.5040  207.9060  151.8170 C   0  0  0  0  0  0  0  0  0  0  0  0
  161.5520  204.6350  153.1360 O   0  0  0  0  0  0  0  0  0  0  0  0
  161.8890  206.4670  151.5370 C   0  0  2  0  0  3  0  0  0  0  0  0
  161.2040  204.1560  148.7870 C   0  0  0  0  0  2  0  0  0  0  0  0
  160.7090  208.1340  148.0840 O   0  0  0  0  0  0  0  0  0  0  0  0
  159.8470  209.3470  154.7940 C   0  0  0  0  0  3  0  0  0  0  0  0
  160.3780  209.2550  153.5730 C   0  0  0  0  0  0  0  0  0  0  0  0
  161.6120  207.8270  148.8510 C   0  0  0  0  0  0  0  0  0  0  0  0
  161.5360  212.4370  148.4400 C   0  0  0  0  0  2  0  0  0  0  0  0
  160.6400  212.5910  146.1120 C   0  0  0  0  0  1  0  0  0  0  0  0
  160.3430  212.1660  147.5360 C   0  0  0  0  0  2  0  0  0  0  0  0
  1 19  2  0  0  0  0
  2 16  1  6  0  0  0
  2 13  1  0  0  0  0
  4  1  1  0  0  0  0
  4 20  2  0  0  0  0
  5  1  1  0  0  0  0
  6  8  2  0  0  0  0
  7 15  1  6  0  0  0
  7  9  1  0  0  0  0
  8 11  1  0  0  0  0
  8 12  1  0  0  0  0
  9 14  1  1  0  0  0
  9 22  1  0  0  0  0
 10 21  2  0  0  0  0
 10  3  1  0  0  0  0
 11  5  1  0  0  0  0
 12 27  1  6  0  0  0
 12  4  1  0  0  0  0
 13 18  2  0  0  0  0
 15 23  1  0  0  0  0
 17 26  1  0  0  0  0
 17  3  1  0  0  0  0
 19  2  1  0  0  0  0
 19 26  1  0  0  0  0
 20 17  1  0  0  0  0
 22 20  1  1  0  0  0
 22 10  1  0  0  0  0
 23 14  1  0  0  0  0
 24 27  2  0  0  0  0
 25 18  1  0  0  0  0
 26 25  2  0  0  0  0
 27  7  1  0  0  0  0
 28 11  1  0  0  0  0
 29 30  1  0  0  0  0
 30 28  1  0  0  0  0
M  END
>  <MODEL>
8

>  <REMARK>
 VINA RESULT:      -5.3      1.587      2.258
  Name = 
  2 active torsions:
  status: ('A' for Active; 'I' for Inactive)
    1  A    between atoms: N_11  and  C_28
    2  A    between atoms: C_28  and  C_30
                            x       y       z     vdW  Elec       q    Type
                         _______ _______ _______ _____ _____    ______ ____

>  <TORSDO>
F 2

$$$$
=
 OpenBabel11122412453D

 30 35  0  0  1  0  0  0  0  0999 V2000
  160.8130  209.8110  153.2560 C   0  0  0  0  0  0  0  0  0  0  0  0
  161.2340  207.3610  153.6030 C   0  0  0  0  0  0  0  0  0  0  0  0
  162.1930  209.9210  149.3020 N   0  0  0  0  0  2  0  0  0  0  0  0
  160.7850  211.0510  152.4030 C   0  0  0  0  0  0  0  0  0  0  0  0
  160.4510  209.9100  154.7130 C   0  0  0  0  0  2  0  0  0  0  0  0
  159.4030  213.3230  154.9600 O   0  0  0  0  0  0  0  0  0  0  0  0
  159.6060  213.5390  150.7590 C   0  0  1  0  0  3  0  0  0  0  0  0
  159.6970  212.2610  154.3470 C   0  0  0  0  0  0  0  0  0  0  0  0
  159.9990  212.5560  149.7600 N   0  0  1  0  0  0  0  0  0  0  0  0
  161.9870  211.2900  148.9800 C   0  0  0  0  0  0  0  0  0  0  0  0
  159.5120  210.9890  154.9790 N   0  0  0  0  0  0  0  0  0  0  0  0
  160.2000  212.3450  152.9340 C   0  0  2  0  0  3  0  0  0  0  0  0
  161.9630  206.2030  152.9700 C   0  0  0  0  0  3  0  0  0  0  0  0
  160.0010  213.3380  148.5260 C   0  0  0  0  0  2  0  0  0  0  0  0
  158.5750  214.4440  150.1220 C   0  0  0  0  0  2  0  0  0  0  0  0
  159.9100  206.9850  153.8400 O   0  0  0  0  0  1  0  0  0  0  0  0
  161.7440  209.7630  150.6100 N   0  0  0  0  0  0  0  0  0  0  0  0
  162.4440  206.2420  151.7260 C   0  0  0  0  0  3  0  0  0  0  0  0
  161.2640  208.6270  152.7680 C   0  0  0  0  0  0  0  0  0  0  0  0
  161.2650  210.9850  151.1410 C   0  0  0  0  0  0  0  0  0  0  0  0
  162.3620  211.7860  147.8860 O   0  0  0  0  0  0  0  0  0  0  0  0
  161.3520  212.0860  150.1030 C   0  0  2  0  0  3  0  0  0  0  0  0
  158.9110  214.3880  148.6490 C   0  0  0  0  0  2  0  0  0  0  0  0
  157.9540  212.5940  152.1750 O   0  0  0  0  0  0  0  0  0  0  0  0
  162.3310  207.4510  150.8960 C   0  0  0  0  0  3  0  0  0  0  0  0
  161.7810  208.5660  151.3800 C   0  0  2  0  0  3  0  0  0  0  0  0
  159.1360  212.8640  152.0070 C   0  0  0  0  0  0  0  0  0  0  0  0
  158.6610  210.8640  156.1550 C   0  0  0  0  0  2  0  0  0  0  0  0
  156.4780  212.0210  156.5330 C   0  0  0  0  0  1  0  0  0  0  0  0
  157.1920  210.9290  155.7620 C   0  0  0  0  0  2  0  0  0  0  0  0
  1  5  1  0  0  0  0
  2 16  1  0  0  0  0
  3 17  1  0  0  0  0
  4 12  1  0  0  0  0
  4  1  1  0  0  0  0
  5 11  1  0  0  0  0
  7 15  1  6  0  0  0
  7 27  1  0  0  0  0
  8  6  2  0  0  0  0
  8 11  1  0  0  0  0
  9 14  1  6  0  0  0
  9 22  1  0  0  0  0
  9  7  1  0  0  0  0
 10  3  1  0  0  0  0
 11 28  1  0  0  0  0
 12 27  1  6  0  0  0
 12  8  1  0  0  0  0
 13  2  2  0  0  0  0
 14 23  1  0  0  0  0
 17 20  1  0  0  0  0
 17 26  1  0  0  0  0
 18 13  1  0  0  0  0
 19  1  2  0  0  0  0
 19  2  1  0  0  0  0
 20  4  2  0  0  0  0
 21 10  2  0  0  0  0
 22 10  1  6  0  0  0
 22 20  1  0  0  0  0
 23 15  1  0  0  0  0
 25 18  2  0  0  0  0
 26 25  1  1  0  0  0
 26 19  1  0  0  0  0
 27 24  2  0  0  0  0
 30 28  1  0  0  0  0
 30 29  1  0  0  0  0
M  END
>  <MODEL>
9

>  <REMARK>
 VINA RESULT:      -5.2      3.236      7.333
  Name = 
  2 active torsions:
  status: ('A' for Active; 'I' for Inactive)
    1  A    between atoms: N_11  and  C_28
    2  A    between atoms: C_28  and  C_30
                            x       y       z     vdW  Elec       q    Type
                         _______ _______ _______ _____ _____    ______ ____

>  <TORSDO>
F 2

$$$$
