=
 OpenBabel11122412593D

 32 38  0  0  1  0  0  0  0  0999 V2000
  160.3490  208.4030  156.6030 C   0  0  1  0  0  3  0  0  0  0  0  0
  161.2030  206.5190  151.8480 C   0  0  0  0  0  0  0  0  0  0  0  0
  162.2040  210.4520  149.1960 C   0  0  0  0  0  3  0  0  0  0  0  0
  162.1970  209.6860  148.0330 C   0  0  0  0  0  3  0  0  0  0  0  0
  161.0140  204.2600  150.7220 C   0  0  0  0  0  0  0  0  0  0  0  0
  161.0310  203.5640  149.5120 C   0  0  0  0  0  0  0  0  0  0  0  0
  161.2370  206.7720  154.3500 C   0  0  1  0  0  3  0  0  0  0  0  0
  161.5770  208.7340  152.9440 C   0  0  0  0  0  2  0  0  0  0  0  0
  161.1990  203.1870  147.3830 C   0  0  0  0  0  0  0  0  0  0  0  0
  160.8790  209.1110  155.3510 C   0  0  2  0  0  3  0  0  0  0  0  0
  161.9610  209.8450  150.4280 C   0  0  0  0  0  3  0  0  0  0  0  0
  161.4580  207.8770  151.7420 N   0  0  0  0  0  0  0  0  0  0  0  0
  161.7060  208.4600  150.5250 C   0  0  0  0  0  0  0  0  0  0  0  0
  161.4670  206.3090  149.4180 C   0  0  0  0  0  0  0  0  0  0  0  0
  160.9620  202.0130  148.0090 N   0  0  0  0  0  0  0  0  0  0  0  0
  159.8040  207.1120  156.3020 O   0  0  0  0  0  0  0  0  0  0  0  0
  160.7830  208.1980  154.1150 C   0  0  2  0  0  3  0  0  0  0  0  0
  160.8590  202.2410  149.3150 N   0  0  0  0  0  0  0  0  0  0  0  0
  160.7250  206.2280  155.6870 C   0  0  0  0  0  2  0  0  0  0  0  0
  161.8550  208.6100  156.4100 C   0  0  1  0  0  3  0  0  0  0  0  0
  161.9490  208.3160  148.1070 C   0  0  0  0  0  3  0  0  0  0  0  0
  161.7030  207.6890  149.3430 C   0  0  0  0  0  0  0  0  0  0  0  0
  161.4740  205.5420  148.2300 C   0  0  0  0  0  3  0  0  0  0  0  0
  160.7560  205.9460  153.1810 C   0  0  0  0  0  2  0  0  0  0  0  0
  160.8250  203.4520  151.9670 C   0  0  0  0  0  1  0  0  0  0  0  0
  161.3820  203.3350  145.9140 C   0  0  0  0  0  1  0  0  0  0  0  0
  161.2230  205.6860  150.6880 C   0  0  0  0  0  0  0  0  0  0  0  0
  161.2470  204.1840  148.3250 C   0  0  0  0  0  0  0  0  0  0  0  0
  162.3130  209.7800  157.2600 C   0  0  0  0  0  2  0  0  0  0  0  0
  162.4150  210.9750  156.4400 N   0  0  0  0  0  0  0  0  0  0  0  0
  161.6230  212.0050  157.0860 C   0  0  0  0  0  1  0  0  0  0  0  0
  163.7980  211.4110  156.5120 C   0  0  0  0  0  1  0  0  0  0  0  0
  1 16  1  6  0  0  0
  2 24  1  0  0  0  0
  3 11  1  0  0  0  0
  4 21  1  0  0  0  0
  4  3  2  0  0  0  0
  5 25  1  0  0  0  0
  6  5  2  0  0  0  0
  7 24  1  6  0  0  0
  7 19  1  0  0  0  0
  8 17  1  0  0  0  0
  9 15  1  0  0  0  0
  9 28  2  0  0  0  0
 10 20  1  0  0  0  0
 10  1  1  0  0  0  0
 11 13  2  0  0  0  0
 12  2  1  0  0  0  0
 12  8  1  0  0  0  0
 13 12  1  0  0  0  0
 14 27  1  0  0  0  0
 15 18  2  0  0  0  0
 17  7  1  0  0  0  0
 17 10  1  0  0  0  0
 18  6  1  0  0  0  0
 19 16  1  0  0  0  0
 20  1  1  0  0  0  0
 20 29  1  0  0  0  0
 21 22  2  0  0  0  0
 22 14  1  0  0  0  0
 22 13  1  0  0  0  0
 23 28  1  0  0  0  0
 23 14  2  0  0  0  0
 26  9  1  0  0  0  0
 27  5  1  0  0  0  0
 27  2  2  0  0  0  0
 28  6  1  0  0  0  0
 30 32  1  0  0  0  0
 30 31  1  0  0  0  0
 30 29  1  0  0  0  0
M  END
>  <MODEL>
1

>  <REMARK>
 VINA RESULT:      -9.4      0.000      0.000
  Name = 
  2 active torsions:
  status: ('A' for Active; 'I' for Inactive)
    1  A    between atoms: C_20  and  C_29
    2  A    between atoms: C_29  and  N_30
                            x       y       z     vdW  Elec       q    Type
                         _______ _______ _______ _____ _____    ______ ____

>  <TORSDO>
F 2

$$$$
=
 OpenBabel11122412593D

 32 38  0  0  1  0  0  0  0  0999 V2000
  162.2950  212.9950  148.6310 C   0  0  1  0  0  3  0  0  0  0  0  0
  161.4120  207.9910  149.6690 C   0  0  0  0  0  0  0  0  0  0  0  0
  161.1130  207.8370  154.5060 C   0  0  0  0  0  3  0  0  0  0  0  0
  161.0670  206.4470  154.4720 C   0  0  0  0  0  3  0  0  0  0  0  0
  161.3300  205.8400  148.3370 C   0  0  0  0  0  0  0  0  0  0  0  0
  161.2730  204.4470  148.3900 C   0  0  0  0  0  0  0  0  0  0  0  0
  161.2930  210.2530  148.5750 C   0  0  1  0  0  3  0  0  0  0  0  0
  161.3060  210.1000  151.0080 C   0  0  0  0  0  2  0  0  0  0  0  0
  161.1560  202.4450  149.2150 C   0  0  0  0  0  0  0  0  0  0  0  0
  161.9320  212.3200  149.9590 C   0  0  2  0  0  3  0  0  0  0  0  0
  161.2060  208.5580  153.3160 C   0  0  0  0  0  3  0  0  0  0  0  0
  161.3590  208.6230  150.9020 N   0  0  0  0  0  0  0  0  0  0  0  0
  161.2550  207.9040  152.0660 C   0  0  0  0  0  0  0  0  0  0  0  0
  161.2380  205.8240  150.8070 C   0  0  0  0  0  0  0  0  0  0  0  0
  161.1920  202.3510  147.8680 N   0  0  0  0  0  0  0  0  0  0  0  0
  162.6640  212.0420  147.6260 O   0  0  0  0  0  0  0  0  0  0  0  0
  161.9570  210.7870  149.8280 C   0  0  2  0  0  3  0  0  0  0  0  0
  161.2630  203.5790  147.3590 N   0  0  0  0  0  0  0  0  0  0  0  0
  161.6570  211.0860  147.3420 C   0  0  0  0  0  2  0  0  0  0  0  0
  160.8440  212.9910  149.1270 C   0  0  1  0  0  3  0  0  0  0  0  0
  161.1120  205.7810  153.2490 C   0  0  0  0  0  3  0  0  0  0  0  0
  161.2060  206.4940  152.0380 C   0  0  0  0  0  0  0  0  0  0  0  0
  161.1800  204.4110  150.7870 C   0  0  0  0  0  3  0  0  0  0  0  0
  161.7070  208.8080  148.4250 C   0  0  0  0  0  2  0  0  0  0  0  0
  161.3420  206.4690  146.9790 C   0  0  0  0  0  1  0  0  0  0  0  0
  161.0670  201.2790  150.1370 C   0  0  0  0  0  1  0  0  0  0  0  0
  161.3290  206.5680  149.5820 C   0  0  0  0  0  0  0  0  0  0  0  0
  161.2060  203.7710  149.5650 C   0  0  0  0  0  0  0  0  0  0  0  0
  160.5180  214.3440  149.7310 C   0  0  0  0  0  2  0  0  0  0  0  0
  159.0880  214.4480  149.9630 N   0  0  0  0  0  0  0  0  0  0  0  0
  158.4280  213.7110  148.9010 C   0  0  0  0  0  1  0  0  0  0  0  0
  158.8140  213.7310  151.1950 C   0  0  0  0  0  1  0  0  0  0  0  0
  1 16  1  6  0  0  0
  1 20  1  0  0  0  0
  1 10  1  0  0  0  0
  2 12  1  0  0  0  0
  4  3  1  0  0  0  0
  5  6  2  0  0  0  0
  5 27  1  0  0  0  0
  6 28  1  0  0  0  0
  7 19  1  6  0  0  0
  7 17  1  0  0  0  0
  9 28  2  0  0  0  0
  9 26  1  0  0  0  0
 11  3  2  0  0  0  0
 12  8  1  0  0  0  0
 12 13  1  0  0  0  0
 13 11  1  0  0  0  0
 14 22  1  0  0  0  0
 15  9  1  0  0  0  0
 17 10  1  0  0  0  0
 17  8  1  0  0  0  0
 18 15  2  0  0  0  0
 18  6  1  0  0  0  0
 19 16  1  0  0  0  0
 20 29  1  0  0  0  0
 20 10  1  0  0  0  0
 21  4  2  0  0  0  0
 22 13  2  0  0  0  0
 22 21  1  0  0  0  0
 23 14  2  0  0  0  0
 24  7  1  0  0  0  0
 24  2  1  0  0  0  0
 25  5  1  0  0  0  0
 27  2  2  0  0  0  0
 27 14  1  0  0  0  0
 28 23  1  0  0  0  0
 29 30  1  0  0  0  0
 30 32  1  0  0  0  0
 31 30  1  0  0  0  0
M  END
>  <MODEL>
2

>  <REMARK>
 VINA RESULT:      -8.2      2.909      5.706
  Name = 
  2 active torsions:
  status: ('A' for Active; 'I' for Inactive)
    1  A    between atoms: C_20  and  C_29
    2  A    between atoms: C_29  and  N_30
                            x       y       z     vdW  Elec       q    Type
                         _______ _______ _______ _____ _____    ______ ____

>  <TORSDO>
F 2

$$$$
=
 OpenBabel11122412593D

 32 38  0  0  1  0  0  0  0  0999 V2000
  161.4860  202.0320  150.3870 C   0  0  1  0  0  3  0  0  0  0  0  0
  161.0180  206.7790  152.4230 C   0  0  0  0  0  0  0  0  0  0  0  0
  162.0260  209.7420  148.7200 C   0  0  0  0  0  3  0  0  0  0  0  0
  162.0020  210.8400  149.5750 C   0  0  0  0  0  3  0  0  0  0  0  0
  160.6300  207.7420  154.7320 C   0  0  0  0  0  0  0  0  0  0  0  0
  160.6190  208.8940  155.5190 C   0  0  0  0  0  0  0  0  0  0  0  0
  160.5640  204.3650  151.8820 C   0  0  1  0  0  3  0  0  0  0  0  0
  161.2290  205.8870  150.0970 C   0  0  0  0  0  2  0  0  0  0  0  0
  160.7690  210.9870  156.0650 C   0  0  0  0  0  0  0  0  0  0  0  0
  161.5050  203.4000  149.6950 C   0  0  2  0  0  3  0  0  0  0  0  0
  161.7820  208.4650  149.2240 C   0  0  0  0  0  3  0  0  0  0  0  0
  161.2830  206.9940  151.0800 N   0  0  0  0  0  0  0  0  0  0  0  0
  161.5100  208.2570  150.5940 C   0  0  0  0  0  0  0  0  0  0  0  0
  161.2010  209.1940  152.8150 C   0  0  0  0  0  0  0  0  0  0  0  0
  160.4460  210.2790  157.1690 N   0  0  0  0  0  0  0  0  0  0  0  0
  161.5930  202.1480  151.8120 O   0  0  0  0  0  0  0  0  0  0  0  0
  161.5260  204.5440  150.7260 C   0  0  2  0  0  3  0  0  0  0  0  0
  160.3520  208.9940  156.8370 N   0  0  0  0  0  0  0  0  0  0  0  0
  160.5670  202.9250  152.4050 C   0  0  0  0  0  2  0  0  0  0  0  0
  160.2210  202.5780  149.7160 C   0  0  1  0  0  3  0  0  0  0  0  0
  161.7330  210.6580  150.9300 C   0  0  0  0  0  3  0  0  0  0  0  0
  161.4850  209.3750  151.4550 C   0  0  0  0  0  0  0  0  0  0  0  0
  161.1700  210.3210  153.6700 C   0  0  0  0  0  3  0  0  0  0  0  0
  160.9540  205.3580  152.9520 C   0  0  0  0  0  2  0  0  0  0  0  0
  160.2650  206.4560  155.4040 C   0  0  0  0  0  1  0  0  0  0  0  0
  160.9540  212.4640  156.0370 C   0  0  0  0  0  1  0  0  0  0  0  0
  160.9460  207.8790  153.3310 C   0  0  0  0  0  0  0  0  0  0  0  0
  160.8820  210.1220  155.0050 C   0  0  0  0  0  0  0  0  0  0  0  0
  160.0380  201.9050  148.3680 C   0  0  0  0  0  2  0  0  0  0  0  0
  161.3200  201.7980  147.6930 N   0  0  0  0  0  0  0  0  0  0  0  0
  161.5350  200.3920  147.4050 C   0  0  0  0  0  1  0  0  0  0  0  0
  161.1700  202.4640  146.4110 C   0  0  0  0  0  1  0  0  0  0  0  0
  1 16  1  1  0  0  0
  2 24  1  0  0  0  0
  2 27  2  0  0  0  0
  3 11  2  0  0  0  0
  3  4  1  0  0  0  0
  4 21  2  0  0  0  0
  5 25  1  0  0  0  0
  5  6  2  0  0  0  0
  6 18  1  0  0  0  0
  7 19  1  1  0  0  0
  7 24  1  0  0  0  0
  8 17  1  0  0  0  0
  8 12  1  0  0  0  0
  9 15  1  0  0  0  0
 10 20  1  0  0  0  0
 10  1  1  0  0  0  0
 10 17  1  0  0  0  0
 11 13  1  0  0  0  0
 12  2  1  0  0  0  0
 13 12  1  0  0  0  0
 13 22  2  0  0  0  0
 14 27  1  0  0  0  0
 14 23  2  0  0  0  0
 16 19  1  0  0  0  0
 17  7  1  0  0  0  0
 18 15  2  0  0  0  0
 20  1  1  0  0  0  0
 21 22  1  0  0  0  0
 22 14  1  0  0  0  0
 23 28  1  0  0  0  0
 26  9  1  0  0  0  0
 27  5  1  0  0  0  0
 28  6  1  0  0  0  0
 28  9  2  0  0  0  0
 29 20  1  0  0  0  0
 30 29  1  0  0  0  0
 31 30  1  0  0  0  0
 32 30  1  0  0  0  0
M  END
>  <MODEL>
3

>  <REMARK>
 VINA RESULT:      -8.0      1.760      7.838
  Name = 
  2 active torsions:
  status: ('A' for Active; 'I' for Inactive)
    1  A    between atoms: C_20  and  C_29
    2  A    between atoms: C_29  and  N_30
                            x       y       z     vdW  Elec       q    Type
                         _______ _______ _______ _____ _____    ______ ____

>  <TORSDO>
F 2

$$$$
=
 OpenBabel11122412593D

 32 38  0  0  1  0  0  0  0  0999 V2000
  161.6650  210.1390  154.4450 C   0  0  1  0  0  3  0  0  0  0  0  0
  161.1560  206.7810  150.5260 C   0  0  0  0  0  0  0  0  0  0  0  0
  160.7700  202.4760  152.7210 C   0  0  0  0  0  3  0  0  0  0  0  0
  160.8340  201.8280  151.4910 C   0  0  0  0  0  3  0  0  0  0  0  0
  161.2720  206.8970  148.0000 C   0  0  0  0  0  0  0  0  0  0  0  0
  161.3230  206.1710  146.8090 C   0  0  0  0  0  0  0  0  0  0  0  0
  160.8830  208.8350  151.9520 C   0  0  1  0  0  3  0  0  0  0  0  0
  160.8570  206.6350  153.0040 C   0  0  0  0  0  2  0  0  0  0  0  0
  161.3470  204.4750  145.4590 C   0  0  0  0  0  0  0  0  0  0  0  0
  161.3290  208.6440  154.4750 C   0  0  2  0  0  3  0  0  0  0  0  0
  160.8310  203.8680  152.7760 C   0  0  0  0  0  3  0  0  0  0  0  0
  161.0280  206.0110  151.6710 N   0  0  0  0  0  0  0  0  0  0  0  0
  160.9580  204.6430  151.6030 C   0  0  0  0  0  0  0  0  0  0  0  0
  161.1300  204.7300  149.1800 C   0  0  0  0  0  0  0  0  0  0  0  0
  161.4180  205.6070  144.7250 N   0  0  0  0  0  0  0  0  0  0  0  0
  162.1280  210.5610  153.1560 O   0  0  0  0  0  0  0  0  0  0  0  0
  161.4760  208.0130  153.0790 C   0  0  2  0  0  3  0  0  0  0  0  0
  161.4030  206.6500  145.5510 N   0  0  0  0  0  0  0  0  0  0  0  0
  161.2060  210.3240  152.1060 C   0  0  0  0  0  2  0  0  0  0  0  0
  160.2090  209.6760  154.5680 C   0  0  1  0  0  3  0  0  0  0  0  0
  160.9570  202.5730  150.3200 C   0  0  0  0  0  3  0  0  0  0  0  0
  161.0200  203.9800  150.3590 C   0  0  0  0  0  0  0  0  0  0  0  0
  161.1830  204.0590  147.9360 C   0  0  0  0  0  3  0  0  0  0  0  0
  161.4130  208.2710  150.6550 C   0  0  0  0  0  2  0  0  0  0  0  0
  161.2620  208.3890  147.8870 C   0  0  0  0  0  1  0  0  0  0  0  0
  161.3310  203.1010  144.8860 C   0  0  0  0  0  1  0  0  0  0  0  0
  161.1880  206.1630  149.2390 C   0  0  0  0  0  0  0  0  0  0  0  0
  161.2850  204.8160  146.7870 C   0  0  0  0  0  0  0  0  0  0  0  0
  159.7640  209.8000  156.0140 C   0  0  0  0  0  2  0  0  0  0  0  0
  158.6910  210.7720  156.1180 N   0  0  0  0  0  0  0  0  0  0  0  0
  159.2690  211.9900  156.6570 C   0  0  0  0  0  1  0  0  0  0  0  0
  158.2750  211.0780  154.7610 C   0  0  0  0  0  1  0  0  0  0  0  0
  1 16  1  6  0  0  0
  1 10  1  0  0  0  0
  1 20  1  0  0  0  0
  2 24  1  0  0  0  0
  2 12  1  0  0  0  0
  3 11  1  0  0  0  0
  4  3  2  0  0  0  0
  5 27  1  0  0  0  0
  6  5  2  0  0  0  0
  7 24  1  6  0  0  0
  7 19  1  0  0  0  0
  7 17  1  0  0  0  0
  8 17  1  0  0  0  0
  9 28  2  0  0  0  0
 10 20  1  0  0  0  0
 12  8  1  0  0  0  0
 13 12  1  0  0  0  0
 13 11  2  0  0  0  0
 14 27  1  0  0  0  0
 14 22  1  0  0  0  0
 15  9  1  0  0  0  0
 15 18  2  0  0  0  0
 17 10  1  0  0  0  0
 18  6  1  0  0  0  0
 19 16  1  0  0  0  0
 20 29  1  0  0  0  0
 21 22  2  0  0  0  0
 21  4  1  0  0  0  0
 22 13  1  0  0  0  0
 23 14  2  0  0  0  0
 25  5  1  0  0  0  0
 26  9  1  0  0  0  0
 27  2  2  0  0  0  0
 28  6  1  0  0  0  0
 28 23  1  0  0  0  0
 29 30  1  0  0  0  0
 30 31  1  0  0  0  0
 32 30  1  0  0  0  0
M  END
>  <MODEL>
4

>  <REMARK>
 VINA RESULT:      -7.7      2.203      4.263
  Name = 
  2 active torsions:
  status: ('A' for Active; 'I' for Inactive)
    1  A    between atoms: C_20  and  C_29
    2  A    between atoms: C_29  and  N_30
                            x       y       z     vdW  Elec       q    Type
                         _______ _______ _______ _____ _____    ______ ____

>  <TORSDO>
F 2

$$$$
=
 OpenBabel11122412593D

 32 38  0  0  1  0  0  0  0  0999 V2000
  161.3220  210.3830  157.0980 C   0  0  1  0  0  3  0  0  0  0  0  0
  161.5020  207.6250  152.7090 C   0  0  0  0  0  0  0  0  0  0  0  0
  162.1450  210.9670  149.2560 C   0  0  0  0  0  3  0  0  0  0  0  0
  161.9740  210.0000  148.2700 C   0  0  0  0  0  3  0  0  0  0  0  0
  161.1500  205.2040  152.0620 C   0  0  0  0  0  0  0  0  0  0  0  0
  160.9960  204.2960  151.0140 C   0  0  0  0  0  0  0  0  0  0  0  0
  161.8820  208.3360  155.0920 C   0  0  1  0  0  3  0  0  0  0  0  0
  162.0340  209.9930  153.3090 C   0  0  0  0  0  2  0  0  0  0  0  0
  160.8670  203.5260  148.9900 C   0  0  0  0  0  0  0  0  0  0  0  0
  161.6770  210.8300  155.6750 C   0  0  2  0  0  3  0  0  0  0  0  0
  162.0720  210.6070  150.6010 C   0  0  0  0  0  3  0  0  0  0  0  0
  161.7470  208.9320  152.3170 N   0  0  0  0  0  0  0  0  0  0  0  0
  161.8270  209.2720  150.9900 C   0  0  0  0  0  0  0  0  0  0  0  0
  161.4270  206.9620  150.3480 C   0  0  0  0  0  0  0  0  0  0  0  0
  160.7130  202.4960  149.8510 N   0  0  0  0  0  0  0  0  0  0  0  0
  160.7350  209.0750  157.1200 O   0  0  0  0  0  0  0  0  0  0  0  0
  161.4080  209.7080  154.6560 C   0  0  2  0  0  3  0  0  0  0  0  0
  160.7930  202.9650  151.0930 N   0  0  0  0  0  0  0  0  0  0  0  0
  161.5580  208.0650  156.5640 C   0  0  0  0  0  2  0  0  0  0  0  0
  162.7880  210.5040  156.6680 C   0  0  1  0  0  3  0  0  0  0  0  0
  161.7330  208.6760  148.6310 C   0  0  0  0  0  3  0  0  0  0  0  0
  161.6570  208.2960  149.9850 C   0  0  0  0  0  0  0  0  0  0  0  0
  161.2660  205.9880  149.3350 C   0  0  0  0  0  3  0  0  0  0  0  0
  161.2410  207.3230  154.1730 C   0  0  0  0  0  2  0  0  0  0  0  0
  161.1300  204.6470  153.4510 C   0  0  0  0  0  1  0  0  0  0  0  0
  160.8450  203.3940  147.5080 C   0  0  0  0  0  1  0  0  0  0  0  0
  161.3580  206.5920  151.7340 C   0  0  0  0  0  0  0  0  0  0  0  0
  161.0480  204.6790  149.7130 C   0  0  0  0  0  0  0  0  0  0  0  0
  163.3650  211.7970  157.2130 C   0  0  0  0  0  2  0  0  0  0  0  0
  164.8100  211.7920  157.0710 N   0  0  0  0  0  0  0  0  0  0  0  0
  165.1020  211.4500  155.6910 C   0  0  0  0  0  1  0  0  0  0  0  0
  165.2510  213.1620  157.2600 C   0  0  0  0  0  1  0  0  0  0  0  0
  1 16  1  6  0  0  0
  2 24  1  0  0  0  0
  3 11  1  0  0  0  0
  4 21  1  0  0  0  0
  4  3  2  0  0  0  0
  5 25  1  0  0  0  0
  6 18  1  0  0  0  0
  6  5  2  0  0  0  0
  7 24  1  6  0  0  0
  7 19  1  0  0  0  0
  8 17  1  0  0  0  0
  9 28  2  0  0  0  0
  9 15  1  0  0  0  0
 10 20  1  0  0  0  0
 10  1  1  0  0  0  0
 11 13  2  0  0  0  0
 12  2  1  0  0  0  0
 12  8  1  0  0  0  0
 13 12  1  0  0  0  0
 14 27  1  0  0  0  0
 15 18  2  0  0  0  0
 17  7  1  0  0  0  0
 17 10  1  0  0  0  0
 19 16  1  0  0  0  0
 20  1  1  0  0  0  0
 20 29  1  0  0  0  0
 21 22  2  0  0  0  0
 22 14  1  0  0  0  0
 22 13  1  0  0  0  0
 23 28  1  0  0  0  0
 23 14  2  0  0  0  0
 26  9  1  0  0  0  0
 27  5  1  0  0  0  0
 27  2  2  0  0  0  0
 28  6  1  0  0  0  0
 30 29  1  0  0  0  0
 30 32  1  0  0  0  0
 31 30  1  0  0  0  0
M  END
>  <MODEL>
5

>  <REMARK>
 VINA RESULT:      -7.1      1.235      1.794
  Name = 
  2 active torsions:
  status: ('A' for Active; 'I' for Inactive)
    1  A    between atoms: C_20  and  C_29
    2  A    between atoms: C_29  and  N_30
                            x       y       z     vdW  Elec       q    Type
                         _______ _______ _______ _____ _____    ______ ____

>  <TORSDO>
F 2

$$$$
=
 OpenBabel11122412593D

 32 38  0  0  1  0  0  0  0  0999 V2000
  162.0180  203.0690  146.8360 C   0  0  1  0  0  3  0  0  0  0  0  0
  161.3250  206.5400  150.6270 C   0  0  0  0  0  0  0  0  0  0  0  0
  162.3310  210.7880  148.5170 C   0  0  0  0  0  3  0  0  0  0  0  0
  162.2440  211.4340  149.7470 C   0  0  0  0  0  3  0  0  0  0  0  0
  160.8380  206.4550  153.1090 C   0  0  0  0  0  0  0  0  0  0  0  0
  160.7640  207.1790  154.3000 C   0  0  0  0  0  0  0  0  0  0  0  0
  160.9720  204.5560  149.1210 C   0  0  1  0  0  3  0  0  0  0  0  0
  161.6330  206.6930  148.1500 C   0  0  0  0  0  2  0  0  0  0  0  0
  160.8240  208.8630  155.6650 C   0  0  0  0  0  0  0  0  0  0  0  0
  162.0090  204.6010  146.7710 C   0  0  2  0  0  3  0  0  0  0  0  0
  162.1190  209.4120  148.4400 C   0  0  0  0  0  3  0  0  0  0  0  0
  161.6200  207.2960  149.5030 N   0  0  0  0  0  0  0  0  0  0  0  0
  161.8160  208.6520  149.5900 C   0  0  0  0  0  0  0  0  0  0  0  0
  161.4110  208.5810  151.9860 C   0  0  0  0  0  0  0  0  0  0  0  0
  160.4950  207.7550  156.3650 N   0  0  0  0  0  0  0  0  0  0  0  0
  162.0810  202.5880  148.1850 O   0  0  0  0  0  0  0  0  0  0  0  0
  161.9600  205.2170  148.1810 C   0  0  2  0  0  3  0  0  0  0  0  0
  160.4570  206.7200  155.5300 N   0  0  0  0  0  0  0  0  0  0  0  0
  161.0120  203.0300  149.0040 C   0  0  0  0  0  2  0  0  0  0  0  0
  160.7540  203.8170  146.3990 C   0  0  1  0  0  3  0  0  0  0  0  0
  161.9440  210.7040  150.8950 C   0  0  0  0  0  3  0  0  0  0  0  0
  161.7270  209.3130  150.8330 C   0  0  0  0  0  0  0  0  0  0  0  0
  161.3160  209.2530  153.2270 C   0  0  0  0  0  3  0  0  0  0  0  0
  161.2960  205.0270  150.5190 C   0  0  0  0  0  2  0  0  0  0  0  0
  160.5000  204.9990  153.1770 C   0  0  0  0  0  1  0  0  0  0  0  0
  160.9580  210.2220  156.2560 C   0  0  0  0  0  1  0  0  0  0  0  0
  161.1890  207.1650  151.9040 C   0  0  0  0  0  0  0  0  0  0  0  0
  160.9980  208.5150  154.3490 C   0  0  0  0  0  0  0  0  0  0  0  0
  160.6340  203.7570  144.8880 C   0  0  0  0  0  2  0  0  0  0  0  0
  160.3090  205.0730  144.3660 N   0  0  0  0  0  0  0  0  0  0  0  0
  159.7130  205.8280  145.4530 C   0  0  0  0  0  1  0  0  0  0  0  0
  161.5720  205.7200  144.0570 C   0  0  0  0  0  1  0  0  0  0  0  0
  1 16  1  1  0  0  0
  2 27  2  0  0  0  0
  3  4  1  0  0  0  0
  4 21  2  0  0  0  0
  5 25  1  0  0  0  0
  5  6  2  0  0  0  0
  6 28  1  0  0  0  0
  6 18  1  0  0  0  0
  7 19  1  1  0  0  0
  7 24  1  0  0  0  0
  8 17  1  0  0  0  0
  8 12  1  0  0  0  0
  9 26  1  0  0  0  0
  9 15  1  0  0  0  0
 10  1  1  0  0  0  0
 10 17  1  0  0  0  0
 11  3  2  0  0  0  0
 11 13  1  0  0  0  0
 12 13  1  0  0  0  0
 12  2  1  0  0  0  0
 13 22  2  0  0  0  0
 14 23  2  0  0  0  0
 16 19  1  0  0  0  0
 17  7  1  0  0  0  0
 18 15  2  0  0  0  0
 20 10  1  0  0  0  0
 20  1  1  0  0  0  0
 22 21  1  0  0  0  0
 22 14  1  0  0  0  0
 23 28  1  0  0  0  0
 24  2  1  0  0  0  0
 27 14  1  0  0  0  0
 27  5  1  0  0  0  0
 28  9  2  0  0  0  0
 29 20  1  0  0  0  0
 30 29  1  0  0  0  0
 30 31  1  0  0  0  0
 32 30  1  0  0  0  0
M  END
>  <MODEL>
6

>  <REMARK>
 VINA RESULT:      -6.9      2.497      7.840
  Name = 
  2 active torsions:
  status: ('A' for Active; 'I' for Inactive)
    1  A    between atoms: C_20  and  C_29
    2  A    between atoms: C_29  and  N_30
                            x       y       z     vdW  Elec       q    Type
                         _______ _______ _______ _____ _____    ______ ____

>  <TORSDO>
F 2

$$$$
=
 OpenBabel11122412593D

 32 38  0  0  1  0  0  0  0  0999 V2000
  160.2840  208.5760  155.4070 C   0  0  1  0  0  3  0  0  0  0  0  0
  161.0850  205.4670  151.3340 C   0  0  0  0  0  0  0  0  0  0  0  0
  161.5320  208.5260  147.6000 C   0  0  0  0  0  3  0  0  0  0  0  0
  161.5450  207.4570  146.7090 C   0  0  0  0  0  3  0  0  0  0  0  0
  161.0750  202.9700  150.9180 C   0  0  0  0  0  0  0  0  0  0  0  0
  161.1010  201.9560  149.9590 C   0  0  0  0  0  0  0  0  0  0  0  0
  161.2200  206.4400  153.6500 C   0  0  1  0  0  3  0  0  0  0  0  0
  161.2810  207.9290  151.7190 C   0  0  0  0  0  2  0  0  0  0  0  0
  161.1980  200.9900  148.0200 C   0  0  0  0  0  0  0  0  0  0  0  0
  160.6730  208.9300  153.9670 C   0  0  2  0  0  3  0  0  0  0  0  0
  161.4180  208.2870  148.9690 C   0  0  0  0  0  3  0  0  0  0  0  0
  161.1910  206.7510  150.8260 N   0  0  0  0  0  0  0  0  0  0  0  0
  161.3140  206.9740  149.4770 C   0  0  0  0  0  0  0  0  0  0  0  0
  161.2440  204.5810  149.0520 C   0  0  0  0  0  0  0  0  0  0  0  0
  161.1170  200.0340  148.9710 N   0  0  0  0  0  0  0  0  0  0  0  0
  159.8620  207.2120  155.5310 O   0  0  0  0  0  0  0  0  0  0  0  0
  160.6090  207.6930  153.0540 C   0  0  2  0  0  3  0  0  0  0  0  0
  161.0590  200.6230  150.1620 N   0  0  0  0  0  0  0  0  0  0  0  0
  160.8370  206.2680  155.1230 C   0  0  0  0  0  2  0  0  0  0  0  0
  161.7490  208.8440  155.0440 C   0  0  1  0  0  3  0  0  0  0  0  0
  161.4460  206.1520  147.1890 C   0  0  0  0  0  3  0  0  0  0  0  0
  161.3300  205.8940  148.5680 C   0  0  0  0  0  0  0  0  0  0  0  0
  161.2690  203.5040  148.1350 C   0  0  0  0  0  3  0  0  0  0  0  0
  160.7680  205.2720  152.8060 C   0  0  0  0  0  2  0  0  0  0  0  0
  161.0340  202.5480  152.3530 C   0  0  0  0  0  1  0  0  0  0  0  0
  161.2890  200.7180  146.5600 C   0  0  0  0  0  1  0  0  0  0  0  0
  161.1310  204.3370  150.4620 C   0  0  0  0  0  0  0  0  0  0  0  0
  161.1900  202.2190  148.6320 C   0  0  0  0  0  0  0  0  0  0  0  0
  162.1260  210.2460  155.4850 C   0  0  0  0  0  2  0  0  0  0  0  0
  160.9760  210.9010  156.0850 N   0  0  0  0  0  0  0  0  0  0  0  0
  161.4520  211.6090  157.2600 C   0  0  0  0  0  1  0  0  0  0  0  0
  160.5360  211.9130  155.1430 C   0  0  0  0  0  1  0  0  0  0  0  0
  1 16  1  6  0  0  0
  2 24  1  0  0  0  0
  3 11  1  0  0  0  0
  4 21  1  0  0  0  0
  4  3  2  0  0  0  0
  5 25  1  0  0  0  0
  6 18  1  0  0  0  0
  6  5  2  0  0  0  0
  7 24  1  6  0  0  0
  7 19  1  0  0  0  0
  8 17  1  0  0  0  0
  9 28  2  0  0  0  0
  9 15  1  0  0  0  0
 10 20  1  0  0  0  0
 10  1  1  0  0  0  0
 11 13  2  0  0  0  0
 12  2  1  0  0  0  0
 12  8  1  0  0  0  0
 13 12  1  0  0  0  0
 14 27  1  0  0  0  0
 15 18  2  0  0  0  0
 17  7  1  0  0  0  0
 17 10  1  0  0  0  0
 19 16  1  0  0  0  0
 20  1  1  0  0  0  0
 20 29  1  0  0  0  0
 21 22  2  0  0  0  0
 22 14  1  0  0  0  0
 22 13  1  0  0  0  0
 23 28  1  0  0  0  0
 23 14  2  0  0  0  0
 26  9  1  0  0  0  0
 27  5  1  0  0  0  0
 27  2  2  0  0  0  0
 28  6  1  0  0  0  0
 29 30  1  0  0  0  0
 30 31  1  0  0  0  0
 32 30  1  0  0  0  0
M  END
>  <MODEL>
7

>  <REMARK>
 VINA RESULT:      -6.7      1.327      1.809
  Name = 
  2 active torsions:
  status: ('A' for Active; 'I' for Inactive)
    1  A    between atoms: C_20  and  C_29
    2  A    between atoms: C_29  and  N_30
                            x       y       z     vdW  Elec       q    Type
                         _______ _______ _______ _____ _____    ______ ____

>  <TORSDO>
F 2

$$$$
=
 OpenBabel11122412593D

 32 38  0  0  1  0  0  0  0  0999 V2000
  162.3060  211.8410  150.0070 C   0  0  1  0  0  3  0  0  0  0  0  0
  161.4040  206.8210  149.0640 C   0  0  0  0  0  0  0  0  0  0  0  0
  161.0270  204.8530  153.4780 C   0  0  0  0  0  3  0  0  0  0  0  0
  160.9810  203.5790  152.9200 C   0  0  0  0  0  3  0  0  0  0  0  0
  161.3440  205.3340  147.0160 C   0  0  0  0  0  0  0  0  0  0  0  0
  161.2860  204.0240  146.5380 C   0  0  0  0  0  0  0  0  0  0  0  0
  161.3050  209.3300  148.9030 C   0  0  1  0  0  3  0  0  0  0  0  0
  161.2770  208.2680  151.0980 C   0  0  0  0  0  2  0  0  0  0  0  0
  161.1550  201.8600  146.5430 C   0  0  0  0  0  0  0  0  0  0  0  0
  161.9210  210.7160  150.9760 C   0  0  2  0  0  3  0  0  0  0  0  0
  161.1400  205.9690  152.6500 C   0  0  0  0  0  3  0  0  0  0  0  0
  161.3310  206.9410  150.4420 N   0  0  0  0  0  0  0  0  0  0  0  0
  161.2090  205.8360  151.2460 C   0  0  0  0  0  0  0  0  0  0  0  0
  161.2120  204.3860  149.2950 C   0  0  0  0  0  0  0  0  0  0  0  0
  161.2130  202.2820  145.2610 N   0  0  0  0  0  0  0  0  0  0  0  0
  162.6910  211.3360  148.7220 O   0  0  0  0  0  0  0  0  0  0  0  0
  161.9470  209.3460  150.2750 C   0  0  2  0  0  3  0  0  0  0  0  0
  161.2930  203.6100  145.2540 N   0  0  0  0  0  0  0  0  0  0  0  0
  161.6890  210.5650  148.0830 C   0  0  0  0  0  2  0  0  0  0  0  0
  160.8470  211.6590  150.4430 C   0  0  1  0  0  3  0  0  0  0  0  0
  161.0460  203.4240  151.5370 C   0  0  0  0  0  3  0  0  0  0  0  0
  161.1600  204.5420  150.6870 C   0  0  0  0  0  0  0  0  0  0  0  0
  161.1540  203.0860  148.7420 C   0  0  0  0  0  3  0  0  0  0  0  0
  161.7210  208.0460  148.2250 C   0  0  0  0  0  2  0  0  0  0  0  0
  161.3780  206.4290  145.9970 C   0  0  0  0  0  1  0  0  0  0  0  0
  161.0510  200.4330  146.9540 C   0  0  0  0  0  1  0  0  0  0  0  0
  161.3230  205.5370  148.4440 C   0  0  0  0  0  0  0  0  0  0  0  0
  161.2000  202.9550  147.3680 C   0  0  0  0  0  0  0  0  0  0  0  0
  160.5110  212.6850  151.5080 C   0  0  0  0  0  2  0  0  0  0  0  0
  159.3700  212.2340  152.2850 N   0  0  0  0  0  0  0  0  0  0  0  0
  159.8490  211.9590  153.6270 C   0  0  0  0  0  1  0  0  0  0  0  0
  158.4670  213.3660  152.3930 C   0  0  0  0  0  1  0  0  0  0  0  0
  1 16  1  6  0  0  0
  1 20  1  0  0  0  0
  1 10  1  0  0  0  0
  2 12  1  0  0  0  0
  4  3  1  0  0  0  0
  5 27  1  0  0  0  0
  6  5  2  0  0  0  0
  6 28  1  0  0  0  0
  7 19  1  6  0  0  0
  7 17  1  0  0  0  0
  9 26  1  0  0  0  0
  9 28  2  0  0  0  0
 11  3  2  0  0  0  0
 12  8  1  0  0  0  0
 12 13  1  0  0  0  0
 13 11  1  0  0  0  0
 14 22  1  0  0  0  0
 15  9  1  0  0  0  0
 17 10  1  0  0  0  0
 17  8  1  0  0  0  0
 18 15  2  0  0  0  0
 18  6  1  0  0  0  0
 19 16  1  0  0  0  0
 20 10  1  0  0  0  0
 20 29  1  0  0  0  0
 21  4  2  0  0  0  0
 22 13  2  0  0  0  0
 22 21  1  0  0  0  0
 23 14  2  0  0  0  0
 24  7  1  0  0  0  0
 24  2  1  0  0  0  0
 25  5  1  0  0  0  0
 27  2  2  0  0  0  0
 27 14  1  0  0  0  0
 28 23  1  0  0  0  0
 29 30  1  0  0  0  0
 30 32  1  0  0  0  0
 30 31  1  0  0  0  0
M  END
>  <MODEL>
8

>  <REMARK>
 VINA RESULT:      -6.7      3.002      5.122
  Name = 
  2 active torsions:
  status: ('A' for Active; 'I' for Inactive)
    1  A    between atoms: C_20  and  C_29
    2  A    between atoms: C_29  and  N_30
                            x       y       z     vdW  Elec       q    Type
                         _______ _______ _______ _____ _____    ______ ____

>  <TORSDO>
F 2

$$$$
