=
 OpenBabel11122413083D

 31 35  0  0  1  0  0  0  0  0999 V2000
  161.0340  208.2090  154.1320 C   0  0  0  0  0  0  0  0  0  0  0  0
  161.4390  207.6440  150.4300 C   0  0  0  0  0  0  0  0  0  0  0  0
  161.2740  206.2410  150.2040 C   0  0  0  0  0  0  0  0  0  0  0  0
  160.8380  203.9630  150.9760 C   0  0  0  0  0  0  0  0  0  0  0  0
  161.3540  208.2720  151.7100 C   0  0  0  0  0  0  0  0  0  0  0  0
  161.2020  209.5910  154.2030 C   0  0  0  0  0  3  0  0  0  0  0  0
  160.9960  205.3260  151.2350 C   0  0  0  0  0  3  0  0  0  0  0  0
  161.8460  209.8600  149.4600 C   0  0  0  0  0  0  0  0  0  0  0  0
  160.7280  207.2870  155.5870 Cl  0  0  0  0  0  0  0  0  0  0  0  0
  161.6560  206.5660  147.8500 N   0  0  0  0  0  0  0  0  0  0  0  0
  160.4930  202.8590  152.2880 Cl  0  0  0  0  0  0  0  0  0  0  0  0
  161.7540  210.4150  150.6930 N   0  0  0  0  0  0  0  0  0  0  0  0
  161.7020  208.4700  149.3020 C   0  0  0  0  0  0  0  0  0  0  0  0
  161.1100  207.5600  152.8990 C   0  0  0  0  0  3  0  0  0  0  0  0
  160.9560  203.4830  149.6720 C   0  0  0  0  0  3  0  0  0  0  0  0
  161.5230  209.6760  151.8030 C   0  0  0  0  0  0  0  0  0  0  0  0
  161.4450  210.3220  153.0410 C   0  0  0  0  0  3  0  0  0  0  0  0
  161.8110  207.8980  148.0300 C   0  0  0  0  0  3  0  0  0  0  0  0
  161.3900  205.7340  148.8840 C   0  0  0  0  0  0  0  0  0  0  0  0
  161.2320  204.3680  148.6300 C   0  0  0  0  0  3  0  0  0  0  0  0
  162.0360  210.7690  148.2810 C   0  0  0  0  0  2  0  0  0  0  0  0
  163.2630  212.9320  147.9940 C   0  0  0  0  0  1  0  0  0  0  0  0
  162.1460  212.2210  148.7370 C   0  0  1  0  0  3  0  0  0  0  0  0
  158.1160  213.4620  148.7110 C   0  0  0  0  0  0  0  0  0  0  0  0
  160.3880  213.7400  149.6920 C   0  0  0  0  0  2  0  0  0  0  0  0
  160.4430  212.2850  146.3650 O   0  0  0  0  0  0  0  0  0  0  0  0
  156.6790  213.8330  148.7870 C   0  0  0  0  0  1  0  0  0  0  0  0
  158.9270  213.4000  149.9780 C   0  0  0  0  0  2  0  0  0  0  0  0
  160.0110  212.7620  147.4460 C   0  0  0  0  0  0  0  0  0  0  0  0
  160.8770  212.9300  148.5820 N   0  0  0  0  0  0  0  0  0  0  0  0
  158.6310  213.1260  147.5650 N   0  0  0  0  0  0  0  0  0  0  0  0
  1  6  1  0  0  0  0
  1  9  1  0  0  0  0
  2  5  1  0  0  0  0
  3  2  1  0  0  0  0
  3  7  2  0  0  0  0
  4  7  1  0  0  0  0
  4 11  1  0  0  0  0
  5 16  2  0  0  0  0
  5 14  1  0  0  0  0
  8 12  2  0  0  0  0
 10 18  2  0  0  0  0
 10 19  1  0  0  0  0
 12 16  1  0  0  0  0
 13  8  1  0  0  0  0
 13  2  2  0  0  0  0
 14  1  2  0  0  0  0
 15  4  2  0  0  0  0
 16 17  1  0  0  0  0
 17  6  2  0  0  0  0
 18 13  1  0  0  0  0
 19  3  1  0  0  0  0
 20 19  2  0  0  0  0
 20 15  1  0  0  0  0
 21 23  1  0  0  0  0
 21  8  1  0  0  0  0
 23 22  1  6  0  0  0
 24 27  1  0  0  0  0
 24 28  1  0  0  0  0
 25 28  1  0  0  0  0
 26 29  2  0  0  0  0
 29 31  1  0  0  0  0
 29 30  1  0  0  0  0
 30 23  1  0  0  0  0
 30 25  1  0  0  0  0
 31 24  2  0  0  0  0
M  END
>  <MODEL>
1

>  <REMARK>
 VINA RESULT:      -9.9      0.000      0.000
  Name = 
  3 active torsions:
  status: ('A' for Active; 'I' for Inactive)
    1  A    between atoms: C_5  and  C_16
    2  A    between atoms: C_5  and  N_30
    3  A    between atoms: C_10  and  C_16
                            x       y       z     vdW  Elec       q    Type
                         _______ _______ _______ _____ _____    ______ ____

>  <TORSDO>
F 3

$$$$
=
 OpenBabel11122413083D

 31 35  0  0  1  0  0  0  0  0999 V2000
  161.3710  206.8450  147.1700 C   0  0  0  0  0  0  0  0  0  0  0  0
  161.2520  204.8720  150.3770 C   0  0  0  0  0  0  0  0  0  0  0  0
  161.0690  203.5010  150.0140 C   0  0  0  0  0  0  0  0  0  0  0  0
  160.8060  201.7170  148.3640 C   0  0  0  0  0  0  0  0  0  0  0  0
  161.3530  205.9490  149.4440 C   0  0  0  0  0  0  0  0  0  0  0  0
  161.5620  208.1330  147.6660 C   0  0  0  0  0  3  0  0  0  0  0  0
  160.9810  203.0660  148.6800 C   0  0  0  0  0  3  0  0  0  0  0  0
  161.5490  206.5130  152.1770 C   0  0  0  0  0  0  0  0  0  0  0  0
  161.2600  206.5750  145.4450 Cl  0  0  0  0  0  0  0  0  0  0  0  0
  161.0530  202.8790  152.3400 N   0  0  0  0  0  0  0  0  0  0  0  0
  160.7020  201.2190  146.6910 Cl  0  0  0  0  0  0  0  0  0  0  0  0
  161.6430  207.5030  151.2570 N   0  0  0  0  0  0  0  0  0  0  0  0
  161.3420  205.1850  151.7630 C   0  0  0  0  0  0  0  0  0  0  0  0
  161.2670  205.7660  148.0520 C   0  0  0  0  0  3  0  0  0  0  0  0
  160.7150  200.7690  149.3820 C   0  0  0  0  0  3  0  0  0  0  0  0
  161.5460  207.2670  149.9280 C   0  0  0  0  0  0  0  0  0  0  0  0
  161.6500  208.3430  149.0410 C   0  0  0  0  0  3  0  0  0  0  0  0
  161.2310  204.1660  152.7150 C   0  0  0  0  0  3  0  0  0  0  0  0
  160.9750  202.5210  151.0370 C   0  0  0  0  0  0  0  0  0  0  0  0
  160.7980  201.1710  150.7140 C   0  0  0  0  0  3  0  0  0  0  0  0
  161.7360  206.8630  153.6240 C   0  0  0  0  0  2  0  0  0  0  0  0
  159.9420  206.7860  155.3680 C   0  0  0  0  0  1  0  0  0  0  0  0
  160.4890  207.5490  154.1750 C   0  0  1  0  0  3  0  0  0  0  0  0
  160.3580  211.5250  155.5750 C   0  0  0  0  0  0  0  0  0  0  0  0
  161.3380  209.2480  155.8190 C   0  0  0  0  0  2  0  0  0  0  0  0
  160.0430  209.8900  152.4870 O   0  0  0  0  0  0  0  0  0  0  0  0
  160.2420  212.8920  156.1450 C   0  0  0  0  0  1  0  0  0  0  0  0
  160.5370  210.3530  156.5040 C   0  0  0  0  0  2  0  0  0  0  0  0
  160.3340  210.0530  153.7010 C   0  0  0  0  0  0  0  0  0  0  0  0
  160.7510  208.9450  154.5190 N   0  0  0  0  0  0  0  0  0  0  0  0
  160.2280  211.3520  154.2920 N   0  0  0  0  0  0  0  0  0  0  0  0
  1  6  2  0  0  0  0
  1 14  1  0  0  0  0
  2 13  1  0  0  0  0
  3  2  2  0  0  0  0
  3 19  1  0  0  0  0
  4  7  2  0  0  0  0
  4 15  1  0  0  0  0
  5 16  1  0  0  0  0
  5  2  1  0  0  0  0
  6 17  1  0  0  0  0
  7  3  1  0  0  0  0
  8 21  1  0  0  0  0
  9  1  1  0  0  0  0
 10 18  1  0  0  0  0
 11  4  1  0  0  0  0
 12  8  2  0  0  0  0
 13  8  1  0  0  0  0
 13 18  2  0  0  0  0
 14  5  2  0  0  0  0
 15 20  2  0  0  0  0
 16 12  1  0  0  0  0
 17 16  2  0  0  0  0
 19 10  2  0  0  0  0
 20 19  1  0  0  0  0
 21 23  1  0  0  0  0
 23 30  1  0  0  0  0
 23 22  1  1  0  0  0
 24 27  1  0  0  0  0
 24 28  1  0  0  0  0
 25 28  1  0  0  0  0
 26 29  2  0  0  0  0
 29 31  1  0  0  0  0
 29 30  1  0  0  0  0
 30 25  1  0  0  0  0
 31 24  2  0  0  0  0
M  END
>  <MODEL>
2

>  <REMARK>
 VINA RESULT:      -9.5      4.128      6.013
  Name = 
  3 active torsions:
  status: ('A' for Active; 'I' for Inactive)
    1  A    between atoms: C_5  and  C_16
    2  A    between atoms: C_5  and  N_30
    3  A    between atoms: C_10  and  C_16
                            x       y       z     vdW  Elec       q    Type
                         _______ _______ _______ _____ _____    ______ ____

>  <TORSDO>
F 3

$$$$
=
 OpenBabel11122413083D

 31 35  0  0  1  0  0  0  0  0999 V2000
  160.9280  202.3650  150.9580 C   0  0  0  0  0  0  0  0  0  0  0  0
  161.1690  205.5050  148.8910 C   0  0  0  0  0  0  0  0  0  0  0  0
  161.1510  205.1010  147.5190 C   0  0  0  0  0  0  0  0  0  0  0  0
  161.0220  203.4020  145.7670 C   0  0  0  0  0  0  0  0  0  0  0  0
  161.0910  204.6080  149.9990 C   0  0  0  0  0  0  0  0  0  0  0  0
  160.9430  202.9010  152.2450 C   0  0  0  0  0  3  0  0  0  0  0  0
  161.0400  203.7580  147.1170 C   0  0  0  0  0  3  0  0  0  0  0  0
  161.2640  207.3540  150.5000 C   0  0  0  0  0  0  0  0  0  0  0  0
  160.8170  200.6340  150.7290 Cl  0  0  0  0  0  0  0  0  0  0  0  0
  161.3490  207.3990  146.8310 N   0  0  0  0  0  0  0  0  0  0  0  0
  160.8830  201.7190  145.3090 Cl  0  0  0  0  0  0  0  0  0  0  0  0
  161.1840  206.4680  151.5220 N   0  0  0  0  0  0  0  0  0  0  0  0
  161.2680  206.8970  149.1710 C   0  0  0  0  0  0  0  0  0  0  0  0
  161.0020  203.2110  149.8500 C   0  0  0  0  0  3  0  0  0  0  0  0
  161.1140  204.3870  144.7840 C   0  0  0  0  0  3  0  0  0  0  0  0
  161.1060  205.1320  151.3160 C   0  0  0  0  0  0  0  0  0  0  0  0
  161.0310  204.2800  152.4220 C   0  0  0  0  0  3  0  0  0  0  0  0
  161.3640  207.8140  148.1180 C   0  0  0  0  0  3  0  0  0  0  0  0
  161.2420  206.0900  146.5050 C   0  0  0  0  0  0  0  0  0  0  0  0
  161.2240  205.7270  145.1540 C   0  0  0  0  0  3  0  0  0  0  0  0
  161.2790  208.8190  150.8270 C   0  0  0  0  0  2  0  0  0  0  0  0
  162.8870  210.1300  152.2270 C   0  0  0  0  0  1  0  0  0  0  0  0
  161.8220  209.0480  152.2340 C   0  0  1  0  0  3  0  0  0  0  0  0
  159.3870  210.6180  155.2990 C   0  0  0  0  0  0  0  0  0  0  0  0
  159.8370  210.4580  152.8540 C   0  0  0  0  0  2  0  0  0  0  0  0
  161.2150  207.6770  154.7410 O   0  0  0  0  0  0  0  0  0  0  0  0
  158.5870  211.2630  156.3720 C   0  0  0  0  0  1  0  0  0  0  0  0
  159.7070  211.3980  154.0510 C   0  0  0  0  0  2  0  0  0  0  0  0
  160.6340  208.7610  154.4760 C   0  0  0  0  0  0  0  0  0  0  0  0
  160.7520  209.3690  153.1780 N   0  0  0  0  0  0  0  0  0  0  0  0
  159.8590  209.4200  155.4840 N   0  0  0  0  0  0  0  0  0  0  0  0
  1  6  1  0  0  0  0
  2 13  2  0  0  0  0
  2  5  1  0  0  0  0
  3  2  1  0  0  0  0
  4  7  1  0  0  0  0
  5 16  2  0  0  0  0
  6 17  2  0  0  0  0
  7  3  2  0  0  0  0
  8 21  1  0  0  0  0
  8 12  2  0  0  0  0
  9  1  1  0  0  0  0
 10 18  2  0  0  0  0
 11  4  1  0  0  0  0
 13  8  1  0  0  0  0
 14  5  1  0  0  0  0
 14  1  2  0  0  0  0
 15 20  1  0  0  0  0
 15  4  2  0  0  0  0
 16 12  1  0  0  0  0
 16 17  1  0  0  0  0
 18 13  1  0  0  0  0
 19 10  1  0  0  0  0
 19  3  1  0  0  0  0
 20 19  2  0  0  0  0
 21 23  1  0  0  0  0
 23 22  1  6  0  0  0
 23 30  1  0  0  0  0
 24 31  2  0  0  0  0
 24 27  1  0  0  0  0
 25 30  1  0  0  0  0
 25 28  1  0  0  0  0
 28 24  1  0  0  0  0
 29 26  2  0  0  0  0
 29 31  1  0  0  0  0
 30 29  1  0  0  0  0
M  END
>  <MODEL>
3

>  <REMARK>
 VINA RESULT:      -9.5      3.833      5.511
  Name = 
  3 active torsions:
  status: ('A' for Active; 'I' for Inactive)
    1  A    between atoms: C_5  and  C_16
    2  A    between atoms: C_5  and  N_30
    3  A    between atoms: C_10  and  C_16
                            x       y       z     vdW  Elec       q    Type
                         _______ _______ _______ _____ _____    ______ ____

>  <TORSDO>
F 3

$$$$
=
 OpenBabel11122413083D

 31 35  0  0  1  0  0  0  0  0999 V2000
  160.8810  208.0580  154.2300 C   0  0  0  0  0  0  0  0  0  0  0  0
  161.4730  207.8870  150.5140 C   0  0  0  0  0  0  0  0  0  0  0  0
  161.3330  206.5150  150.1340 C   0  0  0  0  0  0  0  0  0  0  0  0
  160.8790  204.1670  150.6390 C   0  0  0  0  0  0  0  0  0  0  0  0
  161.3200  208.3760  151.8470 C   0  0  0  0  0  0  0  0  0  0  0  0
  161.0330  209.4250  154.4540 C   0  0  0  0  0  3  0  0  0  0  0  0
  161.0120  205.4960  151.0480 C   0  0  0  0  0  3  0  0  0  0  0  0
  161.9080  210.1950  149.8040 C   0  0  0  0  0  0  0  0  0  0  0  0
  160.5130  206.9860  155.5630 Cl  0  0  0  0  0  0  0  0  0  0  0  0
  161.8270  207.0880  147.8490 N   0  0  0  0  0  0  0  0  0  0  0  0
  160.4790  202.9290  151.8080 Cl  0  0  0  0  0  0  0  0  0  0  0  0
  161.7500  210.6160  151.0820 N   0  0  0  0  0  0  0  0  0  0  0  0
  161.7850  208.8280  149.4930 C   0  0  0  0  0  0  0  0  0  0  0  0
  161.0240  207.5420  152.9400 C   0  0  0  0  0  3  0  0  0  0  0  0
  161.0660  203.8280  149.2990 C   0  0  0  0  0  3  0  0  0  0  0  0
  161.4720  209.7640  152.0950 C   0  0  0  0  0  0  0  0  0  0  0  0
  161.3270  210.2750  153.3890 C   0  0  0  0  0  3  0  0  0  0  0  0
  161.9620  208.3940  148.1750 C   0  0  0  0  0  3  0  0  0  0  0  0
  161.5170  206.1510  148.7750 C   0  0  0  0  0  0  0  0  0  0  0  0
  161.3840  204.8180  148.3710 C   0  0  0  0  0  3  0  0  0  0  0  0
  162.1490  211.2230  148.7380 C   0  0  0  0  0  2  0  0  0  0  0  0
  160.8460  213.1800  149.5980 C   0  0  0  0  0  1  0  0  0  0  0  0
  160.9090  212.0920  148.5420 C   0  0  1  0  0  3  0  0  0  0  0  0
  161.0170  212.8260  144.3910 C   0  0  0  0  0  0  0  0  0  0  0  0
  159.6210  212.5460  146.4340 C   0  0  0  0  0  2  0  0  0  0  0  0
  163.0310  213.5550  147.1690 O   0  0  0  0  0  0  0  0  0  0  0  0
  161.0350  212.9790  142.9130 C   0  0  0  0  0  1  0  0  0  0  0  0
  159.9220  212.0170  145.0330 C   0  0  0  0  0  2  0  0  0  0  0  0
  162.0080  213.2060  146.5250 C   0  0  0  0  0  0  0  0  0  0  0  0
  160.8590  212.6600  147.1960 N   0  0  0  0  0  0  0  0  0  0  0  0
  161.9860  213.3290  145.0990 N   0  0  0  0  0  0  0  0  0  0  0  0
  1  6  1  0  0  0  0
  1  9  1  0  0  0  0
  2  5  1  0  0  0  0
  3  2  1  0  0  0  0
  3  7  2  0  0  0  0
  4  7  1  0  0  0  0
  4 11  1  0  0  0  0
  5 16  2  0  0  0  0
  5 14  1  0  0  0  0
  8 12  2  0  0  0  0
 10 18  2  0  0  0  0
 10 19  1  0  0  0  0
 12 16  1  0  0  0  0
 13  8  1  0  0  0  0
 13  2  2  0  0  0  0
 14  1  2  0  0  0  0
 15  4  2  0  0  0  0
 16 17  1  0  0  0  0
 17  6  2  0  0  0  0
 18 13  1  0  0  0  0
 19  3  1  0  0  0  0
 20 19  2  0  0  0  0
 20 15  1  0  0  0  0
 21  8  1  0  0  0  0
 23 21  1  0  0  0  0
 23 22  1  1  0  0  0
 24 28  1  0  0  0  0
 24 31  2  0  0  0  0
 25 30  1  0  0  0  0
 27 24  1  0  0  0  0
 28 25  1  0  0  0  0
 29 26  2  0  0  0  0
 29 30  1  0  0  0  0
 30 23  1  0  0  0  0
 31 29  1  0  0  0  0
M  END
>  <MODEL>
4

>  <REMARK>
 VINA RESULT:      -9.2      1.541      2.333
  Name = 
  3 active torsions:
  status: ('A' for Active; 'I' for Inactive)
    1  A    between atoms: C_5  and  C_16
    2  A    between atoms: C_5  and  N_30
    3  A    between atoms: C_10  and  C_16
                            x       y       z     vdW  Elec       q    Type
                         _______ _______ _______ _____ _____    ______ ____

>  <TORSDO>
F 3

$$$$
=
 OpenBabel11122413083D

 31 35  0  0  1  0  0  0  0  0999 V2000
  160.8350  202.2840  150.9320 C   0  0  0  0  0  0  0  0  0  0  0  0
  161.3260  205.7160  149.4570 C   0  0  0  0  0  0  0  0  0  0  0  0
  161.3470  205.5570  148.0360 C   0  0  0  0  0  0  0  0  0  0  0  0
  161.2070  204.1970  146.0100 C   0  0  0  0  0  0  0  0  0  0  0  0
  161.1550  204.6460  150.3880 C   0  0  0  0  0  0  0  0  0  0  0  0
  160.8220  202.5870  152.2930 C   0  0  0  0  0  3  0  0  0  0  0  0
  161.1850  204.3130  147.4010 C   0  0  0  0  0  3  0  0  0  0  0  0
  161.4470  207.2490  151.3690 C   0  0  0  0  0  0  0  0  0  0  0  0
  160.6460  200.6290  150.4000 Cl  0  0  0  0  0  0  0  0  0  0  0  0
  161.6930  207.9240  147.7680 N   0  0  0  0  0  0  0  0  0  0  0  0
  161.0020  202.6310  145.2600 Cl  0  0  0  0  0  0  0  0  0  0  0  0
  161.2780  206.2050  152.2150 N   0  0  0  0  0  0  0  0  0  0  0  0
  161.4850  207.0300  149.9800 C   0  0  0  0  0  0  0  0  0  0  0  0
  161.0010  203.3040  149.9930 C   0  0  0  0  0  3  0  0  0  0  0  0
  161.3920  205.3310  145.2190 C   0  0  0  0  0  3  0  0  0  0  0  0
  161.1400  204.9330  151.7760 C   0  0  0  0  0  0  0  0  0  0  0  0
  160.9740  203.9080  152.7120 C   0  0  0  0  0  3  0  0  0  0  0  0
  161.6730  208.1080  149.1080 C   0  0  0  0  0  3  0  0  0  0  0  0
  161.5320  206.7000  147.2140 C   0  0  0  0  0  0  0  0  0  0  0  0
  161.5540  206.5780  145.8210 C   0  0  0  0  0  3  0  0  0  0  0  0
  161.5220  208.6320  151.9470 C   0  0  0  0  0  2  0  0  0  0  0  0
  161.1210  207.6880  154.2300 C   0  0  0  0  0  1  0  0  0  0  0  0
  160.6810  208.7280  153.2170 C   0  0  1  0  0  3  0  0  0  0  0  0
  160.2490  212.2050  155.5640 C   0  0  0  0  0  0  0  0  0  0  0  0
  161.7500  210.3780  154.7810 C   0  0  0  0  0  2  0  0  0  0  0  0
  158.9590  210.9880  152.5380 O   0  0  0  0  0  0  0  0  0  0  0  0
  160.0810  213.3650  156.4770 C   0  0  0  0  0  1  0  0  0  0  0  0
  161.1120  211.0490  155.9960 C   0  0  0  0  0  2  0  0  0  0  0  0
  159.7250  211.0750  153.5320 C   0  0  0  0  0  0  0  0  0  0  0  0
  160.7250  210.0730  153.7890 N   0  0  0  0  0  0  0  0  0  0  0  0
  159.5920  212.1720  154.4420 N   0  0  0  0  0  0  0  0  0  0  0  0
  1  6  1  0  0  0  0
  2 13  2  0  0  0  0
  2  5  1  0  0  0  0
  3  2  1  0  0  0  0
  4  7  1  0  0  0  0
  5 16  2  0  0  0  0
  6 17  2  0  0  0  0
  7  3  2  0  0  0  0
  8 21  1  0  0  0  0
  8 12  2  0  0  0  0
  9  1  1  0  0  0  0
 10 18  2  0  0  0  0
 11  4  1  0  0  0  0
 13  8  1  0  0  0  0
 14  5  1  0  0  0  0
 14  1  2  0  0  0  0
 15 20  1  0  0  0  0
 15  4  2  0  0  0  0
 16 12  1  0  0  0  0
 16 17  1  0  0  0  0
 18 13  1  0  0  0  0
 19 10  1  0  0  0  0
 19  3  1  0  0  0  0
 20 19  2  0  0  0  0
 21 23  1  0  0  0  0
 23 30  1  0  0  0  0
 23 22  1  1  0  0  0
 24 28  1  0  0  0  0
 24 27  1  0  0  0  0
 25 28  1  0  0  0  0
 26 29  2  0  0  0  0
 29 30  1  0  0  0  0
 29 31  1  0  0  0  0
 30 25  1  0  0  0  0
 31 24  2  0  0  0  0
M  END
>  <MODEL>
5

>  <REMARK>
 VINA RESULT:      -8.7      3.617      5.540
  Name = 
  3 active torsions:
  status: ('A' for Active; 'I' for Inactive)
    1  A    between atoms: C_5  and  C_16
    2  A    between atoms: C_5  and  N_30
    3  A    between atoms: C_10  and  C_16
                            x       y       z     vdW  Elec       q    Type
                         _______ _______ _______ _____ _____    ______ ____

>  <TORSDO>
F 3

$$$$
=
 OpenBabel11122413083D

 31 35  0  0  1  0  0  0  0  0999 V2000
  161.1320  212.4830  150.1370 C   0  0  0  0  0  0  0  0  0  0  0  0
  161.4770  208.8530  151.0870 C   0  0  0  0  0  0  0  0  0  0  0  0
  161.1160  208.7490  152.4670 C   0  0  0  0  0  0  0  0  0  0  0  0
  160.3540  209.7110  154.5810 C   0  0  0  0  0  0  0  0  0  0  0  0
  161.4740  210.0710  150.3400 C   0  0  0  0  0  0  0  0  0  0  0  0
  161.4950  212.4340  148.7930 C   0  0  0  0  0  3  0  0  0  0  0  0
  160.7030  209.8510  153.2360 C   0  0  0  0  0  3  0  0  0  0  0  0
  162.2040  207.7000  149.0470 C   0  0  0  0  0  0  0  0  0  0  0  0
  160.6880  214.0070  150.8720 Cl  0  0  0  0  0  0  0  0  0  0  0  0
  161.5560  206.3840  152.4120 N   0  0  0  0  0  0  0  0  0  0  0  0
  159.8450  211.1070  155.5020 Cl  0  0  0  0  0  0  0  0  0  0  0  0
  162.1830  208.8760  148.3750 N   0  0  0  0  0  0  0  0  0  0  0  0
  161.8640  207.6620  150.4110 C   0  0  0  0  0  0  0  0  0  0  0  0
  161.1230  211.3130  150.9000 C   0  0  0  0  0  3  0  0  0  0  0  0
  160.4120  208.4560  155.1880 C   0  0  0  0  0  3  0  0  0  0  0  0
  161.8420  210.0430  148.9710 C   0  0  0  0  0  0  0  0  0  0  0  0
  161.8480  211.2170  148.2120 C   0  0  0  0  0  3  0  0  0  0  0  0
  161.8990  206.4480  151.1050 C   0  0  0  0  0  3  0  0  0  0  0  0
  161.1670  207.4810  153.1020 C   0  0  0  0  0  0  0  0  0  0  0  0
  160.8180  207.3460  154.4490 C   0  0  0  0  0  3  0  0  0  0  0  0
  162.5300  206.4490  148.2840 C   0  0  0  0  0  2  0  0  0  0  0  0
  160.6620  206.5210  146.6190 C   0  0  0  0  0  1  0  0  0  0  0  0
  161.2530  205.7700  147.7980 C   0  0  1  0  0  3  0  0  0  0  0  0
  160.9910  201.7520  146.5410 C   0  0  0  0  0  0  0  0  0  0  0  0
  161.9030  204.0290  146.1070 C   0  0  0  0  0  2  0  0  0  0  0  0
  161.0590  203.4760  149.5960 O   0  0  0  0  0  0  0  0  0  0  0  0
  160.8200  200.3670  146.0310 C   0  0  0  0  0  1  0  0  0  0  0  0
  161.0340  202.8960  145.5640 C   0  0  0  0  0  2  0  0  0  0  0  0
  161.1920  203.2800  148.3600 C   0  0  0  0  0  0  0  0  0  0  0  0
  161.4860  204.3650  147.4630 N   0  0  0  0  0  0  0  0  0  0  0  0
  161.0270  201.9620  147.8250 N   0  0  0  0  0  0  0  0  0  0  0  0
  1  9  1  0  0  0  0
  1 14  1  0  0  0  0
  2  3  1  0  0  0  0
  3 19  2  0  0  0  0
  3  7  1  0  0  0  0
  4 15  1  0  0  0  0
  4 11  1  0  0  0  0
  5 14  2  0  0  0  0
  5  2  1  0  0  0  0
  6  1  2  0  0  0  0
  7  4  2  0  0  0  0
  8 13  1  0  0  0  0
 10 19  1  0  0  0  0
 12 16  1  0  0  0  0
 12  8  2  0  0  0  0
 13  2  2  0  0  0  0
 13 18  1  0  0  0  0
 16  5  1  0  0  0  0
 17  6  1  0  0  0  0
 17 16  2  0  0  0  0
 18 10  2  0  0  0  0
 19 20  1  0  0  0  0
 20 15  2  0  0  0  0
 21  8  1  0  0  0  0
 23 22  1  6  0  0  0
 23 21  1  0  0  0  0
 24 31  2  0  0  0  0
 25 30  1  0  0  0  0
 27 24  1  0  0  0  0
 28 25  1  0  0  0  0
 28 24  1  0  0  0  0
 29 26  2  0  0  0  0
 30 23  1  0  0  0  0
 30 29  1  0  0  0  0
 31 29  1  0  0  0  0
M  END
>  <MODEL>
6

>  <REMARK>
 VINA RESULT:      -8.3      3.211      7.233
  Name = 
  3 active torsions:
  status: ('A' for Active; 'I' for Inactive)
    1  A    between atoms: C_5  and  C_16
    2  A    between atoms: C_5  and  N_30
    3  A    between atoms: C_10  and  C_16
                            x       y       z     vdW  Elec       q    Type
                         _______ _______ _______ _____ _____    ______ ____

>  <TORSDO>
F 3

$$$$
=
 OpenBabel11122413083D

 31 35  0  0  1  0  0  0  0  0999 V2000
  161.8280  210.3150  149.6020 C   0  0  0  0  0  0  0  0  0  0  0  0
  161.3380  207.0280  151.3760 C   0  0  0  0  0  0  0  0  0  0  0  0
  161.1870  207.3260  152.7670 C   0  0  0  0  0  0  0  0  0  0  0  0
  161.0560  208.8890  154.6420 C   0  0  0  0  0  0  0  0  0  0  0  0
  161.5410  208.0080  150.3570 C   0  0  0  0  0  0  0  0  0  0  0  0
  161.9450  209.8820  148.2820 C   0  0  0  0  0  3  0  0  0  0  0  0
  161.2110  208.6360  153.2770 C   0  0  0  0  0  3  0  0  0  0  0  0
  161.3950  205.3120  149.6240 C   0  0  0  0  0  0  0  0  0  0  0  0
  161.9300  212.0210  149.9780 Cl  0  0  0  0  0  0  0  0  0  0  0  0
  160.9650  204.9800  153.2540 N   0  0  0  0  0  0  0  0  0  0  0  0
  161.0920  210.5340  155.2350 Cl  0  0  0  0  0  0  0  0  0  0  0  0
  161.5830  206.2750  148.6890 N   0  0  0  0  0  0  0  0  0  0  0  0
  161.2800  205.6630  150.9810 C   0  0  0  0  0  0  0  0  0  0  0  0
  161.6280  209.3870  150.6260 C   0  0  0  0  0  3  0  0  0  0  0  0
  160.8720  207.8300  155.5300 C   0  0  0  0  0  3  0  0  0  0  0  0
  161.6650  207.5870  149.0090 C   0  0  0  0  0  0  0  0  0  0  0  0
  161.8640  208.5220  147.9880 C   0  0  0  0  0  3  0  0  0  0  0  0
  161.1000  204.6650  151.9460 C   0  0  0  0  0  3  0  0  0  0  0  0
  160.9980  206.2620  153.6870 C   0  0  0  0  0  0  0  0  0  0  0  0
  160.8440  206.5200  155.0520 C   0  0  0  0  0  3  0  0  0  0  0  0
  161.2500  203.8910  149.1650 C   0  0  0  0  0  2  0  0  0  0  0  0
  162.5980  204.2500  147.0860 C   0  0  0  0  0  1  0  0  0  0  0  0
  161.2530  203.8180  147.6400 C   0  0  1  0  0  3  0  0  0  0  0  0
  161.1780  199.8760  146.1410 C   0  0  0  0  0  0  0  0  0  0  0  0
  160.9140  201.3740  148.1140 C   0  0  0  0  0  2  0  0  0  0  0  0
  160.3830  203.0790  144.9510 O   0  0  0  0  0  0  0  0  0  0  0  0
  161.2540  198.4770  145.6490 C   0  0  0  0  0  1  0  0  0  0  0  0
  161.6900  200.2000  147.5200 C   0  0  0  0  0  2  0  0  0  0  0  0
  160.6510  202.1730  145.7820 C   0  0  0  0  0  0  0  0  0  0  0  0
  160.8920  202.4820  147.1660 N   0  0  0  0  0  0  0  0  0  0  0  0
  160.7410  200.8110  145.3490 N   0  0  0  0  0  0  0  0  0  0  0  0
  1  9  1  0  0  0  0
  1 14  1  0  0  0  0
  2  3  1  0  0  0  0
  3  7  2  0  0  0  0
  3 19  1  0  0  0  0
  4 11  1  0  0  0  0
  4 15  2  0  0  0  0
  5 14  2  0  0  0  0
  5  2  1  0  0  0  0
  6  1  2  0  0  0  0
  7  4  1  0  0  0  0
  8 13  1  0  0  0  0
 10 19  1  0  0  0  0
 12 16  1  0  0  0  0
 12  8  2  0  0  0  0
 13  2  2  0  0  0  0
 13 18  1  0  0  0  0
 16  5  1  0  0  0  0
 17  6  1  0  0  0  0
 17 16  2  0  0  0  0
 18 10  2  0  0  0  0
 19 20  2  0  0  0  0
 20 15  1  0  0  0  0
 21  8  1  0  0  0  0
 23 22  1  1  0  0  0
 23 21  1  0  0  0  0
 24 28  1  0  0  0  0
 26 29  2  0  0  0  0
 27 24  1  0  0  0  0
 28 25  1  0  0  0  0
 29 30  1  0  0  0  0
 30 23  1  0  0  0  0
 30 25  1  0  0  0  0
 31 29  1  0  0  0  0
 31 24  2  0  0  0  0
M  END
>  <MODEL>
7

>  <REMARK>
 VINA RESULT:      -8.2      3.715      8.063
  Name = 
  3 active torsions:
  status: ('A' for Active; 'I' for Inactive)
    1  A    between atoms: C_5  and  C_16
    2  A    between atoms: C_5  and  N_30
    3  A    between atoms: C_10  and  C_16
                            x       y       z     vdW  Elec       q    Type
                         _______ _______ _______ _____ _____    ______ ____

>  <TORSDO>
F 3

$$$$
=
 OpenBabel11122413083D

 31 35  0  0  1  0  0  0  0  0999 V2000
  160.7380  202.1630  150.8770 C   0  0  0  0  0  0  0  0  0  0  0  0
  161.4460  205.4950  149.2680 C   0  0  0  0  0  0  0  0  0  0  0  0
  161.4480  205.2800  147.8530 C   0  0  0  0  0  0  0  0  0  0  0  0
  161.2090  203.8550  145.8820 C   0  0  0  0  0  0  0  0  0  0  0  0
  161.2090  204.4750  150.2400 C   0  0  0  0  0  0  0  0  0  0  0  0
  160.7510  202.5190  152.2250 C   0  0  0  0  0  3  0  0  0  0  0  0
  161.2020  204.0260  147.2680 C   0  0  0  0  0  3  0  0  0  0  0  0
  161.6760  207.0900  151.1170 C   0  0  0  0  0  0  0  0  0  0  0  0
  160.4370  200.5040  150.4100 Cl  0  0  0  0  0  0  0  0  0  0  0  0
  161.9480  207.6070  147.4930 N   0  0  0  0  0  0  0  0  0  0  0  0
  160.8980  202.2770  145.1950 Cl  0  0  0  0  0  0  0  0  0  0  0  0
  161.4430  206.0930  152.0050 N   0  0  0  0  0  0  0  0  0  0  0  0
  161.6930  206.8150  149.7380 C   0  0  0  0  0  0  0  0  0  0  0  0
  160.9650  203.1320  149.8980 C   0  0  0  0  0  3  0  0  0  0  0  0
  161.4640  204.9430  145.0480 C   0  0  0  0  0  3  0  0  0  0  0  0
  161.2200  204.8160  151.6150 C   0  0  0  0  0  0  0  0  0  0  0  0
  160.9910  203.8420  152.5920 C   0  0  0  0  0  3  0  0  0  0  0  0
  161.9480  207.8430  148.8250 C   0  0  0  0  0  3  0  0  0  0  0  0
  161.7050  206.3750  146.9880 C   0  0  0  0  0  0  0  0  0  0  0  0
  161.7120  206.1990  145.6000 C   0  0  0  0  0  3  0  0  0  0  0  0
  161.8460  208.4860  151.6410 C   0  0  0  0  0  2  0  0  0  0  0  0
  161.2050  208.2620  154.0500 C   0  0  0  0  0  1  0  0  0  0  0  0
  160.7850  208.7960  152.6940 C   0  0  1  0  0  3  0  0  0  0  0  0
  159.1110  212.6590  152.4470 C   0  0  0  0  0  0  0  0  0  0  0  0
  159.7470  210.7390  153.9000 C   0  0  0  0  0  2  0  0  0  0  0  0
  161.6170  210.8480  150.7890 O   0  0  0  0  0  0  0  0  0  0  0  0
  158.4230  213.9730  152.3590 C   0  0  0  0  0  1  0  0  0  0  0  0
  158.6010  211.6250  153.4150 C   0  0  0  0  0  2  0  0  0  0  0  0
  160.7850  211.1420  151.6860 C   0  0  0  0  0  0  0  0  0  0  0  0
  160.4940  210.2270  152.7580 N   0  0  0  0  0  0  0  0  0  0  0  0
  160.0930  212.3950  151.6360 N   0  0  0  0  0  0  0  0  0  0  0  0
  1  6  1  0  0  0  0
  2 13  2  0  0  0  0
  2  5  1  0  0  0  0
  3  2  1  0  0  0  0
  4  7  1  0  0  0  0
  5 16  2  0  0  0  0
  6 17  2  0  0  0  0
  7  3  2  0  0  0  0
  8 21  1  0  0  0  0
  8 12  2  0  0  0  0
  9  1  1  0  0  0  0
 10 18  2  0  0  0  0
 11  4  1  0  0  0  0
 13  8  1  0  0  0  0
 14  5  1  0  0  0  0
 14  1  2  0  0  0  0
 15 20  1  0  0  0  0
 15  4  2  0  0  0  0
 16 12  1  0  0  0  0
 16 17  1  0  0  0  0
 18 13  1  0  0  0  0
 19 10  1  0  0  0  0
 19  3  1  0  0  0  0
 20 19  2  0  0  0  0
 21 23  1  0  0  0  0
 23 30  1  0  0  0  0
 23 22  1  1  0  0  0
 24 28  1  0  0  0  0
 26 29  2  0  0  0  0
 27 24  1  0  0  0  0
 28 25  1  0  0  0  0
 29 30  1  0  0  0  0
 30 25  1  0  0  0  0
 31 29  1  0  0  0  0
 31 24  2  0  0  0  0
M  END
>  <MODEL>
8

>  <REMARK>
 VINA RESULT:      -8.2      2.959      4.884
  Name = 
  3 active torsions:
  status: ('A' for Active; 'I' for Inactive)
    1  A    between atoms: C_5  and  C_16
    2  A    between atoms: C_5  and  N_30
    3  A    between atoms: C_10  and  C_16
                            x       y       z     vdW  Elec       q    Type
                         _______ _______ _______ _____ _____    ______ ____

>  <TORSDO>
F 3

$$$$
=
 OpenBabel11122413083D

 31 35  0  0  1  0  0  0  0  0999 V2000
  161.7400  210.7660  149.6880 C   0  0  0  0  0  0  0  0  0  0  0  0
  161.2970  208.1700  152.3820 C   0  0  0  0  0  0  0  0  0  0  0  0
  160.8510  208.8590  153.5530 C   0  0  0  0  0  0  0  0  0  0  0  0
  160.1890  210.8850  154.7490 C   0  0  0  0  0  0  0  0  0  0  0  0
  161.5780  208.7990  151.1310 C   0  0  0  0  0  0  0  0  0  0  0  0
  162.1550  209.9670  148.6240 C   0  0  0  0  0  3  0  0  0  0  0  0
  160.6290  210.2470  153.5880 C   0  0  0  0  0  3  0  0  0  0  0  0
  161.8800  206.0260  151.3400 C   0  0  0  0  0  0  0  0  0  0  0  0
  161.5750  212.4940  149.4750 Cl  0  0  0  0  0  0  0  0  0  0  0  0
  160.8070  206.7820  154.7690 N   0  0  0  0  0  0  0  0  0  0  0  0
  159.9250  212.6140  154.7500 Cl  0  0  0  0  0  0  0  0  0  0  0  0
  162.1320  206.6640  150.1720 N   0  0  0  0  0  0  0  0  0  0  0  0
  161.4690  206.7600  152.4680 C   0  0  0  0  0  0  0  0  0  0  0  0
  161.4550  210.1860  150.9270 C   0  0  0  0  0  3  0  0  0  0  0  0
  159.9610  210.1430  155.9080 C   0  0  0  0  0  3  0  0  0  0  0  0
  162.0020  208.0040  150.0370 C   0  0  0  0  0  0  0  0  0  0  0  0
  162.2850  208.5900  148.7990 C   0  0  0  0  0  3  0  0  0  0  0  0
  161.2230  206.1000  153.6770 C   0  0  0  0  0  3  0  0  0  0  0  0
  160.6110  208.1210  154.7420 C   0  0  0  0  0  0  0  0  0  0  0  0
  160.1720  208.7650  155.9030 C   0  0  0  0  0  3  0  0  0  0  0  0
  161.9870  204.5300  151.3740 C   0  0  0  0  0  2  0  0  0  0  0  0
  159.7570  204.9520  150.3170 C   0  0  0  0  0  1  0  0  0  0  0  0
  160.7630  203.8910  150.7230 C   0  0  1  0  0  3  0  0  0  0  0  0
  160.9160  201.6490  147.1540 C   0  0  0  0  0  0  0  0  0  0  0  0
  161.6300  203.7010  148.3730 C   0  0  0  0  0  2  0  0  0  0  0  0
  160.7160  200.9730  150.5910 O   0  0  0  0  0  0  0  0  0  0  0  0
  160.8900  200.9230  145.8580 C   0  0  0  0  0  1  0  0  0  0  0  0
  160.8880  203.1550  147.1550 C   0  0  0  0  0  2  0  0  0  0  0  0
  160.9100  201.6340  149.5380 C   0  0  0  0  0  0  0  0  0  0  0  0
  161.1350  203.0540  149.5830 N   0  0  0  0  0  0  0  0  0  0  0  0
  160.8860  200.9750  148.2670 N   0  0  0  0  0  0  0  0  0  0  0  0
  1 14  1  0  0  0  0
  2 13  2  0  0  0  0
  2  3  1  0  0  0  0
  3  7  2  0  0  0  0
  3 19  1  0  0  0  0
  4 11  1  0  0  0  0
  4 15  2  0  0  0  0
  5  2  1  0  0  0  0
  6 17  1  0  0  0  0
  6  1  2  0  0  0  0
  7  4  1  0  0  0  0
  8 21  1  0  0  0  0
  8 13  1  0  0  0  0
  9  1  1  0  0  0  0
 12  8  2  0  0  0  0
 13 18  1  0  0  0  0
 14  5  2  0  0  0  0
 16 12  1  0  0  0  0
 16  5  1  0  0  0  0
 17 16  2  0  0  0  0
 18 10  2  0  0  0  0
 19 10  1  0  0  0  0
 19 20  2  0  0  0  0
 20 15  1  0  0  0  0
 23 22  1  6  0  0  0
 23 21  1  0  0  0  0
 24 28  1  0  0  0  0
 24 31  2  0  0  0  0
 25 30  1  0  0  0  0
 27 24  1  0  0  0  0
 28 25  1  0  0  0  0
 29 30  1  0  0  0  0
 29 26  2  0  0  0  0
 30 23  1  0  0  0  0
 31 29  1  0  0  0  0
M  END
>  <MODEL>
9

>  <REMARK>
 VINA RESULT:      -8.0      4.126      8.039
  Name = 
  3 active torsions:
  status: ('A' for Active; 'I' for Inactive)
    1  A    between atoms: C_5  and  C_16
    2  A    between atoms: C_5  and  N_30
    3  A    between atoms: C_10  and  C_16
                            x       y       z     vdW  Elec       q    Type
                         _______ _______ _______ _____ _____    ______ ____

>  <TORSDO>
F 3

$$$$
