=
 OpenBabel11122413503D

 37 42  0  0  1  0  0  0  0  0999 V2000
  160.8490  210.9250  155.9630 C   0  0  0  0  0  0  0  0  0  0  0  0
  159.8230  211.8940  152.0710 C   0  0  0  0  0  0  0  0  0  0  0  0
  162.2810  210.9050  149.3530 O   0  0  0  0  0  0  0  0  0  0  0  0
  159.5660  212.5030  154.4140 C   0  0  0  0  0  0  0  0  0  0  0  0
  160.6610  211.0010  151.2120 C   0  0  1  0  0  3  0  0  0  0  0  0
  160.1590  211.7420  153.3220 C   0  0  0  0  0  0  0  0  0  0  0  0
  161.3890  211.7420  150.0720 C   0  0  2  0  0  3  0  0  0  0  0  0
  158.7090  213.4930  154.1240 C   0  0  0  0  0  3  0  0  0  0  0  0
  161.1740  210.7930  153.5190 N   0  0  0  0  0  0  0  0  0  0  0  0
  159.8740  209.7650  156.0450 C   0  0  0  0  0  1  0  0  0  0  0  0
  158.5860  213.1260  150.2440 C   0  0  0  0  0  2  0  0  0  0  0  0
  158.4020  213.8650  152.6800 C   0  0  0  0  0  2  0  0  0  0  0  0
  161.8480  210.6820  154.8060 C   0  0  0  0  0  2  0  0  0  0  0  0
  162.3140  208.4890  149.5320 C   0  0  1  0  0  3  0  0  0  0  0  0
  161.6050  209.7280  148.9780 C   0  0  0  0  0  2  0  0  0  0  0  0
  158.5940  212.6830  151.7060 C   0  0  2  0  0  3  0  0  0  0  0  0
  161.6950  210.4350  152.2070 C   0  0  1  0  0  3  0  0  0  0  0  0
  160.0590  212.2490  155.8140 C   0  0  0  0  0  2  0  0  0  0  0  0
  160.4350  212.5300  149.1490 C   0  0  1  0  0  3  0  0  0  0  0  0
  161.6270  210.9800  157.2600 C   0  0  0  0  0  1  0  0  0  0  0  0
  162.8600  208.6100  150.9660 C   0  0  0  0  0  2  0  0  0  0  0  0
  161.8140  208.9290  152.0350 C   0  0  0  0  0  2  0  0  0  0  0  0
  159.8470  213.5920  149.8530 O   0  0  0  0  0  0  0  0  0  0  0  0
  162.2230  213.9350  148.1070 C   0  0  0  0  0  3  0  0  0  0  0  0
  161.1410  213.0640  147.9400 C   0  0  0  0  0  0  0  0  0  0  0  0
  160.7250  212.7140  146.6470 C   0  0  0  0  0  3  0  0  0  0  0  0
  160.9530  212.8520  144.1630 C   0  0  0  0  0  1  0  0  0  0  0  0
  162.4730  214.0980  145.7040 C   0  0  0  0  0  3  0  0  0  0  0  0
  161.3910  213.2300  145.5320 C   0  0  0  0  0  0  0  0  0  0  0  0
  162.8890  214.4520  146.9920 C   0  0  0  0  0  3  0  0  0  0  0  0
  160.0060  204.7640  149.3400 O   0  0  0  0  0  0  0  0  0  0  0  0
  160.8330  204.9800  150.2620 C   0  0  0  0  0  0  0  0  0  0  0  0
  161.4820  207.2630  149.3450 C   0  0  0  0  0  0  0  0  0  0  0  0
  161.5650  206.2130  150.3130 N   0  0  0  0  0  2  0  0  0  0  0  0
  160.7250  207.1580  148.3400 O   0  0  0  0  0  0  0  0  0  0  0  0
  160.9490  202.6170  150.9310 C   0  0  0  0  0  1  0  0  0  0  0  0
  161.0320  204.0010  151.2350 O   0  0  0  0  0  0  0  0  0  0  0  0
  1 10  1  0  0  0  0
  1 20  1  0  0  0  0
  2  6  2  0  0  0  0
  4 18  1  0  0  0  0
  5  2  1  1  0  0  0
  5 17  1  0  0  0  0
  6  9  1  0  0  0  0
  6  4  1  0  0  0  0
  7  3  1  6  0  0  0
  7  5  1  0  0  0  0
  8  4  2  0  0  0  0
  9 13  1  0  0  0  0
 12  8  1  0  0  0  0
 13  1  1  0  0  0  0
 14 33  1  1  0  0  0
 14 21  1  0  0  0  0
 15  3  1  0  0  0  0
 15 14  1  0  0  0  0
 16 11  1  6  0  0  0
 16  2  1  0  0  0  0
 16 12  1  0  0  0  0
 17 22  1  1  0  0  0
 17  9  1  0  0  0  0
 18  1  1  0  0  0  0
 19 25  1  6  0  0  0
 19 23  1  0  0  0  0
 19  7  1  0  0  0  0
 21 22  1  0  0  0  0
 23 11  1  0  0  0  0
 25 24  1  0  0  0  0
 26 25  2  0  0  0  0
 27 29  1  0  0  0  0
 28 30  1  0  0  0  0
 29 28  2  0  0  0  0
 29 26  1  0  0  0  0
 30 24  2  0  0  0  0
 31 32  2  0  0  0  0
 32 34  1  0  0  0  0
 32 37  1  0  0  0  0
 33 34  1  0  0  0  0
 35 33  2  0  0  0  0
 36 37  1  0  0  0  0
M  END
>  <MODEL>
1

>  <REMARK>
 VINA RESULT:      -5.7      0.000      0.000
  Name = 
  3 active torsions:
  status: ('A' for Active; 'I' for Inactive)
    1  A    between atoms: C_4  and  O_37
    2  A    between atoms: C_8  and  C_18
    3  A    between atoms: C_23  and  C_30
                            x       y       z     vdW  Elec       q    Type
                         _______ _______ _______ _____ _____    ______ ____

>  <TORSDO>
F 3

$$$$
=
 OpenBabel11122413503D

 37 42  0  0  1  0  0  0  0  0999 V2000
  158.8280  212.5500  155.8400 C   0  0  0  0  0  0  0  0  0  0  0  0
  158.7810  212.6510  151.7010 C   0  0  0  0  0  0  0  0  0  0  0  0
  161.9660  211.5980  149.9250 O   0  0  0  0  0  0  0  0  0  0  0  0
  157.8440  213.6130  153.7330 C   0  0  0  0  0  0  0  0  0  0  0  0
  159.9090  211.7640  151.2760 C   0  0  1  0  0  3  0  0  0  0  0  0
  158.7860  212.7750  153.0000 C   0  0  0  0  0  0  0  0  0  0  0  0
  160.8310  212.3990  150.2160 C   0  0  2  0  0  3  0  0  0  0  0  0
  156.9970  214.3910  153.0440 C   0  0  0  0  0  3  0  0  0  0  0  0
  159.8050  212.0460  153.6300 N   0  0  0  0  0  0  0  0  0  0  0  0
  157.9950  211.2840  155.9250 C   0  0  0  0  0  1  0  0  0  0  0  0
  157.9540  213.3360  149.4140 C   0  0  0  0  0  2  0  0  0  0  0  0
  157.0480  214.4520  151.5230 C   0  0  0  0  0  2  0  0  0  0  0  0
  160.1190  212.2680  155.0360 C   0  0  0  0  0  2  0  0  0  0  0  0
  162.2060  209.2860  150.6080 C   0  0  1  0  0  3  0  0  0  0  0  0
  161.5440  210.2830  149.6530 C   0  0  0  0  0  2  0  0  0  0  0  0
  157.6180  213.1620  150.8940 C   0  0  2  0  0  3  0  0  0  0  0  0
  160.6930  211.5490  152.5870 C   0  0  1  0  0  3  0  0  0  0  0  0
  157.9710  213.6880  155.2310 C   0  0  0  0  0  2  0  0  0  0  0  0
  160.0810  212.8540  148.9470 C   0  0  1  0  0  3  0  0  0  0  0  0
  159.2210  212.9520  157.2450 C   0  0  0  0  0  1  0  0  0  0  0  0
  162.3340  209.7400  152.0740 C   0  0  0  0  0  2  0  0  0  0  0  0
  161.0120  210.0740  152.7680 C   0  0  0  0  0  2  0  0  0  0  0  0
  159.2170  213.9180  149.2500 O   0  0  0  0  0  0  0  0  0  0  0  0
  162.1440  214.0450  148.1830 C   0  0  0  0  0  3  0  0  0  0  0  0
  161.0230  213.2720  147.8600 C   0  0  0  0  0  0  0  0  0  0  0  0
  160.7910  212.9120  146.5240 C   0  0  0  0  0  3  0  0  0  0  0  0
  161.4330  212.9310  144.1100 C   0  0  0  0  0  1  0  0  0  0  0  0
  162.7970  214.0900  145.8520 C   0  0  0  0  0  3  0  0  0  0  0  0
  161.6780  213.3200  145.5240 C   0  0  0  0  0  0  0  0  0  0  0  0
  163.0290  214.4530  147.1830 C   0  0  0  0  0  3  0  0  0  0  0  0
  160.4850  205.3220  149.8610 O   0  0  0  0  0  0  0  0  0  0  0  0
  160.9000  206.0490  148.9210 C   0  0  0  0  0  0  0  0  0  0  0  0
  161.5890  207.9330  150.4870 C   0  0  0  0  0  0  0  0  0  0  0  0
  161.4740  207.3350  149.1920 N   0  0  0  0  0  2  0  0  0  0  0  0
  161.1690  207.3330  151.5160 O   0  0  0  0  0  0  0  0  0  0  0  0
  161.9300  205.2150  146.8500 C   0  0  0  0  0  1  0  0  0  0  0  0
  160.7900  205.5860  147.6110 O   0  0  0  0  0  0  0  0  0  0  0  0
  1 10  1  0  0  0  0
  1 20  1  0  0  0  0
  2  6  2  0  0  0  0
  4 18  1  0  0  0  0
  5  2  1  1  0  0  0
  5 17  1  0  0  0  0
  6  9  1  0  0  0  0
  6  4  1  0  0  0  0
  7  3  1  6  0  0  0
  7  5  1  0  0  0  0
  8  4  2  0  0  0  0
  9 13  1  0  0  0  0
 12  8  1  0  0  0  0
 13  1  1  0  0  0  0
 14 33  1  1  0  0  0
 14 21  1  0  0  0  0
 15  3  1  0  0  0  0
 15 14  1  0  0  0  0
 16 11  1  6  0  0  0
 16 12  1  0  0  0  0
 16  2  1  0  0  0  0
 17 22  1  1  0  0  0
 17  9  1  0  0  0  0
 18  1  1  0  0  0  0
 19 25  1  6  0  0  0
 19 23  1  0  0  0  0
 19  7  1  0  0  0  0
 21 22  1  0  0  0  0
 23 11  1  0  0  0  0
 25 24  1  0  0  0  0
 26 25  2  0  0  0  0
 27 29  1  0  0  0  0
 28 30  1  0  0  0  0
 29 28  2  0  0  0  0
 29 26  1  0  0  0  0
 30 24  2  0  0  0  0
 32 34  1  0  0  0  0
 32 31  2  0  0  0  0
 33 35  2  0  0  0  0
 34 33  1  0  0  0  0
 36 37  1  0  0  0  0
 37 32  1  0  0  0  0
M  END
>  <MODEL>
2

>  <REMARK>
 VINA RESULT:      -5.5      1.412      1.891
  Name = 
  3 active torsions:
  status: ('A' for Active; 'I' for Inactive)
    1  A    between atoms: C_4  and  O_37
    2  A    between atoms: C_8  and  C_18
    3  A    between atoms: C_23  and  C_30
                            x       y       z     vdW  Elec       q    Type
                         _______ _______ _______ _____ _____    ______ ____

>  <TORSDO>
F 3

$$$$
=
 OpenBabel11122413503D

 37 42  0  0  1  0  0  0  0  0999 V2000
  161.4080  209.7650  155.9610 C   0  0  0  0  0  0  0  0  0  0  0  0
  160.1050  211.2650  152.3290 C   0  0  0  0  0  0  0  0  0  0  0  0
  162.3930  210.7560  149.3430 O   0  0  0  0  0  0  0  0  0  0  0  0
  159.9940  211.5160  154.7490 C   0  0  0  0  0  0  0  0  0  0  0  0
  160.9010  210.5320  151.2960 C   0  0  1  0  0  3  0  0  0  0  0  0
  160.5280  210.9410  153.5200 C   0  0  0  0  0  0  0  0  0  0  0  0
  161.5350  211.4530  150.2340 C   0  0  2  0  0  3  0  0  0  0  0  0
  159.1020  212.5140  154.6640 C   0  0  0  0  0  3  0  0  0  0  0  0
  161.5710  210.0030  153.5090 N   0  0  0  0  0  0  0  0  0  0  0  0
  160.4620  208.5780  155.9320 C   0  0  0  0  0  1  0  0  0  0  0  0
  158.7260  212.7170  150.7880 C   0  0  0  0  0  2  0  0  0  0  0  0
  158.6910  213.0850  153.3130 C   0  0  0  0  0  2  0  0  0  0  0  0
  162.3320  209.7220  154.7200 C   0  0  0  0  0  2  0  0  0  0  0  0
  162.4830  208.3420  149.1590 C   0  0  1  0  0  3  0  0  0  0  0  0
  161.7150  209.6280  148.8420 C   0  0  0  0  0  2  0  0  0  0  0  0
  158.8400  212.0640  152.1640 C   0  0  2  0  0  3  0  0  0  0  0  0
  162.0090  209.8560  152.1280 C   0  0  1  0  0  3  0  0  0  0  0  0
  160.5860  211.0740  156.0600 C   0  0  0  0  0  2  0  0  0  0  0  0
  160.5080  212.3410  149.5010 C   0  0  1  0  0  3  0  0  0  0  0  0
  162.2710  209.6510  157.1990 C   0  0  0  0  0  1  0  0  0  0  0  0
  163.1220  208.2670  150.5580 C   0  0  0  0  0  2  0  0  0  0  0  0
  162.1440  208.3960  151.7270 C   0  0  0  0  0  2  0  0  0  0  0  0
  159.9490  213.2710  150.3910 O   0  0  0  0  0  0  0  0  0  0  0  0
  162.3710  213.6740  148.4980 C   0  0  0  0  0  3  0  0  0  0  0  0
  161.1210  213.0660  148.3420 C   0  0  0  0  0  0  0  0  0  0  0  0
  160.4540  213.1560  147.1120 C   0  0  0  0  0  3  0  0  0  0  0  0
  160.3340  213.9320  144.7400 C   0  0  0  0  0  1  0  0  0  0  0  0
  162.2900  214.4480  146.2050 C   0  0  0  0  0  3  0  0  0  0  0  0
  161.0390  213.8450  146.0460 C   0  0  0  0  0  0  0  0  0  0  0  0
  162.9560  214.3630  147.4320 C   0  0  0  0  0  3  0  0  0  0  0  0
  160.3640  204.6870  147.9830 O   0  0  0  0  0  0  0  0  0  0  0  0
  161.4200  205.0520  147.4040 C   0  0  0  0  0  0  0  0  0  0  0  0
  161.6630  207.1340  148.8460 C   0  0  0  0  0  0  0  0  0  0  0  0
  162.1040  206.2430  147.8170 N   0  0  0  0  0  2  0  0  0  0  0  0
  160.5930  206.9140  149.4780 O   0  0  0  0  0  0  0  0  0  0  0  0
  161.0510  203.6240  145.4370 C   0  0  0  0  0  1  0  0  0  0  0  0
  161.9140  204.2840  146.3510 O   0  0  0  0  0  0  0  0  0  0  0  0
  1 18  1  0  0  0  0
  1 20  1  0  0  0  0
  2  6  2  0  0  0  0
  4 18  1  0  0  0  0
  5 17  1  0  0  0  0
  5  2  1  1  0  0  0
  6  4  1  0  0  0  0
  7  3  1  6  0  0  0
  7  5  1  0  0  0  0
  8  4  2  0  0  0  0
  9  6  1  0  0  0  0
  9 13  1  0  0  0  0
 10  1  1  0  0  0  0
 12  8  1  0  0  0  0
 13  1  1  0  0  0  0
 14 33  1  1  0  0  0
 14 21  1  0  0  0  0
 15 14  1  0  0  0  0
 15  3  1  0  0  0  0
 16 11  1  6  0  0  0
 16  2  1  0  0  0  0
 16 12  1  0  0  0  0
 17 22  1  6  0  0  0
 17  9  1  0  0  0  0
 19 25  1  6  0  0  0
 19  7  1  0  0  0  0
 19 23  1  0  0  0  0
 21 22  1  0  0  0  0
 23 11  1  0  0  0  0
 25 24  1  0  0  0  0
 26 25  2  0  0  0  0
 27 29  1  0  0  0  0
 28 30  1  0  0  0  0
 29 28  2  0  0  0  0
 29 26  1  0  0  0  0
 30 24  2  0  0  0  0
 32 34  1  0  0  0  0
 32 31  2  0  0  0  0
 33 35  2  0  0  0  0
 34 33  1  0  0  0  0
 36 37  1  0  0  0  0
 37 32  1  0  0  0  0
M  END
>  <MODEL>
3

>  <REMARK>
 VINA RESULT:      -4.4      1.432      1.618
  Name = 
  3 active torsions:
  status: ('A' for Active; 'I' for Inactive)
    1  A    between atoms: C_4  and  O_37
    2  A    between atoms: C_8  and  C_18
    3  A    between atoms: C_23  and  C_30
                            x       y       z     vdW  Elec       q    Type
                         _______ _______ _______ _____ _____    ______ ____

>  <TORSDO>
F 3

$$$$
