=
 OpenBabel11122413443D

 37 44  0  0  1  0  0  0  0  0999 V2000
  160.8090  207.3150  151.9130 C   0  0  0  0  0  2  0  0  0  0  0  0
  159.6380  211.3320  154.8750 S   0  0  0  0  0  0  0  0  0  0  0  0
  160.6620  212.0740  150.7490 C   0  0  0  0  0  0  0  0  0  0  0  0
  161.6360  206.2010  152.5640 C   0  0  2  0  0  3  0  0  0  0  0  0
  162.0840  209.3790  148.4650 C   0  0  0  0  0  2  0  0  0  0  0  0
  159.4110  212.8970  152.6650 C   0  0  0  0  0  0  0  0  0  0  0  0
  161.3570  210.8200  150.3000 C   0  0  2  0  0  3  0  0  0  0  0  0
  162.5060  205.9470  150.2120 C   0  0  0  0  0  0  0  0  0  0  0  0
  159.9250  211.8460  151.8980 C   0  0  0  0  0  0  0  0  0  0  0  0
  161.1510  210.4530  148.8690 N   0  0  1  0  0  0  0  0  0  0  0  0
  159.5720  214.2060  152.2050 C   0  0  0  0  0  3  0  0  0  0  0  0
  162.7520  205.6650  151.6610 C   0  0  0  0  0  2  0  0  0  0  0  0
  159.9420  210.4320  152.3450 C   0  0  2  0  0  3  0  0  0  0  0  0
  158.6390  210.4580  155.5770 O   0  0  0  0  0  0  0  0  0  0  0  0
  161.6870  213.7760  149.0990 C   0  0  0  0  0  2  0  0  0  0  0  0
  160.2940  214.4510  151.0280 C   0  0  0  0  0  3  0  0  0  0  0  0
  160.5920  210.3480  153.7230 C   0  0  0  0  0  2  0  0  0  0  0  0
  162.9590  207.2500  149.6310 C   0  0  1  0  0  3  0  0  0  0  0  0
  161.8620  208.1440  149.3150 C   0  0  1  0  0  3  0  0  0  0  0  0
  160.8790  213.4000  150.3060 C   0  0  0  0  0  0  0  0  0  0  0  0
  160.7190  209.7420  151.2220 C   0  0  2  0  0  3  0  0  0  0  0  0
  158.7640  212.6290  153.9910 C   0  0  0  0  0  2  0  0  0  0  0  0
  161.4110  211.5400  147.9120 C   0  0  2  0  0  3  0  0  0  0  0  0
  160.5610  211.9500  155.8870 O   0  0  0  0  0  0  0  0  0  0  0  0
  162.6740  208.4040  150.5270 N   0  0  1  0  0  0  0  0  0  0  0  0
  161.9490  205.1190  149.5110 O   0  0  0  0  0  0  0  0  0  0  0  0
  161.6450  208.5570  151.5850 C   0  0  2  0  0  3  0  0  0  0  0  0
  162.3900  212.6220  148.3930 C   0  0  0  0  0  2  0  0  0  0  0  0
  158.9590  212.4460  148.0520 C   0  0  0  0  0  2  0  0  0  0  0  0
  160.1690  212.0420  147.2300 C   0  0  0  0  0  0  0  0  0  0  0  0
  160.1560  212.0830  145.8940 C   0  0  0  0  0  3  0  0  0  0  0  0
  158.9740  212.5710  143.9120 O   0  0  0  0  0  0  0  0  0  0  0  0
  157.8150  213.0490  145.9160 C   0  0  0  0  0  3  0  0  0  0  0  0
  158.9780  212.5640  145.1680 C   0  0  0  0  0  0  0  0  0  0  0  0
  157.8100  213.0070  147.2480 C   0  0  0  0  0  3  0  0  0  0  0  0
  161.1190  203.7820  152.2370 C   0  0  0  0  0  1  0  0  0  0  0  0
  160.7260  205.0550  152.9710 C   0  0  0  0  0  2  0  0  0  0  0  0
  1  4  1  0  0  0  0
  2 14  2  0  0  0  0
  2 24  2  0  0  0  0
  3  9  1  0  0  0  0
  4 37  1  6  0  0  0
  6 22  1  0  0  0  0
  7  3  1  6  0  0  0
  7 21  1  0  0  0  0
  8 12  1  0  0  0  0
  9 13  1  0  0  0  0
  9  6  2  0  0  0  0
 10  5  1  6  0  0  0
 10  7  1  0  0  0  0
 11  6  1  0  0  0  0
 12  4  1  0  0  0  0
 13 17  1  1  0  0  0
 15 20  1  0  0  0  0
 16 11  2  0  0  0  0
 17  2  1  0  0  0  0
 18  8  1  1  0  0  0
 18 25  1  0  0  0  0
 19  5  1  6  0  0  0
 19 18  1  0  0  0  0
 19 25  1  0  0  0  0
 20  3  2  0  0  0  0
 20 16  1  0  0  0  0
 21 27  1  0  0  0  0
 21 13  1  0  0  0  0
 22  2  1  0  0  0  0
 23 28  1  0  0  0  0
 23 10  1  0  0  0  0
 25 27  1  0  0  0  0
 26  8  2  0  0  0  0
 27  1  1  0  0  0  0
 28 15  1  0  0  0  0
 30 23  1  0  0  0  0
 30 29  1  0  0  0  0
 31 30  2  0  0  0  0
 32 34  2  0  0  0  0
 33 35  2  0  0  0  0
 34 31  1  0  0  0  0
 34 33  1  0  0  0  0
 35 29  1  0  0  0  0
 36 37  1  0  0  0  0
M  END
>  <MODEL>
1

>  <REMARK>
 VINA RESULT:      -2.8      0.000      0.000
  Name = 
  2 active torsions:
  status: ('A' for Active; 'I' for Inactive)
    1  A    between atoms: C_4  and  C_37
    2  A    between atoms: C_23  and  C_30
                            x       y       z     vdW  Elec       q    Type
                         _______ _______ _______ _____ _____    ______ ____

>  <TORSDO>
F 2

$$$$
=
 OpenBabel11122413443D

 37 44  0  0  1  0  0  0  0  0999 V2000
  160.4490  211.2440  149.2720 C   0  0  0  0  0  2  0  0  0  0  0  0
  162.0420  206.9090  151.4950 S   0  0  0  0  0  0  0  0  0  0  0  0
  160.4290  210.0160  154.0170 C   0  0  0  0  0  0  0  0  0  0  0  0
  161.2970  211.7710  148.1100 C   0  0  2  0  0  3  0  0  0  0  0  0
  159.6690  213.5200  152.7340 C   0  0  0  0  0  2  0  0  0  0  0  0
  160.7770  207.6200  153.7920 C   0  0  0  0  0  0  0  0  0  0  0  0
  160.4770  211.2550  153.1690 C   0  0  2  0  0  3  0  0  0  0  0  0
  160.4830  213.9930  148.9770 C   0  0  0  0  0  0  0  0  0  0  0  0
  160.5250  208.8790  153.2350 C   0  0  0  0  0  0  0  0  0  0  0  0
  159.3780  212.2360  153.4070 N   0  0  1  0  0  0  0  0  0  0  0  0
  160.8410  207.5010  155.1830 C   0  0  0  0  0  3  0  0  0  0  0  0
  161.5140  213.2870  148.1520 C   0  0  0  0  0  2  0  0  0  0  0  0
  160.5730  209.1590  151.7790 C   0  0  2  0  0  3  0  0  0  0  0  0
  161.5530  206.1680  150.2840 O   0  0  0  0  0  0  0  0  0  0  0  0
  160.4960  211.0750  156.3710 C   0  0  0  0  0  2  0  0  0  0  0  0
  160.7180  208.6420  155.9900 C   0  0  0  0  0  3  0  0  0  0  0  0
  161.9050  208.6720  151.2170 C   0  0  0  0  0  2  0  0  0  0  0  0
  160.6980  214.1400  150.4510 C   0  0  1  0  0  3  0  0  0  0  0  0
  159.8090  213.3090  151.2400 C   0  0  1  0  0  3  0  0  0  0  0  0
  160.5480  209.9140  155.4230 C   0  0  0  0  0  0  0  0  0  0  0  0
  160.3670  210.6750  151.7300 C   0  0  2  0  0  3  0  0  0  0  0  0
  161.0460  206.4360  152.9130 C   0  0  0  0  0  2  0  0  0  0  0  0
  159.1760  212.6020  154.8180 C   0  0  2  0  0  3  0  0  0  0  0  0
  163.4800  206.5540  151.7520 O   0  0  0  0  0  0  0  0  0  0  0  0
  161.2220  212.8960  151.0770 N   0  0  1  0  0  0  0  0  0  0  0  0
  159.4840  214.4520  148.4490 O   0  0  0  0  0  0  0  0  0  0  0  0
  161.1030  211.4840  150.6370 C   0  0  2  0  0  3  0  0  0  0  0  0
  160.4100  212.4520  155.7220 C   0  0  0  0  0  2  0  0  0  0  0  0
  157.4850  212.4370  156.8090 C   0  0  0  0  0  2  0  0  0  0  0  0
  157.8850  212.0850  155.3880 C   0  0  0  0  0  0  0  0  0  0  0  0
  157.1330  211.2870  154.6240 C   0  0  0  0  0  3  0  0  0  0  0  0
  155.1810  209.9830  154.3950 O   0  0  0  0  0  0  0  0  0  0  0  0
  155.3860  211.1330  156.4510 C   0  0  0  0  0  3  0  0  0  0  0  0
  155.8620  210.7520  155.1180 C   0  0  0  0  0  0  0  0  0  0  0  0
  156.1290  211.9210  157.2280 C   0  0  0  0  0  3  0  0  0  0  0  0
  160.8150  212.5190  145.7790 C   0  0  0  0  0  1  0  0  0  0  0  0
  160.6510  211.3940  146.7880 C   0  0  0  0  0  2  0  0  0  0  0  0
  1 27  1  0  0  0  0
  2 24  2  0  0  0  0
  2 22  1  0  0  0  0
  3 20  1  0  0  0  0
  4 37  1  6  0  0  0
  4 12  1  0  0  0  0
  4  1  1  0  0  0  0
  6 11  2  0  0  0  0
  7 10  1  0  0  0  0
  7  3  1  1  0  0  0
  9  6  1  0  0  0  0
  9  3  2  0  0  0  0
 10  5  1  6  0  0  0
 10 23  1  0  0  0  0
 11 16  1  0  0  0  0
 12  8  1  0  0  0  0
 13 17  1  1  0  0  0
 13  9  1  0  0  0  0
 14  2  2  0  0  0  0
 17  2  1  0  0  0  0
 18  8  1  6  0  0  0
 18 25  1  0  0  0  0
 18 19  1  0  0  0  0
 19  5  1  1  0  0  0
 20 16  2  0  0  0  0
 20 15  1  0  0  0  0
 21 13  1  0  0  0  0
 21  7  1  0  0  0  0
 22  6  1  0  0  0  0
 23 30  1  0  0  0  0
 23 28  1  0  0  0  0
 25 19  1  0  0  0  0
 26  8  2  0  0  0  0
 27 25  1  0  0  0  0
 27 21  1  0  0  0  0
 28 15  1  0  0  0  0
 29 35  1  0  0  0  0
 30 29  1  0  0  0  0
 31 34  1  0  0  0  0
 31 30  2  0  0  0  0
 32 34  2  0  0  0  0
 33 35  2  0  0  0  0
 34 33  1  0  0  0  0
 36 37  1  0  0  0  0
M  END
>  <MODEL>
2

>  <REMARK>
 VINA RESULT:      -2.8      2.576      7.345
  Name = 
  2 active torsions:
  status: ('A' for Active; 'I' for Inactive)
    1  A    between atoms: C_4  and  C_37
    2  A    between atoms: C_23  and  C_30
                            x       y       z     vdW  Elec       q    Type
                         _______ _______ _______ _____ _____    ______ ____

>  <TORSDO>
F 2

$$$$
=
 OpenBabel11122413443D

 37 44  0  0  1  0  0  0  0  0999 V2000
  160.8330  207.2950  151.7430 C   0  0  0  0  0  2  0  0  0  0  0  0
  159.8470  211.2690  154.8270 S   0  0  0  0  0  0  0  0  0  0  0  0
  160.7020  212.0780  150.6750 C   0  0  0  0  0  0  0  0  0  0  0  0
  161.6720  206.1590  152.3360 C   0  0  2  0  0  3  0  0  0  0  0  0
  161.9860  209.4080  148.2820 C   0  0  0  0  0  2  0  0  0  0  0  0
  159.5460  212.8790  152.6580 C   0  0  0  0  0  0  0  0  0  0  0  0
  161.3600  210.8230  150.1730 C   0  0  2  0  0  3  0  0  0  0  0  0
  162.4360  205.9390  149.9440 C   0  0  0  0  0  0  0  0  0  0  0  0
  160.0120  211.8360  151.8500 C   0  0  0  0  0  0  0  0  0  0  0  0
  161.0870  210.4860  148.7450 N   0  0  1  0  0  0  0  0  0  0  0  0
  159.7040  214.1950  152.2160 C   0  0  0  0  0  3  0  0  0  0  0  0
  162.7410  205.6250  151.3760 C   0  0  0  0  0  2  0  0  0  0  0  0
  160.0290  210.4140  152.2700 C   0  0  2  0  0  3  0  0  0  0  0  0
  158.8660  210.3960  155.5550 O   0  0  0  0  0  0  0  0  0  0  0  0
  161.6780  213.7970  149.0140 C   0  0  0  0  0  2  0  0  0  0  0  0
  160.3780  214.4530  151.0140 C   0  0  0  0  0  3  0  0  0  0  0  0
  160.7360  210.2950  153.6170 C   0  0  0  0  0  2  0  0  0  0  0  0
  162.8820  207.2460  149.3690 C   0  0  1  0  0  3  0  0  0  0  0  0
  161.7850  208.1600  149.1170 C   0  0  1  0  0  3  0  0  0  0  0  0
  160.9170  213.4080  150.2470 C   0  0  0  0  0  0  0  0  0  0  0  0
  160.7470  209.7360  151.1010 C   0  0  2  0  0  3  0  0  0  0  0  0
  158.9530  212.5940  154.0060 C   0  0  0  0  0  2  0  0  0  0  0  0
  161.3200  211.5880  147.7990 C   0  0  2  0  0  3  0  0  0  0  0  0
  160.8210  211.8560  155.8090 O   0  0  0  0  0  0  0  0  0  0  0  0
  162.6510  208.3860  150.2970 N   0  0  1  0  0  0  0  0  0  0  0  0
  161.8390  205.1310  149.2540 O   0  0  0  0  0  0  0  0  0  0  0  0
  161.6710  208.5320  151.4020 C   0  0  2  0  0  3  0  0  0  0  0  0
  162.3340  212.6480  148.2570 C   0  0  0  0  0  2  0  0  0  0  0  0
  159.9280  212.2110  145.6710 C   0  0  0  0  0  2  0  0  0  0  0  0
  160.0570  212.1190  147.1810 C   0  0  0  0  0  0  0  0  0  0  0  0
  159.0830  212.5350  147.9950 C   0  0  0  0  0  3  0  0  0  0  0  0
  156.9310  213.4720  148.2370 O   0  0  0  0  0  0  0  0  0  0  0  0
  157.6150  213.0890  146.0070 C   0  0  0  0  0  3  0  0  0  0  0  0
  157.8260  213.0610  147.4570 C   0  0  0  0  0  0  0  0  0  0  0  0
  158.5800  212.6840  145.1820 C   0  0  0  0  0  3  0  0  0  0  0  0
  161.2540  203.7040  152.1690 C   0  0  0  0  0  1  0  0  0  0  0  0
  160.7650  205.0170  152.7610 C   0  0  0  0  0  2  0  0  0  0  0  0
  1  4  1  0  0  0  0
  2 14  2  0  0  0  0
  2 24  2  0  0  0  0
  3  9  1  0  0  0  0
  4 37  1  6  0  0  0
  6 22  1  0  0  0  0
  7  3  1  1  0  0  0
  7 21  1  0  0  0  0
  8 12  1  0  0  0  0
  9 13  1  0  0  0  0
  9  6  2  0  0  0  0
 10  5  1  6  0  0  0
 10  7  1  0  0  0  0
 11  6  1  0  0  0  0
 12  4  1  0  0  0  0
 13 17  1  1  0  0  0
 15 20  1  0  0  0  0
 16 11  2  0  0  0  0
 17  2  1  0  0  0  0
 18  8  1  1  0  0  0
 18 25  1  0  0  0  0
 19  5  1  6  0  0  0
 19 18  1  0  0  0  0
 19 25  1  0  0  0  0
 20  3  2  0  0  0  0
 20 16  1  0  0  0  0
 21 27  1  0  0  0  0
 21 13  1  0  0  0  0
 22  2  1  0  0  0  0
 23 28  1  0  0  0  0
 23 10  1  0  0  0  0
 25 27  1  0  0  0  0
 26  8  2  0  0  0  0
 27  1  1  0  0  0  0
 28 15  1  0  0  0  0
 29 30  1  0  0  0  0
 30 23  1  0  0  0  0
 30 31  2  0  0  0  0
 33 34  1  0  0  0  0
 34 31  1  0  0  0  0
 34 32  2  0  0  0  0
 35 29  1  0  0  0  0
 35 33  2  0  0  0  0
 36 37  1  0  0  0  0
M  END
>  <MODEL>
3

>  <REMARK>
 VINA RESULT:      -2.5      0.826      1.152
  Name = 
  2 active torsions:
  status: ('A' for Active; 'I' for Inactive)
    1  A    between atoms: C_4  and  C_37
    2  A    between atoms: C_23  and  C_30
                            x       y       z     vdW  Elec       q    Type
                         _______ _______ _______ _____ _____    ______ ____

>  <TORSDO>
F 2

$$$$
=
 OpenBabel11122413443D

 37 44  0  0  1  0  0  0  0  0999 V2000
  161.1220  208.0470  151.1950 C   0  0  0  0  0  2  0  0  0  0  0  0
  160.4750  208.4300  156.2660 S   0  0  0  0  0  0  0  0  0  0  0  0
  159.5600  211.8730  153.8320 C   0  0  0  0  0  0  0  0  0  0  0  0
  162.3480  207.2620  150.7180 C   0  0  2  0  0  3  0  0  0  0  0  0
  160.4400  212.0690  150.1320 C   0  0  0  0  0  2  0  0  0  0  0  0
  159.0590  210.7220  155.9130 C   0  0  0  0  0  0  0  0  0  0  0  0
  160.2490  211.6060  152.5230 C   0  0  2  0  0  3  0  0  0  0  0  0
  162.2180  208.8950  148.8020 C   0  0  0  0  0  0  0  0  0  0  0  0
  159.4160  210.7060  154.5610 C   0  0  0  0  0  0  0  0  0  0  0  0
  159.5570  212.1420  151.3150 N   0  0  1  0  0  0  0  0  0  0  0  0
  158.7510  211.9460  156.5130 C   0  0  0  0  0  3  0  0  0  0  0  0
  163.0840  207.9300  149.5520 C   0  0  0  0  0  2  0  0  0  0  0  0
  159.8980  209.4960  153.8510 C   0  0  2  0  0  3  0  0  0  0  0  0
  160.0460  206.9910  156.2680 O   0  0  0  0  0  0  0  0  0  0  0  0
  159.4590  214.4530  153.7720 C   0  0  0  0  0  2  0  0  0  0  0  0
  158.8660  213.1350  155.7780 C   0  0  0  0  0  3  0  0  0  0  0  0
  161.0540  208.8810  154.6330 C   0  0  0  0  0  2  0  0  0  0  0  0
  162.1240  210.3130  149.2710 C   0  0  1  0  0  3  0  0  0  0  0  0
  160.8370  210.6330  149.8600 C   0  0  1  0  0  3  0  0  0  0  0  0
  159.3050  213.1210  154.4450 C   0  0  0  0  0  0  0  0  0  0  0  0
  160.2720  210.0510  152.4750 C   0  0  2  0  0  3  0  0  0  0  0  0
  159.0750  209.4600  156.7230 C   0  0  0  0  0  2  0  0  0  0  0  0
  159.1810  213.5620  151.4020 C   0  0  2  0  0  3  0  0  0  0  0  0
  161.5850  208.6230  157.2610 O   0  0  0  0  0  0  0  0  0  0  0  0
  162.0010  210.4170  150.7510 N   0  0  1  0  0  0  0  0  0  0  0  0
  161.6040  208.5280  147.8140 O   0  0  0  0  0  0  0  0  0  0  0  0
  161.4840  209.4350  151.7360 C   0  0  2  0  0  3  0  0  0  0  0  0
  160.0310  214.4120  152.3580 C   0  0  0  0  0  2  0  0  0  0  0  0
  156.9830  213.6890  152.8190 C   0  0  0  0  0  2  0  0  0  0  0  0
  157.6960  213.7800  151.4820 C   0  0  0  0  0  0  0  0  0  0  0  0
  157.0310  214.0150  150.3470 C   0  0  0  0  0  3  0  0  0  0  0  0
  154.9710  214.4320  149.2750 O   0  0  0  0  0  0  0  0  0  0  0  0
  154.8600  214.2490  151.6300 C   0  0  0  0  0  3  0  0  0  0  0  0
  155.5830  214.2380  150.3560 C   0  0  0  0  0  0  0  0  0  0  0  0
  155.5080  214.0080  152.7700 C   0  0  0  0  0  3  0  0  0  0  0  0
  160.4710  205.8380  149.8980 C   0  0  0  0  0  1  0  0  0  0  0  0
  161.9340  205.8580  150.3110 C   0  0  0  0  0  2  0  0  0  0  0  0
  1 27  1  0  0  0  0
  2 14  2  0  0  0  0
  2 22  1  0  0  0  0
  2 24  2  0  0  0  0
  3 20  2  0  0  0  0
  3  9  1  0  0  0  0
  4 37  1  6  0  0  0
  4  1  1  0  0  0  0
  6 11  1  0  0  0  0
  6 22  1  0  0  0  0
  7  3  1  1  0  0  0
  8 12  1  0  0  0  0
  9  6  2  0  0  0  0
 10  5  1  6  0  0  0
 10 23  1  0  0  0  0
 10  7  1  0  0  0  0
 12  4  1  0  0  0  0
 13  9  1  0  0  0  0
 13 17  1  1  0  0  0
 15 20  1  0  0  0  0
 16 11  2  0  0  0  0
 17  2  1  0  0  0  0
 18  8  1  1  0  0  0
 18 19  1  0  0  0  0
 18 25  1  0  0  0  0
 19  5  1  6  0  0  0
 19 25  1  0  0  0  0
 20 16  1  0  0  0  0
 21  7  1  0  0  0  0
 21 13  1  0  0  0  0
 23 30  1  0  0  0  0
 23 28  1  0  0  0  0
 25 27  1  0  0  0  0
 26  8  2  0  0  0  0
 27 21  1  0  0  0  0
 28 15  1  0  0  0  0
 30 29  1  0  0  0  0
 31 34  1  0  0  0  0
 31 30  2  0  0  0  0
 32 34  2  0  0  0  0
 33 35  2  0  0  0  0
 34 33  1  0  0  0  0
 35 29  1  0  0  0  0
 36 37  1  0  0  0  0
M  END
>  <MODEL>
4

>  <REMARK>
 VINA RESULT:      -1.6      2.599      4.080
  Name = 
  2 active torsions:
  status: ('A' for Active; 'I' for Inactive)
    1  A    between atoms: C_4  and  C_37
    2  A    between atoms: C_23  and  C_30
                            x       y       z     vdW  Elec       q    Type
                         _______ _______ _______ _____ _____    ______ ____

>  <TORSDO>
F 2

$$$$
=
 OpenBabel11122413443D

 37 44  0  0  1  0  0  0  0  0999 V2000
  162.3740  207.4290  149.3550 C   0  0  0  0  0  2  0  0  0  0  0  0
  161.4190  212.2100  147.7710 S   0  0  0  0  0  0  0  0  0  0  0  0
  160.5030  211.2010  151.8650 C   0  0  0  0  0  0  0  0  0  0  0  0
  162.0720  206.3040  148.3600 C   0  0  2  0  0  3  0  0  0  0  0  0
  160.5980  207.6260  153.1730 C   0  0  0  0  0  2  0  0  0  0  0  0
  161.1080  213.0040  150.3510 C   0  0  0  0  0  0  0  0  0  0  0  0
  160.4680  209.6990  151.8860 C   0  0  2  0  0  3  0  0  0  0  0  0
  161.5920  205.0270  150.4790 C   0  0  0  0  0  0  0  0  0  0  0  0
  161.1720  211.6630  150.7460 C   0  0  0  0  0  0  0  0  0  0  0  0
  160.9270  209.0670  153.1570 N   0  0  1  0  0  0  0  0  0  0  0  0
  160.4260  213.9130  151.1640 C   0  0  0  0  0  3  0  0  0  0  0  0
  161.3810  205.0950  148.9980 C   0  0  0  0  0  2  0  0  0  0  0  0
  161.7430  210.5840  149.9040 C   0  0  2  0  0  3  0  0  0  0  0  0
  162.6420  212.1130  146.9050 O   0  0  0  0  0  0  0  0  0  0  0  0
  158.9680  211.7180  153.8760 C   0  0  0  0  0  2  0  0  0  0  0  0
  159.7650  213.4630  152.3160 C   0  0  0  0  0  3  0  0  0  0  0  0
  161.0900  210.6210  148.5260 C   0  0  0  0  0  2  0  0  0  0  0  0
  160.6590  205.7650  151.3870 C   0  0  1  0  0  3  0  0  0  0  0  0
  161.2720  206.9200  152.0150 C   0  0  1  0  0  3  0  0  0  0  0  0
  159.7610  212.1030  152.6630 C   0  0  0  0  0  0  0  0  0  0  0  0
  161.4410  209.3310  150.7290 C   0  0  2  0  0  3  0  0  0  0  0  0
  161.7000  213.4450  149.0460 C   0  0  0  0  0  2  0  0  0  0  0  0
  160.2930  209.6000  154.3730 C   0  0  2  0  0  3  0  0  0  0  0  0
  160.2420  212.6170  146.9310 O   0  0  0  0  0  0  0  0  0  0  0  0
  160.3360  207.1290  150.8860 N   0  0  1  0  0  0  0  0  0  0  0  0
  162.5100  204.3680  150.9380 O   0  0  0  0  0  0  0  0  0  0  0  0
  161.1050  208.0190  149.9810 C   0  0  2  0  0  3  0  0  0  0  0  0
  158.9030  210.2230  154.1720 C   0  0  0  0  0  2  0  0  0  0  0  0
  160.7040  211.1830  156.4170 C   0  0  0  0  0  2  0  0  0  0  0  0
  161.2360  210.3800  155.2440 C   0  0  0  0  0  0  0  0  0  0  0  0
  162.5360  210.3730  154.9320 C   0  0  0  0  0  3  0  0  0  0  0  0
  164.7230  211.1120  155.4170 O   0  0  0  0  0  0  0  0  0  0  0  0
  163.0580  211.8290  156.9360 C   0  0  0  0  0  3  0  0  0  0  0  0
  163.5080  211.1100  155.7410 C   0  0  0  0  0  0  0  0  0  0  0  0
  161.7650  211.8520  157.2570 C   0  0  0  0  0  3  0  0  0  0  0  0
  163.0470  205.0480  146.4360 C   0  0  0  0  0  1  0  0  0  0  0  0
  163.3580  205.8510  147.6900 C   0  0  0  0  0  2  0  0  0  0  0  0
  1 27  1  0  0  0  0
  2 17  1  0  0  0  0
  2 22  1  0  0  0  0
  3 20  1  0  0  0  0
  4 37  1  1  0  0  0
  4 12  1  0  0  0  0
  4  1  1  0  0  0  0
  6  9  1  0  0  0  0
  6 11  2  0  0  0  0
  7  3  1  1  0  0  0
  7 10  1  0  0  0  0
  8 26  2  0  0  0  0
  9  3  2  0  0  0  0
 10  5  1  6  0  0  0
 10 23  1  0  0  0  0
 11 16  1  0  0  0  0
 12  8  1  0  0  0  0
 13 17  1  6  0  0  0
 13 21  1  0  0  0  0
 13  9  1  0  0  0  0
 14  2  2  0  0  0  0
 15 28  1  0  0  0  0
 16 20  2  0  0  0  0
 18  8  1  6  0  0  0
 18 19  1  0  0  0  0
 19  5  1  1  0  0  0
 20 15  1  0  0  0  0
 21  7  1  0  0  0  0
 22  6  1  0  0  0  0
 23 30  1  0  0  0  0
 24  2  2  0  0  0  0
 25 18  1  0  0  0  0
 25 19  1  0  0  0  0
 27 21  1  0  0  0  0
 27 25  1  0  0  0  0
 28 23  1  0  0  0  0
 29 35  1  0  0  0  0
 30 29  1  0  0  0  0
 31 30  2  0  0  0  0
 31 34  1  0  0  0  0
 32 34  2  0  0  0  0
 33 35  2  0  0  0  0
 34 33  1  0  0  0  0
 36 37  1  0  0  0  0
M  END
>  <MODEL>
5

>  <REMARK>
 VINA RESULT:      -0.8      2.647      6.281
  Name = 
  2 active torsions:
  status: ('A' for Active; 'I' for Inactive)
    1  A    between atoms: C_4  and  C_37
    2  A    between atoms: C_23  and  C_30
                            x       y       z     vdW  Elec       q    Type
                         _______ _______ _______ _____ _____    ______ ____

>  <TORSDO>
F 2

$$$$
=
 OpenBabel11122413443D

 37 44  0  0  1  0  0  0  0  0999 V2000
  161.0200  209.2680  150.3610 C   0  0  0  0  0  2  0  0  0  0  0  0
  161.1010  207.4320  155.1460 S   0  0  0  0  0  0  0  0  0  0  0  0
  159.6110  211.4350  154.5260 C   0  0  0  0  0  0  0  0  0  0  0  0
  162.2120  208.9080  149.4680 C   0  0  2  0  0  3  0  0  0  0  0  0
  159.9240  213.2530  151.1950 C   0  0  0  0  0  2  0  0  0  0  0  0
  159.4990  209.4720  155.9570 C   0  0  0  0  0  0  0  0  0  0  0  0
  160.1170  211.8200  153.1650 C   0  0  2  0  0  3  0  0  0  0  0  0
  161.6930  211.1580  148.4580 C   0  0  0  0  0  0  0  0  0  0  0  0
  159.6540  210.0620  154.6980 C   0  0  0  0  0  0  0  0  0  0  0  0
  159.2210  212.7200  152.3810 N   0  0  1  0  0  0  0  0  0  0  0  0
  159.2020  210.2900  157.0510 C   0  0  0  0  0  3  0  0  0  0  0  0
  162.7220  210.0840  148.6290 C   0  0  0  0  0  2  0  0  0  0  0  0
  160.1060  209.3240  153.4930 C   0  0  2  0  0  3  0  0  0  0  0  0
  160.7730  206.0820  154.5790 O   0  0  0  0  0  0  0  0  0  0  0  0
  159.3320  213.7730  155.5850 C   0  0  0  0  0  2  0  0  0  0  0  0
  159.1290  211.6810  156.8860 C   0  0  0  0  0  3  0  0  0  0  0  0
  161.4030  208.5870  153.8120 C   0  0  0  0  0  2  0  0  0  0  0  0
  161.5750  212.2310  149.4950 C   0  0  1  0  0  3  0  0  0  0  0  0
  160.3710  212.1180  150.2950 C   0  0  1  0  0  3  0  0  0  0  0  0
  159.3680  212.2750  155.6370 C   0  0  0  0  0  0  0  0  0  0  0  0
  160.2360  210.4410  152.4550 C   0  0  2  0  0  3  0  0  0  0  0  0
  159.7180  208.0010  156.1430 C   0  0  0  0  0  2  0  0  0  0  0  0
  158.7680  213.9180  153.1060 C   0  0  2  0  0  3  0  0  0  0  0  0
  162.3290  207.3300  156.0050 O   0  0  0  0  0  0  0  0  0  0  0  0
  161.6640  211.6970  150.8810 N   0  0  1  0  0  0  0  0  0  0  0  0
  160.9660  211.1620  147.4790 O   0  0  0  0  0  0  0  0  0  0  0  0
  161.3640  210.3400  151.4010 C   0  0  2  0  0  3  0  0  0  0  0  0
  159.6910  214.3920  154.2380 C   0  0  0  0  0  2  0  0  0  0  0  0
  156.8330  213.6150  154.8420 C   0  0  0  0  0  2  0  0  0  0  0  0
  157.3000  213.9000  153.4260 C   0  0  0  0  0  0  0  0  0  0  0  0
  156.4340  214.1020  152.4290 C   0  0  0  0  0  3  0  0  0  0  0  0
  154.1900  214.2670  151.7200 O   0  0  0  0  0  0  0  0  0  0  0  0
  154.4880  213.9180  154.0390 C   0  0  0  0  0  3  0  0  0  0  0  0
  154.9900  214.1000  152.6740 C   0  0  0  0  0  0  0  0  0  0  0  0
  155.3390  213.7070  155.0430 C   0  0  0  0  0  3  0  0  0  0  0  0
  160.8390  206.8380  149.2300 C   0  0  0  0  0  1  0  0  0  0  0  0
  161.8360  207.7600  148.5460 C   0  0  0  0  0  2  0  0  0  0  0  0
  1 27  1  0  0  0  0
  2 24  2  0  0  0  0
  2 22  1  0  0  0  0
  3  9  2  0  0  0  0
  3 20  1  0  0  0  0
  4 37  1  6  0  0  0
  4  1  1  0  0  0  0
  6 22  1  0  0  0  0
  6 11  2  0  0  0  0
  7  3  1  1  0  0  0
  8 12  1  0  0  0  0
  9  6  1  0  0  0  0
 10  5  1  6  0  0  0
 10 23  1  0  0  0  0
 10  7  1  0  0  0  0
 12  4  1  0  0  0  0
 13 17  1  1  0  0  0
 13  9  1  0  0  0  0
 14  2  2  0  0  0  0
 15 20  1  0  0  0  0
 16 11  1  0  0  0  0
 17  2  1  0  0  0  0
 18  8  1  6  0  0  0
 18 19  1  0  0  0  0
 18 25  1  0  0  0  0
 19 25  1  0  0  0  0
 19  5  1  1  0  0  0
 20 16  2  0  0  0  0
 21  7  1  0  0  0  0
 21 13  1  0  0  0  0
 23 30  1  0  0  0  0
 23 28  1  0  0  0  0
 25 27  1  0  0  0  0
 26  8  2  0  0  0  0
 27 21  1  0  0  0  0
 28 15  1  0  0  0  0
 29 35  1  0  0  0  0
 30 29  1  0  0  0  0
 31 34  1  0  0  0  0
 31 30  2  0  0  0  0
 32 34  2  0  0  0  0
 33 35  2  0  0  0  0
 34 33  1  0  0  0  0
 37 36  1  0  0  0  0
M  END
>  <MODEL>
6

>  <REMARK>
 VINA RESULT:      -0.7      2.891      5.595
  Name = 
  2 active torsions:
  status: ('A' for Active; 'I' for Inactive)
    1  A    between atoms: C_4  and  C_37
    2  A    between atoms: C_23  and  C_30
                            x       y       z     vdW  Elec       q    Type
                         _______ _______ _______ _____ _____    ______ ____

>  <TORSDO>
F 2

$$$$
