=
 OpenBabel11122414023D

 28 32  0  0  1  0  0  0  0  0999 V2000
  158.8690  213.5610  141.6970 C   0  0  0  0  0  0  0  0  0  0  0  0
  160.3350  212.2070  137.0240 O   0  0  0  0  0  0  0  0  0  0  0  0
  155.3000  211.0420  137.2720 O   0  0  0  0  0  1  0  0  0  0  0  0
  160.0990  211.8100  143.4980 C   0  0  0  0  0  3  0  0  0  0  0  0
  157.1550  209.7970  138.3280 C   0  0  0  0  0  0  0  0  0  0  0  0
  158.1760  214.4130  140.7960 N   0  0  0  0  0  2  0  0  0  0  0  0
  162.3510  212.5040  138.3880 O   0  0  0  0  0  0  0  0  0  0  0  0
  161.2780  211.5330  137.9830 S   0  0  0  0  0  0  0  0  0  0  0  0
  161.5900  208.9430  137.8380 C   0  0  2  0  0  3  0  0  0  0  0  0
  160.4160  211.0010  139.4060 N   0  0  2  0  0  0  0  0  0  0  0  0
  154.7970  214.1570  139.6470 O   0  0  0  0  0  0  0  0  0  0  0  0
  158.1270  211.4860  139.3990 N   0  0  0  0  0  0  0  0  0  0  0  0
  160.0760  208.9060  137.9720 C   0  0  0  0  0  2  0  0  0  0  0  0
  162.0100  210.1770  137.1830 N   0  0  0  0  0  2  0  0  0  0  0  0
  156.0490  214.0490  139.6690 C   0  0  0  0  0  0  0  0  0  0  0  0
  159.4830  212.3910  141.2140 C   0  0  0  0  0  0  0  0  0  0  0  0
  156.4060  210.9380  138.1070 C   0  0  0  0  0  0  0  0  0  0  0  0
  162.0470  207.7600  137.0110 C   0  0  0  0  0  1  0  0  0  0  0  0
  156.7640  213.4330  138.5090 C   0  0  0  0  0  2  0  0  0  0  0  0
  160.0910  211.5170  142.1320 C   0  0  0  0  0  3  0  0  0  0  0  0
  158.8620  213.8430  143.0670 C   0  0  0  0  0  3  0  0  0  0  0  0
  159.4830  212.9730  143.9650 C   0  0  0  0  0  3  0  0  0  0  0  0
  156.7790  214.4530  140.8230 N   0  0  0  0  0  2  0  0  0  0  0  0
  158.2320  210.2060  139.0940 C   0  0  0  0  0  0  0  0  0  0  0  0
  157.0420  211.9830  138.7580 C   0  0  0  0  0  0  0  0  0  0  0  0
  159.6350  209.7480  139.1760 C   0  0  2  0  0  3  0  0  0  0  0  0
  157.0480  208.5790  137.6000 N   0  0  0  0  0  1  0  0  0  0  0  0
  159.4220  212.0490  139.7380 C   0  0  1  0  0  3  0  0  0  0  0  0
  1 21  1  0  0  0  0
  2  8  2  0  0  0  0
  3 17  1  0  0  0  0
  4 22  1  0  0  0  0
  5 24  2  0  0  0  0
  6 23  1  0  0  0  0
  6  1  1  0  0  0  0
  8  7  2  0  0  0  0
  9 18  1  6  0  0  0
  9 13  1  0  0  0  0
 10  8  1  6  0  0  0
 10 28  1  0  0  0  0
 11 15  2  0  0  0  0
 12 28  1  0  0  0  0
 14  9  1  0  0  0  0
 14  8  1  0  0  0  0
 15 23  1  0  0  0  0
 16  1  2  0  0  0  0
 16 20  1  0  0  0  0
 17  5  1  0  0  0  0
 17 25  2  0  0  0  0
 19 25  1  0  0  0  0
 19 15  1  0  0  0  0
 20  4  2  0  0  0  0
 21 22  2  0  0  0  0
 24 26  1  0  0  0  0
 24 12  1  0  0  0  0
 25 12  1  0  0  0  0
 26 13  1  6  0  0  0
 26 10  1  0  0  0  0
 27  5  1  0  0  0  0
 28 16  1  1  0  0  0
M  END
>  <MODEL>
1

>  <REMARK>
 VINA RESULT:      -4.5      0.000      0.000
  Name = 
  0 active torsions:
  status: ('A' for Active; 'I' for Inactive)
                            x       y       z     vdW  Elec       q    Type
                         _______ _______ _______ _____ _____    ______ ____

>  <TORSDO>
F 0

$$$$
=
 OpenBabel11122414023D

 28 32  0  0  1  0  0  0  0  0999 V2000
  159.5980  212.9100  151.7920 C   0  0  0  0  0  0  0  0  0  0  0  0
  163.0490  210.2940  154.4520 O   0  0  0  0  0  0  0  0  0  0  0  0
  162.5710  207.7630  149.9630 O   0  0  0  0  0  1  0  0  0  0  0  0
  157.1320  212.5760  153.0680 C   0  0  0  0  0  3  0  0  0  0  0  0
  160.9630  207.7530  151.8400 C   0  0  0  0  0  0  0  0  0  0  0  0
  160.8250  213.0310  151.0870 N   0  0  0  0  0  2  0  0  0  0  0  0
  161.8630  211.7720  156.0070 O   0  0  0  0  0  0  0  0  0  0  0  0
  161.8370  210.4290  155.3330 S   0  0  0  0  0  0  0  0  0  0  0  0
  160.7660  208.2730  156.3480 C   0  0  2  0  0  3  0  0  0  0  0  0
  160.3780  210.2890  154.3850 N   0  0  2  0  0  0  0  0  0  0  0  0
  161.9120  211.2310  148.1910 O   0  0  0  0  0  0  0  0  0  0  0  0
  160.7310  209.9500  152.0960 N   0  0  0  0  0  0  0  0  0  0  0  0
  160.7120  207.8030  154.9040 C   0  0  0  0  0  2  0  0  0  0  0  0
  161.8880  209.1850  156.5430 N   0  0  0  0  0  2  0  0  0  0  0  0
  161.7750  211.5570  149.3980 C   0  0  0  0  0  0  0  0  0  0  0  0
  159.4580  211.9170  152.7790 C   0  0  0  0  0  0  0  0  0  0  0  0
  161.7220  208.3850  150.8720 C   0  0  0  0  0  0  0  0  0  0  0  0
  160.9340  207.0750  157.2580 C   0  0  0  0  0  1  0  0  0  0  0  0
  162.4850  210.7860  150.4630 C   0  0  0  0  0  2  0  0  0  0  0  0
  158.2110  211.7560  153.4070 C   0  0  0  0  0  3  0  0  0  0  0  0
  158.5110  213.7180  151.4420 C   0  0  0  0  0  3  0  0  0  0  0  0
  157.2820  213.5560  152.0850 C   0  0  0  0  0  3  0  0  0  0  0  0
  160.8960  212.6200  149.7520 N   0  0  0  0  0  2  0  0  0  0  0  0
  160.4100  208.7710  152.5970 C   0  0  0  0  0  0  0  0  0  0  0  0
  161.5860  209.7500  151.0650 C   0  0  0  0  0  0  0  0  0  0  0  0
  160.0520  208.8750  154.0270 C   0  0  2  0  0  3  0  0  0  0  0  0
  161.0590  206.3820  152.2070 N   0  0  0  0  0  1  0  0  0  0  0  0
  160.6160  210.9920  153.1010 C   0  0  1  0  0  3  0  0  0  0  0  0
  1 16  1  0  0  0  0
  2  8  2  0  0  0  0
  3 17  1  0  0  0  0
  4 20  1  0  0  0  0
  5 27  1  0  0  0  0
  5 24  2  0  0  0  0
  6  1  1  0  0  0  0
  8  7  2  0  0  0  0
  8 14  1  0  0  0  0
  9 14  1  0  0  0  0
  9 18  1  1  0  0  0
 10  8  1  1  0  0  0
 11 15  2  0  0  0  0
 12 24  1  0  0  0  0
 12 28  1  0  0  0  0
 13  9  1  0  0  0  0
 15 23  1  0  0  0  0
 15 19  1  0  0  0  0
 16 20  2  0  0  0  0
 17 25  2  0  0  0  0
 17  5  1  0  0  0  0
 19 25  1  0  0  0  0
 21  1  2  0  0  0  0
 21 22  1  0  0  0  0
 22  4  2  0  0  0  0
 23  6  1  0  0  0  0
 24 26  1  0  0  0  0
 25 12  1  0  0  0  0
 26 10  1  0  0  0  0
 26 13  1  1  0  0  0
 28 16  1  6  0  0  0
 28 10  1  0  0  0  0
M  END
>  <MODEL>
2

>  <REMARK>
 VINA RESULT:      -4.4     11.601     14.197
  Name = 
  0 active torsions:
  status: ('A' for Active; 'I' for Inactive)
                            x       y       z     vdW  Elec       q    Type
                         _______ _______ _______ _____ _____    ______ ____

>  <TORSDO>
F 0

$$$$
=
 OpenBabel11122414023D

 28 32  0  0  1  0  0  0  0  0999 V2000
  161.7320  209.9910  150.9260 C   0  0  0  0  0  0  0  0  0  0  0  0
  162.5360  214.4530  148.6310 O   0  0  0  0  0  0  0  0  0  0  0  0
  157.5220  214.4530  149.9070 O   0  0  0  0  0  1  0  0  0  0  0  0
  161.9750  207.9960  148.9820 C   0  0  0  0  0  3  0  0  0  0  0  0
  158.5720  213.1940  148.0590 C   0  0  0  0  0  0  0  0  0  0  0  0
  161.5290  210.9930  151.9130 N   0  0  0  0  0  2  0  0  0  0  0  0
  164.4270  212.9840  148.1040 O   0  0  0  0  0  0  0  0  0  0  0  0
  163.0400  213.3890  147.6930 S   0  0  0  0  0  0  0  0  0  0  0  0
  162.1340  213.3320  145.2430 C   0  0  2  0  0  3  0  0  0  0  0  0
  161.9930  211.9920  147.7440 N   0  0  2  0  0  0  0  0  0  0  0  0
  158.4390  212.3390  153.1150 O   0  0  0  0  0  0  0  0  0  0  0  0
  160.1820  212.1820  149.2130 N   0  0  0  0  0  0  0  0  0  0  0  0
  160.7690  213.2950  145.9100 C   0  0  0  0  0  2  0  0  0  0  0  0
  163.0900  214.0430  146.0860 N   0  0  0  0  0  2  0  0  0  0  0  0
  159.5020  212.2280  152.4520 C   0  0  0  0  0  0  0  0  0  0  0  0
  161.7540  210.3500  149.5660 C   0  0  0  0  0  0  0  0  0  0  0  0
  158.4350  213.5420  149.3900 C   0  0  0  0  0  0  0  0  0  0  0  0
  162.0210  214.0420  143.9110 C   0  0  0  0  0  1  0  0  0  0  0  0
  159.8850  213.2930  151.4750 C   0  0  0  0  0  2  0  0  0  0  0  0
  161.8700  209.3360  148.6000 C   0  0  0  0  0  3  0  0  0  0  0  0
  161.8190  208.6470  151.3060 C   0  0  0  0  0  3  0  0  0  0  0  0
  161.9490  207.6520  150.3350 C   0  0  0  0  0  3  0  0  0  0  0  0
  160.3050  211.0600  152.5860 N   0  0  0  0  0  2  0  0  0  0  0  0
  159.6960  212.3890  148.0020 C   0  0  0  0  0  0  0  0  0  0  0  0
  159.4620  212.9260  150.0870 C   0  0  0  0  0  0  0  0  0  0  0  0
  160.7320  212.1840  146.9670 C   0  0  2  0  0  3  0  0  0  0  0  0
  157.9380  213.8400  146.9610 N   0  0  0  0  0  1  0  0  0  0  0  0
  161.5810  211.7990  149.1550 C   0  0  1  0  0  3  0  0  0  0  0  0
  1 21  1  0  0  0  0
  1  6  1  0  0  0  0
  4 22  1  0  0  0  0
  5 17  1  0  0  0  0
  6 23  1  0  0  0  0
  8  7  2  0  0  0  0
  8  2  2  0  0  0  0
  9 18  1  6  0  0  0
  9 13  1  0  0  0  0
  9 14  1  0  0  0  0
 10  8  1  1  0  0  0
 10 28  1  0  0  0  0
 12 25  1  0  0  0  0
 14  8  1  0  0  0  0
 15 23  1  0  0  0  0
 15 11  2  0  0  0  0
 16  1  2  0  0  0  0
 17  3  1  0  0  0  0
 17 25  2  0  0  0  0
 19 15  1  0  0  0  0
 20  4  2  0  0  0  0
 20 16  1  0  0  0  0
 22 21  2  0  0  0  0
 24  5  2  0  0  0  0
 24 12  1  0  0  0  0
 25 19  1  0  0  0  0
 26 13  1  6  0  0  0
 26 10  1  0  0  0  0
 26 24  1  0  0  0  0
 27  5  1  0  0  0  0
 28 12  1  0  0  0  0
 28 16  1  6  0  0  0
M  END
>  <MODEL>
3

>  <REMARK>
 VINA RESULT:      -3.4      7.985     10.529
  Name = 
  0 active torsions:
  status: ('A' for Active; 'I' for Inactive)
                            x       y       z     vdW  Elec       q    Type
                         _______ _______ _______ _____ _____    ______ ____

>  <TORSDO>
F 0

$$$$
