=
 OpenBabel11122413293D

 31 35  0  0  1  0  0  0  0  0999 V2000
  161.3940  203.6750  145.8100 C   0  0  0  0  0  0  0  0  0  0  0  0
  160.5610  205.7260  148.9090 C   0  0  2  0  0  3  0  0  0  0  0  0
  160.8560  204.8110  150.0830 C   0  0  0  0  0  0  0  0  0  0  0  0
  160.9790  202.5850  151.0560 C   0  0  0  0  0  0  0  0  0  0  0  0
  161.2250  205.2940  147.6170 C   0  0  0  0  0  0  0  0  0  0  0  0
  162.4420  204.4050  145.2460 C   0  0  0  0  0  3  0  0  0  0  0  0
  160.7780  203.4170  149.9500 C   0  0  0  0  0  3  0  0  0  0  0  0
  162.3240  207.5780  149.0240 C   0  0  2  0  0  3  0  0  0  0  0  0
  160.9660  202.5350  145.2170 F   0  0  0  0  0  0  0  0  0  0  0  0
  161.1690  206.8480  151.5230 C   0  0  0  0  0  2  0  0  0  0  0  0
  160.9160  201.2070  150.9070 O   0  0  0  0  0  1  0  0  0  0  0  0
  162.6860  207.3800  147.5580 C   0  0  0  0  0  2  0  0  0  0  0  0
  160.8500  207.2040  149.2550 C   0  0  2  0  0  3  0  0  0  0  0  0
  160.7870  204.1210  146.9850 C   0  0  0  0  0  3  0  0  0  0  0  0
  161.2400  203.1420  152.3090 C   0  0  0  0  0  3  0  0  0  0  0  0
  162.2800  206.0350  147.0360 C   0  0  0  0  0  0  0  0  0  0  0  0
  162.8740  205.5850  145.8510 C   0  0  0  0  0  3  0  0  0  0  0  0
  160.3890  207.5270  150.5570 O   0  0  0  0  0  0  0  0  0  0  0  0
  161.0770  205.3620  151.3580 C   0  0  0  0  0  0  0  0  0  0  0  0
  161.2910  204.5300  152.4610 C   0  0  0  0  0  3  0  0  0  0  0  0
  161.2500  209.8500  147.6740 O   0  0  0  0  0  0  0  0  0  0  0  0
  161.9730  210.0590  148.6850 C   0  0  0  0  0  0  0  0  0  0  0  0
  162.5520  208.9650  149.4000 N   0  0  0  0  0  2  0  0  0  0  0  0
  161.0250  213.6480  147.5550 C   0  0  1  0  0  3  0  0  0  0  0  0
  160.9600  212.1750  149.5770 C   0  0  0  0  0  2  0  0  0  0  0  0
  164.2170  212.2780  148.1360 O   0  0  0  0  0  0  0  0  0  0  0  0
  160.2090  214.2040  146.4080 C   0  0  0  0  0  1  0  0  0  0  0  0
  160.1650  212.6920  148.3780 C   0  0  0  0  0  2  0  0  0  0  0  0
  162.9970  212.2460  148.1130 C   0  0  0  0  0  0  0  0  0  0  0  0
  162.2450  211.4560  149.1490 C   0  0  2  0  0  3  0  0  0  0  0  0
  162.2510  212.9260  147.0030 C   0  0  0  0  0  2  0  0  0  0  0  0
  1 14  1  0  0  0  0
  2  5  1  6  0  0  0
  2 13  1  0  0  0  0
  2  3  1  0  0  0  0
  3 19  1  0  0  0  0
  4 15  2  0  0  0  0
  6  1  2  0  0  0  0
  6 17  1  0  0  0  0
  7  3  2  0  0  0  0
  7  4  1  0  0  0  0
  8 13  1  0  0  0  0
  8 23  1  6  0  0  0
  9  1  1  0  0  0  0
 11  4  1  0  0  0  0
 12  8  1  0  0  0  0
 13 18  1  1  0  0  0
 14  5  2  0  0  0  0
 15 20  1  0  0  0  0
 16 12  1  0  0  0  0
 16  5  1  0  0  0  0
 17 16  2  0  0  0  0
 18 10  1  0  0  0  0
 19 10  1  0  0  0  0
 19 20  2  0  0  0  0
 21 22  2  0  0  0  0
 22 23  1  0  0  0  0
 24 27  1  6  0  0  0
 24 28  1  0  0  0  0
 28 25  1  0  0  0  0
 29 26  2  0  0  0  0
 29 30  1  0  0  0  0
 30 22  1  6  0  0  0
 30 25  1  0  0  0  0
 31 24  1  0  0  0  0
 31 29  1  0  0  0  0
M  END
>  <MODEL>
1

>  <REMARK>
 VINA RESULT:      -8.4      0.000      0.000
  Name = 
  2 active torsions:
  status: ('A' for Active; 'I' for Inactive)
    1  A    between atoms: C_5  and  C_30
    2  A    between atoms: C_10  and  N_16
                            x       y       z     vdW  Elec       q    Type
                         _______ _______ _______ _____ _____    ______ ____

>  <TORSDO>
F 2

$$$$
=
 OpenBabel11122413293D

 31 35  0  0  1  0  0  0  0  0999 V2000
  161.1720  206.4140  146.6080 C   0  0  0  0  0  0  0  0  0  0  0  0
  160.3590  205.1400  150.1040 C   0  0  2  0  0  3  0  0  0  0  0  0
  160.7730  203.6810  150.1020 C   0  0  0  0  0  0  0  0  0  0  0  0
  161.0960  201.5710  148.9360 C   0  0  0  0  0  0  0  0  0  0  0  0
  160.9850  205.9530  148.9880 C   0  0  0  0  0  0  0  0  0  0  0  0
  162.1380  207.3870  146.8660 C   0  0  0  0  0  3  0  0  0  0  0  0
  160.7840  202.9330  148.9150 C   0  0  0  0  0  3  0  0  0  0  0  0
  161.9950  206.3160  151.6810 C   0  0  2  0  0  3  0  0  0  0  0  0
  160.7940  206.1560  145.3330 F   0  0  0  0  0  0  0  0  0  0  0  0
  161.0190  203.8040  152.6010 C   0  0  0  0  0  2  0  0  0  0  0  0
  161.1200  200.8460  147.7530 O   0  0  0  0  0  1  0  0  0  0  0  0
  162.2950  207.3850  150.6390 C   0  0  0  0  0  2  0  0  0  0  0  0
  160.5640  205.7870  151.4920 C   0  0  2  0  0  3  0  0  0  0  0  0
  160.5960  205.7050  147.6640 C   0  0  0  0  0  3  0  0  0  0  0  0
  161.3820  200.9390  150.1480 C   0  0  0  0  0  3  0  0  0  0  0  0
  161.9560  206.9480  149.2460 C   0  0  0  0  0  0  0  0  0  0  0  0
  162.5190  207.6600  148.1810 C   0  0  0  0  0  3  0  0  0  0  0  0
  160.1480  204.9160  152.5320 O   0  0  0  0  0  0  0  0  0  0  0  0
  161.0200  203.0250  151.3220 C   0  0  0  0  0  0  0  0  0  0  0  0
  161.3460  201.6650  151.3410 C   0  0  0  0  0  3  0  0  0  0  0  0
  160.5660  208.5690  152.6920 O   0  0  0  0  0  0  0  0  0  0  0  0
  161.3900  208.0050  153.4630 C   0  0  0  0  0  0  0  0  0  0  0  0
  162.1460  206.8790  153.0150 N   0  0  0  0  0  2  0  0  0  0  0  0
  159.4460  210.2330  155.9770 C   0  0  1  0  0  3  0  0  0  0  0  0
  160.5260  207.9810  155.8200 C   0  0  0  0  0  2  0  0  0  0  0  0
  162.7500  210.5740  154.8080 O   0  0  0  0  0  0  0  0  0  0  0  0
  158.1280  210.9750  155.9180 C   0  0  0  0  0  1  0  0  0  0  0  0
  159.2110  208.7510  155.6980 C   0  0  0  0  0  2  0  0  0  0  0  0
  161.6700  210.0140  154.8930 C   0  0  0  0  0  0  0  0  0  0  0  0
  161.5950  208.5120  154.8560 C   0  0  2  0  0  3  0  0  0  0  0  0
  160.4090  210.8250  154.9510 C   0  0  0  0  0  2  0  0  0  0  0  0
  1  6  2  0  0  0  0
  1 14  1  0  0  0  0
  2  5  1  6  0  0  0
  2 13  1  0  0  0  0
  3  2  1  0  0  0  0
  3 19  1  0  0  0  0
  4 15  2  0  0  0  0
  5 16  1  0  0  0  0
  6 17  1  0  0  0  0
  7  4  1  0  0  0  0
  7  3  2  0  0  0  0
  8 23  1  1  0  0  0
  9  1  1  0  0  0  0
 11  4  1  0  0  0  0
 12  8  1  0  0  0  0
 13  8  1  0  0  0  0
 13 18  1  1  0  0  0
 14  5  2  0  0  0  0
 15 20  1  0  0  0  0
 16 12  1  0  0  0  0
 17 16  2  0  0  0  0
 18 10  1  0  0  0  0
 19 20  2  0  0  0  0
 19 10  1  0  0  0  0
 21 22  2  0  0  0  0
 23 22  1  0  0  0  0
 24 27  1  6  0  0  0
 26 29  2  0  0  0  0
 28 25  1  0  0  0  0
 28 24  1  0  0  0  0
 29 31  1  0  0  0  0
 30 22  1  6  0  0  0
 30 29  1  0  0  0  0
 30 25  1  0  0  0  0
 31 24  1  0  0  0  0
M  END
>  <MODEL>
2

>  <REMARK>
 VINA RESULT:      -8.1      3.452      4.917
  Name = 
  2 active torsions:
  status: ('A' for Active; 'I' for Inactive)
    1  A    between atoms: C_5  and  C_30
    2  A    between atoms: C_10  and  N_16
                            x       y       z     vdW  Elec       q    Type
                         _______ _______ _______ _____ _____    ______ ____

>  <TORSDO>
F 2

$$$$
=
 OpenBabel11122413293D

 31 35  0  0  1  0  0  0  0  0999 V2000
  161.2460  204.0200  145.4060 C   0  0  0  0  0  0  0  0  0  0  0  0
  160.5190  205.3490  148.9010 C   0  0  2  0  0  3  0  0  0  0  0  0
  160.8300  204.1970  149.8380 C   0  0  0  0  0  0  0  0  0  0  0  0
  160.9480  201.8110  150.2960 C   0  0  0  0  0  0  0  0  0  0  0  0
  161.1440  205.2050  147.5270 C   0  0  0  0  0  0  0  0  0  0  0  0
  162.2880  204.8470  144.9870 C   0  0  0  0  0  3  0  0  0  0  0  0
  160.7300  202.8660  149.4050 C   0  0  0  0  0  3  0  0  0  0  0  0
  162.3080  207.1170  149.3690 C   0  0  2  0  0  3  0  0  0  0  0  0
  160.7880  203.0400  144.5910 F   0  0  0  0  0  0  0  0  0  0  0  0
  161.2070  205.8670  151.6790 C   0  0  0  0  0  2  0  0  0  0  0  0
  160.8630  200.4990  149.8520 O   0  0  0  0  0  1  0  0  0  0  0  0
  162.6300  207.2430  147.8860 C   0  0  0  0  0  2  0  0  0  0  0  0
  160.8360  206.7130  149.5530 C   0  0  2  0  0  3  0  0  0  0  0  0
  160.6740  204.2020  146.6670 C   0  0  0  0  0  3  0  0  0  0  0  0
  161.2480  202.0780  151.6340 C   0  0  0  0  0  3  0  0  0  0  0  0
  162.1940  206.0480  147.0940 C   0  0  0  0  0  0  0  0  0  0  0  0
  162.7520  205.8630  145.8240 C   0  0  0  0  0  3  0  0  0  0  0  0
  160.4120  206.7470  150.9070 O   0  0  0  0  0  0  0  0  0  0  0  0
  161.0910  204.4540  151.1950 C   0  0  0  0  0  0  0  0  0  0  0  0
  161.3220  203.3990  152.0840 C   0  0  0  0  0  3  0  0  0  0  0  0
  161.4840  209.6740  148.4100 O   0  0  0  0  0  0  0  0  0  0  0  0
  162.1120  209.6340  149.5030 C   0  0  0  0  0  0  0  0  0  0  0  0
  162.5630  208.3870  150.0330 N   0  0  0  0  0  2  0  0  0  0  0  0
  160.1730  212.0310  151.8610 C   0  0  1  0  0  3  0  0  0  0  0  0
  162.2850  210.6910  151.7740 C   0  0  0  0  0  2  0  0  0  0  0  0
  161.9370  212.7760  148.9050 O   0  0  0  0  0  0  0  0  0  0  0  0
  158.7540  212.0630  152.3860 C   0  0  0  0  0  1  0  0  0  0  0  0
  160.8300  210.7070  152.2430 C   0  0  0  0  0  2  0  0  0  0  0  0
  161.5400  212.0320  149.7870 C   0  0  0  0  0  0  0  0  0  0  0  0
  162.4030  210.8940  150.2580 C   0  0  2  0  0  3  0  0  0  0  0  0
  160.1570  212.2030  150.3450 C   0  0  0  0  0  2  0  0  0  0  0  0
  1 14  1  0  0  0  0
  2  5  1  6  0  0  0
  2 13  1  0  0  0  0
  2  3  1  0  0  0  0
  3 19  1  0  0  0  0
  4 15  2  0  0  0  0
  6  1  2  0  0  0  0
  6 17  1  0  0  0  0
  7  3  2  0  0  0  0
  7  4  1  0  0  0  0
  8 13  1  0  0  0  0
  8 23  1  1  0  0  0
  9  1  1  0  0  0  0
 11  4  1  0  0  0  0
 12  8  1  0  0  0  0
 13 18  1  1  0  0  0
 14  5  2  0  0  0  0
 15 20  1  0  0  0  0
 16  5  1  0  0  0  0
 16 12  1  0  0  0  0
 17 16  2  0  0  0  0
 18 10  1  0  0  0  0
 19 10  1  0  0  0  0
 19 20  2  0  0  0  0
 21 22  2  0  0  0  0
 22 23  1  0  0  0  0
 24 28  1  0  0  0  0
 24 27  1  6  0  0  0
 25 28  1  0  0  0  0
 26 29  2  0  0  0  0
 29 30  1  0  0  0  0
 29 31  1  0  0  0  0
 30 22  1  6  0  0  0
 30 25  1  0  0  0  0
 31 24  1  0  0  0  0
M  END
>  <MODEL>
3

>  <REMARK>
 VINA RESULT:      -8.0      1.428      2.088
  Name = 
  2 active torsions:
  status: ('A' for Active; 'I' for Inactive)
    1  A    between atoms: C_5  and  C_30
    2  A    between atoms: C_10  and  N_16
                            x       y       z     vdW  Elec       q    Type
                         _______ _______ _______ _____ _____    ______ ____

>  <TORSDO>
F 2

$$$$
=
 OpenBabel11122413293D

 31 35  0  0  1  0  0  0  0  0999 V2000
  161.1350  201.8640  150.3990 C   0  0  0  0  0  0  0  0  0  0  0  0
  162.2060  205.2040  148.9130 C   0  0  2  0  0  3  0  0  0  0  0  0
  161.5380  205.2660  147.5520 C   0  0  0  0  0  0  0  0  0  0  0  0
  160.6720  204.1640  145.5640 C   0  0  0  0  0  0  0  0  0  0  0  0
  161.5810  204.1920  149.8530 C   0  0  0  0  0  0  0  0  0  0  0  0
  160.4100  202.2610  151.5230 C   0  0  0  0  0  3  0  0  0  0  0  0
  161.2190  204.0940  146.8490 C   0  0  0  0  0  3  0  0  0  0  0  0
  161.0570  207.0040  150.3230 C   0  0  2  0  0  3  0  0  0  0  0  0
  161.2710  200.5480  150.1100 F   0  0  0  0  0  0  0  0  0  0  0  0
  161.6850  207.7740  147.6540 C   0  0  0  0  0  2  0  0  0  0  0  0
  160.3450  202.9980  144.8860 O   0  0  0  0  0  1  0  0  0  0  0  0
  160.8060  206.0150  151.4540 C   0  0  0  0  0  2  0  0  0  0  0  0
  162.3250  206.6060  149.5500 C   0  0  2  0  0  3  0  0  0  0  0  0
  161.7220  202.8250  149.5730 C   0  0  0  0  0  3  0  0  0  0  0  0
  160.4560  205.4060  144.9640 C   0  0  0  0  0  3  0  0  0  0  0  0
  160.8540  204.5880  150.9990 C   0  0  0  0  0  0  0  0  0  0  0  0
  160.2800  203.6170  151.8270 C   0  0  0  0  0  3  0  0  0  0  0  0
  162.7240  207.5740  148.5930 O   0  0  0  0  0  0  0  0  0  0  0  0
  161.3560  206.5090  146.9210 C   0  0  0  0  0  0  0  0  0  0  0  0
  160.7960  206.5780  145.6410 C   0  0  0  0  0  3  0  0  0  0  0  0
  161.5810  207.6190  153.0590 O   0  0  0  0  0  0  0  0  0  0  0  0
  161.4790  208.5830  152.2520 C   0  0  0  0  0  0  0  0  0  0  0  0
  161.2060  208.3440  150.8700 N   0  0  0  0  0  2  0  0  0  0  0  0
  159.3670  211.1330  154.2750 C   0  0  1  0  0  3  0  0  0  0  0  0
  161.6370  210.0790  154.2620 C   0  0  0  0  0  2  0  0  0  0  0  0
  160.8310  211.4980  151.0940 O   0  0  0  0  0  0  0  0  0  0  0  0
  157.9910  211.0890  154.9040 C   0  0  0  0  0  1  0  0  0  0  0  0
  160.2240  210.0040  154.8410 C   0  0  0  0  0  2  0  0  0  0  0  0
  160.5950  210.8980  152.1300 C   0  0  0  0  0  0  0  0  0  0  0  0
  161.6350  209.9930  152.7300 C   0  0  2  0  0  3  0  0  0  0  0  0
  159.2370  211.0000  152.7610 C   0  0  0  0  0  2  0  0  0  0  0  0
  1  6  1  0  0  0  0
  2  3  1  6  0  0  0
  2 13  1  0  0  0  0
  2  5  1  0  0  0  0
  4  7  1  0  0  0  0
  5 16  2  0  0  0  0
  6 17  2  0  0  0  0
  7  3  2  0  0  0  0
  8 23  1  1  0  0  0
  8 12  1  0  0  0  0
  9  1  1  0  0  0  0
 10 18  1  0  0  0  0
 11  4  1  0  0  0  0
 13 18  1  6  0  0  0
 13  8  1  0  0  0  0
 14  5  1  0  0  0  0
 14  1  2  0  0  0  0
 15  4  2  0  0  0  0
 15 20  1  0  0  0  0
 16 12  1  0  0  0  0
 16 17  1  0  0  0  0
 19  3  1  0  0  0  0
 19 10  1  0  0  0  0
 20 19  2  0  0  0  0
 22 21  2  0  0  0  0
 23 22  1  0  0  0  0
 24 28  1  0  0  0  0
 24 27  1  1  0  0  0
 25 28  1  0  0  0  0
 26 29  2  0  0  0  0
 29 30  1  0  0  0  0
 29 31  1  0  0  0  0
 30 22  1  1  0  0  0
 30 25  1  0  0  0  0
 31 24  1  0  0  0  0
M  END
>  <MODEL>
4

>  <REMARK>
 VINA RESULT:      -7.1      3.104      5.191
  Name = 
  2 active torsions:
  status: ('A' for Active; 'I' for Inactive)
    1  A    between atoms: C_5  and  C_30
    2  A    between atoms: C_10  and  N_16
                            x       y       z     vdW  Elec       q    Type
                         _______ _______ _______ _____ _____    ______ ____

>  <TORSDO>
F 2

$$$$
=
 OpenBabel11122413293D

 31 35  0  0  1  0  0  0  0  0999 V2000
  160.4160  209.5200  154.5420 C   0  0  0  0  0  0  0  0  0  0  0  0
  162.0250  209.7110  151.0940 C   0  0  2  0  0  3  0  0  0  0  0  0
  161.5650  208.4590  150.3710 C   0  0  0  0  0  0  0  0  0  0  0  0
  160.8780  206.1260  150.4000 C   0  0  0  0  0  0  0  0  0  0  0  0
  161.1720  210.0680  152.2960 C   0  0  0  0  0  0  0  0  0  0  0  0
  159.5840  210.6400  154.5420 C   0  0  0  0  0  3  0  0  0  0  0  0
  161.2290  207.2960  151.0800 C   0  0  0  0  0  3  0  0  0  0  0  0
  160.8810  211.6580  149.8900 C   0  0  2  0  0  3  0  0  0  0  0  0
  160.4540  208.7040  155.6220 F   0  0  0  0  0  0  0  0  0  0  0  0
  161.9550  209.6440  148.1880 C   0  0  0  0  0  2  0  0  0  0  0  0
  160.5310  204.9870  151.1130 O   0  0  0  0  0  1  0  0  0  0  0  0
  160.3730  212.2280  151.2080 C   0  0  0  0  0  2  0  0  0  0  0  0
  162.1980  210.8980  150.1210 C   0  0  2  0  0  3  0  0  0  0  0  0
  161.2090  209.2390  153.4270 C   0  0  0  0  0  3  0  0  0  0  0  0
  160.8790  206.1030  149.0040 C   0  0  0  0  0  3  0  0  0  0  0  0
  160.3360  211.2090  152.3060 C   0  0  0  0  0  0  0  0  0  0  0  0
  159.5540  211.4860  153.4320 C   0  0  0  0  0  3  0  0  0  0  0  0
  162.8250  210.4880  148.9160 O   0  0  0  0  0  0  0  0  0  0  0  0
  161.6040  208.4120  148.9660 C   0  0  0  0  0  0  0  0  0  0  0  0
  161.2400  207.2460  148.2860 C   0  0  0  0  0  3  0  0  0  0  0  0
  159.1760  212.2680  147.6850 O   0  0  0  0  0  0  0  0  0  0  0  0
  160.1890  212.9980  147.8610 C   0  0  0  0  0  0  0  0  0  0  0  0
  161.0900  212.7400  148.9390 N   0  0  0  0  0  2  0  0  0  0  0  0
  160.7120  213.4930  144.0470 C   0  0  1  0  0  3  0  0  0  0  0  0
  159.3250  214.3640  145.9390 C   0  0  0  0  0  2  0  0  0  0  0  0
  162.8020  214.4530  146.7130 O   0  0  0  0  0  0  0  0  0  0  0  0
  160.7280  212.5530  142.8610 C   0  0  0  0  0  1  0  0  0  0  0  0
  159.3780  213.3710  144.7780 C   0  0  0  0  0  2  0  0  0  0  0  0
  161.7880  213.9750  146.2330 C   0  0  0  0  0  0  0  0  0  0  0  0
  160.4690  214.1430  146.9370 C   0  0  2  0  0  3  0  0  0  0  0  0
  161.8690  213.1500  144.9820 C   0  0  0  0  0  2  0  0  0  0  0  0
  1  9  1  0  0  0  0
  2  3  1  6  0  0  0
  2  5  1  0  0  0  0
  3  7  1  0  0  0  0
  4  7  2  0  0  0  0
  4 11  1  0  0  0  0
  5 16  2  0  0  0  0
  5 14  1  0  0  0  0
  6  1  1  0  0  0  0
  8 23  1  6  0  0  0
  8 13  1  0  0  0  0
  8 12  1  0  0  0  0
 10 18  1  0  0  0  0
 10 19  1  0  0  0  0
 12 16  1  0  0  0  0
 13 18  1  6  0  0  0
 13  2  1  0  0  0  0
 14  1  2  0  0  0  0
 15  4  1  0  0  0  0
 16 17  1  0  0  0  0
 17  6  2  0  0  0  0
 19  3  2  0  0  0  0
 20 19  1  0  0  0  0
 20 15  2  0  0  0  0
 21 22  2  0  0  0  0
 22 23  1  0  0  0  0
 24 27  1  6  0  0  0
 24 28  1  0  0  0  0
 24 31  1  0  0  0  0
 25 30  1  0  0  0  0
 28 25  1  0  0  0  0
 29 26  2  0  0  0  0
 29 30  1  0  0  0  0
 30 22  1  6  0  0  0
 31 29  1  0  0  0  0
M  END
>  <MODEL>
5

>  <REMARK>
 VINA RESULT:      -6.5      3.288      5.846
  Name = 
  2 active torsions:
  status: ('A' for Active; 'I' for Inactive)
    1  A    between atoms: C_5  and  C_30
    2  A    between atoms: C_10  and  N_16
                            x       y       z     vdW  Elec       q    Type
                         _______ _______ _______ _____ _____    ______ ____

>  <TORSDO>
F 2

$$$$
=
 OpenBabel11122413293D

 31 35  0  0  1  0  0  0  0  0999 V2000
  161.9440  206.6330  147.5150 C   0  0  0  0  0  0  0  0  0  0  0  0
  162.3790  209.3810  150.1170 C   0  0  2  0  0  3  0  0  0  0  0  0
  161.7160  210.6070  149.5150 C   0  0  0  0  0  0  0  0  0  0  0  0
  161.0780  211.9370  147.5820 C   0  0  0  0  0  0  0  0  0  0  0  0
  161.9510  208.0780  149.4710 C   0  0  0  0  0  0  0  0  0  0  0  0
  161.1540  205.7060  148.1950 C   0  0  0  0  0  3  0  0  0  0  0  0
  161.6240  210.7700  148.1250 C   0  0  0  0  0  3  0  0  0  0  0  0
  160.9100  208.7120  152.1020 C   0  0  2  0  0  3  0  0  0  0  0  0
  162.3240  206.3930  146.2370 F   0  0  0  0  0  0  0  0  0  0  0  0
  161.3940  211.5060  151.8410 C   0  0  0  0  0  2  0  0  0  0  0  0
  160.9760  212.0790  146.2050 O   0  0  0  0  0  1  0  0  0  0  0  0
  160.8440  207.2690  151.6180 C   0  0  0  0  0  2  0  0  0  0  0  0
  162.2330  209.3540  151.6540 C   0  0  2  0  0  3  0  0  0  0  0  0
  162.3440  207.8090  148.1520 C   0  0  0  0  0  3  0  0  0  0  0  0
  160.6370  212.9590  148.4250 C   0  0  0  0  0  3  0  0  0  0  0  0
  161.1580  207.1300  150.1600 C   0  0  0  0  0  0  0  0  0  0  0  0
  160.7720  205.9500  149.5150 C   0  0  0  0  0  3  0  0  0  0  0  0
  162.4480  210.6400  152.2140 O   0  0  0  0  0  0  0  0  0  0  0  0
  161.3090  211.6600  150.3530 C   0  0  0  0  0  0  0  0  0  0  0  0
  160.7500  212.8210  149.8100 C   0  0  0  0  0  3  0  0  0  0  0  0
  159.0780  210.3170  153.5870 O   0  0  0  0  0  0  0  0  0  0  0  0
  159.8560  209.5650  154.2360 C   0  0  0  0  0  0  0  0  0  0  0  0
  160.8050  208.7450  153.5530 N   0  0  0  0  0  2  0  0  0  0  0  0
  162.2270  210.4590  157.1750 C   0  0  1  0  0  3  0  0  0  0  0  0
  159.9140  210.9290  156.3420 C   0  0  0  0  0  2  0  0  0  0  0  0
  160.5590  207.4290  156.5160 O   0  0  0  0  0  0  0  0  0  0  0  0
  163.6410  210.9940  157.2550 C   0  0  0  0  0  1  0  0  0  0  0  0
  161.3590  211.4270  156.3740 C   0  0  0  0  0  2  0  0  0  0  0  0
  160.8390  208.5960  156.2980 C   0  0  0  0  0  0  0  0  0  0  0  0
  159.8020  209.5270  155.7310 C   0  0  2  0  0  3  0  0  0  0  0  0
  162.2420  209.0830  156.5170 C   0  0  0  0  0  2  0  0  0  0  0  0
  1 14  2  0  0  0  0
  1  6  1  0  0  0  0
  2  5  1  6  0  0  0
  2 13  1  0  0  0  0
  3  2  1  0  0  0  0
  3 19  1  0  0  0  0
  4  7  1  0  0  0  0
  4 15  2  0  0  0  0
  5 16  2  0  0  0  0
  6 17  2  0  0  0  0
  7  3  2  0  0  0  0
  8 23  1  1  0  0  0
  9  1  1  0  0  0  0
 10 18  1  0  0  0  0
 11  4  1  0  0  0  0
 12  8  1  0  0  0  0
 13  8  1  0  0  0  0
 13 18  1  6  0  0  0
 14  5  1  0  0  0  0
 15 20  1  0  0  0  0
 16 12  1  0  0  0  0
 17 16  1  0  0  0  0
 19 10  1  0  0  0  0
 20 19  2  0  0  0  0
 21 22  2  0  0  0  0
 23 22  1  0  0  0  0
 24 27  1  6  0  0  0
 25 28  1  0  0  0  0
 28 24  1  0  0  0  0
 29 26  2  0  0  0  0
 29 31  1  0  0  0  0
 30 22  1  6  0  0  0
 30 29  1  0  0  0  0
 30 25  1  0  0  0  0
 31 24  1  0  0  0  0
M  END
>  <MODEL>
6

>  <REMARK>
 VINA RESULT:      -6.5      3.744      7.115
  Name = 
  2 active torsions:
  status: ('A' for Active; 'I' for Inactive)
    1  A    between atoms: C_5  and  C_30
    2  A    between atoms: C_10  and  N_16
                            x       y       z     vdW  Elec       q    Type
                         _______ _______ _______ _____ _____    ______ ____

>  <TORSDO>
F 2

$$$$
=
 OpenBabel11122413293D

 31 35  0  0  1  0  0  0  0  0999 V2000
  160.8260  201.7200  149.8330 C   0  0  0  0  0  0  0  0  0  0  0  0
  162.3370  205.1760  150.3600 C   0  0  2  0  0  3  0  0  0  0  0  0
  161.8000  206.0230  149.2220 C   0  0  0  0  0  0  0  0  0  0  0  0
  161.0080  206.2410  146.9330 C   0  0  0  0  0  0  0  0  0  0  0  0
  161.5390  203.9120  150.6090 C   0  0  0  0  0  0  0  0  0  0  0  0
  160.0470  201.5610  150.9800 C   0  0  0  0  0  3  0  0  0  0  0  0
  161.4330  205.4420  147.9990 C   0  0  0  0  0  3  0  0  0  0  0  0
  161.2480  206.1060  152.4810 C   0  0  2  0  0  3  0  0  0  0  0  0
  160.8590  200.7430  148.8950 F   0  0  0  0  0  0  0  0  0  0  0  0
  162.1780  208.0670  150.6370 C   0  0  0  0  0  2  0  0  0  0  0  0
  160.6320  205.6520  145.7340 O   0  0  0  0  0  1  0  0  0  0  0  0
  160.8070  204.7140  152.9130 C   0  0  0  0  0  2  0  0  0  0  0  0
  162.5350  206.0110  151.6450 C   0  0  2  0  0  3  0  0  0  0  0  0
  161.5720  202.8870  149.6530 C   0  0  0  0  0  3  0  0  0  0  0  0
  160.9660  207.6290  147.0740 C   0  0  0  0  0  3  0  0  0  0  0  0
  160.7560  203.7410  151.7750 C   0  0  0  0  0  0  0  0  0  0  0  0
  160.0220  202.5630  151.9510 C   0  0  0  0  0  3  0  0  0  0  0  0
  163.1070  207.2770  151.3540 O   0  0  0  0  0  0  0  0  0  0  0  0
  161.7940  207.4250  149.3390 C   0  0  0  0  0  0  0  0  0  0  0  0
  161.3570  208.2220  148.2770 C   0  0  0  0  0  3  0  0  0  0  0  0
  160.1670  208.7120  152.9020 O   0  0  0  0  0  0  0  0  0  0  0  0
  160.8950  208.2270  153.8110 C   0  0  0  0  0  0  0  0  0  0  0  0
  161.4770  206.9320  153.6570 N   0  0  0  0  0  2  0  0  0  0  0  0
  159.5100  211.4300  155.5100 C   0  0  1  0  0  3  0  0  0  0  0  0
  159.9570  209.0170  156.0020 C   0  0  0  0  0  2  0  0  0  0  0  0
  162.8320  210.6350  154.6550 O   0  0  0  0  0  0  0  0  0  0  0  0
  158.4400  212.4350  155.1370 C   0  0  0  0  0  1  0  0  0  0  0  0
  158.9000  210.0310  155.5620 C   0  0  0  0  0  2  0  0  0  0  0  0
  161.6390  210.4000  154.7520 C   0  0  0  0  0  0  0  0  0  0  0  0
  161.1680  209.0050  155.0610 C   0  0  2  0  0  3  0  0  0  0  0  0
  160.6370  211.4850  154.4830 C   0  0  0  0  0  2  0  0  0  0  0  0
  1  6  1  0  0  0  0
  2  3  1  6  0  0  0
  2  5  1  0  0  0  0
  2 13  1  0  0  0  0
  3 19  1  0  0  0  0
  4 15  2  0  0  0  0
  4  7  1  0  0  0  0
  5 16  2  0  0  0  0
  6 17  2  0  0  0  0
  7  3  2  0  0  0  0
  8 12  1  0  0  0  0
  8 23  1  1  0  0  0
  9  1  1  0  0  0  0
 10 18  1  0  0  0  0
 11  4  1  0  0  0  0
 13 18  1  6  0  0  0
 13  8  1  0  0  0  0
 14  1  2  0  0  0  0
 14  5  1  0  0  0  0
 15 20  1  0  0  0  0
 16 17  1  0  0  0  0
 16 12  1  0  0  0  0
 19 10  1  0  0  0  0
 20 19  2  0  0  0  0
 21 22  2  0  0  0  0
 23 22  1  0  0  0  0
 24 27  1  6  0  0  0
 24 28  1  0  0  0  0
 26 29  2  0  0  0  0
 28 25  1  0  0  0  0
 29 30  1  0  0  0  0
 30 22  1  6  0  0  0
 30 25  1  0  0  0  0
 31 29  1  0  0  0  0
 31 24  1  0  0  0  0
M  END
>  <MODEL>
7

>  <REMARK>
 VINA RESULT:      -6.2      3.396      5.665
  Name = 
  2 active torsions:
  status: ('A' for Active; 'I' for Inactive)
    1  A    between atoms: C_5  and  C_30
    2  A    between atoms: C_10  and  N_16
                            x       y       z     vdW  Elec       q    Type
                         _______ _______ _______ _____ _____    ______ ____

>  <TORSDO>
F 2

$$$$
=
 OpenBabel11122413293D

 31 35  0  0  1  0  0  0  0  0999 V2000
  161.2350  202.3970  151.2500 C   0  0  0  0  0  0  0  0  0  0  0  0
  162.3970  205.9740  150.6500 C   0  0  2  0  0  3  0  0  0  0  0  0
  161.8210  206.3580  149.3000 C   0  0  0  0  0  0  0  0  0  0  0  0
  161.0900  205.7570  147.0590 C   0  0  0  0  0  0  0  0  0  0  0  0
  161.7130  204.7810  151.2870 C   0  0  0  0  0  0  0  0  0  0  0  0
  160.4360  202.5330  152.3860 C   0  0  0  0  0  3  0  0  0  0  0  0
  161.5520  205.3850  148.3250 C   0  0  0  0  0  3  0  0  0  0  0  0
  161.1540  207.4150  152.3600 C   0  0  2  0  0  3  0  0  0  0  0  0
  161.3920  201.1820  150.6730 F   0  0  0  0  0  0  0  0  0  0  0  0
  161.9570  208.7720  149.9890 C   0  0  0  0  0  2  0  0  0  0  0  0
  160.8110  204.7850  146.1090 O   0  0  0  0  0  1  0  0  0  0  0  0
  160.8310  206.1960  153.2130 C   0  0  0  0  0  2  0  0  0  0  0  0
  162.4720  207.1890  151.6010 C   0  0  2  0  0  3  0  0  0  0  0  0
  161.8740  203.5140  150.7080 C   0  0  0  0  0  3  0  0  0  0  0  0
  160.9130  207.1080  146.7490 C   0  0  0  0  0  3  0  0  0  0  0  0
  160.9110  204.9120  152.4450 C   0  0  0  0  0  0  0  0  0  0  0  0
  160.2840  203.7840  152.9860 C   0  0  0  0  0  3  0  0  0  0  0  0
  162.9320  208.3470  150.9220 O   0  0  0  0  0  0  0  0  0  0  0  0
  161.6800  207.7160  148.9630 C   0  0  0  0  0  0  0  0  0  0  0  0
  161.2060  208.0870  147.7010 C   0  0  0  0  0  3  0  0  0  0  0  0
  159.7060  209.8480  152.0100 O   0  0  0  0  0  0  0  0  0  0  0  0
  160.5010  209.7760  152.9870 C   0  0  0  0  0  0  0  0  0  0  0  0
  161.2650  208.5910  153.2120 N   0  0  0  0  0  2  0  0  0  0  0  0
  158.3130  211.6250  155.6060 C   0  0  1  0  0  3  0  0  0  0  0  0
  160.5410  210.5060  155.3890 C   0  0  0  0  0  2  0  0  0  0  0  0
  160.0440  212.9430  152.8370 O   0  0  0  0  0  0  0  0  0  0  0  0
  156.8890  211.4530  156.0900 C   0  0  0  0  0  1  0  0  0  0  0  0
  159.0830  210.3240  155.8140 C   0  0  0  0  0  2  0  0  0  0  0  0
  159.7040  212.0470  153.5930 C   0  0  0  0  0  0  0  0  0  0  0  0
  160.6620  210.9350  153.9210 C   0  0  2  0  0  3  0  0  0  0  0  0
  158.3030  212.0120  154.1300 C   0  0  0  0  0  2  0  0  0  0  0  0
  1  6  1  0  0  0  0
  2  3  1  6  0  0  0
  2  5  1  0  0  0  0
  2 13  1  0  0  0  0
  4  7  1  0  0  0  0
  5 16  2  0  0  0  0
  6 17  2  0  0  0  0
  7  3  2  0  0  0  0
  8 23  1  1  0  0  0
  8 12  1  0  0  0  0
  9  1  1  0  0  0  0
 10 18  1  0  0  0  0
 11  4  1  0  0  0  0
 13 18  1  6  0  0  0
 13  8  1  0  0  0  0
 14  1  2  0  0  0  0
 14  5  1  0  0  0  0
 15  4  2  0  0  0  0
 15 20  1  0  0  0  0
 16 17  1  0  0  0  0
 16 12  1  0  0  0  0
 19  3  1  0  0  0  0
 19 10  1  0  0  0  0
 20 19  2  0  0  0  0
 21 22  2  0  0  0  0
 22 23  1  0  0  0  0
 24 28  1  0  0  0  0
 24 27  1  6  0  0  0
 25 28  1  0  0  0  0
 26 29  2  0  0  0  0
 29 30  1  0  0  0  0
 29 31  1  0  0  0  0
 30 22  1  6  0  0  0
 30 25  1  0  0  0  0
 31 24  1  0  0  0  0
M  END
>  <MODEL>
8

>  <REMARK>
 VINA RESULT:      -6.1      3.572      5.702
  Name = 
  2 active torsions:
  status: ('A' for Active; 'I' for Inactive)
    1  A    between atoms: C_5  and  C_30
    2  A    between atoms: C_10  and  N_16
                            x       y       z     vdW  Elec       q    Type
                         _______ _______ _______ _____ _____    ______ ____

>  <TORSDO>
F 2

$$$$
=
 OpenBabel11122413293D

 31 35  0  0  1  0  0  0  0  0999 V2000
  157.5770  213.7830  152.1100 C   0  0  0  0  0  0  0  0  0  0  0  0
  160.7520  213.3600  150.0480 C   0  0  2  0  0  3  0  0  0  0  0  0
  161.1180  211.8940  150.1780 C   0  0  0  0  0  0  0  0  0  0  0  0
  161.1480  209.8220  151.4510 C   0  0  0  0  0  0  0  0  0  0  0  0
  159.3110  213.6630  150.4090 C   0  0  0  0  0  0  0  0  0  0  0  0
  156.6450  214.1610  151.1430 C   0  0  0  0  0  3  0  0  0  0  0  0
  160.7420  211.1520  151.3080 C   0  0  0  0  0  3  0  0  0  0  0  0
  160.0550  213.6800  147.6070 C   0  0  2  0  0  3  0  0  0  0  0  0
  157.1960  213.6510  153.4030 F   0  0  0  0  0  0  0  0  0  0  0  0
  162.3700  212.0700  148.0050 C   0  0  0  0  0  2  0  0  0  0  0  0
  160.7560  209.0930  152.5660 O   0  0  0  0  0  1  0  0  0  0  0  0
  158.7640  214.3720  148.0240 C   0  0  0  0  0  2  0  0  0  0  0  0
  161.1440  213.9230  148.6640 C   0  0  2  0  0  3  0  0  0  0  0  0
  158.9030  213.5410  151.7450 C   0  0  0  0  0  3  0  0  0  0  0  0
  161.9500  209.2270  150.4750 C   0  0  0  0  0  3  0  0  0  0  0  0
  158.3650  214.0570  149.4340 C   0  0  0  0  0  0  0  0  0  0  0  0
  157.0410  214.3080  149.8120 C   0  0  0  0  0  3  0  0  0  0  0  0
  162.4240  213.4600  148.2640 O   0  0  0  0  0  0  0  0  0  0  0  0
  161.9600  211.2990  149.2220 C   0  0  0  0  0  0  0  0  0  0  0  0
  162.3550  209.9640  149.3600 C   0  0  0  0  0  3  0  0  0  0  0  0
  159.8180  212.3020  145.1200 O   0  0  0  0  0  0  0  0  0  0  0  0
  160.3300  213.4550  145.1040 C   0  0  0  0  0  0  0  0  0  0  0  0
  160.4880  214.1930  146.3160 N   0  0  0  0  0  2  0  0  0  0  0  0
  161.0820  212.2220  141.5010 C   0  0  1  0  0  3  0  0  0  0  0  0
  159.7260  213.9400  142.7150 C   0  0  0  0  0  2  0  0  0  0  0  0
  163.1500  214.0370  143.7000 O   0  0  0  0  0  0  0  0  0  0  0  0
  161.0380  210.8670  140.8270 C   0  0  0  0  0  1  0  0  0  0  0  0
  159.7110  212.5450  142.0890 C   0  0  0  0  0  2  0  0  0  0  0  0
  162.1080  213.4930  143.3720 C   0  0  0  0  0  0  0  0  0  0  0  0
  160.7880  214.0640  143.8150 C   0  0  2  0  0  3  0  0  0  0  0  0
  162.1450  212.2090  142.5970 C   0  0  0  0  0  2  0  0  0  0  0  0
  1  9  1  0  0  0  0
  2  3  1  6  0  0  0
  2  5  1  0  0  0  0
  3  7  1  0  0  0  0
  4 11  1  0  0  0  0
  5 14  2  0  0  0  0
  6  1  2  0  0  0  0
  7  4  2  0  0  0  0
  8 23  1  6  0  0  0
  8 12  1  0  0  0  0
  8 13  1  0  0  0  0
 10 18  1  0  0  0  0
 10 19  1  0  0  0  0
 12 16  1  0  0  0  0
 13 18  1  6  0  0  0
 13  2  1  0  0  0  0
 14  1  1  0  0  0  0
 15  4  1  0  0  0  0
 16 17  2  0  0  0  0
 16  5  1  0  0  0  0
 17  6  1  0  0  0  0
 19 20  1  0  0  0  0
 19  3  2  0  0  0  0
 20 15  2  0  0  0  0
 22 21  2  0  0  0  0
 22 23  1  0  0  0  0
 24 27  1  1  0  0  0
 24 28  1  0  0  0  0
 24 31  1  0  0  0  0
 25 30  1  0  0  0  0
 28 25  1  0  0  0  0
 29 26  2  0  0  0  0
 29 30  1  0  0  0  0
 30 22  1  1  0  0  0
 31 29  1  0  0  0  0
M  END
>  <MODEL>
9

>  <REMARK>
 VINA RESULT:      -5.7      5.057      7.922
  Name = 
  2 active torsions:
  status: ('A' for Active; 'I' for Inactive)
    1  A    between atoms: C_5  and  C_30
    2  A    between atoms: C_10  and  N_16
                            x       y       z     vdW  Elec       q    Type
                         _______ _______ _______ _____ _____    ______ ____

>  <TORSDO>
F 2

$$$$
