=
 OpenBabel11122413283D

 31 35  0  0  1  0  0  0  0  0999 V2000
  160.9010  206.2390  146.3540 C   0  0  0  0  0  0  0  0  0  0  0  0
  160.3070  204.9800  149.8960 C   0  0  2  0  0  3  0  0  0  0  0  0
  160.7580  203.5240  149.9150 C   0  0  0  0  0  0  0  0  0  0  0  0
  161.1920  201.4490  148.7140 C   0  0  0  0  0  0  0  0  0  0  0  0
  160.8760  205.7710  148.7380 C   0  0  0  0  0  0  0  0  0  0  0  0
  161.9490  207.1430  146.5370 C   0  0  0  0  0  3  0  0  0  0  0  0
  160.8600  202.8050  148.7130 C   0  0  0  0  0  3  0  0  0  0  0  0
  162.0210  206.0950  151.3800 C   0  0  2  0  0  3  0  0  0  0  0  0
  160.4050  206.0190  145.1130 F   0  0  0  0  0  0  0  0  0  0  0  0
  160.8620  203.5260  152.4640 C   0  0  0  0  0  2  0  0  0  0  0  0
  161.3040  200.7610  147.5140 O   0  0  0  0  0  1  0  0  0  0  0  0
  162.4110  207.0890  150.2890 C   0  0  0  0  0  2  0  0  0  0  0  0
  160.5440  205.7000  151.2370 C   0  0  2  0  0  3  0  0  0  0  0  0
  160.3660  205.5590  147.4500 C   0  0  0  0  0  3  0  0  0  0  0  0
  161.4070  200.7850  149.9210 C   0  0  0  0  0  3  0  0  0  0  0  0
  161.9320  206.6940  148.9220 C   0  0  0  0  0  0  0  0  0  0  0  0
  162.4540  207.3760  147.8180 C   0  0  0  0  0  3  0  0  0  0  0  0
  160.0580  204.8210  152.3910 C   0  0  0  0  0  2  0  0  0  0  0  0
  160.9390  202.8310  151.1370 C   0  0  0  0  0  0  0  0  0  0  0  0
  161.2830  201.4760  151.1280 C   0  0  0  0  0  3  0  0  0  0  0  0
  160.5700  208.2890  152.4800 O   0  0  0  0  0  0  0  0  0  0  0  0
  161.4920  207.7900  153.1800 C   0  0  0  0  0  0  0  0  0  0  0  0
  162.2630  206.6940  152.6860 N   0  0  0  0  0  2  0  0  0  0  0  0
  159.4400  209.6200  155.5920 C   0  0  0  0  0  0  0  0  0  0  0  0
  160.9860  207.6760  155.6480 C   0  0  0  0  0  2  0  0  0  0  0  0
  162.4370  210.4870  153.6000 O   0  0  0  0  0  1  0  0  0  0  0  0
  158.6750  210.2180  156.3300 O   0  0  0  0  0  0  0  0  0  0  0  0
  159.5220  208.1250  155.6400 C   0  0  0  0  0  2  0  0  0  0  0  0
  161.7000  209.8800  154.6180 C   0  0  2  0  0  3  0  0  0  0  0  0
  161.8070  208.3470  154.5380 C   0  0  2  0  0  3  0  0  0  0  0  0
  160.2510  210.3670  154.5800 C   0  0  0  0  0  2  0  0  0  0  0  0
  1  6  2  0  0  0  0
  1 14  1  0  0  0  0
  2  5  1  6  0  0  0
  2  3  1  0  0  0  0
  2 13  1  0  0  0  0
  3 19  1  0  0  0  0
  4 15  2  0  0  0  0
  5 16  1  0  0  0  0
  6 17  1  0  0  0  0
  7  4  1  0  0  0  0
  7  3  2  0  0  0  0
  8 23  1  1  0  0  0
  9  1  1  0  0  0  0
 11  4  1  0  0  0  0
 12  8  1  0  0  0  0
 13  8  1  0  0  0  0
 13 18  1  1  0  0  0
 14  5  2  0  0  0  0
 15 20  1  0  0  0  0
 16 12  1  0  0  0  0
 17 16  2  0  0  0  0
 18 10  1  0  0  0  0
 19 10  1  0  0  0  0
 20 19  2  0  0  0  0
 21 22  2  0  0  0  0
 23 22  1  0  0  0  0
 24 28  1  0  0  0  0
 24 27  2  0  0  0  0
 28 25  1  0  0  0  0
 29 26  1  6  0  0  0
 30 22  1  6  0  0  0
 30 29  1  0  0  0  0
 30 25  1  0  0  0  0
 31 29  1  0  0  0  0
 31 24  1  0  0  0  0
M  END
>  <MODEL>
1

>  <REMARK>
 VINA RESULT:      -7.5      0.000      0.000
  Name = 
  2 active torsions:
  status: ('A' for Active; 'I' for Inactive)
    1  A    between atoms: C_5  and  C_30
    2  A    between atoms: C_10  and  N_16
                            x       y       z     vdW  Elec       q    Type
                         _______ _______ _______ _____ _____    ______ ____

>  <TORSDO>
F 2

$$$$
=
 OpenBabel11122413283D

 31 35  0  0  1  0  0  0  0  0999 V2000
  161.0820  204.6250  145.0690 C   0  0  0  0  0  0  0  0  0  0  0  0
  160.5060  205.0290  148.8090 C   0  0  2  0  0  3  0  0  0  0  0  0
  160.9090  203.7060  149.4510 C   0  0  0  0  0  0  0  0  0  0  0  0
  161.2560  201.3020  149.2560 C   0  0  0  0  0  0  0  0  0  0  0  0
  161.0820  205.2250  147.4240 C   0  0  0  0  0  0  0  0  0  0  0  0
  162.1620  205.4810  144.8460 C   0  0  0  0  0  3  0  0  0  0  0  0
  160.9680  202.5370  148.6730 C   0  0  0  0  0  3  0  0  0  0  0  0
  162.2800  206.6080  149.6700 C   0  0  2  0  0  3  0  0  0  0  0  0
  160.5580  203.9120  144.0440 F   0  0  0  0  0  0  0  0  0  0  0  0
  161.0560  204.7960  151.7520 C   0  0  0  0  0  2  0  0  0  0  0  0
  161.3250  200.1620  148.4670 O   0  0  0  0  0  1  0  0  0  0  0  0
  162.6840  207.0230  148.2570 C   0  0  0  0  0  2  0  0  0  0  0  0
  160.7890  206.2450  149.7110 C   0  0  2  0  0  3  0  0  0  0  0  0
  160.5440  204.5010  146.3520 C   0  0  0  0  0  3  0  0  0  0  0  0
  161.4690  201.2120  150.6310 C   0  0  0  0  0  3  0  0  0  0  0  0
  162.1690  206.0980  147.1930 C   0  0  0  0  0  0  0  0  0  0  0  0
  162.6950  206.2220  145.9030 C   0  0  0  0  0  3  0  0  0  0  0  0
  160.2930  205.9630  151.1310 C   0  0  0  0  0  2  0  0  0  0  0  0
  161.0880  203.5970  150.8520 C   0  0  0  0  0  0  0  0  0  0  0  0
  161.3880  202.3570  151.4250 C   0  0  0  0  0  3  0  0  0  0  0  0
  161.3340  209.2830  149.3940 O   0  0  0  0  0  0  0  0  0  0  0  0
  162.0500  209.0190  150.3980 C   0  0  0  0  0  0  0  0  0  0  0  0
  162.5630  207.7000  150.5920 N   0  0  0  0  0  2  0  0  0  0  0  0
  160.0950  210.5340  153.0930 C   0  0  0  0  0  0  0  0  0  0  0  0
  162.3680  209.5600  152.8410 C   0  0  0  0  0  2  0  0  0  0  0  0
  161.5490  211.8260  149.9430 O   0  0  0  0  0  1  0  0  0  0  0  0
  159.3670  210.9720  153.9670 O   0  0  0  0  0  0  0  0  0  0  0  0
  160.9430  209.3260  153.3510 C   0  0  0  0  0  2  0  0  0  0  0  0
  161.5360  211.3590  151.2580 C   0  0  2  0  0  3  0  0  0  0  0  0
  162.3900  210.0860  151.3980 C   0  0  2  0  0  3  0  0  0  0  0  0
  160.0970  211.1520  151.7300 C   0  0  0  0  0  2  0  0  0  0  0  0
  1 14  1  0  0  0  0
  2  5  1  6  0  0  0
  2  3  1  0  0  0  0
  2 13  1  0  0  0  0
  3 19  1  0  0  0  0
  4 15  2  0  0  0  0
  6  1  2  0  0  0  0
  6 17  1  0  0  0  0
  7  4  1  0  0  0  0
  7  3  2  0  0  0  0
  8 13  1  0  0  0  0
  8 23  1  1  0  0  0
  9  1  1  0  0  0  0
 11  4  1  0  0  0  0
 12  8  1  0  0  0  0
 13 18  1  1  0  0  0
 14  5  2  0  0  0  0
 15 20  1  0  0  0  0
 16  5  1  0  0  0  0
 16 12  1  0  0  0  0
 17 16  2  0  0  0  0
 18 10  1  0  0  0  0
 19 20  2  0  0  0  0
 19 10  1  0  0  0  0
 21 22  2  0  0  0  0
 22 23  1  0  0  0  0
 24 28  1  0  0  0  0
 24 27  2  0  0  0  0
 25 28  1  0  0  0  0
 29 26  1  6  0  0  0
 29 30  1  0  0  0  0
 29 31  1  0  0  0  0
 30 22  1  6  0  0  0
 30 25  1  0  0  0  0
 31 24  1  0  0  0  0
M  END
>  <MODEL>
2

>  <REMARK>
 VINA RESULT:      -7.3      1.897      2.292
  Name = 
  2 active torsions:
  status: ('A' for Active; 'I' for Inactive)
    1  A    between atoms: C_5  and  C_30
    2  A    between atoms: C_10  and  N_16
                            x       y       z     vdW  Elec       q    Type
                         _______ _______ _______ _____ _____    ______ ____

>  <TORSDO>
F 2

$$$$
=
 OpenBabel11122413283D

 31 35  0  0  1  0  0  0  0  0999 V2000
  161.0570  203.8250  145.5520 C   0  0  0  0  0  0  0  0  0  0  0  0
  160.5190  205.6910  148.8240 C   0  0  2  0  0  3  0  0  0  0  0  0
  160.9040  204.7240  149.9380 C   0  0  0  0  0  0  0  0  0  0  0  0
  161.2060  202.4340  150.7130 C   0  0  0  0  0  0  0  0  0  0  0  0
  161.0870  205.3100  147.4740 C   0  0  0  0  0  0  0  0  0  0  0  0
  162.1510  204.5010  145.0060 C   0  0  0  0  0  3  0  0  0  0  0  0
  160.9360  203.3420  149.6880 C   0  0  0  0  0  3  0  0  0  0  0  0
  162.3280  207.4480  148.9870 C   0  0  2  0  0  3  0  0  0  0  0  0
  160.5130  202.7750  144.8930 F   0  0  0  0  0  0  0  0  0  0  0  0
  161.0890  206.6350  151.6180 C   0  0  0  0  0  2  0  0  0  0  0  0
  161.2490  201.0740  150.4420 O   0  0  0  0  0  1  0  0  0  0  0  0
  162.7290  207.2600  147.5250 C   0  0  0  0  0  2  0  0  0  0  0  0
  160.8310  207.1600  149.1690 C   0  0  2  0  0  3  0  0  0  0  0  0
  160.5280  204.2310  146.7780 C   0  0  0  0  0  3  0  0  0  0  0  0
  161.4290  202.8930  152.0110 C   0  0  0  0  0  3  0  0  0  0  0  0
  162.1880  205.9990  146.9150 C   0  0  0  0  0  0  0  0  0  0  0  0
  162.7060  205.5900  145.6820 C   0  0  0  0  0  3  0  0  0  0  0  0
  160.3420  207.4750  150.5850 C   0  0  0  0  0  2  0  0  0  0  0  0
  161.0930  205.1770  151.2670 C   0  0  0  0  0  0  0  0  0  0  0  0
  161.3740  204.2610  152.2850 C   0  0  0  0  0  3  0  0  0  0  0  0
  161.2170  209.8090  147.8390 O   0  0  0  0  0  0  0  0  0  0  0  0
  162.0390  209.9520  148.7850 C   0  0  0  0  0  0  0  0  0  0  0  0
  162.6380  208.8100  149.3990 N   0  0  0  0  0  2  0  0  0  0  0  0
  160.8910  213.2810  147.7980 C   0  0  0  0  0  0  0  0  0  0  0  0
  161.2320  212.0500  149.9290 C   0  0  0  0  0  2  0  0  0  0  0  0
  164.1460  211.5290  147.5970 O   0  0  0  0  0  1  0  0  0  0  0  0
  160.4420  214.3440  147.4030 O   0  0  0  0  0  0  0  0  0  0  0  0
  160.2060  212.5340  148.9010 C   0  0  0  0  0  2  0  0  0  0  0  0
  163.0800  212.1990  148.1990 C   0  0  2  0  0  3  0  0  0  0  0  0
  162.4140  211.3210  149.2730 C   0  0  2  0  0  3  0  0  0  0  0  0
  162.0900  212.6750  147.1370 C   0  0  0  0  0  2  0  0  0  0  0  0
  1 14  1  0  0  0  0
  2  5  1  6  0  0  0
  2 13  1  0  0  0  0
  2  3  1  0  0  0  0
  3 19  1  0  0  0  0
  4 15  2  0  0  0  0
  6  1  2  0  0  0  0
  6 17  1  0  0  0  0
  7  3  2  0  0  0  0
  7  4  1  0  0  0  0
  8 13  1  0  0  0  0
  8 23  1  6  0  0  0
  9  1  1  0  0  0  0
 11  4  1  0  0  0  0
 12  8  1  0  0  0  0
 13 18  1  1  0  0  0
 14  5  2  0  0  0  0
 15 20  1  0  0  0  0
 16  5  1  0  0  0  0
 16 12  1  0  0  0  0
 17 16  2  0  0  0  0
 18 10  1  0  0  0  0
 19 10  1  0  0  0  0
 19 20  2  0  0  0  0
 21 22  2  0  0  0  0
 22 23  1  0  0  0  0
 24 28  1  0  0  0  0
 27 24  2  0  0  0  0
 28 25  1  0  0  0  0
 29 26  1  6  0  0  0
 29 30  1  0  0  0  0
 30 22  1  6  0  0  0
 30 25  1  0  0  0  0
 31 24  1  0  0  0  0
 31 29  1  0  0  0  0
M  END
>  <MODEL>
3

>  <REMARK>
 VINA RESULT:      -7.1      3.414      4.663
  Name = 
  2 active torsions:
  status: ('A' for Active; 'I' for Inactive)
    1  A    between atoms: C_5  and  C_30
    2  A    between atoms: C_10  and  N_16
                            x       y       z     vdW  Elec       q    Type
                         _______ _______ _______ _____ _____    ______ ____

>  <TORSDO>
F 2

$$$$
=
 OpenBabel11122413283D

 31 35  0  0  1  0  0  0  0  0999 V2000
  160.7920  207.5330  156.3750 C   0  0  0  0  0  0  0  0  0  0  0  0
  161.8410  208.6870  152.9030 C   0  0  2  0  0  3  0  0  0  0  0  0
  161.4310  207.5780  151.9410 C   0  0  0  0  0  0  0  0  0  0  0  0
  160.9050  205.2310  151.5490 C   0  0  0  0  0  0  0  0  0  0  0  0
  161.1160  208.6290  154.2310 C   0  0  0  0  0  0  0  0  0  0  0  0
  159.7520  208.4150  156.6740 C   0  0  0  0  0  3  0  0  0  0  0  0
  161.2020  206.2790  152.4230 C   0  0  0  0  0  3  0  0  0  0  0  0
  160.2920  210.5710  152.2450 C   0  0  2  0  0  3  0  0  0  0  0  0
  161.1400  206.5700  157.2610 F   0  0  0  0  0  0  0  0  0  0  0  0
  161.6360  209.1520  149.9440 C   0  0  0  0  0  2  0  0  0  0  0  0
  160.6660  203.9590  152.0470 O   0  0  0  0  0  1  0  0  0  0  0  0
  159.7480  210.7040  153.6660 C   0  0  0  0  0  2  0  0  0  0  0  0
  161.7500  210.0910  152.2760 C   0  0  2  0  0  3  0  0  0  0  0  0
  161.4720  207.6420  155.1600 C   0  0  0  0  0  3  0  0  0  0  0  0
  160.8540  205.4630  150.1750 C   0  0  0  0  0  3  0  0  0  0  0  0
  160.0690  209.5260  154.5400 C   0  0  0  0  0  0  0  0  0  0  0  0
  159.4000  209.4140  155.7640 C   0  0  0  0  0  3  0  0  0  0  0  0
  162.3940  210.0810  150.8880 C   0  0  0  0  0  2  0  0  0  0  0  0
  161.4160  207.7940  150.5410 C   0  0  0  0  0  0  0  0  0  0  0  0
  161.1070  206.7410  149.6740 C   0  0  0  0  0  3  0  0  0  0  0  0
  157.8740  212.0050  151.7720 O   0  0  0  0  0  0  0  0  0  0  0  0
  158.9490  212.5280  151.3730 C   0  0  0  0  0  0  0  0  0  0  0  0
  160.1950  211.8590  151.5700 N   0  0  0  0  0  2  0  0  0  0  0  0
  157.4060  213.6030  148.2360 C   0  0  0  0  0  0  0  0  0  0  0  0
  157.5280  214.4500  150.5680 C   0  0  0  0  0  2  0  0  0  0  0  0
  160.9090  213.2770  149.3880 O   0  0  0  0  0  1  0  0  0  0  0  0
  156.8500  213.8650  147.1820 O   0  0  0  0  0  0  0  0  0  0  0  0
  156.6650  213.7260  149.5320 C   0  0  0  0  0  2  0  0  0  0  0  0
  159.6310  213.8300  149.2940 C   0  0  2  0  0  3  0  0  0  0  0  0
  158.9400  213.8540  150.6690 C   0  0  2  0  0  3  0  0  0  0  0  0
  158.8100  213.0860  148.2410 C   0  0  0  0  0  2  0  0  0  0  0  0
  1  6  1  0  0  0  0
  1  9  1  0  0  0  0
  2  3  1  6  0  0  0
  2  5  1  0  0  0  0
  3  7  1  0  0  0  0
  4 11  1  0  0  0  0
  4  7  2  0  0  0  0
  5 16  2  0  0  0  0
  5 14  1  0  0  0  0
  8 23  1  1  0  0  0
  8 13  1  0  0  0  0
  8 12  1  0  0  0  0
 10 19  1  0  0  0  0
 10 18  1  0  0  0  0
 12 16  1  0  0  0  0
 13 18  1  6  0  0  0
 13  2  1  0  0  0  0
 14  1  2  0  0  0  0
 15  4  1  0  0  0  0
 16 17  1  0  0  0  0
 17  6  2  0  0  0  0
 19  3  2  0  0  0  0
 20 15  2  0  0  0  0
 20 19  1  0  0  0  0
 22 23  1  0  0  0  0
 22 21  2  0  0  0  0
 24 31  1  0  0  0  0
 24 28  1  0  0  0  0
 25 30  1  0  0  0  0
 27 24  2  0  0  0  0
 28 25  1  0  0  0  0
 29 26  1  1  0  0  0
 29 30  1  0  0  0  0
 30 22  1  6  0  0  0
 31 29  1  0  0  0  0
M  END
>  <MODEL>
4

>  <REMARK>
 VINA RESULT:      -7.1      4.548      7.042
  Name = 
  2 active torsions:
  status: ('A' for Active; 'I' for Inactive)
    1  A    between atoms: C_5  and  C_30
    2  A    between atoms: C_10  and  N_16
                            x       y       z     vdW  Elec       q    Type
                         _______ _______ _______ _____ _____    ______ ____

>  <TORSDO>
F 2

$$$$
=
 OpenBabel11122413283D

 31 35  0  0  1  0  0  0  0  0999 V2000
  161.1480  208.2080  138.0300 C   0  0  0  0  0  0  0  0  0  0  0  0
  159.3810  211.4850  138.8170 C   0  0  2  0  0  3  0  0  0  0  0  0
  157.8990  211.1520  138.9480 C   0  0  0  0  0  0  0  0  0  0  0  0
  156.0250  209.6890  138.4170 C   0  0  0  0  0  0  0  0  0  0  0  0
  160.2830  210.2790  138.9610 C   0  0  0  0  0  0  0  0  0  0  0  0
  161.8710  207.9770  139.2020 C   0  0  0  0  0  3  0  0  0  0  0  0
  157.3910  209.9730  138.3790 C   0  0  0  0  0  3  0  0  0  0  0  0
  160.0030  212.1190  141.1820 C   0  0  2  0  0  3  0  0  0  0  0  0
  161.2080  207.3180  137.0110 F   0  0  0  0  0  0  0  0  0  0  0  0
  157.4490  213.3560  140.1530 C   0  0  0  0  0  2  0  0  0  0  0  0
  155.5450  208.5110  137.8630 O   0  0  0  0  0  1  0  0  0  0  0  0
  161.1150  211.0730  141.2360 C   0  0  0  0  0  2  0  0  0  0  0  0
  159.8240  212.6310  139.7450 C   0  0  2  0  0  3  0  0  0  0  0  0
  160.3610  209.3550  137.9100 C   0  0  0  0  0  3  0  0  0  0  0  0
  155.1410  210.5920  139.0080 C   0  0  0  0  0  3  0  0  0  0  0  0
  161.0230  210.0470  140.1430 C   0  0  0  0  0  0  0  0  0  0  0  0
  161.8160  208.9000  140.2490 C   0  0  0  0  0  3  0  0  0  0  0  0
  158.8260  213.7870  139.6560 C   0  0  0  0  0  2  0  0  0  0  0  0
  156.9890  212.0800  139.5110 C   0  0  0  0  0  0  0  0  0  0  0  0
  155.6230  211.7820  139.5560 C   0  0  0  0  0  3  0  0  0  0  0  0
  159.5490  212.1460  143.9960 O   0  0  0  0  0  0  0  0  0  0  0  0
  160.0860  213.1650  143.4820 C   0  0  0  0  0  0  0  0  0  0  0  0
  160.3350  213.2190  142.0770 N   0  0  0  0  0  2  0  0  0  0  0  0
  161.6810  213.3820  146.7670 C   0  0  0  0  0  0  0  0  0  0  0  0
  161.9780  214.4520  144.5440 C   0  0  0  0  0  2  0  0  0  0  0  0
  158.3310  214.2910  145.4800 O   0  0  0  0  0  1  0  0  0  0  0  0
  162.2220  213.3490  147.8590 O   0  0  0  0  0  0  0  0  0  0  0  0
  162.5060  213.3930  145.5160 C   0  0  0  0  0  2  0  0  0  0  0  0
  159.7090  214.4010  145.6750 C   0  0  2  0  0  3  0  0  0  0  0  0
  160.4610  214.3440  144.3330 C   0  0  2  0  0  3  0  0  0  0  0  0
  160.1890  213.3360  146.6600 C   0  0  0  0  0  2  0  0  0  0  0  0
  1  6  1  0  0  0  0
  2  3  1  1  0  0  0
  2  5  1  0  0  0  0
  2 13  1  0  0  0  0
  3 19  1  0  0  0  0
  4 15  2  0  0  0  0
  5 16  2  0  0  0  0
  6 17  2  0  0  0  0
  7  4  1  0  0  0  0
  7  3  2  0  0  0  0
  8 12  1  0  0  0  0
  8 23  1  1  0  0  0
  9  1  1  0  0  0  0
 11  4  1  0  0  0  0
 13 18  1  1  0  0  0
 13  8  1  0  0  0  0
 14  1  2  0  0  0  0
 14  5  1  0  0  0  0
 15 20  1  0  0  0  0
 16 17  1  0  0  0  0
 16 12  1  0  0  0  0
 18 10  1  0  0  0  0
 19 20  2  0  0  0  0
 19 10  1  0  0  0  0
 22 21  2  0  0  0  0
 23 22  1  0  0  0  0
 24 27  2  0  0  0  0
 25 28  1  0  0  0  0
 28 24  1  0  0  0  0
 29 26  1  6  0  0  0
 29 31  1  0  0  0  0
 30 22  1  1  0  0  0
 30 25  1  0  0  0  0
 30 29  1  0  0  0  0
 31 24  1  0  0  0  0
M  END
>  <MODEL>
5

>  <REMARK>
 VINA RESULT:      -6.3      9.483     11.988
  Name = 
  2 active torsions:
  status: ('A' for Active; 'I' for Inactive)
    1  A    between atoms: C_5  and  C_30
    2  A    between atoms: C_10  and  N_16
                            x       y       z     vdW  Elec       q    Type
                         _______ _______ _______ _____ _____    ______ ____

>  <TORSDO>
F 2

$$$$
=
 OpenBabel11122413283D

 31 35  0  0  1  0  0  0  0  0999 V2000
  160.7430  201.4900  149.0020 C   0  0  0  0  0  0  0  0  0  0  0  0
  162.2550  204.8540  149.9430 C   0  0  2  0  0  3  0  0  0  0  0  0
  161.7040  205.8650  148.9450 C   0  0  0  0  0  0  0  0  0  0  0  0
  160.7500  206.3420  146.7540 C   0  0  0  0  0  0  0  0  0  0  0  0
  161.4370  203.5820  150.0240 C   0  0  0  0  0  0  0  0  0  0  0  0
  159.8810  201.2470  150.0730 C   0  0  0  0  0  3  0  0  0  0  0  0
  161.1850  205.4280  147.7150 C   0  0  0  0  0  3  0  0  0  0  0  0
  161.1680  205.5820  152.1040 C   0  0  2  0  0  3  0  0  0  0  0  0
  160.8250  200.6020  147.9830 F   0  0  0  0  0  0  0  0  0  0  0  0
  162.3670  207.8100  150.4570 C   0  0  0  0  0  2  0  0  0  0  0  0
  160.2250  205.8890  145.5520 O   0  0  0  0  0  1  0  0  0  0  0  0
  160.5580  204.2000  152.3350 C   0  0  0  0  0  2  0  0  0  0  0  0
  162.4930  205.4560  151.3400 C   0  0  2  0  0  3  0  0  0  0  0  0
  161.5190  202.6510  148.9800 C   0  0  0  0  0  3  0  0  0  0  0  0
  160.8480  207.7110  146.9990 C   0  0  0  0  0  3  0  0  0  0  0  0
  160.5710  203.3300  151.1110 C   0  0  0  0  0  0  0  0  0  0  0  0
  159.8040  202.1600  151.1280 C   0  0  0  0  0  3  0  0  0  0  0  0
  163.2230  206.7950  151.2100 C   0  0  0  0  0  2  0  0  0  0  0  0
  161.8360  207.2580  149.1680 C   0  0  0  0  0  0  0  0  0  0  0  0
  161.3870  208.1670  148.2040 C   0  0  0  0  0  3  0  0  0  0  0  0
  160.4280  208.2620  152.7320 O   0  0  0  0  0  0  0  0  0  0  0  0
  160.9770  207.5810  153.6400 C   0  0  0  0  0  0  0  0  0  0  0  0
  161.3800  206.2340  153.3890 N   0  0  0  0  0  2  0  0  0  0  0  0
  159.0780  209.9900  155.6330 C   0  0  0  0  0  0  0  0  0  0  0  0
  160.1560  207.7840  156.0160 C   0  0  0  0  0  2  0  0  0  0  0  0
  162.4160  210.0550  154.0310 O   0  0  0  0  0  1  0  0  0  0  0  0
  158.3730  210.7910  156.2210 O   0  0  0  0  0  0  0  0  0  0  0  0
  158.8340  208.5180  155.7770 C   0  0  0  0  0  2  0  0  0  0  0  0
  161.4450  209.7010  154.9700 C   0  0  2  0  0  3  0  0  0  0  0  0
  161.2330  208.1770  154.9940 C   0  0  2  0  0  3  0  0  0  0  0  0
  160.1490  210.4660  154.7020 C   0  0  0  0  0  2  0  0  0  0  0  0
  1  6  1  0  0  0  0
  2  3  1  6  0  0  0
  2  5  1  0  0  0  0
  2 13  1  0  0  0  0
  3 19  1  0  0  0  0
  4 15  2  0  0  0  0
  4  7  1  0  0  0  0
  5 16  2  0  0  0  0
  6 17  2  0  0  0  0
  7  3  2  0  0  0  0
  8 12  1  0  0  0  0
  8 23  1  1  0  0  0
  9  1  1  0  0  0  0
 10 18  1  0  0  0  0
 11  4  1  0  0  0  0
 13 18  1  6  0  0  0
 13  8  1  0  0  0  0
 14  1  2  0  0  0  0
 14  5  1  0  0  0  0
 15 20  1  0  0  0  0
 16 17  1  0  0  0  0
 16 12  1  0  0  0  0
 19 10  1  0  0  0  0
 20 19  2  0  0  0  0
 21 22  2  0  0  0  0
 23 22  1  0  0  0  0
 24 28  1  0  0  0  0
 24 27  2  0  0  0  0
 28 25  1  0  0  0  0
 29 26  1  6  0  0  0
 29 30  1  0  0  0  0
 30 22  1  6  0  0  0
 30 25  1  0  0  0  0
 31 29  1  0  0  0  0
 31 24  1  0  0  0  0
M  END
>  <MODEL>
6

>  <REMARK>
 VINA RESULT:      -5.2      1.743      3.937
  Name = 
  2 active torsions:
  status: ('A' for Active; 'I' for Inactive)
    1  A    between atoms: C_5  and  C_30
    2  A    between atoms: C_10  and  N_16
                            x       y       z     vdW  Elec       q    Type
                         _______ _______ _______ _____ _____    ______ ____

>  <TORSDO>
F 2

$$$$
=
 OpenBabel11122413283D

 31 35  0  0  1  0  0  0  0  0999 V2000
  160.8110  208.2850  154.6960 C   0  0  0  0  0  0  0  0  0  0  0  0
  162.1330  209.1590  151.2360 C   0  0  2  0  0  3  0  0  0  0  0  0
  161.5780  208.1040  150.2860 C   0  0  0  0  0  0  0  0  0  0  0  0
  160.6930  205.8620  149.9300 C   0  0  0  0  0  0  0  0  0  0  0  0
  161.3700  209.2550  152.5390 C   0  0  0  0  0  0  0  0  0  0  0  0
  159.9180  209.3300  154.9400 C   0  0  0  0  0  3  0  0  0  0  0  0
  161.1280  206.8730  150.7890 C   0  0  0  0  0  3  0  0  0  0  0  0
  160.9290  211.2490  150.4840 C   0  0  2  0  0  3  0  0  0  0  0  0
  160.9720  207.3030  155.6140 F   0  0  0  0  0  0  0  0  0  0  0  0
  162.0930  209.5690  148.2610 C   0  0  0  0  0  2  0  0  0  0  0  0
  160.2360  204.6590  150.4480 O   0  0  0  0  0  1  0  0  0  0  0  0
  160.3720  211.5060  151.8820 C   0  0  0  0  0  2  0  0  0  0  0  0
  162.2890  210.5420  150.5750 C   0  0  2  0  0  3  0  0  0  0  0  0
  161.5340  208.2500  153.5020 C   0  0  0  0  0  3  0  0  0  0  0  0
  160.7200  206.0610  148.5500 C   0  0  0  0  0  3  0  0  0  0  0  0
  160.4730  210.3170  152.7930 C   0  0  0  0  0  0  0  0  0  0  0  0
  159.7590  210.3470  153.9960 C   0  0  0  0  0  3  0  0  0  0  0  0
  162.9620  210.3900  149.2090 C   0  0  0  0  0  2  0  0  0  0  0  0
  161.6390  208.2810  148.8810 C   0  0  0  0  0  0  0  0  0  0  0  0
  161.1900  207.2680  148.0280 C   0  0  0  0  0  3  0  0  0  0  0  0
  159.6200  211.9170  148.0410 O   0  0  0  0  0  0  0  0  0  0  0  0
  160.3690  212.7900  148.5580 C   0  0  0  0  0  0  0  0  0  0  0  0
  161.0610  212.5160  149.7780 N   0  0  0  0  0  2  0  0  0  0  0  0
  160.9170  213.7110  145.0610 C   0  0  0  0  0  0  0  0  0  0  0  0
  159.4310  214.4520  146.9100 C   0  0  0  0  0  2  0  0  0  0  0  0
  162.9640  213.9840  148.1340 O   0  0  0  0  0  1  0  0  0  0  0  0
  161.0890  213.9170  143.8720 O   0  0  0  0  0  0  0  0  0  0  0  0
  159.5300  213.6310  145.6210 C   0  0  0  0  0  2  0  0  0  0  0  0
  161.9410  214.2950  147.2380 C   0  0  2  0  0  3  0  0  0  0  0  0
  160.5610  214.1240  147.8970 C   0  0  2  0  0  3  0  0  0  0  0  0
  162.0860  213.4640  145.9630 C   0  0  0  0  0  2  0  0  0  0  0  0
  1  6  1  0  0  0  0
  1  9  1  0  0  0  0
  2  3  1  6  0  0  0
  2  5  1  0  0  0  0
  3  7  1  0  0  0  0
  4 11  1  0  0  0  0
  4  7  2  0  0  0  0
  5 16  2  0  0  0  0
  5 14  1  0  0  0  0
  8 23  1  1  0  0  0
  8 13  1  0  0  0  0
  8 12  1  0  0  0  0
 10 19  1  0  0  0  0
 10 18  1  0  0  0  0
 12 16  1  0  0  0  0
 13 18  1  6  0  0  0
 13  2  1  0  0  0  0
 14  1  2  0  0  0  0
 15  4  1  0  0  0  0
 16 17  1  0  0  0  0
 17  6  2  0  0  0  0
 19  3  2  0  0  0  0
 20 15  2  0  0  0  0
 20 19  1  0  0  0  0
 21 22  2  0  0  0  0
 22 23  1  0  0  0  0
 24 28  1  0  0  0  0
 24 31  1  0  0  0  0
 25 30  1  0  0  0  0
 27 24  2  0  0  0  0
 28 25  1  0  0  0  0
 29 30  1  0  0  0  0
 29 26  1  1  0  0  0
 30 22  1  6  0  0  0
 31 29  1  0  0  0  0
M  END
>  <MODEL>
7

>  <REMARK>
 VINA RESULT:      -5.2      4.953      7.613
  Name = 
  2 active torsions:
  status: ('A' for Active; 'I' for Inactive)
    1  A    between atoms: C_5  and  C_30
    2  A    between atoms: C_10  and  N_16
                            x       y       z     vdW  Elec       q    Type
                         _______ _______ _______ _____ _____    ______ ____

>  <TORSDO>
F 2

$$$$
=
 OpenBabel11122413283D

 31 35  0  0  1  0  0  0  0  0999 V2000
  161.8890  206.5360  147.2370 C   0  0  0  0  0  0  0  0  0  0  0  0
  162.3360  209.2870  149.8280 C   0  0  2  0  0  3  0  0  0  0  0  0
  161.6770  210.5340  149.2490 C   0  0  0  0  0  0  0  0  0  0  0  0
  160.9280  211.7970  147.3040 C   0  0  0  0  0  0  0  0  0  0  0  0
  161.8740  208.0030  149.1740 C   0  0  0  0  0  0  0  0  0  0  0  0
  160.9870  205.6800  147.8720 C   0  0  0  0  0  3  0  0  0  0  0  0
  161.4550  210.6320  147.8650 C   0  0  0  0  0  3  0  0  0  0  0  0
  160.8220  208.7320  151.7730 C   0  0  2  0  0  3  0  0  0  0  0  0
  162.3320  206.2490  145.9900 F   0  0  0  0  0  0  0  0  0  0  0  0
  161.6060  211.6390  151.5470 C   0  0  0  0  0  2  0  0  0  0  0  0
  160.7020  211.8670  145.9370 O   0  0  0  0  0  1  0  0  0  0  0  0
  160.5680  207.3190  151.2530 C   0  0  0  0  0  2  0  0  0  0  0  0
  162.2230  209.2060  151.3620 C   0  0  2  0  0  3  0  0  0  0  0  0
  162.3310  207.6900  147.8870 C   0  0  0  0  0  3  0  0  0  0  0  0
  160.6330  212.8900  148.1170 C   0  0  0  0  0  3  0  0  0  0  0  0
  160.9670  207.1300  149.8180 C   0  0  0  0  0  0  0  0  0  0  0  0
  160.5370  205.9730  149.1620 C   0  0  0  0  0  3  0  0  0  0  0  0
  162.5900  210.5570  151.9810 C   0  0  0  0  0  2  0  0  0  0  0  0
  161.4110  211.6640  150.0600 C   0  0  0  0  0  0  0  0  0  0  0  0
  160.8720  212.8230  149.4910 C   0  0  0  0  0  3  0  0  0  0  0  0
  159.0500  210.4070  153.2510 O   0  0  0  0  0  0  0  0  0  0  0  0
  159.7720  209.6040  153.9020 C   0  0  0  0  0  0  0  0  0  0  0  0
  160.6870  208.7420  153.2240 N   0  0  0  0  0  2  0  0  0  0  0  0
  162.3560  209.8490  156.4790 C   0  0  0  0  0  0  0  0  0  0  0  0
  160.1290  210.8670  156.0550 C   0  0  0  0  0  2  0  0  0  0  0  0
  160.0520  207.1550  155.4070 O   0  0  0  0  0  1  0  0  0  0  0  0
  163.2860  209.9470  157.2600 O   0  0  0  0  0  0  0  0  0  0  0  0
  161.6450  211.0740  155.9920 C   0  0  0  0  0  2  0  0  0  0  0  0
  160.4420  208.3510  156.0140 C   0  0  2  0  0  3  0  0  0  0  0  0
  159.6940  209.5480  155.4000 C   0  0  2  0  0  3  0  0  0  0  0  0
  161.9600  208.5100  155.9390 C   0  0  0  0  0  2  0  0  0  0  0  0
  1  6  2  0  0  0  0
  1 14  1  0  0  0  0
  2  5  1  6  0  0  0
  2 13  1  0  0  0  0
  3  2  1  0  0  0  0
  3 19  1  0  0  0  0
  4  7  1  0  0  0  0
  4 15  2  0  0  0  0
  5 16  1  0  0  0  0
  6 17  1  0  0  0  0
  7  3  2  0  0  0  0
  8 23  1  1  0  0  0
  9  1  1  0  0  0  0
 10 18  1  0  0  0  0
 11  4  1  0  0  0  0
 12  8  1  0  0  0  0
 13  8  1  0  0  0  0
 13 18  1  1  0  0  0
 14  5  2  0  0  0  0
 15 20  1  0  0  0  0
 16 12  1  0  0  0  0
 17 16  2  0  0  0  0
 19 10  1  0  0  0  0
 20 19  2  0  0  0  0
 21 22  2  0  0  0  0
 23 22  1  0  0  0  0
 24 27  2  0  0  0  0
 28 25  1  0  0  0  0
 28 24  1  0  0  0  0
 29 26  1  6  0  0  0
 30 22  1  6  0  0  0
 30 29  1  0  0  0  0
 30 25  1  0  0  0  0
 31 29  1  0  0  0  0
 31 24  1  0  0  0  0
M  END
>  <MODEL>
8

>  <REMARK>
 VINA RESULT:      -5.0      3.097      5.737
  Name = 
  2 active torsions:
  status: ('A' for Active; 'I' for Inactive)
    1  A    between atoms: C_5  and  C_30
    2  A    between atoms: C_10  and  N_16
                            x       y       z     vdW  Elec       q    Type
                         _______ _______ _______ _____ _____    ______ ____

>  <TORSDO>
F 2

$$$$
=
 OpenBabel11122413283D

 31 35  0  0  1  0  0  0  0  0999 V2000
  161.6920  202.8310  151.7730 C   0  0  0  0  0  0  0  0  0  0  0  0
  162.3460  206.2810  150.3060 C   0  0  2  0  0  3  0  0  0  0  0  0
  161.7610  206.2670  148.8980 C   0  0  0  0  0  0  0  0  0  0  0  0
  161.0700  205.0090  146.9290 C   0  0  0  0  0  0  0  0  0  0  0  0
  161.7950  205.1890  151.1970 C   0  0  0  0  0  0  0  0  0  0  0  0
  160.7450  203.1080  152.7610 C   0  0  0  0  0  3  0  0  0  0  0  0
  161.5290  205.0440  148.2470 C   0  0  0  0  0  3  0  0  0  0  0  0
  160.8250  207.9020  151.5050 C   0  0  2  0  0  3  0  0  0  0  0  0
  162.1000  201.5570  151.5640 F   0  0  0  0  0  0  0  0  0  0  0  0
  161.7890  208.8160  148.7940 C   0  0  0  0  0  2  0  0  0  0  0  0
  160.8320  203.7910  146.3090 O   0  0  0  0  0  1  0  0  0  0  0  0
  160.4740  206.8750  152.5800 C   0  0  0  0  0  2  0  0  0  0  0  0
  162.2480  207.6610  150.9830 C   0  0  2  0  0  3  0  0  0  0  0  0
  162.2160  203.8680  150.9980 C   0  0  0  0  0  3  0  0  0  0  0  0
  160.8560  206.1990  146.2340 C   0  0  0  0  0  3  0  0  0  0  0  0
  160.8430  205.4690  152.2040 C   0  0  0  0  0  0  0  0  0  0  0  0
  160.3310  204.4240  152.9810 C   0  0  0  0  0  3  0  0  0  0  0  0
  162.7070  208.7500  150.0110 C   0  0  0  0  0  2  0  0  0  0  0  0
  161.5780  207.4680  148.1700 C   0  0  0  0  0  0  0  0  0  0  0  0
  161.1070  207.4240  146.8540 C   0  0  0  0  0  3  0  0  0  0  0  0
  161.5790  208.6530  154.1500 O   0  0  0  0  0  0  0  0  0  0  0  0
  161.1130  209.5530  153.4000 C   0  0  0  0  0  0  0  0  0  0  0  0
  160.7080  209.2420  152.0650 N   0  0  0  0  0  2  0  0  0  0  0  0
  158.1900  211.4090  154.5790 C   0  0  0  0  0  0  0  0  0  0  0  0
  160.5140  211.0150  155.3650 C   0  0  0  0  0  2  0  0  0  0  0  0
  160.4560  211.7740  151.6740 O   0  0  0  0  0  1  0  0  0  0  0  0
  157.1600  211.9390  154.9590 O   0  0  0  0  0  0  0  0  0  0  0  0
  159.0410  210.6350  155.5390 C   0  0  0  0  0  2  0  0  0  0  0  0
  160.0550  211.8350  153.0090 C   0  0  2  0  0  3  0  0  0  0  0  0
  160.9600  210.9610  153.8970 C   0  0  2  0  0  3  0  0  0  0  0  0
  158.5780  211.4620  153.1340 C   0  0  0  0  0  2  0  0  0  0  0  0
  1  6  1  0  0  0  0
  2  3  1  6  0  0  0
  2 13  1  0  0  0  0
  2  5  1  0  0  0  0
  4  7  2  0  0  0  0
  5 16  2  0  0  0  0
  6 17  2  0  0  0  0
  7  3  1  0  0  0  0
  8 23  1  1  0  0  0
  8 12  1  0  0  0  0
  9  1  1  0  0  0  0
 10 18  1  0  0  0  0
 11  4  1  0  0  0  0
 13 18  1  6  0  0  0
 13  8  1  0  0  0  0
 14  5  1  0  0  0  0
 14  1  2  0  0  0  0
 15 20  2  0  0  0  0
 15  4  1  0  0  0  0
 16 12  1  0  0  0  0
 16 17  1  0  0  0  0
 19 10  1  0  0  0  0
 19  3  2  0  0  0  0
 20 19  1  0  0  0  0
 22 21  2  0  0  0  0
 23 22  1  0  0  0  0
 24 27  2  0  0  0  0
 24 28  1  0  0  0  0
 25 28  1  0  0  0  0
 29 26  1  6  0  0  0
 29 31  1  0  0  0  0
 29 30  1  0  0  0  0
 30 22  1  6  0  0  0
 30 25  1  0  0  0  0
 31 24  1  0  0  0  0
M  END
>  <MODEL>
9

>  <REMARK>
 VINA RESULT:      -5.0      2.329      4.357
  Name = 
  2 active torsions:
  status: ('A' for Active; 'I' for Inactive)
    1  A    between atoms: C_5  and  C_30
    2  A    between atoms: C_10  and  N_16
                            x       y       z     vdW  Elec       q    Type
                         _______ _______ _______ _____ _____    ______ ____

>  <TORSDO>
F 2

$$$$
