=
 OpenBabel11122413183D

 31 35  0  0  1  0  0  0  0  0999 V2000
  161.1110  201.7290  150.3380 C   0  0  0  0  0  0  0  0  0  0  0  0
  160.8170  205.4490  149.7480 C   0  0  1  0  0  3  0  0  0  0  0  0
  161.2220  205.5690  148.2900 C   0  0  0  0  0  0  0  0  0  0  0  0
  160.4840  206.6810  154.8640 O   0  0  0  0  0  0  0  0  0  0  0  0
  160.7990  207.7240  154.2280 C   0  0  0  0  0  0  0  0  0  0  0  0
  161.3870  204.6890  146.0290 C   0  0  0  0  0  0  0  0  0  0  0  0
  161.0200  204.1050  150.4200 C   0  0  0  0  0  0  0  0  0  0  0  0
  161.1490  201.6570  151.7330 C   0  0  0  0  0  3  0  0  0  0  0  0
  161.0510  204.5190  147.3750 C   0  0  0  0  0  3  0  0  0  0  0  0
  161.1400  206.4560  152.0330 C   0  0  0  0  0  0  0  0  0  0  0  0
  161.1340  200.5920  149.6020 F   0  0  0  0  0  0  0  0  0  0  0  0
  161.7720  207.9210  148.7250 N   0  0  0  0  0  2  0  0  0  0  0  0
  161.1930  203.3610  144.9060 Cl  0  0  0  0  0  0  0  0  0  0  0  0
  160.9930  205.2840  152.5850 N   0  0  0  0  0  0  0  0  0  0  0  0
  161.5130  206.5480  150.5750 C   0  0  2  0  0  3  0  0  0  0  0  0
  161.1130  207.6480  152.8310 N   0  0  0  0  0  2  0  0  0  0  0  0
  161.0320  202.9370  149.7190 N   0  0  0  0  0  0  0  0  0  0  0  0
  161.8760  205.9180  145.5790 C   0  0  0  0  0  3  0  0  0  0  0  0
  161.0440  204.0680  151.8260 C   0  0  0  0  0  0  0  0  0  0  0  0
  161.1100  202.8360  152.4780 C   0  0  0  0  0  3  0  0  0  0  0  0
  161.2030  207.8600  150.0120 N   0  0  0  0  0  2  0  0  0  0  0  0
  161.6650  206.8200  147.8150 C   0  0  0  0  0  0  0  0  0  0  0  0
  162.0120  206.9850  146.4710 C   0  0  0  0  0  3  0  0  0  0  0  0
  160.8340  211.5180  156.1830 C   0  0  0  0  0  0  0  0  0  0  0  0
  160.1350  210.1160  154.4010 C   0  0  0  0  0  3  0  0  0  0  0  0
  162.2510  208.2090  156.7130 F   0  0  0  0  0  0  0  0  0  0  0  0
  160.8240  212.8530  156.8360 C   0  0  0  0  0  1  0  0  0  0  0  0
  160.1480  211.3230  155.0260 N   0  0  0  0  0  0  0  0  0  0  0  0
  161.5500  209.2160  156.1360 C   0  0  0  0  0  0  0  0  0  0  0  0
  160.8350  209.0250  154.9360 C   0  0  0  0  0  0  0  0  0  0  0  0
  161.5460  210.4650  156.7570 C   0  0  0  0  0  3  0  0  0  0  0  0
  1  8  1  0  0  0  0
  2  3  1  6  0  0  0
  2  7  1  0  0  0  0
  2 15  1  0  0  0  0
  5  4  2  0  0  0  0
  5 30  1  0  0  0  0
  6  9  1  0  0  0  0
  7 19  2  0  0  0  0
  8 20  2  0  0  0  0
  9  3  2  0  0  0  0
 10 14  2  0  0  0  0
 10 16  1  0  0  0  0
 11  1  1  0  0  0  0
 12 21  1  0  0  0  0
 13  6  1  0  0  0  0
 15 21  1  6  0  0  0
 15 10  1  0  0  0  0
 16  5  1  0  0  0  0
 17  1  2  0  0  0  0
 17  7  1  0  0  0  0
 18  6  2  0  0  0  0
 18 23  1  0  0  0  0
 19 20  1  0  0  0  0
 19 14  1  0  0  0  0
 22  3  1  0  0  0  0
 22 12  1  0  0  0  0
 23 22  2  0  0  0  0
 24 31  1  0  0  0  0
 24 27  1  0  0  0  0
 25 30  2  0  0  0  0
 25 28  1  0  0  0  0
 28 24  2  0  0  0  0
 29 26  1  0  0  0  0
 29 31  2  0  0  0  0
 30 29  1  0  0  0  0
M  END
>  <MODEL>
1

>  <REMARK>
 VINA RESULT:      -9.4      0.000      0.000
  Name = 
  1 active torsions:
  status: ('A' for Active; 'I' for Inactive)
    1  A    between atoms: C_5  and  C_30
                            x       y       z     vdW  Elec       q    Type
                         _______ _______ _______ _____ _____    ______ ____

>  <TORSDO>
F 1

$$$$
=
 OpenBabel11122413183D

 31 35  0  0  1  0  0  0  0  0999 V2000
  161.2870  205.6680  153.4960 C   0  0  0  0  0  0  0  0  0  0  0  0
  160.8620  205.9710  149.7550 C   0  0  1  0  0  3  0  0  0  0  0  0
  161.0060  204.5280  149.3040 C   0  0  0  0  0  0  0  0  0  0  0  0
  161.4150  211.2140  149.6720 O   0  0  0  0  0  0  0  0  0  0  0  0
  161.6050  210.7800  148.5020 C   0  0  0  0  0  0  0  0  0  0  0  0
  160.7810  202.1340  149.6660 C   0  0  0  0  0  0  0  0  0  0  0  0
  161.1910  206.2860  151.2010 C   0  0  0  0  0  0  0  0  0  0  0  0
  161.5680  206.9860  153.8650 C   0  0  0  0  0  3  0  0  0  0  0  0
  160.6860  203.4460  150.1390 C   0  0  0  0  0  3  0  0  0  0  0  0
  161.5700  208.3350  149.2500 C   0  0  0  0  0  0  0  0  0  0  0  0
  161.1920  204.7060  154.4450 F   0  0  0  0  0  0  0  0  0  0  0  0
  161.6020  205.3730  147.0780 N   0  0  0  0  0  2  0  0  0  0  0  0
  160.4060  200.7950  150.7290 Cl  0  0  0  0  0  0  0  0  0  0  0  0
  161.5320  208.6300  150.5190 N   0  0  0  0  0  0  0  0  0  0  0  0
  161.6820  206.8910  148.8280 C   0  0  2  0  0  3  0  0  0  0  0  0
  161.6720  209.3680  148.2610 N   0  0  0  0  0  2  0  0  0  0  0  0
  161.0910  205.3530  152.1880 N   0  0  0  0  0  0  0  0  0  0  0  0
  161.1730  201.8910  148.3470 C   0  0  0  0  0  3  0  0  0  0  0  0
  161.4610  207.6250  151.5390 C   0  0  0  0  0  0  0  0  0  0  0  0
  161.6500  207.9680  152.8780 C   0  0  0  0  0  3  0  0  0  0  0  0
  161.2670  206.6920  147.4420 N   0  0  0  0  0  2  0  0  0  0  0  0
  161.3480  204.2740  147.9600 C   0  0  0  0  0  0  0  0  0  0  0  0
  161.4540  202.9600  147.4930 C   0  0  0  0  0  3  0  0  0  0  0  0
  161.9250  213.5140  145.2410 C   0  0  0  0  0  0  0  0  0  0  0  0
  160.7360  211.8350  146.4230 C   0  0  0  0  0  3  0  0  0  0  0  0
  163.9060  212.5380  148.1330 F   0  0  0  0  0  0  0  0  0  0  0  0
  162.0040  214.4530  144.0920 C   0  0  0  0  0  1  0  0  0  0  0  0
  160.8420  212.7070  145.3860 N   0  0  0  0  0  0  0  0  0  0  0  0
  162.8830  212.5730  147.2440 C   0  0  0  0  0  0  0  0  0  0  0  0
  161.7530  211.7410  147.3850 C   0  0  0  0  0  0  0  0  0  0  0  0
  162.9640  213.4590  146.1690 C   0  0  0  0  0  3  0  0  0  0  0  0
  1  8  1  0  0  0  0
  1 11  1  0  0  0  0
  2  3  1  6  0  0  0
  2  7  1  0  0  0  0
  3  9  1  0  0  0  0
  5  4  2  0  0  0  0
  6  9  2  0  0  0  0
  6 13  1  0  0  0  0
  7 19  2  0  0  0  0
  7 17  1  0  0  0  0
 10 14  2  0  0  0  0
 12 21  1  0  0  0  0
 12 22  1  0  0  0  0
 14 19  1  0  0  0  0
 15 21  1  6  0  0  0
 15 10  1  0  0  0  0
 15  2  1  0  0  0  0
 16  5  1  0  0  0  0
 16 10  1  0  0  0  0
 17  1  2  0  0  0  0
 18  6  1  0  0  0  0
 19 20  1  0  0  0  0
 20  8  2  0  0  0  0
 22  3  2  0  0  0  0
 23 22  1  0  0  0  0
 23 18  2  0  0  0  0
 24 28  2  0  0  0  0
 24 31  1  0  0  0  0
 25 30  2  0  0  0  0
 27 24  1  0  0  0  0
 28 25  1  0  0  0  0
 29 30  1  0  0  0  0
 29 26  1  0  0  0  0
 30  5  1  0  0  0  0
 31 29  2  0  0  0  0
M  END
>  <MODEL>
2

>  <REMARK>
 VINA RESULT:      -9.1      4.112      6.399
  Name = 
  1 active torsions:
  status: ('A' for Active; 'I' for Inactive)
    1  A    between atoms: C_5  and  C_30
                            x       y       z     vdW  Elec       q    Type
                         _______ _______ _______ _____ _____    ______ ____

>  <TORSDO>
F 1

$$$$
=
 OpenBabel11122413183D

 31 35  0  0  1  0  0  0  0  0999 V2000
  160.9900  205.3590  145.6930 C   0  0  0  0  0  0  0  0  0  0  0  0
  161.5090  204.4750  149.3290 C   0  0  1  0  0  3  0  0  0  0  0  0
  161.2350  202.9810  149.3320 C   0  0  0  0  0  0  0  0  0  0  0  0
  161.4650  209.4730  151.0090 O   0  0  0  0  0  0  0  0  0  0  0  0
  161.2550  208.7220  152.0020 C   0  0  0  0  0  0  0  0  0  0  0  0
  161.2220  200.8000  148.2570 C   0  0  0  0  0  0  0  0  0  0  0  0
  161.1870  205.2410  148.0610 C   0  0  0  0  0  0  0  0  0  0  0  0
  160.8310  206.7460  145.7500 C   0  0  0  0  0  3  0  0  0  0  0  0
  161.4340  202.1800  148.1970 C   0  0  0  0  0  3  0  0  0  0  0  0
  161.0420  206.6260  150.5530 C   0  0  0  0  0  0  0  0  0  0  0  0
  160.9760  204.7260  144.4960 F   0  0  0  0  0  0  0  0  0  0  0  0
  160.7630  203.1580  151.7340 N   0  0  0  0  0  2  0  0  0  0  0  0
  161.4470  199.8200  146.8240 Cl  0  0  0  0  0  0  0  0  0  0  0  0
  161.0860  207.2880  149.4310 N   0  0  0  0  0  0  0  0  0  0  0  0
  160.7980  205.1370  150.5260 C   0  0  2  0  0  3  0  0  0  0  0  0
  161.0570  207.3150  151.8100 N   0  0  0  0  0  2  0  0  0  0  0  0
  161.1790  204.6460  146.8360 N   0  0  0  0  0  0  0  0  0  0  0  0
  160.8310  200.2030  149.4580 C   0  0  0  0  0  3  0  0  0  0  0  0
  161.0410  206.6370  148.1530 C   0  0  0  0  0  0  0  0  0  0  0  0
  160.8630  207.3860  146.9900 C   0  0  0  0  0  3  0  0  0  0  0  0
  161.2170  204.4920  151.7680 N   0  0  0  0  0  2  0  0  0  0  0  0
  160.8940  202.3620  150.5510 C   0  0  0  0  0  0  0  0  0  0  0  0
  160.6700  200.9830  150.6060 C   0  0  0  0  0  3  0  0  0  0  0  0
  161.1570  210.5190  155.8710 C   0  0  0  0  0  0  0  0  0  0  0  0
  161.2070  210.7030  153.5070 C   0  0  0  0  0  3  0  0  0  0  0  0
  161.2150  207.1620  154.4680 F   0  0  0  0  0  0  0  0  0  0  0  0
  161.1230  211.1790  157.2030 C   0  0  0  0  0  1  0  0  0  0  0  0
  161.1760  211.2720  154.7400 N   0  0  0  0  0  0  0  0  0  0  0  0
  161.2020  208.5170  154.5280 C   0  0  0  0  0  0  0  0  0  0  0  0
  161.2210  209.3080  153.3610 C   0  0  0  0  0  0  0  0  0  0  0  0
  161.1700  209.1270  155.7820 C   0  0  0  0  0  3  0  0  0  0  0  0
  1  8  2  0  0  0  0
  1 17  1  0  0  0  0
  2  7  1  6  0  0  0
  2  3  1  0  0  0  0
  2 15  1  0  0  0  0
  3 22  1  0  0  0  0
  4  5  2  0  0  0  0
  5 30  1  0  0  0  0
  6 18  2  0  0  0  0
  7 19  1  0  0  0  0
  8 20  1  0  0  0  0
  9  6  1  0  0  0  0
  9  3  2  0  0  0  0
 10 16  1  0  0  0  0
 11  1  1  0  0  0  0
 12 21  1  0  0  0  0
 13  6  1  0  0  0  0
 14 10  2  0  0  0  0
 15 10  1  1  0  0  0
 15 21  1  0  0  0  0
 16  5  1  0  0  0  0
 17  7  2  0  0  0  0
 18 23  1  0  0  0  0
 19 14  1  0  0  0  0
 20 19  2  0  0  0  0
 22 23  2  0  0  0  0
 22 12  1  0  0  0  0
 24 27  1  0  0  0  0
 25 28  1  0  0  0  0
 26 29  1  0  0  0  0
 28 24  2  0  0  0  0
 29 31  2  0  0  0  0
 30 25  2  0  0  0  0
 30 29  1  0  0  0  0
 31 24  1  0  0  0  0
M  END
>  <MODEL>
3

>  <REMARK>
 VINA RESULT:      -8.7      2.180      4.147
  Name = 
  1 active torsions:
  status: ('A' for Active; 'I' for Inactive)
    1  A    between atoms: C_5  and  C_30
                            x       y       z     vdW  Elec       q    Type
                         _______ _______ _______ _____ _____    ______ ____

>  <TORSDO>
F 1

$$$$
=
 OpenBabel11122413183D

 31 35  0  0  1  0  0  0  0  0999 V2000
  161.8650  210.7060  150.0810 C   0  0  0  0  0  0  0  0  0  0  0  0
  160.8620  207.2890  151.3390 C   0  0  1  0  0  3  0  0  0  0  0  0
  160.9750  207.4610  152.8440 C   0  0  0  0  0  0  0  0  0  0  0  0
  161.2470  204.9540  146.6270 O   0  0  0  0  0  0  0  0  0  0  0  0
  161.2680  204.0560  147.5140 C   0  0  0  0  0  0  0  0  0  0  0  0
  160.8770  208.8140  154.8610 C   0  0  0  0  0  0  0  0  0  0  0  0
  161.4000  208.4050  150.4660 C   0  0  0  0  0  0  0  0  0  0  0  0
  162.1620  210.4480  148.7400 C   0  0  0  0  0  3  0  0  0  0  0  0
  160.8190  208.7080  153.4690 C   0  0  0  0  0  3  0  0  0  0  0  0
  161.4170  205.7470  149.4260 C   0  0  0  0  0  0  0  0  0  0  0  0
  161.9440  211.9710  150.5590 F   0  0  0  0  0  0  0  0  0  0  0  0
  161.1980  205.0230  153.0210 N   0  0  0  0  0  2  0  0  0  0  0  0
  160.7080  210.3810  155.6240 Cl  0  0  0  0  0  0  0  0  0  0  0  0
  161.5650  206.7680  148.6300 N   0  0  0  0  0  0  0  0  0  0  0  0
  161.5040  205.9520  150.9180 C   0  0  2  0  0  3  0  0  0  0  0  0
  161.3360  204.4150  148.9000 N   0  0  0  0  0  2  0  0  0  0  0  0
  161.4790  209.6930  150.9020 N   0  0  0  0  0  0  0  0  0  0  0  0
  161.0690  207.6730  155.6440 C   0  0  0  0  0  3  0  0  0  0  0  0
  161.6800  208.1120  149.1190 C   0  0  0  0  0  0  0  0  0  0  0  0
  162.0630  209.1420  148.2590 C   0  0  0  0  0  3  0  0  0  0  0  0
  160.8860  204.8530  151.6580 N   0  0  0  0  0  2  0  0  0  0  0  0
  161.1140  206.3100  153.6440 C   0  0  0  0  0  0  0  0  0  0  0  0
  161.1840  206.4200  155.0370 C   0  0  0  0  0  3  0  0  0  0  0  0
  161.0940  199.9880  146.2340 C   0  0  0  0  0  0  0  0  0  0  0  0
  160.9740  202.3110  145.7640 C   0  0  0  0  0  3  0  0  0  0  0  0
  161.6340  201.8070  149.3380 F   0  0  0  0  0  0  0  0  0  0  0  0
  161.0260  198.5840  145.7530 C   0  0  0  0  0  1  0  0  0  0  0  0
  160.9180  201.0150  145.3600 N   0  0  0  0  0  0  0  0  0  0  0  0
  161.3980  201.5750  148.0240 C   0  0  0  0  0  0  0  0  0  0  0  0
  161.2150  202.6320  147.1080 C   0  0  0  0  0  0  0  0  0  0  0  0
  161.3360  200.2540  147.5810 C   0  0  0  0  0  3  0  0  0  0  0  0
  1 11  1  0  0  0  0
  1 17  1  0  0  0  0
  2  7  1  6  0  0  0
  2  3  1  0  0  0  0
  3  9  2  0  0  0  0
  3 22  1  0  0  0  0
  4  5  2  0  0  0  0
  5 16  1  0  0  0  0
  6 13  1  0  0  0  0
  6 18  2  0  0  0  0
  7 17  2  0  0  0  0
  8  1  2  0  0  0  0
  9  6  1  0  0  0  0
 12 22  1  0  0  0  0
 14 19  1  0  0  0  0
 14 10  2  0  0  0  0
 15 10  1  6  0  0  0
 15  2  1  0  0  0  0
 15 21  1  0  0  0  0
 16 10  1  0  0  0  0
 19  7  1  0  0  0  0
 20  8  1  0  0  0  0
 20 19  2  0  0  0  0
 21 12  1  0  0  0  0
 22 23  2  0  0  0  0
 23 18  1  0  0  0  0
 24 31  1  0  0  0  0
 25 30  2  0  0  0  0
 27 24  1  0  0  0  0
 28 25  1  0  0  0  0
 28 24  2  0  0  0  0
 29 26  1  0  0  0  0
 30  5  1  0  0  0  0
 30 29  1  0  0  0  0
 31 29  2  0  0  0  0
M  END
>  <MODEL>
4

>  <REMARK>
 VINA RESULT:      -8.3      3.833      9.217
  Name = 
  1 active torsions:
  status: ('A' for Active; 'I' for Inactive)
    1  A    between atoms: C_5  and  C_30
                            x       y       z     vdW  Elec       q    Type
                         _______ _______ _______ _____ _____    ______ ____

>  <TORSDO>
F 1

$$$$
