=
 OpenBabel11122412583D

 32 37  0  0  1  0  0  0  0  0999 V2000
  162.7380  213.4550  144.9920 C   0  0  0  0  0  2  0  0  0  0  0  0
  159.9610  214.2190  140.3450 C   0  0  1  0  0  3  0  0  0  0  0  0
  155.1180  213.9650  140.1810 C   0  0  0  0  0  3  0  0  0  0  0  0
  155.1670  212.8250  139.3730 C   0  0  0  0  0  3  0  0  0  0  0  0
  161.3350  212.4540  138.9570 C   0  0  0  0  0  0  0  0  0  0  0  0
  161.3900  211.0540  138.5320 C   0  0  0  0  0  0  0  0  0  0  0  0
  161.4090  213.4630  142.2060 N   0  0  2  0  0  0  0  0  0  0  0  0
  158.9670  213.3790  142.5190 C   0  0  0  0  0  2  0  0  0  0  0  0
  160.6130  209.0730  137.9390 N   0  0  0  0  0  0  0  0  0  0  0  0
  160.4250  212.6030  144.3070 C   0  0  0  0  0  2  0  0  0  0  0  0
  156.2810  214.4410  140.7930 C   0  0  0  0  0  3  0  0  0  0  0  0
  158.7390  214.2570  141.2890 C   0  0  2  0  0  3  0  0  0  0  0  0
  157.4990  213.7840  140.5880 C   0  0  0  0  0  0  0  0  0  0  0  0
  158.8930  211.9610  139.6010 C   0  0  1  0  0  3  0  0  0  0  0  0
  161.9560  209.0500  137.8130 C   0  0  0  0  0  3  0  0  0  0  0  0
  163.0670  212.8650  143.7670 O   0  0  0  0  0  0  0  0  0  0  0  0
  160.3170  213.6370  143.1850 C   0  0  1  0  0  3  0  0  0  0  0  0
  162.4870  210.2870  138.1770 C   0  0  0  0  0  3  0  0  0  0  0  0
  162.6880  213.8200  142.8190 C   0  0  0  0  0  2  0  0  0  0  0  0
  161.3380  213.0470  145.4550 C   0  0  1  0  0  3  0  0  0  0  0  0
  156.3800  212.1610  139.1730 C   0  0  0  0  0  3  0  0  0  0  0  0
  157.5550  212.6380  139.7750 C   0  0  0  0  0  0  0  0  0  0  0  0
  158.8810  210.8210  138.5640 C   0  0  0  0  0  2  0  0  0  0  0  0
  161.2450  214.4530  141.1430 C   0  0  0  0  0  2  0  0  0  0  0  0
  162.3660  213.1750  138.8940 O   0  0  0  0  0  0  0  0  0  0  0  0
  159.7150  207.9770  137.6180 C   0  0  0  0  0  1  0  0  0  0  0  0
  159.9810  213.0380  139.3220 C   0  0  1  0  0  3  0  0  0  0  0  0
  160.2690  210.2880  138.3870 C   0  0  0  0  0  0  0  0  0  0  0  0
  161.4490  211.9760  146.4340 N   0  0  0  0  0  2  0  0  0  0  0  0
  161.8880  212.2000  147.7760 C   0  0  0  0  0  0  0  0  0  0  0  0
  162.2240  213.3520  148.1590 O   0  0  0  0  0  0  0  0  0  0  0  0
  161.9530  211.0600  148.7260 C   0  0  0  0  0  1  0  0  0  0  0  0
  1 20  1  0  0  0  0
  2 24  1  1  0  0  0
  2 12  1  0  0  0  0
  3 11  1  0  0  0  0
  4  3  2  0  0  0  0
  6  5  1  0  0  0  0
  7 24  1  6  0  0  0
  7 19  1  0  0  0  0
  7 17  1  0  0  0  0
  9 28  1  0  0  0  0
 10 20  1  0  0  0  0
 12  8  1  1  0  0  0
 13 11  2  0  0  0  0
 13 12  1  0  0  0  0
 14 23  1  6  0  0  0
 14 22  1  0  0  0  0
 15  9  1  0  0  0  0
 15 18  2  0  0  0  0
 16  1  1  0  0  0  0
 17  8  1  6  0  0  0
 17 10  1  0  0  0  0
 18  6  1  0  0  0  0
 19 16  1  0  0  0  0
 20 29  1  1  0  0  0
 21  4  1  0  0  0  0
 21 22  2  0  0  0  0
 22 13  1  0  0  0  0
 25  5  2  0  0  0  0
 26  9  1  0  0  0  0
 27  5  1  1  0  0  0
 27 14  1  0  0  0  0
 27  2  1  0  0  0  0
 28  6  2  0  0  0  0
 28 23  1  0  0  0  0
 29 30  1  0  0  0  0
 30 31  2  0  0  0  0
 30 32  1  0  0  0  0
M  END
>  <MODEL>
1

>  <REMARK>
 VINA RESULT:      -5.0      0.000      0.000
  Name = 
  1 active torsions:
  status: ('A' for Active; 'I' for Inactive)
    1  A    between atoms: C_20  and  N_29
                            x       y       z     vdW  Elec       q    Type
                         _______ _______ _______ _____ _____    ______ ____

>  <TORSDO>
F 1

$$$$
=
 OpenBabel11122412583D

 32 37  0  0  1  0  0  0  0  0999 V2000
  162.3610  207.2610  149.7250 C   0  0  0  0  0  2  0  0  0  0  0  0
  161.1220  211.6730  152.7050 C   0  0  1  0  0  3  0  0  0  0  0  0
  158.6490  211.3440  156.8680 C   0  0  0  0  0  3  0  0  0  0  0  0
  157.5620  212.0320  156.3210 C   0  0  0  0  0  3  0  0  0  0  0  0
  160.0160  212.9970  150.7170 C   0  0  0  0  0  0  0  0  0  0  0  0
  158.7550  213.2790  150.0290 C   0  0  0  0  0  0  0  0  0  0  0  0
  161.3780  209.8920  151.0050 N   0  0  2  0  0  0  0  0  0  0  0  0
  160.2230  209.3390  153.1100 C   0  0  0  0  0  2  0  0  0  0  0  0
  156.5790  213.5870  149.8090 N   0  0  0  0  0  0  0  0  0  0  0  0
  160.4570  207.6280  151.3940 C   0  0  0  0  0  2  0  0  0  0  0  0
  159.6850  210.8990  156.0420 C   0  0  0  0  0  3  0  0  0  0  0  0
  160.7220  210.6250  153.7680 C   0  0  2  0  0  3  0  0  0  0  0  0
  159.6410  211.1510  154.6670 C   0  0  0  0  0  0  0  0  0  0  0  0
  158.5480  212.0740  152.6190 C   0  0  1  0  0  3  0  0  0  0  0  0
  157.1590  213.8390  148.6170 C   0  0  0  0  0  3  0  0  0  0  0  0
  161.8280  208.4440  149.2040 O   0  0  0  0  0  0  0  0  0  0  0  0
  161.1610  208.8360  152.0150 C   0  0  1  0  0  3  0  0  0  0  0  0
  158.5380  213.6560  148.7150 C   0  0  0  0  0  3  0  0  0  0  0  0
  162.3630  209.4450  150.0210 C   0  0  0  0  0  2  0  0  0  0  0  0
  161.4220  206.6260  150.7530 C   0  0  1  0  0  3  0  0  0  0  0  0
  157.5090  212.2780  154.9460 C   0  0  0  0  0  3  0  0  0  0  0  0
  158.5500  211.8430  154.1110 C   0  0  0  0  0  0  0  0  0  0  0  0
  157.4010  212.9830  152.1340 C   0  0  0  0  0  2  0  0  0  0  0  0
  162.0260  211.0310  151.6520 C   0  0  0  0  0  2  0  0  0  0  0  0
  161.1140  213.2330  150.1470 O   0  0  0  0  0  0  0  0  0  0  0  0
  155.1600  213.7050  150.1000 C   0  0  0  0  0  1  0  0  0  0  0  0
  159.9550  212.5660  152.1730 C   0  0  1  0  0  3  0  0  0  0  0  0
  157.5470  213.2360  150.6650 C   0  0  0  0  0  0  0  0  0  0  0  0
  160.6670  205.5570  150.1180 N   0  0  0  0  0  2  0  0  0  0  0  0
  160.8960  204.1750  150.4030 C   0  0  0  0  0  0  0  0  0  0  0  0
  161.7950  203.8260  151.2130 O   0  0  0  0  0  0  0  0  0  0  0  0
  160.0680  203.1400  149.7320 C   0  0  0  0  0  1  0  0  0  0  0  0
  1 20  1  0  0  0  0
  2 24  1  6  0  0  0
  2 12  1  0  0  0  0
  4  3  1  0  0  0  0
  6 28  2  0  0  0  0
  6  5  1  0  0  0  0
  7 19  1  6  0  0  0
  7 24  1  0  0  0  0
  7 17  1  0  0  0  0
  9 26  1  0  0  0  0
  9 28  1  0  0  0  0
 11  3  2  0  0  0  0
 12  8  1  6  0  0  0
 12 13  1  0  0  0  0
 13 11  1  0  0  0  0
 14 23  1  1  0  0  0
 14 22  1  0  0  0  0
 15 18  2  0  0  0  0
 15  9  1  0  0  0  0
 16  1  1  0  0  0  0
 16 19  1  0  0  0  0
 17 10  1  6  0  0  0
 17  8  1  0  0  0  0
 18  6  1  0  0  0  0
 20 29  1  6  0  0  0
 20 10  1  0  0  0  0
 21  4  2  0  0  0  0
 22 13  2  0  0  0  0
 22 21  1  0  0  0  0
 25  5  2  0  0  0  0
 27  5  1  6  0  0  0
 27 14  1  0  0  0  0
 27  2  1  0  0  0  0
 28 23  1  0  0  0  0
 29 30  1  0  0  0  0
 30 31  2  0  0  0  0
 32 30  1  0  0  0  0
M  END
>  <MODEL>
2

>  <REMARK>
 VINA RESULT:      -4.3      8.640     12.130
  Name = 
  1 active torsions:
  status: ('A' for Active; 'I' for Inactive)
    1  A    between atoms: C_20  and  N_29
                            x       y       z     vdW  Elec       q    Type
                         _______ _______ _______ _____ _____    ______ ____

>  <TORSDO>
F 1

$$$$
=
 OpenBabel11122412583D

 32 37  0  0  1  0  0  0  0  0999 V2000
  162.3140  208.0780  148.2600 C   0  0  0  0  0  2  0  0  0  0  0  0
  161.8800  210.7150  153.0290 C   0  0  1  0  0  3  0  0  0  0  0  0
  160.8350  208.3900  157.1580 C   0  0  0  0  0  3  0  0  0  0  0  0
  159.6040  209.0460  157.2610 C   0  0  0  0  0  3  0  0  0  0  0  0
  160.1600  212.5040  152.1530 C   0  0  0  0  0  0  0  0  0  0  0  0
  158.7370  212.8180  152.0080 C   0  0  0  0  0  0  0  0  0  0  0  0
  161.6690  209.8040  150.7370 N   0  0  2  0  0  0  0  0  0  0  0  0
  161.2470  208.2930  152.6370 C   0  0  0  0  0  2  0  0  0  0  0  0
  156.5890  212.8230  152.5230 N   0  0  0  0  0  0  0  0  0  0  0  0
  161.0070  207.4480  150.3670 C   0  0  0  0  0  2  0  0  0  0  0  0
  161.5810  208.4800  155.9800 C   0  0  0  0  0  3  0  0  0  0  0  0
  161.8720  209.2860  153.6170 C   0  0  2  0  0  3  0  0  0  0  0  0
  161.1030  209.2350  154.9040 C   0  0  0  0  0  0  0  0  0  0  0  0
  159.3920  210.6860  153.8040 C   0  0  1  0  0  3  0  0  0  0  0  0
  156.7610  213.6100  151.4410 C   0  0  0  0  0  3  0  0  0  0  0  0
  161.5980  209.2650  148.4460 O   0  0  0  0  0  0  0  0  0  0  0  0
  161.8200  208.4180  151.2270 C   0  0  1  0  0  3  0  0  0  0  0  0
  158.1090  213.6350  151.0840 C   0  0  0  0  0  3  0  0  0  0  0  0
  162.3180  209.9440  149.4340 C   0  0  0  0  0  2  0  0  0  0  0  0
  161.7660  206.9480  149.1340 C   0  0  1  0  0  3  0  0  0  0  0  0
  159.1180  209.7940  156.1850 C   0  0  0  0  0  3  0  0  0  0  0  0
  159.8650  209.8980  155.0010 C   0  0  0  0  0  0  0  0  0  0  0  0
  158.1150  211.5080  154.0690 C   0  0  0  0  0  2  0  0  0  0  0  0
  162.4390  210.6920  151.6050 C   0  0  0  0  0  2  0  0  0  0  0  0
  161.0160  213.1210  151.4670 O   0  0  0  0  0  0  0  0  0  0  0  0
  155.3270  212.5820  153.2020 C   0  0  0  0  0  1  0  0  0  0  0  0
  160.5700  211.5380  153.2510 C   0  0  1  0  0  3  0  0  0  0  0  0
  157.7890  212.3320  152.8620 C   0  0  0  0  0  0  0  0  0  0  0  0
  160.8960  206.1000  148.3330 N   0  0  0  0  0  2  0  0  0  0  0  0
  161.3900  205.2400  147.3050 C   0  0  0  0  0  0  0  0  0  0  0  0
  162.6190  205.2020  147.0330 O   0  0  0  0  0  0  0  0  0  0  0  0
  160.4420  204.3850  146.5450 C   0  0  0  0  0  1  0  0  0  0  0  0
  1 16  1  0  0  0  0
  1 20  1  0  0  0  0
  2 24  1  6  0  0  0
  2 27  1  0  0  0  0
  2 12  1  0  0  0  0
  3  4  1  0  0  0  0
  6  5  1  0  0  0  0
  6 28  2  0  0  0  0
  7 19  1  6  0  0  0
  7 17  1  0  0  0  0
  7 24  1  0  0  0  0
  9 28  1  0  0  0  0
  9 26  1  0  0  0  0
 11  3  2  0  0  0  0
 12  8  1  6  0  0  0
 12 13  1  0  0  0  0
 13 22  2  0  0  0  0
 13 11  1  0  0  0  0
 14 23  1  1  0  0  0
 14 22  1  0  0  0  0
 15  9  1  0  0  0  0
 16 19  1  0  0  0  0
 17 10  1  6  0  0  0
 17  8  1  0  0  0  0
 18 15  2  0  0  0  0
 18  6  1  0  0  0  0
 20 29  1  6  0  0  0
 20 10  1  0  0  0  0
 21  4  2  0  0  0  0
 22 21  1  0  0  0  0
 25  5  2  0  0  0  0
 27  5  1  6  0  0  0
 27 14  1  0  0  0  0
 28 23  1  0  0  0  0
 30 29  1  0  0  0  0
 31 30  2  0  0  0  0
 32 30  1  0  0  0  0
M  END
>  <MODEL>
3

>  <REMARK>
 VINA RESULT:      -2.2      9.085     12.979
  Name = 
  1 active torsions:
  status: ('A' for Active; 'I' for Inactive)
    1  A    between atoms: C_20  and  N_29
                            x       y       z     vdW  Elec       q    Type
                         _______ _______ _______ _____ _____    ______ ____

>  <TORSDO>
F 1

$$$$
