=
 OpenBabel11122413243D

 31 35  0  0  1  0  0  0  0  0999 V2000
  160.6990  206.5390  146.6820 C   0  0  0  0  0  0  0  0  0  0  0  0
  160.4390  205.6300  150.3360 C   0  0  2  0  0  3  0  0  0  0  0  0
  161.1510  204.2880  150.5410 C   0  0  2  0  0  3  0  0  0  0  0  0
  160.9130  201.9590  149.7130 C   0  0  0  0  0  0  0  0  0  0  0  0
  160.8730  206.3050  149.0630 C   0  0  0  0  0  0  0  0  0  0  0  0
  161.7450  207.6110  146.6230 C   0  0  0  0  0  2  0  0  0  0  0  0
  160.8290  203.2740  149.4780 C   0  0  0  0  0  3  0  0  0  0  0  0
  162.0660  207.2460  151.6230 C   0  0  2  0  0  3  0  0  0  0  0  0
  160.1190  206.1760  145.6260 O   0  0  0  0  0  0  0  0  0  0  0  0
  161.1710  204.7790  152.9640 C   0  0  0  0  0  2  0  0  0  0  0  0
  160.6570  201.0740  148.6740 O   0  0  0  0  0  1  0  0  0  0  0  0
  162.8250  207.2270  150.2900 C   0  0  0  0  0  2  0  0  0  0  0  0
  160.6910  206.5460  151.5620 C   0  0  2  0  0  3  0  0  0  0  0  0
  160.3300  205.9500  147.9350 N   0  0  0  0  0  0  0  0  0  0  0  0
  161.2060  201.4020  151.0890 C   0  0  0  0  0  2  0  0  0  0  0  0
  161.8850  207.4300  149.1090 C   0  0  1  0  0  3  0  0  0  0  0  0
  162.6890  207.4800  147.8140 C   0  0  0  0  0  2  0  0  0  0  0  0
  160.3560  205.9200  152.7870 O   0  0  0  0  0  0  0  0  0  0  0  0
  160.8240  203.7280  151.9200 C   0  0  2  0  0  3  0  0  0  0  0  0
  161.6400  202.4600  152.1120 C   0  0  0  0  0  2  0  0  0  0  0  0
  161.5220  208.0640  154.3120 O   0  0  0  0  0  0  0  0  0  0  0  0
  161.6530  208.9640  153.4410 C   0  0  0  0  0  0  0  0  0  0  0  0
  161.8800  208.6180  152.0710 N   0  0  0  0  0  2  0  0  0  0  0  0
  160.0330  210.7810  156.3330 C   0  0  1  0  0  3  0  0  0  0  0  0
  162.3000  210.5990  155.2070 C   0  0  0  0  0  2  0  0  0  0  0  0
  159.5180  210.6890  152.6260 C   0  0  0  0  0  1  0  0  0  0  0  0
  160.0290  209.5820  157.2610 C   0  0  0  0  0  1  0  0  0  0  0  0
  161.4470  211.3650  156.2190 C   0  0  0  0  0  2  0  0  0  0  0  0
  160.2120  210.9650  153.8760 N   0  0  0  0  0  0  0  0  0  0  0  0
  161.5850  210.4100  153.8570 C   0  0  2  0  0  3  0  0  0  0  0  0
  159.4430  210.3820  154.9750 C   0  0  0  0  0  2  0  0  0  0  0  0
  1 14  1  0  0  0  0
  2  5  1  6  0  0  0
  2  3  1  0  0  0  0
  2 13  1  0  0  0  0
  3  7  1  6  0  0  0
  3 19  1  0  0  0  0
  4 15  1  0  0  0  0
  5 16  1  0  0  0  0
  6  1  1  0  0  0  0
  6 17  1  0  0  0  0
  7  4  2  0  0  0  0
  8 23  1  6  0  0  0
  9  1  2  0  0  0  0
 11  4  1  0  0  0  0
 12  8  1  0  0  0  0
 13  8  1  0  0  0  0
 13 18  1  1  0  0  0
 14  5  2  0  0  0  0
 15 20  1  0  0  0  0
 16 17  1  6  0  0  0
 16 12  1  0  0  0  0
 18 10  1  0  0  0  0
 19 20  1  1  0  0  0
 19 10  1  0  0  0  0
 22 21  2  0  0  0  0
 23 22  1  0  0  0  0
 24 27  1  1  0  0  0
 25 28  1  0  0  0  0
 26 29  1  0  0  0  0
 28 24  1  0  0  0  0
 29 31  1  0  0  0  0
 30 22  1  1  0  0  0
 30 29  1  0  0  0  0
 30 25  1  0  0  0  0
 31 24  1  0  0  0  0
M  END
>  <MODEL>
1

>  <REMARK>
 VINA RESULT:      -6.9      0.000      0.000
  Name = 
  2 active torsions:
  status: ('A' for Active; 'I' for Inactive)
    1  A    between atoms: C_5  and  C_30
    2  A    between atoms: C_10  and  N_16
                            x       y       z     vdW  Elec       q    Type
                         _______ _______ _______ _____ _____    ______ ____

>  <TORSDO>
F 2

$$$$
=
 OpenBabel11122413243D

 31 35  0  0  1  0  0  0  0  0999 V2000
  161.2440  203.9700  145.7390 C   0  0  0  0  0  0  0  0  0  0  0  0
  160.6790  206.0360  148.8480 C   0  0  2  0  0  3  0  0  0  0  0  0
  161.2900  205.2810  150.0340 C   0  0  2  0  0  3  0  0  0  0  0  0
  160.9650  203.0910  151.1570 C   0  0  0  0  0  0  0  0  0  0  0  0
  161.2410  205.5620  147.5340 C   0  0  0  0  0  0  0  0  0  0  0  0
  162.3560  204.6630  145.0110 C   0  0  0  0  0  2  0  0  0  0  0  0
  160.9790  203.8100  150.0290 C   0  0  0  0  0  3  0  0  0  0  0  0
  162.3130  208.0900  148.6840 C   0  0  2  0  0  3  0  0  0  0  0  0
  160.7160  202.9430  145.2380 O   0  0  0  0  0  0  0  0  0  0  0  0
  161.1750  207.3940  151.3120 C   0  0  0  0  0  2  0  0  0  0  0  0
  160.7250  201.7250  151.0810 O   0  0  0  0  0  1  0  0  0  0  0  0
  163.1580  207.1030  147.8680 C   0  0  0  0  0  2  0  0  0  0  0  0
  160.9040  207.5600  149.0280 C   0  0  2  0  0  3  0  0  0  0  0  0
  160.7540  204.4880  146.9830 N   0  0  0  0  0  0  0  0  0  0  0  0
  161.1270  203.7260  152.5210 C   0  0  0  0  0  2  0  0  0  0  0  0
  162.3150  206.3670  146.8360 C   0  0  1  0  0  3  0  0  0  0  0  0
  163.2070  205.4560  145.9980 C   0  0  0  0  0  2  0  0  0  0  0  0
  160.4480  208.0320  150.2830 O   0  0  0  0  0  0  0  0  0  0  0  0
  160.8360  205.9110  151.3450 C   0  0  2  0  0  3  0  0  0  0  0  0
  161.5570  205.1990  152.4780 C   0  0  0  0  0  2  0  0  0  0  0  0
  162.1040  210.6820  149.8810 O   0  0  0  0  0  0  0  0  0  0  0  0
  162.1260  210.6170  148.6240 C   0  0  0  0  0  0  0  0  0  0  0  0
  162.1820  209.3480  147.9650 N   0  0  0  0  0  2  0  0  0  0  0  0
  160.4680  213.9840  149.0860 C   0  0  1  0  0  3  0  0  0  0  0  0
  162.7710  213.0240  148.6210 C   0  0  0  0  0  2  0  0  0  0  0  0
  160.1140  211.1550  146.6590 C   0  0  0  0  0  1  0  0  0  0  0  0
  160.3660  213.8780  150.5940 C   0  0  0  0  0  1  0  0  0  0  0  0
  161.9120  214.2890  148.6670 C   0  0  0  0  0  2  0  0  0  0  0  0
  160.7650  212.2720  147.3290 N   0  0  0  0  0  0  0  0  0  0  0  0
  162.1090  211.8900  147.8190 C   0  0  2  0  0  3  0  0  0  0  0  0
  159.9200  212.7040  148.4420 C   0  0  0  0  0  2  0  0  0  0  0  0
  1 14  1  0  0  0  0
  2  5  1  6  0  0  0
  2 13  1  0  0  0  0
  2  3  1  0  0  0  0
  3  7  1  1  0  0  0
  3 19  1  0  0  0  0
  4 15  1  0  0  0  0
  6  1  1  0  0  0  0
  6 17  1  0  0  0  0
  7  4  2  0  0  0  0
  8 23  1  6  0  0  0
  8 13  1  0  0  0  0
  9  1  2  0  0  0  0
 11  4  1  0  0  0  0
 12  8  1  0  0  0  0
 13 18  1  1  0  0  0
 14  5  2  0  0  0  0
 16 17  1  1  0  0  0
 16  5  1  0  0  0  0
 16 12  1  0  0  0  0
 18 10  1  0  0  0  0
 19 10  1  6  0  0  0
 19 20  1  0  0  0  0
 20 15  1  0  0  0  0
 22 21  2  0  0  0  0
 23 22  1  0  0  0  0
 24 27  1  1  0  0  0
 25 28  1  0  0  0  0
 26 29  1  0  0  0  0
 28 24  1  0  0  0  0
 29 30  1  0  0  0  0
 29 31  1  0  0  0  0
 30 25  1  0  0  0  0
 30 22  1  1  0  0  0
 31 24  1  0  0  0  0
M  END
>  <MODEL>
2

>  <REMARK>
 VINA RESULT:      -5.8      3.299      4.429
  Name = 
  2 active torsions:
  status: ('A' for Active; 'I' for Inactive)
    1  A    between atoms: C_5  and  C_30
    2  A    between atoms: C_10  and  N_16
                            x       y       z     vdW  Elec       q    Type
                         _______ _______ _______ _____ _____    ______ ____

>  <TORSDO>
F 2

$$$$
=
 OpenBabel11122413243D

 31 35  0  0  1  0  0  0  0  0999 V2000
  162.2590  211.7240  148.6290 C   0  0  0  0  0  0  0  0  0  0  0  0
  159.9270  212.2600  145.7090 C   0  0  2  0  0  3  0  0  0  0  0  0
  158.8790  213.2990  146.1260 C   0  0  2  0  0  3  0  0  0  0  0  0
  157.1170  213.5060  147.8630 C   0  0  0  0  0  0  0  0  0  0  0  0
  161.1500  212.3160  146.5860 C   0  0  0  0  0  0  0  0  0  0  0  0
  163.5140  212.4570  148.2620 C   0  0  0  0  0  2  0  0  0  0  0  0
  158.3320  213.0710  147.5080 C   0  0  0  0  0  3  0  0  0  0  0  0
  161.2810  213.6280  143.9170 C   0  0  2  0  0  3  0  0  0  0  0  0
  162.2020  211.0920  149.7160 O   0  0  0  0  0  0  0  0  0  0  0  0
  158.3400  213.5740  143.7290 C   0  0  0  0  0  2  0  0  0  0  0  0
  156.6900  213.3140  149.1700 O   0  0  0  0  0  1  0  0  0  0  0  0
  162.0150  214.1530  145.1570 C   0  0  0  0  0  2  0  0  0  0  0  0
  160.3050  212.4700  144.2200 C   0  0  2  0  0  3  0  0  0  0  0  0
  161.1380  211.7070  147.7360 N   0  0  0  0  0  0  0  0  0  0  0  0
  156.1630  214.1340  146.8700 C   0  0  0  0  0  2  0  0  0  0  0  0
  162.3980  213.0210  146.1010 C   0  0  1  0  0  3  0  0  0  0  0  0
  163.1910  213.5780  147.2790 C   0  0  0  0  0  2  0  0  0  0  0  0
  159.1720  212.4910  143.3690 O   0  0  0  0  0  0  0  0  0  0  0  0
  157.7450  213.3350  145.1090 C   0  0  2  0  0  3  0  0  0  0  0  0
  156.7970  214.4530  145.5100 C   0  0  0  0  0  2  0  0  0  0  0  0
  161.0180  213.9610  141.0860 O   0  0  0  0  0  0  0  0  0  0  0  0
  162.0720  213.4230  141.5170 C   0  0  0  0  0  0  0  0  0  0  0  0
  162.2430  213.1870  142.9180 N   0  0  0  0  0  2  0  0  0  0  0  0
  162.3130  213.3910  137.7440 C   0  0  1  0  0  3  0  0  0  0  0  0
  163.5950  214.2850  139.7440 C   0  0  0  0  0  2  0  0  0  0  0  0
  162.3000  210.7840  140.4310 C   0  0  0  0  0  1  0  0  0  0  0  0
  161.2530  214.4530  137.5320 C   0  0  0  0  0  1  0  0  0  0  0  0
  163.6190  214.0290  138.2360 C   0  0  0  0  0  2  0  0  0  0  0  0
  162.8060  211.9120  139.6610 N   0  0  0  0  0  0  0  0  0  0  0  0
  163.1580  213.0460  140.5450 C   0  0  2  0  0  3  0  0  0  0  0  0
  161.7800  212.3160  138.6990 C   0  0  0  0  0  2  0  0  0  0  0  0
  1  9  2  0  0  0  0
  2  3  1  0  0  0  0
  2  5  1  1  0  0  0
  3  7  1  1  0  0  0
  4 11  1  0  0  0  0
  5 14  2  0  0  0  0
  6  1  1  0  0  0  0
  7  4  2  0  0  0  0
  8 23  1  6  0  0  0
  8 13  1  0  0  0  0
  8 12  1  0  0  0  0
 13 18  1  6  0  0  0
 13  2  1  0  0  0  0
 14  1  1  0  0  0  0
 15  4  1  0  0  0  0
 16 12  1  6  0  0  0
 16  5  1  0  0  0  0
 16 17  1  0  0  0  0
 17  6  1  0  0  0  0
 18 10  1  0  0  0  0
 19 10  1  6  0  0  0
 19 20  1  0  0  0  0
 19  3  1  0  0  0  0
 20 15  1  0  0  0  0
 21 22  2  0  0  0  0
 22 23  1  0  0  0  0
 24 27  1  1  0  0  0
 24 28  1  0  0  0  0
 24 31  1  0  0  0  0
 25 30  1  0  0  0  0
 28 25  1  0  0  0  0
 29 26  1  0  0  0  0
 29 30  1  0  0  0  0
 30 22  1  6  0  0  0
 31 29  1  0  0  0  0
M  END
>  <MODEL>
3

>  <REMARK>
 VINA RESULT:      -5.5      7.609     12.254
  Name = 
  2 active torsions:
  status: ('A' for Active; 'I' for Inactive)
    1  A    between atoms: C_5  and  C_30
    2  A    between atoms: C_10  and  N_16
                            x       y       z     vdW  Elec       q    Type
                         _______ _______ _______ _____ _____    ______ ____

>  <TORSDO>
F 2

$$$$
=
 OpenBabel11122413243D

 31 35  0  0  1  0  0  0  0  0999 V2000
  159.2270  212.5970  156.0080 C   0  0  0  0  0  0  0  0  0  0  0  0
  161.1820  210.6060  153.4660 C   0  0  2  0  0  3  0  0  0  0  0  0
  160.6600  209.1650  153.4930 C   0  0  2  0  0  3  0  0  0  0  0  0
  160.4990  207.3200  155.1470 C   0  0  0  0  0  0  0  0  0  0  0  0
  160.1940  211.5690  154.0680 C   0  0  0  0  0  0  0  0  0  0  0  0
  158.2680  213.4200  155.2010 C   0  0  0  0  0  2  0  0  0  0  0  0
  160.4520  208.6320  154.8830 C   0  0  0  0  0  3  0  0  0  0  0  0
  160.3370  211.3850  151.1000 C   0  0  2  0  0  3  0  0  0  0  0  0
  159.2450  212.7130  157.2610 O   0  0  0  0  0  0  0  0  0  0  0  0
  161.7780  208.8230  151.3140 C   0  0  0  0  0  2  0  0  0  0  0  0
  160.2440  206.8860  156.4420 O   0  0  0  0  0  1  0  0  0  0  0  0
  159.0410  211.6650  151.8720 C   0  0  0  0  0  2  0  0  0  0  0  0
  161.5280  211.0080  152.0090 C   0  0  2  0  0  3  0  0  0  0  0  0
  160.1470  211.7080  155.3610 N   0  0  0  0  0  0  0  0  0  0  0  0
  160.8920  206.3000  154.1020 C   0  0  0  0  0  2  0  0  0  0  0  0
  159.3140  212.4120  153.1700 C   0  0  1  0  0  3  0  0  0  0  0  0
  157.9960  212.7360  153.8650 C   0  0  0  0  0  2  0  0  0  0  0  0
  162.4040  210.0870  151.3840 O   0  0  0  0  0  0  0  0  0  0  0  0
  161.6020  208.2530  152.7140 C   0  0  2  0  0  3  0  0  0  0  0  0
  160.9810  206.8660  152.6780 C   0  0  0  0  0  2  0  0  0  0  0  0
  161.3920  211.3110  148.4400 O   0  0  0  0  0  0  0  0  0  0  0  0
  161.1840  212.4410  148.9560 C   0  0  0  0  0  0  0  0  0  0  0  0
  160.7020  212.5450  150.3000 N   0  0  0  0  0  2  0  0  0  0  0  0
  160.8450  213.2710  145.2840 C   0  0  1  0  0  3  0  0  0  0  0  0
  160.1090  214.1820  147.5350 C   0  0  0  0  0  2  0  0  0  0  0  0
  163.6980  212.9570  147.6870 C   0  0  0  0  0  1  0  0  0  0  0  0
  159.8000  212.2100  145.0010 C   0  0  0  0  0  1  0  0  0  0  0  0
  160.2170  214.4530  146.0340 C   0  0  0  0  0  2  0  0  0  0  0  0
  162.4860  213.5240  147.1130 N   0  0  0  0  0  0  0  0  0  0  0  0
  161.4320  213.6820  148.1410 C   0  0  2  0  0  3  0  0  0  0  0  0
  162.0230  212.6450  146.0400 C   0  0  0  0  0  2  0  0  0  0  0  0
  1  9  2  0  0  0  0
  2  3  1  0  0  0  0
  2  5  1  6  0  0  0
  3  7  1  1  0  0  0
  4 11  1  0  0  0  0
  5 14  2  0  0  0  0
  6  1  1  0  0  0  0
  7  4  2  0  0  0  0
  8 23  1  1  0  0  0
  8 12  1  0  0  0  0
  8 13  1  0  0  0  0
 10 18  1  0  0  0  0
 13 18  1  6  0  0  0
 13  2  1  0  0  0  0
 14  1  1  0  0  0  0
 15  4  1  0  0  0  0
 16 12  1  6  0  0  0
 16 17  1  0  0  0  0
 16  5  1  0  0  0  0
 17  6  1  0  0  0  0
 19 10  1  6  0  0  0
 19  3  1  0  0  0  0
 20 19  1  0  0  0  0
 20 15  1  0  0  0  0
 21 22  2  0  0  0  0
 22 23  1  0  0  0  0
 24 27  1  1  0  0  0
 24 28  1  0  0  0  0
 24 31  1  0  0  0  0
 25 30  1  0  0  0  0
 28 25  1  0  0  0  0
 29 26  1  0  0  0  0
 29 30  1  0  0  0  0
 30 22  1  6  0  0  0
 31 29  1  0  0  0  0
M  END
>  <MODEL>
4

>  <REMARK>
 VINA RESULT:      -4.9      3.946      8.009
  Name = 
  2 active torsions:
  status: ('A' for Active; 'I' for Inactive)
    1  A    between atoms: C_5  and  C_30
    2  A    between atoms: C_10  and  N_16
                            x       y       z     vdW  Elec       q    Type
                         _______ _______ _______ _____ _____    ______ ____

>  <TORSDO>
F 2

$$$$
=
 OpenBabel11122413243D

 31 35  0  0  1  0  0  0  0  0999 V2000
  161.4230  202.0620  150.6750 C   0  0  0  0  0  0  0  0  0  0  0  0
  161.9230  204.2380  147.6300 C   0  0  2  0  0  3  0  0  0  0  0  0
  160.8290  203.8880  146.6150 C   0  0  2  0  0  3  0  0  0  0  0  0
  160.1040  201.8830  145.3420 C   0  0  0  0  0  0  0  0  0  0  0  0
  161.5560  203.7960  149.0220 C   0  0  0  0  0  0  0  0  0  0  0  0
  160.8220  202.9700  151.7050 C   0  0  0  0  0  2  0  0  0  0  0  0
  160.6040  202.4080  146.4670 C   0  0  0  0  0  3  0  0  0  0  0  0
  161.1870  206.6660  148.3210 C   0  0  2  0  0  3  0  0  0  0  0  0
  161.6650  200.8620  150.9670 O   0  0  0  0  0  0  0  0  0  0  0  0
  161.3650  206.0040  145.4550 C   0  0  0  0  0  2  0  0  0  0  0  0
  159.8680  200.5160  145.2870 O   0  0  0  0  0  1  0  0  0  0  0  0
  160.2690  205.9030  149.2850 C   0  0  0  0  0  2  0  0  0  0  0  0
  162.2040  205.7620  147.5890 C   0  0  2  0  0  3  0  0  0  0  0  0
  161.7560  202.5590  149.3720 N   0  0  0  0  0  0  0  0  0  0  0  0
  159.8570  202.7150  144.1030 C   0  0  0  0  0  2  0  0  0  0  0  0
  161.0220  204.8010  150.0190 C   0  0  1  0  0  3  0  0  0  0  0  0
  160.0930  204.1210  151.0190 C   0  0  0  0  0  2  0  0  0  0  0  0
  162.4870  206.2280  146.2820 O   0  0  0  0  0  0  0  0  0  0  0  0
  161.1530  204.5100  145.2620 C   0  0  2  0  0  3  0  0  0  0  0  0
  159.9860  204.2280  144.3300 C   0  0  0  0  0  2  0  0  0  0  0  0
  160.4150  207.8030  150.8330 O   0  0  0  0  0  0  0  0  0  0  0  0
  161.4920  208.2010  150.3160 C   0  0  0  0  0  0  0  0  0  0  0  0
  161.9090  207.7050  149.0390 N   0  0  0  0  0  2  0  0  0  0  0  0
  160.7300  211.1210  152.5940 C   0  0  1  0  0  3  0  0  0  0  0  0
  162.1490  209.0170  152.5760 C   0  0  0  0  0  2  0  0  0  0  0  0
  162.2360  210.7260  149.1880 C   0  0  0  0  0  1  0  0  0  0  0  0
  159.3750  210.6000  153.0310 C   0  0  0  0  0  1  0  0  0  0  0  0
  161.8530  210.3390  153.2860 C   0  0  0  0  0  2  0  0  0  0  0  0
  162.1440  210.5970  150.6360 N   0  0  0  0  0  0  0  0  0  0  0  0
  162.3460  209.1930  151.0600 C   0  0  2  0  0  3  0  0  0  0  0  0
  160.8280  211.0740  151.0630 C   0  0  0  0  0  2  0  0  0  0  0  0
  1  9  2  0  0  0  0
  1  6  1  0  0  0  0
  2  5  1  1  0  0  0
  3  7  1  6  0  0  0
  3  2  1  0  0  0  0
  4  7  2  0  0  0  0
  5 14  2  0  0  0  0
  5 16  1  0  0  0  0
  8 23  1  1  0  0  0
  8 12  1  0  0  0  0
 10 18  1  0  0  0  0
 11  4  1  0  0  0  0
 13 18  1  6  0  0  0
 13  2  1  0  0  0  0
 13  8  1  0  0  0  0
 14  1  1  0  0  0  0
 15 20  1  0  0  0  0
 15  4  1  0  0  0  0
 16 12  1  6  0  0  0
 16 17  1  0  0  0  0
 17  6  1  0  0  0  0
 19 20  1  6  0  0  0
 19 10  1  0  0  0  0
 19  3  1  0  0  0  0
 22 21  2  0  0  0  0
 23 22  1  0  0  0  0
 24 27  1  6  0  0  0
 24 28  1  0  0  0  0
 25 28  1  0  0  0  0
 26 29  1  0  0  0  0
 29 30  1  0  0  0  0
 29 31  1  0  0  0  0
 30 22  1  6  0  0  0
 30 25  1  0  0  0  0
 31 24  1  0  0  0  0
M  END
>  <MODEL>
5

>  <REMARK>
 VINA RESULT:      -4.8      2.398      4.849
  Name = 
  2 active torsions:
  status: ('A' for Active; 'I' for Inactive)
    1  A    between atoms: C_5  and  C_30
    2  A    between atoms: C_10  and  N_16
                            x       y       z     vdW  Elec       q    Type
                         _______ _______ _______ _____ _____    ______ ____

>  <TORSDO>
F 2

$$$$
=
 OpenBabel11122413243D

 31 35  0  0  1  0  0  0  0  0999 V2000
  160.8890  206.9340  147.1640 C   0  0  0  0  0  0  0  0  0  0  0  0
  160.2850  205.0640  150.3870 C   0  0  2  0  0  3  0  0  0  0  0  0
  161.1730  203.8140  150.3810 C   0  0  2  0  0  3  0  0  0  0  0  0
  161.4360  201.7780  148.9850 C   0  0  0  0  0  0  0  0  0  0  0  0
  160.7720  206.1010  149.4100 C   0  0  0  0  0  0  0  0  0  0  0  0
  161.7420  208.1040  147.5490 C   0  0  0  0  0  2  0  0  0  0  0  0
  161.1700  203.0870  149.0650 C   0  0  0  0  0  3  0  0  0  0  0  0
  161.4340  206.4690  152.2890 C   0  0  2  0  0  3  0  0  0  0  0  0
  160.5250  206.7950  145.9670 O   0  0  0  0  0  0  0  0  0  0  0  0
  160.7810  203.6440  152.8160 C   0  0  0  0  0  2  0  0  0  0  0  0
  161.4730  201.1750  147.7350 O   0  0  0  0  0  1  0  0  0  0  0  0
  162.3600  206.8990  151.1440 C   0  0  0  0  0  2  0  0  0  0  0  0
  160.2140  205.6460  151.8230 C   0  0  2  0  0  3  0  0  0  0  0  0
  160.4530  205.9920  148.1530 N   0  0  0  0  0  0  0  0  0  0  0  0
  161.6260  200.9170  150.2150 C   0  0  0  0  0  2  0  0  0  0  0  0
  161.5700  207.2890  149.9030 C   0  0  1  0  0  3  0  0  0  0  0  0
  162.5230  207.7800  148.8180 C   0  0  0  0  0  2  0  0  0  0  0  0
  159.8230  204.6810  152.7820 O   0  0  0  0  0  0  0  0  0  0  0  0
  160.7580  202.8730  151.5050 C   0  0  2  0  0  3  0  0  0  0  0  0
  161.7380  201.7110  151.5240 C   0  0  0  0  0  2  0  0  0  0  0  0
  160.7160  206.5350  155.0600 O   0  0  0  0  0  0  0  0  0  0  0  0
  160.6640  207.6160  154.4150 C   0  0  0  0  0  0  0  0  0  0  0  0
  160.9660  207.6400  153.0160 N   0  0  0  0  0  2  0  0  0  0  0  0
  160.9910  211.2870  153.5730 C   0  0  1  0  0  3  0  0  0  0  0  0
  159.2160  209.6420  154.3380 C   0  0  0  0  0  2  0  0  0  0  0  0
  162.5060  208.9960  156.1180 C   0  0  0  0  0  1  0  0  0  0  0  0
  161.0060  211.0810  152.0720 C   0  0  0  0  0  1  0  0  0  0  0  0
  159.5700  211.1150  154.1240 C   0  0  0  0  0  2  0  0  0  0  0  0
  161.4530  209.7530  155.4540 N   0  0  0  0  0  0  0  0  0  0  0  0
  160.2950  208.8870  155.1340 C   0  0  2  0  0  3  0  0  0  0  0  0
  162.0030  210.3410  154.2320 C   0  0  0  0  0  2  0  0  0  0  0  0
  1  6  1  0  0  0  0
  1 14  1  0  0  0  0
  2  5  1  6  0  0  0
  2 13  1  0  0  0  0
  3  7  1  6  0  0  0
  3  2  1  0  0  0  0
  3 19  1  0  0  0  0
  4  7  2  0  0  0  0
  4 15  1  0  0  0  0
  5 16  1  0  0  0  0
  6 17  1  0  0  0  0
  8 23  1  6  0  0  0
  9  1  2  0  0  0  0
 11  4  1  0  0  0  0
 12  8  1  0  0  0  0
 13  8  1  0  0  0  0
 13 18  1  1  0  0  0
 14  5  2  0  0  0  0
 15 20  1  0  0  0  0
 16 17  1  6  0  0  0
 16 12  1  0  0  0  0
 18 10  1  0  0  0  0
 19 20  1  1  0  0  0
 19 10  1  0  0  0  0
 22 21  2  0  0  0  0
 23 22  1  0  0  0  0
 24 27  1  6  0  0  0
 24 28  1  0  0  0  0
 24 31  1  0  0  0  0
 25 30  1  0  0  0  0
 28 25  1  0  0  0  0
 29 26  1  0  0  0  0
 30 22  1  6  0  0  0
 30 29  1  0  0  0  0
 31 29  1  0  0  0  0
M  END
>  <MODEL>
6

>  <REMARK>
 VINA RESULT:      -4.4      1.274      2.030
  Name = 
  2 active torsions:
  status: ('A' for Active; 'I' for Inactive)
    1  A    between atoms: C_5  and  C_30
    2  A    between atoms: C_10  and  N_16
                            x       y       z     vdW  Elec       q    Type
                         _______ _______ _______ _____ _____    ______ ____

>  <TORSDO>
F 2

$$$$
=
 OpenBabel11122413243D

 31 35  0  0  1  0  0  0  0  0999 V2000
  161.4630  202.5380  151.3490 C   0  0  0  0  0  0  0  0  0  0  0  0
  162.1910  205.3710  148.9620 C   0  0  2  0  0  3  0  0  0  0  0  0
  161.3570  205.1470  147.6950 C   0  0  2  0  0  3  0  0  0  0  0  0
  161.1620  203.4110  145.9310 C   0  0  0  0  0  0  0  0  0  0  0  0
  161.6460  204.5990  150.1340 C   0  0  0  0  0  0  0  0  0  0  0  0
  160.5660  203.1320  152.3920 C   0  0  0  0  0  2  0  0  0  0  0  0
  161.3730  203.7220  147.2150 C   0  0  0  0  0  3  0  0  0  0  0  0
  161.0090  207.5010  149.9520 C   0  0  2  0  0  3  0  0  0  0  0  0
  161.8150  201.3340  151.4420 O   0  0  0  0  0  0  0  0  0  0  0  0
  161.7900  207.5100  147.1110 C   0  0  0  0  0  2  0  0  0  0  0  0
  161.1340  202.0730  145.5590 O   0  0  0  0  0  1  0  0  0  0  0  0
  160.0500  206.4570  150.5370 C   0  0  0  0  0  2  0  0  0  0  0  0
  162.2570  206.8870  149.2810 C   0  0  2  0  0  3  0  0  0  0  0  0
  161.9520  203.3410  150.2660 N   0  0  0  0  0  0  0  0  0  0  0  0
  161.0270  204.4670  144.8560 C   0  0  0  0  0  2  0  0  0  0  0  0
  160.8050  205.3010  151.1780 C   0  0  1  0  0  3  0  0  0  0  0  0
  159.8170  204.3270  151.8120 C   0  0  0  0  0  2  0  0  0  0  0  0
  162.7020  207.6560  148.1780 O   0  0  0  0  0  0  0  0  0  0  0  0
  161.8280  206.0820  146.5870 C   0  0  2  0  0  3  0  0  0  0  0  0
  160.9000  205.8980  145.3980 C   0  0  0  0  0  2  0  0  0  0  0  0
  161.5600  210.2870  149.5910 O   0  0  0  0  0  0  0  0  0  0  0  0
  161.6540  209.8170  150.7560 C   0  0  0  0  0  0  0  0  0  0  0  0
  161.4370  208.4230  150.9940 N   0  0  0  0  0  2  0  0  0  0  0  0
  160.6530  209.9280  154.4000 C   0  0  1  0  0  3  0  0  0  0  0  0
  162.7590  209.9720  152.9840 C   0  0  0  0  0  2  0  0  0  0  0  0
  160.0300  212.0850  151.4040 C   0  0  0  0  0  1  0  0  0  0  0  0
  160.3580  208.4450  154.5040 C   0  0  0  0  0  1  0  0  0  0  0  0
  162.1680  210.1720  154.3800 C   0  0  0  0  0  2  0  0  0  0  0  0
  160.8070  211.4470  152.4580 N   0  0  0  0  0  0  0  0  0  0  0  0
  161.9830  210.7400  151.9000 C   0  0  2  0  0  3  0  0  0  0  0  0
  159.9410  210.5090  153.1720 C   0  0  0  0  0  2  0  0  0  0  0  0
  1  9  2  0  0  0  0
  1  6  1  0  0  0  0
  2 13  1  0  0  0  0
  2  5  1  1  0  0  0
  3  7  1  6  0  0  0
  3  2  1  0  0  0  0
  4  7  2  0  0  0  0
  5 14  2  0  0  0  0
  5 16  1  0  0  0  0
  8 12  1  0  0  0  0
  8 23  1  1  0  0  0
 10 18  1  0  0  0  0
 11  4  1  0  0  0  0
 13 18  1  6  0  0  0
 13  8  1  0  0  0  0
 14  1  1  0  0  0  0
 15 20  1  0  0  0  0
 15  4  1  0  0  0  0
 16 12  1  6  0  0  0
 16 17  1  0  0  0  0
 17  6  1  0  0  0  0
 19 20  1  6  0  0  0
 19 10  1  0  0  0  0
 19  3  1  0  0  0  0
 21 22  2  0  0  0  0
 22 23  1  0  0  0  0
 24 27  1  6  0  0  0
 25 28  1  0  0  0  0
 26 29  1  0  0  0  0
 28 24  1  0  0  0  0
 29 31  1  0  0  0  0
 30 22  1  6  0  0  0
 30 29  1  0  0  0  0
 30 25  1  0  0  0  0
 31 24  1  0  0  0  0
M  END
>  <MODEL>
7

>  <REMARK>
 VINA RESULT:      -4.1      2.179      4.295
  Name = 
  2 active torsions:
  status: ('A' for Active; 'I' for Inactive)
    1  A    between atoms: C_5  and  C_30
    2  A    between atoms: C_10  and  N_16
                            x       y       z     vdW  Elec       q    Type
                         _______ _______ _______ _____ _____    ______ ____

>  <TORSDO>
F 2

$$$$
=
 OpenBabel11122413243D

 31 35  0  0  1  0  0  0  0  0999 V2000
  157.0110  214.0970  150.0820 C   0  0  0  0  0  0  0  0  0  0  0  0
  160.6040  213.1710  149.3880 C   0  0  2  0  0  3  0  0  0  0  0  0
  160.8280  211.7400  149.8910 C   0  0  2  0  0  3  0  0  0  0  0  0
  160.7000  210.5340  152.0580 C   0  0  0  0  0  0  0  0  0  0  0  0
  159.1430  213.4670  149.1800 C   0  0  0  0  0  0  0  0  0  0  0  0
  156.3260  214.0150  148.7510 C   0  0  0  0  0  2  0  0  0  0  0  0
  160.2210  211.4810  151.2420 C   0  0  0  0  0  3  0  0  0  0  0  0
  160.7910  212.8080  146.7900 C   0  0  2  0  0  3  0  0  0  0  0  0
  156.3580  214.4510  151.0980 O   0  0  0  0  0  0  0  0  0  0  0  0
  162.8910  211.6890  148.5280 C   0  0  0  0  0  2  0  0  0  0  0  0
  160.0610  210.3050  153.2690 O   0  0  0  0  0  1  0  0  0  0  0  0
  159.3130  212.4220  146.9350 C   0  0  0  0  0  2  0  0  0  0  0  0
  161.4060  213.3950  148.0790 C   0  0  2  0  0  3  0  0  0  0  0  0
  158.4100  213.8100  150.2000 N   0  0  0  0  0  0  0  0  0  0  0  0
  161.9560  209.7540  151.7390 C   0  0  0  0  0  2  0  0  0  0  0  0
  158.5530  213.4290  147.7860 C   0  0  1  0  0  3  0  0  0  0  0  0
  157.0770  213.0500  147.8400 C   0  0  0  0  0  2  0  0  0  0  0  0
  162.7750  213.0610  148.2170 O   0  0  0  0  0  0  0  0  0  0  0  0
  162.3190  211.4210  149.9130 C   0  0  2  0  0  3  0  0  0  0  0  0
  162.4760  209.9620  150.3090 C   0  0  0  0  0  2  0  0  0  0  0  0
  160.8290  212.1850  143.9960 O   0  0  0  0  0  0  0  0  0  0  0  0
  160.9180  213.3970  144.3280 C   0  0  0  0  0  0  0  0  0  0  0  0
  160.9510  213.7690  145.7090 N   0  0  0  0  0  2  0  0  0  0  0  0
  161.1260  213.2880  140.5540 C   0  0  1  0  0  3  0  0  0  0  0  0
  159.7170  214.3640  142.3700 C   0  0  0  0  0  2  0  0  0  0  0  0
  163.3940  214.4150  143.3120 C   0  0  0  0  0  1  0  0  0  0  0  0
  160.5010  211.9130  140.4240 C   0  0  0  0  0  1  0  0  0  0  0  0
  160.0530  214.3360  140.8780 C   0  0  0  0  0  2  0  0  0  0  0  0
  162.2170  214.4310  142.4540 N   0  0  0  0  0  0  0  0  0  0  0  0
  160.9730  214.4530  143.2560 C   0  0  2  0  0  3  0  0  0  0  0  0
  162.2500  213.2450  141.5970 C   0  0  0  0  0  2  0  0  0  0  0  0
  1 14  1  0  0  0  0
  1  9  2  0  0  0  0
  2  5  1  6  0  0  0
  2  3  1  0  0  0  0
  3 19  1  0  0  0  0
  3  7  1  1  0  0  0
  4 11  1  0  0  0  0
  5 14  2  0  0  0  0
  6  1  1  0  0  0  0
  7  4  2  0  0  0  0
  8 23  1  6  0  0  0
  8 12  1  0  0  0  0
  8 13  1  0  0  0  0
 13 18  1  1  0  0  0
 13  2  1  0  0  0  0
 15  4  1  0  0  0  0
 16 12  1  6  0  0  0
 16 17  1  0  0  0  0
 16  5  1  0  0  0  0
 17  6  1  0  0  0  0
 18 10  1  0  0  0  0
 19 10  1  6  0  0  0
 19 20  1  0  0  0  0
 20 15  1  0  0  0  0
 21 22  2  0  0  0  0
 22 23  1  0  0  0  0
 24 27  1  1  0  0  0
 24 28  1  0  0  0  0
 24 31  1  0  0  0  0
 25 30  1  0  0  0  0
 28 25  1  0  0  0  0
 29 30  1  0  0  0  0
 29 26  1  0  0  0  0
 30 22  1  1  0  0  0
 31 29  1  0  0  0  0
M  END
>  <MODEL>
8

>  <REMARK>
 VINA RESULT:      -4.0      6.193     10.232
  Name = 
  2 active torsions:
  status: ('A' for Active; 'I' for Inactive)
    1  A    between atoms: C_5  and  C_30
    2  A    between atoms: C_10  and  N_16
                            x       y       z     vdW  Elec       q    Type
                         _______ _______ _______ _____ _____    ______ ____

>  <TORSDO>
F 2

$$$$
