=
 OpenBabel11122413453D

 37 43  0  0  1  0  0  0  0  0999 V2000
  160.5710  207.9760  152.2590 C   0  0  0  0  0  2  0  0  0  0  0  0
  163.1310  210.9130  156.4560 S   0  0  0  0  0  0  0  0  0  0  0  0
  160.2450  211.5120  153.2820 C   0  0  2  0  0  3  0  0  0  0  0  0
  160.5740  206.4540  152.5520 C   0  0  1  0  0  3  0  0  0  0  0  0
  161.6040  210.5780  149.8730 C   0  0  0  0  0  2  0  0  0  0  0  0
  160.6760  211.7350  155.7150 C   0  0  0  0  0  0  0  0  0  0  0  0
  160.5700  210.6500  152.2180 N   0  0  1  0  0  0  0  0  0  0  0  0
  161.7970  206.1590  150.2790 C   0  0  2  0  0  3  0  0  0  0  0  0
  160.9220  211.0950  154.5140 C   0  0  0  0  0  0  0  0  0  0  0  0
  160.5500  211.2390  150.8150 C   0  0  1  0  0  3  0  0  0  0  0  0
  159.4240  212.6810  155.6810 C   0  0  0  0  0  3  0  0  0  0  0  0
  161.4610  205.6110  151.6550 C   0  0  0  0  0  2  0  0  0  0  0  0
  161.9800  210.0530  154.2660 C   0  0  2  0  0  3  0  0  0  0  0  0
  163.1930  209.6190  157.2610 O   0  0  0  0  0  0  0  0  0  0  0  0
  158.2850  212.5580  152.1540 C   0  0  0  0  0  2  0  0  0  0  0  0
  158.7070  212.9250  154.5420 C   0  0  0  0  0  3  0  0  0  0  0  0
  163.2990  210.5870  154.7130 C   0  0  0  0  0  2  0  0  0  0  0  0
  162.7930  207.3270  150.1130 C   0  0  0  0  0  2  0  0  0  0  0  0
  161.4170  209.1960  149.8440 O   0  0  0  0  0  0  0  0  0  0  0  0
  158.9570  212.1330  153.4040 N   0  0  0  0  0  0  0  0  0  0  0  0
  161.8300  210.0620  152.6920 C   0  0  1  0  0  3  0  0  0  0  0  0
  161.6140  211.7390  156.7020 N   0  0  0  0  0  2  0  0  0  0  0  0
  160.4660  212.7960  150.7410 C   0  0  2  0  0  3  0  0  0  0  0  0
  164.1520  211.8680  156.9020 O   0  0  0  0  0  0  0  0  0  0  0  0
  162.4290  208.6990  150.6220 C   0  0  1  0  0  3  0  0  0  0  0  0
  161.0150  205.7770  149.1490 O   0  0  0  0  0  1  0  0  0  0  0  0
  161.9980  208.6590  152.0960 C   0  0  2  0  0  3  0  0  0  0  0  0
  159.1620  213.4300  151.2620 C   0  0  0  0  0  2  0  0  0  0  0  0
  161.9580  213.9160  149.0260 C   0  0  0  0  0  3  0  0  0  0  0  0
  160.7010  213.3510  149.3650 C   0  0  0  0  0  0  0  0  0  0  0  0
  159.6300  213.3810  148.4360 C   0  0  0  0  0  3  0  0  0  0  0  0
  158.6960  213.9390  146.2600 N   0  0  0  0  0  1  0  0  0  0  0  0
  161.0630  214.4370  146.8450 C   0  0  0  0  0  3  0  0  0  0  0  0
  159.8030  213.9280  147.1940 C   0  0  0  0  0  0  0  0  0  0  0  0
  162.1360  214.4530  147.7620 C   0  0  0  0  0  3  0  0  0  0  0  0
  160.0970  207.1300  154.5970 C   0  0  0  0  0  1  0  0  0  0  0  0
  160.8240  206.1570  153.8930 O   0  0  0  0  0  0  0  0  0  0  0  0
  1  4  1  0  0  0  0
  2 22  1  0  0  0  0
  2 24  2  0  0  0  0
  2 14  2  0  0  0  0
  3 20  1  0  0  0  0
  3  9  1  1  0  0  0
  4 37  1  1  0  0  0
  5 10  1  0  0  0  0
  6 22  1  0  0  0  0
  7 21  1  0  0  0  0
  7  3  1  0  0  0  0
  8 12  1  0  0  0  0
  9  6  2  0  0  0  0
 10  7  1  0  0  0  0
 11  6  1  0  0  0  0
 12  4  1  0  0  0  0
 13  9  1  0  0  0  0
 13 17  1  0  0  0  0
 15 20  1  0  0  0  0
 16 11  2  0  0  0  0
 17  2  1  0  0  0  0
 18  8  1  0  0  0  0
 18 25  1  0  0  0  0
 19  5  1  0  0  0  0
 19 25  1  0  0  0  0
 20 16  1  0  0  0  0
 21 13  1  0  0  0  0
 23 10  1  0  0  0  0
 23 28  1  0  0  0  0
 25 27  1  0  0  0  0
 26  8  1  0  0  0  0
 27  1  1  0  0  0  0
 27 21  1  0  0  0  0
 28 15  1  0  0  0  0
 29 30  1  0  0  0  0
 30 23  1  0  0  0  0
 31 30  2  0  0  0  0
 32 34  1  0  0  0  0
 33 34  2  0  0  0  0
 33 35  1  0  0  0  0
 34 31  1  0  0  0  0
 35 29  2  0  0  0  0
 37 36  1  0  0  0  0
M  END
>  <MODEL>
1

>  <REMARK>
 VINA RESULT:      -4.3      0.000      0.000
  Name = 
  2 active torsions:
  status: ('A' for Active; 'I' for Inactive)
    1  A    between atoms: C_4  and  O_37
    2  A    between atoms: C_23  and  C_30
                            x       y       z     vdW  Elec       q    Type
                         _______ _______ _______ _____ _____    ______ ____

>  <TORSDO>
F 2

$$$$
=
 OpenBabel11122413453D

 37 43  0  0  1  0  0  0  0  0999 V2000
  161.1790  211.5310  154.2900 C   0  0  0  0  0  2  0  0  0  0  0  0
  161.7180  206.8780  150.9950 S   0  0  0  0  0  0  0  0  0  0  0  0
  160.9310  211.1210  150.6250 C   0  0  2  0  0  3  0  0  0  0  0  0
  161.9020  211.3470  155.6480 C   0  0  1  0  0  3  0  0  0  0  0  0
  157.9500  212.2400  152.6760 C   0  0  0  0  0  2  0  0  0  0  0  0
  162.3700  209.2420  149.8820 C   0  0  0  0  0  0  0  0  0  0  0  0
  160.2520  211.5490  151.7810 N   0  0  1  0  0  0  0  0  0  0  0  0
  159.6150  211.8480  156.7760 C   0  0  2  0  0  3  0  0  0  0  0  0
  161.5630  209.8180  150.8470 C   0  0  0  0  0  0  0  0  0  0  0  0
  159.0440  212.4540  151.5830 C   0  0  1  0  0  3  0  0  0  0  0  0
  162.7750  210.2280  148.7290 C   0  0  0  0  0  3  0  0  0  0  0  0
  161.0020  211.2350  156.8650 C   0  0  0  0  0  2  0  0  0  0  0  0
  161.1010  209.1610  152.1210 C   0  0  2  0  0  3  0  0  0  0  0  0
  162.7020  206.3230  152.0200 O   0  0  0  0  0  0  0  0  0  0  0  0
  160.9290  213.3480  149.5070 C   0  0  0  0  0  2  0  0  0  0  0  0
  162.2930  211.5040  148.6380 C   0  0  0  0  0  3  0  0  0  0  0  0
  160.4580  207.8570  151.7870 C   0  0  0  0  0  2  0  0  0  0  0  0
  158.5070  211.1800  155.9330 C   0  0  0  0  0  2  0  0  0  0  0  0
  158.5060  212.4080  153.9450 O   0  0  0  0  0  0  0  0  0  0  0  0
  161.5810  212.0360  149.7310 N   0  0  0  0  0  0  0  0  0  0  0  0
  160.0420  210.2770  152.4850 C   0  0  1  0  0  3  0  0  0  0  0  0
  162.5270  207.8910  149.8260 N   0  0  0  0  0  2  0  0  0  0  0  0
  158.5170  212.5600  150.1180 C   0  0  2  0  0  3  0  0  0  0  0  0
  161.1120  205.8030  150.2010 O   0  0  0  0  0  0  0  0  0  0  0  0
  158.6340  211.1340  154.4310 C   0  0  1  0  0  3  0  0  0  0  0  0
  159.3880  213.1710  157.2570 O   0  0  0  0  0  1  0  0  0  0  0  0
  159.9780  210.5310  153.9960 C   0  0  2  0  0  3  0  0  0  0  0  0
  159.4630  213.2340  149.1050 C   0  0  0  0  0  2  0  0  0  0  0  0
  156.4200  213.5280  151.1600 C   0  0  0  0  0  3  0  0  0  0  0  0
  157.1890  213.2510  150.0000 C   0  0  0  0  0  0  0  0  0  0  0  0
  156.6730  213.5500  148.7120 C   0  0  0  0  0  3  0  0  0  0  0  0
  154.9410  214.4350  147.2500 N   0  0  0  0  0  1  0  0  0  0  0  0
  154.7090  214.4530  149.7280 C   0  0  0  0  0  3  0  0  0  0  0  0
  155.4430  214.1320  148.5750 C   0  0  0  0  0  0  0  0  0  0  0  0
  155.1830  214.1350  151.0200 C   0  0  0  0  0  3  0  0  0  0  0  0
  162.7370  209.7550  156.9260 C   0  0  0  0  0  1  0  0  0  0  0  0
  162.8280  210.3030  155.6360 O   0  0  0  0  0  0  0  0  0  0  0  0
  1  4  1  0  0  0  0
  2 17  1  0  0  0  0
  2 14  2  0  0  0  0
  3  9  1  1  0  0  0
  3  7  1  0  0  0  0
  4 37  1  6  0  0  0
  4 12  1  0  0  0  0
  5 19  1  0  0  0  0
  6  9  2  0  0  0  0
  7 21  1  0  0  0  0
  8 12  1  0  0  0  0
  8 26  1  0  0  0  0
  9 13  1  0  0  0  0
 10  7  1  0  0  0  0
 10  5  1  0  0  0  0
 11  6  1  0  0  0  0
 13 21  1  0  0  0  0
 15 20  1  0  0  0  0
 16 11  2  0  0  0  0
 16 20  1  0  0  0  0
 17 13  1  0  0  0  0
 18  8  1  0  0  0  0
 19 25  1  0  0  0  0
 20  3  1  0  0  0  0
 21 27  1  0  0  0  0
 22  6  1  0  0  0  0
 22  2  1  0  0  0  0
 23 10  1  0  0  0  0
 24  2  2  0  0  0  0
 25 18  1  0  0  0  0
 27  1  1  0  0  0  0
 27 25  1  0  0  0  0
 28 15  1  0  0  0  0
 28 23  1  0  0  0  0
 30 23  1  0  0  0  0
 30 29  2  0  0  0  0
 31 30  1  0  0  0  0
 32 34  1  0  0  0  0
 33 35  2  0  0  0  0
 34 31  2  0  0  0  0
 34 33  1  0  0  0  0
 35 29  1  0  0  0  0
 37 36  1  0  0  0  0
M  END
>  <MODEL>
2

>  <REMARK>
 VINA RESULT:      -1.3      2.708      5.780
  Name = 
  2 active torsions:
  status: ('A' for Active; 'I' for Inactive)
    1  A    between atoms: C_4  and  O_37
    2  A    between atoms: C_23  and  C_30
                            x       y       z     vdW  Elec       q    Type
                         _______ _______ _______ _____ _____    ______ ____

>  <TORSDO>
F 2

$$$$
