=
 OpenBabel11122413383D

 37 44  0  0  1  0  0  0  0  0999 V2000
  160.5620  211.8060  154.7480 C   0  0  0  0  0  2  0  0  0  0  0  0
  161.5500  207.5930  152.1190 C   0  0  0  0  0  0  0  0  0  0  0  0
  160.6390  211.6230  151.1210 C   0  0  1  0  0  3  0  0  0  0  0  0
  160.5690  212.1100  156.2360 C   0  0  1  0  0  0  0  0  0  0  0  0
  157.8850  213.1600  152.9950 O   0  0  0  0  0  0  0  0  0  0  0  0
  161.9260  209.4970  150.4710 C   0  0  1  0  0  3  0  0  0  0  0  0
  159.2950  211.7860  151.8220 C   0  0  2  0  0  3  0  0  0  0  0  0
  158.2490  212.9820  156.7320 C   0  0  2  0  0  3  0  0  0  0  0  0
  160.6940  210.1360  151.1140 C   0  0  1  0  0  3  0  0  0  0  0  0
  159.1180  213.1200  152.4240 N   0  0  1  0  0  0  0  0  0  0  0  0
  162.8630  210.5570  149.8920 C   0  0  0  0  0  2  0  0  0  0  0  0
  159.7490  213.2750  156.7670 C   0  0  0  0  0  2  0  0  0  0  0  0
  160.4970  209.7810  152.4950 N   0  0  2  0  0  0  0  0  0  0  0  0
  162.1260  207.0340  153.2440 F   0  0  0  0  0  0  0  0  0  0  0  0
  160.8120  213.6570  149.5410 C   0  0  0  0  0  2  0  0  0  0  0  0
  162.0690  211.5550  149.0170 C   0  0  0  0  0  2  0  0  0  0  0  0
  160.2610  208.3440  152.5400 C   0  0  0  0  0  2  0  0  0  0  0  0
  157.7090  212.6500  155.3370 C   0  0  1  0  0  3  0  0  0  0  0  0
  158.1000  213.6770  154.2750 C   0  0  0  0  0  2  0  0  0  0  0  0
  160.7920  212.1320  149.6850 C   0  0  1  0  0  3  0  0  0  0  0  0
  159.3230  210.5830  152.8430 C   0  0  1  0  0  3  0  0  0  0  0  0
  162.5960  208.5120  151.4350 C   0  0  0  0  0  2  0  0  0  0  0  0
  159.1540  214.2020  151.4180 C   0  0  1  0  0  3  0  0  0  0  0  0
  161.2050  206.5770  151.2470 F   0  0  0  0  0  0  0  0  0  0  0  0
  158.0020  211.1950  154.9510 C   0  0  0  0  0  2  0  0  0  0  0  0
  157.5530  214.0690  157.2600 O   0  0  0  0  0  1  0  0  0  0  0  0
  159.3840  210.9100  154.3430 C   0  0  2  0  0  3  0  0  0  0  0  0
  160.5400  214.4530  150.8180 C   0  0  0  0  0  2  0  0  0  0  0  0
  161.0520  211.0840  157.1790 C   0  0  0  0  0  2  0  0  0  0  0  0
  161.8780  212.1410  156.7410 O   0  0  0  0  0  0  0  0  0  0  0  0
  158.2480  214.3630  149.0870 C   0  0  0  0  0  3  0  0  0  0  0  0
  157.9880  214.2660  150.4600 C   0  0  0  0  0  0  0  0  0  0  0  0
  156.6590  214.2170  150.9060 C   0  0  0  0  0  3  0  0  0  0  0  0
  154.2930  214.2210  150.4410 O   0  0  0  0  0  1  0  0  0  0  0  0
  155.8720  214.3680  148.6230 C   0  0  0  0  0  3  0  0  0  0  0  0
  155.6050  214.2690  149.9920 C   0  0  0  0  0  0  0  0  0  0  0  0
  157.1940  214.4140  148.1720 C   0  0  0  0  0  3  0  0  0  0  0  0
  1  4  1  0  0  0  0
  2 17  1  0  0  0  0
  2 14  1  0  0  0  0
  3  7  1  0  0  0  0
  4 30  1  0  0  0  0
  4 12  1  0  0  0  0
  4 29  1  0  0  0  0
  5 19  1  0  0  0  0
  6  9  1  0  0  0  0
  6 22  1  0  0  0  0
  7 10  1  0  0  0  0
  7 21  1  0  0  0  0
  8 12  1  0  0  0  0
  8 26  1  0  0  0  0
  9  3  1  0  0  0  0
  9 13  1  0  0  0  0
 10  5  1  0  0  0  0
 11  6  1  0  0  0  0
 13 17  1  0  0  0  0
 13 21  1  0  0  0  0
 15 20  1  0  0  0  0
 15 28  1  0  0  0  0
 16 20  1  0  0  0  0
 16 11  1  0  0  0  0
 18  8  1  0  0  0  0
 19 18  1  0  0  0  0
 20  3  1  0  0  0  0
 21 27  1  0  0  0  0
 22  2  1  0  0  0  0
 23 10  1  0  0  0  0
 24  2  1  0  0  0  0
 25 18  1  0  0  0  0
 27  1  1  0  0  0  0
 27 25  1  0  0  0  0
 28 23  1  0  0  0  0
 30 29  1  0  0  0  0
 31 32  1  0  0  0  0
 32 33  2  0  0  0  0
 32 23  1  0  0  0  0
 35 36  2  0  0  0  0
 36 34  1  0  0  0  0
 36 33  1  0  0  0  0
 37 35  1  0  0  0  0
 37 31  2  0  0  0  0
M  END
>  <MODEL>
1

>  <REMARK>
 VINA RESULT:      -2.9      0.000      0.000
  Name = 
  1 active torsions:
  status: ('A' for Active; 'I' for Inactive)
    1  A    between atoms: C_23  and  C_30
                            x       y       z     vdW  Elec       q    Type
                         _______ _______ _______ _____ _____    ______ ____

>  <TORSDO>
F 1

$$$$
=
 OpenBabel11122413383D

 37 44  0  0  1  0  0  0  0  0999 V2000
  161.7770  210.4750  154.6690 C   0  0  0  0  0  2  0  0  0  0  0  0
  161.4850  205.9220  152.4730 C   0  0  0  0  0  0  0  0  0  0  0  0
  161.2490  209.9430  151.1140 C   0  0  1  0  0  3  0  0  0  0  0  0
  162.0770  210.9080  156.0940 C   0  0  1  0  0  0  0  0  0  0  0  0
  159.1830  212.2040  153.1340 O   0  0  0  0  0  0  0  0  0  0  0  0
  161.9700  207.5390  150.5670 C   0  0  1  0  0  3  0  0  0  0  0  0
  160.0910  210.4550  151.9630 C   0  0  2  0  0  3  0  0  0  0  0  0
  160.0830  212.3000  156.7830 C   0  0  2  0  0  3  0  0  0  0  0  0
  161.0050  208.4850  151.2840 C   0  0  1  0  0  3  0  0  0  0  0  0
  160.2790  211.8460  152.4140 N   0  0  1  0  0  0  0  0  0  0  0  0
  162.9970  208.3150  149.7420 C   0  0  0  0  0  2  0  0  0  0  0  0
  161.5980  212.2660  156.5800 C   0  0  0  0  0  2  0  0  0  0  0  0
  160.9590  208.3100  152.7120 N   0  0  2  0  0  0  0  0  0  0  0  0
  162.1060  205.3600  153.5710 F   0  0  0  0  0  0  0  0  0  0  0  0
  161.5740  211.7360  149.2860 C   0  0  0  0  0  2  0  0  0  0  0  0
  162.2910  209.3740  148.8630 C   0  0  0  0  0  2  0  0  0  0  0  0
  160.4530  206.9690  152.9660 C   0  0  0  0  0  2  0  0  0  0  0  0
  159.2770  211.9630  155.5230 C   0  0  1  0  0  3  0  0  0  0  0  0
  159.6940  212.7790  154.3000 C   0  0  0  0  0  2  0  0  0  0  0  0
  161.2740  210.2710  149.6190 C   0  0  1  0  0  3  0  0  0  0  0  0
  160.0370  209.3750  153.1120 C   0  0  1  0  0  3  0  0  0  0  0  0
  162.5730  206.5270  151.5480 C   0  0  0  0  0  2  0  0  0  0  0  0
  160.3720  212.7960  151.2850 C   0  0  1  0  0  3  0  0  0  0  0  0
  160.8130  204.9280  151.7870 F   0  0  0  0  0  0  0  0  0  0  0  0
  159.2110  210.4500  155.2850 C   0  0  0  0  0  2  0  0  0  0  0  0
  159.7080  213.5560  157.2600 O   0  0  0  0  0  1  0  0  0  0  0  0
  160.3960  209.8200  154.5380 C   0  0  2  0  0  3  0  0  0  0  0  0
  161.6690  212.6870  150.4800 C   0  0  0  0  0  2  0  0  0  0  0  0
  162.4870  209.8950  157.0840 C   0  0  0  0  0  2  0  0  0  0  0  0
  163.4280  210.7040  156.4120 O   0  0  0  0  0  0  0  0  0  0  0  0
  157.9230  213.3170  151.1760 C   0  0  0  0  0  3  0  0  0  0  0  0
  159.1070  213.0200  150.4900 C   0  0  0  0  0  0  0  0  0  0  0  0
  159.0920  212.9530  149.0890 C   0  0  0  0  0  3  0  0  0  0  0  0
  157.8980  213.1070  146.9990 O   0  0  0  0  0  1  0  0  0  0  0  0
  156.7280  213.4690  149.0770 C   0  0  0  0  0  3  0  0  0  0  0  0
  157.9060  213.1760  148.3850 C   0  0  0  0  0  0  0  0  0  0  0  0
  156.7370  213.5410  150.4730 C   0  0  0  0  0  3  0  0  0  0  0  0
  1  4  1  0  0  0  0
  2 17  1  0  0  0  0
  2 14  1  0  0  0  0
  3  9  1  0  0  0  0
  3  7  1  0  0  0  0
  4 30  1  0  0  0  0
  4 12  1  0  0  0  0
  4 29  1  0  0  0  0
  5 19  1  0  0  0  0
  6  9  1  0  0  0  0
  6 22  1  0  0  0  0
  7 10  1  0  0  0  0
  7 21  1  0  0  0  0
  8 26  1  0  0  0  0
  9 13  1  0  0  0  0
 10  5  1  0  0  0  0
 11  6  1  0  0  0  0
 12  8  1  0  0  0  0
 13 17  1  0  0  0  0
 13 21  1  0  0  0  0
 15 20  1  0  0  0  0
 15 28  1  0  0  0  0
 16 20  1  0  0  0  0
 16 11  1  0  0  0  0
 18  8  1  0  0  0  0
 19 18  1  0  0  0  0
 20  3  1  0  0  0  0
 21 27  1  0  0  0  0
 22  2  1  0  0  0  0
 23 10  1  0  0  0  0
 24  2  1  0  0  0  0
 25 18  1  0  0  0  0
 27  1  1  0  0  0  0
 27 25  1  0  0  0  0
 28 23  1  0  0  0  0
 30 29  1  0  0  0  0
 32 31  1  0  0  0  0
 32 23  1  0  0  0  0
 33 32  2  0  0  0  0
 34 36  1  0  0  0  0
 35 37  1  0  0  0  0
 36 35  2  0  0  0  0
 36 33  1  0  0  0  0
 37 31  2  0  0  0  0
M  END
>  <MODEL>
2

>  <REMARK>
 VINA RESULT:      -1.8      1.678      2.109
  Name = 
  1 active torsions:
  status: ('A' for Active; 'I' for Inactive)
    1  A    between atoms: C_23  and  C_30
                            x       y       z     vdW  Elec       q    Type
                         _______ _______ _______ _____ _____    ______ ____

>  <TORSDO>
F 1

$$$$
