=
 OpenBabel11122413053D

 32 38  0  0  1  0  0  0  0  0999 V2000
  161.7770  211.0230  153.8570 O   0  0  0  0  0  0  0  0  0  0  0  0
  161.5030  207.1940  150.3830 C   0  0  2  0  0  3  0  0  0  0  0  0
  161.1080  202.9820  152.7540 C   0  0  0  0  0  3  0  0  0  0  0  0
  161.1130  202.2800  151.5460 C   0  0  0  0  0  3  0  0  0  0  0  0
  162.1020  206.9600  147.9420 C   0  0  0  0  0  0  0  0  0  0  0  0
  161.9370  206.2940  146.6010 C   0  0  1  0  0  3  0  0  0  0  0  0
  161.0580  209.3440  151.6080 C   0  0  1  0  0  3  0  0  0  0  0  0
  160.9350  207.1830  152.7230 O   0  0  0  0  0  0  0  0  0  0  0  0
  161.4360  204.3070  145.4970 C   0  0  2  0  0  3  0  0  0  0  0  0
  160.2800  209.1290  153.9970 C   0  0  0  0  0  2  0  0  0  0  0  0
  160.9830  204.3730  152.7530 C   0  0  0  0  0  3  0  0  0  0  0  0
  160.6610  206.5500  151.4970 C   0  0  2  0  0  3  0  0  0  0  0  0
  160.8840  205.0690  151.5410 C   0  0  0  0  0  0  0  0  0  0  0  0
  160.7180  205.1540  149.0370 C   0  0  2  0  0  3  0  0  0  0  0  0
  162.8090  204.7660  145.0280 C   0  0  0  0  0  2  0  0  0  0  0  0
  162.7220  210.0480  153.4820 C   0  0  2  0  0  3  0  0  0  0  0  0
  160.3350  208.4550  152.6340 C   0  0  1  0  0  3  0  0  0  0  0  0
  163.2430  205.8140  146.0180 C   0  0  0  0  0  2  0  0  0  0  0  0
  162.5090  209.5990  152.0280 C   0  0  0  0  0  2  0  0  0  0  0  0
  161.6150  209.7430  154.4320 C   0  0  1  0  0  0  0  0  0  0  0  0
  160.9970  202.9690  150.3360 C   0  0  0  0  0  3  0  0  0  0  0  0
  160.8950  204.3700  150.3230 C   0  0  0  0  0  0  0  0  0  0  0  0
  161.1700  204.3570  147.8120 C   0  0  0  0  0  2  0  0  0  0  0  0
  161.0340  208.6470  150.2420 C   0  0  0  0  0  2  0  0  0  0  0  0
  162.8410  207.9780  148.0270 O   0  0  0  0  0  0  0  0  0  0  0  0
  160.4460  204.4030  144.3530 C   0  0  0  0  0  1  0  0  0  0  0  0
  161.4230  206.4500  149.1090 N   0  0  0  0  0  0  0  0  0  0  0  0
  161.0020  205.1600  146.6020 N   0  0  1  0  0  0  0  0  0  0  0  0
  161.9750  209.7500  155.9130 C   0  0  0  0  0  2  0  0  0  0  0  0
  160.8370  209.2970  156.7720 C   0  0  0  0  0  0  0  0  0  0  0  0
  160.7520  207.8710  157.1940 C   0  0  0  0  0  1  0  0  0  0  0  0
  159.9630  210.0810  157.1050 O   0  0  0  0  0  0  0  0  0  0  0  0
  1 20  1  0  0  0  0
  2 24  1  6  0  0  0
  2 12  1  0  0  0  0
  4  3  2  0  0  0  0
  5 25  2  0  0  0  0
  5 27  1  0  0  0  0
  6 18  1  1  0  0  0
  6 28  1  0  0  0  0
  6  5  1  0  0  0  0
  7 24  1  6  0  0  0
  7 19  1  0  0  0  0
  7 17  1  0  0  0  0
  9 26  1  6  0  0  0
  9 28  1  0  0  0  0
 10 20  1  0  0  0  0
 11  3  1  0  0  0  0
 12 13  1  1  0  0  0
 12  8  1  0  0  0  0
 13 11  2  0  0  0  0
 14 23  1  6  0  0  0
 14 27  1  0  0  0  0
 14 22  1  0  0  0  0
 15  9  1  0  0  0  0
 15 18  1  0  0  0  0
 16 19  1  6  0  0  0
 16  1  1  0  0  0  0
 16 20  1  0  0  0  0
 17  8  1  0  0  0  0
 17 10  1  1  0  0  0
 20 29  1  1  0  0  0
 21  4  1  0  0  0  0
 22 21  2  0  0  0  0
 22 13  1  0  0  0  0
 27  2  1  0  0  0  0
 28 23  1  1  0  0  0
 29 30  1  0  0  0  0
 30 32  2  0  0  0  0
 30 31  1  0  0  0  0
M  END
>  <MODEL>
1

>  <REMARK>
 VINA RESULT:      -6.9      0.000      0.000
  Name = 
  2 active torsions:
  status: ('A' for Active; 'I' for Inactive)
    1  A    between atoms: C_20  and  C_29
    2  A    between atoms: C_29  and  C_30
                            x       y       z     vdW  Elec       q    Type
                         _______ _______ _______ _____ _____    ______ ____

>  <TORSDO>
F 2

$$$$
=
 OpenBabel11122413053D

 32 38  0  0  1  0  0  0  0  0999 V2000
  161.4870  205.6260  144.3650 O   0  0  0  0  0  0  0  0  0  0  0  0
  161.5440  206.9640  149.3670 C   0  0  2  0  0  3  0  0  0  0  0  0
  160.4040  203.0690  152.0220 C   0  0  0  0  0  3  0  0  0  0  0  0
  160.4810  203.8240  153.1950 C   0  0  0  0  0  3  0  0  0  0  0  0
  161.4280  209.1500  150.6250 C   0  0  0  0  0  0  0  0  0  0  0  0
  161.7030  209.9830  151.8500 C   0  0  1  0  0  3  0  0  0  0  0  0
  162.2300  206.6620  146.9670 C   0  0  1  0  0  3  0  0  0  0  0  0
  161.5910  204.7750  148.3660 O   0  0  0  0  0  0  0  0  0  0  0  0
  161.9260  209.9690  154.1670 C   0  0  2  0  0  3  0  0  0  0  0  0
  162.4180  204.2850  146.1490 C   0  0  0  0  0  2  0  0  0  0  0  0
  160.8590  203.6060  150.8150 C   0  0  0  0  0  3  0  0  0  0  0  0
  161.9530  205.4900  149.5220 C   0  0  2  0  0  3  0  0  0  0  0  0
  161.3750  204.9090  150.7750 C   0  0  0  0  0  0  0  0  0  0  0  0
  162.0740  207.0540  151.8770 C   0  0  2  0  0  3  0  0  0  0  0  0
  160.8340  210.9670  153.8120 C   0  0  0  0  0  2  0  0  0  0  0  0
  160.4330  205.8270  145.2790 C   0  0  2  0  0  3  0  0  0  0  0  0
  162.4860  205.1990  147.3630 C   0  0  1  0  0  3  0  0  0  0  0  0
  160.4710  210.6730  152.3800 C   0  0  0  0  0  2  0  0  0  0  0  0
  160.8300  206.8340  146.3710 C   0  0  0  0  0  2  0  0  0  0  0  0
  161.2110  204.5560  145.2440 C   0  0  1  0  0  0  0  0  0  0  0  0
  161.0090  205.1160  153.1620 C   0  0  0  0  0  3  0  0  0  0  0  0
  161.4480  205.6750  151.9500 C   0  0  0  0  0  0  0  0  0  0  0  0
  161.7080  207.9150  153.0870 C   0  0  0  0  0  2  0  0  0  0  0  0
  162.3690  207.5460  148.2130 C   0  0  0  0  0  2  0  0  0  0  0  0
  160.9560  209.7130  149.6010 O   0  0  0  0  0  0  0  0  0  0  0  0
  163.1260  210.7030  154.7330 C   0  0  0  0  0  1  0  0  0  0  0  0
  161.7040  207.7330  150.6180 N   0  0  0  0  0  0  0  0  0  0  0  0
  162.3130  209.2390  152.9610 N   0  0  1  0  0  0  0  0  0  0  0  0
  160.5620  203.3880  144.5110 C   0  0  0  0  0  2  0  0  0  0  0  0
  160.4300  202.1790  145.3830 C   0  0  0  0  0  0  0  0  0  0  0  0
  159.7730  200.9530  144.8500 C   0  0  0  0  0  1  0  0  0  0  0  0
  160.8300  202.2010  146.5350 O   0  0  0  0  0  0  0  0  0  0  0  0
  1 20  1  0  0  0  0
  1 16  1  0  0  0  0
  2 24  1  6  0  0  0
  2 12  1  0  0  0  0
  2 27  1  0  0  0  0
  3  4  1  0  0  0  0
  5  6  1  0  0  0  0
  6 18  1  1  0  0  0
  6 28  1  0  0  0  0
  7 19  1  1  0  0  0
  7 17  1  0  0  0  0
  7 24  1  0  0  0  0
  9 26  1  6  0  0  0
 11  3  2  0  0  0  0
 12  8  1  6  0  0  0
 12 13  1  0  0  0  0
 13 11  1  0  0  0  0
 13 22  2  0  0  0  0
 14 22  1  0  0  0  0
 14 23  1  1  0  0  0
 15  9  1  0  0  0  0
 16 19  1  1  0  0  0
 17 10  1  6  0  0  0
 17  8  1  0  0  0  0
 18 15  1  0  0  0  0
 20 29  1  6  0  0  0
 20 16  1  0  0  0  0
 20 10  1  0  0  0  0
 21  4  2  0  0  0  0
 22 21  1  0  0  0  0
 25  5  2  0  0  0  0
 27  5  1  0  0  0  0
 27 14  1  0  0  0  0
 28 23  1  1  0  0  0
 28  9  1  0  0  0  0
 29 30  1  0  0  0  0
 30 32  2  0  0  0  0
 31 30  1  0  0  0  0
M  END
>  <MODEL>
2

>  <REMARK>
 VINA RESULT:      -6.0      2.406      7.821
  Name = 
  2 active torsions:
  status: ('A' for Active; 'I' for Inactive)
    1  A    between atoms: C_20  and  C_29
    2  A    between atoms: C_29  and  C_30
                            x       y       z     vdW  Elec       q    Type
                         _______ _______ _______ _____ _____    ______ ____

>  <TORSDO>
F 2

$$$$
=
 OpenBabel11122413053D

 32 38  0  0  1  0  0  0  0  0999 V2000
  160.2340  207.4980  156.8830 O   0  0  0  0  0  0  0  0  0  0  0  0
  161.3190  207.3320  151.8230 C   0  0  2  0  0  3  0  0  0  0  0  0
  161.4010  211.8690  150.1100 C   0  0  0  0  0  3  0  0  0  0  0  0
  161.6560  211.3970  148.8200 C   0  0  0  0  0  3  0  0  0  0  0  0
  161.2140  205.5500  150.0380 C   0  0  0  0  0  0  0  0  0  0  0  0
  161.6610  204.9760  148.7190 C   0  0  1  0  0  3  0  0  0  0  0  0
  161.4370  206.9500  154.3050 C   0  0  1  0  0  3  0  0  0  0  0  0
  161.4210  209.1900  153.3510 O   0  0  0  0  0  0  0  0  0  0  0  0
  162.4400  205.4660  146.5810 C   0  0  2  0  0  3  0  0  0  0  0  0
  161.7440  209.0010  155.7390 C   0  0  0  0  0  2  0  0  0  0  0  0
  161.4720  210.9970  151.2000 C   0  0  0  0  0  3  0  0  0  0  0  0
  161.9520  208.6960  152.1460 C   0  0  2  0  0  3  0  0  0  0  0  0
  161.7800  209.6450  150.9990 C   0  0  0  0  0  0  0  0  0  0  0  0
  162.4250  207.7080  149.5370 C   0  0  2  0  0  3  0  0  0  0  0  0
  161.1680  204.6440  146.4350 C   0  0  0  0  0  2  0  0  0  0  0  0
  159.4160  207.7150  155.7560 C   0  0  2  0  0  3  0  0  0  0  0  0
  161.9800  208.3870  154.3660 C   0  0  1  0  0  3  0  0  0  0  0  0
  160.5120  204.6730  147.7900 C   0  0  0  0  0  2  0  0  0  0  0  0
  159.9250  206.9220  154.5410 C   0  0  0  0  0  2  0  0  0  0  0  0
  160.3290  208.7710  156.2790 C   0  0  1  0  0  0  0  0  0  0  0  0
  161.9790  210.0530  148.6180 C   0  0  0  0  0  3  0  0  0  0  0  0
  162.0310  209.1630  149.7040 C   0  0  0  0  0  0  0  0  0  0  0  0
  162.2490  207.2280  148.0960 C   0  0  0  0  0  2  0  0  0  0  0  0
  161.7520  206.3580  152.9250 C   0  0  0  0  0  2  0  0  0  0  0  0
  160.4350  204.8720  150.7620 O   0  0  0  0  0  0  0  0  0  0  0  0
  163.6290  204.6610  146.0960 C   0  0  0  0  0  1  0  0  0  0  0  0
  161.6720  206.8480  150.4720 N   0  0  0  0  0  0  0  0  0  0  0  0
  162.6190  205.8180  147.9890 N   0  0  1  0  0  0  0  0  0  0  0  0
  159.6880  209.8470  157.1470 C   0  0  0  0  0  2  0  0  0  0  0  0
  159.7160  211.1920  156.4900 C   0  0  0  0  0  0  0  0  0  0  0  0
  158.9660  211.4100  155.2230 C   0  0  0  0  0  1  0  0  0  0  0  0
  160.3720  212.1010  156.9720 O   0  0  0  0  0  0  0  0  0  0  0  0
  2 12  1  0  0  0  0
  2 24  1  1  0  0  0
  3 11  1  0  0  0  0
  4  3  2  0  0  0  0
  5 27  1  0  0  0  0
  5 25  2  0  0  0  0
  6 18  1  6  0  0  0
  6  5  1  0  0  0  0
  7 24  1  6  0  0  0
  7 17  1  0  0  0  0
  7 19  1  0  0  0  0
  8 17  1  0  0  0  0
  9 26  1  1  0  0  0
  9 28  1  0  0  0  0
 10 20  1  0  0  0  0
 12 13  1  6  0  0  0
 12  8  1  0  0  0  0
 13 11  2  0  0  0  0
 14 23  1  6  0  0  0
 14 22  1  0  0  0  0
 14 27  1  0  0  0  0
 15  9  1  0  0  0  0
 15 18  1  0  0  0  0
 16 19  1  6  0  0  0
 16 20  1  0  0  0  0
 16  1  1  0  0  0  0
 17 10  1  1  0  0  0
 20  1  1  0  0  0  0
 20 29  1  1  0  0  0
 21  4  1  0  0  0  0
 21 22  2  0  0  0  0
 22 13  1  0  0  0  0
 27  2  1  0  0  0  0
 28 23  1  6  0  0  0
 28  6  1  0  0  0  0
 30 32  2  0  0  0  0
 30 29  1  0  0  0  0
 31 30  1  0  0  0  0
M  END
>  <MODEL>
3

>  <REMARK>
 VINA RESULT:      -6.0      1.911      4.250
  Name = 
  2 active torsions:
  status: ('A' for Active; 'I' for Inactive)
    1  A    between atoms: C_20  and  C_29
    2  A    between atoms: C_29  and  C_30
                            x       y       z     vdW  Elec       q    Type
                         _______ _______ _______ _____ _____    ______ ____

>  <TORSDO>
F 2

$$$$
=
 OpenBabel11122413053D

 32 38  0  0  1  0  0  0  0  0999 V2000
  160.8070  200.9800  150.3600 O   0  0  0  0  0  0  0  0  0  0  0  0
  161.0200  205.8960  151.9730 C   0  0  2  0  0  3  0  0  0  0  0  0
  162.4110  208.6830  148.2550 C   0  0  0  0  0  3  0  0  0  0  0  0
  162.3870  209.8160  149.0720 C   0  0  0  0  0  3  0  0  0  0  0  0
  161.1590  207.0250  154.2260 C   0  0  0  0  0  0  0  0  0  0  0  0
  160.9380  208.2170  155.1200 C   0  0  1  0  0  3  0  0  0  0  0  0
  160.1970  203.5630  151.5240 C   0  0  1  0  0  3  0  0  0  0  0  0
  160.9640  205.0200  149.7300 O   0  0  0  0  0  0  0  0  0  0  0  0
  160.8550  210.5410  155.2300 C   0  0  2  0  0  3  0  0  0  0  0  0
  160.0180  202.8880  149.1010 C   0  0  0  0  0  2  0  0  0  0  0  0
  161.8710  207.4790  148.7150 C   0  0  0  0  0  3  0  0  0  0  0  0
  160.6560  206.1560  150.5010 C   0  0  2  0  0  3  0  0  0  0  0  0
  161.3230  207.4010  150.0020 C   0  0  0  0  0  0  0  0  0  0  0  0
  160.6390  208.4260  152.1900 C   0  0  2  0  0  3  0  0  0  0  0  0
  161.9000  210.0660  156.2300 C   0  0  0  0  0  2  0  0  0  0  0  0
  161.9080  201.8150  150.6330 C   0  0  2  0  0  3  0  0  0  0  0  0
  160.0000  204.0530  150.0800 C   0  0  1  0  0  3  0  0  0  0  0  0
  162.1830  208.6320  155.8640 C   0  0  0  0  0  2  0  0  0  0  0  0
  161.5540  202.8730  151.6900 C   0  0  0  0  0  2  0  0  0  0  0  0
  161.1600  201.8980  149.3460 C   0  0  1  0  0  0  0  0  0  0  0  0
  161.8260  209.7460  150.3490 C   0  0  0  0  0  3  0  0  0  0  0  0
  161.3020  208.5350  150.8300 C   0  0  0  0  0  0  0  0  0  0  0  0
  161.0570  209.5620  153.1240 C   0  0  0  0  0  2  0  0  0  0  0  0
  160.1120  204.7650  152.4720 C   0  0  0  0  0  2  0  0  0  0  0  0
  161.5540  205.9450  154.7420 O   0  0  0  0  0  0  0  0  0  0  0  0
  159.6740  211.1390  155.9700 C   0  0  0  0  0  1  0  0  0  0  0  0
  160.9160  207.1120  152.8060 N   0  0  0  0  0  0  0  0  0  0  0  0
  160.4140  209.4020  154.4270 N   0  0  1  0  0  0  0  0  0  0  0  0
  161.7920  201.1890  148.1530 C   0  0  0  0  0  2  0  0  0  0  0  0
  161.2780  201.7160  146.8500 C   0  0  0  0  0  0  0  0  0  0  0  0
  161.5630  203.1240  146.4580 C   0  0  0  0  0  1  0  0  0  0  0  0
  160.6040  201.0080  146.1200 O   0  0  0  0  0  0  0  0  0  0  0  0
  1 16  1  0  0  0  0
  2 24  1  1  0  0  0
  2 27  1  0  0  0  0
  3 11  2  0  0  0  0
  3  4  1  0  0  0  0
  4 21  2  0  0  0  0
  5 25  2  0  0  0  0
  5  6  1  0  0  0  0
  6 18  1  6  0  0  0
  7 19  1  6  0  0  0
  7 24  1  0  0  0  0
  8 17  1  0  0  0  0
  9 26  1  1  0  0  0
  9 15  1  0  0  0  0
 10 20  1  0  0  0  0
 11 13  1  0  0  0  0
 12  8  1  6  0  0  0
 12  2  1  0  0  0  0
 13 12  1  0  0  0  0
 13 22  2  0  0  0  0
 14 27  1  0  0  0  0
 14 23  1  1  0  0  0
 16 19  1  1  0  0  0
 17 10  1  6  0  0  0
 17  7  1  0  0  0  0
 18 15  1  0  0  0  0
 20 29  1  6  0  0  0
 20  1  1  0  0  0  0
 20 16  1  0  0  0  0
 21 22  1  0  0  0  0
 22 14  1  0  0  0  0
 27  5  1  0  0  0  0
 28 23  1  6  0  0  0
 28  6  1  0  0  0  0
 28  9  1  0  0  0  0
 30 29  1  0  0  0  0
 31 30  1  0  0  0  0
 32 30  2  0  0  0  0
M  END
>  <MODEL>
4

>  <REMARK>
 VINA RESULT:      -5.2      2.709      8.387
  Name = 
  2 active torsions:
  status: ('A' for Active; 'I' for Inactive)
    1  A    between atoms: C_20  and  C_29
    2  A    between atoms: C_29  and  C_30
                            x       y       z     vdW  Elec       q    Type
                         _______ _______ _______ _____ _____    ______ ____

>  <TORSDO>
F 2

$$$$
=
 OpenBabel11122413053D

 32 38  0  0  1  0  0  0  0  0999 V2000
  162.3150  207.2970  147.7450 O   0  0  0  0  0  0  0  0  0  0  0  0
  160.8320  209.4890  152.1950 C   0  0  2  0  0  3  0  0  0  0  0  0
  160.1050  205.9920  155.4750 C   0  0  0  0  0  3  0  0  0  0  0  0
  159.7060  206.9370  156.4220 C   0  0  0  0  0  3  0  0  0  0  0  0
  159.8730  211.7340  152.8400 C   0  0  0  0  0  0  0  0  0  0  0  0
  159.6270  212.8220  153.8520 C   0  0  1  0  0  3  0  0  0  0  0  0
  162.1270  208.9680  150.1040 C   0  0  1  0  0  3  0  0  0  0  0  0
  161.6670  207.2680  151.7850 O   0  0  0  0  0  0  0  0  0  0  0  0
  159.2850  213.3030  156.1030 C   0  0  2  0  0  3  0  0  0  0  0  0
  163.0970  206.6470  149.9390 C   0  0  0  0  0  2  0  0  0  0  0  0
  160.6870  206.4080  154.2740 C   0  0  0  0  0  3  0  0  0  0  0  0
  161.5500  208.2600  152.7760 C   0  0  2  0  0  3  0  0  0  0  0  0
  160.8530  207.7740  154.0100 C   0  0  0  0  0  0  0  0  0  0  0  0
  160.7050  210.1950  154.6600 C   0  0  2  0  0  3  0  0  0  0  0  0
  158.0950  213.8470  155.3260 C   0  0  0  0  0  2  0  0  0  0  0  0
  161.0570  207.3390  148.3790 C   0  0  2  0  0  3  0  0  0  0  0  0
  162.6400  207.7480  150.8850 C   0  0  1  0  0  3  0  0  0  0  0  0
  158.1720  213.1990  153.9690 C   0  0  0  0  0  2  0  0  0  0  0  0
  160.9150  208.6010  149.2440 C   0  0  0  0  0  2  0  0  0  0  0  0
  162.1140  206.3740  148.7950 C   0  0  1  0  0  0  0  0  0  0  0  0
  159.8850  208.2990  156.1690 C   0  0  0  0  0  3  0  0  0  0  0  0
  160.4470  208.7300  154.9560 C   0  0  0  0  0  0  0  0  0  0  0  0
  159.8560  211.1150  155.5380 C   0  0  0  0  0  2  0  0  0  0  0  0
  161.7370  210.0670  151.1000 C   0  0  0  0  0  2  0  0  0  0  0  0
  159.5340  211.9320  151.6410 O   0  0  0  0  0  0  0  0  0  0  0  0
  160.0900  214.4530  156.6770 C   0  0  0  0  0  1  0  0  0  0  0  0
  160.4900  210.4880  153.2290 N   0  0  0  0  0  0  0  0  0  0  0  0
  160.1210  212.5120  155.2010 N   0  0  1  0  0  0  0  0  0  0  0  0
  161.9750  204.9520  148.2660 C   0  0  0  0  0  2  0  0  0  0  0  0
  161.1780  204.0830  149.1880 C   0  0  0  0  0  0  0  0  0  0  0  0
  161.0060  202.6370  148.8760 C   0  0  0  0  0  1  0  0  0  0  0  0
  160.6450  204.5580  150.1780 O   0  0  0  0  0  0  0  0  0  0  0  0
  1 16  1  0  0  0  0
  1 20  1  0  0  0  0
  2 24  1  6  0  0  0
  2 12  1  0  0  0  0
  2 27  1  0  0  0  0
  3  4  1  0  0  0  0
  5 27  1  0  0  0  0
  5  6  1  0  0  0  0
  6 18  1  1  0  0  0
  6 28  1  0  0  0  0
  7 19  1  1  0  0  0
  7 17  1  0  0  0  0
  7 24  1  0  0  0  0
  9 26  1  6  0  0  0
 11  3  2  0  0  0  0
 12  8  1  6  0  0  0
 12 13  1  0  0  0  0
 13 11  1  0  0  0  0
 13 22  2  0  0  0  0
 14 22  1  0  0  0  0
 14 23  1  1  0  0  0
 15  9  1  0  0  0  0
 16 20  1  0  0  0  0
 16 19  1  1  0  0  0
 17 10  1  6  0  0  0
 17  8  1  0  0  0  0
 18 15  1  0  0  0  0
 20 29  1  6  0  0  0
 20 10  1  0  0  0  0
 21  4  2  0  0  0  0
 22 21  1  0  0  0  0
 25  5  2  0  0  0  0
 27 14  1  0  0  0  0
 28 23  1  1  0  0  0
 28  9  1  0  0  0  0
 29 30  1  0  0  0  0
 30 32  2  0  0  0  0
 31 30  1  0  0  0  0
M  END
>  <MODEL>
5

>  <REMARK>
 VINA RESULT:      -4.7      3.057      8.023
  Name = 
  2 active torsions:
  status: ('A' for Active; 'I' for Inactive)
    1  A    between atoms: C_20  and  C_29
    2  A    between atoms: C_29  and  C_30
                            x       y       z     vdW  Elec       q    Type
                         _______ _______ _______ _____ _____    ______ ____

>  <TORSDO>
F 2

$$$$
