=
 OpenBabel11122413443D

 37 43  0  0  1  0  0  0  0  0999 V2000
  161.8520  211.0900  149.2010 C   0  0  0  0  0  3  0  0  0  0  0  0
  161.8180  206.8800  148.9760 C   0  0  0  0  0  0  0  0  0  0  0  0
  161.6330  208.2060  152.8200 C   0  0  0  0  0  0  0  0  0  0  0  0
  161.5860  212.3750  148.6250 N   0  0  0  0  0  0  0  0  0  0  0  0
  159.1810  210.8260  152.7570 S   0  0  0  0  0  0  0  0  0  0  0  0
  162.1080  206.1160  151.4620 C   0  0  1  0  0  3  0  0  0  0  0  0
  161.6240  209.5670  152.5500 C   0  0  0  0  0  0  0  0  0  0  0  0
  159.7450  213.6070  149.7700 C   0  0  2  0  0  3  0  0  0  0  0  0
  162.1330  207.5960  151.6900 C   0  0  0  0  0  0  0  0  0  0  0  0
  160.9130  210.6600  153.3040 C   0  0  2  0  0  3  0  0  0  0  0  0
  160.9560  205.4850  152.2480 C   0  0  0  0  0  2  0  0  0  0  0  0
  161.2450  213.5240  149.4680 C   0  0  0  0  0  2  0  0  0  0  0  0
  162.3840  208.4960  150.7290 N   0  0  0  0  0  0  0  0  0  0  0  0
  160.3350  207.2120  148.9550 C   0  0  0  0  0  1  0  0  0  0  0  0
  161.1750  207.9200  155.2380 C   0  0  0  0  0  2  0  0  0  0  0  0
  161.0140  205.9440  153.7140 C   0  0  0  0  0  2  0  0  0  0  0  0
  162.6320  208.1310  149.3390 C   0  0  0  0  0  2  0  0  0  0  0  0
  159.1830  212.4000  150.5220 C   0  0  1  0  0  3  0  0  0  0  0  0
  159.4360  212.4610  151.9860 C   0  0  1  0  0  3  0  0  0  0  0  0
  160.8170  207.4640  153.8400 C   0  0  2  0  0  3  0  0  0  0  0  0
  162.0840  209.7060  151.2490 C   0  0  0  0  0  0  0  0  0  0  0  0
  162.0820  205.7290  149.9690 C   0  0  0  0  0  2  0  0  0  0  0  0
  161.0500  210.6250  154.8320 C   0  0  1  0  0  3  0  0  0  0  0  0
  162.2250  206.4260  147.5920 C   0  0  0  0  0  1  0  0  0  0  0  0
  158.2110  212.8670  151.4250 O   0  0  0  0  0  0  0  0  0  0  0  0
  159.0330  213.8010  148.6010 F   0  0  0  0  0  0  0  0  0  0  0  0
  161.9440  210.9640  150.5160 C   0  0  0  0  0  3  0  0  0  0  0  0
  160.1170  209.3170  155.7200 S   0  0  0  0  0  0  0  0  0  0  0  0
  162.6220  210.9800  156.7400 C   0  0  0  0  0  3  0  0  0  0  0  0
  162.4320  210.8750  155.3580 C   0  0  0  0  0  0  0  0  0  0  0  0
  163.5330  210.9950  154.4990 C   0  0  0  0  0  3  0  0  0  0  0  0
  166.1770  211.3740  153.9350 Cl  0  0  0  0  0  0  0  0  0  0  0  0
  164.9940  211.3310  156.3980 C   0  0  0  0  0  3  0  0  0  0  0  0
  164.8100  211.2230  155.0170 C   0  0  0  0  0  0  0  0  0  0  0  0
  163.9000  211.2080  157.2600 C   0  0  0  0  0  3  0  0  0  0  0  0
  162.3380  213.7410  146.7510 C   0  0  0  0  0  1  0  0  0  0  0  0
  161.5450  212.5200  147.1790 C   0  0  0  0  0  2  0  0  0  0  0  0
  1 27  2  0  0  0  0
  2 17  1  0  0  0  0
  2 22  1  0  0  0  0
  3 20  1  0  0  0  0
  4  1  1  0  0  0  0
  4 12  1  0  0  0  0
  5 10  1  0  0  0  0
  6 22  1  6  0  0  0
  6  9  1  0  0  0  0
  6 11  1  0  0  0  0
  7  3  1  0  0  0  0
  8 26  1  6  0  0  0
  8 18  1  0  0  0  0
  9  3  2  0  0  0  0
 10  7  1  6  0  0  0
 10 23  1  0  0  0  0
 11 16  1  0  0  0  0
 12  8  1  0  0  0  0
 13 21  1  0  0  0  0
 13  9  1  0  0  0  0
 14  2  1  0  0  0  0
 15 28  1  0  0  0  0
 17 13  1  0  0  0  0
 18 25  1  1  0  0  0
 18 19  1  0  0  0  0
 19 25  1  1  0  0  0
 19  5  1  0  0  0  0
 20 16  1  1  0  0  0
 20 15  1  0  0  0  0
 21  7  2  0  0  0  0
 23 30  1  6  0  0  0
 23 28  1  0  0  0  0
 24  2  1  0  0  0  0
 27 21  1  0  0  0  0
 29 35  1  0  0  0  0
 30 29  2  0  0  0  0
 31 34  2  0  0  0  0
 31 30  1  0  0  0  0
 32 34  1  0  0  0  0
 33 35  2  0  0  0  0
 34 33  1  0  0  0  0
 36 37  1  0  0  0  0
 37  4  1  0  0  0  0
M  END
>  <MODEL>
1

>  <REMARK>
 VINA RESULT:      -3.5      0.000      0.000
  Name = 
  2 active torsions:
  status: ('A' for Active; 'I' for Inactive)
    1  A    between atoms: N_4  and  C_37
    2  A    between atoms: C_23  and  C_30
                            x       y       z     vdW  Elec       q    Type
                         _______ _______ _______ _____ _____    ______ ____

>  <TORSDO>
F 2

$$$$
