=
 OpenBabel11122413213D

 31 35  0  0  0  0  0  0  0  0999 V2000
  161.0940  201.3950  149.8180 C   0  0  0  0  0  0  0  0  0  0  0  0
  161.1940  205.1390  149.4250 C   0  0  0  0  0  0  0  0  0  0  0  0
  161.1790  205.3960  148.0190 C   0  0  0  0  0  0  0  0  0  0  0  0
  161.8990  204.6410  145.7580 C   0  0  0  0  0  0  0  0  0  0  0  0
  161.1630  203.8320  150.0010 C   0  0  0  0  0  0  0  0  0  0  0  0
  161.1090  201.2750  151.2070 C   0  0  0  0  0  3  0  0  0  0  0  0
  161.0780  204.3110  146.9740 C   0  0  0  0  0  2  0  0  0  0  0  0
  161.2640  206.0910  151.7010 C   0  0  0  0  0  0  0  0  0  0  0  0
  161.0500  200.2570  149.0240 O   0  0  0  0  0  1  0  0  0  0  0  0
  161.2620  207.7600  148.4390 N   0  0  0  0  0  0  0  0  0  0  0  0
  162.4120  203.7400  145.1180 O   0  0  0  0  0  0  0  0  0  0  0  0
  161.2310  204.8040  152.2360 C   0  0  0  0  0  3  0  0  0  0  0  0
  161.2470  206.2610  150.3050 C   0  0  0  0  0  0  0  0  0  0  0  0
  161.1210  202.6590  149.2260 C   0  0  0  0  0  3  0  0  0  0  0  0
  162.0760  206.0660  145.3090 C   0  0  0  0  0  2  0  0  0  0  0  0
  161.1820  203.6880  151.4120 C   0  0  0  0  0  0  0  0  0  0  0  0
  161.1540  202.4200  152.0010 C   0  0  0  0  0  3  0  0  0  0  0  0
  161.2790  207.5540  149.7760 C   0  0  0  0  0  3  0  0  0  0  0  0
  161.2180  206.7300  147.5610 C   0  0  0  0  0  0  0  0  0  0  0  0
  161.1750  207.0240  146.0910 C   0  0  0  0  0  2  0  0  0  0  0  0
  160.5120  206.2940  154.5390 O   0  0  0  0  0  0  0  0  0  0  0  0
  160.9430  207.3190  153.9460 C   0  0  0  0  0  0  0  0  0  0  0  0
  161.3160  207.2450  152.5600 N   0  0  0  0  0  2  0  0  0  0  0  0
  161.3660  210.9870  156.1510 C   0  0  0  0  0  0  0  0  0  0  0  0
  161.5440  208.5860  155.9850 C   0  0  0  0  0  3  0  0  0  0  0  0
  160.1390  210.0640  152.4470 Cl  0  0  0  0  0  0  0  0  0  0  0  0
  161.5110  212.1560  156.8850 O   0  0  0  0  0  1  0  0  0  0  0  0
  161.6910  209.7600  156.7250 C   0  0  0  0  0  3  0  0  0  0  0  0
  160.7420  209.8700  154.0880 C   0  0  0  0  0  0  0  0  0  0  0  0
  161.0700  208.6140  154.6620 C   0  0  0  0  0  0  0  0  0  0  0  0
  160.8940  211.0390  154.8390 C   0  0  0  0  0  3  0  0  0  0  0  0
  1  6  1  0  0  0  0
  2  5  2  0  0  0  0
  2 13  1  0  0  0  0
  3  2  1  0  0  0  0
  4  7  1  0  0  0  0
  5 16  1  0  0  0  0
  6 17  2  0  0  0  0
  7  3  1  0  0  0  0
  8 12  1  0  0  0  0
  8 23  1  0  0  0  0
  9  1  1  0  0  0  0
 10 18  2  0  0  0  0
 11  4  2  0  0  0  0
 13  8  2  0  0  0  0
 14  1  2  0  0  0  0
 14  5  1  0  0  0  0
 15  4  1  0  0  0  0
 15 20  1  0  0  0  0
 16 17  1  0  0  0  0
 16 12  2  0  0  0  0
 18 13  1  0  0  0  0
 19  3  2  0  0  0  0
 19 10  1  0  0  0  0
 20 19  1  0  0  0  0
 22 21  2  0  0  0  0
 22 30  1  0  0  0  0
 23 22  1  0  0  0  0
 24 28  1  0  0  0  0
 24 27  1  0  0  0  0
 25 28  2  0  0  0  0
 26 29  1  0  0  0  0
 29 30  2  0  0  0  0
 29 31  1  0  0  0  0
 30 25  1  0  0  0  0
 31 24  2  0  0  0  0
M  END
>  <MODEL>
1

>  <REMARK>
 VINA RESULT:      -9.6      0.000      0.000
  Name = 
  2 active torsions:
  status: ('A' for Active; 'I' for Inactive)
    1  A    between atoms: C_5  and  C_30
    2  A    between atoms: C_10  and  N_16
                            x       y       z     vdW  Elec       q    Type
                         _______ _______ _______ _____ _____    ______ ____

>  <TORSDO>
F 2

$$$$
=
 OpenBabel11122413213D

 31 35  0  0  0  0  0  0  0  0999 V2000
  160.9380  209.3400  154.7160 C   0  0  0  0  0  0  0  0  0  0  0  0
  161.4920  208.6580  151.0530 C   0  0  0  0  0  0  0  0  0  0  0  0
  161.6630  209.9320  150.4290 C   0  0  0  0  0  0  0  0  0  0  0  0
  161.0110  212.3350  150.3930 C   0  0  0  0  0  0  0  0  0  0  0  0
  161.2590  208.4760  152.4510 C   0  0  0  0  0  0  0  0  0  0  0  0
  160.7910  208.0430  155.2060 C   0  0  0  0  0  3  0  0  0  0  0  0
  161.6660  211.2390  151.1860 C   0  0  0  0  0  2  0  0  0  0  0  0
  161.3990  206.2090  150.7640 C   0  0  0  0  0  0  0  0  0  0  0  0
  160.8550  210.4220  155.5810 O   0  0  0  0  0  1  0  0  0  0  0  0
  161.9400  208.8630  148.2960 N   0  0  0  0  0  0  0  0  0  0  0  0
  160.4090  213.2210  150.9750 O   0  0  0  0  0  0  0  0  0  0  0  0
  161.1740  206.0610  152.1320 C   0  0  0  0  0  3  0  0  0  0  0  0
  161.5550  207.4990  150.2250 C   0  0  0  0  0  0  0  0  0  0  0  0
  161.1680  209.5500  153.3550 C   0  0  0  0  0  3  0  0  0  0  0  0
  161.1100  212.3670  148.8910 C   0  0  0  0  0  2  0  0  0  0  0  0
  161.1030  207.1640  152.9700 C   0  0  0  0  0  0  0  0  0  0  0  0
  160.8730  206.9590  154.3340 C   0  0  0  0  0  3  0  0  0  0  0  0
  161.7810  207.6400  148.8530 C   0  0  0  0  0  3  0  0  0  0  0  0
  161.8820  209.9950  149.0370 C   0  0  0  0  0  0  0  0  0  0  0  0
  162.0910  211.3190  148.3640 C   0  0  0  0  0  2  0  0  0  0  0  0
  160.1030  203.5870  151.0950 O   0  0  0  0  0  0  0  0  0  0  0  0
  160.8270  203.7880  150.0840 C   0  0  0  0  0  0  0  0  0  0  0  0
  161.4700  205.0600  149.9000 N   0  0  0  0  0  2  0  0  0  0  0  0
  161.4020  200.5890  147.2670 C   0  0  0  0  0  0  0  0  0  0  0  0
  161.0530  201.3900  149.5180 C   0  0  0  0  0  3  0  0  0  0  0  0
  161.1880  204.5820  146.9750 Cl  0  0  0  0  0  0  0  0  0  0  0  0
  161.5870  199.5380  146.3800 O   0  0  0  0  0  1  0  0  0  0  0  0
  161.2390  200.3320  148.6270 C   0  0  0  0  0  3  0  0  0  0  0  0
  161.1960  202.9720  147.6820 C   0  0  0  0  0  0  0  0  0  0  0  0
  161.0280  202.7220  149.0690 C   0  0  0  0  0  0  0  0  0  0  0  0
  161.3810  201.9030  146.8000 C   0  0  0  0  0  3  0  0  0  0  0  0
  1  6  1  0  0  0  0
  1  9  1  0  0  0  0
  2  5  1  0  0  0  0
  3  2  1  0  0  0  0
  3  7  1  0  0  0  0
  4 11  2  0  0  0  0
  4  7  1  0  0  0  0
  5 16  2  0  0  0  0
  5 14  1  0  0  0  0
  8 12  2  0  0  0  0
 10 18  2  0  0  0  0
 10 19  1  0  0  0  0
 12 16  1  0  0  0  0
 13  8  1  0  0  0  0
 13  2  2  0  0  0  0
 14  1  2  0  0  0  0
 15  4  1  0  0  0  0
 16 17  1  0  0  0  0
 17  6  2  0  0  0  0
 18 13  1  0  0  0  0
 19  3  2  0  0  0  0
 20 15  1  0  0  0  0
 20 19  1  0  0  0  0
 22 21  2  0  0  0  0
 23 22  1  0  0  0  0
 23  8  1  0  0  0  0
 24 28  1  0  0  0  0
 26 29  1  0  0  0  0
 27 24  1  0  0  0  0
 28 25  2  0  0  0  0
 29 30  2  0  0  0  0
 30 25  1  0  0  0  0
 30 22  1  0  0  0  0
 31 24  2  0  0  0  0
 31 29  1  0  0  0  0
M  END
>  <MODEL>
2

>  <REMARK>
 VINA RESULT:      -9.4      2.860      7.975
  Name = 
  2 active torsions:
  status: ('A' for Active; 'I' for Inactive)
    1  A    between atoms: C_5  and  C_30
    2  A    between atoms: C_10  and  N_16
                            x       y       z     vdW  Elec       q    Type
                         _______ _______ _______ _____ _____    ______ ____

>  <TORSDO>
F 2

$$$$
=
 OpenBabel11122413213D

 31 35  0  0  0  0  0  0  0  0999 V2000
  161.0130  207.5660  154.4150 C   0  0  0  0  0  0  0  0  0  0  0  0
  161.2100  207.2300  150.6690 C   0  0  0  0  0  0  0  0  0  0  0  0
  160.9780  205.8510  150.3760 C   0  0  0  0  0  0  0  0  0  0  0  0
  161.2870  203.4890  151.1030 C   0  0  0  0  0  0  0  0  0  0  0  0
  161.2170  207.7800  151.9880 C   0  0  0  0  0  0  0  0  0  0  0  0
  161.2490  208.9310  154.5700 C   0  0  0  0  0  3  0  0  0  0  0  0
  160.6610  204.8160  151.4300 C   0  0  0  0  0  2  0  0  0  0  0  0
  161.6900  209.4820  149.7770 C   0  0  0  0  0  0  0  0  0  0  0  0
  160.7920  206.7690  155.5300 O   0  0  0  0  0  1  0  0  0  0  0  0
  161.2290  206.2940  148.0290 N   0  0  0  0  0  0  0  0  0  0  0  0
  161.6500  202.7570  152.0070 O   0  0  0  0  0  0  0  0  0  0  0  0
  161.6880  209.9900  151.0750 C   0  0  0  0  0  3  0  0  0  0  0  0
  161.4540  208.1100  149.5730 C   0  0  0  0  0  0  0  0  0  0  0  0
  160.9980  207.0010  153.1380 C   0  0  0  0  0  3  0  0  0  0  0  0
  161.4500  203.0430  149.6740 C   0  0  0  0  0  2  0  0  0  0  0  0
  161.4590  209.1660  152.1680 C   0  0  0  0  0  0  0  0  0  0  0  0
  161.4720  209.7290  153.4480 C   0  0  0  0  0  3  0  0  0  0  0  0
  161.4550  207.6060  148.2690 C   0  0  0  0  0  3  0  0  0  0  0  0
  160.9990  205.4170  149.0340 C   0  0  0  0  0  0  0  0  0  0  0  0
  160.7310  203.9790  148.7010 C   0  0  0  0  0  2  0  0  0  0  0  0
  160.8550  212.2780  149.3970 O   0  0  0  0  0  0  0  0  0  0  0  0
  161.5110  211.7060  148.4870 C   0  0  0  0  0  0  0  0  0  0  0  0
  161.9300  210.3410  148.6490 N   0  0  0  0  0  2  0  0  0  0  0  0
  162.6830  213.7840  144.9070 C   0  0  0  0  0  0  0  0  0  0  0  0
  163.2220  212.6720  146.9810 C   0  0  0  0  0  3  0  0  0  0  0  0
  159.1700  212.6480  146.4720 Cl  0  0  0  0  0  0  0  0  0  0  0  0
  163.0880  214.4530  143.7610 O   0  0  0  0  0  1  0  0  0  0  0  0
  163.6310  213.3440  145.8290 C   0  0  0  0  0  3  0  0  0  0  0  0
  160.9040  212.8800  146.2910 C   0  0  0  0  0  0  0  0  0  0  0  0
  161.8620  212.4280  147.2360 C   0  0  0  0  0  0  0  0  0  0  0  0
  161.3270  213.5520  145.1400 C   0  0  0  0  0  3  0  0  0  0  0  0
  1  6  1  0  0  0  0
  1  9  1  0  0  0  0
  2  5  1  0  0  0  0
  3  2  1  0  0  0  0
  3  7  1  0  0  0  0
  4  7  1  0  0  0  0
  4 11  2  0  0  0  0
  5 16  2  0  0  0  0
  5 14  1  0  0  0  0
  8 12  2  0  0  0  0
 10 18  2  0  0  0  0
 10 19  1  0  0  0  0
 12 16  1  0  0  0  0
 13  8  1  0  0  0  0
 13  2  2  0  0  0  0
 14  1  2  0  0  0  0
 15  4  1  0  0  0  0
 16 17  1  0  0  0  0
 17  6  2  0  0  0  0
 18 13  1  0  0  0  0
 19  3  2  0  0  0  0
 20 19  1  0  0  0  0
 20 15  1  0  0  0  0
 22 23  1  0  0  0  0
 22 21  2  0  0  0  0
 23  8  1  0  0  0  0
 24 31  2  0  0  0  0
 24 28  1  0  0  0  0
 25 30  1  0  0  0  0
 27 24  1  0  0  0  0
 28 25  2  0  0  0  0
 29 26  1  0  0  0  0
 29 30  2  0  0  0  0
 30 22  1  0  0  0  0
 31 29  1  0  0  0  0
M  END
>  <MODEL>
3

>  <REMARK>
 VINA RESULT:      -8.9      4.139      7.047
  Name = 
  2 active torsions:
  status: ('A' for Active; 'I' for Inactive)
    1  A    between atoms: C_5  and  C_30
    2  A    between atoms: C_10  and  N_16
                            x       y       z     vdW  Elec       q    Type
                         _______ _______ _______ _____ _____    ______ ____

>  <TORSDO>
F 2

$$$$
=
 OpenBabel11122413213D

 31 35  0  0  0  0  0  0  0  0999 V2000
  161.3000  200.9430  149.0410 C   0  0  0  0  0  0  0  0  0  0  0  0
  160.9900  204.6850  148.7430 C   0  0  0  0  0  0  0  0  0  0  0  0
  161.0640  204.9850  147.3470 C   0  0  0  0  0  0  0  0  0  0  0  0
  162.0560  204.3920  145.1420 C   0  0  0  0  0  0  0  0  0  0  0  0
  161.0650  203.3650  149.2840 C   0  0  0  0  0  0  0  0  0  0  0  0
  161.2120  200.7800  150.4220 C   0  0  0  0  0  3  0  0  0  0  0  0
  161.1800  203.9300  146.2720 C   0  0  0  0  0  2  0  0  0  0  0  0
  160.7540  205.5640  151.0370 C   0  0  0  0  0  0  0  0  0  0  0  0
  161.4580  199.8350  148.2200 O   0  0  0  0  0  1  0  0  0  0  0  0
  160.8310  207.3270  147.8260 N   0  0  0  0  0  0  0  0  0  0  0  0
  162.7250  203.5780  144.5280 O   0  0  0  0  0  0  0  0  0  0  0  0
  160.8290  204.2640  151.5370 C   0  0  0  0  0  3  0  0  0  0  0  0
  160.8360  205.7760  149.6490 C   0  0  0  0  0  0  0  0  0  0  0  0
  161.2270  202.2210  148.4820 C   0  0  0  0  0  3  0  0  0  0  0  0
  162.1010  205.8420  144.7420 C   0  0  0  0  0  2  0  0  0  0  0  0
  160.9820  203.1780  150.6880 C   0  0  0  0  0  0  0  0  0  0  0  0
  161.0540  201.8960  151.2430 C   0  0  0  0  0  3  0  0  0  0  0  0
  160.7590  207.0810  149.1540 C   0  0  0  0  0  3  0  0  0  0  0  0
  160.9840  206.3280  146.9250 C   0  0  0  0  0  0  0  0  0  0  0  0
  161.0310  206.6640  145.4640 C   0  0  0  0  0  2  0  0  0  0  0  0
  162.7020  207.6740  151.6790 O   0  0  0  0  0  0  0  0  0  0  0  0
  161.5650  207.7060  152.2200 C   0  0  0  0  0  0  0  0  0  0  0  0
  160.5970  206.6870  151.9230 N   0  0  0  0  0  2  0  0  0  0  0  0
  160.5530  210.9550  154.8520 C   0  0  0  0  0  0  0  0  0  0  0  0
  161.2390  210.1130  152.6960 C   0  0  0  0  0  3  0  0  0  0  0  0
  160.7490  206.9700  155.2570 Cl  0  0  0  0  0  0  0  0  0  0  0  0
  160.2320  212.0200  155.6810 O   0  0  0  0  0  1  0  0  0  0  0  0
  160.9160  211.1860  153.5270 C   0  0  0  0  0  3  0  0  0  0  0  0
  160.8350  208.5650  154.5220 C   0  0  0  0  0  0  0  0  0  0  0  0
  161.2060  208.7910  153.1710 C   0  0  0  0  0  0  0  0  0  0  0  0
  160.5140  209.6500  155.3450 C   0  0  0  0  0  3  0  0  0  0  0  0
  1  6  1  0  0  0  0
  2  5  2  0  0  0  0
  2 13  1  0  0  0  0
  3  2  1  0  0  0  0
  4  7  1  0  0  0  0
  5 16  1  0  0  0  0
  6 17  2  0  0  0  0
  7  3  1  0  0  0  0
  8 12  1  0  0  0  0
  8 23  1  0  0  0  0
  9  1  1  0  0  0  0
 10 18  2  0  0  0  0
 11  4  2  0  0  0  0
 13  8  2  0  0  0  0
 14  1  2  0  0  0  0
 14  5  1  0  0  0  0
 15  4  1  0  0  0  0
 15 20  1  0  0  0  0
 16 17  1  0  0  0  0
 16 12  2  0  0  0  0
 18 13  1  0  0  0  0
 19  3  2  0  0  0  0
 19 10  1  0  0  0  0
 20 19  1  0  0  0  0
 21 22  2  0  0  0  0
 22 30  1  0  0  0  0
 23 22  1  0  0  0  0
 24 31  1  0  0  0  0
 24 27  1  0  0  0  0
 25 30  2  0  0  0  0
 25 28  1  0  0  0  0
 28 24  2  0  0  0  0
 29 26  1  0  0  0  0
 29 31  2  0  0  0  0
 30 29  1  0  0  0  0
M  END
>  <MODEL>
4

>  <REMARK>
 VINA RESULT:      -8.8      1.420      1.706
  Name = 
  2 active torsions:
  status: ('A' for Active; 'I' for Inactive)
    1  A    between atoms: C_5  and  C_30
    2  A    between atoms: C_10  and  N_16
                            x       y       z     vdW  Elec       q    Type
                         _______ _______ _______ _____ _____    ______ ____

>  <TORSDO>
F 2

$$$$
=
 OpenBabel11122413213D

 31 35  0  0  0  0  0  0  0  0999 V2000
  161.7220  205.5300  146.0110 C   0  0  0  0  0  0  0  0  0  0  0  0
  161.2060  204.8000  149.6700 C   0  0  0  0  0  0  0  0  0  0  0  0
  161.2770  203.3790  149.8100 C   0  0  0  0  0  0  0  0  0  0  0  0
  160.7890  201.1610  148.7880 C   0  0  0  0  0  0  0  0  0  0  0  0
  161.3550  205.4910  148.4280 C   0  0  0  0  0  0  0  0  0  0  0  0
  161.6360  206.9220  146.0050 C   0  0  0  0  0  3  0  0  0  0  0  0
  161.5680  202.4410  148.6620 C   0  0  0  0  0  2  0  0  0  0  0  0
  160.8880  206.9750  150.7910 C   0  0  0  0  0  0  0  0  0  0  0  0
  161.9460  204.8440  144.8250 O   0  0  0  0  0  1  0  0  0  0  0  0
  160.8920  203.5810  152.1720 N   0  0  0  0  0  0  0  0  0  0  0  0
  160.4250  200.5790  147.7810 O   0  0  0  0  0  0  0  0  0  0  0  0
  161.0390  207.6230  149.5660 C   0  0  0  0  0  3  0  0  0  0  0  0
  160.9690  205.5720  150.8450 C   0  0  0  0  0  0  0  0  0  0  0  0
  161.5830  204.8270  147.2090 C   0  0  0  0  0  3  0  0  0  0  0  0
  160.4740  200.5780  150.1390 C   0  0  0  0  0  2  0  0  0  0  0  0
  161.2680  206.9070  148.4000 C   0  0  0  0  0  0  0  0  0  0  0  0
  161.4090  207.6070  147.1980 C   0  0  0  0  0  3  0  0  0  0  0  0
  160.8180  204.9280  152.0770 C   0  0  0  0  0  3  0  0  0  0  0  0
  161.1100  202.8020  151.0860 C   0  0  0  0  0  0  0  0  0  0  0  0
  161.2060  201.3160  151.2610 C   0  0  0  0  0  2  0  0  0  0  0  0
  162.3310  209.3350  151.7950 O   0  0  0  0  0  0  0  0  0  0  0  0
  161.3690  208.8750  152.4660 C   0  0  0  0  0  0  0  0  0  0  0  0
  160.6490  207.7240  151.9970 N   0  0  0  0  0  2  0  0  0  0  0  0
  160.2050  210.8590  156.1010 C   0  0  0  0  0  0  0  0  0  0  0  0
  160.8320  210.9090  153.7700 C   0  0  0  0  0  3  0  0  0  0  0  0
  160.8310  207.0360  155.0650 Cl  0  0  0  0  0  0  0  0  0  0  0  0
  159.8320  211.5230  157.2610 O   0  0  0  0  0  1  0  0  0  0  0  0
  160.4560  211.5790  154.9350 C   0  0  0  0  0  3  0  0  0  0  0  0
  160.7070  208.7860  154.9400 C   0  0  0  0  0  0  0  0  0  0  0  0
  160.9640  209.5100  153.7470 C   0  0  0  0  0  0  0  0  0  0  0  0
  160.3310  209.4700  156.1010 C   0  0  0  0  0  3  0  0  0  0  0  0
  1 14  1  0  0  0  0
  2  3  2  0  0  0  0
  2 13  1  0  0  0  0
  3 19  1  0  0  0  0
  4 15  1  0  0  0  0
  5  2  1  0  0  0  0
  6  1  2  0  0  0  0
  6 17  1  0  0  0  0
  7  4  1  0  0  0  0
  7  3  1  0  0  0  0
  8 13  1  0  0  0  0
  8 23  1  0  0  0  0
  9  1  1  0  0  0  0
 11  4  2  0  0  0  0
 12  8  2  0  0  0  0
 13 18  2  0  0  0  0
 14  5  2  0  0  0  0
 15 20  1  0  0  0  0
 16  5  1  0  0  0  0
 16 12  1  0  0  0  0
 17 16  2  0  0  0  0
 18 10  1  0  0  0  0
 19 20  1  0  0  0  0
 19 10  2  0  0  0  0
 21 22  2  0  0  0  0
 22 30  1  0  0  0  0
 23 22  1  0  0  0  0
 24 31  1  0  0  0  0
 24 27  1  0  0  0  0
 25 28  1  0  0  0  0
 28 24  2  0  0  0  0
 29 26  1  0  0  0  0
 29 31  2  0  0  0  0
 30 25  2  0  0  0  0
 30 29  1  0  0  0  0
M  END
>  <MODEL>
5

>  <REMARK>
 VINA RESULT:      -8.3      1.586      4.215
  Name = 
  2 active torsions:
  status: ('A' for Active; 'I' for Inactive)
    1  A    between atoms: C_5  and  C_30
    2  A    between atoms: C_10  and  N_16
                            x       y       z     vdW  Elec       q    Type
                         _______ _______ _______ _____ _____    ______ ____

>  <TORSDO>
F 2

$$$$
=
 OpenBabel11122413213D

 31 35  0  0  0  0  0  0  0  0999 V2000
  161.7860  211.2880  150.0070 C   0  0  0  0  0  0  0  0  0  0  0  0
  161.2770  207.8670  151.4970 C   0  0  0  0  0  0  0  0  0  0  0  0
  161.0530  208.0660  152.8940 C   0  0  0  0  0  0  0  0  0  0  0  0
  161.6000  209.4110  154.9170 C   0  0  0  0  0  0  0  0  0  0  0  0
  161.5120  208.9240  150.5640 C   0  0  0  0  0  0  0  0  0  0  0  0
  161.9870  210.9650  148.6660 C   0  0  0  0  0  3  0  0  0  0  0  0
  160.9900  209.4280  153.5430 C   0  0  0  0  0  2  0  0  0  0  0  0
  161.4770  206.2480  149.6440 C   0  0  0  0  0  0  0  0  0  0  0  0
  161.8180  212.6150  150.4130 O   0  0  0  0  0  1  0  0  0  0  0  0
  160.8310  205.6950  153.2090 N   0  0  0  0  0  0  0  0  0  0  0  0
  162.1610  210.4080  155.3380 O   0  0  0  0  0  0  0  0  0  0  0  0
  161.7020  207.2990  148.7560 C   0  0  0  0  0  3  0  0  0  0  0  0
  161.2670  206.5270  151.0070 C   0  0  0  0  0  0  0  0  0  0  0  0
  161.5520  210.2780  150.9410 C   0  0  0  0  0  3  0  0  0  0  0  0
  161.5050  208.1880  155.7890 C   0  0  0  0  0  2  0  0  0  0  0  0
  161.7220  208.6150  149.1950 C   0  0  0  0  0  0  0  0  0  0  0  0
  161.9560  209.6310  148.2620 C   0  0  0  0  0  3  0  0  0  0  0  0
  161.0400  205.4690  151.8910 C   0  0  0  0  0  3  0  0  0  0  0  0
  160.8360  206.9470  153.7250 C   0  0  0  0  0  0  0  0  0  0  0  0
  160.5730  207.1340  155.1890 C   0  0  0  0  0  2  0  0  0  0  0  0
  160.8080  205.2320  146.9650 O   0  0  0  0  0  0  0  0  0  0  0  0
  161.1280  204.4130  147.8670 C   0  0  0  0  0  0  0  0  0  0  0  0
  161.4590  204.8850  149.1830 N   0  0  0  0  0  2  0  0  0  0  0  0
  161.2410  200.2220  146.9030 C   0  0  0  0  0  0  0  0  0  0  0  0
  161.1710  202.5440  146.2450 C   0  0  0  0  0  3  0  0  0  0  0  0
  161.2060  202.3170  150.3220 Cl  0  0  0  0  0  0  0  0  0  0  0  0
  161.2770  198.8770  146.5650 O   0  0  0  0  0  1  0  0  0  0  0  0
  161.2060  201.1920  145.9030 C   0  0  0  0  0  3  0  0  0  0  0  0
  161.2040  201.9580  148.6000 C   0  0  0  0  0  0  0  0  0  0  0  0
  161.1680  202.9540  147.5890 C   0  0  0  0  0  0  0  0  0  0  0  0
  161.2400  200.6060  148.2440 C   0  0  0  0  0  3  0  0  0  0  0  0
  1  9  1  0  0  0  0
  1 14  1  0  0  0  0
  2  3  1  0  0  0  0
  3  7  1  0  0  0  0
  3 19  2  0  0  0  0
  4 11  2  0  0  0  0
  4 15  1  0  0  0  0
  5 14  2  0  0  0  0
  5  2  1  0  0  0  0
  6  1  2  0  0  0  0
  7  4  1  0  0  0  0
  8 13  1  0  0  0  0
 10 19  1  0  0  0  0
 12 16  1  0  0  0  0
 12  8  2  0  0  0  0
 13  2  2  0  0  0  0
 13 18  1  0  0  0  0
 16  5  1  0  0  0  0
 17  6  1  0  0  0  0
 17 16  2  0  0  0  0
 18 10  2  0  0  0  0
 19 20  1  0  0  0  0
 20 15  1  0  0  0  0
 21 22  2  0  0  0  0
 22 23  1  0  0  0  0
 23  8  1  0  0  0  0
 24 31  1  0  0  0  0
 25 30  2  0  0  0  0
 27 24  1  0  0  0  0
 28 25  1  0  0  0  0
 28 24  2  0  0  0  0
 29 26  1  0  0  0  0
 30 22  1  0  0  0  0
 30 29  1  0  0  0  0
 31 29  2  0  0  0  0
M  END
>  <MODEL>
6

>  <REMARK>
 VINA RESULT:      -7.6      2.737      9.020
  Name = 
  2 active torsions:
  status: ('A' for Active; 'I' for Inactive)
    1  A    between atoms: C_5  and  C_30
    2  A    between atoms: C_10  and  N_16
                            x       y       z     vdW  Elec       q    Type
                         _______ _______ _______ _____ _____    ______ ____

>  <TORSDO>
F 2

$$$$
=
 OpenBabel11122413213D

 31 35  0  0  0  0  0  0  0  0999 V2000
  161.6130  211.8410  150.0300 C   0  0  0  0  0  0  0  0  0  0  0  0
  161.2690  208.3980  151.5160 C   0  0  0  0  0  0  0  0  0  0  0  0
  161.0600  208.5840  152.9180 C   0  0  0  0  0  0  0  0  0  0  0  0
  161.5830  209.9450  154.9360 C   0  0  0  0  0  0  0  0  0  0  0  0
  161.4450  209.4660  150.5830 C   0  0  0  0  0  0  0  0  0  0  0  0
  161.8050  211.5300  148.6840 C   0  0  0  0  0  3  0  0  0  0  0  0
  160.9510  209.9410  153.5720 C   0  0  0  0  0  2  0  0  0  0  0  0
  161.5060  206.7930  149.6550 C   0  0  0  0  0  0  0  0  0  0  0  0
  161.5970  213.1680  150.4390 O   0  0  0  0  0  1  0  0  0  0  0  0
  160.9400  206.2060  153.2280 N   0  0  0  0  0  0  0  0  0  0  0  0
  162.1090  210.9640  155.3510 O   0  0  0  0  0  0  0  0  0  0  0  0
  161.6730  207.8550  148.7680 C   0  0  0  0  0  3  0  0  0  0  0  0
  161.3060  207.0600  151.0220 C   0  0  0  0  0  0  0  0  0  0  0  0
  161.4350  210.8200  150.9640 C   0  0  0  0  0  3  0  0  0  0  0  0
  161.5530  208.7170  155.8050 C   0  0  0  0  0  2  0  0  0  0  0  0
  161.6460  209.1700  149.2100 C   0  0  0  0  0  0  0  0  0  0  0  0
  161.8220  210.1970  148.2770 C   0  0  0  0  0  3  0  0  0  0  0  0
  161.1370  205.9910  151.9070 C   0  0  0  0  0  3  0  0  0  0  0  0
  160.9020  207.4550  153.7480 C   0  0  0  0  0  0  0  0  0  0  0  0
  160.6550  207.6270  155.2170 C   0  0  0  0  0  2  0  0  0  0  0  0
  160.4520  205.6970  147.1360 O   0  0  0  0  0  0  0  0  0  0  0  0
  161.0140  204.9200  147.9540 C   0  0  0  0  0  0  0  0  0  0  0  0
  161.5360  205.4320  149.1900 N   0  0  0  0  0  2  0  0  0  0  0  0
  161.3950  200.6930  147.2550 C   0  0  0  0  0  0  0  0  0  0  0  0
  161.2100  202.5840  148.7450 C   0  0  0  0  0  3  0  0  0  0  0  0
  161.1370  203.9180  144.8860 Cl  0  0  0  0  0  0  0  0  0  0  0  0
  161.5190  199.3250  147.0570 O   0  0  0  0  0  1  0  0  0  0  0  0
  161.3350  201.2080  148.5490 C   0  0  0  0  0  3  0  0  0  0  0  0
  161.2070  202.9360  146.3430 C   0  0  0  0  0  0  0  0  0  0  0  0
  161.1450  203.4700  147.6570 C   0  0  0  0  0  0  0  0  0  0  0  0
  161.3310  201.5550  146.1600 C   0  0  0  0  0  3  0  0  0  0  0  0
  1  9  1  0  0  0  0
  1 14  1  0  0  0  0
  2  3  1  0  0  0  0
  3  7  1  0  0  0  0
  3 19  2  0  0  0  0
  4 11  2  0  0  0  0
  4 15  1  0  0  0  0
  5 14  2  0  0  0  0
  5  2  1  0  0  0  0
  6  1  2  0  0  0  0
  7  4  1  0  0  0  0
  8 13  1  0  0  0  0
 10 19  1  0  0  0  0
 12 16  1  0  0  0  0
 12  8  2  0  0  0  0
 13  2  2  0  0  0  0
 13 18  1  0  0  0  0
 16  5  1  0  0  0  0
 17  6  1  0  0  0  0
 17 16  2  0  0  0  0
 18 10  2  0  0  0  0
 19 20  1  0  0  0  0
 20 15  1  0  0  0  0
 21 22  2  0  0  0  0
 22 23  1  0  0  0  0
 23  8  1  0  0  0  0
 24 28  1  0  0  0  0
 26 29  1  0  0  0  0
 27 24  1  0  0  0  0
 28 25  2  0  0  0  0
 29 30  2  0  0  0  0
 30 22  1  0  0  0  0
 30 25  1  0  0  0  0
 31 29  1  0  0  0  0
 31 24  2  0  0  0  0
M  END
>  <MODEL>
7

>  <REMARK>
 VINA RESULT:      -7.4      2.924      9.031
  Name = 
  2 active torsions:
  status: ('A' for Active; 'I' for Inactive)
    1  A    between atoms: C_5  and  C_30
    2  A    between atoms: C_10  and  N_16
                            x       y       z     vdW  Elec       q    Type
                         _______ _______ _______ _____ _____    ______ ____

>  <TORSDO>
F 2

$$$$
=
 OpenBabel11122413213D

 31 35  0  0  0  0  0  0  0  0999 V2000
  160.2860  208.6590  156.0640 C   0  0  0  0  0  0  0  0  0  0  0  0
  160.9010  209.5920  152.4670 C   0  0  0  0  0  0  0  0  0  0  0  0
  160.6970  211.0040  152.3770 C   0  0  0  0  0  0  0  0  0  0  0  0
  159.4100  212.9750  153.1880 C   0  0  0  0  0  0  0  0  0  0  0  0
  160.7670  208.8380  153.6740 C   0  0  0  0  0  0  0  0  0  0  0  0
  160.5150  207.2850  156.0230 C   0  0  0  0  0  3  0  0  0  0  0  0
  160.3630  211.8760  153.5650 C   0  0  0  0  0  2  0  0  0  0  0  0
  161.4770  207.5060  151.2800 C   0  0  0  0  0  0  0  0  0  0  0  0
  159.9340  209.2690  157.2610 O   0  0  0  0  0  1  0  0  0  0  0  0
  161.1970  210.9390  150.0290 N   0  0  0  0  0  0  0  0  0  0  0  0
  158.6040  213.3790  154.0080 O   0  0  0  0  0  0  0  0  0  0  0  0
  161.3410  206.7960  152.4720 C   0  0  0  0  0  3  0  0  0  0  0  0
  161.2570  208.8950  151.2750 C   0  0  0  0  0  0  0  0  0  0  0  0
  160.4110  209.4230  154.9020 C   0  0  0  0  0  3  0  0  0  0  0  0
  159.4530  213.5990  151.8190 C   0  0  0  0  0  2  0  0  0  0  0  0
  160.9930  207.4370  153.6530 C   0  0  0  0  0  0  0  0  0  0  0  0
  160.8670  206.6760  154.8190 C   0  0  0  0  0  3  0  0  0  0  0  0
  161.3960  209.6010  150.0760 C   0  0  0  0  0  3  0  0  0  0  0  0
  160.8510  211.6450  151.1310 C   0  0  0  0  0  0  0  0  0  0  0  0
  160.6690  213.1300  151.0180 C   0  0  0  0  0  2  0  0  0  0  0  0
  159.8060  205.7790  149.5810 O   0  0  0  0  0  0  0  0  0  0  0  0
  161.0000  205.9950  149.2460 C   0  0  0  0  0  0  0  0  0  0  0  0
  161.8360  206.8340  150.0590 N   0  0  0  0  0  2  0  0  0  0  0  0
  162.6690  204.3910  145.6200 C   0  0  0  0  0  0  0  0  0  0  0  0
  162.1000  206.2560  147.0440 C   0  0  0  0  0  3  0  0  0  0  0  0
  160.9610  202.7880  148.8740 Cl  0  0  0  0  0  0  0  0  0  0  0  0
  163.2130  203.9000  144.4420 O   0  0  0  0  0  1  0  0  0  0  0  0
  162.6470  205.7640  145.8580 C   0  0  0  0  0  3  0  0  0  0  0  0
  161.5920  203.9930  147.7590 C   0  0  0  0  0  0  0  0  0  0  0  0
  161.5650  205.3890  148.0120 C   0  0  0  0  0  0  0  0  0  0  0  0
  162.1430  203.5130  146.5670 C   0  0  0  0  0  3  0  0  0  0  0  0
  1  9  1  0  0  0  0
  2  5  1  0  0  0  0
  3  2  1  0  0  0  0
  3  7  1  0  0  0  0
  4  7  1  0  0  0  0
  4 11  2  0  0  0  0
  5 14  1  0  0  0  0
  6  1  1  0  0  0  0
  8 12  2  0  0  0  0
 10 18  2  0  0  0  0
 10 19  1  0  0  0  0
 12 16  1  0  0  0  0
 13  8  1  0  0  0  0
 13  2  2  0  0  0  0
 14  1  2  0  0  0  0
 15  4  1  0  0  0  0
 16  5  2  0  0  0  0
 16 17  1  0  0  0  0
 17  6  2  0  0  0  0
 18 13  1  0  0  0  0
 19  3  2  0  0  0  0
 20 19  1  0  0  0  0
 20 15  1  0  0  0  0
 22 21  2  0  0  0  0
 22 23  1  0  0  0  0
 23  8  1  0  0  0  0
 24 28  2  0  0  0  0
 24 31  1  0  0  0  0
 25 30  2  0  0  0  0
 27 24  1  0  0  0  0
 28 25  1  0  0  0  0
 29 30  1  0  0  0  0
 29 26  1  0  0  0  0
 30 22  1  0  0  0  0
 31 29  2  0  0  0  0
M  END
>  <MODEL>
8

>  <REMARK>
 VINA RESULT:      -7.1      2.771      8.387
  Name = 
  2 active torsions:
  status: ('A' for Active; 'I' for Inactive)
    1  A    between atoms: C_5  and  C_30
    2  A    between atoms: C_10  and  N_16
                            x       y       z     vdW  Elec       q    Type
                         _______ _______ _______ _____ _____    ______ ____

>  <TORSDO>
F 2

$$$$
=
 OpenBabel11122413213D

 31 35  0  0  0  0  0  0  0  0999 V2000
  161.4740  205.0970  145.6850 C   0  0  0  0  0  0  0  0  0  0  0  0
  161.1080  204.4570  149.3790 C   0  0  0  0  0  0  0  0  0  0  0  0
  161.2590  203.0470  149.5600 C   0  0  0  0  0  0  0  0  0  0  0  0
  160.8610  200.7760  148.6210 C   0  0  0  0  0  0  0  0  0  0  0  0
  161.1830  205.1150  148.1130 C   0  0  0  0  0  0  0  0  0  0  0  0
  161.3140  206.4810  145.6400 C   0  0  0  0  0  3  0  0  0  0  0  0
  161.5660  202.0900  148.4320 C   0  0  0  0  0  2  0  0  0  0  0  0
  160.7060  206.6480  150.4430 C   0  0  0  0  0  0  0  0  0  0  0  0
  161.7000  204.3860  144.5140 O   0  0  0  0  0  1  0  0  0  0  0  0
  160.9340  203.3040  151.9250 N   0  0  0  0  0  0  0  0  0  0  0  0
  160.4990  200.1430  147.6440 O   0  0  0  0  0  0  0  0  0  0  0  0
  160.7860  207.2630  149.1950 C   0  0  0  0  0  3  0  0  0  0  0  0
  160.8650  205.2530  150.5370 C   0  0  0  0  0  0  0  0  0  0  0  0
  161.4090  204.4260  146.9080 C   0  0  0  0  0  3  0  0  0  0  0  0
  160.6180  200.2200  149.9980 C   0  0  0  0  0  2  0  0  0  0  0  0
  161.0180  206.5230  148.0450 C   0  0  0  0  0  0  0  0  0  0  0  0
  161.0860  207.1910  146.8180 C   0  0  0  0  0  3  0  0  0  0  0  0
  160.7850  204.6420  151.7920 C   0  0  0  0  0  3  0  0  0  0  0  0
  161.1610  202.5040  150.8570 C   0  0  0  0  0  0  0  0  0  0  0  0
  161.3430  201.0310  151.0740 C   0  0  0  0  0  2  0  0  0  0  0  0
  162.5390  207.1830  152.6820 O   0  0  0  0  0  0  0  0  0  0  0  0
  161.3770  207.6680  152.7140 C   0  0  0  0  0  0  0  0  0  0  0  0
  160.4630  207.4200  151.6330 N   0  0  0  0  0  2  0  0  0  0  0  0
  160.0950  209.9390  156.1350 C   0  0  0  0  0  0  0  0  0  0  0  0
  160.8010  207.8690  155.1120 C   0  0  0  0  0  3  0  0  0  0  0  0
  160.7460  210.8040  152.2740 Cl  0  0  0  0  0  0  0  0  0  0  0  0
  159.6830  210.6490  157.2540 O   0  0  0  0  0  1  0  0  0  0  0  0
  160.3870  208.5810  156.2390 C   0  0  0  0  0  3  0  0  0  0  0  0
  160.6310  209.8830  153.7670 C   0  0  0  0  0  0  0  0  0  0  0  0
  160.9310  208.4990  153.8630 C   0  0  0  0  0  0  0  0  0  0  0  0
  160.2170  210.5840  154.9040 C   0  0  0  0  0  3  0  0  0  0  0  0
  1 14  1  0  0  0  0
  2  3  2  0  0  0  0
  2 13  1  0  0  0  0
  3 19  1  0  0  0  0
  4 15  1  0  0  0  0
  5  2  1  0  0  0  0
  6  1  2  0  0  0  0
  6 17  1  0  0  0  0
  7  4  1  0  0  0  0
  7  3  1  0  0  0  0
  8 13  1  0  0  0  0
  8 23  1  0  0  0  0
  9  1  1  0  0  0  0
 11  4  2  0  0  0  0
 12  8  2  0  0  0  0
 13 18  2  0  0  0  0
 14  5  2  0  0  0  0
 15 20  1  0  0  0  0
 16  5  1  0  0  0  0
 16 12  1  0  0  0  0
 17 16  2  0  0  0  0
 18 10  1  0  0  0  0
 19 20  1  0  0  0  0
 19 10  2  0  0  0  0
 21 22  2  0  0  0  0
 22 30  1  0  0  0  0
 23 22  1  0  0  0  0
 24 28  1  0  0  0  0
 24 27  1  0  0  0  0
 25 28  2  0  0  0  0
 26 29  1  0  0  0  0
 29 30  2  0  0  0  0
 29 31  1  0  0  0  0
 30 25  1  0  0  0  0
 31 24  2  0  0  0  0
M  END
>  <MODEL>
9

>  <REMARK>
 VINA RESULT:      -6.9      1.345      4.064
  Name = 
  2 active torsions:
  status: ('A' for Active; 'I' for Inactive)
    1  A    between atoms: C_5  and  C_30
    2  A    between atoms: C_10  and  N_16
                            x       y       z     vdW  Elec       q    Type
                         _______ _______ _______ _____ _____    ______ ____

>  <TORSDO>
F 2

$$$$
