=
 OpenBabel11122414143D

 28 32  0  0  1  0  0  0  0  0999 V2000
  163.1590  212.0520  139.2290 C   0  0  0  0  0  0  0  0  0  0  0  0
  161.4000  211.8500  142.2330 O   0  0  0  0  0  1  0  0  0  0  0  0
  157.6010  213.8100  137.0110 C   0  0  0  0  0  1  0  0  0  0  0  0
  164.8350  214.3020  139.1160 C   0  0  0  0  0  3  0  0  0  0  0  0
  157.7960  213.2860  139.4380 C   0  0  2  0  0  3  0  0  0  0  0  0
  162.3330  210.7990  139.2360 C   0  0  0  0  0  2  0  0  0  0  0  0
  163.0280  213.5570  142.5330 C   0  0  0  0  0  1  0  0  0  0  0  0
  161.5510  213.2230  142.4490 C   0  0  1  0  0  0  0  0  0  0  0  0
  159.6220  213.7550  143.8910 C   0  0  0  0  0  0  0  0  0  0  0  0
  160.8550  214.0380  141.3280 C   0  0  2  0  0  3  0  0  0  0  0  0
  159.7220  209.8210  137.4710 O   0  0  0  0  0  0  0  0  0  0  0  0
  160.1440  212.6600  139.4370 C   0  0  1  0  0  3  0  0  0  0  0  0
  158.7060  213.5220  142.7280 C   0  0  0  0  0  2  0  0  0  0  0  0
  160.9380  213.5880  143.7650 C   0  0  0  0  0  3  0  0  0  0  0  0
  160.6340  210.6870  137.4200 C   0  0  0  0  0  0  0  0  0  0  0  0
  162.6330  213.3450  139.5160 C   0  0  0  0  0  0  0  0  0  0  0  0
  158.1950  212.8630  138.0350 C   0  0  2  0  0  3  0  0  0  0  0  0
  159.0740  214.0700  145.1650 N   0  0  0  0  0  1  0  0  0  0  0  0
  160.3190  212.0380  137.0750 N   0  0  0  0  0  2  0  0  0  0  0  0
  163.4870  214.4530  139.4440 C   0  0  0  0  0  3  0  0  0  0  0  0
  164.5150  211.9190  138.9060 C   0  0  0  0  0  3  0  0  0  0  0  0
  165.3500  213.0350  138.8510 C   0  0  0  0  0  3  0  0  0  0  0  0
  162.0290  210.3270  137.8140 C   0  0  0  0  0  2  0  0  0  0  0  0
  158.9410  212.8480  140.3370 C   0  0  1  0  0  3  0  0  0  0  0  0
  159.7050  212.9670  138.0210 C   0  0  2  0  0  3  0  0  0  0  0  0
  159.3140  213.9080  141.3680 C   0  0  2  0  0  3  0  0  0  0  0  0
  156.5170  212.5850  139.8530 C   0  0  0  0  0  1  0  0  0  0  0  0
  161.1950  213.6380  139.8900 C   0  0  2  0  0  3  0  0  0  0  0  0
  1  6  1  0  0  0  0
  1 16  1  0  0  0  0
  2  8  1  0  0  0  0
  3 17  1  0  0  0  0
  4 20  1  0  0  0  0
  5 27  1  1  0  0  0
  5 24  1  0  0  0  0
  8  7  1  1  0  0  0
  8 14  1  0  0  0  0
  9 18  1  0  0  0  0
 10 26  1  0  0  0  0
 10  8  1  0  0  0  0
 12 28  1  0  0  0  0
 12 24  1  0  0  0  0
 13  9  1  0  0  0  0
 14  9  2  0  0  0  0
 15 11  2  0  0  0  0
 15 23  1  0  0  0  0
 16 28  1  0  0  0  0
 17  5  1  0  0  0  0
 19 15  1  0  0  0  0
 19 25  1  0  0  0  0
 20 16  2  0  0  0  0
 21  1  2  0  0  0  0
 22 21  1  0  0  0  0
 22  4  2  0  0  0  0
 23  6  1  0  0  0  0
 24 26  1  0  0  0  0
 25 17  1  0  0  0  0
 25 12  1  0  0  0  0
 26 13  1  0  0  0  0
 28 10  1  0  0  0  0
M  END
>  <MODEL>
1

>  <REMARK>
 VINA RESULT:      -4.5      0.000      0.000
  Name = 
  0 active torsions:
  status: ('A' for Active; 'I' for Inactive)
                            x       y       z     vdW  Elec       q    Type
                         _______ _______ _______ _____ _____    ______ ____

>  <TORSDO>
F 0

$$$$
=
 OpenBabel11122414143D

 28 32  0  0  1  0  0  0  0  0999 V2000
  161.1080  209.5310  156.0700 C   0  0  0  0  0  0  0  0  0  0  0  0
  162.6730  210.3280  153.0580 O   0  0  0  0  0  1  0  0  0  0  0  0
  156.7710  213.4790  153.9460 C   0  0  0  0  0  1  0  0  0  0  0  0
  159.9650  206.9650  156.0390 C   0  0  0  0  0  3  0  0  0  0  0  0
  158.7730  213.0440  152.5300 C   0  0  2  0  0  3  0  0  0  0  0  0
  161.7390  210.8870  156.1850 C   0  0  0  0  0  2  0  0  0  0  0  0
  162.1650  208.0090  152.9450 C   0  0  0  0  0  1  0  0  0  0  0  0
  161.9000  209.3880  152.3720 C   0  0  1  0  0  0  0  0  0  0  0  0
  161.8880  210.2790  150.0720 C   0  0  0  0  0  0  0  0  0  0  0  0
  160.3940  209.7480  152.4510 C   0  0  2  0  0  3  0  0  0  0  0  0
  160.4930  213.9240  156.5120 O   0  0  0  0  0  0  0  0  0  0  0  0
  159.9140  211.5330  154.0530 C   0  0  1  0  0  3  0  0  0  0  0  0
  161.0190  211.4110  150.5310 C   0  0  0  0  0  2  0  0  0  0  0  0
  162.3170  209.3580  150.9340 C   0  0  0  0  0  3  0  0  0  0  0  0
  160.1270  212.7270  156.6460 C   0  0  0  0  0  0  0  0  0  0  0  0
  160.2330  209.1550  155.0090 C   0  0  0  0  0  0  0  0  0  0  0  0
  158.2760  213.2970  153.9430 C   0  0  2  0  0  3  0  0  0  0  0  0
  162.3310  210.2360  148.7220 N   0  0  0  0  0  1  0  0  0  0  0  0
  158.8660  212.3010  156.1280 N   0  0  0  0  0  2  0  0  0  0  0  0
  159.6690  207.8730  155.0210 C   0  0  0  0  0  3  0  0  0  0  0  0
  161.3970  208.6060  157.0810 C   0  0  0  0  0  3  0  0  0  0  0  0
  160.8330  207.3310  157.0670 C   0  0  0  0  0  3  0  0  0  0  0  0
  161.0540  211.7290  157.2610 C   0  0  0  0  0  2  0  0  0  0  0  0
  160.0060  212.1680  152.6820 C   0  0  1  0  0  3  0  0  0  0  0  0
  158.6470  212.0440  154.7070 C   0  0  2  0  0  3  0  0  0  0  0  0
  160.0490  211.0340  151.6630 C   0  0  2  0  0  3  0  0  0  0  0  0
  159.1490  214.3540  151.8640 C   0  0  0  0  0  1  0  0  0  0  0  0
  159.8410  210.0430  153.8480 C   0  0  2  0  0  3  0  0  0  0  0  0
  1  6  1  0  0  0  0
  1 21  1  0  0  0  0
  4 22  1  0  0  0  0
  5 27  1  1  0  0  0
  5 24  1  0  0  0  0
  5 17  1  0  0  0  0
  6 23  1  0  0  0  0
  8 10  1  0  0  0  0
  8  7  1  1  0  0  0
  8  2  1  0  0  0  0
  9 13  1  0  0  0  0
  9 14  2  0  0  0  0
 10 28  1  0  0  0  0
 11 15  2  0  0  0  0
 12 25  1  0  0  0  0
 13 26  1  0  0  0  0
 14  8  1  0  0  0  0
 15 23  1  0  0  0  0
 16 20  1  0  0  0  0
 16  1  2  0  0  0  0
 17  3  1  0  0  0  0
 17 25  1  0  0  0  0
 18  9  1  0  0  0  0
 19 15  1  0  0  0  0
 20  4  2  0  0  0  0
 22 21  2  0  0  0  0
 24 12  1  0  0  0  0
 25 19  1  0  0  0  0
 26 10  1  0  0  0  0
 26 24  1  0  0  0  0
 28 12  1  0  0  0  0
 28 16  1  0  0  0  0
M  END
>  <MODEL>
2

>  <REMARK>
 VINA RESULT:      -4.1     11.054     15.046
  Name = 
  0 active torsions:
  status: ('A' for Active; 'I' for Inactive)
                            x       y       z     vdW  Elec       q    Type
                         _______ _______ _______ _____ _____    ______ ____

>  <TORSDO>
F 0

$$$$
=
 OpenBabel11122414143D

 28 32  0  0  1  0  0  0  0  0999 V2000
  161.1520  209.3040  155.3570 C   0  0  0  0  0  0  0  0  0  0  0  0
  157.8770  210.4990  155.3290 O   0  0  0  0  0  1  0  0  0  0  0  0
  161.5580  212.5990  150.0770 C   0  0  0  0  0  1  0  0  0  0  0  0
  162.7540  210.6060  157.2610 C   0  0  0  0  0  3  0  0  0  0  0  0
  159.3930  212.5960  151.3080 C   0  0  2  0  0  3  0  0  0  0  0  0
  160.3490  208.5230  154.3590 C   0  0  0  0  0  2  0  0  0  0  0  0
  158.9040  211.4300  157.2610 C   0  0  0  0  0  1  0  0  0  0  0  0
  158.2800  211.7060  155.9060 C   0  0  1  0  0  0  0  0  0  0  0  0
  156.5330  213.2730  155.1490 C   0  0  0  0  0  0  0  0  0  0  0  0
  159.2680  212.4600  154.9770 C   0  0  2  0  0  3  0  0  0  0  0  0
  160.4550  208.3060  151.0680 O   0  0  0  0  0  0  0  0  0  0  0  0
  160.0540  211.0980  153.1040 C   0  0  1  0  0  3  0  0  0  0  0  0
  157.0690  213.1750  153.7520 C   0  0  0  0  0  2  0  0  0  0  0  0
  157.0790  212.5700  156.1390 C   0  0  0  0  0  3  0  0  0  0  0  0
  161.1800  208.7000  152.0190 C   0  0  0  0  0  0  0  0  0  0  0  0
  161.2060  210.7270  155.3860 C   0  0  0  0  0  0  0  0  0  0  0  0
  160.5630  211.7470  150.8400 C   0  0  2  0  0  3  0  0  0  0  0  0
  155.3730  214.0570  155.4010 N   0  0  0  0  0  1  0  0  0  0  0  0
  161.8670  209.9490  151.9250 N   0  0  0  0  0  2  0  0  0  0  0  0
  162.0190  211.3540  156.3390 C   0  0  0  0  0  3  0  0  0  0  0  0
  161.8930  208.5700  156.2920 C   0  0  0  0  0  3  0  0  0  0  0  0
  162.6870  209.2150  157.2390 C   0  0  0  0  0  3  0  0  0  0  0  0
  161.2450  207.9080  153.2840 C   0  0  0  0  0  2  0  0  0  0  0  0
  158.9100  211.9490  152.5960 C   0  0  1  0  0  3  0  0  0  0  0  0
  161.1940  211.2320  152.1150 C   0  0  2  0  0  3  0  0  0  0  0  0
  158.5930  212.9700  153.6820 C   0  0  2  0  0  3  0  0  0  0  0  0
  158.2850  212.5780  150.2730 C   0  0  0  0  0  1  0  0  0  0  0  0
  160.4530  211.6470  154.4480 C   0  0  2  0  0  3  0  0  0  0  0  0
  1 16  2  0  0  0  0
  1 21  1  0  0  0  0
  2  8  1  0  0  0  0
  3 17  1  0  0  0  0
  5 27  1  6  0  0  0
  5 24  1  0  0  0  0
  6  1  1  0  0  0  0
  8 14  1  0  0  0  0
  8  7  1  1  0  0  0
  9 18  1  0  0  0  0
  9 14  2  0  0  0  0
 10  8  1  0  0  0  0
 11 15  2  0  0  0  0
 12 28  1  0  0  0  0
 13  9  1  0  0  0  0
 15 23  1  0  0  0  0
 16 20  1  0  0  0  0
 17  5  1  0  0  0  0
 17 25  1  0  0  0  0
 19 15  1  0  0  0  0
 19 25  1  0  0  0  0
 20  4  2  0  0  0  0
 21 22  2  0  0  0  0
 22  4  1  0  0  0  0
 23  6  1  0  0  0  0
 24 12  1  0  0  0  0
 24 26  1  0  0  0  0
 25 12  1  0  0  0  0
 26 13  1  0  0  0  0
 26 10  1  0  0  0  0
 28 10  1  0  0  0  0
 28 16  1  0  0  0  0
M  END
>  <MODEL>
3

>  <REMARK>
 VINA RESULT:      -2.9     10.977     14.465
  Name = 
  0 active torsions:
  status: ('A' for Active; 'I' for Inactive)
                            x       y       z     vdW  Elec       q    Type
                         _______ _______ _______ _____ _____    ______ ____

>  <TORSDO>
F 0

$$$$
=
 OpenBabel11122414143D

 28 32  0  0  1  0  0  0  0  0999 V2000
  161.0390  208.8200  154.0150 C   0  0  0  0  0  0  0  0  0  0  0  0
  158.1010  210.5340  153.2490 O   0  0  0  0  0  1  0  0  0  0  0  0
  163.2290  211.9880  149.1100 C   0  0  0  0  0  1  0  0  0  0  0  0
  162.3190  209.8500  156.2930 C   0  0  0  0  0  3  0  0  0  0  0  0
  160.8590  212.3430  149.7870 C   0  0  2  0  0  3  0  0  0  0  0  0
  160.3880  208.1770  152.8260 C   0  0  0  0  0  2  0  0  0  0  0  0
  158.7660  211.2900  155.4030 C   0  0  0  0  0  1  0  0  0  0  0  0
  158.5400  211.6610  153.9490 C   0  0  1  0  0  0  0  0  0  0  0  0
  157.3000  213.4890  152.8540 C   0  0  0  0  0  0  0  0  0  0  0  0
  159.8300  212.2400  153.3120 C   0  0  2  0  0  3  0  0  0  0  0  0
  161.2500  207.9360  149.6510 O   0  0  0  0  0  0  0  0  0  0  0  0
  160.8190  210.7630  151.6330 C   0  0  1  0  0  3  0  0  0  0  0  0
  158.1350  213.3000  151.6240 C   0  0  0  0  0  2  0  0  0  0  0  0
  157.4720  212.7100  153.9200 C   0  0  0  0  0  3  0  0  0  0  0  0
  161.7770  208.2090  150.7610 C   0  0  0  0  0  0  0  0  0  0  0  0
  161.3100  210.2160  154.1090 C   0  0  0  0  0  0  0  0  0  0  0  0
  161.9560  211.3130  149.5810 C   0  0  2  0  0  3  0  0  0  0  0  0
  156.2530  214.4530  152.8510 N   0  0  0  0  0  1  0  0  0  0  0  0
  162.6560  209.3300  150.8800 N   0  0  0  0  0  2  0  0  0  0  0  0
  161.9580  210.7040  155.2510 C   0  0  0  0  0  3  0  0  0  0  0  0
  161.4060  207.9780  155.0730 C   0  0  0  0  0  3  0  0  0  0  0  0
  162.0400  208.4870  156.2060 C   0  0  0  0  0  3  0  0  0  0  0  0
  161.4080  207.4210  151.9750 C   0  0  0  0  0  2  0  0  0  0  0  0
  159.9810  211.7870  150.8970 C   0  0  1  0  0  3  0  0  0  0  0  0
  162.1700  210.7050  150.9500 C   0  0  2  0  0  3  0  0  0  0  0  0
  159.5780  212.8500  151.9130 C   0  0  2  0  0  3  0  0  0  0  0  0
  160.0450  212.5030  148.5170 C   0  0  0  0  0  1  0  0  0  0  0  0
  160.9620  211.2430  153.0520 C   0  0  2  0  0  3  0  0  0  0  0  0
  1 16  2  0  0  0  0
  1 21  1  0  0  0  0
  2  8  1  0  0  0  0
  3 17  1  0  0  0  0
  5 27  1  6  0  0  0
  5 24  1  0  0  0  0
  6  1  1  0  0  0  0
  8  7  1  1  0  0  0
  9 14  2  0  0  0  0
 10  8  1  0  0  0  0
 11 15  2  0  0  0  0
 12 28  1  0  0  0  0
 13 26  1  0  0  0  0
 13  9  1  0  0  0  0
 14  8  1  0  0  0  0
 15 19  1  0  0  0  0
 15 23  1  0  0  0  0
 16 20  1  0  0  0  0
 17  5  1  0  0  0  0
 17 25  1  0  0  0  0
 18  9  1  0  0  0  0
 19 25  1  0  0  0  0
 20  4  2  0  0  0  0
 21 22  2  0  0  0  0
 22  4  1  0  0  0  0
 23  6  1  0  0  0  0
 24 12  1  0  0  0  0
 24 26  1  0  0  0  0
 25 12  1  0  0  0  0
 26 10  1  0  0  0  0
 28 10  1  0  0  0  0
 28 16  1  0  0  0  0
M  END
>  <MODEL>
4

>  <REMARK>
 VINA RESULT:      -2.6      9.650     13.158
  Name = 
  0 active torsions:
  status: ('A' for Active; 'I' for Inactive)
                            x       y       z     vdW  Elec       q    Type
                         _______ _______ _______ _____ _____    ______ ____

>  <TORSDO>
F 0

$$$$
=
 OpenBabel11122414143D

 28 32  0  0  1  0  0  0  0  0999 V2000
  160.5080  210.9020  151.4970 C   0  0  0  0  0  0  0  0  0  0  0  0
  159.7050  207.5100  151.5570 O   0  0  0  0  0  1  0  0  0  0  0  0
  162.5680  209.7050  157.2610 C   0  0  0  0  0  1  0  0  0  0  0  0
  162.7650  211.4430  149.9160 C   0  0  0  0  0  3  0  0  0  0  0  0
  161.5910  207.8340  155.9390 C   0  0  2  0  0  3  0  0  0  0  0  0
  159.2640  210.7030  152.3110 C   0  0  0  0  0  2  0  0  0  0  0  0
  161.3490  207.7700  149.8590 C   0  0  0  0  0  1  0  0  0  0  0  0
  161.0130  207.1630  151.2080 C   0  0  1  0  0  0  0  0  0  0  0  0
  161.2260  204.8830  152.1250 C   0  0  0  0  0  0  0  0  0  0  0  0
  162.0160  207.6250  152.2960 C   0  0  2  0  0  3  0  0  0  0  0  0
  158.5990  211.0690  155.5220 O   0  0  0  0  0  0  0  0  0  0  0  0
  161.0150  209.1150  153.9570 C   0  0  1  0  0  3  0  0  0  0  0  0
  161.2060  205.4540  153.5110 C   0  0  0  0  0  2  0  0  0  0  0  0
  161.1090  205.6760  151.0610 C   0  0  0  0  0  3  0  0  0  0  0  0
  159.4750  211.4160  154.6870 C   0  0  0  0  0  0  0  0  0  0  0  0
  161.7130  210.1710  151.7050 C   0  0  0  0  0  0  0  0  0  0  0  0
  161.4510  209.2980  156.3190 C   0  0  2  0  0  3  0  0  0  0  0  0
  161.2820  203.4730  151.9470 N   0  0  0  0  0  1  0  0  0  0  0  0
  160.8610  211.3160  155.0190 N   0  0  0  0  0  2  0  0  0  0  0  0
  162.8290  210.4650  150.9100 C   0  0  0  0  0  3  0  0  0  0  0  0
  160.4620  211.8770  150.4920 C   0  0  0  0  0  3  0  0  0  0  0  0
  161.5810  212.1460  149.7040 C   0  0  0  0  0  3  0  0  0  0  0  0
  159.0680  211.8410  153.3140 C   0  0  0  0  0  2  0  0  0  0  0  0
  161.0080  207.7190  154.5400 C   0  0  1  0  0  3  0  0  0  0  0  0
  161.5810  210.0450  155.0100 C   0  0  2  0  0  3  0  0  0  0  0  0
  161.8550  206.8450  153.6220 C   0  0  2  0  0  3  0  0  0  0  0  0
  160.8020  206.9650  156.9000 C   0  0  0  0  0  1  0  0  0  0  0  0
  161.9050  209.0850  152.7430 C   0  0  2  0  0  3  0  0  0  0  0  0
  1 16  1  0  0  0  0
  1  6  1  0  0  0  0
  4 20  1  0  0  0  0
  5 17  1  0  0  0  0
  5 27  1  1  0  0  0
  6 23  1  0  0  0  0
  8  7  1  6  0  0  0
  8  2  1  0  0  0  0
  8 10  1  0  0  0  0
  9 13  1  0  0  0  0
 10 28  1  0  0  0  0
 10 26  1  0  0  0  0
 12 24  1  0  0  0  0
 12 25  1  0  0  0  0
 13 26  1  0  0  0  0
 14  8  1  0  0  0  0
 14  9  2  0  0  0  0
 15 19  1  0  0  0  0
 15 11  2  0  0  0  0
 16 28  1  0  0  0  0
 17  3  1  0  0  0  0
 18  9  1  0  0  0  0
 20 16  2  0  0  0  0
 21  1  2  0  0  0  0
 22  4  2  0  0  0  0
 22 21  1  0  0  0  0
 23 15  1  0  0  0  0
 24  5  1  0  0  0  0
 25 19  1  0  0  0  0
 25 17  1  0  0  0  0
 26 24  1  0  0  0  0
 28 12  1  0  0  0  0
M  END
>  <MODEL>
5

>  <REMARK>
 VINA RESULT:      -1.5     10.907     14.601
  Name = 
  0 active torsions:
  status: ('A' for Active; 'I' for Inactive)
                            x       y       z     vdW  Elec       q    Type
                         _______ _______ _______ _____ _____    ______ ____

>  <TORSDO>
F 0

$$$$
