=
 OpenBabel11122414113D

 28 32  0  0  1  0  0  0  0  0999 V2000
  160.8210  209.4500  154.8770 C   0  0  0  0  0  0  0  0  0  0  0  0
  157.6240  210.3590  155.1940 O   0  0  0  0  0  0  0  0  0  0  0  0
  160.8540  212.8110  150.0470 O   0  0  0  0  0  0  0  0  0  0  0  0
  162.2450  210.5140  157.0460 C   0  0  0  0  0  3  0  0  0  0  0  0
  158.8390  213.1900  151.3350 C   0  0  2  0  0  3  0  0  0  0  0  0
  160.0660  208.8000  153.7600 C   0  0  0  0  0  2  0  0  0  0  0  0
  158.0850  211.6100  157.2610 O   0  0  0  0  0  0  0  0  0  0  0  0
  157.7360  211.7280  155.8040 S   0  0  0  0  0  0  0  0  0  0  0  0
  156.1000  213.6820  154.7800 C   0  0  0  0  0  0  0  0  0  0  0  0
  158.9770  212.7230  154.9790 C   0  0  2  0  0  3  0  0  0  0  0  0
  162.0950  208.8440  150.6900 O   0  0  0  0  0  0  0  0  0  0  0  0
  159.4180  211.4170  152.9640 C   0  0  1  0  0  3  0  0  0  0  0  0
  157.0650  214.0890  154.0070 N   0  0  0  0  0  0  0  0  0  0  0  0
  156.2330  212.5470  155.6330 N   0  0  0  0  0  2  0  0  0  0  0  0
  161.5800  209.3130  151.7380 C   0  0  0  0  0  0  0  0  0  0  0  0
  160.7640  210.8460  155.1420 C   0  0  0  0  0  0  0  0  0  0  0  0
  160.1050  212.4930  151.0080 C   0  0  0  0  0  0  0  0  0  0  0  0
  154.8300  214.4530  154.8090 C   0  0  0  0  0  1  0  0  0  0  0  0
  161.7050  210.7820  151.9970 C   0  0  0  0  0  2  0  0  0  0  0  0
  161.4920  211.3550  156.2260 C   0  0  0  0  0  3  0  0  0  0  0  0
  161.5800  208.6180  155.7090 C   0  0  0  0  0  3  0  0  0  0  0  0
  162.2890  209.1460  156.7880 C   0  0  0  0  0  3  0  0  0  0  0  0
  160.9410  208.4160  152.6570 N   0  0  0  0  0  2  0  0  0  0  0  0
  158.3650  212.4830  152.6120 C   0  0  1  0  0  3  0  0  0  0  0  0
  160.4140  211.4540  151.9130 N   0  0  0  0  0  0  0  0  0  0  0  0
  158.3710  213.4560  153.7860 C   0  0  2  0  0  3  0  0  0  0  0  0
  157.8230  212.9610  150.2310 C   0  0  0  0  0  1  0  0  0  0  0  0
  160.0260  211.8620  154.2900 C   0  0  2  0  0  3  0  0  0  0  0  0
  1 16  2  0  0  0  0
  1 21  1  0  0  0  0
  2  8  2  0  0  0  0
  3 17  2  0  0  0  0
  5 27  1  6  0  0  0
  5 24  1  0  0  0  0
  6  1  1  0  0  0  0
  8  7  2  0  0  0  0
  9 18  1  0  0  0  0
  9 14  1  0  0  0  0
 10  8  1  6  0  0  0
 11 15  2  0  0  0  0
 12 25  1  6  0  0  0
 12 28  1  0  0  0  0
 13  9  2  0  0  0  0
 14  8  1  0  0  0  0
 15 19  1  0  0  0  0
 15 23  1  0  0  0  0
 16 20  1  0  0  0  0
 17  5  1  0  0  0  0
 17 25  1  0  0  0  0
 20  4  2  0  0  0  0
 21 22  2  0  0  0  0
 22  4  1  0  0  0  0
 23  6  1  0  0  0  0
 24 12  1  0  0  0  0
 24 26  1  0  0  0  0
 25 19  1  0  0  0  0
 26 13  1  0  0  0  0
 26 10  1  0  0  0  0
 28 10  1  0  0  0  0
 28 16  1  0  0  0  0
M  END
>  <MODEL>
1

>  <REMARK>
 VINA RESULT:      -4.8      0.000      0.000
  Name = 
  0 active torsions:
  status: ('A' for Active; 'I' for Inactive)
                            x       y       z     vdW  Elec       q    Type
                         _______ _______ _______ _____ _____    ______ ____

>  <TORSDO>
F 0

$$$$
=
 OpenBabel11122414113D

 28 32  0  0  1  0  0  0  0  0999 V2000
  161.9350  204.9160  146.2360 C   0  0  0  0  0  0  0  0  0  0  0  0
  163.2480  206.8320  148.6340 O   0  0  0  0  0  0  0  0  0  0  0  0
  159.5310  201.8150  150.6220 O   0  0  0  0  0  0  0  0  0  0  0  0
  160.1150  206.4740  144.7780 C   0  0  0  0  0  3  0  0  0  0  0  0
  160.4610  203.8890  151.4550 C   0  0  2  0  0  3  0  0  0  0  0  0
  162.9640  204.0910  146.9440 C   0  0  0  0  0  2  0  0  0  0  0  0
  161.9000  208.7730  147.9540 O   0  0  0  0  0  0  0  0  0  0  0  0
  162.0930  207.7190  149.0070 S   0  0  0  0  0  0  0  0  0  0  0  0
  161.6680  208.1440  151.6870 C   0  0  0  0  0  0  0  0  0  0  0  0
  160.5750  206.7880  149.1970 C   0  0  2  0  0  3  0  0  0  0  0  0
  161.7760  200.6230  147.2720 O   0  0  0  0  0  0  0  0  0  0  0  0
  161.3910  204.4880  149.2390 C   0  0  1  0  0  3  0  0  0  0  0  0
  160.7760  207.1960  151.6980 N   0  0  0  0  0  0  0  0  0  0  0  0
  162.4230  208.4670  150.5200 N   0  0  0  0  0  2  0  0  0  0  0  0
  161.6960  201.8780  147.3160 C   0  0  0  0  0  0  0  0  0  0  0  0
  160.8820  205.5900  146.9140 C   0  0  0  0  0  0  0  0  0  0  0  0
  160.2090  202.8570  150.4230 C   0  0  0  0  0  0  0  0  0  0  0  0
  161.8780  208.9480  152.9190 C   0  0  0  0  0  1  0  0  0  0  0  0
  160.4710  202.4910  147.9200 C   0  0  0  0  0  2  0  0  0  0  0  0
  159.9800  206.3560  146.1620 C   0  0  0  0  0  3  0  0  0  0  0  0
  162.0580  205.0440  144.8480 C   0  0  0  0  0  3  0  0  0  0  0  0
  161.1540  205.8190  144.1210 C   0  0  0  0  0  3  0  0  0  0  0  0
  162.7530  202.6600  146.7440 N   0  0  0  0  0  2  0  0  0  0  0  0
  161.2510  204.9650  150.6960 C   0  0  1  0  0  3  0  0  0  0  0  0
  160.7750  203.1780  149.1700 N   0  0  0  0  0  0  0  0  0  0  0  0
  160.4460  206.2560  150.6210 C   0  0  2  0  0  3  0  0  0  0  0  0
  161.3300  203.3160  152.5590 C   0  0  0  0  0  1  0  0  0  0  0  0
  160.6030  205.4900  148.4020 C   0  0  2  0  0  3  0  0  0  0  0  0
  1 16  1  0  0  0  0
  1  6  1  0  0  0  0
  2  8  2  0  0  0  0
  4 20  1  0  0  0  0
  5 27  1  1  0  0  0
  7  8  2  0  0  0  0
  8 14  1  0  0  0  0
  9 13  2  0  0  0  0
  9 18  1  0  0  0  0
 10  8  1  1  0  0  0
 10 26  1  0  0  0  0
 11 15  2  0  0  0  0
 12 25  1  1  0  0  0
 12 24  1  0  0  0  0
 14  9  1  0  0  0  0
 15 19  1  0  0  0  0
 16 28  1  0  0  0  0
 17  3  2  0  0  0  0
 17  5  1  0  0  0  0
 19 25  1  0  0  0  0
 20 16  2  0  0  0  0
 21  1  2  0  0  0  0
 22  4  2  0  0  0  0
 22 21  1  0  0  0  0
 23  6  1  0  0  0  0
 23 15  1  0  0  0  0
 24  5  1  0  0  0  0
 25 17  1  0  0  0  0
 26 24  1  0  0  0  0
 26 13  1  0  0  0  0
 28 10  1  0  0  0  0
 28 12  1  0  0  0  0
M  END
>  <MODEL>
2

>  <REMARK>
 VINA RESULT:      -3.2      6.214      9.645
  Name = 
  0 active torsions:
  status: ('A' for Active; 'I' for Inactive)
                            x       y       z     vdW  Elec       q    Type
                         _______ _______ _______ _____ _____    ______ ____

>  <TORSDO>
F 0

$$$$
