=
 OpenBabel11122414033D

 28 32  0  0  1  0  0  0  0  0999 V2000
  160.8910  210.2150  155.6570 C   0  0  0  0  0  0  0  0  0  0  0  0
  163.4560  210.2830  151.6390 O   0  0  0  0  0  0  0  0  0  0  0  0
  156.3470  212.8130  153.3280 C   0  0  0  0  0  1  0  0  0  0  0  0
  160.4560  207.6220  154.6900 C   0  0  0  0  0  3  0  0  0  0  0  0
  158.4100  213.7680  152.1130 C   0  0  1  0  0  3  0  0  0  0  0  0
  161.0360  211.5670  156.2600 C   0  0  0  0  0  2  0  0  0  0  0  0
  161.6620  208.6180  151.3630 O   0  0  0  0  0  0  0  0  0  0  0  0
  162.0440  210.0580  151.1800 S   0  0  0  0  0  0  0  0  0  0  0  0
  161.7310  211.9840  149.2520 C   0  0  1  0  0  3  0  0  0  0  0  0
  160.9520  211.1480  152.0130 C   0  0  0  0  0  0  0  0  0  0  0  0
  158.0120  213.5050  157.2610 O   0  0  0  0  0  1  0  0  0  0  0  0
  159.5810  212.1940  153.4120 N   0  0  0  0  0  0  0  0  0  0  0  0
  160.5710  212.5150  149.9700 N   0  0  0  0  0  2  0  0  0  0  0  0
  161.8820  210.4710  149.4470 C   0  0  0  0  0  2  0  0  0  0  0  0
  159.2980  213.3240  156.7510 C   0  0  2  0  0  3  0  0  0  0  0  0
  160.5450  210.0260  154.2980 C   0  0  0  0  0  0  0  0  0  0  0  0
  157.6710  213.5520  153.4710 C   0  0  2  0  0  3  0  0  0  0  0  0
  161.6020  212.2970  147.7770 C   0  0  0  0  0  1  0  0  0  0  0  0
  159.3320  213.7110  155.2750 C   0  0  0  0  0  2  0  0  0  0  0  0
  160.3200  208.7200  153.8400 C   0  0  0  0  0  3  0  0  0  0  0  0
  161.0290  209.1060  156.5020 C   0  0  0  0  0  3  0  0  0  0  0  0
  160.8170  207.8140  156.0220 C   0  0  0  0  0  3  0  0  0  0  0  0
  159.7460  211.8920  156.9990 C   0  0  0  0  0  2  0  0  0  0  0  0
  159.5080  212.7920  152.2350 C   0  0  0  0  0  0  0  0  0  0  0  0
  158.6180  212.7160  154.3620 C   0  0  2  0  0  3  0  0  0  0  0  0
  160.3680  212.2030  151.3490 C   0  0  0  0  0  0  0  0  0  0  0  0
  157.6040  213.4570  151.0130 O   0  0  0  0  0  1  0  0  0  0  0  0
  160.4300  211.1380  153.3170 C   0  0  0  0  0  0  0  0  0  0  0  0
  1  6  1  0  0  0  0
  1 21  1  0  0  0  0
  4 22  1  0  0  0  0
  5 27  1  6  0  0  0
  5 24  1  0  0  0  0
  5 17  1  0  0  0  0
  6 23  1  0  0  0  0
  8  7  2  0  0  0  0
  8  2  2  0  0  0  0
  8 10  1  0  0  0  0
  9 18  1  6  0  0  0
  9 14  1  0  0  0  0
  9 13  1  0  0  0  0
 10 28  2  0  0  0  0
 12 25  1  0  0  0  0
 13 26  1  0  0  0  0
 14  8  1  0  0  0  0
 15 23  1  0  0  0  0
 15 11  1  6  0  0  0
 16  1  2  0  0  0  0
 17  3  1  6  0  0  0
 17 25  1  0  0  0  0
 19 15  1  0  0  0  0
 20 16  1  0  0  0  0
 20  4  2  0  0  0  0
 22 21  2  0  0  0  0
 24 12  1  0  0  0  0
 25 19  1  1  0  0  0
 26 10  1  0  0  0  0
 26 24  2  0  0  0  0
 28 12  1  0  0  0  0
 28 16  1  0  0  0  0
M  END
>  <MODEL>
1

>  <REMARK>
 VINA RESULT:      -4.1      0.000      0.000
  Name = 
  0 active torsions:
  status: ('A' for Active; 'I' for Inactive)
                            x       y       z     vdW  Elec       q    Type
                         _______ _______ _______ _____ _____    ______ ____

>  <TORSDO>
F 0

$$$$
=
 OpenBabel11122414033D

 28 32  0  0  1  0  0  0  0  0999 V2000
  160.1890  211.4220  151.3600 C   0  0  0  0  0  0  0  0  0  0  0  0
  159.9500  206.9420  149.7460 O   0  0  0  0  0  0  0  0  0  0  0  0
  162.5060  209.9590  156.3910 C   0  0  0  0  0  1  0  0  0  0  0  0
  162.4890  211.2940  149.7650 C   0  0  0  0  0  3  0  0  0  0  0  0
  160.9750  207.9980  155.7180 C   0  0  1  0  0  3  0  0  0  0  0  0
  159.0070  211.6040  152.2450 C   0  0  0  0  0  2  0  0  0  0  0  0
  162.3180  207.6230  149.7420 O   0  0  0  0  0  0  0  0  0  0  0  0
  161.2210  206.9870  150.5450 S   0  0  0  0  0  0  0  0  0  0  0  0
  160.9530  204.8220  152.2090 C   0  0  1  0  0  3  0  0  0  0  0  0
  160.9520  207.8070  152.0710 C   0  0  0  0  0  0  0  0  0  0  0  0
  159.4420  212.9350  155.7000 O   0  0  0  0  0  1  0  0  0  0  0  0
  160.6820  209.2430  153.7440 N   0  0  0  0  0  0  0  0  0  0  0  0
  161.1260  205.6940  153.3720 N   0  0  0  0  0  2  0  0  0  0  0  0
  161.7320  205.3310  150.9910 C   0  0  0  0  0  2  0  0  0  0  0  0
  158.8840  212.1320  154.7050 C   0  0  2  0  0  3  0  0  0  0  0  0
  161.0610  210.3140  151.4800 C   0  0  0  0  0  0  0  0  0  0  0  0
  161.0910  209.5220  156.0350 C   0  0  2  0  0  3  0  0  0  0  0  0
  161.4060  203.4200  152.5540 C   0  0  0  0  0  1  0  0  0  0  0  0
  159.1800  210.6630  154.9940 C   0  0  0  0  0  2  0  0  0  0  0  0
  162.2120  210.2780  150.6810 C   0  0  0  0  0  3  0  0  0  0  0  0
  160.4730  212.4360  150.4350 C   0  0  0  0  0  3  0  0  0  0  0  0
  161.6140  212.3720  149.6380 C   0  0  0  0  0  3  0  0  0  0  0  0
  159.3900  212.5830  153.3440 C   0  0  0  0  0  2  0  0  0  0  0  0
  160.8030  208.0300  154.2550 C   0  0  0  0  0  0  0  0  0  0  0  0
  160.6390  210.2740  154.7630 C   0  0  2  0  0  3  0  0  0  0  0  0
  160.9340  207.1040  153.2550 C   0  0  0  0  0  0  0  0  0  0  0  0
  162.1360  207.2940  156.0560 O   0  0  0  0  0  1  0  0  0  0  0  0
  160.8120  209.1670  152.3940 C   0  0  0  0  0  0  0  0  0  0  0  0
  1 16  1  0  0  0  0
  1  6  1  0  0  0  0
  2  8  2  0  0  0  0
  4 20  1  0  0  0  0
  5 17  1  0  0  0  0
  5 27  1  6  0  0  0
  6 23  1  0  0  0  0
  7  8  2  0  0  0  0
  8 14  1  0  0  0  0
  8 10  1  0  0  0  0
  9 18  1  1  0  0  0
  9 13  1  0  0  0  0
 10 28  2  0  0  0  0
 10 26  1  0  0  0  0
 12 24  1  0  0  0  0
 12 25  1  0  0  0  0
 14  9  1  0  0  0  0
 15 19  1  0  0  0  0
 15 11  1  1  0  0  0
 16 28  1  0  0  0  0
 17  3  1  6  0  0  0
 20 16  2  0  0  0  0
 21  1  2  0  0  0  0
 22  4  2  0  0  0  0
 22 21  1  0  0  0  0
 23 15  1  0  0  0  0
 24  5  1  0  0  0  0
 25 19  1  1  0  0  0
 25 17  1  0  0  0  0
 26 13  1  0  0  0  0
 26 24  2  0  0  0  0
 28 12  1  0  0  0  0
M  END
>  <MODEL>
2

>  <REMARK>
 VINA RESULT:      -4.1      2.604      5.554
  Name = 
  0 active torsions:
  status: ('A' for Active; 'I' for Inactive)
                            x       y       z     vdW  Elec       q    Type
                         _______ _______ _______ _____ _____    ______ ____

>  <TORSDO>
F 0

$$$$
=
 OpenBabel11122414033D

 28 32  0  0  1  0  0  0  0  0999 V2000
  161.4930  205.9320  152.4830 C   0  0  0  0  0  0  0  0  0  0  0  0
  163.5460  208.0820  148.7550 O   0  0  0  0  0  0  0  0  0  0  0  0
  158.2800  210.4590  153.8940 C   0  0  0  0  0  1  0  0  0  0  0  0
  159.9480  204.9420  150.3650 C   0  0  0  0  0  3  0  0  0  0  0  0
  160.4560  211.4170  152.8980 C   0  0  1  0  0  3  0  0  0  0  0  0
  162.2320  206.4000  153.6850 C   0  0  0  0  0  2  0  0  0  0  0  0
  161.2060  207.5960  148.1550 O   0  0  0  0  0  0  0  0  0  0  0  0
  162.1380  208.6040  148.7630 S   0  0  0  0  0  0  0  0  0  0  0  0
  162.5100  211.3190  148.6360 C   0  0  1  0  0  3  0  0  0  0  0  0
  161.6630  209.0530  150.3900 C   0  0  0  0  0  0  0  0  0  0  0  0
  160.3720  207.8050  156.5960 O   0  0  0  0  0  1  0  0  0  0  0  0
  160.9600  209.1550  152.4940 N   0  0  0  0  0  0  0  0  0  0  0  0
  161.7330  211.4840  149.8650 N   0  0  0  0  0  2  0  0  0  0  0  0
  162.0330  210.1180  147.8130 C   0  0  0  0  0  2  0  0  0  0  0  0
  161.4230  207.7030  155.6850 C   0  0  2  0  0  3  0  0  0  0  0  0
  160.9990  206.8250  151.5020 C   0  0  0  0  0  0  0  0  0  0  0  0
  159.7990  210.5260  153.9990 C   0  0  2  0  0  3  0  0  0  0  0  0
  162.4130  212.5780  147.8020 C   0  0  0  0  0  1  0  0  0  0  0  0
  161.5060  208.9710  154.8400 C   0  0  0  0  0  2  0  0  0  0  0  0
  160.2180  206.3080  150.4590 C   0  0  0  0  0  3  0  0  0  0  0  0
  161.2210  204.5610  152.3780 C   0  0  0  0  0  3  0  0  0  0  0  0
  160.4560  204.0660  151.3230 C   0  0  0  0  0  3  0  0  0  0  0  0
  161.2530  206.4440  154.8490 C   0  0  0  0  0  2  0  0  0  0  0  0
  161.0550  210.3890  152.0280 C   0  0  0  0  0  0  0  0  0  0  0  0
  160.3760  209.1030  153.8200 C   0  0  2  0  0  3  0  0  0  0  0  0
  161.5230  210.3770  150.7420 C   0  0  0  0  0  0  0  0  0  0  0  0
  159.5130  212.1670  152.1870 O   0  0  0  0  0  1  0  0  0  0  0  0
  161.2830  208.2840  151.5030 C   0  0  0  0  0  0  0  0  0  0  0  0
  1  6  1  0  0  0  0
  2  8  2  0  0  0  0
  4 20  2  0  0  0  0
  4 22  1  0  0  0  0
  5 27  1  6  0  0  0
  5 17  1  0  0  0  0
  6 23  1  0  0  0  0
  7  8  2  0  0  0  0
  8 10  1  0  0  0  0
  9 18  1  6  0  0  0
  9 13  1  0  0  0  0
 10 26  1  0  0  0  0
 10 28  2  0  0  0  0
 12 25  1  0  0  0  0
 13 26  1  0  0  0  0
 14  9  1  0  0  0  0
 14  8  1  0  0  0  0
 15 11  1  1  0  0  0
 16 28  1  0  0  0  0
 16  1  2  0  0  0  0
 17  3  1  6  0  0  0
 19 15  1  0  0  0  0
 20 16  1  0  0  0  0
 21  1  1  0  0  0  0
 22 21  2  0  0  0  0
 23 15  1  0  0  0  0
 24 12  1  0  0  0  0
 24  5  1  0  0  0  0
 25 17  1  0  0  0  0
 25 19  1  1  0  0  0
 26 24  2  0  0  0  0
 28 12  1  0  0  0  0
M  END
>  <MODEL>
3

>  <REMARK>
 VINA RESULT:      -4.1      2.778      4.144
  Name = 
  0 active torsions:
  status: ('A' for Active; 'I' for Inactive)
                            x       y       z     vdW  Elec       q    Type
                         _______ _______ _______ _____ _____    ______ ____

>  <TORSDO>
F 0

$$$$
=
 OpenBabel11122414033D

 28 32  0  0  1  0  0  0  0  0999 V2000
  159.6870  213.3490  151.0470 C   0  0  0  0  0  0  0  0  0  0  0  0
  160.4560  212.7210  155.7100 O   0  0  0  0  0  0  0  0  0  0  0  0
  160.8310  207.9070  149.6710 C   0  0  0  0  0  1  0  0  0  0  0  0
  157.0690  213.0200  151.9910 C   0  0  0  0  0  3  0  0  0  0  0  0
  162.3310  208.4570  151.6930 C   0  0  1  0  0  3  0  0  0  0  0  0
  161.0280  213.5210  150.4290 C   0  0  0  0  0  2  0  0  0  0  0  0
  158.3390  211.6000  155.1350 O   0  0  0  0  0  0  0  0  0  0  0  0
  159.8260  211.4350  155.2560 S   0  0  0  0  0  0  0  0  0  0  0  0
  161.5600  209.5470  156.2330 C   0  0  1  0  0  3  0  0  0  0  0  0
  160.5600  210.8920  153.7590 C   0  0  0  0  0  0  0  0  0  0  0  0
  162.0160  211.4510  147.4900 O   0  0  0  0  0  1  0  0  0  0  0  0
  161.1780  210.5080  151.6610 N   0  0  0  0  0  0  0  0  0  0  0  0
  161.7380  209.0110  154.8830 N   0  0  0  0  0  2  0  0  0  0  0  0
  160.1580  210.1320  156.4370 C   0  0  0  0  0  2  0  0  0  0  0  0
  162.2100  212.1290  148.6930 C   0  0  2  0  0  3  0  0  0  0  0  0
  159.3920  212.2830  151.9300 C   0  0  0  0  0  0  0  0  0  0  0  0
  161.9250  208.8100  150.2280 C   0  0  2  0  0  3  0  0  0  0  0  0
  161.8070  208.4540  157.2500 C   0  0  0  0  0  1  0  0  0  0  0  0
  162.5770  211.1400  149.7950 C   0  0  0  0  0  2  0  0  0  0  0  0
  158.0720  212.1310  152.3790 C   0  0  0  0  0  3  0  0  0  0  0  0
  158.6730  214.2390  150.6650 C   0  0  0  0  0  3  0  0  0  0  0  0
  157.3720  214.0800  151.1380 C   0  0  0  0  0  3  0  0  0  0  0  0
  160.9730  212.9500  149.0200 C   0  0  0  0  0  2  0  0  0  0  0  0
  161.7180  209.5770  152.4300 C   0  0  0  0  0  0  0  0  0  0  0  0
  161.4080  210.2660  150.2500 C   0  0  2  0  0  3  0  0  0  0  0  0
  161.3940  209.7970  153.7410 C   0  0  0  0  0  0  0  0  0  0  0  0
  161.7900  207.2400  152.1180 O   0  0  0  0  0  1  0  0  0  0  0  0
  160.4130  211.3240  152.4310 C   0  0  0  0  0  0  0  0  0  0  0  0
  1 16  1  0  0  0  0
  4 20  1  0  0  0  0
  5 27  1  1  0  0  0
  5 24  1  0  0  0  0
  6  1  1  0  0  0  0
  7  8  2  0  0  0  0
  8  2  2  0  0  0  0
  8 14  1  0  0  0  0
  9 14  1  0  0  0  0
  9 18  1  1  0  0  0
 10  8  1  0  0  0  0
 12 24  1  0  0  0  0
 12 28  1  0  0  0  0
 13  9  1  0  0  0  0
 15 11  1  6  0  0  0
 15 23  1  0  0  0  0
 15 19  1  0  0  0  0
 16 20  2  0  0  0  0
 16 28  1  0  0  0  0
 17  3  1  1  0  0  0
 17 25  1  0  0  0  0
 17  5  1  0  0  0  0
 21  1  2  0  0  0  0
 21 22  1  0  0  0  0
 22  4  2  0  0  0  0
 23  6  1  0  0  0  0
 24 26  2  0  0  0  0
 25 19  1  1  0  0  0
 25 12  1  0  0  0  0
 26 10  1  0  0  0  0
 26 13  1  0  0  0  0
 28 10  2  0  0  0  0
M  END
>  <MODEL>
4

>  <REMARK>
 VINA RESULT:      -3.0      2.267      6.582
  Name = 
  0 active torsions:
  status: ('A' for Active; 'I' for Inactive)
                            x       y       z     vdW  Elec       q    Type
                         _______ _______ _______ _____ _____    ______ ____

>  <TORSDO>
F 0

$$$$
=
 OpenBabel11122414033D

 28 32  0  0  1  0  0  0  0  0999 V2000
  159.5490  213.7920  149.6240 C   0  0  0  0  0  0  0  0  0  0  0  0
  158.9170  214.4520  154.3030 O   0  0  0  0  0  0  0  0  0  0  0  0
  161.1630  208.3220  150.1590 C   0  0  0  0  0  1  0  0  0  0  0  0
  156.7770  213.4550  149.8510 C   0  0  0  0  0  3  0  0  0  0  0  0
  161.9860  209.5150  152.2900 C   0  0  1  0  0  3  0  0  0  0  0  0
  161.0090  213.9350  149.3820 C   0  0  0  0  0  2  0  0  0  0  0  0
  157.0890  213.0150  153.4870 O   0  0  0  0  0  0  0  0  0  0  0  0
  158.4770  213.0370  154.0590 S   0  0  0  0  0  0  0  0  0  0  0  0
  159.8820  211.6420  155.9580 C   0  0  1  0  0  3  0  0  0  0  0  0
  159.6320  212.2070  153.0340 C   0  0  0  0  0  0  0  0  0  0  0  0
  162.8650  211.2940  147.5160 O   0  0  0  0  0  1  0  0  0  0  0  0
  160.8500  211.3640  151.3800 N   0  0  0  0  0  0  0  0  0  0  0  0
  160.4640  210.8010  154.9100 N   0  0  0  0  0  2  0  0  0  0  0  0
  158.4710  212.1160  155.5940 C   0  0  0  0  0  2  0  0  0  0  0  0
  162.6810  212.2720  148.4940 C   0  0  2  0  0  3  0  0  0  0  0  0
  159.0290  212.9620  150.6450 C   0  0  0  0  0  0  0  0  0  0  0  0
  162.0230  209.4410  150.7310 C   0  0  2  0  0  3  0  0  0  0  0  0
  159.8410  210.8730  157.2610 C   0  0  0  0  0  1  0  0  0  0  0  0
  162.7250  211.6370  149.8800 C   0  0  0  0  0  2  0  0  0  0  0  0
  157.6390  212.7990  150.7310 C   0  0  0  0  0  3  0  0  0  0  0  0
  158.6760  214.4500  148.7470 C   0  0  0  0  0  3  0  0  0  0  0  0
  157.2960  214.2870  148.8610 C   0  0  0  0  0  3  0  0  0  0  0  0
  161.3850  213.0210  148.2250 C   0  0  0  0  0  2  0  0  0  0  0  0
  161.1580  210.7180  152.4920 C   0  0  0  0  0  0  0  0  0  0  0  0
  161.4930  210.7960  150.2100 C   0  0  2  0  0  3  0  0  0  0  0  0
  160.4570  211.2320  153.5490 C   0  0  0  0  0  0  0  0  0  0  0  0
  161.3680  208.3990  152.8620 O   0  0  0  0  0  1  0  0  0  0  0  0
  159.8750  212.2700  151.6520 C   0  0  0  0  0  0  0  0  0  0  0  0
  1 16  1  0  0  0  0
  4 20  1  0  0  0  0
  5 24  1  0  0  0  0
  5 27  1  1  0  0  0
  6  1  1  0  0  0  0
  7  8  2  0  0  0  0
  8  2  2  0  0  0  0
  8 14  1  0  0  0  0
  9 18  1  1  0  0  0
 10 26  1  0  0  0  0
 10  8  1  0  0  0  0
 12 28  1  0  0  0  0
 12 24  1  0  0  0  0
 13  9  1  0  0  0  0
 14  9  1  0  0  0  0
 15 11  1  6  0  0  0
 15 19  1  0  0  0  0
 16 20  2  0  0  0  0
 16 28  1  0  0  0  0
 17  3  1  6  0  0  0
 17  5  1  0  0  0  0
 21 22  1  0  0  0  0
 21  1  2  0  0  0  0
 22  4  2  0  0  0  0
 23 15  1  0  0  0  0
 23  6  1  0  0  0  0
 24 26  2  0  0  0  0
 25 19  1  1  0  0  0
 25 17  1  0  0  0  0
 25 12  1  0  0  0  0
 26 13  1  0  0  0  0
 28 10  2  0  0  0  0
M  END
>  <MODEL>
5

>  <REMARK>
 VINA RESULT:      -2.6      2.295      6.899
  Name = 
  0 active torsions:
  status: ('A' for Active; 'I' for Inactive)
                            x       y       z     vdW  Elec       q    Type
                         _______ _______ _______ _____ _____    ______ ____

>  <TORSDO>
F 0

$$$$
=
 OpenBabel11122414033D

 28 32  0  0  1  0  0  0  0  0999 V2000
  160.9770  207.9330  155.0630 C   0  0  0  0  0  0  0  0  0  0  0  0
  157.1580  210.7040  155.7470 O   0  0  0  0  0  0  0  0  0  0  0  0
  163.0440  211.0820  150.7480 C   0  0  0  0  0  1  0  0  0  0  0  0
  161.8320  209.5170  157.2100 C   0  0  0  0  0  3  0  0  0  0  0  0
  160.4790  211.2770  150.6020 C   0  0  1  0  0  3  0  0  0  0  0  0
  160.6400  207.0450  153.9180 C   0  0  0  0  0  2  0  0  0  0  0  0
  159.1370  211.9300  156.5540 O   0  0  0  0  0  0  0  0  0  0  0  0
  158.2540  211.6590  155.3710 S   0  0  0  0  0  0  0  0  0  0  0  0
  157.1010  213.1220  153.3570 C   0  0  1  0  0  3  0  0  0  0  0  0
  159.1520  211.0450  153.9960 C   0  0  0  0  0  0  0  0  0  0  0  0
  162.9670  206.7650  151.0180 O   0  0  0  0  0  1  0  0  0  0  0  0
  160.5290  210.0190  152.5890 N   0  0  0  0  0  0  0  0  0  0  0  0
  158.1990  212.7550  152.4600 N   0  0  0  0  0  2  0  0  0  0  0  0
  157.5590  213.2130  154.8160 C   0  0  0  0  0  2  0  0  0  0  0  0
  161.7270  206.8250  151.6560 C   0  0  2  0  0  3  0  0  0  0  0  0
  160.7910  209.3350  155.0130 C   0  0  0  0  0  0  0  0  0  0  0  0
  161.7240  210.3370  150.5970 C   0  0  2  0  0  3  0  0  0  0  0  0
  156.5160  214.4480  152.9230 C   0  0  0  0  0  1  0  0  0  0  0  0
  160.9770  208.0790  151.2190 C   0  0  0  0  0  2  0  0  0  0  0  0
  161.2380  210.1080  156.0940 C   0  0  0  0  0  3  0  0  0  0  0  0
  161.5700  207.3470  156.1890 C   0  0  0  0  0  3  0  0  0  0  0  0
  161.9920  208.1330  157.2610 C   0  0  0  0  0  3  0  0  0  0  0  0
  161.9260  206.7470  153.1620 C   0  0  0  0  0  2  0  0  0  0  0  0
  159.9190  210.9930  151.9350 C   0  0  0  0  0  0  0  0  0  0  0  0
  161.5550  209.3720  151.7930 C   0  0  2  0  0  3  0  0  0  0  0  0
  159.0290  211.6310  152.7560 C   0  0  0  0  0  0  0  0  0  0  0  0
  160.8300  212.6270  150.5000 O   0  0  0  0  0  1  0  0  0  0  0  0
  160.1230  210.0350  153.8850 C   0  0  0  0  0  0  0  0  0  0  0  0
  1 21  1  0  0  0  0
  4 22  1  0  0  0  0
  5 27  1  1  0  0  0
  5 24  1  0  0  0  0
  6  1  1  0  0  0  0
  8  2  2  0  0  0  0
  8  7  2  0  0  0  0
  9 18  1  6  0  0  0
  9 14  1  0  0  0  0
 10  8  1  0  0  0  0
 12 28  1  0  0  0  0
 13 26  1  0  0  0  0
 13  9  1  0  0  0  0
 14  8  1  0  0  0  0
 15 11  1  6  0  0  0
 15 23  1  0  0  0  0
 16  1  2  0  0  0  0
 16 20  1  0  0  0  0
 17  5  1  0  0  0  0
 17  3  1  1  0  0  0
 17 25  1  0  0  0  0
 19 15  1  0  0  0  0
 20  4  2  0  0  0  0
 21 22  2  0  0  0  0
 23  6  1  0  0  0  0
 24 12  1  0  0  0  0
 24 26  2  0  0  0  0
 25 19  1  6  0  0  0
 25 12  1  0  0  0  0
 26 10  1  0  0  0  0
 28 10  2  0  0  0  0
 28 16  1  0  0  0  0
M  END
>  <MODEL>
6

>  <REMARK>
 VINA RESULT:      -2.4      2.197      5.347
  Name = 
  0 active torsions:
  status: ('A' for Active; 'I' for Inactive)
                            x       y       z     vdW  Elec       q    Type
                         _______ _______ _______ _____ _____    ______ ____

>  <TORSDO>
F 0

$$$$
=
 OpenBabel11122414033D

 28 32  0  0  1  0  0  0  0  0999 V2000
  161.6290  204.4130  146.0800 C   0  0  0  0  0  0  0  0  0  0  0  0
  163.2920  207.3390  149.4570 O   0  0  0  0  0  0  0  0  0  0  0  0
  158.3760  201.3750  149.6870 C   0  0  0  0  0  1  0  0  0  0  0  0
  159.9550  206.6350  145.7470 C   0  0  0  0  0  3  0  0  0  0  0  0
  160.4270  202.1350  151.0510 C   0  0  1  0  0  3  0  0  0  0  0  0
  162.4450  203.1730  146.1730 C   0  0  0  0  0  2  0  0  0  0  0  0
  160.9310  207.9150  149.0520 O   0  0  0  0  0  0  0  0  0  0  0  0
  161.8710  207.0680  149.8600 S   0  0  0  0  0  0  0  0  0  0  0  0
  162.1320  206.3110  152.4830 C   0  0  1  0  0  3  0  0  0  0  0  0
  161.5130  205.3570  149.7200 C   0  0  0  0  0  0  0  0  0  0  0  0
  160.7770  199.8480  146.4270 O   0  0  0  0  0  1  0  0  0  0  0  0
  160.9800  203.2980  149.0820 N   0  0  0  0  0  0  0  0  0  0  0  0
  161.4510  205.0490  152.1880 N   0  0  0  0  0  2  0  0  0  0  0  0
  161.6330  207.4530  151.5920 C   0  0  0  0  0  2  0  0  0  0  0  0
  161.7540  200.8070  146.6950 C   0  0  2  0  0  3  0  0  0  0  0  0
  161.0250  205.0070  147.2140 C   0  0  0  0  0  0  0  0  0  0  0  0
  159.8950  201.3520  149.8090 C   0  0  2  0  0  3  0  0  0  0  0  0
  161.9200  206.6720  153.9380 C   0  0  0  0  0  1  0  0  0  0  0  0
  161.7200  201.1860  148.1730 C   0  0  0  0  0  2  0  0  0  0  0  0
  160.1810  206.1100  147.0200 C   0  0  0  0  0  3  0  0  0  0  0  0
  161.4000  204.9480  144.8060 C   0  0  0  0  0  3  0  0  0  0  0  0
  160.5710  206.0570  144.6380 C   0  0  0  0  0  3  0  0  0  0  0  0
  161.5630  202.0000  145.7720 C   0  0  0  0  0  2  0  0  0  0  0  0
  160.9910  203.3330  150.4040 C   0  0  0  0  0  0  0  0  0  0  0  0
  160.5070  202.0300  148.5620 C   0  0  2  0  0  3  0  0  0  0  0  0
  161.3540  204.5780  150.8430 C   0  0  0  0  0  0  0  0  0  0  0  0
  159.4030  202.4950  151.9330 O   0  0  0  0  0  1  0  0  0  0  0  0
  161.2540  204.5410  148.6070 C   0  0  0  0  0  0  0  0  0  0  0  0
  1  6  1  0  0  0  0
  1 16  1  0  0  0  0
  2  8  2  0  0  0  0
  4 20  1  0  0  0  0
  5 27  1  1  0  0  0
  7  8  2  0  0  0  0
  8 14  1  0  0  0  0
  9 18  1  1  0  0  0
 10  8  1  0  0  0  0
 10 26  1  0  0  0  0
 12 24  1  0  0  0  0
 13  9  1  0  0  0  0
 14  9  1  0  0  0  0
 15 11  1  1  0  0  0
 15 19  1  0  0  0  0
 16 28  1  0  0  0  0
 17  3  1  6  0  0  0
 17  5  1  0  0  0  0
 20 16  2  0  0  0  0
 21  1  2  0  0  0  0
 22 21  1  0  0  0  0
 22  4  2  0  0  0  0
 23  6  1  0  0  0  0
 23 15  1  0  0  0  0
 24 26  2  0  0  0  0
 24  5  1  0  0  0  0
 25 19  1  1  0  0  0
 25 12  1  0  0  0  0
 25 17  1  0  0  0  0
 26 13  1  0  0  0  0
 28 12  1  0  0  0  0
 28 10  2  0  0  0  0
M  END
>  <MODEL>
7

>  <REMARK>
 VINA RESULT:      -1.9      6.757     10.560
  Name = 
  0 active torsions:
  status: ('A' for Active; 'I' for Inactive)
                            x       y       z     vdW  Elec       q    Type
                         _______ _______ _______ _____ _____    ______ ____

>  <TORSDO>
F 0

$$$$
=
 OpenBabel11122414033D

 28 32  0  0  1  0  0  0  0  0999 V2000
  160.3300  212.2310  151.3640 C   0  0  0  0  0  0  0  0  0  0  0  0
  160.8370  211.1590  155.9820 O   0  0  0  0  0  0  0  0  0  0  0  0
  160.0940  206.7670  149.6610 C   0  0  0  0  0  1  0  0  0  0  0  0
  157.6990  212.5180  152.2810 C   0  0  0  0  0  3  0  0  0  0  0  0
  161.6490  206.8020  151.7160 C   0  0  1  0  0  3  0  0  0  0  0  0
  161.6830  212.0960  150.7600 C   0  0  0  0  0  2  0  0  0  0  0  0
  158.5160  210.6420  155.3350 O   0  0  0  0  0  0  0  0  0  0  0  0
  159.9120  210.1020  155.4490 S   0  0  0  0  0  0  0  0  0  0  0  0
  161.0980  207.7840  156.3120 C   0  0  1  0  0  3  0  0  0  0  0  0
  160.5120  209.4800  153.9230 C   0  0  0  0  0  0  0  0  0  0  0  0
  162.1690  210.0190  147.7020 O   0  0  0  0  0  1  0  0  0  0  0  0
  161.0490  209.0750  151.8070 N   0  0  0  0  0  0  0  0  0  0  0  0
  161.1600  207.3000  154.9320 N   0  0  0  0  0  2  0  0  0  0  0  0
  159.8850  208.6900  156.5480 C   0  0  0  0  0  2  0  0  0  0  0  0
  162.5060  210.5550  148.9450 C   0  0  2  0  0  3  0  0  0  0  0  0
  159.7620  211.2240  152.1800 C   0  0  0  0  0  0  0  0  0  0  0  0
  161.3700  207.3310  150.2740 C   0  0  2  0  0  3  0  0  0  0  0  0
  161.0460  206.6060  157.2610 C   0  0  0  0  0  1  0  0  0  0  0  0
  162.5930  209.4420  149.9850 C   0  0  0  0  0  2  0  0  0  0  0  0
  158.4390  211.3840  152.6160 C   0  0  0  0  0  3  0  0  0  0  0  0
  159.5800  213.3690  151.0350 C   0  0  0  0  0  3  0  0  0  0  0  0
  158.2720  213.5150  151.4940 C   0  0  0  0  0  3  0  0  0  0  0  0
  161.5100  211.6400  149.3190 C   0  0  0  0  0  2  0  0  0  0  0  0
  161.3240  207.9950  152.5180 C   0  0  0  0  0  0  0  0  0  0  0  0
  161.2350  208.8670  150.3840 C   0  0  2  0  0  3  0  0  0  0  0  0
  161.0440  208.2130  153.8400 C   0  0  0  0  0  0  0  0  0  0  0  0
  160.8120  205.7380  152.0650 O   0  0  0  0  0  1  0  0  0  0  0  0
  160.5000  210.0120  152.6230 C   0  0  0  0  0  0  0  0  0  0  0  0
  1 16  1  0  0  0  0
  4 20  1  0  0  0  0
  5 27  1  1  0  0  0
  5 24  1  0  0  0  0
  6  1  1  0  0  0  0
  7  8  2  0  0  0  0
  8  2  2  0  0  0  0
  8 14  1  0  0  0  0
  9 14  1  0  0  0  0
  9 18  1  1  0  0  0
 10  8  1  0  0  0  0
 12 24  1  0  0  0  0
 12 28  1  0  0  0  0
 13  9  1  0  0  0  0
 15 11  1  6  0  0  0
 15 23  1  0  0  0  0
 15 19  1  0  0  0  0
 16 20  2  0  0  0  0
 16 28  1  0  0  0  0
 17  3  1  1  0  0  0
 17 25  1  0  0  0  0
 17  5  1  0  0  0  0
 21  1  2  0  0  0  0
 21 22  1  0  0  0  0
 22  4  2  0  0  0  0
 23  6  1  0  0  0  0
 24 26  2  0  0  0  0
 25 19  1  1  0  0  0
 25 12  1  0  0  0  0
 26 10  1  0  0  0  0
 26 13  1  0  0  0  0
 28 10  2  0  0  0  0
M  END
>  <MODEL>
8

>  <REMARK>
 VINA RESULT:      -1.7      2.679      6.771
  Name = 
  0 active torsions:
  status: ('A' for Active; 'I' for Inactive)
                            x       y       z     vdW  Elec       q    Type
                         _______ _______ _______ _____ _____    ______ ____

>  <TORSDO>
F 0

$$$$
