=
 OpenBabel11122413013D

 32 37  0  0  1  0  0  0  0  0999 V2000
  160.6410  212.4300  148.0120 C   0  0  1  0  0  3  0  0  0  0  0  0
  156.6550  213.2940  148.9880 C   0  0  0  0  0  2  0  0  0  0  0  0
  157.0760  213.4040  150.4450 C   0  0  0  0  0  2  0  0  0  0  0  0
  161.4160  211.0560  149.9740 C   0  0  0  0  0  0  0  0  0  0  0  0
  161.6320  210.8610  151.4540 C   0  0  2  0  0  3  0  0  0  0  0  0
  162.4450  213.3890  146.4220 C   0  0  2  0  0  3  0  0  0  0  0  0
  159.9550  214.0060  146.3380 C   0  0  0  0  0  2  0  0  0  0  0  0
  160.1930  210.8240  153.3480 C   0  0  1  0  0  3  0  0  0  0  0  0
  157.9020  213.0260  148.1660 C   0  0  0  0  0  2  0  0  0  0  0  0
  160.1410  213.8030  147.7740 N   0  0  1  0  0  0  0  0  0  0  0  0
  158.9170  214.0610  148.4440 N   0  0  2  0  0  0  0  0  0  0  0  0
  159.9890  213.0060  150.4360 C   0  0  0  0  0  0  0  0  0  0  0  0
  160.8670  209.4770  153.1650 C   0  0  0  0  0  2  0  0  0  0  0  0
  161.3090  214.0530  145.6200 C   0  0  2  0  0  3  0  0  0  0  0  0
  161.4900  209.4620  151.8400 N   0  0  0  0  0  2  0  0  0  0  0  0
  158.0040  214.4530  150.6210 O   0  0  0  0  0  0  0  0  0  0  0  0
  159.1880  214.1700  149.8910 C   0  0  2  0  0  3  0  0  0  0  0  0
  159.9610  212.7330  151.7420 C   0  0  0  0  0  3  0  0  0  0  0  0
  161.9640  212.1900  147.2500 C   0  0  0  0  0  2  0  0  0  0  0  0
  161.9690  210.1210  149.1030 O   0  0  0  0  0  1  0  0  0  0  0  0
  160.6160  211.4340  154.6700 C   0  0  0  0  0  1  0  0  0  0  0  0
  160.7630  212.1430  149.5010 C   0  0  0  0  0  0  0  0  0  0  0  0
  160.6910  211.6200  152.2550 N   0  0  0  0  0  0  0  0  0  0  0  0
  160.8320  214.4530  143.2140 C   0  0  0  0  0  2  0  0  0  0  0  0
  161.1850  213.4060  144.2510 C   0  0  1  0  0  3  0  0  0  0  0  0
  162.2580  213.9620  143.3360 C   0  0  1  0  0  3  0  0  0  0  0  0
  162.5450  212.9530  142.2420 C   0  0  0  0  0  2  0  0  0  0  0  0
  162.7090  213.6540  140.9390 C   0  0  0  0  0  0  0  0  0  0  0  0
  163.8220  214.4530  140.7160 O   0  0  0  0  0  1  0  0  0  0  0  0
  161.8230  213.5470  140.0510 O   0  0  0  0  0  0  0  0  0  0  0  0
  163.8440  213.7450  148.3260 O   0  0  0  0  0  1  0  0  0  0  0  0
  163.1380  214.4030  147.3200 C   0  0  0  0  0  2  0  0  0  0  0  0
  1 19  1  6  0  0  0
  1 22  1  0  0  0  0
  2  3  1  0  0  0  0
  3 16  1  0  0  0  0
  5  4  1  6  0  0  0
  5 15  1  0  0  0  0
  5 23  1  0  0  0  0
  6 19  1  0  0  0  0
  6 32  1  1  0  0  0
  8 21  1  1  0  0  0
  9  2  1  0  0  0  0
 10  7  1  6  0  0  0
 10  1  1  0  0  0  0
 10 11  1  0  0  0  0
 11  9  1  1  0  0  0
 11 17  1  0  0  0  0
 12 18  2  0  0  0  0
 13  8  1  0  0  0  0
 14  7  1  1  0  0  0
 14  6  1  0  0  0  0
 15 13  1  0  0  0  0
 17 12  1  1  0  0  0
 17 16  1  0  0  0  0
 18 23  1  0  0  0  0
 20  4  1  0  0  0  0
 22  4  2  0  0  0  0
 22 12  1  0  0  0  0
 23  8  1  0  0  0  0
 24 26  1  0  0  0  0
 25 24  1  6  0  0  0
 25 14  1  0  0  0  0
 26 27  1  6  0  0  0
 26 25  1  0  0  0  0
 28 27  1  0  0  0  0
 29 28  1  0  0  0  0
 30 28  2  0  0  0  0
 32 31  1  0  0  0  0
M  END
>  <MODEL>
1

>  <REMARK>
 VINA RESULT:      -3.5      0.000      0.000
  Name = 
  4 active torsions:
  status: ('A' for Active; 'I' for Inactive)
    1  A    between atoms: C_7  and  C_19
    2  A    between atoms: C_10  and  C_17
    3  A    between atoms: C_20  and  C_29
    4  A    between atoms: C_29  and  C_30
                            x       y       z     vdW  Elec       q    Type
                         _______ _______ _______ _____ _____    ______ ____

>  <TORSDO>
F 4

$$$$
=
 OpenBabel11122413013D

 32 37  0  0  1  0  0  0  0  0999 V2000
  160.1410  213.5370  148.5210 C   0  0  1  0  0  3  0  0  0  0  0  0
  156.5670  214.4500  146.5260 C   0  0  0  0  0  2  0  0  0  0  0  0
  157.1000  213.7060  145.3110 C   0  0  0  0  0  2  0  0  0  0  0  0
  161.8610  213.6830  146.6890 C   0  0  0  0  0  0  0  0  0  0  0  0
  162.3970  213.2800  145.3370 C   0  0  2  0  0  3  0  0  0  0  0  0
  160.8250  212.3720  150.7290 C   0  0  2  0  0  3  0  0  0  0  0  0
  158.4320  213.0930  150.1460 C   0  0  0  0  0  2  0  0  0  0  0  0
  161.5600  213.4200  143.1150 C   0  0  1  0  0  3  0  0  0  0  0  0
  157.5960  214.3220  147.6340 C   0  0  0  0  0  2  0  0  0  0  0  0
  158.9400  212.7260  148.8240 N   0  0  1  0  0  0  0  0  0  0  0  0
  157.9090  212.8990  147.8650 N   0  0  2  0  0  0  0  0  0  0  0  0
  159.7040  212.6300  146.1510 C   0  0  0  0  0  0  0  0  0  0  0  0
  162.8170  214.2550  143.2630 C   0  0  0  0  0  2  0  0  0  0  0  0
  159.3950  212.6240  151.2430 C   0  0  2  0  0  3  0  0  0  0  0  0
  163.1110  214.3770  144.6930 N   0  0  0  0  0  2  0  0  0  0  0  0
  157.3170  212.3440  145.6130 O   0  0  0  0  0  0  0  0  0  0  0  0
  158.3190  212.2310  146.6130 C   0  0  2  0  0  3  0  0  0  0  0  0
  160.0520  212.4630  144.8730 C   0  0  0  0  0  3  0  0  0  0  0  0
  161.2270  213.3310  149.6010 C   0  0  0  0  0  2  0  0  0  0  0  0
  162.6780  214.4520  147.5140 O   0  0  0  0  0  1  0  0  0  0  0  0
  161.7980  212.3070  142.1130 C   0  0  0  0  0  1  0  0  0  0  0  0
  160.6510  213.2530  147.1160 C   0  0  0  0  0  0  0  0  0  0  0  0
  161.3470  212.8660  144.4280 N   0  0  0  0  0  0  0  0  0  0  0  0
  158.1360  214.4510  152.3630 C   0  0  0  0  0  2  0  0  0  0  0  0
  159.4140  213.6370  152.3750 C   0  0  1  0  0  3  0  0  0  0  0  0
  158.2990  213.3170  153.3510 C   0  0  1  0  0  3  0  0  0  0  0  0
  158.6610  213.8770  154.7130 C   0  0  0  0  0  2  0  0  0  0  0  0
  157.7010  213.3780  155.7350 C   0  0  0  0  0  0  0  0  0  0  0  0
  157.2510  212.0650  155.6820 O   0  0  0  0  0  0  0  0  0  0  0  0
  157.2740  214.1540  156.6290 O   0  0  0  0  0  1  0  0  0  0  0  0
  161.9690  210.8500  149.2850 O   0  0  0  0  0  1  0  0  0  0  0  0
  160.9920  210.9290  150.2770 C   0  0  0  0  0  2  0  0  0  0  0  0
  1 10  1  0  0  0  0
  1 19  1  1  0  0  0
  2  9  1  0  0  0  0
  3 16  1  0  0  0  0
  3  2  1  0  0  0  0
  4 22  2  0  0  0  0
  4 20  1  0  0  0  0
  5 15  1  6  0  0  0
  5  4  1  0  0  0  0
  6 32  1  6  0  0  0
  6 14  1  0  0  0  0
  8 21  1  6  0  0  0
  8 13  1  0  0  0  0
  8 23  1  0  0  0  0
 10  7  1  1  0  0  0
 11  9  1  6  0  0  0
 11 10  1  0  0  0  0
 12 17  1  0  0  0  0
 12 22  1  0  0  0  0
 13 15  1  0  0  0  0
 14  7  1  6  0  0  0
 14 25  1  0  0  0  0
 17 16  1  6  0  0  0
 17 11  1  0  0  0  0
 18 12  2  0  0  0  0
 19  6  1  0  0  0  0
 22  1  1  0  0  0  0
 23 18  1  0  0  0  0
 23  5  1  0  0  0  0
 24 26  1  0  0  0  0
 25 24  1  6  0  0  0
 25 26  1  0  0  0  0
 26 27  1  1  0  0  0
 27 28  1  0  0  0  0
 28 30  1  0  0  0  0
 29 28  2  0  0  0  0
 31 32  1  0  0  0  0
M  END
>  <MODEL>
2

>  <REMARK>
 VINA RESULT:      -2.6      2.759      8.232
  Name = 
  4 active torsions:
  status: ('A' for Active; 'I' for Inactive)
    1  A    between atoms: C_7  and  C_19
    2  A    between atoms: C_10  and  C_17
    3  A    between atoms: C_20  and  C_29
    4  A    between atoms: C_29  and  C_30
                            x       y       z     vdW  Elec       q    Type
                         _______ _______ _______ _____ _____    ______ ____

>  <TORSDO>
F 4

$$$$
=
 OpenBabel11122413013D

 32 37  0  0  1  0  0  0  0  0999 V2000
  159.3910  210.5470  153.6750 C   0  0  1  0  0  3  0  0  0  0  0  0
  157.7190  212.9540  150.6750 C   0  0  0  0  0  2  0  0  0  0  0  0
  157.2350  213.9030  151.7600 C   0  0  0  0  0  2  0  0  0  0  0  0
  157.7250  210.7480  155.5520 C   0  0  0  0  0  0  0  0  0  0  0  0
  156.9160  211.5700  156.5240 C   0  0  2  0  0  3  0  0  0  0  0  0
  161.7240  209.5710  154.2310 C   0  0  2  0  0  3  0  0  0  0  0  0
  161.0950  210.6510  151.9890 C   0  0  0  0  0  2  0  0  0  0  0  0
  155.2610  213.2630  156.2860 C   0  0  1  0  0  3  0  0  0  0  0  0
  158.5110  211.8480  151.3480 C   0  0  0  0  0  2  0  0  0  0  0  0
  160.2880  211.4450  152.9140 N   0  0  1  0  0  0  0  0  0  0  0  0
  159.5780  212.4330  152.1830 N   0  0  2  0  0  0  0  0  0  0  0  0
  158.2630  212.7820  154.2770 C   0  0  0  0  0  0  0  0  0  0  0  0
  154.6790  212.0430  156.9740 C   0  0  0  0  0  2  0  0  0  0  0  0
  162.1090  209.7950  152.7560 C   0  0  2  0  0  3  0  0  0  0  0  0
  155.6340  210.9420  156.8230 N   0  0  0  0  0  2  0  0  0  0  0  0
  158.3260  214.4530  152.4670 O   0  0  0  0  0  0  0  0  0  0  0  0
  159.0310  213.4180  153.1370 C   0  0  2  0  0  3  0  0  0  0  0  0
  157.3770  213.5040  154.9650 C   0  0  0  0  0  3  0  0  0  0  0  0
  160.2070  209.4780  154.4390 C   0  0  0  0  0  2  0  0  0  0  0  0
  157.7440  209.3660  155.7200 O   0  0  0  0  0  1  0  0  0  0  0  0
  155.2120  214.4530  157.2250 C   0  0  0  0  0  1  0  0  0  0  0  0
  158.4670  211.3400  154.5870 C   0  0  0  0  0  0  0  0  0  0  0  0
  156.6300  212.8990  156.0200 N   0  0  0  0  0  0  0  0  0  0  0  0
  161.0850  207.5770  152.2990 C   0  0  0  0  0  2  0  0  0  0  0  0
  162.2910  208.4610  152.0520 C   0  0  1  0  0  3  0  0  0  0  0  0
  161.2260  208.3110  150.9840 C   0  0  1  0  0  3  0  0  0  0  0  0
  161.7280  207.3550  149.9190 C   0  0  0  0  0  2  0  0  0  0  0  0
  161.8350  208.0630  148.6140 C   0  0  0  0  0  0  0  0  0  0  0  0
  161.9560  209.4460  148.5830 O   0  0  0  0  0  1  0  0  0  0  0  0
  161.7850  207.4110  147.5390 O   0  0  0  0  0  0  0  0  0  0  0  0
  161.6520  210.6820  156.3450 O   0  0  0  0  0  1  0  0  0  0  0  0
  162.3090  210.6610  155.1150 C   0  0  0  0  0  2  0  0  0  0  0  0
  1 19  1  1  0  0  0
  1 22  1  0  0  0  0
  2  9  1  0  0  0  0
  2  3  1  0  0  0  0
  3 16  1  0  0  0  0
  4 20  1  0  0  0  0
  5  4  1  6  0  0  0
  5 15  1  0  0  0  0
  6 19  1  0  0  0  0
  6 32  1  1  0  0  0
  8 13  1  0  0  0  0
  8 21  1  1  0  0  0
 10  7  1  6  0  0  0
 10  1  1  0  0  0  0
 11  9  1  1  0  0  0
 11 10  1  0  0  0  0
 11 17  1  0  0  0  0
 12 22  1  0  0  0  0
 12 18  2  0  0  0  0
 14  7  1  6  0  0  0
 14  6  1  0  0  0  0
 15 13  1  0  0  0  0
 17 16  1  6  0  0  0
 17 12  1  0  0  0  0
 18 23  1  0  0  0  0
 22  4  2  0  0  0  0
 23  8  1  0  0  0  0
 23  5  1  0  0  0  0
 25 24  1  1  0  0  0
 25 14  1  0  0  0  0
 26 27  1  6  0  0  0
 26 25  1  0  0  0  0
 26 24  1  0  0  0  0
 28 27  1  0  0  0  0
 29 28  1  0  0  0  0
 30 28  2  0  0  0  0
 32 31  1  0  0  0  0
M  END
>  <MODEL>
3

>  <REMARK>
 VINA RESULT:      -2.2      5.006      7.200
  Name = 
  4 active torsions:
  status: ('A' for Active; 'I' for Inactive)
    1  A    between atoms: C_7  and  C_19
    2  A    between atoms: C_10  and  C_17
    3  A    between atoms: C_20  and  C_29
    4  A    between atoms: C_29  and  C_30
                            x       y       z     vdW  Elec       q    Type
                         _______ _______ _______ _____ _____    ______ ____

>  <TORSDO>
F 4

$$$$
=
 OpenBabel11122413013D

 32 37  0  0  1  0  0  0  0  0999 V2000
  160.6430  205.4530  150.6470 C   0  0  1  0  0  3  0  0  0  0  0  0
  159.3830  201.4630  150.3550 C   0  0  0  0  0  2  0  0  0  0  0  0
  160.2320  201.3280  149.1000 C   0  0  0  0  0  2  0  0  0  0  0  0
  160.7760  206.1790  148.2410 C   0  0  0  0  0  0  0  0  0  0  0  0
  161.2920  206.0150  146.8330 C   0  0  2  0  0  3  0  0  0  0  0  0
  161.7960  206.9430  152.4230 C   0  0  2  0  0  3  0  0  0  0  0  0
  160.8140  204.6180  152.8900 C   0  0  0  0  0  2  0  0  0  0  0  0
  161.1390  204.2900  145.2020 C   0  0  1  0  0  3  0  0  0  0  0  0
  159.5920  202.8630  150.9040 C   0  0  0  0  0  2  0  0  0  0  0  0
  161.2910  204.4460  151.5180 N   0  0  1  0  0  0  0  0  0  0  0  0
  161.0320  203.1160  151.0980 N   0  0  2  0  0  0  0  0  0  0  0  0
  161.5810  203.9230  148.8010 C   0  0  0  0  0  0  0  0  0  0  0  0
  160.4560  205.5510  144.7080 C   0  0  0  0  0  2  0  0  0  0  0  0
  161.3540  205.9220  153.4890 C   0  0  2  0  0  3  0  0  0  0  0  0
  160.3150  206.4630  145.8460 N   0  0  0  0  0  2  0  0  0  0  0  0
  161.5980  201.5320  149.3950 O   0  0  0  0  0  0  0  0  0  0  0  0
  161.7920  202.8600  149.8580 C   0  0  2  0  0  3  0  0  0  0  0  0
  161.8380  203.6470  147.5210 C   0  0  0  0  0  3  0  0  0  0  0  0
  160.9370  206.8840  151.1540 C   0  0  0  0  0  2  0  0  0  0  0  0
  160.0810  207.3450  148.5510 O   0  0  0  0  0  1  0  0  0  0  0  0
  162.3100  203.9530  144.2990 C   0  0  0  0  0  1  0  0  0  0  0  0
  161.0400  205.2540  149.1920 C   0  0  0  0  0  0  0  0  0  0  0  0
  161.6120  204.6370  146.5180 N   0  0  0  0  0  0  0  0  0  0  0  0
  160.8220  206.5740  155.8280 C   0  0  0  0  0  2  0  0  0  0  0  0
  160.3070  206.5370  154.4030 C   0  0  1  0  0  3  0  0  0  0  0  0
  160.8480  207.8290  154.9840 C   0  0  1  0  0  3  0  0  0  0  0  0
  159.6830  208.7220  155.3650 C   0  0  0  0  0  2  0  0  0  0  0  0
  160.0240  210.1440  155.0850 C   0  0  0  0  0  0  0  0  0  0  0  0
  161.3230  210.4910  154.7390 O   0  0  0  0  0  0  0  0  0  0  0  0
  159.1430  211.0350  155.1920 O   0  0  0  0  0  1  0  0  0  0  0  0
  163.4590  206.9640  150.7070 O   0  0  0  0  0  1  0  0  0  0  0  0
  163.2640  206.7580  152.0730 C   0  0  0  0  0  2  0  0  0  0  0  0
  1 19  1  1  0  0  0
  1 10  1  0  0  0  0
  2  9  1  0  0  0  0
  3 16  1  0  0  0  0
  3  2  1  0  0  0  0
  4 20  1  0  0  0  0
  4 22  2  0  0  0  0
  5 15  1  6  0  0  0
  5  4  1  0  0  0  0
  6 32  1  6  0  0  0
  6 14  1  0  0  0  0
  8 21  1  6  0  0  0
  8 23  1  0  0  0  0
 10  7  1  1  0  0  0
 11  9  1  6  0  0  0
 11 10  1  0  0  0  0
 12 22  1  0  0  0  0
 13  8  1  0  0  0  0
 13 15  1  0  0  0  0
 14  7  1  6  0  0  0
 14 25  1  0  0  0  0
 16 17  1  0  0  0  0
 17 12  1  6  0  0  0
 17 11  1  0  0  0  0
 18 12  2  0  0  0  0
 19  6  1  0  0  0  0
 22  1  1  0  0  0  0
 23  5  1  0  0  0  0
 23 18  1  0  0  0  0
 25 26  1  0  0  0  0
 25 24  1  1  0  0  0
 26 27  1  1  0  0  0
 26 24  1  0  0  0  0
 28 30  1  0  0  0  0
 28 27  1  0  0  0  0
 29 28  2  0  0  0  0
 31 32  1  0  0  0  0
M  END
>  <MODEL>
4

>  <REMARK>
 VINA RESULT:      -1.8      7.002     10.874
  Name = 
  4 active torsions:
  status: ('A' for Active; 'I' for Inactive)
    1  A    between atoms: C_7  and  C_19
    2  A    between atoms: C_10  and  C_17
    3  A    between atoms: C_20  and  C_29
    4  A    between atoms: C_29  and  C_30
                            x       y       z     vdW  Elec       q    Type
                         _______ _______ _______ _____ _____    ______ ____

>  <TORSDO>
F 4

$$$$
=
 OpenBabel11122413013D

 32 37  0  0  1  0  0  0  0  0999 V2000
  160.7520  213.5270  146.4380 C   0  0  1  0  0  3  0  0  0  0  0  0
  157.2960  214.4530  144.2500 C   0  0  0  0  0  2  0  0  0  0  0  0
  157.8990  213.7210  143.0620 C   0  0  0  0  0  2  0  0  0  0  0  0
  162.5740  213.6910  144.7080 C   0  0  0  0  0  0  0  0  0  0  0  0
  163.1860  213.3000  143.3860 C   0  0  2  0  0  3  0  0  0  0  0  0
  161.3120  212.3440  148.6710 C   0  0  2  0  0  3  0  0  0  0  0  0
  158.9550  213.0670  147.9590 C   0  0  0  0  0  2  0  0  0  0  0  0
  162.4770  213.4580  141.1210 C   0  0  1  0  0  3  0  0  0  0  0  0
  158.2610  214.3170  145.4140 C   0  0  0  0  0  2  0  0  0  0  0  0
  159.5380  212.7120  146.6660 N   0  0  1  0  0  0  0  0  0  0  0  0
  158.5630  212.8920  145.6500 N   0  0  2  0  0  0  0  0  0  0  0  0
  160.4530  212.6400  144.0390 C   0  0  0  0  0  0  0  0  0  0  0  0
  163.7230  214.2930  141.3470 C   0  0  0  0  0  2  0  0  0  0  0  0
  159.8540  212.5900  149.1050 C   0  0  2  0  0  3  0  0  0  0  0  0
  163.9340  214.4030  142.7920 N   0  0  0  0  0  2  0  0  0  0  0  0
  158.1000  212.3560  143.3640 O   0  0  0  0  0  0  0  0  0  0  0  0
  159.0440  212.2360  144.4180 C   0  0  2  0  0  3  0  0  0  0  0  0
  160.8730  212.4850  142.7820 C   0  0  0  0  0  3  0  0  0  0  0  0
  161.7760  213.3130  147.5770 C   0  0  0  0  0  2  0  0  0  0  0  0
  163.3410  214.4530  145.5850 O   0  0  0  0  0  1  0  0  0  0  0  0
  162.7730  212.3550  140.1240 C   0  0  0  0  0  1  0  0  0  0  0  0
  161.3420  213.2560  145.0620 C   0  0  0  0  0  0  0  0  0  0  0  0
  162.1900  212.8920  142.4140 N   0  0  0  0  0  0  0  0  0  0  0  0
  158.4140  214.1790  150.3620 C   0  0  0  0  0  2  0  0  0  0  0  0
  159.8070  213.5930  150.2450 C   0  0  1  0  0  3  0  0  0  0  0  0
  158.8580  213.0910  151.3150 C   0  0  1  0  0  3  0  0  0  0  0  0
  159.2450  213.7060  152.6450 C   0  0  0  0  0  2  0  0  0  0  0  0
  158.2980  213.2580  153.7030 C   0  0  0  0  0  0  0  0  0  0  0  0
  157.6090  214.1960  154.4600 O   0  0  0  0  0  1  0  0  0  0  0  0
  158.1460  212.0310  153.9330 O   0  0  0  0  0  0  0  0  0  0  0  0
  162.2870  210.2140  149.1430 O   0  0  0  0  0  1  0  0  0  0  0  0
  161.5060  210.9050  148.2170 C   0  0  0  0  0  2  0  0  0  0  0  0
  1 10  1  0  0  0  0
  1 19  1  1  0  0  0
  2  9  1  0  0  0  0
  3 16  1  0  0  0  0
  3  2  1  0  0  0  0
  4 22  2  0  0  0  0
  4 20  1  0  0  0  0
  5 15  1  6  0  0  0
  5  4  1  0  0  0  0
  6 32  1  6  0  0  0
  6 14  1  0  0  0  0
  8 21  1  6  0  0  0
  8 13  1  0  0  0  0
  8 23  1  0  0  0  0
 10  7  1  1  0  0  0
 11  9  1  6  0  0  0
 11 10  1  0  0  0  0
 12 17  1  0  0  0  0
 12 22  1  0  0  0  0
 13 15  1  0  0  0  0
 14  7  1  6  0  0  0
 14 25  1  0  0  0  0
 17 16  1  6  0  0  0
 17 11  1  0  0  0  0
 18 12  2  0  0  0  0
 19  6  1  0  0  0  0
 22  1  1  0  0  0  0
 23 18  1  0  0  0  0
 23  5  1  0  0  0  0
 24 26  1  0  0  0  0
 25 24  1  6  0  0  0
 25 26  1  0  0  0  0
 26 27  1  1  0  0  0
 27 28  1  0  0  0  0
 28 30  2  0  0  0  0
 28 29  1  0  0  0  0
 32 31  1  0  0  0  0
M  END
>  <MODEL>
5

>  <REMARK>
 VINA RESULT:      -1.6      2.735      8.319
  Name = 
  4 active torsions:
  status: ('A' for Active; 'I' for Inactive)
    1  A    between atoms: C_7  and  C_19
    2  A    between atoms: C_10  and  C_17
    3  A    between atoms: C_20  and  C_29
    4  A    between atoms: C_29  and  C_30
                            x       y       z     vdW  Elec       q    Type
                         _______ _______ _______ _____ _____    ______ ____

>  <TORSDO>
F 4

$$$$
=
 OpenBabel11122413013D

 32 37  0  0  1  0  0  0  0  0999 V2000
  161.0860  207.7870  149.9750 C   0  0  1  0  0  3  0  0  0  0  0  0
  160.2930  207.8440  154.0920 C   0  0  0  0  0  2  0  0  0  0  0  0
  160.9730  206.4890  154.2020 C   0  0  0  0  0  2  0  0  0  0  0  0
  160.8020  205.3580  149.3800 C   0  0  0  0  0  0  0  0  0  0  0  0
  161.1380  203.8990  149.5650 C   0  0  2  0  0  3  0  0  0  0  0  0
  162.2800  209.3180  148.2610 C   0  0  2  0  0  3  0  0  0  0  0  0
  161.6610  210.0170  150.6520 C   0  0  0  0  0  2  0  0  0  0  0  0
  160.9750  202.3800  151.3890 C   0  0  1  0  0  3  0  0  0  0  0  0
  160.4020  208.2990  152.6480 C   0  0  0  0  0  2  0  0  0  0  0  0
  161.9640  208.5990  150.8480 N   0  0  1  0  0  0  0  0  0  0  0  0
  161.8140  208.2760  152.2210 N   0  0  2  0  0  0  0  0  0  0  0  0
  161.9430  205.8920  151.4920 C   0  0  0  0  0  0  0  0  0  0  0  0
  160.0830  201.9360  150.2460 C   0  0  0  0  0  2  0  0  0  0  0  0
  162.1140  210.4770  149.2610 C   0  0  2  0  0  3  0  0  0  0  0  0
  159.9880  203.0430  149.2910 N   0  0  0  0  0  2  0  0  0  0  0  0
  162.3310  206.5780  153.8270 O   0  0  0  0  0  0  0  0  0  0  0  0
  162.4240  206.9530  152.4600 C   0  0  2  0  0  3  0  0  0  0  0  0
  162.0560  204.6010  151.8110 C   0  0  0  0  0  3  0  0  0  0  0  0
  161.2700  208.1870  148.4920 C   0  0  0  0  0  2  0  0  0  0  0  0
  160.0180  205.7150  148.2850 O   0  0  0  0  0  1  0  0  0  0  0  0
  162.0440  201.3360  151.6420 C   0  0  0  0  0  1  0  0  0  0  0  0
  161.3030  206.3010  150.2110 C   0  0  0  0  0  0  0  0  0  0  0  0
  161.5770  203.6000  150.9140 N   0  0  0  0  0  0  0  0  0  0  0  0
  161.6180  212.9030  149.0430 C   0  0  0  0  0  2  0  0  0  0  0  0
  161.1350  211.5040  148.7180 C   0  0  1  0  0  3  0  0  0  0  0  0
  161.8220  212.3370  147.6550 C   0  0  1  0  0  3  0  0  0  0  0  0
  160.7740  212.9020  146.7170 C   0  0  0  0  0  2  0  0  0  0  0  0
  161.4130  213.3280  145.4420 C   0  0  0  0  0  0  0  0  0  0  0  0
  160.6260  213.6740  144.3520 O   0  0  0  0  0  0  0  0  0  0  0  0
  162.6670  213.3440  145.3420 O   0  0  0  0  0  1  0  0  0  0  0  0
  163.6740  207.3770  148.2440 O   0  0  0  0  0  1  0  0  0  0  0  0
  163.6990  208.7700  148.2960 C   0  0  0  0  0  2  0  0  0  0  0  0
  1 19  1  6  0  0  0
  1 22  1  0  0  0  0
  1 10  1  0  0  0  0
  2  3  1  0  0  0  0
  4  5  1  0  0  0  0
  4 22  2  0  0  0  0
  5 15  1  1  0  0  0
  5 23  1  0  0  0  0
  6 32  1  1  0  0  0
  6 19  1  0  0  0  0
  6 14  1  0  0  0  0
  8 21  1  6  0  0  0
  9  2  1  0  0  0  0
 10  7  1  1  0  0  0
 10 11  1  0  0  0  0
 11 17  1  0  0  0  0
 11  9  1  6  0  0  0
 12 18  2  0  0  0  0
 13  8  1  0  0  0  0
 14  7  1  1  0  0  0
 15 13  1  0  0  0  0
 16  3  1  0  0  0  0
 17 12  1  6  0  0  0
 17 16  1  0  0  0  0
 20  4  1  0  0  0  0
 22 12  1  0  0  0  0
 23  8  1  0  0  0  0
 23 18  1  0  0  0  0
 25 24  1  1  0  0  0
 25 14  1  0  0  0  0
 26 27  1  6  0  0  0
 26 25  1  0  0  0  0
 26 24  1  0  0  0  0
 28 27  1  0  0  0  0
 29 28  2  0  0  0  0
 30 28  1  0  0  0  0
 31 32  1  0  0  0  0
M  END
>  <MODEL>
6

>  <REMARK>
 VINA RESULT:      -0.7      4.299      6.788
  Name = 
  4 active torsions:
  status: ('A' for Active; 'I' for Inactive)
    1  A    between atoms: C_7  and  C_19
    2  A    between atoms: C_10  and  C_17
    3  A    between atoms: C_20  and  C_29
    4  A    between atoms: C_29  and  C_30
                            x       y       z     vdW  Elec       q    Type
                         _______ _______ _______ _____ _____    ______ ____

>  <TORSDO>
F 4

$$$$
=
 OpenBabel11122413013D

 32 37  0  0  1  0  0  0  0  0999 V2000
  160.9340  211.9030  148.8660 C   0  0  1  0  0  3  0  0  0  0  0  0
  157.6500  213.0320  151.2180 C   0  0  0  0  0  2  0  0  0  0  0  0
  158.3040  212.3300  152.3980 C   0  0  0  0  0  2  0  0  0  0  0  0
  161.5100  209.6220  149.7610 C   0  0  0  0  0  0  0  0  0  0  0  0
  161.8770  208.6960  150.8940 C   0  0  2  0  0  3  0  0  0  0  0  0
  162.6840  213.0920  147.3740 C   0  0  2  0  0  3  0  0  0  0  0  0
  160.5510  214.1970  148.2770 C   0  0  0  0  0  2  0  0  0  0  0  0
  160.8150  208.0630  152.9270 C   0  0  1  0  0  3  0  0  0  0  0  0
  158.5980  212.9300  150.0370 C   0  0  0  0  0  2  0  0  0  0  0  0
  160.8790  213.2910  149.3770 N   0  0  1  0  0  0  0  0  0  0  0  0
  159.9250  213.4530  150.4150 N   0  0  2  0  0  0  0  0  0  0  0  0
  160.8880  211.3630  151.3830 C   0  0  0  0  0  0  0  0  0  0  0  0
  160.9750  206.8620  152.0140 C   0  0  0  0  0  2  0  0  0  0  0  0
  161.7180  214.2880  147.2870 C   0  0  2  0  0  3  0  0  0  0  0  0
  161.3460  207.3530  150.6850 N   0  0  0  0  0  2  0  0  0  0  0  0
  159.5380  212.9340  152.7190 O   0  0  0  0  0  0  0  0  0  0  0  0
  160.4370  212.7880  151.6290 C   0  0  2  0  0  3  0  0  0  0  0  0
  160.9740  210.5080  152.4040 C   0  0  0  0  0  3  0  0  0  0  0  0
  161.9720  211.7800  147.7270 C   0  0  0  0  0  2  0  0  0  0  0  0
  161.5860  209.1280  148.4610 O   0  0  0  0  0  1  0  0  0  0  0  0
  161.6120  207.8500  154.1990 C   0  0  0  0  0  1  0  0  0  0  0  0
  161.1840  210.9140  149.9950 C   0  0  0  0  0  0  0  0  0  0  0  0
  161.3700  209.1570  152.1720 N   0  0  0  0  0  0  0  0  0  0  0  0
  161.9000  213.4670  144.9480 C   0  0  0  0  0  2  0  0  0  0  0  0
  161.1800  214.4270  145.8730 C   0  0  1  0  0  3  0  0  0  0  0  0
  160.5170  213.1280  145.4600 C   0  0  1  0  0  3  0  0  0  0  0  0
  159.4910  213.4190  144.3830 C   0  0  0  0  0  2  0  0  0  0  0  0
  158.1320  213.4890  144.9860 C   0  0  0  0  0  0  0  0  0  0  0  0
  157.2150  214.4250  144.5250 O   0  0  0  0  0  0  0  0  0  0  0  0
  157.8240  212.7220  145.9350 O   0  0  0  0  0  1  0  0  0  0  0  0
  164.7360  212.3350  148.3360 O   0  0  0  0  0  1  0  0  0  0  0  0
  163.8000  213.3680  148.3700 C   0  0  0  0  0  2  0  0  0  0  0  0
  1 19  1  6  0  0  0
  1 10  1  0  0  0  0
  1 22  1  0  0  0  0
  2  3  1  0  0  0  0
  3 16  1  0  0  0  0
  4 22  2  0  0  0  0
  5  4  1  6  0  0  0
  5 23  1  0  0  0  0
  6 19  1  0  0  0  0
  6 32  1  1  0  0  0
  8 21  1  1  0  0  0
  9  2  1  0  0  0  0
 10  7  1  6  0  0  0
 10 11  1  0  0  0  0
 11  9  1  6  0  0  0
 11 17  1  0  0  0  0
 12 18  2  0  0  0  0
 13  8  1  0  0  0  0
 14  6  1  0  0  0  0
 14  7  1  1  0  0  0
 15  5  1  0  0  0  0
 15 13  1  0  0  0  0
 17 12  1  6  0  0  0
 17 16  1  0  0  0  0
 20  4  1  0  0  0  0
 22 12  1  0  0  0  0
 23 18  1  0  0  0  0
 23  8  1  0  0  0  0
 24 26  1  0  0  0  0
 25 24  1  6  0  0  0
 25 14  1  0  0  0  0
 26 27  1  6  0  0  0
 26 25  1  0  0  0  0
 27 28  1  0  0  0  0
 28 30  1  0  0  0  0
 29 28  2  0  0  0  0
 31 32  1  0  0  0  0
M  END
>  <MODEL>
7

>  <REMARK>
 VINA RESULT:      -0.7      2.457      3.052
  Name = 
  4 active torsions:
  status: ('A' for Active; 'I' for Inactive)
    1  A    between atoms: C_7  and  C_19
    2  A    between atoms: C_10  and  C_17
    3  A    between atoms: C_20  and  C_29
    4  A    between atoms: C_29  and  C_30
                            x       y       z     vdW  Elec       q    Type
                         _______ _______ _______ _____ _____    ______ ____

>  <TORSDO>
F 4

$$$$
