=
 OpenBabel11122413273D

 31 35  0  0  1  0  0  0  0  0999 V2000
  161.3930  203.6580  145.8120 C   0  0  0  0  0  0  0  0  0  0  0  0
  160.5690  205.7080  148.9140 C   0  0  2  0  0  3  0  0  0  0  0  0
  160.8750  204.7950  150.0870 C   0  0  0  0  0  0  0  0  0  0  0  0
  161.0150  202.5700  151.0610 C   0  0  0  0  0  0  0  0  0  0  0  0
  161.2280  205.2770  147.6200 C   0  0  0  0  0  0  0  0  0  0  0  0
  162.4340  204.3920  145.2420 C   0  0  0  0  0  3  0  0  0  0  0  0
  160.8040  203.4000  149.9560 C   0  0  0  0  0  3  0  0  0  0  0  0
  162.3240  207.5680  149.0190 C   0  0  2  0  0  3  0  0  0  0  0  0
  160.9680  202.5150  145.2230 F   0  0  0  0  0  0  0  0  0  0  0  0
  161.1870  206.8340  151.5230 C   0  0  0  0  0  2  0  0  0  0  0  0
  160.9590  201.1920  150.9140 O   0  0  0  0  0  1  0  0  0  0  0  0
  162.6780  207.3710  147.5500 C   0  0  0  0  0  2  0  0  0  0  0  0
  160.8540  207.1870  149.2590 C   0  0  2  0  0  3  0  0  0  0  0  0
  160.7910  204.1020  146.9900 C   0  0  0  0  0  3  0  0  0  0  0  0
  161.2810  203.1290  152.3130 C   0  0  0  0  0  3  0  0  0  0  0  0
  162.2760  206.0230  147.0310 C   0  0  0  0  0  0  0  0  0  0  0  0
  162.8650  205.5770  145.8440 C   0  0  0  0  0  3  0  0  0  0  0  0
  160.3990  207.5090  150.5630 O   0  0  0  0  0  0  0  0  0  0  0  0
  161.1020  205.3480  151.3610 C   0  0  0  0  0  0  0  0  0  0  0  0
  161.3260  204.5170  152.4630 C   0  0  0  0  0  3  0  0  0  0  0  0
  161.2360  209.8320  147.6660 O   0  0  0  0  0  0  0  0  0  0  0  0
  161.9620  210.0470  148.6740 C   0  0  0  0  0  0  0  0  0  0  0  0
  162.5470  208.9580  149.3910 N   0  0  0  0  0  2  0  0  0  0  0  0
  161.1200  213.7170  147.6500 N   0  0  0  0  0  0  0  0  0  0  0  0
  160.9370  212.1640  149.5330 C   0  0  0  0  0  2  0  0  0  0  0  0
  164.2050  212.1870  148.0540 O   0  0  0  0  0  0  0  0  0  0  0  0
  160.4120  214.2680  146.6370 O   0  0  0  0  0  1  0  0  0  0  0  0
  160.2310  212.7680  148.3180 C   0  0  0  0  0  2  0  0  0  0  0  0
  162.9860  212.2230  148.0880 C   0  0  0  0  0  0  0  0  0  0  0  0
  162.2320  211.4460  149.1320 C   0  0  2  0  0  3  0  0  0  0  0  0
  162.2230  212.9780  147.0380 C   0  0  0  0  0  2  0  0  0  0  0  0
  1 14  1  0  0  0  0
  2  5  1  6  0  0  0
  2 13  1  0  0  0  0
  2  3  1  0  0  0  0
  3 19  1  0  0  0  0
  4 15  2  0  0  0  0
  6  1  2  0  0  0  0
  6 17  1  0  0  0  0
  7  3  2  0  0  0  0
  7  4  1  0  0  0  0
  8 13  1  0  0  0  0
  8 23  1  6  0  0  0
  9  1  1  0  0  0  0
 11  4  1  0  0  0  0
 12  8  1  0  0  0  0
 13 18  1  1  0  0  0
 14  5  2  0  0  0  0
 15 20  1  0  0  0  0
 16 12  1  0  0  0  0
 16  5  1  0  0  0  0
 17 16  2  0  0  0  0
 18 10  1  0  0  0  0
 19 10  1  0  0  0  0
 19 20  2  0  0  0  0
 21 22  2  0  0  0  0
 22 23  1  0  0  0  0
 24 28  1  0  0  0  0
 26 29  2  0  0  0  0
 27 24  1  0  0  0  0
 28 25  1  0  0  0  0
 29 30  1  0  0  0  0
 30 22  1  6  0  0  0
 30 25  1  0  0  0  0
 31 24  1  0  0  0  0
 31 29  1  0  0  0  0
M  END
>  <MODEL>
1

>  <REMARK>
 VINA RESULT:      -8.5      0.000      0.000
  Name = 
  2 active torsions:
  status: ('A' for Active; 'I' for Inactive)
    1  A    between atoms: C_5  and  C_30
    2  A    between atoms: C_10  and  N_16
                            x       y       z     vdW  Elec       q    Type
                         _______ _______ _______ _____ _____    ______ ____

>  <TORSDO>
F 2

$$$$
=
 OpenBabel11122413273D

 31 35  0  0  1  0  0  0  0  0999 V2000
  161.2960  203.8100  145.6070 C   0  0  0  0  0  0  0  0  0  0  0  0
  160.5430  205.5580  148.9050 C   0  0  2  0  0  3  0  0  0  0  0  0
  160.8450  204.5290  149.9790 C   0  0  0  0  0  0  0  0  0  0  0  0
  160.9550  202.2180  150.7280 C   0  0  0  0  0  0  0  0  0  0  0  0
  161.1800  205.2460  147.5660 C   0  0  0  0  0  0  0  0  0  0  0  0
  162.3440  204.5780  145.0980 C   0  0  0  0  0  3  0  0  0  0  0  0
  160.7470  203.1560  149.7120 C   0  0  0  0  0  3  0  0  0  0  0  0
  162.3330  207.3690  149.1690 C   0  0  2  0  0  3  0  0  0  0  0  0
  160.8440  202.7380  144.9140 F   0  0  0  0  0  0  0  0  0  0  0  0
  161.2100  206.4120  151.6040 C   0  0  0  0  0  2  0  0  0  0  0  0
  160.8710  200.8620  150.4470 O   0  0  0  0  0  1  0  0  0  0  0  0
  162.6680  207.3110  147.6840 C   0  0  0  0  0  2  0  0  0  0  0  0
  160.8590  206.9920  149.3890 C   0  0  2  0  0  3  0  0  0  0  0  0
  160.7150  204.1460  146.8300 C   0  0  0  0  0  3  0  0  0  0  0  0
  161.2450  202.6470  152.0250 C   0  0  0  0  0  3  0  0  0  0  0  0
  162.2350  206.0280  147.0410 C   0  0  0  0  0  0  0  0  0  0  0  0
  162.8030  205.6900  145.8080 C   0  0  0  0  0  3  0  0  0  0  0  0
  160.4240  207.1910  150.7250 O   0  0  0  0  0  0  0  0  0  0  0  0
  161.0960  204.9510  151.2980 C   0  0  0  0  0  0  0  0  0  0  0  0
  161.3170  204.0120  152.3100 C   0  0  0  0  0  3  0  0  0  0  0  0
  161.3670  209.7800  147.9910 O   0  0  0  0  0  0  0  0  0  0  0  0
  162.0620  209.8790  149.0390 C   0  0  0  0  0  0  0  0  0  0  0  0
  162.5850  208.7110  149.6730 N   0  0  0  0  0  2  0  0  0  0  0  0
  160.2720  213.2770  149.7310 N   0  0  0  0  0  0  0  0  0  0  0  0
  161.4970  211.4910  150.8710 C   0  0  0  0  0  2  0  0  0  0  0  0
  163.1320  212.6210  147.8850 O   0  0  0  0  0  0  0  0  0  0  0  0
  159.0240  213.7440  149.4930 O   0  0  0  0  0  1  0  0  0  0  0  0
  160.1200  212.0370  150.4890 C   0  0  0  0  0  2  0  0  0  0  0  0
  162.1990  212.3130  148.6070 C   0  0  0  0  0  0  0  0  0  0  0  0
  162.3580  211.2220  149.6300 C   0  0  2  0  0  3  0  0  0  0  0  0
  160.8580  212.9640  148.4280 C   0  0  0  0  0  2  0  0  0  0  0  0
  1 14  1  0  0  0  0
  2  5  1  6  0  0  0
  2 13  1  0  0  0  0
  2  3  1  0  0  0  0
  3 19  1  0  0  0  0
  4 15  2  0  0  0  0
  6  1  2  0  0  0  0
  6 17  1  0  0  0  0
  7  3  2  0  0  0  0
  7  4  1  0  0  0  0
  8 13  1  0  0  0  0
  8 23  1  6  0  0  0
  9  1  1  0  0  0  0
 11  4  1  0  0  0  0
 12  8  1  0  0  0  0
 13 18  1  1  0  0  0
 14  5  2  0  0  0  0
 15 20  1  0  0  0  0
 16  5  1  0  0  0  0
 16 12  1  0  0  0  0
 17 16  2  0  0  0  0
 18 10  1  0  0  0  0
 19 10  1  0  0  0  0
 19 20  2  0  0  0  0
 21 22  2  0  0  0  0
 22 23  1  0  0  0  0
 24 28  1  0  0  0  0
 26 29  2  0  0  0  0
 27 24  1  0  0  0  0
 28 25  1  0  0  0  0
 29 30  1  0  0  0  0
 30 22  1  6  0  0  0
 30 25  1  0  0  0  0
 31 29  1  0  0  0  0
 31 24  1  0  0  0  0
M  END
>  <MODEL>
2

>  <REMARK>
 VINA RESULT:      -8.2      0.915      1.025
  Name = 
  2 active torsions:
  status: ('A' for Active; 'I' for Inactive)
    1  A    between atoms: C_5  and  C_30
    2  A    between atoms: C_10  and  N_16
                            x       y       z     vdW  Elec       q    Type
                         _______ _______ _______ _____ _____    ______ ____

>  <TORSDO>
F 2

$$$$
=
 OpenBabel11122413273D

 31 35  0  0  1  0  0  0  0  0999 V2000
  161.2480  206.4160  146.6660 C   0  0  0  0  0  0  0  0  0  0  0  0
  160.3770  205.1330  150.1440 C   0  0  2  0  0  3  0  0  0  0  0  0
  160.7690  203.6670  150.1370 C   0  0  0  0  0  0  0  0  0  0  0  0
  161.0730  201.5600  148.9600 C   0  0  0  0  0  0  0  0  0  0  0  0
  161.0290  205.9420  149.0410 C   0  0  0  0  0  0  0  0  0  0  0  0
  162.2260  207.3730  146.9410 C   0  0  0  0  0  3  0  0  0  0  0  0
  160.7820  202.9270  148.9450 C   0  0  0  0  0  3  0  0  0  0  0  0
  162.0150  206.2720  151.7480 C   0  0  2  0  0  3  0  0  0  0  0  0
  160.8800  206.1720  145.3860 F   0  0  0  0  0  0  0  0  0  0  0  0
  160.9900  203.7700  152.6390 C   0  0  0  0  0  2  0  0  0  0  0  0
  161.0980  200.8430  147.7720 O   0  0  0  0  0  1  0  0  0  0  0  0
  162.3440  207.3430  150.7150 C   0  0  0  0  0  2  0  0  0  0  0  0
  160.5780  205.7660  151.5400 C   0  0  2  0  0  3  0  0  0  0  0  0
  160.6500  205.7100  147.7110 C   0  0  0  0  0  3  0  0  0  0  0  0
  161.3360  200.9150  150.1710 C   0  0  0  0  0  3  0  0  0  0  0  0
  162.0130  206.9210  149.3160 C   0  0  0  0  0  0  0  0  0  0  0  0
  162.5980  207.6320  148.2620 C   0  0  0  0  0  3  0  0  0  0  0  0
  160.1370  204.8940  152.5690 O   0  0  0  0  0  0  0  0  0  0  0  0
  160.9940  202.9990  151.3550 C   0  0  0  0  0  0  0  0  0  0  0  0
  161.2980  201.6340  151.3680 C   0  0  0  0  0  3  0  0  0  0  0  0
  160.6240  208.5520  152.7490 O   0  0  0  0  0  0  0  0  0  0  0  0
  161.4240  207.9670  153.5280 C   0  0  0  0  0  0  0  0  0  0  0  0
  162.1600  206.8250  153.0860 N   0  0  0  0  0  2  0  0  0  0  0  0
  159.5700  210.1200  156.2040 N   0  0  0  0  0  0  0  0  0  0  0  0
  160.5580  207.9040  155.8780 C   0  0  0  0  0  2  0  0  0  0  0  0
  162.7060  210.5650  154.7940 O   0  0  0  0  0  0  0  0  0  0  0  0
  158.3880  210.7790  156.2210 O   0  0  0  0  0  1  0  0  0  0  0  0
  159.2750  208.7360  155.8350 C   0  0  0  0  0  2  0  0  0  0  0  0
  161.6570  209.9680  154.9680 C   0  0  0  0  0  0  0  0  0  0  0  0
  161.6230  208.4650  154.9260 C   0  0  2  0  0  3  0  0  0  0  0  0
  160.3750  210.7280  155.1450 C   0  0  0  0  0  2  0  0  0  0  0  0
  1  6  2  0  0  0  0
  1 14  1  0  0  0  0
  2  5  1  6  0  0  0
  2 13  1  0  0  0  0
  3  2  1  0  0  0  0
  3 19  1  0  0  0  0
  4 15  2  0  0  0  0
  5 16  1  0  0  0  0
  6 17  1  0  0  0  0
  7  4  1  0  0  0  0
  7  3  2  0  0  0  0
  8 23  1  1  0  0  0
  9  1  1  0  0  0  0
 11  4  1  0  0  0  0
 12  8  1  0  0  0  0
 13  8  1  0  0  0  0
 13 18  1  1  0  0  0
 14  5  2  0  0  0  0
 15 20  1  0  0  0  0
 16 12  1  0  0  0  0
 17 16  2  0  0  0  0
 18 10  1  0  0  0  0
 19 20  2  0  0  0  0
 19 10  1  0  0  0  0
 21 22  2  0  0  0  0
 23 22  1  0  0  0  0
 24 27  1  0  0  0  0
 26 29  2  0  0  0  0
 28 25  1  0  0  0  0
 28 24  1  0  0  0  0
 29 31  1  0  0  0  0
 30 22  1  6  0  0  0
 30 29  1  0  0  0  0
 30 25  1  0  0  0  0
 31 24  1  0  0  0  0
M  END
>  <MODEL>
3

>  <REMARK>
 VINA RESULT:      -8.0      3.739      4.993
  Name = 
  2 active torsions:
  status: ('A' for Active; 'I' for Inactive)
    1  A    between atoms: C_5  and  C_30
    2  A    between atoms: C_10  and  N_16
                            x       y       z     vdW  Elec       q    Type
                         _______ _______ _______ _____ _____    ______ ____

>  <TORSDO>
F 2

$$$$
=
 OpenBabel11122413273D

 31 35  0  0  1  0  0  0  0  0999 V2000
  160.6260  207.6350  156.3440 C   0  0  0  0  0  0  0  0  0  0  0  0
  161.9040  208.5490  152.8750 C   0  0  2  0  0  3  0  0  0  0  0  0
  161.4840  207.3980  151.9810 C   0  0  0  0  0  0  0  0  0  0  0  0
  160.9900  205.0390  151.6530 C   0  0  0  0  0  0  0  0  0  0  0  0
  161.1350  208.6190  154.1790 C   0  0  0  0  0  0  0  0  0  0  0  0
  159.7110  208.6570  156.6000 C   0  0  0  0  0  3  0  0  0  0  0  0
  161.3050  206.1070  152.4990 C   0  0  0  0  0  3  0  0  0  0  0  0
  160.5070  210.5540  152.1140 C   0  0  2  0  0  3  0  0  0  0  0  0
  160.8230  206.6570  157.2610 F   0  0  0  0  0  0  0  0  0  0  0  0
  161.5850  208.9620  150.0140 C   0  0  0  0  0  2  0  0  0  0  0  0
  160.8000  203.7700  152.1810 O   0  0  0  0  0  1  0  0  0  0  0  0
  160.0720  210.8460  153.5450 C   0  0  0  0  0  2  0  0  0  0  0  0
  161.8950  209.8930  152.1120 C   0  0  2  0  0  3  0  0  0  0  0  0
  161.3370  207.6200  155.1440 C   0  0  0  0  0  3  0  0  0  0  0  0
  160.8700  205.2490  150.2780 C   0  0  0  0  0  3  0  0  0  0  0  0
  160.2140  209.6590  154.4480 C   0  0  0  0  0  0  0  0  0  0  0  0
  159.5150  209.6710  155.6600 C   0  0  0  0  0  3  0  0  0  0  0  0
  162.4450  209.7500  150.8120 O   0  0  0  0  0  0  0  0  0  0  0  0
  161.4020  207.5910  150.5890 C   0  0  0  0  0  0  0  0  0  0  0  0
  161.0740  206.5250  149.7450 C   0  0  0  0  0  3  0  0  0  0  0  0
  158.2630  212.2350  151.5900 O   0  0  0  0  0  0  0  0  0  0  0  0
  159.3820  212.5960  151.1360 C   0  0  0  0  0  0  0  0  0  0  0  0
  160.5440  211.7950  151.3540 N   0  0  0  0  0  2  0  0  0  0  0  0
  158.4600  214.0220  147.6220 N   0  0  0  0  0  0  0  0  0  0  0  0
  158.1350  214.4530  150.0090 C   0  0  0  0  0  2  0  0  0  0  0  0
  161.5550  213.7760  149.1650 O   0  0  0  0  0  0  0  0  0  0  0  0
  157.8520  213.5020  146.5300 O   0  0  0  0  0  1  0  0  0  0  0  0
  157.5520  213.8130  148.7480 C   0  0  0  0  0  2  0  0  0  0  0  0
  160.3420  213.6610  149.1170 C   0  0  0  0  0  0  0  0  0  0  0  0
  159.5100  213.8660  150.3530 C   0  0  2  0  0  3  0  0  0  0  0  0
  159.6720  213.2350  147.8430 C   0  0  0  0  0  2  0  0  0  0  0  0
  1  6  1  0  0  0  0
  1  9  1  0  0  0  0
  2  3  1  6  0  0  0
  2  5  1  0  0  0  0
  3  7  1  0  0  0  0
  4 11  1  0  0  0  0
  4  7  2  0  0  0  0
  5 16  2  0  0  0  0
  5 14  1  0  0  0  0
  8 23  1  6  0  0  0
  8 12  1  0  0  0  0
 10 19  1  0  0  0  0
 10 18  1  0  0  0  0
 12 16  1  0  0  0  0
 13 18  1  6  0  0  0
 13  8  1  0  0  0  0
 13  2  1  0  0  0  0
 14  1  2  0  0  0  0
 15  4  1  0  0  0  0
 16 17  1  0  0  0  0
 17  6  2  0  0  0  0
 19  3  2  0  0  0  0
 20 15  2  0  0  0  0
 20 19  1  0  0  0  0
 22 23  1  0  0  0  0
 22 21  2  0  0  0  0
 24 31  1  0  0  0  0
 24 28  1  0  0  0  0
 25 30  1  0  0  0  0
 27 24  1  0  0  0  0
 28 25  1  0  0  0  0
 29 26  2  0  0  0  0
 29 30  1  0  0  0  0
 30 22  1  6  0  0  0
 31 29  1  0  0  0  0
M  END
>  <MODEL>
4

>  <REMARK>
 VINA RESULT:      -8.0      3.825      6.007
  Name = 
  2 active torsions:
  status: ('A' for Active; 'I' for Inactive)
    1  A    between atoms: C_5  and  C_30
    2  A    between atoms: C_10  and  N_16
                            x       y       z     vdW  Elec       q    Type
                         _______ _______ _______ _____ _____    ______ ____

>  <TORSDO>
F 2

$$$$
=
 OpenBabel11122413273D

 31 35  0  0  1  0  0  0  0  0999 V2000
  161.2780  204.3480  145.4300 C   0  0  0  0  0  0  0  0  0  0  0  0
  160.5200  205.2740  149.0450 C   0  0  2  0  0  3  0  0  0  0  0  0
  160.8770  204.0420  149.8550 C   0  0  0  0  0  0  0  0  0  0  0  0
  161.0840  201.6270  150.0600 C   0  0  0  0  0  0  0  0  0  0  0  0
  161.1440  205.2980  147.6640 C   0  0  0  0  0  0  0  0  0  0  0  0
  162.2880  205.2520  145.0990 C   0  0  0  0  0  3  0  0  0  0  0  0
  160.8240  202.7610  149.2850 C   0  0  0  0  0  3  0  0  0  0  0  0
  162.2480  207.0470  149.6970 C   0  0  2  0  0  3  0  0  0  0  0  0
  160.8520  203.4430  144.5160 F   0  0  0  0  0  0  0  0  0  0  0  0
  161.2030  205.5210  151.8610 C   0  0  0  0  0  2  0  0  0  0  0  0
  161.0440  200.3670  149.4790 O   0  0  0  0  0  1  0  0  0  0  0  0
  162.5590  207.3390  148.2340 C   0  0  0  0  0  2  0  0  0  0  0  0
  160.7920  206.5720  149.8390 C   0  0  2  0  0  3  0  0  0  0  0  0
  160.7060  204.3750  146.7030 C   0  0  0  0  0  3  0  0  0  0  0  0
  161.3800  201.7620  151.4180 C   0  0  0  0  0  3  0  0  0  0  0  0
  162.1610  206.2190  147.3200 C   0  0  0  0  0  0  0  0  0  0  0  0
  162.7190  206.1910  146.0380 C   0  0  0  0  0  3  0  0  0  0  0  0
  160.3740  206.4470  151.1880 O   0  0  0  0  0  0  0  0  0  0  0  0
  161.1360  204.1640  151.2330 C   0  0  0  0  0  0  0  0  0  0  0  0
  161.4080  203.0300  152.0040 C   0  0  0  0  0  3  0  0  0  0  0  0
  161.4780  209.6840  148.9300 O   0  0  0  0  0  0  0  0  0  0  0  0
  162.0410  209.5420  150.0500 C   0  0  0  0  0  0  0  0  0  0  0  0
  162.4600  208.2490  150.4890 N   0  0  0  0  0  2  0  0  0  0  0  0
  160.6830  211.1110  153.3550 N   0  0  0  0  0  0  0  0  0  0  0  0
  162.7510  210.2960  152.3300 C   0  0  0  0  0  2  0  0  0  0  0  0
  160.8940  212.4850  150.1790 O   0  0  0  0  0  0  0  0  0  0  0  0
  159.7040  210.7660  154.2230 O   0  0  0  0  0  1  0  0  0  0  0  0
  161.5660  209.9520  153.2340 C   0  0  0  0  0  2  0  0  0  0  0  0
  161.0710  211.6080  151.0080 C   0  0  0  0  0  0  0  0  0  0  0  0
  162.2860  210.7260  150.9330 C   0  0  2  0  0  3  0  0  0  0  0  0
  160.0370  211.3480  152.0650 C   0  0  0  0  0  2  0  0  0  0  0  0
  1 14  1  0  0  0  0
  2  5  1  6  0  0  0
  2 13  1  0  0  0  0
  2  3  1  0  0  0  0
  3 19  1  0  0  0  0
  4 15  2  0  0  0  0
  6  1  2  0  0  0  0
  6 17  1  0  0  0  0
  7  3  2  0  0  0  0
  7  4  1  0  0  0  0
  8 13  1  0  0  0  0
  8 23  1  1  0  0  0
  9  1  1  0  0  0  0
 11  4  1  0  0  0  0
 12  8  1  0  0  0  0
 13 18  1  1  0  0  0
 14  5  2  0  0  0  0
 15 20  1  0  0  0  0
 16  5  1  0  0  0  0
 16 12  1  0  0  0  0
 17 16  2  0  0  0  0
 18 10  1  0  0  0  0
 19 10  1  0  0  0  0
 19 20  2  0  0  0  0
 21 22  2  0  0  0  0
 22 23  1  0  0  0  0
 24 27  1  0  0  0  0
 25 28  1  0  0  0  0
 26 29  2  0  0  0  0
 28 24  1  0  0  0  0
 29 31  1  0  0  0  0
 30 22  1  6  0  0  0
 30 29  1  0  0  0  0
 30 25  1  0  0  0  0
 31 24  1  0  0  0  0
M  END
>  <MODEL>
5

>  <REMARK>
 VINA RESULT:      -7.8      2.097      2.841
  Name = 
  2 active torsions:
  status: ('A' for Active; 'I' for Inactive)
    1  A    between atoms: C_5  and  C_30
    2  A    between atoms: C_10  and  N_16
                            x       y       z     vdW  Elec       q    Type
                         _______ _______ _______ _____ _____    ______ ____

>  <TORSDO>
F 2

$$$$
=
 OpenBabel11122413273D

 31 35  0  0  1  0  0  0  0  0999 V2000
  161.1660  201.8890  150.4600 C   0  0  0  0  0  0  0  0  0  0  0  0
  162.1840  205.1670  148.8090 C   0  0  2  0  0  3  0  0  0  0  0  0
  161.5060  205.1550  147.4520 C   0  0  0  0  0  0  0  0  0  0  0  0
  160.6400  203.9490  145.5250 C   0  0  0  0  0  0  0  0  0  0  0  0
  161.5780  204.1930  149.8000 C   0  0  0  0  0  0  0  0  0  0  0  0
  160.4430  202.3300  151.5700 C   0  0  0  0  0  3  0  0  0  0  0  0
  161.1960  203.9480  146.8080 C   0  0  0  0  0  3  0  0  0  0  0  0
  161.0210  207.0180  150.1400 C   0  0  2  0  0  3  0  0  0  0  0  0
  161.3160  200.5620  150.2330 F   0  0  0  0  0  0  0  0  0  0  0  0
  161.6220  207.6660  147.4330 C   0  0  0  0  0  2  0  0  0  0  0  0
  160.3230  202.7480  144.9060 O   0  0  0  0  0  1  0  0  0  0  0  0
  160.7910  206.0810  151.3190 C   0  0  0  0  0  2  0  0  0  0  0  0
  162.2900  206.6000  149.3780 C   0  0  2  0  0  3  0  0  0  0  0  0
  161.7340  202.8160  149.5850 C   0  0  0  0  0  3  0  0  0  0  0  0
  160.4040  205.1580  144.8670 C   0  0  0  0  0  3  0  0  0  0  0  0
  160.8540  204.6350  150.9320 C   0  0  0  0  0  0  0  0  0  0  0  0
  160.2980  203.6980  151.8100 C   0  0  0  0  0  3  0  0  0  0  0  0
  162.6690  207.5260  148.3720 O   0  0  0  0  0  0  0  0  0  0  0  0
  161.3030  206.3660  146.7630 C   0  0  0  0  0  0  0  0  0  0  0  0
  160.7340  206.3670  145.4860 C   0  0  0  0  0  3  0  0  0  0  0  0
  160.4700  207.8900  152.7990 O   0  0  0  0  0  0  0  0  0  0  0  0
  160.8740  208.7530  151.9730 C   0  0  0  0  0  0  0  0  0  0  0  0
  161.1580  208.3850  150.6230 N   0  0  0  0  0  2  0  0  0  0  0  0
  160.7800  210.9290  155.2120 N   0  0  0  0  0  0  0  0  0  0  0  0
  162.2460  210.3390  153.3430 C   0  0  0  0  0  2  0  0  0  0  0  0
  158.9340  211.2290  152.2930 O   0  0  0  0  0  0  0  0  0  0  0  0
  160.5370  210.6590  156.5150 O   0  0  0  0  0  1  0  0  0  0  0  0
  161.8550  210.0330  154.7900 C   0  0  0  0  0  2  0  0  0  0  0  0
  159.7920  210.7290  153.0000 C   0  0  0  0  0  0  0  0  0  0  0  0
  161.0530  210.1790  152.3920 C   0  0  2  0  0  3  0  0  0  0  0  0
  159.5640  210.5840  154.4770 C   0  0  0  0  0  2  0  0  0  0  0  0
  1  6  1  0  0  0  0
  2  3  1  6  0  0  0
  2 13  1  0  0  0  0
  2  5  1  0  0  0  0
  4  7  2  0  0  0  0
  5 16  2  0  0  0  0
  6 17  2  0  0  0  0
  7  3  1  0  0  0  0
  8 23  1  1  0  0  0
  8 12  1  0  0  0  0
  9  1  1  0  0  0  0
 10 18  1  0  0  0  0
 11  4  1  0  0  0  0
 13 18  1  6  0  0  0
 13  8  1  0  0  0  0
 14  5  1  0  0  0  0
 14  1  2  0  0  0  0
 15 20  2  0  0  0  0
 15  4  1  0  0  0  0
 16 12  1  0  0  0  0
 16 17  1  0  0  0  0
 19 10  1  0  0  0  0
 19  3  2  0  0  0  0
 20 19  1  0  0  0  0
 22 21  2  0  0  0  0
 23 22  1  0  0  0  0
 24 27  1  0  0  0  0
 25 28  1  0  0  0  0
 26 29  2  0  0  0  0
 28 24  1  0  0  0  0
 29 31  1  0  0  0  0
 30 22  1  1  0  0  0
 30 29  1  0  0  0  0
 30 25  1  0  0  0  0
 31 24  1  0  0  0  0
M  END
>  <MODEL>
6

>  <REMARK>
 VINA RESULT:      -7.0      3.222      5.456
  Name = 
  2 active torsions:
  status: ('A' for Active; 'I' for Inactive)
    1  A    between atoms: C_5  and  C_30
    2  A    between atoms: C_10  and  N_16
                            x       y       z     vdW  Elec       q    Type
                         _______ _______ _______ _____ _____    ______ ____

>  <TORSDO>
F 2

$$$$
=
 OpenBabel11122413273D

 31 35  0  0  1  0  0  0  0  0999 V2000
  161.5360  205.5620  151.9970 C   0  0  0  0  0  0  0  0  0  0  0  0
  160.2720  209.0670  152.7840 C   0  0  2  0  0  3  0  0  0  0  0  0
  160.8330  209.3930  154.1560 C   0  0  0  0  0  0  0  0  0  0  0  0
  161.5740  208.6920  156.3640 C   0  0  0  0  0  0  0  0  0  0  0  0
  160.9920  207.9310  152.0870 C   0  0  0  0  0  0  0  0  0  0  0  0
  162.3350  205.7820  150.8740 C   0  0  0  0  0  3  0  0  0  0  0  0
  161.1280  208.3770  155.0770 C   0  0  0  0  0  3  0  0  0  0  0  0
  161.4800  210.6340  151.1610 C   0  0  2  0  0  3  0  0  0  0  0  0
  161.4130  204.3130  152.5060 F   0  0  0  0  0  0  0  0  0  0  0  0
  160.6310  211.8360  153.5980 C   0  0  0  0  0  2  0  0  0  0  0  0
  161.8770  207.6770  157.2610 O   0  0  0  0  0  1  0  0  0  0  0  0
  161.8410  209.4720  150.2440 C   0  0  0  0  0  2  0  0  0  0  0  0
  160.1670  210.3300  151.9000 C   0  0  2  0  0  3  0  0  0  0  0  0
  160.8650  206.6290  152.5950 C   0  0  0  0  0  3  0  0  0  0  0  0
  161.7120  210.0280  156.7480 C   0  0  0  0  0  3  0  0  0  0  0  0
  161.7940  208.1460  150.9420 C   0  0  0  0  0  0  0  0  0  0  0  0
  162.4530  207.0680  150.3420 C   0  0  0  0  0  3  0  0  0  0  0  0
  159.6720  211.4360  152.6400 O   0  0  0  0  0  0  0  0  0  0  0  0
  160.9360  210.7360  154.5660 C   0  0  0  0  0  0  0  0  0  0  0  0
  161.3940  211.0500  155.8500 C   0  0  0  0  0  3  0  0  0  0  0  0
  162.3140  210.9490  148.4510 O   0  0  0  0  0  0  0  0  0  0  0  0
  161.7700  211.9380  149.0130 C   0  0  0  0  0  0  0  0  0  0  0  0
  161.3380  211.8500  150.3720 N   0  0  0  0  0  2  0  0  0  0  0  0
  159.3110  213.5320  146.4370 N   0  0  0  0  0  0  0  0  0  0  0  0
  160.2580  213.9040  148.6620 C   0  0  0  0  0  2  0  0  0  0  0  0
  162.7360  213.0460  146.2150 O   0  0  0  0  0  0  0  0  0  0  0  0
  158.2030  213.0870  145.8000 O   0  0  0  0  0  1  0  0  0  0  0  0
  159.0790  213.3420  147.8670 C   0  0  0  0  0  2  0  0  0  0  0  0
  161.6580  213.0080  146.7840 C   0  0  0  0  0  0  0  0  0  0  0  0
  161.5760  213.2220  148.2700 C   0  0  2  0  0  3  0  0  0  0  0  0
  160.4120  212.6650  146.0200 C   0  0  0  0  0  2  0  0  0  0  0  0
  1  9  1  0  0  0  0
  1 14  1  0  0  0  0
  2  5  1  6  0  0  0
  2  3  1  0  0  0  0
  3 19  2  0  0  0  0
  3  7  1  0  0  0  0
  4 15  1  0  0  0  0
  4 11  1  0  0  0  0
  5 14  2  0  0  0  0
  6  1  2  0  0  0  0
  7  4  2  0  0  0  0
  8 23  1  6  0  0  0
  8 13  1  0  0  0  0
 10 19  1  0  0  0  0
 12 16  1  0  0  0  0
 12  8  1  0  0  0  0
 13 18  1  1  0  0  0
 13  2  1  0  0  0  0
 16  5  1  0  0  0  0
 17  6  1  0  0  0  0
 17 16  2  0  0  0  0
 18 10  1  0  0  0  0
 19 20  1  0  0  0  0
 20 15  2  0  0  0  0
 21 22  2  0  0  0  0
 22 23  1  0  0  0  0
 24 28  1  0  0  0  0
 26 29  2  0  0  0  0
 27 24  1  0  0  0  0
 28 25  1  0  0  0  0
 29 30  1  0  0  0  0
 30 25  1  0  0  0  0
 30 22  1  1  0  0  0
 31 24  1  0  0  0  0
 31 29  1  0  0  0  0
M  END
>  <MODEL>
7

>  <REMARK>
 VINA RESULT:      -6.4      3.515      5.123
  Name = 
  2 active torsions:
  status: ('A' for Active; 'I' for Inactive)
    1  A    between atoms: C_5  and  C_30
    2  A    between atoms: C_10  and  N_16
                            x       y       z     vdW  Elec       q    Type
                         _______ _______ _______ _____ _____    ______ ____

>  <TORSDO>
F 2

$$$$
=
 OpenBabel11122413273D

 31 35  0  0  1  0  0  0  0  0999 V2000
  161.7300  206.5840  147.3760 C   0  0  0  0  0  0  0  0  0  0  0  0
  162.3260  209.3080  149.9700 C   0  0  2  0  0  3  0  0  0  0  0  0
  161.6930  210.5570  149.3870 C   0  0  0  0  0  0  0  0  0  0  0  0
  161.0550  211.9140  147.4720 C   0  0  0  0  0  0  0  0  0  0  0  0
  161.8350  208.0230  149.3340 C   0  0  0  0  0  0  0  0  0  0  0  0
  160.9240  205.6840  148.0730 C   0  0  0  0  0  3  0  0  0  0  0  0
  161.5720  210.7270  148.0000 C   0  0  0  0  0  3  0  0  0  0  0  0
  160.8810  208.6870  151.9900 C   0  0  2  0  0  3  0  0  0  0  0  0
  162.0700  206.3330  146.0890 F   0  0  0  0  0  0  0  0  0  0  0  0
  161.4580  211.4620  151.7210 C   0  0  0  0  0  2  0  0  0  0  0  0
  160.9260  212.0630  146.0980 O   0  0  0  0  0  1  0  0  0  0  0  0
  160.7510  207.2480  151.5050 C   0  0  0  0  0  2  0  0  0  0  0  0
  162.2150  209.2830  151.5110 C   0  0  2  0  0  3  0  0  0  0  0  0
  162.1880  207.7430  148.0050 C   0  0  0  0  0  3  0  0  0  0  0  0
  160.6720  212.9500  148.3260 C   0  0  0  0  0  3  0  0  0  0  0  0
  161.0260  207.1020  150.0390 C   0  0  0  0  0  0  0  0  0  0  0  0
  160.5830  205.9370  149.4040 C   0  0  0  0  0  3  0  0  0  0  0  0
  162.4890  210.5590  152.0680 O   0  0  0  0  0  0  0  0  0  0  0  0
  161.3420  211.6230  150.2370 C   0  0  0  0  0  0  0  0  0  0  0  0
  160.8130  212.8050  149.7080 C   0  0  0  0  0  3  0  0  0  0  0  0
  159.1160  210.3220  153.5210 O   0  0  0  0  0  0  0  0  0  0  0  0
  159.8960  209.5570  154.1500 C   0  0  0  0  0  0  0  0  0  0  0  0
  160.8130  208.7190  153.4440 N   0  0  0  0  0  2  0  0  0  0  0  0
  162.2690  210.2960  157.1590 N   0  0  0  0  0  0  0  0  0  0  0  0
  160.0860  210.9190  156.2430 C   0  0  0  0  0  2  0  0  0  0  0  0
  160.6080  207.3710  156.3200 O   0  0  0  0  0  0  0  0  0  0  0  0
  163.5520  210.7140  157.2600 O   0  0  0  0  0  1  0  0  0  0  0  0
  161.5700  211.2790  156.3330 C   0  0  0  0  0  2  0  0  0  0  0  0
  160.8980  208.5460  156.1760 C   0  0  0  0  0  0  0  0  0  0  0  0
  159.8820  209.5200  155.6470 C   0  0  2  0  0  3  0  0  0  0  0  0
  162.2970  209.0190  156.4480 C   0  0  0  0  0  2  0  0  0  0  0  0
  1 14  2  0  0  0  0
  1  6  1  0  0  0  0
  2  5  1  6  0  0  0
  2 13  1  0  0  0  0
  3  2  1  0  0  0  0
  3 19  1  0  0  0  0
  4  7  1  0  0  0  0
  4 15  2  0  0  0  0
  5 16  2  0  0  0  0
  6 17  2  0  0  0  0
  7  3  2  0  0  0  0
  8 23  1  1  0  0  0
  9  1  1  0  0  0  0
 10 18  1  0  0  0  0
 11  4  1  0  0  0  0
 12  8  1  0  0  0  0
 13  8  1  0  0  0  0
 13 18  1  6  0  0  0
 14  5  1  0  0  0  0
 15 20  1  0  0  0  0
 16 12  1  0  0  0  0
 17 16  1  0  0  0  0
 19 10  1  0  0  0  0
 20 19  2  0  0  0  0
 21 22  2  0  0  0  0
 23 22  1  0  0  0  0
 24 27  1  0  0  0  0
 25 28  1  0  0  0  0
 28 24  1  0  0  0  0
 29 26  2  0  0  0  0
 29 31  1  0  0  0  0
 30 22  1  6  0  0  0
 30 29  1  0  0  0  0
 30 25  1  0  0  0  0
 31 24  1  0  0  0  0
M  END
>  <MODEL>
8

>  <REMARK>
 VINA RESULT:      -6.2      3.785      7.069
  Name = 
  2 active torsions:
  status: ('A' for Active; 'I' for Inactive)
    1  A    between atoms: C_5  and  C_30
    2  A    between atoms: C_10  and  N_16
                            x       y       z     vdW  Elec       q    Type
                         _______ _______ _______ _____ _____    ______ ____

>  <TORSDO>
F 2

$$$$
=
 OpenBabel11122413273D

 31 35  0  0  1  0  0  0  0  0999 V2000
  162.0480  206.6180  147.4870 C   0  0  0  0  0  0  0  0  0  0  0  0
  162.3330  209.1990  150.2720 C   0  0  2  0  0  3  0  0  0  0  0  0
  161.7540  210.4760  149.6920 C   0  0  0  0  0  0  0  0  0  0  0  0
  161.3140  211.9320  147.7940 C   0  0  0  0  0  0  0  0  0  0  0  0
  161.9270  207.9490  149.5190 C   0  0  0  0  0  0  0  0  0  0  0  0
  161.1800  205.6780  148.0440 C   0  0  0  0  0  3  0  0  0  0  0  0
  161.7820  210.7210  148.3110 C   0  0  0  0  0  3  0  0  0  0  0  0
  160.6850  208.4640  152.0880 C   0  0  2  0  0  3  0  0  0  0  0  0
  162.5270  206.4390  146.2330 F   0  0  0  0  0  0  0  0  0  0  0  0
  161.2600  211.2520  152.0320 C   0  0  0  0  0  2  0  0  0  0  0  0
  161.3320  212.1550  146.4240 O   0  0  0  0  0  1  0  0  0  0  0  0
  160.6230  207.0530  151.5160 C   0  0  0  0  0  2  0  0  0  0  0  0
  162.0570  209.0910  151.7890 C   0  0  2  0  0  3  0  0  0  0  0  0
  162.4230  207.7430  148.2230 C   0  0  0  0  0  3  0  0  0  0  0  0
  160.8290  212.9190  148.6560 C   0  0  0  0  0  3  0  0  0  0  0  0
  161.0550  206.9880  150.0820 C   0  0  0  0  0  0  0  0  0  0  0  0
  160.6950  205.8570  149.3410 C   0  0  0  0  0  3  0  0  0  0  0  0
  162.2560  210.3360  152.4390 O   0  0  0  0  0  0  0  0  0  0  0  0
  161.3030  211.4930  150.5550 C   0  0  0  0  0  0  0  0  0  0  0  0
  160.8230  212.6990  150.0360 C   0  0  0  0  0  3  0  0  0  0  0  0
  161.9090  206.6220  153.8890 O   0  0  0  0  0  0  0  0  0  0  0  0
  161.1140  207.4730  154.3740 C   0  0  0  0  0  0  0  0  0  0  0  0
  160.4600  208.4170  153.5250 N   0  0  0  0  0  2  0  0  0  0  0  0
  159.5490  209.8390  157.0530 N   0  0  0  0  0  0  0  0  0  0  0  0
  159.3310  207.5840  156.1290 C   0  0  0  0  0  2  0  0  0  0  0  0
  162.7220  208.4490  156.9150 O   0  0  0  0  0  0  0  0  0  0  0  0
  159.0070  211.0780  157.0070 O   0  0  0  0  0  1  0  0  0  0  0  0
  158.8290  209.0270  156.0740 C   0  0  0  0  0  2  0  0  0  0  0  0
  161.5820  208.6200  156.5170 C   0  0  0  0  0  0  0  0  0  0  0  0
  160.8360  207.5010  155.8440 C   0  0  2  0  0  3  0  0  0  0  0  0
  160.9400  209.9730  156.6220 C   0  0  0  0  0  2  0  0  0  0  0  0
  1  6  2  0  0  0  0
  1 14  1  0  0  0  0
  2  5  1  6  0  0  0
  2 13  1  0  0  0  0
  3  2  1  0  0  0  0
  3 19  1  0  0  0  0
  4  7  1  0  0  0  0
  4 15  2  0  0  0  0
  5 16  1  0  0  0  0
  6 17  1  0  0  0  0
  7  3  2  0  0  0  0
  8 23  1  1  0  0  0
  9  1  1  0  0  0  0
 10 18  1  0  0  0  0
 11  4  1  0  0  0  0
 12  8  1  0  0  0  0
 13  8  1  0  0  0  0
 13 18  1  6  0  0  0
 14  5  2  0  0  0  0
 15 20  1  0  0  0  0
 16 12  1  0  0  0  0
 17 16  2  0  0  0  0
 19 10  1  0  0  0  0
 20 19  2  0  0  0  0
 21 22  2  0  0  0  0
 23 22  1  0  0  0  0
 27 24  1  0  0  0  0
 28 25  1  0  0  0  0
 28 24  1  0  0  0  0
 29 31  1  0  0  0  0
 29 26  2  0  0  0  0
 30 22  1  6  0  0  0
 30 25  1  0  0  0  0
 30 29  1  0  0  0  0
 31 24  1  0  0  0  0
M  END
>  <MODEL>
9

>  <REMARK>
 VINA RESULT:      -6.1      3.701      7.120
  Name = 
  2 active torsions:
  status: ('A' for Active; 'I' for Inactive)
    1  A    between atoms: C_5  and  C_30
    2  A    between atoms: C_10  and  N_16
                            x       y       z     vdW  Elec       q    Type
                         _______ _______ _______ _____ _____    ______ ____

>  <TORSDO>
F 2

$$$$
