=
 OpenBabel11122413223D

 31 35  0  0  1  0  0  0  0  0999 V2000
  161.0910  201.5170  150.0690 C   0  0  0  0  0  0  0  0  0  0  0  0
  161.0860  205.2100  149.7360 C   0  0  0  0  0  0  0  0  0  0  0  0
  161.1220  205.4670  148.3300 C   0  0  0  0  0  0  0  0  0  0  0  0
  162.0090  204.6140  146.1620 C   0  0  1  0  0  3  0  0  0  0  0  0
  160.9560  203.9580  150.2710 C   0  0  2  0  0  3  0  0  0  0  0  0
  161.2820  201.4200  151.5280 C   0  0  0  0  0  3  0  0  0  0  0  0
  160.9710  204.4120  147.2660 C   0  0  0  0  0  2  0  0  0  0  0  0
  161.2960  206.1690  151.9520 C   0  0  2  0  0  3  0  0  0  0  0  0
  161.0890  200.3640  149.2980 O   0  0  0  0  0  1  0  0  0  0  0  0
  161.3220  207.8200  148.7390 N   0  0  0  0  0  0  0  0  0  0  0  0
  161.7490  203.6460  145.0270 C   0  0  0  0  0  1  0  0  0  0  0  0
  161.2190  204.8870  152.4990 O   0  0  0  0  0  0  0  0  0  0  0  0
  161.2140  206.3300  150.6150 C   0  0  0  0  0  0  0  0  0  0  0  0
  160.9590  202.7070  149.4780 C   0  0  0  0  0  3  0  0  0  0  0  0
  162.0700  206.0530  145.6190 C   0  0  0  0  0  2  0  0  0  0  0  0
  160.6780  203.8080  151.7530 C   0  0  2  0  0  3  0  0  0  0  0  0
  161.1380  202.4900  152.3130 C   0  0  0  0  0  3  0  0  0  0  0  0
  161.3210  207.6200  150.0770 C   0  0  0  0  0  3  0  0  0  0  0  0
  161.2400  206.7890  147.8670 C   0  0  0  0  0  0  0  0  0  0  0  0
  161.2170  207.0660  146.3950 C   0  0  0  0  0  2  0  0  0  0  0  0
  160.1020  206.6130  154.5530 O   0  0  0  0  0  0  0  0  0  0  0  0
  160.8910  207.4850  154.1000 C   0  0  0  0  0  0  0  0  0  0  0  0
  161.4980  207.3010  152.8130 N   0  0  0  0  0  2  0  0  0  0  0  0
  161.8510  210.9400  156.4760 C   0  0  0  0  0  0  0  0  0  0  0  0
  161.8410  208.5500  156.1240 C   0  0  0  0  0  3  0  0  0  0  0  0
  160.2100  210.3040  153.1470 C   0  0  0  0  0  1  0  0  0  0  0  0
  162.1690  212.0400  157.2610 O   0  0  0  0  0  1  0  0  0  0  0  0
  162.1640  209.6550  156.9150 C   0  0  0  0  0  3  0  0  0  0  0  0
  160.8870  210.0220  154.4450 C   0  0  0  0  0  0  0  0  0  0  0  0
  161.2020  208.7090  154.8830 C   0  0  0  0  0  0  0  0  0  0  0  0
  161.2160  211.1210  155.2470 C   0  0  0  0  0  3  0  0  0  0  0  0
  1  6  1  0  0  0  0
  2  5  1  0  0  0  0
  2 13  1  0  0  0  0
  3  2  2  0  0  0  0
  4 11  1  6  0  0  0
  4  7  1  0  0  0  0
  5 14  1  6  0  0  0
  5 16  1  0  0  0  0
  6 17  2  0  0  0  0
  7  3  1  0  0  0  0
  8 12  1  0  0  0  0
  8 23  1  6  0  0  0
  9  1  1  0  0  0  0
 10 18  1  0  0  0  0
 13  8  1  0  0  0  0
 14  1  2  0  0  0  0
 15  4  1  0  0  0  0
 15 20  1  0  0  0  0
 16 17  1  1  0  0  0
 16 12  1  0  0  0  0
 18 13  2  0  0  0  0
 19  3  1  0  0  0  0
 19 10  2  0  0  0  0
 20 19  1  0  0  0  0
 22 21  2  0  0  0  0
 22 30  1  0  0  0  0
 23 22  1  0  0  0  0
 24 28  1  0  0  0  0
 24 27  1  0  0  0  0
 25 28  2  0  0  0  0
 26 29  1  0  0  0  0
 29 30  2  0  0  0  0
 29 31  1  0  0  0  0
 30 25  1  0  0  0  0
 31 24  2  0  0  0  0
M  END
>  <MODEL>
1

>  <REMARK>
 VINA RESULT:      -9.0      0.000      0.000
  Name = 
  2 active torsions:
  status: ('A' for Active; 'I' for Inactive)
    1  A    between atoms: C_5  and  C_30
    2  A    between atoms: C_10  and  N_16
                            x       y       z     vdW  Elec       q    Type
                         _______ _______ _______ _____ _____    ______ ____

>  <TORSDO>
F 2

$$$$
=
 OpenBabel11122413223D

 31 35  0  0  1  0  0  0  0  0999 V2000
  161.1920  205.1850  145.7110 C   0  0  0  0  0  0  0  0  0  0  0  0
  161.2570  204.8340  149.4010 C   0  0  0  0  0  0  0  0  0  0  0  0
  161.3710  203.4310  149.6500 C   0  0  0  0  0  0  0  0  0  0  0  0
  160.7120  201.1860  148.7890 C   0  0  1  0  0  3  0  0  0  0  0  0
  161.3200  205.3870  148.1530 C   0  0  2  0  0  3  0  0  0  0  0  0
  160.8470  206.6160  145.6240 C   0  0  0  0  0  3  0  0  0  0  0  0
  161.6270  202.3950  148.5880 C   0  0  0  0  0  2  0  0  0  0  0  0
  160.8200  207.0110  150.3760 C   0  0  2  0  0  3  0  0  0  0  0  0
  161.2680  204.4250  144.5530 O   0  0  0  0  0  1  0  0  0  0  0  0
  161.1440  203.8040  152.0070 N   0  0  0  0  0  0  0  0  0  0  0  0
  161.0850  200.0910  147.8130 C   0  0  0  0  0  1  0  0  0  0  0  0
  160.8290  207.5690  149.0970 O   0  0  0  0  0  0  0  0  0  0  0  0
  161.0440  205.6880  150.5280 C   0  0  0  0  0  0  0  0  0  0  0  0
  161.3930  204.6050  146.8970 C   0  0  0  0  0  3  0  0  0  0  0  0
  160.7190  200.6310  150.2260 C   0  0  0  0  0  2  0  0  0  0  0  0
  161.4390  206.8910  148.0100 C   0  0  2  0  0  3  0  0  0  0  0  0
  160.9140  207.4070  146.6980 C   0  0  0  0  0  3  0  0  0  0  0  0
  161.0030  205.1350  151.8150 C   0  0  0  0  0  3  0  0  0  0  0  0
  161.3120  202.9510  150.9700 C   0  0  0  0  0  0  0  0  0  0  0  0
  161.4920  201.4890  151.2380 C   0  0  0  0  0  2  0  0  0  0  0  0
  162.4770  209.1320  151.4430 O   0  0  0  0  0  0  0  0  0  0  0  0
  161.3800  208.8860  152.0130 C   0  0  0  0  0  0  0  0  0  0  0  0
  160.5350  207.8390  151.5140 N   0  0  0  0  0  2  0  0  0  0  0  0
  160.1230  211.2710  155.3640 C   0  0  0  0  0  0  0  0  0  0  0  0
  160.6770  211.0340  153.0250 C   0  0  0  0  0  3  0  0  0  0  0  0
  161.0600  207.6690  154.7930 C   0  0  0  0  0  1  0  0  0  0  0  0
  159.7160  212.0610  156.4300 O   0  0  0  0  0  1  0  0  0  0  0  0
  160.2670  211.8310  154.0960 C   0  0  0  0  0  3  0  0  0  0  0  0
  160.7980  209.1060  154.4960 C   0  0  0  0  0  0  0  0  0  0  0  0
  160.9490  209.6670  153.2000 C   0  0  0  0  0  0  0  0  0  0  0  0
  160.3870  209.9160  155.5610 C   0  0  0  0  0  3  0  0  0  0  0  0
  1 14  2  0  0  0  0
  2  3  2  0  0  0  0
  2 13  1  0  0  0  0
  3 19  1  0  0  0  0
  4 11  1  6  0  0  0
  4 15  1  0  0  0  0
  5 14  1  1  0  0  0
  5  2  1  0  0  0  0
  6  1  1  0  0  0  0
  6 17  2  0  0  0  0
  7  4  1  0  0  0  0
  7  3  1  0  0  0  0
  8 13  1  0  0  0  0
  8 23  1  6  0  0  0
  9  1  1  0  0  0  0
 12  8  1  0  0  0  0
 13 18  2  0  0  0  0
 15 20  1  0  0  0  0
 16 17  1  6  0  0  0
 16  5  1  0  0  0  0
 16 12  1  0  0  0  0
 18 10  1  0  0  0  0
 19 20  1  0  0  0  0
 19 10  2  0  0  0  0
 21 22  2  0  0  0  0
 22 30  1  0  0  0  0
 23 22  1  0  0  0  0
 24 31  1  0  0  0  0
 24 27  1  0  0  0  0
 25 30  2  0  0  0  0
 25 28  1  0  0  0  0
 28 24  2  0  0  0  0
 29 26  1  0  0  0  0
 29 31  2  0  0  0  0
 30 29  1  0  0  0  0
M  END
>  <MODEL>
2

>  <REMARK>
 VINA RESULT:      -8.8      2.075      4.278
  Name = 
  2 active torsions:
  status: ('A' for Active; 'I' for Inactive)
    1  A    between atoms: C_5  and  C_30
    2  A    between atoms: C_10  and  N_16
                            x       y       z     vdW  Elec       q    Type
                         _______ _______ _______ _____ _____    ______ ____

>  <TORSDO>
F 2

$$$$
=
 OpenBabel11122413223D

 31 35  0  0  1  0  0  0  0  0999 V2000
  160.3330  211.0330  154.4380 C   0  0  0  0  0  0  0  0  0  0  0  0
  161.4780  209.6230  151.2060 C   0  0  0  0  0  0  0  0  0  0  0  0
  161.6000  210.7400  150.3230 C   0  0  0  0  0  0  0  0  0  0  0  0
  160.6170  212.9600  149.7580 C   0  0  1  0  0  3  0  0  0  0  0  0
  161.1910  209.7410  152.5380 C   0  0  2  0  0  3  0  0  0  0  0  0
  160.0400  209.7730  155.1460 C   0  0  0  0  0  3  0  0  0  0  0  0
  161.4820  212.1800  150.7480 C   0  0  0  0  0  2  0  0  0  0  0  0
  161.4470  207.2050  151.3830 C   0  0  2  0  0  3  0  0  0  0  0  0
  160.0270  212.2460  155.0380 O   0  0  0  0  0  1  0  0  0  0  0  0
  162.1020  209.2730  148.4940 N   0  0  0  0  0  0  0  0  0  0  0  0
  160.6330  214.4320  150.1090 C   0  0  0  0  0  1  0  0  0  0  0  0
  161.1000  207.3220  152.7300 O   0  0  0  0  0  0  0  0  0  0  0  0
  161.6480  208.3180  150.6470 C   0  0  0  0  0  0  0  0  0  0  0  0
  160.8520  211.0170  153.2080 C   0  0  0  0  0  3  0  0  0  0  0  0
  161.0260  212.7680  148.2860 C   0  0  0  0  0  2  0  0  0  0  0  0
  161.3270  208.5300  153.4390 C   0  0  2  0  0  3  0  0  0  0  0  0
  160.4590  208.6000  154.6650 C   0  0  0  0  0  3  0  0  0  0  0  0
  161.9680  208.1860  149.2880 C   0  0  0  0  0  3  0  0  0  0  0  0
  161.9150  210.5260  148.9700 C   0  0  0  0  0  0  0  0  0  0  0  0
  162.1030  211.6980  148.0560 C   0  0  0  0  0  2  0  0  0  0  0  0
  159.6890  206.0640  149.3850 O   0  0  0  0  0  0  0  0  0  0  0  0
  160.6610  205.3720  149.7920 C   0  0  0  0  0  0  0  0  0  0  0  0
  161.5510  205.9030  150.7840 N   0  0  0  0  0  2  0  0  0  0  0  0
  161.3050  201.3620  148.3750 C   0  0  0  0  0  0  0  0  0  0  0  0
  160.6400  202.9150  150.1020 C   0  0  0  0  0  3  0  0  0  0  0  0
  161.6780  204.8330  146.9650 C   0  0  0  0  0  1  0  0  0  0  0  0
  161.5050  200.0590  147.9410 O   0  0  0  0  0  1  0  0  0  0  0  0
  160.8400  201.6030  149.6670 C   0  0  0  0  0  3  0  0  0  0  0  0
  161.3720  203.7500  147.9420 C   0  0  0  0  0  0  0  0  0  0  0  0
  160.8990  204.0070  149.2560 C   0  0  0  0  0  0  0  0  0  0  0  0
  161.5690  202.4310  147.5190 C   0  0  0  0  0  3  0  0  0  0  0  0
  1  9  1  0  0  0  0
  1  6  1  0  0  0  0
  2  5  1  0  0  0  0
  3  7  1  0  0  0  0
  3  2  2  0  0  0  0
  4 11  1  1  0  0  0
  4  7  1  0  0  0  0
  5 14  1  1  0  0  0
  5 16  1  0  0  0  0
  8 23  1  6  0  0  0
  8 12  1  0  0  0  0
 10 19  2  0  0  0  0
 10 18  1  0  0  0  0
 12 16  1  0  0  0  0
 13  2  1  0  0  0  0
 13  8  1  0  0  0  0
 14  1  2  0  0  0  0
 15  4  1  0  0  0  0
 16 17  1  1  0  0  0
 17  6  2  0  0  0  0
 18 13  2  0  0  0  0
 19  3  1  0  0  0  0
 20 15  1  0  0  0  0
 20 19  1  0  0  0  0
 21 22  2  0  0  0  0
 22 23  1  0  0  0  0
 24 28  1  0  0  0  0
 26 29  1  0  0  0  0
 27 24  1  0  0  0  0
 28 25  2  0  0  0  0
 29 30  2  0  0  0  0
 30 22  1  0  0  0  0
 30 25  1  0  0  0  0
 31 29  1  0  0  0  0
 31 24  2  0  0  0  0
M  END
>  <MODEL>
3

>  <REMARK>
 VINA RESULT:      -8.8      2.498      8.031
  Name = 
  2 active torsions:
  status: ('A' for Active; 'I' for Inactive)
    1  A    between atoms: C_5  and  C_30
    2  A    between atoms: C_10  and  N_16
                            x       y       z     vdW  Elec       q    Type
                         _______ _______ _______ _____ _____    ______ ____

>  <TORSDO>
F 2

$$$$
=
 OpenBabel11122413223D

 31 35  0  0  1  0  0  0  0  0999 V2000
  160.7170  209.5180  154.4860 C   0  0  0  0  0  0  0  0  0  0  0  0
  161.5790  208.8010  150.9520 C   0  0  0  0  0  0  0  0  0  0  0  0
  161.6460  210.0760  150.3080 C   0  0  0  0  0  0  0  0  0  0  0  0
  160.6540  212.3630  150.2910 C   0  0  1  0  0  3  0  0  0  0  0  0
  161.4020  208.6430  152.2980 C   0  0  2  0  0  3  0  0  0  0  0  0
  160.4640  208.1390  154.9430 C   0  0  0  0  0  3  0  0  0  0  0  0
  161.5840  211.3980  151.0270 C   0  0  0  0  0  2  0  0  0  0  0  0
  161.5270  206.3980  150.6330 C   0  0  2  0  0  3  0  0  0  0  0  0
  160.4790  210.5810  155.3440 O   0  0  0  0  0  1  0  0  0  0  0  0
  161.9780  209.0160  148.1840 N   0  0  0  0  0  0  0  0  0  0  0  0
  160.7200  213.7320  150.9330 C   0  0  0  0  0  1  0  0  0  0  0  0
  161.2900  206.2370  151.9990 O   0  0  0  0  0  0  0  0  0  0  0  0
  161.6840  207.6390  150.1250 C   0  0  0  0  0  0  0  0  0  0  0  0
  161.1360  209.7550  153.2400 C   0  0  0  0  0  3  0  0  0  0  0  0
  160.9410  212.4780  148.7830 C   0  0  0  0  0  2  0  0  0  0  0  0
  161.5920  207.2740  152.9190 C   0  0  2  0  0  3  0  0  0  0  0  0
  160.8250  207.0900  154.2000 C   0  0  0  0  0  3  0  0  0  0  0  0
  161.8920  207.7890  148.7480 C   0  0  0  0  0  3  0  0  0  0  0  0
  161.8490  210.1450  148.9190 C   0  0  0  0  0  0  0  0  0  0  0  0
  161.9800  211.4790  148.2530 C   0  0  0  0  0  2  0  0  0  0  0  0
  160.0820  203.9150  150.9900 O   0  0  0  0  0  0  0  0  0  0  0  0
  160.8290  204.0330  149.9800 C   0  0  0  0  0  0  0  0  0  0  0  0
  161.5630  205.2480  149.7740 N   0  0  0  0  0  2  0  0  0  0  0  0
  161.2050  200.9280  147.0270 C   0  0  0  0  0  0  0  0  0  0  0  0
  160.9620  203.2540  147.6330 C   0  0  0  0  0  3  0  0  0  0  0  0
  161.0970  201.1010  150.7870 C   0  0  0  0  0  1  0  0  0  0  0  0
  161.3240  199.9440  146.0560 O   0  0  0  0  0  1  0  0  0  0  0  0
  161.0830  202.2660  146.6540 C   0  0  0  0  0  3  0  0  0  0  0  0
  161.0860  201.5600  149.3690 C   0  0  0  0  0  0  0  0  0  0  0  0
  160.9610  202.9250  148.9990 C   0  0  0  0  0  0  0  0  0  0  0  0
  161.2060  200.5790  148.3780 C   0  0  0  0  0  3  0  0  0  0  0  0
  1  6  1  0  0  0  0
  1  9  1  0  0  0  0
  2  5  1  0  0  0  0
  3  2  1  0  0  0  0
  3  7  1  0  0  0  0
  4 11  1  1  0  0  0
  4  7  1  0  0  0  0
  5 16  1  0  0  0  0
  5 14  1  1  0  0  0
  8 23  1  6  0  0  0
  8 12  1  0  0  0  0
 10 18  2  0  0  0  0
 10 19  1  0  0  0  0
 12 16  1  0  0  0  0
 13  8  1  0  0  0  0
 13  2  2  0  0  0  0
 14  1  2  0  0  0  0
 15  4  1  0  0  0  0
 16 17  1  1  0  0  0
 17  6  2  0  0  0  0
 18 13  1  0  0  0  0
 19  3  2  0  0  0  0
 20 15  1  0  0  0  0
 20 19  1  0  0  0  0
 22 21  2  0  0  0  0
 23 22  1  0  0  0  0
 24 31  1  0  0  0  0
 25 30  2  0  0  0  0
 27 24  1  0  0  0  0
 28 24  2  0  0  0  0
 28 25  1  0  0  0  0
 29 26  1  0  0  0  0
 30 29  1  0  0  0  0
 30 22  1  0  0  0  0
 31 29  2  0  0  0  0
M  END
>  <MODEL>
4

>  <REMARK>
 VINA RESULT:      -7.9      2.307      8.097
  Name = 
  2 active torsions:
  status: ('A' for Active; 'I' for Inactive)
    1  A    between atoms: C_5  and  C_30
    2  A    between atoms: C_10  and  N_16
                            x       y       z     vdW  Elec       q    Type
                         _______ _______ _______ _____ _____    ______ ____

>  <TORSDO>
F 2

$$$$
=
 OpenBabel11122413223D

 31 35  0  0  1  0  0  0  0  0999 V2000
  159.7890  209.0690  156.1290 C   0  0  0  0  0  0  0  0  0  0  0  0
  160.8310  209.8640  152.6610 C   0  0  0  0  0  0  0  0  0  0  0  0
  160.5370  211.2520  152.4820 C   0  0  0  0  0  0  0  0  0  0  0  0
  158.9380  213.0560  153.1170 C   0  0  1  0  0  3  0  0  0  0  0  0
  160.7000  209.2130  153.8560 C   0  0  2  0  0  3  0  0  0  0  0  0
  159.9350  207.6020  156.0810 C   0  0  0  0  0  3  0  0  0  0  0  0
  160.1010  212.1790  153.5850 C   0  0  0  0  0  2  0  0  0  0  0  0
  161.4610  207.7940  151.5680 C   0  0  2  0  0  3  0  0  0  0  0  0
  159.2570  209.6690  157.2610 O   0  0  0  0  0  1  0  0  0  0  0  0
  161.1620  211.1130  150.1720 N   0  0  0  0  0  0  0  0  0  0  0  0
  158.6120  214.0870  154.1760 C   0  0  0  0  0  1  0  0  0  0  0  0
  161.2750  207.1170  152.7740 O   0  0  0  0  0  0  0  0  0  0  0  0
  161.2630  209.1280  151.5140 C   0  0  0  0  0  0  0  0  0  0  0  0
  160.1280  209.8210  155.0800 C   0  0  0  0  0  3  0  0  0  0  0  0
  159.1860  213.7530  151.7660 C   0  0  0  0  0  2  0  0  0  0  0  0
  161.2680  207.8160  154.0090 C   0  0  2  0  0  3  0  0  0  0  0  0
  160.5810  207.0080  155.0750 C   0  0  0  0  0  3  0  0  0  0  0  0
  161.4250  209.7910  150.2900 C   0  0  0  0  0  3  0  0  0  0  0  0
  160.7160  211.8430  151.2200 C   0  0  0  0  0  0  0  0  0  0  0  0
  160.4670  213.3100  151.0450 C   0  0  0  0  0  2  0  0  0  0  0  0
  159.6870  206.3070  149.8280 O   0  0  0  0  0  0  0  0  0  0  0  0
  160.9150  206.3380  149.5450 C   0  0  0  0  0  0  0  0  0  0  0  0
  161.8240  207.0610  150.3870 N   0  0  0  0  0  2  0  0  0  0  0  0
  162.4520  204.4230  146.0130 C   0  0  0  0  0  0  0  0  0  0  0  0
  161.8850  206.4080  147.2670 C   0  0  0  0  0  3  0  0  0  0  0  0
  161.0590  203.2970  149.3250 C   0  0  0  0  0  1  0  0  0  0  0  0
  162.9510  203.8280  144.8630 O   0  0  0  0  0  1  0  0  0  0  0  0
  162.3880  205.8120  146.1090 C   0  0  0  0  0  3  0  0  0  0  0  0
  161.5060  204.2160  148.2400 C   0  0  0  0  0  0  0  0  0  0  0  0
  161.4370  205.6300  148.3480 C   0  0  0  0  0  0  0  0  0  0  0  0
  162.0130  203.6310  147.0740 C   0  0  0  0  0  3  0  0  0  0  0  0
  1  9  1  0  0  0  0
  2  5  1  0  0  0  0
  3  2  1  0  0  0  0
  3  7  1  0  0  0  0
  4  7  1  0  0  0  0
  4 11  1  1  0  0  0
  5 16  1  0  0  0  0
  5 14  1  1  0  0  0
  6  1  1  0  0  0  0
  8 23  1  6  0  0  0
  8 12  1  0  0  0  0
 10 18  2  0  0  0  0
 10 19  1  0  0  0  0
 12 16  1  0  0  0  0
 13  8  1  0  0  0  0
 13  2  2  0  0  0  0
 14  1  2  0  0  0  0
 15  4  1  0  0  0  0
 16 17  1  1  0  0  0
 17  6  2  0  0  0  0
 18 13  1  0  0  0  0
 19  3  2  0  0  0  0
 20 19  1  0  0  0  0
 20 15  1  0  0  0  0
 22 21  2  0  0  0  0
 22 23  1  0  0  0  0
 24 28  2  0  0  0  0
 24 31  1  0  0  0  0
 25 30  2  0  0  0  0
 27 24  1  0  0  0  0
 28 25  1  0  0  0  0
 29 30  1  0  0  0  0
 29 26  1  0  0  0  0
 30 22  1  0  0  0  0
 31 29  2  0  0  0  0
M  END
>  <MODEL>
5

>  <REMARK>
 VINA RESULT:      -7.4      2.395      8.398
  Name = 
  2 active torsions:
  status: ('A' for Active; 'I' for Inactive)
    1  A    between atoms: C_5  and  C_30
    2  A    between atoms: C_10  and  N_16
                            x       y       z     vdW  Elec       q    Type
                         _______ _______ _______ _____ _____    ______ ____

>  <TORSDO>
F 2

$$$$
