=
 OpenBabel11122412353D

 30 35  0  0  1  0  0  0  0  0999 V2000
  161.5100  206.2430  149.9540 C   0  0  1  0  0  3  0  0  0  0  0  0
  161.0360  203.7410  149.6030 C   0  0  2  0  0  3  0  0  0  0  0  0
  160.8800  205.8190  154.1990 C   0  0  0  0  0  2  0  0  0  0  0  0
  161.7950  207.3650  150.9950 C   0  0  1  0  0  3  0  0  0  0  0  0
  162.4040  206.3610  148.8670 O   0  0  0  0  0  0  0  0  0  0  0  0
  161.8000  209.9080  148.2210 O   0  0  0  0  0  1  0  0  0  0  0  0
  160.4230  210.1550  152.0520 C   0  0  1  0  0  3  0  0  0  0  0  0
  162.2170  208.7930  148.9540 C   0  0  2  0  0  3  0  0  0  0  0  0
  160.4060  209.2940  153.3200 C   0  0  2  0  0  3  0  0  0  0  0  0
  161.1370  207.2300  154.5280 C   0  0  0  0  0  0  0  0  0  0  0  0
  162.0660  207.5120  148.1170 C   0  0  2  0  0  3  0  0  0  0  0  0
  161.4410  208.6820  150.2700 C   0  0  2  0  0  3  0  0  0  0  0  0
  161.2560  202.3470  150.2070 C   0  0  0  0  0  2  0  0  0  0  0  0
  160.7470  210.2470  154.4490 C   0  0  0  0  0  2  0  0  0  0  0  0
  160.3510  211.6070  152.5010 C   0  0  0  0  0  2  0  0  0  0  0  0
  161.6710  203.7920  148.3620 O   0  0  0  0  0  1  0  0  0  0  0  0
  161.3060  205.8390  152.7480 C   0  0  2  0  0  3  0  0  0  0  0  0
  161.0360  202.2840  151.7010 C   0  0  0  0  0  3  0  0  0  0  0  0
  161.5790  204.8220  150.5480 C   0  0  2  0  0  3  0  0  0  0  0  0
  160.9720  207.1580  152.2000 N   0  0  1  0  0  0  0  0  0  0  0  0
  161.2470  207.6410  155.6710 O   0  0  0  0  0  0  0  0  0  0  0  0
  161.3300  208.0630  153.3000 C   0  0  1  0  0  3  0  0  0  0  0  0
  160.2070  211.5870  154.0080 C   0  0  0  0  0  2  0  0  0  0  0  0
  162.9860  210.1040  151.7470 C   0  0  0  0  0  1  0  0  0  0  0  0
  160.8630  203.3780  152.4570 C   0  0  0  0  0  3  0  0  0  0  0  0
  160.7670  204.7500  151.8430 C   0  0  1  0  0  3  0  0  0  0  0  0
  161.6080  209.9530  151.1020 C   0  0  2  0  0  3  0  0  0  0  0  0
  160.7000  207.3870  147.4350 C   0  0  0  0  0  2  0  0  0  0  0  0
  160.3980  206.3430  145.5160 C   0  0  0  0  0  1  0  0  0  0  0  0
  160.5610  206.1140  146.8820 O   0  0  0  0  0  0  0  0  0  0  0  0
  1  5  1  6  0  0  0
  1 19  1  0  0  0  0
  1  4  1  0  0  0  0
  2 16  1  6  0  0  0
  2 13  1  0  0  0  0
  2 19  1  0  0  0  0
  3 10  1  0  0  0  0
  4 20  1  0  0  0  0
  6  8  1  0  0  0  0
  7 15  1  0  0  0  0
  7  9  1  0  0  0  0
  8 12  1  0  0  0  0
  9 14  1  0  0  0  0
 10 21  2  0  0  0  0
 11  5  1  0  0  0  0
 11  8  1  0  0  0  0
 12  4  1  0  0  0  0
 12 27  1  0  0  0  0
 13 18  1  0  0  0  0
 15 23  1  0  0  0  0
 17  3  1  0  0  0  0
 18 25  2  0  0  0  0
 19 26  1  0  0  0  0
 20 17  1  0  0  0  0
 20 22  1  0  0  0  0
 22  9  1  0  0  0  0
 22 10  1  0  0  0  0
 23 14  1  0  0  0  0
 26 25  1  0  0  0  0
 26 17  1  0  0  0  0
 27 24  1  0  0  0  0
 27  7  1  0  0  0  0
 28 11  1  0  0  0  0
 29 30  1  0  0  0  0
 30 28  1  0  0  0  0
M  END
>  <MODEL>
1

>  <REMARK>
 VINA RESULT:      -8.3      0.000      0.000
  Name = 
  2 active torsions:
  status: ('A' for Active; 'I' for Inactive)
    1  A    between atoms: C_11  and  C_28
    2  A    between atoms: C_28  and  O_30
                            x       y       z     vdW  Elec       q    Type
                         _______ _______ _______ _____ _____    ______ ____

>  <TORSDO>
F 2

$$$$
=
 OpenBabel11122412353D

 30 35  0  0  1  0  0  0  0  0999 V2000
  161.3080  205.1110  148.8410 C   0  0  1  0  0  3  0  0  0  0  0  0
  160.7770  202.6810  148.1930 C   0  0  2  0  0  3  0  0  0  0  0  0
  161.0250  204.1090  153.0260 C   0  0  0  0  0  2  0  0  0  0  0  0
  161.6920  206.0790  149.9980 C   0  0  1  0  0  3  0  0  0  0  0  0
  162.1110  205.3760  147.7090 O   0  0  0  0  0  0  0  0  0  0  0  0
  161.4980  208.9780  147.6070 O   0  0  0  0  0  1  0  0  0  0  0  0
  160.4450  208.6990  151.5360 C   0  0  1  0  0  3  0  0  0  0  0  0
  161.9610  207.7740  148.1430 C   0  0  2  0  0  3  0  0  0  0  0  0
  160.5230  207.6720  152.6720 C   0  0  2  0  0  3  0  0  0  0  0  0
  161.3260  205.4620  153.5220 C   0  0  0  0  0  0  0  0  0  0  0  0
  161.7260  206.6200  147.1550 C   0  0  2  0  0  3  0  0  0  0  0  0
  161.2940  207.4840  149.4920 C   0  0  2  0  0  3  0  0  0  0  0  0
  161.0290  201.2170  148.5800 C   0  0  0  0  0  2  0  0  0  0  0  0
  160.9670  208.4620  153.8880 C   0  0  0  0  0  2  0  0  0  0  0  0
  160.4280  210.0760  152.1840 C   0  0  0  0  0  2  0  0  0  0  0  0
  161.3080  202.9020  146.9220 O   0  0  0  0  0  1  0  0  0  0  0  0
  161.3300  204.3280  151.5610 C   0  0  2  0  0  3  0  0  0  0  0  0
  160.9320  200.9500  150.0640 C   0  0  0  0  0  3  0  0  0  0  0  0
  161.4080  203.6220  149.2280 C   0  0  2  0  0  3  0  0  0  0  0  0
  160.9680  205.7100  151.2280 N   0  0  1  0  0  0  0  0  0  0  0  0
  161.5340  205.7130  154.6970 O   0  0  0  0  0  0  0  0  0  0  0  0
  161.4270  206.4550  152.4080 C   0  0  1  0  0  3  0  0  0  0  0  0
  160.4090  209.8500  153.6810 C   0  0  0  0  0  2  0  0  0  0  0  0
  162.9730  208.6890  151.0150 C   0  0  0  0  0  1  0  0  0  0  0  0
  160.8350  201.9300  150.9750 C   0  0  0  0  0  3  0  0  0  0  0  0
  160.7060  203.3740  150.5640 C   0  0  1  0  0  3  0  0  0  0  0  0
  161.5460  208.6290  150.4730 C   0  0  2  0  0  3  0  0  0  0  0  0
  160.3070  206.5890  146.5780 C   0  0  0  0  0  2  0  0  0  0  0  0
  160.7340  205.3760  144.7870 C   0  0  0  0  0  1  0  0  0  0  0  0
  160.3590  206.6580  145.1860 O   0  0  0  0  0  0  0  0  0  0  0  0
  1  5  1  6  0  0  0
  1 19  1  0  0  0  0
  1  4  1  0  0  0  0
  2 16  1  6  0  0  0
  2 13  1  0  0  0  0
  2 19  1  0  0  0  0
  3 10  1  0  0  0  0
  4 20  1  0  0  0  0
  6  8  1  0  0  0  0
  7 15  1  0  0  0  0
  7  9  1  0  0  0  0
  8 12  1  0  0  0  0
  9 14  1  0  0  0  0
 10 21  2  0  0  0  0
 11  5  1  0  0  0  0
 11  8  1  0  0  0  0
 12  4  1  0  0  0  0
 12 27  1  0  0  0  0
 13 18  1  0  0  0  0
 15 23  1  0  0  0  0
 17  3  1  0  0  0  0
 18 25  2  0  0  0  0
 19 26  1  0  0  0  0
 20 17  1  0  0  0  0
 20 22  1  0  0  0  0
 22  9  1  0  0  0  0
 22 10  1  0  0  0  0
 23 14  1  0  0  0  0
 26 25  1  0  0  0  0
 26 17  1  0  0  0  0
 27 24  1  0  0  0  0
 27  7  1  0  0  0  0
 28 11  1  0  0  0  0
 29 30  1  0  0  0  0
 30 28  1  0  0  0  0
M  END
>  <MODEL>
2

>  <REMARK>
 VINA RESULT:      -7.5      1.266      1.725
  Name = 
  2 active torsions:
  status: ('A' for Active; 'I' for Inactive)
    1  A    between atoms: C_11  and  C_28
    2  A    between atoms: C_28  and  O_30
                            x       y       z     vdW  Elec       q    Type
                         _______ _______ _______ _____ _____    ______ ____

>  <TORSDO>
F 2

$$$$
=
 OpenBabel11122412353D

 30 35  0  0  1  0  0  0  0  0999 V2000
  161.6290  208.1460  149.3820 C   0  0  1  0  0  3  0  0  0  0  0  0
  161.3140  206.2400  147.6860 C   0  0  2  0  0  3  0  0  0  0  0  0
  160.7430  205.4610  152.6380 C   0  0  0  0  0  2  0  0  0  0  0  0
  161.7840  208.5170  150.8860 C   0  0  1  0  0  3  0  0  0  0  0  0
  162.5860  208.8470  148.6150 O   0  0  0  0  0  0  0  0  0  0  0  0
  161.8350  212.1630  149.9580 O   0  0  0  0  0  1  0  0  0  0  0  0
  160.1980  210.2610  153.1720 C   0  0  1  0  0  3  0  0  0  0  0  0
  162.2630  210.8330  149.9970 C   0  0  2  0  0  3  0  0  0  0  0  0
  160.1430  208.8450  153.7580 C   0  0  2  0  0  3  0  0  0  0  0  0
  160.9020  206.4630  153.7030 C   0  0  0  0  0  0  0  0  0  0  0  0
  162.2360  210.2180  148.5880 C   0  0  2  0  0  3  0  0  0  0  0  0
  161.4080  210.0130  150.9690 C   0  0  2  0  0  3  0  0  0  0  0  0
  161.5690  204.7450  147.4480 C   0  0  0  0  0  2  0  0  0  0  0  0
  160.3570  209.0280  155.2490 C   0  0  0  0  0  2  0  0  0  0  0  0
  160.0180  211.2290  154.3310 C   0  0  0  0  0  2  0  0  0  0  0  0
  162.0260  206.9680  146.7320 O   0  0  0  0  0  1  0  0  0  0  0  0
  161.2630  206.2760  151.4750 C   0  0  2  0  0  3  0  0  0  0  0  0
  161.2540  203.8730  148.6410 C   0  0  0  0  0  3  0  0  0  0  0  0
  161.7350  206.6320  149.1090 C   0  0  2  0  0  3  0  0  0  0  0  0
  160.8950  207.6760  151.7090 N   0  0  1  0  0  0  0  0  0  0  0  0
  160.9140  206.1830  154.8900 O   0  0  0  0  0  0  0  0  0  0  0  0
  161.1310  207.8340  153.1500 C   0  0  1  0  0  3  0  0  0  0  0  0
  159.7760  210.3860  155.5660 C   0  0  0  0  0  2  0  0  0  0  0  0
  162.7730  210.4080  153.1060 C   0  0  0  0  0  1  0  0  0  0  0  0
  160.9730  204.3720  149.8540 C   0  0  0  0  0  3  0  0  0  0  0  0
  160.8450  205.8560  150.0810 C   0  0  1  0  0  3  0  0  0  0  0  0
  161.4520  210.6220  152.3700 C   0  0  2  0  0  3  0  0  0  0  0  0
  160.9270  210.4750  147.8350 C   0  0  0  0  0  2  0  0  0  0  0  0
  159.8420  212.2460  147.0950 C   0  0  0  0  0  1  0  0  0  0  0  0
  161.0670  211.5860  147.0050 O   0  0  0  0  0  0  0  0  0  0  0  0
  1  5  1  6  0  0  0
  1  4  1  0  0  0  0
  2 16  1  6  0  0  0
  2 19  1  0  0  0  0
  3 10  1  0  0  0  0
  4 12  1  0  0  0  0
  4 20  1  0  0  0  0
  6  8  1  0  0  0  0
  7  9  1  0  0  0  0
  7 15  1  0  0  0  0
  8 12  1  0  0  0  0
  9 14  1  0  0  0  0
 10 21  2  0  0  0  0
 11  5  1  0  0  0  0
 11  8  1  0  0  0  0
 12 27  1  0  0  0  0
 13  2  1  0  0  0  0
 13 18  1  0  0  0  0
 14 23  1  0  0  0  0
 15 23  1  0  0  0  0
 17 20  1  0  0  0  0
 17  3  1  0  0  0  0
 18 25  2  0  0  0  0
 19  1  1  0  0  0  0
 19 26  1  0  0  0  0
 20 22  1  0  0  0  0
 22 10  1  0  0  0  0
 22  9  1  0  0  0  0
 25 26  1  0  0  0  0
 26 17  1  0  0  0  0
 27 24  1  0  0  0  0
 27  7  1  0  0  0  0
 28 11  1  0  0  0  0
 30 29  1  0  0  0  0
 30 28  1  0  0  0  0
M  END
>  <MODEL>
3

>  <REMARK>
 VINA RESULT:      -6.0      1.604      2.602
  Name = 
  2 active torsions:
  status: ('A' for Active; 'I' for Inactive)
    1  A    between atoms: C_11  and  C_28
    2  A    between atoms: C_28  and  O_30
                            x       y       z     vdW  Elec       q    Type
                         _______ _______ _______ _____ _____    ______ ____

>  <TORSDO>
F 2

$$$$
=
 OpenBabel11122412353D

 30 35  0  0  1  0  0  0  0  0999 V2000
  161.6100  207.6640  151.5230 C   0  0  1  0  0  3  0  0  0  0  0  0
  161.5490  210.1760  150.9780 C   0  0  2  0  0  3  0  0  0  0  0  0
  161.8890  206.7100  147.3270 C   0  0  0  0  0  2  0  0  0  0  0  0
  161.8750  206.2340  150.9690 C   0  0  1  0  0  3  0  0  0  0  0  0
  162.2430  207.8170  152.7760 O   0  0  0  0  0  0  0  0  0  0  0  0
  160.8810  204.7840  154.2960 O   0  0  0  0  0  1  0  0  0  0  0  0
  160.2380  203.4250  150.5060 C   0  0  1  0  0  3  0  0  0  0  0  0
  161.6290  205.5340  153.3840 C   0  0  2  0  0  3  0  0  0  0  0  0
  160.6220  203.8080  149.0720 C   0  0  2  0  0  3  0  0  0  0  0  0
  161.9390  205.2510  147.5100 C   0  0  0  0  0  0  0  0  0  0  0  0
  161.5610  207.0290  153.7340 C   0  0  2  0  0  3  0  0  0  0  0  0
  161.1520  205.2850  151.9500 C   0  0  2  0  0  3  0  0  0  0  0  0
  162.1330  211.2520  150.0540 C   0  0  0  0  0  2  0  0  0  0  0  0
  160.9900  202.4990  148.3990 C   0  0  0  0  0  2  0  0  0  0  0  0
  159.9860  201.9250  150.5120 C   0  0  0  0  0  2  0  0  0  0  0  0
  161.9150  210.4720  152.2920 O   0  0  0  0  0  1  0  0  0  0  0  0
  162.0190  207.1290  148.7740 C   0  0  2  0  0  3  0  0  0  0  0  0
  162.2170  210.8360  148.6040 C   0  0  0  0  0  3  0  0  0  0  0  0
  162.0520  208.7860  150.5630 C   0  0  2  0  0  3  0  0  0  0  0  0
  161.3490  206.1170  149.5960 N   0  0  1  0  0  0  0  0  0  0  0  0
  162.1860  204.4710  146.6060 O   0  0  0  0  0  0  0  0  0  0  0  0
  161.7370  204.8610  148.9400 C   0  0  1  0  0  3  0  0  0  0  0  0
  160.1380  201.4550  149.0800 C   0  0  0  0  0  2  0  0  0  0  0  0
  162.6600  203.2850  151.3870 C   0  0  0  0  0  1  0  0  0  0  0  0
  161.9920  209.5790  148.1940 C   0  0  0  0  0  3  0  0  0  0  0  0
  161.5290  208.5120  149.1510 C   0  0  1  0  0  3  0  0  0  0  0  0
  161.2370  203.7980  151.6050 C   0  0  2  0  0  3  0  0  0  0  0  0
  160.1370  207.5300  153.9980 C   0  0  0  0  0  2  0  0  0  0  0  0
  159.7890  207.4720  156.1740 C   0  0  0  0  0  1  0  0  0  0  0  0
  160.1210  208.3390  155.1330 O   0  0  0  0  0  0  0  0  0  0  0  0
  1  5  1  1  0  0  0
  2 16  1  1  0  0  0
  3 10  1  0  0  0  0
  3 17  1  0  0  0  0
  4  1  1  0  0  0  0
  4 12  1  0  0  0  0
  5 11  1  0  0  0  0
  7 15  1  0  0  0  0
  7 27  1  0  0  0  0
  8 11  1  0  0  0  0
  8  6  1  0  0  0  0
  9  7  1  0  0  0  0
 10 22  1  0  0  0  0
 11 28  1  0  0  0  0
 12  8  1  0  0  0  0
 13  2  1  0  0  0  0
 14  9  1  0  0  0  0
 14 23  1  0  0  0  0
 17 26  1  0  0  0  0
 17 20  1  0  0  0  0
 18 13  1  0  0  0  0
 19  2  1  0  0  0  0
 19  1  1  0  0  0  0
 20  4  1  0  0  0  0
 21 10  2  0  0  0  0
 22  9  1  0  0  0  0
 22 20  1  0  0  0  0
 23 15  1  0  0  0  0
 24 27  1  0  0  0  0
 25 18  2  0  0  0  0
 25 26  1  0  0  0  0
 26 19  1  0  0  0  0
 27 12  1  0  0  0  0
 28 30  1  0  0  0  0
 30 29  1  0  0  0  0
M  END
>  <MODEL>
4

>  <REMARK>
 VINA RESULT:      -5.9      1.859      7.103
  Name = 
  2 active torsions:
  status: ('A' for Active; 'I' for Inactive)
    1  A    between atoms: C_11  and  C_28
    2  A    between atoms: C_28  and  O_30
                            x       y       z     vdW  Elec       q    Type
                         _______ _______ _______ _____ _____    ______ ____

>  <TORSDO>
F 2

$$$$
