=
 OpenBabel11122412433D

 30 35  0  0  1  0  0  0  0  0999 V2000
  160.3430  205.2190  149.1650 C   0  0  0  0  0  0  0  0  0  0  0  0
  160.4180  202.6730  149.0780 C   0  0  0  0  0  0  0  0  0  0  0  0
  161.8530  205.0030  153.1110 N   0  0  0  0  0  2  0  0  0  0  0  0
  160.6120  206.5170  150.0000 C   0  0  0  0  0  0  0  0  0  0  0  0
  160.8690  205.3420  147.7330 C   0  0  0  0  0  2  0  0  0  0  0  0
  163.6030  207.6540  148.2580 O   0  0  0  0  0  0  0  0  0  0  0  0
  160.7360  209.2470  151.0240 C   0  0  1  0  0  3  0  0  0  0  0  0
  162.5380  207.0010  148.4350 C   0  0  0  0  0  0  0  0  0  0  0  0
  161.2580  208.5500  152.1900 N   0  0  0  0  0  0  0  0  0  0  0  0
  161.8620  206.4010  153.5500 C   0  0  2  0  0  3  0  0  0  0  0  0
  162.3500  205.6850  147.7410 C   0  0  2  0  0  3  0  0  0  0  0  0
  161.5380  207.4720  149.3630 N   0  0  0  0  0  0  0  0  0  0  0  0
  160.7280  201.4270  149.6300 C   0  0  0  0  0  3  0  0  0  0  0  0
  161.6700  209.4880  153.1670 C   0  0  0  0  0  3  0  0  0  0  0  0
  160.8940  210.7320  151.3720 C   0  0  0  0  0  2  0  0  0  0  0  0
  159.8450  202.7110  147.8490 F   0  0  0  0  0  0  0  0  0  0  0  0
  161.3980  204.9580  151.9020 C   0  0  0  0  0  0  0  0  0  0  0  0
  161.2860  201.3380  150.9040 C   0  0  0  0  0  3  0  0  0  0  0  0
  160.6880  203.8610  149.7920 C   0  0  0  0  0  0  0  0  0  0  0  0
  161.0480  206.2490  151.4040 C   0  0  0  0  0  0  0  0  0  0  0  0
  160.9280  206.5680  154.7350 C   0  0  0  0  0  1  0  0  0  0  0  0
  161.3170  207.1260  152.3540 C   0  0  2  0  0  3  0  0  0  0  0  0
  161.4810  210.7240  152.7470 C   0  0  0  0  0  3  0  0  0  0  0  0
  162.0970  209.7350  149.1030 O   0  0  0  0  0  0  0  0  0  0  0  0
  161.5220  202.4970  151.6410 C   0  0  0  0  0  3  0  0  0  0  0  0
  161.2170  203.7520  151.1010 C   0  0  0  0  0  0  0  0  0  0  0  0
  161.5040  208.8530  149.7830 C   0  0  0  0  0  0  0  0  0  0  0  0
  162.8700  205.7420  146.3090 C   0  0  0  0  0  2  0  0  0  0  0  0
  161.5570  205.5240  144.3260 O   0  0  0  0  0  1  0  0  0  0  0  0
  162.0800  204.8110  145.4040 C   0  0  0  0  0  2  0  0  0  0  0  0
  1 19  2  0  0  0  0
  1  4  1  0  0  0  0
  2 13  2  0  0  0  0
  2 19  1  0  0  0  0
  3 10  1  0  0  0  0
  4 20  2  0  0  0  0
  5 11  1  0  0  0  0
  5  1  1  0  0  0  0
  6  8  2  0  0  0  0
  7 15  1  1  0  0  0
  7  9  1  0  0  0  0
  8 12  1  0  0  0  0
  9 22  1  0  0  0  0
  9 14  1  0  0  0  0
 10 21  1  1  0  0  0
 11 28  1  6  0  0  0
 11  8  1  0  0  0  0
 12 27  1  0  0  0  0
 12  4  1  0  0  0  0
 13 18  1  0  0  0  0
 15 23  1  0  0  0  0
 16  2  1  0  0  0  0
 17  3  1  0  0  0  0
 18 25  2  0  0  0  0
 19 26  1  0  0  0  0
 20 17  1  0  0  0  0
 22 20  1  6  0  0  0
 22 10  1  0  0  0  0
 23 14  2  0  0  0  0
 24 27  2  0  0  0  0
 26 25  1  0  0  0  0
 26 17  2  0  0  0  0
 27  7  1  0  0  0  0
 29 30  1  0  0  0  0
 30 28  1  0  0  0  0
M  END
>  <MODEL>
1

>  <REMARK>
 VINA RESULT:      -7.0      0.000      0.000
  Name = 
  2 active torsions:
  status: ('A' for Active; 'I' for Inactive)
    1  A    between atoms: C_11  and  C_28
    2  A    between atoms: C_28  and  C_30
                            x       y       z     vdW  Elec       q    Type
                         _______ _______ _______ _____ _____    ______ ____

>  <TORSDO>
F 2

$$$$
=
 OpenBabel11122412433D

 30 35  0  0  1  0  0  0  0  0999 V2000
  161.0850  210.7330  154.4280 C   0  0  0  0  0  0  0  0  0  0  0  0
  160.5670  209.3430  156.5010 C   0  0  0  0  0  0  0  0  0  0  0  0
  161.0300  207.1550  152.1700 N   0  0  0  0  0  2  0  0  0  0  0  0
  161.3410  210.7480  152.8820 C   0  0  0  0  0  0  0  0  0  0  0  0
  160.1220  211.8410  154.8580 C   0  0  0  0  0  2  0  0  0  0  0  0
  158.1620  212.1860  151.8360 O   0  0  0  0  0  0  0  0  0  0  0  0
  162.0320  211.4530  150.1370 C   0  0  1  0  0  3  0  0  0  0  0  0
  159.0990  211.8870  152.6260 C   0  0  0  0  0  0  0  0  0  0  0  0
  161.8420  210.0220  149.9550 N   0  0  0  0  0  0  0  0  0  0  0  0
  161.4040  207.5950  150.8240 C   0  0  2  0  0  3  0  0  0  0  0  0
  158.8140  211.7330  154.0900 C   0  0  2  0  0  3  0  0  0  0  0  0
  160.4220  211.6130  152.1200 N   0  0  0  0  0  0  0  0  0  0  0  0
  160.2680  208.1340  157.1340 C   0  0  0  0  0  3  0  0  0  0  0  0
  161.9560  209.6910  148.5840 C   0  0  0  0  0  3  0  0  0  0  0  0
  162.2520  211.9850  148.7160 C   0  0  0  0  0  2  0  0  0  0  0  0
  160.6750  210.4610  157.2610 F   0  0  0  0  0  0  0  0  0  0  0  0
  161.0210  208.1870  152.9490 C   0  0  0  0  0  0  0  0  0  0  0  0
  160.1810  206.9530  156.3970 C   0  0  0  0  0  3  0  0  0  0  0  0
  160.7620  209.3920  155.1030 C   0  0  0  0  0  0  0  0  0  0  0  0
  161.3830  209.3870  152.2670 C   0  0  0  0  0  0  0  0  0  0  0  0
  162.7060  206.9300  150.4150 C   0  0  0  0  0  1  0  0  0  0  0  0
  161.6100  209.0710  151.0040 C   0  0  2  0  0  3  0  0  0  0  0  0
  162.1870  210.7650  147.8540 C   0  0  0  0  0  3  0  0  0  0  0  0
  160.1880  212.9920  150.2370 O   0  0  0  0  0  0  0  0  0  0  0  0
  160.4110  206.9750  155.0220 C   0  0  0  0  0  3  0  0  0  0  0  0
  160.7110  208.1790  154.3750 C   0  0  0  0  0  0  0  0  0  0  0  0
  160.8270  212.0670  150.8110 C   0  0  0  0  0  0  0  0  0  0  0  0
  157.8450  212.8050  154.5760 C   0  0  0  0  0  2  0  0  0  0  0  0
  156.6740  210.8850  155.3810 O   0  0  0  0  0  1  0  0  0  0  0  0
  156.5020  212.1980  154.9480 C   0  0  0  0  0  2  0  0  0  0  0  0
  1  5  1  0  0  0  0
  1 19  1  0  0  0  0
  2 13  1  0  0  0  0
  2 16  1  0  0  0  0
  3 17  1  0  0  0  0
  4  1  2  0  0  0  0
  6  8  2  0  0  0  0
  7 15  1  6  0  0  0
  7 27  1  0  0  0  0
  8 11  1  0  0  0  0
  9  7  1  0  0  0  0
  9 22  1  0  0  0  0
 10 21  1  1  0  0  0
 10 22  1  0  0  0  0
 10  3  1  0  0  0  0
 11 28  1  1  0  0  0
 11  5  1  0  0  0  0
 12  8  1  0  0  0  0
 12  4  1  0  0  0  0
 14  9  1  0  0  0  0
 17 26  1  0  0  0  0
 18 13  2  0  0  0  0
 19  2  2  0  0  0  0
 20  4  1  0  0  0  0
 20 17  2  0  0  0  0
 22 20  1  6  0  0  0
 23 14  2  0  0  0  0
 23 15  1  0  0  0  0
 24 27  2  0  0  0  0
 25 18  1  0  0  0  0
 26 25  2  0  0  0  0
 26 19  1  0  0  0  0
 27 12  1  0  0  0  0
 28 30  1  0  0  0  0
 30 29  1  0  0  0  0
M  END
>  <MODEL>
2

>  <REMARK>
 VINA RESULT:      -6.0      4.349      7.313
  Name = 
  2 active torsions:
  status: ('A' for Active; 'I' for Inactive)
    1  A    between atoms: C_11  and  C_28
    2  A    between atoms: C_28  and  C_30
                            x       y       z     vdW  Elec       q    Type
                         _______ _______ _______ _____ _____    ______ ____

>  <TORSDO>
F 2

$$$$
=
 OpenBabel11122412433D

 30 35  0  0  1  0  0  0  0  0999 V2000
  159.2280  211.0360  153.2690 C   0  0  0  0  0  0  0  0  0  0  0  0
  158.8780  213.4080  152.4020 C   0  0  0  0  0  0  0  0  0  0  0  0
  161.9010  210.3920  150.0530 N   0  0  0  0  0  2  0  0  0  0  0  0
  159.9540  209.6600  153.0830 C   0  0  0  0  0  0  0  0  0  0  0  0
  159.2660  211.5100  154.7230 C   0  0  0  0  0  2  0  0  0  0  0  0
  162.3410  209.9500  155.8190 O   0  0  0  0  0  0  0  0  0  0  0  0
  160.8260  206.8800  153.2340 C   0  0  1  0  0  3  0  0  0  0  0  0
  161.3070  210.2120  155.1460 C   0  0  0  0  0  0  0  0  0  0  0  0
  161.5900  207.2860  152.0640 N   0  0  0  0  0  0  0  0  0  0  0  0
  162.2690  208.9810  150.1920 C   0  0  2  0  0  3  0  0  0  0  0  0
  160.7010  211.5820  155.2190 C   0  0  2  0  0  3  0  0  0  0  0  0
  160.7530  209.2300  154.2450 N   0  0  0  0  0  0  0  0  0  0  0  0
  159.1570  214.4530  151.5180 C   0  0  0  0  0  3  0  0  0  0  0  0
  162.4390  206.2320  151.6520 C   0  0  0  0  0  3  0  0  0  0  0  0
  161.3170  205.4560  153.5250 C   0  0  0  0  0  2  0  0  0  0  0  0
  157.9460  213.6080  153.3670 F   0  0  0  0  0  0  0  0  0  0  0  0
  161.0720  210.6930  150.9980 C   0  0  0  0  0  0  0  0  0  0  0  0
  160.0830  214.2810  150.4900 C   0  0  0  0  0  3  0  0  0  0  0  0
  159.5470  212.1700  152.2830 C   0  0  0  0  0  0  0  0  0  0  0  0
  160.7810  209.5790  151.8410 C   0  0  0  0  0  0  0  0  0  0  0  0
  161.8150  208.2130  148.9640 C   0  0  0  0  0  1  0  0  0  0  0  0
  161.4800  208.5510  151.3940 C   0  0  2  0  0  3  0  0  0  0  0  0
  162.3150  205.1850  152.4450 C   0  0  0  0  0  3  0  0  0  0  0  0
  161.5370  207.3910  155.4730 O   0  0  0  0  0  0  0  0  0  0  0  0
  160.7240  213.0540  150.3320 C   0  0  0  0  0  3  0  0  0  0  0  0
  160.4550  211.9980  151.2100 C   0  0  0  0  0  0  0  0  0  0  0  0
  161.0720  207.8290  154.3840 C   0  0  0  0  0  0  0  0  0  0  0  0
  160.7230  212.1150  156.6470 C   0  0  0  0  0  2  0  0  0  0  0  0
  159.8790  214.3490  156.6940 O   0  0  0  0  0  1  0  0  0  0  0  0
  159.5280  213.0170  156.9120 C   0  0  0  0  0  2  0  0  0  0  0  0
  1  5  1  0  0  0  0
  2 16  1  0  0  0  0
  3 10  1  0  0  0  0
  3 17  1  0  0  0  0
  4  1  1  0  0  0  0
  4 12  1  0  0  0  0
  5 11  1  0  0  0  0
  7 15  1  1  0  0  0
  7 27  1  0  0  0  0
  8 11  1  0  0  0  0
  8  6  2  0  0  0  0
  9  7  1  0  0  0  0
 10 21  1  6  0  0  0
 10 22  1  0  0  0  0
 11 28  1  1  0  0  0
 12 27  1  0  0  0  0
 12  8  1  0  0  0  0
 13  2  2  0  0  0  0
 14  9  1  0  0  0  0
 14 23  2  0  0  0  0
 17 26  2  0  0  0  0
 17 20  1  0  0  0  0
 18 13  1  0  0  0  0
 19  2  1  0  0  0  0
 19  1  2  0  0  0  0
 20  4  2  0  0  0  0
 22 20  1  1  0  0  0
 22  9  1  0  0  0  0
 23 15  1  0  0  0  0
 25 18  2  0  0  0  0
 25 26  1  0  0  0  0
 26 19  1  0  0  0  0
 27 24  2  0  0  0  0
 28 30  1  0  0  0  0
 29 30  1  0  0  0  0
M  END
>  <MODEL>
3

>  <REMARK>
 VINA RESULT:      -5.9      4.386      8.525
  Name = 
  2 active torsions:
  status: ('A' for Active; 'I' for Inactive)
    1  A    between atoms: C_11  and  C_28
    2  A    between atoms: C_28  and  C_30
                            x       y       z     vdW  Elec       q    Type
                         _______ _______ _______ _____ _____    ______ ____

>  <TORSDO>
F 2

$$$$
=
 OpenBabel11122412433D

 30 35  0  0  1  0  0  0  0  0999 V2000
  160.4570  206.9980  150.6270 C   0  0  0  0  0  0  0  0  0  0  0  0
  161.0980  209.4660  150.6090 C   0  0  0  0  0  0  0  0  0  0  0  0
  162.6060  206.5440  147.0110 N   0  0  0  0  0  2  0  0  0  0  0  0
  160.5560  205.6060  149.9150 C   0  0  0  0  0  0  0  0  0  0  0  0
  160.6970  206.8870  152.1340 C   0  0  0  0  0  2  0  0  0  0  0  0
  162.8780  204.0000  152.2170 O   0  0  0  0  0  0  0  0  0  0  0  0
  160.2190  202.8380  149.0570 C   0  0  1  0  0  3  0  0  0  0  0  0
  162.0340  204.8520  151.8210 C   0  0  0  0  0  0  0  0  0  0  0  0
  161.0710  203.3020  147.9730 N   0  0  0  0  0  0  0  0  0  0  0  0
  162.3670  205.1450  146.6460 C   0  0  2  0  0  3  0  0  0  0  0  0
  162.0410  206.2310  152.4090 C   0  0  2  0  0  3  0  0  0  0  0  0
  161.1200  204.5320  150.7520 N   0  0  0  0  0  0  0  0  0  0  0  0
  161.7710  210.5630  150.0650 C   0  0  0  0  0  3  0  0  0  0  0  0
  161.4130  202.2180  147.1300 C   0  0  0  0  0  3  0  0  0  0  0  0
  160.0880  201.3300  148.8120 C   0  0  0  0  0  2  0  0  0  0  0  0
  160.3360  209.6570  151.7150 F   0  0  0  0  0  0  0  0  0  0  0  0
  161.9800  206.7890  148.1150 C   0  0  0  0  0  0  0  0  0  0  0  0
  162.5370  210.4190  148.9090 C   0  0  0  0  0  3  0  0  0  0  0  0
  161.2020  208.1910  150.0100 C   0  0  0  0  0  0  0  0  0  0  0  0
  161.2670  205.6530  148.6010 C   0  0  0  0  0  0  0  0  0  0  0  0
  161.6280  205.0840  145.3210 C   0  0  0  0  0  1  0  0  0  0  0  0
  161.4810  204.6600  147.7560 C   0  0  2  0  0  3  0  0  0  0  0  0
  160.8800  201.0920  147.5650 C   0  0  0  0  0  3  0  0  0  0  0  0
  161.0960  202.2310  151.2120 O   0  0  0  0  0  0  0  0  0  0  0  0
  162.6190  209.1770  148.2810 C   0  0  0  0  0  3  0  0  0  0  0  0
  161.9510  208.0700  148.8140 C   0  0  0  0  0  0  0  0  0  0  0  0
  160.8410  203.1600  150.3960 C   0  0  0  0  0  0  0  0  0  0  0  0
  162.2910  206.1850  153.9120 C   0  0  0  0  0  2  0  0  0  0  0  0
  161.5120  207.8230  155.4670 O   0  0  0  0  0  1  0  0  0  0  0  0
  161.1050  206.7450  154.6800 C   0  0  0  0  0  2  0  0  0  0  0  0
  1  5  1  0  0  0  0
  2 16  1  0  0  0  0
  3 17  1  0  0  0  0
  4  1  2  0  0  0  0
  4 12  1  0  0  0  0
  5 11  1  0  0  0  0
  7 15  1  6  0  0  0
  7 27  1  0  0  0  0
  8  6  2  0  0  0  0
  8 11  1  0  0  0  0
  9  7  1  0  0  0  0
 10 21  1  6  0  0  0
 10  3  1  0  0  0  0
 10 22  1  0  0  0  0
 11 28  1  1  0  0  0
 12  8  1  0  0  0  0
 13  2  1  0  0  0  0
 14 23  2  0  0  0  0
 14  9  1  0  0  0  0
 17 20  2  0  0  0  0
 17 26  1  0  0  0  0
 18 13  2  0  0  0  0
 19  2  2  0  0  0  0
 19  1  1  0  0  0  0
 20  4  1  0  0  0  0
 22  9  1  0  0  0  0
 22 20  1  1  0  0  0
 23 15  1  0  0  0  0
 25 26  2  0  0  0  0
 25 18  1  0  0  0  0
 26 19  1  0  0  0  0
 27 12  1  0  0  0  0
 27 24  2  0  0  0  0
 28 30  1  0  0  0  0
 30 29  1  0  0  0  0
M  END
>  <MODEL>
4

>  <REMARK>
 VINA RESULT:      -5.7      2.944      7.061
  Name = 
  2 active torsions:
  status: ('A' for Active; 'I' for Inactive)
    1  A    between atoms: C_11  and  C_28
    2  A    between atoms: C_28  and  C_30
                            x       y       z     vdW  Elec       q    Type
                         _______ _______ _______ _____ _____    ______ ____

>  <TORSDO>
F 2

$$$$
=
 OpenBabel11122412433D

 30 35  0  0  1  0  0  0  0  0999 V2000
  162.3130  210.0680  150.9490 C   0  0  0  0  0  0  0  0  0  0  0  0
  162.0050  211.6310  148.9590 C   0  0  0  0  0  0  0  0  0  0  0  0
  159.1970  212.1540  152.9090 N   0  0  0  0  0  2  0  0  0  0  0  0
  161.8460  209.6590  152.3870 C   0  0  0  0  0  0  0  0  0  0  0  0
  162.4930  208.8510  150.0390 C   0  0  0  0  0  2  0  0  0  0  0  0
  160.0810  206.5930  151.5170 O   0  0  0  0  0  0  0  0  0  0  0  0
  161.5810  208.5030  155.0530 C   0  0  1  0  0  3  0  0  0  0  0  0
  160.8790  207.5590  151.3650 C   0  0  0  0  0  0  0  0  0  0  0  0
  160.5230  209.4990  155.1390 N   0  0  0  0  0  0  0  0  0  0  0  0
  159.1480  211.5290  154.2330 C   0  0  2  0  0  3  0  0  0  0  0  0
  161.2090  208.0380  149.9830 C   0  0  2  0  0  3  0  0  0  0  0  0
  161.4090  208.2560  152.5110 N   0  0  0  0  0  0  0  0  0  0  0  0
  161.3480  212.6710  148.2960 C   0  0  0  0  0  3  0  0  0  0  0  0
  159.8270  209.3580  156.3630 C   0  0  0  0  0  3  0  0  0  0  0  0
  161.4490  207.7020  156.3540 C   0  0  0  0  0  2  0  0  0  0  0  0
  163.0630  211.0420  148.3500 F   0  0  0  0  0  0  0  0  0  0  0  0
  160.1330  211.5840  152.2230 C   0  0  0  0  0  0  0  0  0  0  0  0
  160.2770  213.3280  148.8990 C   0  0  0  0  0  3  0  0  0  0  0  0
  161.5790  211.2150  150.2400 C   0  0  0  0  0  0  0  0  0  0  0  0
  160.8060  210.5660  152.9620 C   0  0  0  0  0  0  0  0  0  0  0  0
  159.4720  212.5620  155.2960 C   0  0  0  0  0  1  0  0  0  0  0  0
  160.2420  210.5040  154.1550 C   0  0  2  0  0  3  0  0  0  0  0  0
  160.3170  208.3610  157.0760 C   0  0  0  0  0  3  0  0  0  0  0  0
  161.2740  206.3970  153.9350 O   0  0  0  0  0  0  0  0  0  0  0  0
  159.8680  212.9590  150.1790 C   0  0  0  0  0  3  0  0  0  0  0  0
  160.5160  211.9200  150.8560 C   0  0  0  0  0  0  0  0  0  0  0  0
  161.4050  207.6470  153.8200 C   0  0  0  0  0  0  0  0  0  0  0  0
  161.3860  206.8660  149.0240 C   0  0  0  0  0  2  0  0  0  0  0  0
  162.3310  206.2160  146.9290 O   0  0  0  0  0  1  0  0  0  0  0  0
  162.3310  207.2270  147.8890 C   0  0  0  0  0  2  0  0  0  0  0  0
  1  4  1  0  0  0  0
  2 19  1  0  0  0  0
  3 10  1  0  0  0  0
  4 12  1  0  0  0  0
  4 20  2  0  0  0  0
  5  1  1  0  0  0  0
  7  9  1  0  0  0  0
  7 15  1  1  0  0  0
  8  6  2  0  0  0  0
  8 12  1  0  0  0  0
  9 14  1  0  0  0  0
 10 21  1  1  0  0  0
 11 28  1  6  0  0  0
 11  5  1  0  0  0  0
 11  8  1  0  0  0  0
 12 27  1  0  0  0  0
 13 18  1  0  0  0  0
 13  2  2  0  0  0  0
 14 23  2  0  0  0  0
 15 23  1  0  0  0  0
 16  2  1  0  0  0  0
 17  3  1  0  0  0  0
 17 20  1  0  0  0  0
 18 25  2  0  0  0  0
 19 26  1  0  0  0  0
 19  1  2  0  0  0  0
 22 20  1  6  0  0  0
 22 10  1  0  0  0  0
 22  9  1  0  0  0  0
 25 26  1  0  0  0  0
 26 17  2  0  0  0  0
 27 24  2  0  0  0  0
 27  7  1  0  0  0  0
 29 30  1  0  0  0  0
 30 28  1  0  0  0  0
M  END
>  <MODEL>
5

>  <REMARK>
 VINA RESULT:      -5.3      3.246      6.328
  Name = 
  2 active torsions:
  status: ('A' for Active; 'I' for Inactive)
    1  A    between atoms: C_11  and  C_28
    2  A    between atoms: C_28  and  C_30
                            x       y       z     vdW  Elec       q    Type
                         _______ _______ _______ _____ _____    ______ ____

>  <TORSDO>
F 2

$$$$
=
 OpenBabel11122412433D

 30 35  0  0  1  0  0  0  0  0999 V2000
  160.2730  203.8370  146.9780 C   0  0  0  0  0  0  0  0  0  0  0  0
  160.4260  201.5510  145.8600 C   0  0  0  0  0  0  0  0  0  0  0  0
  161.8780  202.0890  150.4820 N   0  0  0  0  0  2  0  0  0  0  0  0
  160.5210  204.6920  148.2680 C   0  0  0  0  0  0  0  0  0  0  0  0
  160.7630  204.5510  145.7170 C   0  0  0  0  0  2  0  0  0  0  0  0
  163.4350  206.5500  147.1170 O   0  0  0  0  0  0  0  0  0  0  0  0
  160.5830  206.7700  150.3140 C   0  0  1  0  0  3  0  0  0  0  0  0
  162.3950  205.8420  147.0210 C   0  0  0  0  0  0  0  0  0  0  0  0
  161.1520  205.6800  151.0910 N   0  0  0  0  0  0  0  0  0  0  0  0
  161.8530  203.1870  151.4520 C   0  0  2  0  0  3  0  0  0  0  0  0
  162.2330  204.9170  145.8530 C   0  0  2  0  0  3  0  0  0  0  0  0
  161.4020  205.8570  148.0680 N   0  0  0  0  0  0  0  0  0  0  0  0
  160.7860  200.2010  145.8540 C   0  0  0  0  0  3  0  0  0  0  0  0
  161.5570  206.1530  152.3620 C   0  0  0  0  0  3  0  0  0  0  0  0
  160.7030  207.9900  151.2360 C   0  0  0  0  0  2  0  0  0  0  0  0
  159.8240  202.0650  144.7590 F   0  0  0  0  0  0  0  0  0  0  0  0
  161.3970  202.5240  149.3630 C   0  0  0  0  0  0  0  0  0  0  0  0
  161.3760  199.6220  146.9770 C   0  0  0  0  0  3  0  0  0  0  0  0
  160.6750  202.3540  146.9940 C   0  0  0  0  0  0  0  0  0  0  0  0
  160.9970  203.8910  149.4370 C   0  0  0  0  0  0  0  0  0  0  0  0
  160.9410  202.8220  152.6100 C   0  0  0  0  0  1  0  0  0  0  0  0
  161.2600  204.3150  150.6600 C   0  0  2  0  0  3  0  0  0  0  0  0
  161.3200  207.4450  152.4850 C   0  0  0  0  0  3  0  0  0  0  0  0
  161.8850  208.0490  148.7490 O   0  0  0  0  0  0  0  0  0  0  0  0
  161.5920  200.3890  148.1200 C   0  0  0  0  0  3  0  0  0  0  0  0
  161.2360  201.7420  148.1410 C   0  0  0  0  0  0  0  0  0  0  0  0
  161.3340  206.9450  149.0150 C   0  0  0  0  0  0  0  0  0  0  0  0
  162.7180  205.5710  144.5640 C   0  0  0  0  0  2  0  0  0  0  0  0
  162.0010  205.9740  142.3210 O   0  0  0  0  0  1  0  0  0  0  0  0
  161.5540  205.8870  143.6390 C   0  0  0  0  0  2  0  0  0  0  0  0
  1 19  2  0  0  0  0
  1  4  1  0  0  0  0
  2 19  1  0  0  0  0
  3 10  1  0  0  0  0
  4 20  2  0  0  0  0
  5 11  1  0  0  0  0
  5  1  1  0  0  0  0
  7  9  1  0  0  0  0
  7 15  1  1  0  0  0
  8  6  2  0  0  0  0
  8 12  1  0  0  0  0
  9 14  1  0  0  0  0
 10 21  1  1  0  0  0
 11 28  1  6  0  0  0
 11  8  1  0  0  0  0
 12  4  1  0  0  0  0
 12 27  1  0  0  0  0
 13  2  2  0  0  0  0
 13 18  1  0  0  0  0
 14 23  2  0  0  0  0
 15 23  1  0  0  0  0
 16  2  1  0  0  0  0
 17 20  1  0  0  0  0
 17  3  1  0  0  0  0
 18 25  2  0  0  0  0
 19 26  1  0  0  0  0
 22 20  1  6  0  0  0
 22  9  1  0  0  0  0
 22 10  1  0  0  0  0
 24 27  2  0  0  0  0
 25 26  1  0  0  0  0
 26 17  2  0  0  0  0
 27  7  1  0  0  0  0
 29 30  1  0  0  0  0
 30 28  1  0  0  0  0
M  END
>  <MODEL>
6

>  <REMARK>
 VINA RESULT:      -4.3      1.959      3.025
  Name = 
  2 active torsions:
  status: ('A' for Active; 'I' for Inactive)
    1  A    between atoms: C_11  and  C_28
    2  A    between atoms: C_28  and  C_30
                            x       y       z     vdW  Elec       q    Type
                         _______ _______ _______ _____ _____    ______ ____

>  <TORSDO>
F 2

$$$$
=
 OpenBabel11122412433D

 30 35  0  0  1  0  0  0  0  0999 V2000
  160.5050  211.4580  140.9120 C   0  0  0  0  0  0  0  0  0  0  0  0
  161.6310  211.3920  138.6260 C   0  0  0  0  0  0  0  0  0  0  0  0
  163.4520  214.2340  142.1410 N   0  0  0  0  0  2  0  0  0  0  0  0
  160.5000  212.0540  142.3610 C   0  0  0  0  0  0  0  0  0  0  0  0
  159.1080  211.4580  140.2890 C   0  0  0  0  0  2  0  0  0  0  0  0
  157.6530  214.2990  141.9960 O   0  0  0  0  0  0  0  0  0  0  0  0
  160.0070  212.6400  145.1760 C   0  0  1  0  0  3  0  0  0  0  0  0
  158.4180  213.3350  141.7150 C   0  0  0  0  0  0  0  0  0  0  0  0
  161.1590  213.5050  144.9700 N   0  0  0  0  0  0  0  0  0  0  0  0
  163.1440  214.4530  143.5570 C   0  0  2  0  0  3  0  0  0  0  0  0
  158.5260  212.8630  140.2960 C   0  0  2  0  0  3  0  0  0  0  0  0
  159.2490  212.7400  142.7330 N   0  0  0  0  0  0  0  0  0  0  0  0
  162.5960  211.8220  137.7120 C   0  0  0  0  0  3  0  0  0  0  0  0
  161.4030  214.2700  146.1360 C   0  0  0  0  0  3  0  0  0  0  0  0
  159.5400  212.9710  146.5990 C   0  0  0  0  0  2  0  0  0  0  0  0
  160.7560  210.4300  138.2380 F   0  0  0  0  0  0  0  0  0  0  0  0
  162.6000  213.3860  141.6660 C   0  0  0  0  0  0  0  0  0  0  0  0
  163.5360  212.7840  138.0780 C   0  0  0  0  0  3  0  0  0  0  0  0
  161.5770  211.9420  139.9250 C   0  0  0  0  0  0  0  0  0  0  0  0
  161.6690  212.9400  142.6500 C   0  0  0  0  0  0  0  0  0  0  0  0
  164.3150  213.9970  144.4090 C   0  0  0  0  0  1  0  0  0  0  0  0
  161.9610  213.5580  143.7810 C   0  0  2  0  0  3  0  0  0  0  0  0
  160.5170  213.9990  147.0750 C   0  0  0  0  0  3  0  0  0  0  0  0
  157.7900  213.2690  144.4930 O   0  0  0  0  0  0  0  0  0  0  0  0
  163.5250  213.3090  139.3690 C   0  0  0  0  0  3  0  0  0  0  0  0
  162.5640  212.8880  140.2950 C   0  0  0  0  0  0  0  0  0  0  0  0
  158.9460  212.9120  144.1350 C   0  0  0  0  0  0  0  0  0  0  0  0
  157.1610  212.8560  139.6160 C   0  0  0  0  0  2  0  0  0  0  0  0
  155.3570  211.3030  139.4160 O   0  0  0  0  0  1  0  0  0  0  0  0
  156.7360  211.4400  139.2610 C   0  0  0  0  0  2  0  0  0  0  0  0
  1  4  1  0  0  0  0
  2 19  1  0  0  0  0
  3 10  1  0  0  0  0
  4 20  2  0  0  0  0
  4 12  1  0  0  0  0
  5 11  1  0  0  0  0
  5  1  1  0  0  0  0
  7 15  1  1  0  0  0
  8  6  2  0  0  0  0
  8 12  1  0  0  0  0
  9  7  1  0  0  0  0
  9 14  1  0  0  0  0
 10 22  1  0  0  0  0
 10 21  1  1  0  0  0
 11 28  1  1  0  0  0
 11  8  1  0  0  0  0
 12 27  1  0  0  0  0
 13 18  1  0  0  0  0
 13  2  2  0  0  0  0
 14 23  2  0  0  0  0
 15 23  1  0  0  0  0
 16  2  1  0  0  0  0
 17  3  1  0  0  0  0
 17 20  1  0  0  0  0
 18 25  2  0  0  0  0
 19 26  1  0  0  0  0
 19  1  2  0  0  0  0
 22 20  1  6  0  0  0
 22  9  1  0  0  0  0
 25 26  1  0  0  0  0
 26 17  2  0  0  0  0
 27 24  2  0  0  0  0
 27  7  1  0  0  0  0
 30 29  1  0  0  0  0
 30 28  1  0  0  0  0
M  END
>  <MODEL>
7

>  <REMARK>
 VINA RESULT:      -4.1      9.015     11.423
  Name = 
  2 active torsions:
  status: ('A' for Active; 'I' for Inactive)
    1  A    between atoms: C_11  and  C_28
    2  A    between atoms: C_28  and  C_30
                            x       y       z     vdW  Elec       q    Type
                         _______ _______ _______ _____ _____    ______ ____

>  <TORSDO>
F 2

$$$$
