=
 OpenBabel11122413443D

 37 44  0  0  1  0  0  0  0  0999 V2000
  160.6530  210.2120  147.6850 C   0  0  0  0  0  2  0  0  0  0  0  0
  162.3770  205.4850  146.4050 C   0  0  1  0  0  0  0  0  0  0  0  0
  160.6570  206.6780  150.1050 C   0  0  1  0  0  3  0  0  0  0  0  0
  160.9510  211.4500  146.8230 C   0  0  2  0  0  3  0  0  0  0  0  0
  162.4300  209.8220  151.2770 C   0  0  0  0  0  2  0  0  0  0  0  0
  161.6470  204.9050  148.5310 C   0  0  1  0  0  3  0  0  0  0  0  0
  161.1010  208.0970  150.1250 N   0  0  1  0  0  0  0  0  0  0  0  0
  161.6050  212.9780  148.7700 C   0  0  0  0  0  0  0  0  0  0  0  0
  160.8340  206.1910  148.6650 C   0  0  2  0  0  3  0  0  0  0  0  0
  161.8200  208.4550  151.3270 N   0  0  2  0  0  0  0  0  0  0  0  0
  161.0050  203.8440  149.3850 C   0  0  0  0  0  2  0  0  0  0  0  0
  160.8610  212.7070  147.5760 N   0  0  0  0  0  2  0  0  0  0  0  0
  161.4140  207.2840  147.8810 N   0  0  2  0  0  0  0  0  0  0  0  0
  161.6350  205.6970  145.1010 C   0  0  0  0  0  1  0  0  0  0  0  0
  160.5890  205.9150  152.5170 C   0  0  0  0  0  2  0  0  0  0  0  0
  161.1270  204.2190  150.8610 C   0  0  0  0  0  2  0  0  0  0  0  0
  162.5760  206.8680  147.0780 C   0  0  0  0  0  2  0  0  0  0  0  0
  162.1010  211.8800  149.5140 N   0  0  0  0  0  0  0  0  0  0  0  0
  161.6600  210.6770  150.3110 C   0  0  1  0  0  3  0  0  0  0  0  0
  161.2770  205.7230  151.1760 C   0  0  1  0  0  3  0  0  0  0  0  0
  161.9060  208.2220  148.8780 C   0  0  1  0  0  3  0  0  0  0  0  0
  161.6580  204.5290  147.1780 O   0  0  0  0  0  0  0  0  0  0  0  0
  160.8640  208.3650  152.4640 C   0  0  1  0  0  3  0  0  0  0  0  0
  163.6240  204.9670  146.1080 F   0  0  0  0  0  0  0  0  0  0  0  0
  162.6120  210.5170  149.3370 C   0  0  1  0  0  3  0  0  0  0  0  0
  161.5230  214.4530  149.4600 S   0  0  0  0  0  0  0  0  0  0  0  0
  161.9610  209.6540  148.2830 C   0  0  2  0  0  3  0  0  0  0  0  0
  161.1380  207.1080  153.2610 C   0  0  0  0  0  2  0  0  0  0  0  0
  159.7360  210.5060  153.1290 C   0  0  0  0  0  3  0  0  0  0  0  0
  160.7390  209.5620  153.3790 C   0  0  0  0  0  0  0  0  0  0  0  0
  161.6230  209.7600  154.4530 C   0  0  0  0  0  3  0  0  0  0  0  0
  162.3500  211.0740  156.3030 F   0  0  0  0  0  0  0  0  0  0  0  0
  160.4920  211.8250  155.0140 C   0  0  0  0  0  3  0  0  0  0  0  0
  161.4970  210.8870  155.2690 C   0  0  0  0  0  0  0  0  0  0  0  0
  159.6130  211.6350  153.9440 C   0  0  0  0  0  3  0  0  0  0  0  0
  159.0320  212.4990  145.8650 O   0  0  0  0  0  1  0  0  0  0  0  0
  159.9890  211.5060  145.6500 C   0  0  0  0  0  2  0  0  0  0  0  0
  1 27  1  0  0  0  0
  2 14  1  6  0  0  0
  2 17  1  0  0  0  0
  2 22  1  0  0  0  0
  3  7  1  0  0  0  0
  3 20  1  0  0  0  0
  4 12  1  0  0  0  0
  4  1  1  0  0  0  0
  5 10  1  0  0  0  0
  6  9  1  0  0  0  0
  6 11  1  0  0  0  0
  7 10  1  0  0  0  0
  8 26  2  0  0  0  0
  8 18  1  0  0  0  0
  9  3  1  0  0  0  0
 10 23  1  0  0  0  0
 11 16  1  0  0  0  0
 12  8  1  0  0  0  0
 13  9  1  0  0  0  0
 13 21  1  0  0  0  0
 15 28  1  0  0  0  0
 16 20  1  0  0  0  0
 17 13  1  0  0  0  0
 18 19  1  0  0  0  0
 19  5  1  0  0  0  0
 20 15  1  0  0  0  0
 21  7  1  0  0  0  0
 22  6  1  0  0  0  0
 23 28  1  0  0  0  0
 23 30  1  0  0  0  0
 24  2  1  0  0  0  0
 25 18  1  0  0  0  0
 25 19  1  0  0  0  0
 27 21  1  0  0  0  0
 27 25  1  0  0  0  0
 29 30  2  0  0  0  0
 29 35  1  0  0  0  0
 30 31  1  0  0  0  0
 31 34  2  0  0  0  0
 33 34  1  0  0  0  0
 34 32  1  0  0  0  0
 35 33  2  0  0  0  0
 37 36  1  0  0  0  0
 37  4  1  0  0  0  0
M  END
>  <MODEL>
1

>  <REMARK>
 VINA RESULT:      -5.7      0.000      0.000
  Name = 
  2 active torsions:
  status: ('A' for Active; 'I' for Inactive)
    1  A    between atoms: CA_4  and  C_37
    2  A    between atoms: C_23  and  C_30
                            x       y       z     vdW  Elec       q    Type
                         _______ _______ _______ _____ _____    ______ ____

>  <TORSDO>
F 2

$$$$
=
 OpenBabel11122413443D

 37 44  0  0  1  0  0  0  0  0999 V2000
  160.5020  207.0420  150.9960 C   0  0  0  0  0  2  0  0  0  0  0  0
  160.9320  208.3610  156.0000 C   0  0  1  0  0  0  0  0  0  0  0  0
  159.7500  210.8650  152.7740 C   0  0  1  0  0  3  0  0  0  0  0  0
  161.0550  205.7130  150.4530 C   0  0  2  0  0  3  0  0  0  0  0  0
  162.3040  210.4990  149.9920 C   0  0  0  0  0  2  0  0  0  0  0  0
  160.1880  210.4350  155.2690 C   0  0  1  0  0  3  0  0  0  0  0  0
  160.5320  210.2280  151.6820 N   0  0  1  0  0  0  0  0  0  0  0  0
  162.1640  206.7180  148.3760 C   0  0  0  0  0  0  0  0  0  0  0  0
  159.7270  209.8620  153.9300 C   0  0  2  0  0  3  0  0  0  0  0  0
  161.3770  211.1580  150.9670 N   0  0  2  0  0  0  0  0  0  0  0  0
  159.3460  211.6420  155.5860 C   0  0  0  0  0  2  0  0  0  0  0  0
  161.3180  205.7510  149.0090 N   0  0  0  0  0  2  0  0  0  0  0  0
  160.5210  208.6940  153.5370 N   0  0  2  0  0  0  0  0  0  0  0  0
  160.2020  207.0630  156.2820 C   0  0  0  0  0  1  0  0  0  0  0  0
  159.6140  213.3300  152.2170 C   0  0  0  0  0  2  0  0  0  0  0  0
  159.6310  212.7550  154.5780 C   0  0  0  0  0  2  0  0  0  0  0  0
  161.5010  208.2910  154.5590 C   0  0  0  0  0  2  0  0  0  0  0  0
  162.4080  207.9380  149.0510 N   0  0  0  0  0  0  0  0  0  0  0  0
  161.7230  209.1820  149.5630 C   0  0  1  0  0  3  0  0  0  0  0  0
  160.1650  212.3110  153.2000 C   0  0  1  0  0  3  0  0  0  0  0  0
  161.2800  209.1470  152.3820 C   0  0  1  0  0  3  0  0  0  0  0  0
  160.0370  209.4400  156.2490 O   0  0  0  0  0  0  0  0  0  0  0  0
  160.4860  212.1150  150.2560 C   0  0  1  0  0  3  0  0  0  0  0  0
  161.9940  208.4530  156.8790 F   0  0  0  0  0  0  0  0  0  0  0  0
  162.5550  208.4870  150.4030 C   0  0  1  0  0  3  0  0  0  0  0  0
  162.4860  206.5970  146.7820 S   0  0  0  0  0  0  0  0  0  0  0  0
  161.6590  207.9380  151.4860 C   0  0  2  0  0  3  0  0  0  0  0  0
  160.4790  213.4420  150.9840 C   0  0  0  0  0  2  0  0  0  0  0  0
  161.9830  212.6830  148.3220 C   0  0  0  0  0  3  0  0  0  0  0  0
  160.7080  212.3210  148.7730 C   0  0  0  0  0  0  0  0  0  0  0  0
  159.6590  212.1840  147.8490 C   0  0  0  0  0  3  0  0  0  0  0  0
  158.8750  212.2680  145.6010 F   0  0  0  0  0  0  0  0  0  0  0  0
  161.1650  212.7610  146.0440 C   0  0  0  0  0  3  0  0  0  0  0  0
  159.8890  212.4010  146.4880 C   0  0  0  0  0  0  0  0  0  0  0  0
  162.2110  212.9030  146.9600 C   0  0  0  0  0  3  0  0  0  0  0  0
  160.6770  203.3560  150.4810 O   0  0  0  0  0  1  0  0  0  0  0  0
  160.0800  204.5890  150.7490 C   0  0  0  0  0  2  0  0  0  0  0  0
  1 27  1  0  0  0  0
  2 22  1  0  0  0  0
  2 14  1  1  0  0  0
  2 24  1  0  0  0  0
  3 20  1  0  0  0  0
  3  9  1  0  0  0  0
  4 37  1  0  0  0  0
  4  1  1  0  0  0  0
  5 10  1  0  0  0  0
  6 11  1  0  0  0  0
  6 22  1  0  0  0  0
  7 21  1  0  0  0  0
  7  3  1  0  0  0  0
  8 12  1  0  0  0  0
  8 18  1  0  0  0  0
  9  6  1  0  0  0  0
 10  7  1  0  0  0  0
 12  4  1  0  0  0  0
 13  9  1  0  0  0  0
 13 17  1  0  0  0  0
 15 20  1  0  0  0  0
 16 11  1  0  0  0  0
 17  2  1  0  0  0  0
 18 19  1  0  0  0  0
 18 25  1  0  0  0  0
 19  5  1  0  0  0  0
 19 25  1  0  0  0  0
 20 16  1  0  0  0  0
 21 13  1  0  0  0  0
 23 10  1  0  0  0  0
 23 28  1  0  0  0  0
 25 27  1  0  0  0  0
 26  8  2  0  0  0  0
 27 21  1  0  0  0  0
 28 15  1  0  0  0  0
 29 30  1  0  0  0  0
 30 23  1  0  0  0  0
 31 30  2  0  0  0  0
 32 34  1  0  0  0  0
 33 34  2  0  0  0  0
 33 35  1  0  0  0  0
 34 31  1  0  0  0  0
 35 29  2  0  0  0  0
 36 37  1  0  0  0  0
M  END
>  <MODEL>
2

>  <REMARK>
 VINA RESULT:      -4.5      3.141      7.374
  Name = 
  2 active torsions:
  status: ('A' for Active; 'I' for Inactive)
    1  A    between atoms: CA_4  and  C_37
    2  A    between atoms: C_23  and  C_30
                            x       y       z     vdW  Elec       q    Type
                         _______ _______ _______ _____ _____    ______ ____

>  <TORSDO>
F 2

$$$$
