=
 OpenBabel11122412363D

 30 35  0  0  1  0  0  0  0  0999 V2000
  161.0470  210.6130  151.1660 C   0  0  1  0  0  3  0  0  0  0  0  0
  161.4670  212.2500  149.3780 C   0  0  0  0  0  0  0  0  0  0  0  0
  158.9280  213.5290  153.3630 N   0  0  0  0  0  0  0  0  0  0  0  0
  160.2400  210.1970  152.3850 C   0  0  1  0  0  3  0  0  0  0  0  0
  161.9560  209.5810  150.5560 C   0  0  0  0  0  2  0  0  0  0  0  0
  160.9200  206.5450  152.7150 C   0  0  0  0  0  1  0  0  0  0  0  0
  161.8970  210.5600  154.9540 C   0  0  1  0  0  3  0  0  0  0  0  0
  161.5210  207.9120  152.4000 C   0  0  1  0  0  3  0  0  0  0  0  0
  160.8310  211.5730  155.3500 C   0  0  2  0  0  3  0  0  0  0  0  0
  158.8520  212.8220  154.6000 C   0  0  0  0  0  0  0  0  0  0  0  0
  161.5150  208.1590  150.8860 C   0  0  2  0  0  3  0  0  0  0  0  0
  160.7610  208.9820  153.1970 C   0  0  1  0  0  3  0  0  0  0  0  0
  161.2470  213.5250  148.8500 C   0  0  0  0  0  3  0  0  0  0  0  0
  160.6280  211.4810  156.7330 O   0  0  0  0  0  0  0  0  0  0  0  0
  162.7350  210.4850  156.1990 C   0  0  0  0  0  2  0  0  0  0  0  0
  162.2680  211.3880  148.6330 O   0  0  0  0  0  1  0  0  0  0  0  0
  159.5760  212.5890  152.5150 C   0  0  0  0  0  0  0  0  0  0  0  0
  160.4600  214.4530  149.5230 C   0  0  0  0  0  3  0  0  0  0  0  0
  160.8740  211.8640  150.6180 C   0  0  0  0  0  0  0  0  0  0  0  0
  159.8360  211.3620  153.1580 N   0  0  0  0  0  0  0  0  0  0  0  0
  158.2960  213.3060  155.6190 O   0  0  0  0  0  0  0  0  0  0  0  0
  159.5180  211.4780  154.5700 C   0  0  1  0  0  3  0  0  0  0  0  0
  161.9000  211.1870  157.2600 C   0  0  0  0  0  2  0  0  0  0  0  0
  160.4330  208.5570  155.6600 C   0  0  0  0  0  1  0  0  0  0  0  0
  159.8860  214.1200  150.7440 C   0  0  0  0  0  3  0  0  0  0  0  0
  160.0790  212.8500  151.3040 C   0  0  0  0  0  0  0  0  0  0  0  0
  161.3570  209.1600  154.6040 C   0  0  2  0  0  3  0  0  0  0  0  0
  162.3850  207.1480  150.1340 C   0  0  0  0  0  2  0  0  0  0  0  0
  160.4580  206.5690  148.8530 O   0  0  0  0  0  1  0  0  0  0  0  0
  161.8290  206.8080  148.7570 C   0  0  0  0  0  2  0  0  0  0  0  0
  1  5  1  6  0  0  0
  1  4  1  0  0  0  0
  2 19  1  0  0  0  0
  3 10  1  0  0  0  0
  4 20  1  1  0  0  0
  4 12  1  0  0  0  0
  5 11  1  0  0  0  0
  7  9  1  0  0  0  0
  7 15  1  1  0  0  0
  8  6  1  6  0  0  0
  8 12  1  0  0  0  0
  9 14  1  1  0  0  0
 10 21  2  0  0  0  0
 11 28  1  6  0  0  0
 11  8  1  0  0  0  0
 12 27  1  0  0  0  0
 13  2  2  0  0  0  0
 13 18  1  0  0  0  0
 14 23  1  0  0  0  0
 15 23  1  0  0  0  0
 16  2  1  0  0  0  0
 17 20  1  0  0  0  0
 17  3  2  0  0  0  0
 18 25  2  0  0  0  0
 19  1  1  0  0  0  0
 19 26  2  0  0  0  0
 20 22  1  0  0  0  0
 22 10  1  0  0  0  0
 22  9  1  0  0  0  0
 25 26  1  0  0  0  0
 26 17  1  0  0  0  0
 27  7  1  0  0  0  0
 27 24  1  0  0  0  0
 30 29  1  0  0  0  0
 30 28  1  0  0  0  0
M  END
>  <MODEL>
1

>  <REMARK>
 VINA RESULT:      -6.8      0.000      0.000
  Name = 
  2 active torsions:
  status: ('A' for Active; 'I' for Inactive)
    1  A    between atoms: C_11  and  C_28
    2  A    between atoms: C_28  and  C_30
                            x       y       z     vdW  Elec       q    Type
                         _______ _______ _______ _____ _____    ______ ____

>  <TORSDO>
F 2

$$$$
=
 OpenBabel11122412363D

 30 35  0  0  1  0  0  0  0  0999 V2000
  160.8680  209.2010  153.4770 C   0  0  1  0  0  3  0  0  0  0  0  0
  160.6410  207.1850  154.8690 C   0  0  0  0  0  0  0  0  0  0  0  0
  160.0710  211.6310  156.8370 N   0  0  0  0  0  0  0  0  0  0  0  0
  161.0900  210.7030  153.3900 C   0  0  1  0  0  3  0  0  0  0  0  0
  160.9530  208.4160  152.1970 C   0  0  0  0  0  2  0  0  0  0  0  0
  162.1150  211.2590  149.8480 C   0  0  0  0  0  1  0  0  0  0  0  0
  158.4670  212.1440  152.6740 C   0  0  1  0  0  3  0  0  0  0  0  0
  161.1800  210.4940  150.7800 C   0  0  1  0  0  3  0  0  0  0  0  0
  158.6100  212.8160  154.0330 C   0  0  2  0  0  3  0  0  0  0  0  0
  159.8710  212.8610  156.1430 C   0  0  0  0  0  0  0  0  0  0  0  0
  161.7850  209.1300  151.1370 C   0  0  2  0  0  3  0  0  0  0  0  0
  160.8790  211.3690  152.0050 C   0  0  1  0  0  3  0  0  0  0  0  0
  160.4660  206.6210  156.1350 C   0  0  0  0  0  3  0  0  0  0  0  0
  158.1510  214.1350  153.9230 O   0  0  0  0  0  0  0  0  0  0  0  0
  157.2840  212.8660  152.0920 C   0  0  0  0  0  2  0  0  0  0  0  0
  160.7910  206.3040  153.8010 O   0  0  0  0  0  1  0  0  0  0  0  0
  160.4200  210.7420  155.7830 C   0  0  0  0  0  0  0  0  0  0  0  0
  160.3080  207.4220  157.2610 C   0  0  0  0  0  3  0  0  0  0  0  0
  160.6790  208.6030  154.7020 C   0  0  0  0  0  0  0  0  0  0  0  0
  160.4890  211.3800  154.5280 N   0  0  0  0  0  0  0  0  0  0  0  0
  159.5830  213.9310  156.7370 O   0  0  0  0  0  0  0  0  0  0  0  0
  160.0070  212.7440  154.6530 C   0  0  1  0  0  3  0  0  0  0  0  0
  157.0850  214.0650  153.0070 C   0  0  0  0  0  2  0  0  0  0  0  0
  160.1580  213.7440  151.5650 C   0  0  0  0  0  1  0  0  0  0  0  0
  160.3160  208.8070  157.1330 C   0  0  0  0  0  3  0  0  0  0  0  0
  160.4940  209.4090  155.8810 C   0  0  0  0  0  0  0  0  0  0  0  0
  159.6840  212.3040  151.7440 C   0  0  2  0  0  3  0  0  0  0  0  0
  161.9560  208.2350  149.9080 C   0  0  0  0  0  2  0  0  0  0  0  0
  160.4640  206.6020  149.0130 O   0  0  0  0  0  1  0  0  0  0  0  0
  161.3150  206.8650  150.0870 C   0  0  0  0  0  2  0  0  0  0  0  0
  1  5  1  1  0  0  0
  1 19  1  0  0  0  0
  2 13  1  0  0  0  0
  4  1  1  0  0  0  0
  4 20  1  1  0  0  0
  7 15  1  6  0  0  0
  7  9  1  0  0  0  0
  8  6  1  6  0  0  0
  8 11  1  0  0  0  0
  8 12  1  0  0  0  0
  9 14  1  6  0  0  0
  9 22  1  0  0  0  0
 10 21  2  0  0  0  0
 10  3  1  0  0  0  0
 11 28  1  6  0  0  0
 11  5  1  0  0  0  0
 12  4  1  0  0  0  0
 13 18  2  0  0  0  0
 15 23  1  0  0  0  0
 16  2  1  0  0  0  0
 17 26  1  0  0  0  0
 17  3  2  0  0  0  0
 19  2  2  0  0  0  0
 19 26  1  0  0  0  0
 20 22  1  0  0  0  0
 20 17  1  0  0  0  0
 22 10  1  0  0  0  0
 23 14  1  0  0  0  0
 24 27  1  0  0  0  0
 25 18  1  0  0  0  0
 26 25  2  0  0  0  0
 27 12  1  0  0  0  0
 27  7  1  0  0  0  0
 28 30  1  0  0  0  0
 29 30  1  0  0  0  0
M  END
>  <MODEL>
2

>  <REMARK>
 VINA RESULT:      -5.5      1.774      5.088
  Name = 
  2 active torsions:
  status: ('A' for Active; 'I' for Inactive)
    1  A    between atoms: C_11  and  C_28
    2  A    between atoms: C_28  and  C_30
                            x       y       z     vdW  Elec       q    Type
                         _______ _______ _______ _____ _____    ______ ____

>  <TORSDO>
F 2

$$$$
=
 OpenBabel11122412363D

 30 35  0  0  1  0  0  0  0  0999 V2000
  159.6230  211.5110  140.5590 C   0  0  1  0  0  3  0  0  0  0  0  0
  160.4200  212.5260  142.6540 C   0  0  0  0  0  0  0  0  0  0  0  0
  156.3220  214.1420  140.5180 N   0  0  0  0  0  0  0  0  0  0  0  0
  158.7520  211.6060  139.3170 C   0  0  1  0  0  3  0  0  0  0  0  0
  160.6430  210.4050  140.6030 C   0  0  0  0  0  2  0  0  0  0  0  0
  160.1860  209.0500  137.0110 C   0  0  0  0  0  1  0  0  0  0  0  0
  156.3070  209.7540  139.5670 C   0  0  1  0  0  3  0  0  0  0  0  0
  159.8120  209.3700  138.4550 C   0  0  1  0  0  3  0  0  0  0  0  0
  155.4850  211.0340  139.4980 C   0  0  2  0  0  3  0  0  0  0  0  0
  155.5680  213.4910  139.4970 C   0  0  0  0  0  0  0  0  0  0  0  0
  161.0280  209.9220  139.2090 C   0  0  2  0  0  3  0  0  0  0  0  0
  158.6090  210.3240  138.4540 C   0  0  1  0  0  3  0  0  0  0  0  0
  160.2820  213.5180  143.6280 C   0  0  0  0  0  3  0  0  0  0  0  0
  154.3120  210.7680  138.7810 O   0  0  0  0  0  0  0  0  0  0  0  0
  155.2390  208.6960  139.5320 C   0  0  0  0  0  2  0  0  0  0  0  0
  161.4780  211.6340  142.8060 O   0  0  0  0  0  1  0  0  0  0  0  0
  157.5090  213.3600  140.5640 C   0  0  0  0  0  0  0  0  0  0  0  0
  159.2550  214.4530  143.5590 C   0  0  0  0  0  3  0  0  0  0  0  0
  159.5140  212.4580  141.5520 C   0  0  0  0  0  0  0  0  0  0  0  0
  157.5230  212.3290  139.6030 N   0  0  0  0  0  0  0  0  0  0  0  0
  154.4460  213.9110  139.1170 O   0  0  0  0  0  0  0  0  0  0  0  0
  156.2270  212.2570  138.9530 C   0  0  1  0  0  3  0  0  0  0  0  0
  153.9790  209.4440  139.1240 C   0  0  0  0  0  2  0  0  0  0  0  0
  156.6440  209.6860  137.0110 C   0  0  0  0  0  1  0  0  0  0  0  0
  158.3420  214.4030  142.5120 C   0  0  0  0  0  3  0  0  0  0  0  0
  158.4490  213.4260  141.5140 C   0  0  0  0  0  0  0  0  0  0  0  0
  157.2810  209.5490  138.3920 C   0  0  2  0  0  3  0  0  0  0  0  0
  162.1640  208.8990  139.3000 C   0  0  0  0  0  2  0  0  0  0  0  0
  162.2690  206.5150  139.3150 O   0  0  0  0  0  1  0  0  0  0  0  0
  161.7370  207.6120  139.9950 C   0  0  0  0  0  2  0  0  0  0  0  0
  1  5  1  6  0  0  0
  1 19  1  0  0  0  0
  2 16  1  0  0  0  0
  2 13  1  0  0  0  0
  3 17  2  0  0  0  0
  4 20  1  1  0  0  0
  4  1  1  0  0  0  0
  7 15  1  6  0  0  0
  8  6  1  6  0  0  0
  8 11  1  0  0  0  0
  9 14  1  6  0  0  0
  9  7  1  0  0  0  0
 10  3  1  0  0  0  0
 11 28  1  1  0  0  0
 11  5  1  0  0  0  0
 12  8  1  0  0  0  0
 12  4  1  0  0  0  0
 14 23  1  0  0  0  0
 17 26  1  0  0  0  0
 18 13  2  0  0  0  0
 19  2  2  0  0  0  0
 20 17  1  0  0  0  0
 21 10  2  0  0  0  0
 22 10  1  0  0  0  0
 22  9  1  0  0  0  0
 22 20  1  0  0  0  0
 23 15  1  0  0  0  0
 24 27  1  0  0  0  0
 25 18  1  0  0  0  0
 26 19  1  0  0  0  0
 26 25  2  0  0  0  0
 27 12  1  0  0  0  0
 27  7  1  0  0  0  0
 28 30  1  0  0  0  0
 29 30  1  0  0  0  0
M  END
>  <MODEL>
3

>  <REMARK>
 VINA RESULT:      -4.3     10.306     13.514
  Name = 
  2 active torsions:
  status: ('A' for Active; 'I' for Inactive)
    1  A    between atoms: C_11  and  C_28
    2  A    between atoms: C_28  and  C_30
                            x       y       z     vdW  Elec       q    Type
                         _______ _______ _______ _____ _____    ______ ____

>  <TORSDO>
F 2

$$$$
=
 OpenBabel11122412363D

 30 35  0  0  1  0  0  0  0  0999 V2000
  158.3760  212.9790  152.3840 C   0  0  1  0  0  3  0  0  0  0  0  0
  156.4790  213.8680  151.0940 C   0  0  0  0  0  0  0  0  0  0  0  0
  160.6930  212.7600  148.8620 N   0  0  0  0  0  0  0  0  0  0  0  0
  159.8690  212.7030  152.4800 C   0  0  1  0  0  3  0  0  0  0  0  0
  157.5650  212.8270  153.6410 C   0  0  0  0  0  2  0  0  0  0  0  0
  160.4560  212.1810  156.1260 C   0  0  0  0  0  1  0  0  0  0  0  0
  160.4370  209.6980  152.1360 C   0  0  1  0  0  3  0  0  0  0  0  0
  159.5180  211.9100  154.9530 C   0  0  1  0  0  3  0  0  0  0  0  0
  161.2120  210.1130  150.8930 C   0  0  2  0  0  3  0  0  0  0  0  0
  161.7630  211.9730  149.3820 C   0  0  0  0  0  0  0  0  0  0  0  0
  158.4150  212.9760  154.8980 C   0  0  2  0  0  3  0  0  0  0  0  0
  160.3500  211.8250  153.6650 C   0  0  1  0  0  3  0  0  0  0  0  0
  155.9770  214.3310  149.8750 C   0  0  0  0  0  3  0  0  0  0  0  0
  162.3310  209.2800  150.7730 O   0  0  0  0  0  0  0  0  0  0  0  0
  160.7450  208.2290  152.2200 C   0  0  0  0  0  2  0  0  0  0  0  0
  155.6090  213.8780  152.1810 O   0  0  0  0  0  1  0  0  0  0  0  0
  159.8740  212.9540  150.0080 C   0  0  0  0  0  0  0  0  0  0  0  0
  156.7720  214.3580  148.7350 C   0  0  0  0  0  3  0  0  0  0  0  0
  157.8330  213.4250  151.2000 C   0  0  0  0  0  0  0  0  0  0  0  0
  160.4180  212.3790  151.1740 N   0  0  0  0  0  0  0  0  0  0  0  0
  162.7410  211.6150  148.6780 O   0  0  0  0  0  0  0  0  0  0  0  0
  161.5890  211.5950  150.8240 C   0  0  1  0  0  3  0  0  0  0  0  0
  161.8940  208.0280  151.2430 C   0  0  0  0  0  2  0  0  0  0  0  0
  162.3790  210.3300  153.7110 C   0  0  0  0  0  1  0  0  0  0  0  0
  158.0870  213.9130  148.7970 C   0  0  0  0  0  3  0  0  0  0  0  0
  158.6290  213.4460  150.0010 C   0  0  0  0  0  0  0  0  0  0  0  0
  160.8780  210.3980  153.4360 C   0  0  2  0  0  3  0  0  0  0  0  0
  157.5260  212.9500  156.1440 C   0  0  0  0  0  2  0  0  0  0  0  0
  155.6730  211.4590  156.3240 O   0  0  0  0  0  1  0  0  0  0  0  0
  156.0610  212.6980  155.8130 C   0  0  0  0  0  2  0  0  0  0  0  0
  1  4  1  0  0  0  0
  1  5  1  1  0  0  0
  2 19  1  0  0  0  0
  2 16  1  0  0  0  0
  3 10  1  0  0  0  0
  3 17  2  0  0  0  0
  4 20  1  6  0  0  0
  4 12  1  0  0  0  0
  5 11  1  0  0  0  0
  7 15  1  1  0  0  0
  7 27  1  0  0  0  0
  8  6  1  1  0  0  0
  9 14  1  1  0  0  0
  9  7  1  0  0  0  0
 10 22  1  0  0  0  0
 11  8  1  0  0  0  0
 11 28  1  1  0  0  0
 12  8  1  0  0  0  0
 13  2  2  0  0  0  0
 14 23  1  0  0  0  0
 17 20  1  0  0  0  0
 18 25  2  0  0  0  0
 18 13  1  0  0  0  0
 19  1  1  0  0  0  0
 21 10  2  0  0  0  0
 22  9  1  0  0  0  0
 22 20  1  0  0  0  0
 23 15  1  0  0  0  0
 25 26  1  0  0  0  0
 26 17  1  0  0  0  0
 26 19  2  0  0  0  0
 27 12  1  0  0  0  0
 27 24  1  0  0  0  0
 30 28  1  0  0  0  0
 30 29  1  0  0  0  0
M  END
>  <MODEL>
4

>  <REMARK>
 VINA RESULT:      -4.3      2.238      5.728
  Name = 
  2 active torsions:
  status: ('A' for Active; 'I' for Inactive)
    1  A    between atoms: C_11  and  C_28
    2  A    between atoms: C_28  and  C_30
                            x       y       z     vdW  Elec       q    Type
                         _______ _______ _______ _____ _____    ______ ____

>  <TORSDO>
F 2

$$$$
=
 OpenBabel11122412363D

 30 35  0  0  1  0  0  0  0  0999 V2000
  159.9330  211.6730  151.7100 C   0  0  1  0  0  3  0  0  0  0  0  0
  160.4340  212.7690  149.5650 C   0  0  0  0  0  0  0  0  0  0  0  0
  156.6070  214.2160  152.2530 N   0  0  0  0  0  0  0  0  0  0  0  0
  158.9350  211.3810  152.8200 C   0  0  1  0  0  3  0  0  0  0  0  0
  161.2070  210.8740  151.7010 C   0  0  0  0  0  2  0  0  0  0  0  0
  160.3780  208.4240  154.5750 C   0  0  0  0  0  1  0  0  0  0  0  0
  159.6250  212.9970  155.3460 C   0  0  1  0  0  3  0  0  0  0  0  0
  160.6840  209.7610  153.9060 C   0  0  1  0  0  3  0  0  0  0  0  0
  158.2720  213.6660  155.1380 C   0  0  2  0  0  3  0  0  0  0  0  0
  156.3520  213.9120  153.6230 C   0  0  0  0  0  0  0  0  0  0  0  0
  161.0590  209.5460  152.4340 C   0  0  2  0  0  3  0  0  0  0  0  0
  159.4820  210.6970  154.1000 C   0  0  1  0  0  3  0  0  0  0  0  0
  160.0660  213.6880  148.5790 C   0  0  0  0  0  3  0  0  0  0  0  0
  157.7040  213.9130  156.3940 O   0  0  0  0  0  0  0  0  0  0  0  0
  160.0540  213.5680  156.6690 C   0  0  0  0  0  2  0  0  0  0  0  0
  161.6050  212.0480  149.3510 O   0  0  0  0  0  1  0  0  0  0  0  0
  157.6870  213.3440  151.9440 C   0  0  0  0  0  0  0  0  0  0  0  0
  158.9120  214.4530  148.7060 C   0  0  0  0  0  3  0  0  0  0  0  0
  159.6200  212.5810  150.7240 C   0  0  0  0  0  0  0  0  0  0  0  0
  158.0460  212.5140  153.0250 N   0  0  0  0  0  0  0  0  0  0  0  0
  155.4210  214.4530  154.2720 O   0  0  0  0  0  0  0  0  0  0  0  0
  157.3120  212.9180  154.2100 C   0  0  1  0  0  3  0  0  0  0  0  0
  158.7980  214.2240  157.2230 C   0  0  0  0  0  2  0  0  0  0  0  0
  158.5670  210.9140  156.4380 C   0  0  0  0  0  1  0  0  0  0  0  0
  158.1080  214.3130  149.8320 C   0  0  0  0  0  3  0  0  0  0  0  0
  158.4400  213.3990  150.8400 C   0  0  0  0  0  0  0  0  0  0  0  0
  159.5780  211.4600  155.4330 C   0  0  2  0  0  3  0  0  0  0  0  0
  162.3340  208.7120  152.2800 C   0  0  0  0  0  2  0  0  0  0  0  0
  162.2950  206.3590  151.8900 O   0  0  0  0  0  1  0  0  0  0  0  0
  162.1830  207.5960  151.2550 C   0  0  0  0  0  2  0  0  0  0  0  0
  1  5  1  6  0  0  0
  1  4  1  0  0  0  0
  2 19  1  0  0  0  0
  3 10  1  0  0  0  0
  4 20  1  1  0  0  0
  4 12  1  0  0  0  0
  5 11  1  0  0  0  0
  7 27  1  0  0  0  0
  7 15  1  1  0  0  0
  8 12  1  0  0  0  0
  8  6  1  6  0  0  0
  9  7  1  0  0  0  0
  9 14  1  1  0  0  0
 10 22  1  0  0  0  0
 10 21  2  0  0  0  0
 11 28  1  1  0  0  0
 11  8  1  0  0  0  0
 12 27  1  0  0  0  0
 13 18  1  0  0  0  0
 13  2  2  0  0  0  0
 14 23  1  0  0  0  0
 15 23  1  0  0  0  0
 16  2  1  0  0  0  0
 17  3  2  0  0  0  0
 17 20  1  0  0  0  0
 18 25  2  0  0  0  0
 19 26  2  0  0  0  0
 19  1  1  0  0  0  0
 20 22  1  0  0  0  0
 22  9  1  0  0  0  0
 25 26  1  0  0  0  0
 26 17  1  0  0  0  0
 27 24  1  0  0  0  0
 30 29  1  0  0  0  0
 30 28  1  0  0  0  0
M  END
>  <MODEL>
5

>  <REMARK>
 VINA RESULT:      -4.3      1.805      2.651
  Name = 
  2 active torsions:
  status: ('A' for Active; 'I' for Inactive)
    1  A    between atoms: C_11  and  C_28
    2  A    between atoms: C_28  and  C_30
                            x       y       z     vdW  Elec       q    Type
                         _______ _______ _______ _____ _____    ______ ____

>  <TORSDO>
F 2

$$$$
=
 OpenBabel11122412363D

 30 35  0  0  1  0  0  0  0  0999 V2000
  160.0770  209.9540  153.0860 C   0  0  1  0  0  3  0  0  0  0  0  0
  158.4300  211.7420  153.4660 C   0  0  0  0  0  0  0  0  0  0  0  0
  161.6020  212.0430  149.7490 N   0  0  0  0  0  0  0  0  0  0  0  0
  161.3780  209.4980  152.4420 C   0  0  1  0  0  3  0  0  0  0  0  0
  159.4670  209.0490  154.1210 C   0  0  0  0  0  2  0  0  0  0  0  0
  162.3020  206.4300  154.3500 C   0  0  0  0  0  1  0  0  0  0  0  0
  160.8100  207.6340  150.0600 C   0  0  1  0  0  3  0  0  0  0  0  0
  161.1600  207.2200  153.7170 C   0  0  1  0  0  3  0  0  0  0  0  0
  161.4800  208.7110  149.2170 C   0  0  2  0  0  3  0  0  0  0  0  0
  162.4000  210.9910  149.2100 C   0  0  0  0  0  0  0  0  0  0  0  0
  160.5000  208.1280  154.7620 C   0  0  2  0  0  3  0  0  0  0  0  0
  161.7010  207.9820  152.4990 C   0  0  1  0  0  3  0  0  0  0  0  0
  157.9380  213.0030  153.1240 C   0  0  0  0  0  3  0  0  0  0  0  0
  162.2080  208.0840  148.1990 O   0  0  0  0  0  0  0  0  0  0  0  0
  160.5990  206.5370  149.0540 C   0  0  0  0  0  2  0  0  0  0  0  0
  157.7970  211.0780  154.5130 O   0  0  0  0  0  1  0  0  0  0  0  0
  161.0880  211.4550  150.9380 C   0  0  0  0  0  0  0  0  0  0  0  0
  158.5080  213.7410  152.0920 C   0  0  0  0  0  3  0  0  0  0  0  0
  159.5460  211.1840  152.7710 C   0  0  0  0  0  0  0  0  0  0  0  0
  161.5730  210.1500  151.1570 N   0  0  0  0  0  0  0  0  0  0  0  0
  163.0730  211.1270  148.1570 O   0  0  0  0  0  0  0  0  0  0  0  0
  162.3310  209.7150  149.9980 C   0  0  1  0  0  3  0  0  0  0  0  0
  161.4420  206.9540  147.8580 C   0  0  0  0  0  2  0  0  0  0  0  0
  163.0690  206.6650  150.8420 C   0  0  0  0  0  1  0  0  0  0  0  0
  159.5800  213.2190  151.3780 C   0  0  0  0  0  3  0  0  0  0  0  0
  160.1060  211.9590  151.6940 C   0  0  0  0  0  0  0  0  0  0  0  0
  161.6610  207.1100  151.2320 C   0  0  2  0  0  3  0  0  0  0  0  0
  159.8600  207.3290  155.9000 C   0  0  0  0  0  2  0  0  0  0  0  0
  161.5860  208.4680  157.0900 O   0  0  0  0  0  1  0  0  0  0  0  0
  160.4570  207.6660  157.2610 C   0  0  0  0  0  2  0  0  0  0  0  0
  1  5  1  1  0  0  0
  2 16  1  0  0  0  0
  3 17  2  0  0  0  0
  4 20  1  6  0  0  0
  4 12  1  0  0  0  0
  4  1  1  0  0  0  0
  5 11  1  0  0  0  0
  7 15  1  6  0  0  0
  7 27  1  0  0  0  0
  8  6  1  1  0  0  0
  8 11  1  0  0  0  0
  9 14  1  6  0  0  0
  9 22  1  0  0  0  0
  9  7  1  0  0  0  0
 10  3  1  0  0  0  0
 10 22  1  0  0  0  0
 11 28  1  1  0  0  0
 12  8  1  0  0  0  0
 13  2  1  0  0  0  0
 17 20  1  0  0  0  0
 17 26  1  0  0  0  0
 18 13  2  0  0  0  0
 19  1  1  0  0  0  0
 19  2  2  0  0  0  0
 21 10  2  0  0  0  0
 22 20  1  0  0  0  0
 23 14  1  0  0  0  0
 23 15  1  0  0  0  0
 24 27  1  0  0  0  0
 25 26  2  0  0  0  0
 25 18  1  0  0  0  0
 26 19  1  0  0  0  0
 27 12  1  0  0  0  0
 28 30  1  0  0  0  0
 29 30  1  0  0  0  0
M  END
>  <MODEL>
6

>  <REMARK>
 VINA RESULT:      -4.2      2.099      5.657
  Name = 
  2 active torsions:
  status: ('A' for Active; 'I' for Inactive)
    1  A    between atoms: C_11  and  C_28
    2  A    between atoms: C_28  and  C_30
                            x       y       z     vdW  Elec       q    Type
                         _______ _______ _______ _____ _____    ______ ____

>  <TORSDO>
F 2

$$$$
=
 OpenBabel11122412363D

 30 35  0  0  1  0  0  0  0  0999 V2000
  160.8890  210.2520  151.6400 C   0  0  1  0  0  3  0  0  0  0  0  0
  161.4370  207.8900  151.2240 C   0  0  0  0  0  0  0  0  0  0  0  0
  160.2770  209.4090  155.7300 N   0  0  0  0  0  0  0  0  0  0  0  0
  160.7320  211.3960  152.6290 C   0  0  1  0  0  3  0  0  0  0  0  0
  160.8810  210.6000  150.1760 C   0  0  0  0  0  2  0  0  0  0  0  0
  160.8250  214.4530  150.4940 C   0  0  0  0  0  1  0  0  0  0  0  0
  157.7540  212.0230  153.0910 C   0  0  1  0  0  3  0  0  0  0  0  0
  160.3130  213.0210  150.6160 C   0  0  1  0  0  3  0  0  0  0  0  0
  158.0210  211.6180  154.5350 C   0  0  2  0  0  3  0  0  0  0  0  0
  159.6530  210.6400  156.0910 C   0  0  0  0  0  0  0  0  0  0  0  0
  161.2810  212.0500  149.9270 C   0  0  2  0  0  3  0  0  0  0  0  0
  160.0830  212.7030  152.1000 C   0  0  1  0  0  3  0  0  0  0  0  0
  161.6700  206.6100  151.7340 C   0  0  0  0  0  3  0  0  0  0  0  0
  157.2550  212.4390  155.3720 O   0  0  0  0  0  0  0  0  0  0  0  0
  156.3400  212.5270  153.1650 C   0  0  0  0  0  2  0  0  0  0  0  0
  161.5590  208.0520  149.8460 O   0  0  0  0  0  1  0  0  0  0  0  0
  160.5930  209.6180  154.3600 C   0  0  0  0  0  0  0  0  0  0  0  0
  161.5720  206.3530  153.0970 C   0  0  0  0  0  3  0  0  0  0  0  0
  161.1080  208.9720  152.0960 C   0  0  0  0  0  0  0  0  0  0  0  0
  160.2440  210.9070  153.9090 N   0  0  0  0  0  0  0  0  0  0  0  0
  159.2570  210.8780  157.2600 O   0  0  0  0  0  0  0  0  0  0  0  0
  159.4950  211.5960  154.9440 C   0  0  1  0  0  3  0  0  0  0  0  0
  156.0650  212.6660  154.6550 C   0  0  0  0  0  2  0  0  0  0  0  0
  158.7520  214.3760  153.4350 C   0  0  0  0  0  1  0  0  0  0  0  0
  161.2300  207.3770  153.9730 C   0  0  0  0  0  3  0  0  0  0  0  0
  160.9940  208.6750  153.5000 C   0  0  0  0  0  0  0  0  0  0  0  0
  158.6760  213.1330  152.5520 C   0  0  2  0  0  3  0  0  0  0  0  0
  161.3910  212.3170  148.4230 C   0  0  0  0  0  2  0  0  0  0  0  0
  163.0810  213.9120  147.8850 O   0  0  0  0  0  1  0  0  0  0  0  0
  162.8290  212.5430  147.9730 C   0  0  0  0  0  2  0  0  0  0  0  0
  1  5  1  6  0  0  0
  1 19  1  0  0  0  0
  1  4  1  0  0  0  0
  2 13  2  0  0  0  0
  2 19  1  0  0  0  0
  3 10  1  0  0  0  0
  4 20  1  1  0  0  0
  7 15  1  1  0  0  0
  7  9  1  0  0  0  0
  8  6  1  1  0  0  0
  8 12  1  0  0  0  0
  9 22  1  0  0  0  0
  9 14  1  1  0  0  0
 10 21  2  0  0  0  0
 11 28  1  6  0  0  0
 11  5  1  0  0  0  0
 11  8  1  0  0  0  0
 12 27  1  0  0  0  0
 12  4  1  0  0  0  0
 13 18  1  0  0  0  0
 15 23  1  0  0  0  0
 16  2  1  0  0  0  0
 17  3  2  0  0  0  0
 18 25  2  0  0  0  0
 19 26  2  0  0  0  0
 20 17  1  0  0  0  0
 20 22  1  0  0  0  0
 22 10  1  0  0  0  0
 23 14  1  0  0  0  0
 26 25  1  0  0  0  0
 26 17  1  0  0  0  0
 27  7  1  0  0  0  0
 27 24  1  0  0  0  0
 29 30  1  0  0  0  0
 30 28  1  0  0  0  0
M  END
>  <MODEL>
7

>  <REMARK>
 VINA RESULT:      -4.0      1.589      5.137
  Name = 
  2 active torsions:
  status: ('A' for Active; 'I' for Inactive)
    1  A    between atoms: C_11  and  C_28
    2  A    between atoms: C_28  and  C_30
                            x       y       z     vdW  Elec       q    Type
                         _______ _______ _______ _____ _____    ______ ____

>  <TORSDO>
F 2

$$$$
