=
 OpenBabel11122412553D

 32 37  0  0  1  0  0  0  0  0999 V2000
  160.1310  201.4580  149.9360 C   0  0  0  0  0  2  0  0  0  0  0  0
  161.2080  206.2720  151.7520 C   0  0  0  0  0  0  0  0  0  0  0  0
  162.3220  209.8030  148.5180 C   0  0  0  0  0  2  0  0  0  0  0  0
  161.6830  210.7180  149.4530 N   0  0  0  0  0  2  0  0  0  0  0  0
  160.8530  206.9560  154.2470 C   0  0  0  0  0  0  0  0  0  0  0  0
  160.8130  208.0290  155.2310 C   0  0  0  0  0  0  0  0  0  0  0  0
  161.2340  203.9120  151.0220 C   0  0  0  0  0  0  0  0  0  0  0  0
  161.2590  205.6600  149.2400 C   0  0  0  0  0  2  0  0  0  0  0  0
  160.9130  210.0920  156.0630 N   0  0  0  0  0  0  0  0  0  0  0  0
  161.4640  203.1910  148.6430 C   0  0  0  0  0  2  0  0  0  0  0  0
  161.6670  208.4320  148.6160 C   0  0  0  0  0  2  0  0  0  0  0  0
  161.3790  206.6850  150.3420 C   0  0  0  0  0  0  0  0  0  0  0  0
  161.5810  207.9790  150.0510 C   0  0  0  0  0  0  0  0  0  0  0  0
  161.3560  208.6110  152.4830 C   0  0  0  0  0  0  0  0  0  0  0  0
  160.6620  209.2000  157.1900 C   0  0  0  0  0  2  0  0  0  0  0  0
  161.3200  201.5080  150.6770 O   0  0  0  0  0  0  0  0  0  0  0  0
  161.3210  204.2320  149.7110 C   0  0  0  0  0  0  0  0  0  0  0  0
  160.5800  207.9040  156.5940 O   0  0  0  0  0  0  0  0  0  0  0  0
  161.2040  202.5820  151.4810 O   0  0  0  0  0  0  0  0  0  0  0  0
  160.2850  202.2130  148.6150 C   0  0  1  0  0  3  0  0  0  0  0  0
  162.0920  210.3200  150.7950 C   0  0  0  0  0  2  0  0  0  0  0  0
  161.6220  208.9650  151.1060 N   0  0  0  0  0  0  0  0  0  0  0  0
  161.3260  209.7360  153.5170 C   0  0  0  0  0  2  0  0  0  0  0  0
  161.1440  204.9690  152.0430 C   0  0  0  0  0  3  0  0  0  0  0  0
  160.6360  205.7710  154.6130 O   0  0  0  0  0  0  0  0  0  0  0  0
  161.3770  211.4630  156.1740 C   0  0  0  0  0  1  0  0  0  0  0  0
  161.1430  207.3100  152.8230 C   0  0  0  0  0  0  0  0  0  0  0  0
  161.0150  209.2760  154.9090 C   0  0  0  0  0  0  0  0  0  0  0  0
  160.4660  201.2560  147.5330 N   0  0  0  0  0  2  0  0  0  0  0  0
  160.5910  201.6520  146.1660 C   0  0  0  0  0  0  0  0  0  0  0  0
  160.5230  202.8670  145.8400 O   0  0  0  0  0  0  0  0  0  0  0  0
  160.8000  200.6190  145.1190 C   0  0  0  0  0  1  0  0  0  0  0  0
  1 16  1  0  0  0  0
  2 24  2  0  0  0  0
  2 27  1  0  0  0  0
  3 11  1  0  0  0  0
  3  4  1  0  0  0  0
  4 21  1  0  0  0  0
  5 25  2  0  0  0  0
  5  6  1  0  0  0  0
  6 18  1  0  0  0  0
  7 19  1  0  0  0  0
  7 24  1  0  0  0  0
  8 17  1  0  0  0  0
  8 12  1  0  0  0  0
  9 26  1  0  0  0  0
  9 15  1  0  0  0  0
 10 17  1  0  0  0  0
 11 13  1  0  0  0  0
 12  2  1  0  0  0  0
 13 12  2  0  0  0  0
 13 22  1  0  0  0  0
 14 27  2  0  0  0  0
 14 23  1  0  0  0  0
 16 19  1  0  0  0  0
 17  7  2  0  0  0  0
 18 15  1  0  0  0  0
 20 29  1  6  0  0  0
 20 10  1  0  0  0  0
 20  1  1  0  0  0  0
 21 22  1  0  0  0  0
 22 14  1  0  0  0  0
 23 28  1  0  0  0  0
 27  5  1  0  0  0  0
 28  6  2  0  0  0  0
 28  9  1  0  0  0  0
 30 29  1  0  0  0  0
 31 30  2  0  0  0  0
 32 30  1  0  0  0  0
M  END
>  <MODEL>
1

>  <REMARK>
 VINA RESULT:     -10.1      0.000      0.000
  Name = 
  1 active torsions:
  status: ('A' for Active; 'I' for Inactive)
    1  A    between atoms: C_20  and  N_29
                            x       y       z     vdW  Elec       q    Type
                         _______ _______ _______ _____ _____    ______ ____

>  <TORSDO>
F 1

$$$$
=
 OpenBabel11122412553D

 32 37  0  0  1  0  0  0  0  0999 V2000
  161.1910  208.3100  156.8350 C   0  0  0  0  0  2  0  0  0  0  0  0
  160.9910  206.2890  151.9860 C   0  0  1  0  0  3  0  0  0  0  0  0
  161.7770  209.2810  148.1650 C   0  0  0  0  0  2  0  0  0  0  0  0
  162.3610  208.1200  147.5090 N   0  0  0  0  0  2  0  0  0  0  0  0
  160.8300  203.7240  151.5270 C   0  0  0  0  0  0  0  0  0  0  0  0
  160.8880  202.6460  150.5490 C   0  0  0  0  0  0  0  0  0  0  0  0
  160.5340  207.2630  154.2100 C   0  0  0  0  0  0  0  0  0  0  0  0
  161.4580  208.7880  152.4630 C   0  0  0  0  0  3  0  0  0  0  0  0
  161.1230  201.6390  148.5770 N   0  0  0  0  0  0  0  0  0  0  0  0
  160.7700  209.6900  154.7450 C   0  0  0  0  0  2  0  0  0  0  0  0
  161.9900  209.1780  149.6690 C   0  0  0  0  0  2  0  0  0  0  0  0
  161.3240  207.6420  151.4890 C   0  0  0  0  0  0  0  0  0  0  0  0
  161.5610  207.8270  150.1820 C   0  0  0  0  0  0  0  0  0  0  0  0
  161.2820  205.3600  149.7320 C   0  0  0  0  0  0  0  0  0  0  0  0
  160.8120  200.5930  149.5450 C   0  0  0  0  0  2  0  0  0  0  0  0
  159.9050  207.8860  156.4730 O   0  0  0  0  0  0  0  0  0  0  0  0
  160.8920  208.5100  153.8290 C   0  0  0  0  0  0  0  0  0  0  0  0
  160.7020  201.2910  150.7870 O   0  0  0  0  0  0  0  0  0  0  0  0
  160.0820  206.9630  155.5090 O   0  0  0  0  0  0  0  0  0  0  0  0
  161.6070  209.5340  156.0180 C   0  0  1  0  0  3  0  0  0  0  0  0
  161.5140  206.9740  147.8220 C   0  0  0  0  0  2  0  0  0  0  0  0
  161.5020  206.7110  149.2650 N   0  0  0  0  0  0  0  0  0  0  0  0
  161.3320  204.2310  148.7030 C   0  0  0  0  0  2  0  0  0  0  0  0
  160.6240  206.1400  153.2620 C   0  0  0  0  0  3  0  0  0  0  0  0
  160.6140  203.4500  152.7380 O   0  0  0  0  0  0  0  0  0  0  0  0
  161.0300  201.4940  147.1360 C   0  0  0  0  0  1  0  0  0  0  0  0
  161.0400  205.1260  151.0510 C   0  0  0  0  0  0  0  0  0  0  0  0
  161.1210  202.8670  149.2850 C   0  0  0  0  0  0  0  0  0  0  0  0
  161.4750  210.7280  156.8420 N   0  0  0  0  0  2  0  0  0  0  0  0
  160.9000  211.9410  156.3540 C   0  0  0  0  0  0  0  0  0  0  0  0
  160.5010  212.0300  155.1620 O   0  0  0  0  0  0  0  0  0  0  0  0
  160.7760  213.1110  157.2610 C   0  0  0  0  0  1  0  0  0  0  0  0
  2 24  1  6  0  0  0
  3 11  1  0  0  0  0
  4 21  1  0  0  0  0
  4  3  1  0  0  0  0
  5 25  2  0  0  0  0
  6 18  1  0  0  0  0
  6  5  1  0  0  0  0
  7 19  1  0  0  0  0
  8 17  2  0  0  0  0
  9 28  1  0  0  0  0
  9 15  1  0  0  0  0
 10 20  1  0  0  0  0
 11 13  1  0  0  0  0
 12  2  1  0  0  0  0
 12  8  1  0  0  0  0
 13 12  2  0  0  0  0
 14 27  2  0  0  0  0
 15 18  1  0  0  0  0
 16  1  1  0  0  0  0
 17  7  1  0  0  0  0
 17 10  1  0  0  0  0
 19 16  1  0  0  0  0
 20  1  1  0  0  0  0
 20 29  1  1  0  0  0
 21 22  1  0  0  0  0
 22 14  1  0  0  0  0
 22 13  1  0  0  0  0
 23 28  1  0  0  0  0
 23 14  1  0  0  0  0
 24  7  2  0  0  0  0
 26  9  1  0  0  0  0
 27  5  1  0  0  0  0
 27  2  1  0  0  0  0
 28  6  2  0  0  0  0
 30 29  1  0  0  0  0
 30 32  1  0  0  0  0
 31 30  2  0  0  0  0
M  END
>  <MODEL>
2

>  <REMARK>
 VINA RESULT:      -8.6      1.590      8.167
  Name = 
  1 active torsions:
  status: ('A' for Active; 'I' for Inactive)
    1  A    between atoms: C_20  and  N_29
                            x       y       z     vdW  Elec       q    Type
                         _______ _______ _______ _____ _____    ______ ____

>  <TORSDO>
F 1

$$$$
