=
 OpenBabel11122413333D

 37 43  0  0  1  0  0  0  0  0999 V2000
  158.2150  212.9500  151.2710 C   0  0  0  0  0  2  0  0  0  0  0  0
  161.9010  213.3220  147.7140 C   0  0  0  0  0  0  0  0  0  0  0  0
  161.1940  210.2440  150.4900 C   0  0  0  0  0  0  0  0  0  0  0  0
  157.1240  213.7920  151.9360 C   0  0  2  0  0  3  0  0  0  0  0  0
  161.2070  211.4610  153.7980 O   0  0  0  0  0  0  0  0  0  0  0  0
  162.2310  210.8830  148.3970 C   0  0  0  0  0  0  0  0  0  0  0  0
  160.3890  210.9330  151.5580 C   0  0  1  0  0  3  0  0  0  0  0  0
  157.8100  212.4280  154.0710 C   0  0  2  0  0  3  0  0  0  0  0  0
  161.4990  211.1790  149.5370 C   0  0  0  0  0  0  0  0  0  0  0  0
  160.5520  210.4930  153.0250 C   0  0  1  0  0  3  0  0  0  0  0  0
  162.6510  209.5580  148.2100 C   0  0  0  0  0  3  0  0  0  0  0  0
  156.8420  213.4190  153.4040 C   0  0  0  0  0  2  0  0  0  0  0  0
  161.1080  212.4840  149.8910 N   0  0  0  0  0  0  0  0  0  0  0  0
  160.5540  213.2430  147.0160 C   0  0  0  0  0  1  0  0  0  0  0  0
  161.4390  207.8570  151.3910 C   0  0  0  0  0  2  0  0  0  0  0  0
  162.3320  208.5750  149.1690 C   0  0  0  0  0  3  0  0  0  0  0  0
  161.6920  213.6360  149.2100 C   0  0  0  0  0  2  0  0  0  0  0  0
  159.2630  212.9300  154.1920 C   0  0  1  0  0  3  0  0  0  0  0  0
  160.2640  211.8970  154.7450 C   0  0  0  0  0  2  0  0  0  0  0  0
  161.5940  208.9040  150.3230 C   0  0  0  0  0  0  0  0  0  0  0  0
  160.7210  212.4240  151.2940 C   0  0  1  0  0  3  0  0  0  0  0  0
  162.6780  212.0020  147.4950 C   0  0  0  0  0  2  0  0  0  0  0  0
  161.1190  209.0870  153.2210 C   0  0  2  0  0  3  0  0  0  0  0  0
  162.6910  214.4530  147.0920 C   0  0  0  0  0  1  0  0  0  0  0  0
  159.7830  213.8920  153.1130 C   0  0  0  0  0  2  0  0  0  0  0  0
  157.7280  211.1710  153.4680 O   0  0  0  0  0  1  0  0  0  0  0  0
  159.6230  213.4170  151.6600 C   0  0  2  0  0  3  0  0  0  0  0  0
  160.4750  208.2030  152.3450 O   0  0  0  0  0  0  0  0  0  0  0  0
  161.8390  209.0250  155.6410 C   0  0  0  0  0  3  0  0  0  0  0  0
  160.9450  208.6270  154.6350 C   0  0  0  0  0  0  0  0  0  0  0  0
  159.8890  207.7650  154.9510 C   0  0  0  0  0  3  0  0  0  0  0  0
  158.6970  206.4770  156.5630 F   0  0  0  0  0  0  0  0  0  0  0  0
  160.6130  207.7110  157.2610 C   0  0  0  0  0  3  0  0  0  0  0  0
  159.7210  207.3090  156.2610 C   0  0  0  0  0  0  0  0  0  0  0  0
  161.6720  208.5680  156.9510 C   0  0  0  0  0  3  0  0  0  0  0  0
  156.1130  213.7450  149.7210 N   0  0  0  0  0  1  0  0  0  0  0  0
  155.8330  213.6940  151.1450 C   0  0  0  0  0  2  0  0  0  0  0  0
  1  4  1  0  0  0  0
  2 17  1  0  0  0  0
  4 37  1  6  0  0  0
  4 12  1  0  0  0  0
  5 19  1  0  0  0  0
  6  9  1  0  0  0  0
  7  3  1  6  0  0  0
  7 10  1  0  0  0  0
  8 26  1  6  0  0  0
  8 18  1  0  0  0  0
  9 13  1  0  0  0  0
  9  3  2  0  0  0  0
 10 23  1  0  0  0  0
 10  5  1  1  0  0  0
 11  6  2  0  0  0  0
 11 16  1  0  0  0  0
 12  8  1  0  0  0  0
 14  2  1  0  0  0  0
 15 28  1  0  0  0  0
 16 20  2  0  0  0  0
 17 13  1  0  0  0  0
 18 25  1  6  0  0  0
 18 19  1  0  0  0  0
 20  3  1  0  0  0  0
 20 15  1  0  0  0  0
 21 13  1  6  0  0  0
 21  7  1  0  0  0  0
 21 27  1  0  0  0  0
 22  2  1  0  0  0  0
 22  6  1  0  0  0  0
 23 30  1  1  0  0  0
 24  2  1  0  0  0  0
 27  1  1  1  0  0  0
 27 25  1  0  0  0  0
 28 23  1  0  0  0  0
 29 35  1  0  0  0  0
 30 31  1  0  0  0  0
 30 29  2  0  0  0  0
 31 34  2  0  0  0  0
 34 32  1  0  0  0  0
 34 33  1  0  0  0  0
 35 33  2  0  0  0  0
 36 37  1  0  0  0  0
M  END
>  <MODEL>
1

>  <REMARK>
 VINA RESULT:      -2.9      0.000      0.000
  Name = 
  2 active torsions:
  status: ('A' for Active; 'I' for Inactive)
    1  A    between atoms: C_4  and  C_37
    2  A    between atoms: C_23  and  C_30
                            x       y       z     vdW  Elec       q    Type
                         _______ _______ _______ _____ _____    ______ ____

>  <TORSDO>
F 2

$$$$
=
 OpenBabel11122413333D

 37 43  0  0  1  0  0  0  0  0999 V2000
  160.7640  209.0480  151.6550 C   0  0  0  0  0  2  0  0  0  0  0  0
  159.3400  212.0310  155.5850 C   0  0  0  0  0  0  0  0  0  0  0  0
  158.7650  212.6210  151.4620 C   0  0  0  0  0  0  0  0  0  0  0  0
  161.6340  207.8260  151.3530 C   0  0  2  0  0  3  0  0  0  0  0  0
  161.8280  212.6070  149.7170 O   0  0  0  0  0  0  0  0  0  0  0  0
  158.0440  213.1780  153.7060 C   0  0  0  0  0  0  0  0  0  0  0  0
  159.8350  211.7600  150.8470 C   0  0  1  0  0  3  0  0  0  0  0  0
  162.1410  209.1280  149.1300 C   0  0  2  0  0  3  0  0  0  0  0  0
  158.8830  212.5150  152.8220 C   0  0  0  0  0  0  0  0  0  0  0  0
  160.4970  212.2080  149.5310 C   0  0  1  0  0  3  0  0  0  0  0  0
  157.0160  213.9680  153.1720 C   0  0  0  0  0  3  0  0  0  0  0  0
  162.2710  207.8330  149.9490 C   0  0  0  0  0  2  0  0  0  0  0  0
  160.0100  211.7770  153.2280 N   0  0  0  0  0  0  0  0  0  0  0  0
  158.5960  210.7090  155.6790 C   0  0  0  0  0  1  0  0  0  0  0  0
  157.6360  213.6950  149.4270 C   0  0  0  0  0  2  0  0  0  0  0  0
  156.8640  214.0760  151.7750 C   0  0  0  0  0  3  0  0  0  0  0  0
  160.5130  211.8950  154.5930 C   0  0  0  0  0  2  0  0  0  0  0  0
  162.8370  210.3560  149.7520 C   0  0  1  0  0  3  0  0  0  0  0  0
  162.6080  211.6820  149.0020 C   0  0  0  0  0  2  0  0  0  0  0  0
  157.7360  213.4000  150.8980 C   0  0  0  0  0  0  0  0  0  0  0  0
  160.8180  211.5800  152.0320 C   0  0  1  0  0  3  0  0  0  0  0  0
  158.3550  213.1530  155.1790 C   0  0  0  0  0  2  0  0  0  0  0  0
  159.6850  213.2050  148.7020 C   0  0  2  0  0  3  0  0  0  0  0  0
  159.9010  212.3570  156.9530 C   0  0  0  0  0  1  0  0  0  0  0  0
  162.9300  210.4300  151.2840 C   0  0  0  0  0  2  0  0  0  0  0  0
  160.8070  209.3790  148.8060 O   0  0  0  0  0  1  0  0  0  0  0  0
  161.6030  210.2720  152.0420 C   0  0  2  0  0  3  0  0  0  0  0  0
  158.3510  212.7790  148.6460 O   0  0  0  0  0  0  0  0  0  0  0  0
  161.1750  214.3340  147.0050 C   0  0  0  0  0  3  0  0  0  0  0  0
  160.2410  213.3350  147.3180 C   0  0  0  0  0  0  0  0  0  0  0  0
  159.8000  212.4620  146.3170 C   0  0  0  0  0  3  0  0  0  0  0  0
  159.8650  211.7330  144.0490 F   0  0  0  0  0  0  0  0  0  0  0  0
  161.2260  213.5760  144.7080 C   0  0  0  0  0  3  0  0  0  0  0  0
  160.2930  212.5810  145.0150 C   0  0  0  0  0  0  0  0  0  0  0  0
  161.6660  214.4530  145.7020 C   0  0  0  0  0  3  0  0  0  0  0  0
  160.8530  205.7780  150.2930 N   0  0  0  0  0  1  0  0  0  0  0  0
  160.8250  206.5530  151.5210 C   0  0  0  0  0  2  0  0  0  0  0  0
  1 27  1  0  0  0  0
  2 14  1  0  0  0  0
  2 24  1  0  0  0  0
  3  9  1  0  0  0  0
  4 37  1  6  0  0  0
  4  1  1  0  0  0  0
  6 22  1  0  0  0  0
  7  3  1  1  0  0  0
  7 21  1  0  0  0  0
  8 26  1  1  0  0  0
  8 18  1  0  0  0  0
  8 12  1  0  0  0  0
  9 13  1  0  0  0  0
  9  6  2  0  0  0  0
 10  5  1  1  0  0  0
 10  7  1  0  0  0  0
 11  6  1  0  0  0  0
 12  4  1  0  0  0  0
 13 17  1  0  0  0  0
 15 20  1  0  0  0  0
 16 11  2  0  0  0  0
 17  2  1  0  0  0  0
 18 19  1  1  0  0  0
 18 25  1  0  0  0  0
 19  5  1  0  0  0  0
 20  3  2  0  0  0  0
 20 16  1  0  0  0  0
 21 27  1  0  0  0  0
 21 13  1  1  0  0  0
 22  2  1  0  0  0  0
 23 30  1  6  0  0  0
 23 10  1  0  0  0  0
 27 25  1  6  0  0  0
 28 23  1  0  0  0  0
 28 15  1  0  0  0  0
 29 30  1  0  0  0  0
 31 30  2  0  0  0  0
 32 34  1  0  0  0  0
 33 34  2  0  0  0  0
 33 35  1  0  0  0  0
 34 31  1  0  0  0  0
 35 29  2  0  0  0  0
 36 37  1  0  0  0  0
M  END
>  <MODEL>
2

>  <REMARK>
 VINA RESULT:      -1.5      3.286      7.896
  Name = 
  2 active torsions:
  status: ('A' for Active; 'I' for Inactive)
    1  A    between atoms: C_4  and  C_37
    2  A    between atoms: C_23  and  C_30
                            x       y       z     vdW  Elec       q    Type
                         _______ _______ _______ _____ _____    ______ ____

>  <TORSDO>
F 2

$$$$
=
 OpenBabel11122413333D

 37 43  0  0  1  0  0  0  0  0999 V2000
  160.7120  207.1130  151.1020 C   0  0  0  0  0  2  0  0  0  0  0  0
  160.7860  208.5360  156.0350 C   0  0  0  0  0  0  0  0  0  0  0  0
  159.9380  210.8400  152.6210 C   0  0  0  0  0  0  0  0  0  0  0  0
  161.1080  205.9390  150.2040 C   0  0  2  0  0  3  0  0  0  0  0  0
  162.6070  210.7670  150.3190 O   0  0  0  0  0  0  0  0  0  0  0  0
  159.7050  210.6170  155.0210 C   0  0  0  0  0  0  0  0  0  0  0  0
  160.5980  210.0610  151.5170 C   0  0  1  0  0  3  0  0  0  0  0  0
  161.7300  207.8480  148.5130 C   0  0  2  0  0  3  0  0  0  0  0  0
  160.1780  210.1770  153.7950 C   0  0  0  0  0  0  0  0  0  0  0  0
  161.2060  210.8160  150.3210 C   0  0  1  0  0  3  0  0  0  0  0  0
  158.9230  211.7810  155.0460 C   0  0  0  0  0  3  0  0  0  0  0  0
  161.5410  206.3460  148.7820 C   0  0  0  0  0  2  0  0  0  0  0  0
  161.0540  209.0850  153.6480 N   0  0  0  0  0  0  0  0  0  0  0  0
  159.6790  207.5150  155.8370 C   0  0  0  0  0  1  0  0  0  0  0  0
  158.9720  212.8770  151.4020 C   0  0  0  0  0  2  0  0  0  0  0  0
  158.6470  212.4700  153.8470 C   0  0  0  0  0  3  0  0  0  0  0  0
  161.7290  208.5220  154.8140 C   0  0  0  0  0  2  0  0  0  0  0  0
  162.8480  208.5140  149.3400 C   0  0  1  0  0  3  0  0  0  0  0  0
  162.9620  210.0410  149.1690 C   0  0  0  0  0  2  0  0  0  0  0  0
  159.1490  212.0070  152.6150 C   0  0  0  0  0  0  0  0  0  0  0  0
  161.6090  209.1880  152.3040 C   0  0  1  0  0  3  0  0  0  0  0  0
  160.1660  209.9330  156.2800 C   0  0  0  0  0  2  0  0  0  0  0  0
  160.6580  212.2270  150.0980 C   0  0  2  0  0  3  0  0  0  0  0  0
  161.5810  208.1420  157.2610 C   0  0  0  0  0  1  0  0  0  0  0  0
  163.1420  207.9480  150.7380 C   0  0  0  0  0  2  0  0  0  0  0  0
  160.5150  208.5280  148.6140 O   0  0  0  0  0  1  0  0  0  0  0  0
  161.9350  207.8340  151.6810 C   0  0  2  0  0  3  0  0  0  0  0  0
  159.2610  212.2020  150.2100 O   0  0  0  0  0  0  0  0  0  0  0  0
  161.9720  213.8120  148.6370 C   0  0  0  0  0  3  0  0  0  0  0  0
  161.0560  212.7550  148.7550 C   0  0  0  0  0  0  0  0  0  0  0  0
  160.4850  212.2030  147.6040 C   0  0  0  0  0  3  0  0  0  0  0  0
  160.2760  212.1580  145.2300 F   0  0  0  0  0  0  0  0  0  0  0  0
  161.7450  213.7470  146.2290 C   0  0  0  0  0  3  0  0  0  0  0  0
  160.8300  212.6960  146.3430 C   0  0  0  0  0  0  0  0  0  0  0  0
  162.3150  214.3060  147.3750 C   0  0  0  0  0  3  0  0  0  0  0  0
  160.4560  203.5950  150.3040 N   0  0  0  0  0  1  0  0  0  0  0  0
  159.9640  204.9460  150.1050 C   0  0  0  0  0  2  0  0  0  0  0  0
  1 27  1  0  0  0  0
  2 22  1  0  0  0  0
  2 24  1  0  0  0  0
  3  9  1  0  0  0  0
  4 37  1  6  0  0  0
  4  1  1  0  0  0  0
  6 11  1  0  0  0  0
  6 22  1  0  0  0  0
  7 21  1  0  0  0  0
  7  3  1  1  0  0  0
  8 26  1  1  0  0  0
  8 12  1  0  0  0  0
  8 18  1  0  0  0  0
  9  6  2  0  0  0  0
 10  5  1  1  0  0  0
 10  7  1  0  0  0  0
 12  4  1  0  0  0  0
 13  9  1  0  0  0  0
 13 17  1  0  0  0  0
 14  2  1  0  0  0  0
 15 20  1  0  0  0  0
 16 11  2  0  0  0  0
 17  2  1  0  0  0  0
 18 19  1  1  0  0  0
 18 25  1  0  0  0  0
 19  5  1  0  0  0  0
 20  3  2  0  0  0  0
 20 16  1  0  0  0  0
 21 13  1  1  0  0  0
 23 30  1  6  0  0  0
 23 28  1  0  0  0  0
 23 10  1  0  0  0  0
 27 25  1  6  0  0  0
 27 21  1  0  0  0  0
 28 15  1  0  0  0  0
 29 30  1  0  0  0  0
 31 30  2  0  0  0  0
 32 34  1  0  0  0  0
 33 34  2  0  0  0  0
 33 35  1  0  0  0  0
 34 31  1  0  0  0  0
 35 29  2  0  0  0  0
 37 36  1  0  0  0  0
M  END
>  <MODEL>
3

>  <REMARK>
 VINA RESULT:      -0.7      3.157      7.954
  Name = 
  2 active torsions:
  status: ('A' for Active; 'I' for Inactive)
    1  A    between atoms: C_4  and  C_37
    2  A    between atoms: C_23  and  C_30
                            x       y       z     vdW  Elec       q    Type
                         _______ _______ _______ _____ _____    ______ ____

>  <TORSDO>
F 2

$$$$
