=
 OpenBabel11122414093D

 28 32  0  0  1  0  0  0  0  0999 V2000
  160.8780  208.9440  156.0880 C   0  0  0  0  0  0  0  0  0  0  0  0
  157.1490  211.1830  153.5330 F   0  0  0  0  0  0  0  0  0  0  0  0
  162.6410  208.4860  151.6150 O   0  0  0  0  0  0  0  0  0  0  0  0
  162.9530  210.8210  156.2370 C   0  0  0  0  0  3  0  0  0  0  0  0
  161.3470  210.4460  151.5170 N   0  0  0  0  0  0  0  0  0  0  0  0
  159.8190  207.8920  155.9670 C   0  0  0  0  0  2  0  0  0  0  0  0
  157.4280  212.4400  155.3760 F   0  0  0  0  0  0  0  0  0  0  0  0
  157.8860  212.2160  154.0920 C   0  0  0  0  0  0  0  0  0  0  0  0
  158.3560  213.2960  151.9230 C   0  0  1  0  0  3  0  0  0  0  0  0
  159.3910  211.8700  154.1510 C   0  0  2  0  0  3  0  0  0  0  0  0
  162.4160  207.0550  154.2990 O   0  0  0  0  0  1  0  0  0  0  0  0
  159.6610  209.7100  153.0340 C   0  0  1  0  0  3  0  0  0  0  0  0
  159.7500  213.2680  152.1090 O   0  0  0  0  0  0  0  0  0  0  0  0
  157.6590  213.4710  153.2650 C   0  0  0  0  0  2  0  0  0  0  0  0
  161.1150  206.5660  154.1550 C   0  0  2  0  0  3  0  0  0  0  0  0
  160.8080  210.1230  155.3170 C   0  0  0  0  0  0  0  0  0  0  0  0
  161.6530  209.1610  152.0100 C   0  0  0  0  0  0  0  0  0  0  0  0
  157.9960  214.4530  151.0160 C   0  0  0  0  0  1  0  0  0  0  0  0
  160.3580  207.2590  153.0200 C   0  0  0  0  0  2  0  0  0  0  0  0
  161.8680  211.0440  155.3860 C   0  0  0  0  0  3  0  0  0  0  0  0
  161.9620  208.7360  156.9530 C   0  0  0  0  0  3  0  0  0  0  0  0
  162.9950  209.6720  157.0270 C   0  0  0  0  0  3  0  0  0  0  0  0
  160.3700  206.5440  155.4950 C   0  0  0  0  0  2  0  0  0  0  0  0
  160.0310  210.8130  152.0140 C   0  0  1  0  0  3  0  0  0  0  0  0
  160.6890  208.6770  152.9250 N   0  0  0  0  0  0  0  0  0  0  0  0
  160.1180  212.0990  152.8200 C   0  0  2  0  0  3  0  0  0  0  0  0
  161.8680  210.9440  150.3720 O   0  0  0  0  0  1  0  0  0  0  0  0
  159.6050  210.3820  154.4240 C   0  0  1  0  0  3  0  0  0  0  0  0
  1 21  1  0  0  0  0
  2  8  1  0  0  0  0
  3 17  2  0  0  0  0
  4 22  1  0  0  0  0
  5 17  1  0  0  0  0
  6  1  1  0  0  0  0
  8  7  1  0  0  0  0
  9 18  1  6  0  0  0
  9 13  1  0  0  0  0
  9 14  1  0  0  0  0
 10  8  1  6  0  0  0
 10 28  1  0  0  0  0
 12 25  1  1  0  0  0
 12 28  1  0  0  0  0
 14  8  1  0  0  0  0
 15 11  1  1  0  0  0
 15 23  1  0  0  0  0
 16 20  1  0  0  0  0
 16  1  2  0  0  0  0
 17 25  1  0  0  0  0
 19 15  1  0  0  0  0
 20  4  2  0  0  0  0
 21 22  2  0  0  0  0
 23  6  1  0  0  0  0
 24  5  1  1  0  0  0
 24 26  1  0  0  0  0
 24 12  1  0  0  0  0
 25 19  1  0  0  0  0
 26 13  1  6  0  0  0
 26 10  1  0  0  0  0
 27  5  1  0  0  0  0
 28 16  1  6  0  0  0
M  END
>  <MODEL>
1

>  <REMARK>
 VINA RESULT:      -3.9      0.000      0.000
  Name = 
  0 active torsions:
  status: ('A' for Active; 'I' for Inactive)
                            x       y       z     vdW  Elec       q    Type
                         _______ _______ _______ _____ _____    ______ ____

>  <TORSDO>
F 0

$$$$
=
 OpenBabel11122414093D

 28 32  0  0  1  0  0  0  0  0999 V2000
  157.5350  211.5600  156.3520 C   0  0  0  0  0  0  0  0  0  0  0  0
  161.9620  209.4950  155.0920 F   0  0  0  0  0  0  0  0  0  0  0  0
  158.4730  214.1400  152.3790 O   0  0  0  0  0  0  0  0  0  0  0  0
  155.6340  210.4310  154.6330 C   0  0  0  0  0  3  0  0  0  0  0  0
  159.5390  212.0830  151.9830 N   0  0  0  0  0  0  0  0  0  0  0  0
  158.5340  212.2360  157.2400 C   0  0  0  0  0  2  0  0  0  0  0  0
  160.6860  207.7710  155.7670 F   0  0  0  0  0  0  0  0  0  0  0  0
  161.0000  208.5790  154.6910 C   0  0  0  0  0  0  0  0  0  0  0  0
  161.7270  208.5720  152.3330 C   0  0  1  0  0  3  0  0  0  0  0  0
  159.7140  209.2850  154.2060 C   0  0  2  0  0  3  0  0  0  0  0  0
  157.2770  214.3320  155.1780 O   0  0  0  0  0  1  0  0  0  0  0  0
  160.1730  211.6890  154.2490 C   0  0  1  0  0  3  0  0  0  0  0  0
  160.4540  208.9200  151.8460 O   0  0  0  0  0  0  0  0  0  0  0  0
  161.5860  207.7180  153.5850 C   0  0  0  0  0  2  0  0  0  0  0  0
  158.4690  214.4530  155.8960 C   0  0  2  0  0  3  0  0  0  0  0  0
  157.9630  210.7890  155.2510 C   0  0  0  0  0  0  0  0  0  0  0  0
  159.0660  213.1180  152.8160 C   0  0  0  0  0  0  0  0  0  0  0  0
  162.4730  207.7910  151.2730 C   0  0  0  0  0  1  0  0  0  0  0  0
  159.6890  214.0550  155.0630 C   0  0  0  0  0  2  0  0  0  0  0  0
  156.9960  210.2470  154.3850 C   0  0  0  0  0  3  0  0  0  0  0  0
  156.1660  211.7240  156.6040 C   0  0  0  0  0  3  0  0  0  0  0  0
  155.2190  211.1600  155.7470 C   0  0  0  0  0  3  0  0  0  0  0  0
  158.3770  213.7600  157.2610 C   0  0  0  0  0  2  0  0  0  0  0  0
  160.3660  211.2020  152.7920 C   0  0  1  0  0  3  0  0  0  0  0  0
  159.4060  212.9310  154.1770 N   0  0  0  0  0  0  0  0  0  0  0  0
  159.8080  209.7890  152.7590 C   0  0  2  0  0  3  0  0  0  0  0  0
  159.6960  212.2210  150.6470 O   0  0  0  0  0  1  0  0  0  0  0  0
  159.4460  210.5570  155.0090 C   0  0  1  0  0  3  0  0  0  0  0  0
  1 21  1  0  0  0  0
  1  6  1  0  0  0  0
  3 17  2  0  0  0  0
  4 22  1  0  0  0  0
  5 17  1  0  0  0  0
  6 23  1  0  0  0  0
  8  2  1  0  0  0  0
  8  7  1  0  0  0  0
  9 18  1  6  0  0  0
  9 14  1  0  0  0  0
 10  8  1  1  0  0  0
 10 28  1  0  0  0  0
 12 25  1  6  0  0  0
 12 28  1  0  0  0  0
 13  9  1  0  0  0  0
 14  8  1  0  0  0  0
 15 11  1  6  0  0  0
 15 23  1  0  0  0  0
 16  1  2  0  0  0  0
 17 25  1  0  0  0  0
 19 15  1  0  0  0  0
 20  4  2  0  0  0  0
 20 16  1  0  0  0  0
 22 21  2  0  0  0  0
 24  5  1  6  0  0  0
 24 12  1  0  0  0  0
 25 19  1  0  0  0  0
 26 13  1  6  0  0  0
 26 24  1  0  0  0  0
 26 10  1  0  0  0  0
 27  5  1  0  0  0  0
 28 16  1  6  0  0  0
M  END
>  <MODEL>
2

>  <REMARK>
 VINA RESULT:      -2.3      2.675      5.595
  Name = 
  0 active torsions:
  status: ('A' for Active; 'I' for Inactive)
                            x       y       z     vdW  Elec       q    Type
                         _______ _______ _______ _____ _____    ______ ____

>  <TORSDO>
F 0

$$$$
=
 OpenBabel11122414093D

 28 32  0  0  1  0  0  0  0  0999 V2000
  160.9390  213.5870  140.2050 C   0  0  0  0  0  0  0  0  0  0  0  0
  156.0870  212.2320  140.4620 F   0  0  0  0  0  0  0  0  0  0  0  0
  161.3520  209.0070  138.7310 O   0  0  0  0  0  0  0  0  0  0  0  0
  161.4760  214.0420  137.4930 C   0  0  0  0  0  3  0  0  0  0  0  0
  159.1910  209.6300  138.0480 N   0  0  0  0  0  0  0  0  0  0  0  0
  160.7080  213.2850  141.6540 C   0  0  0  0  0  2  0  0  0  0  0  0
  156.0650  214.3180  139.6230 F   0  0  0  0  0  0  0  0  0  0  0  0
  156.2000  212.9810  139.3000 C   0  0  0  0  0  0  0  0  0  0  0  0
  155.3460  211.1830  137.8410 C   0  0  1  0  0  3  0  0  0  0  0  0
  157.5710  212.7680  138.6200 C   0  0  2  0  0  3  0  0  0  0  0  0
  162.7370  211.1650  140.3830 O   0  0  0  0  0  1  0  0  0  0  0  0
  158.7360  211.0460  139.9120 C   0  0  1  0  0  3  0  0  0  0  0  0
  156.4820  211.1950  137.0110 O   0  0  0  0  0  0  0  0  0  0  0  0
  155.0720  212.5870  138.3610 C   0  0  0  0  0  2  0  0  0  0  0  0
  161.9860  211.0310  141.5540 C   0  0  2  0  0  3  0  0  0  0  0  0
  159.9900  213.2060  139.2340 C   0  0  0  0  0  0  0  0  0  0  0  0
  160.3080  209.6900  138.9060 C   0  0  0  0  0  0  0  0  0  0  0  0
  154.1510  210.6990  137.0490 C   0  0  0  0  0  1  0  0  0  0  0  0
  160.6960  210.2400  141.3280 C   0  0  0  0  0  2  0  0  0  0  0  0
  160.2850  213.4210  137.8750 C   0  0  0  0  0  3  0  0  0  0  0  0
  162.1240  214.2260  139.8140 C   0  0  0  0  0  3  0  0  0  0  0  0
  162.3910  214.4530  138.4630 C   0  0  0  0  0  3  0  0  0  0  0  0
  161.7890  212.3820  142.2540 C   0  0  0  0  0  2  0  0  0  0  0  0
  158.1020  210.3570  138.6800 C   0  0  1  0  0  3  0  0  0  0  0  0
  160.0970  210.5260  140.0280 N   0  0  0  0  0  0  0  0  0  0  0  0
  157.6370  211.4870  137.7770 C   0  0  2  0  0  3  0  0  0  0  0  0
  158.9920  208.6280  137.1600 O   0  0  0  0  0  1  0  0  0  0  0  0
  158.6760  212.5690  139.6570 C   0  0  1  0  0  3  0  0  0  0  0  0
  1  6  1  0  0  0  0
  3 17  2  0  0  0  0
  4 20  2  0  0  0  0
  4 22  1  0  0  0  0
  5 17  1  0  0  0  0
  6 23  1  0  0  0  0
  8  7  1  0  0  0  0
  8  2  1  0  0  0  0
  9 18  1  6  0  0  0
  9 14  1  0  0  0  0
 10  8  1  1  0  0  0
 10 28  1  0  0  0  0
 12 25  1  6  0  0  0
 13  9  1  0  0  0  0
 14  8  1  0  0  0  0
 15 11  1  6  0  0  0
 15 23  1  0  0  0  0
 16  1  2  0  0  0  0
 17 25  1  0  0  0  0
 19 15  1  0  0  0  0
 20 16  1  0  0  0  0
 21  1  1  0  0  0  0
 22 21  2  0  0  0  0
 24  5  1  6  0  0  0
 24 12  1  0  0  0  0
 25 19  1  0  0  0  0
 26 13  1  1  0  0  0
 26 10  1  0  0  0  0
 26 24  1  0  0  0  0
 27  5  1  0  0  0  0
 28 16  1  6  0  0  0
 28 12  1  0  0  0  0
M  END
>  <MODEL>
3

>  <REMARK>
 VINA RESULT:      -2.1     12.678     15.116
  Name = 
  0 active torsions:
  status: ('A' for Active; 'I' for Inactive)
                            x       y       z     vdW  Elec       q    Type
                         _______ _______ _______ _____ _____    ______ ____

>  <TORSDO>
F 0

$$$$
=
 OpenBabel11122414093D

 28 32  0  0  1  0  0  0  0  0999 V2000
  161.6920  210.0030  154.5000 C   0  0  0  0  0  0  0  0  0  0  0  0
  160.4860  214.1890  151.9570 F   0  0  0  0  0  0  0  0  0  0  0  0
  157.5550  211.0870  156.7430 O   0  0  0  0  0  0  0  0  0  0  0  0
  160.0770  207.9660  153.4560 C   0  0  0  0  0  3  0  0  0  0  0  0
  157.2670  211.9480  154.5740 N   0  0  0  0  0  0  0  0  0  0  0  0
  162.5210  211.0800  155.1300 C   0  0  0  0  0  2  0  0  0  0  0  0
  161.2860  212.7730  150.4030 F   0  0  0  0  0  0  0  0  0  0  0  0
  160.1580  213.1370  151.1140 C   0  0  0  0  0  0  0  0  0  0  0  0
  157.7920  213.8070  150.9000 C   0  0  1  0  0  3  0  0  0  0  0  0
  159.6520  211.9120  151.9080 C   0  0  2  0  0  3  0  0  0  0  0  0
  160.3570  209.9770  157.2110 O   0  0  0  0  0  1  0  0  0  0  0  0
  159.5410  212.5930  154.2560 C   0  0  1  0  0  3  0  0  0  0  0  0
  157.3060  212.5610  151.3360 O   0  0  0  0  0  0  0  0  0  0  0  0
  159.0960  213.6150  150.1380 C   0  0  0  0  0  2  0  0  0  0  0  0
  161.0460  211.1910  157.2610 C   0  0  2  0  0  3  0  0  0  0  0  0
  160.6330  210.3320  153.6290 C   0  0  0  0  0  0  0  0  0  0  0  0
  158.0430  211.5920  155.6960 C   0  0  0  0  0  0  0  0  0  0  0  0
  156.7690  214.4530  149.9900 C   0  0  0  0  0  1  0  0  0  0  0  0
  160.2190  212.3500  156.7010 C   0  0  0  0  0  2  0  0  0  0  0  0
  159.8180  209.3000  153.1310 C   0  0  0  0  0  3  0  0  0  0  0  0
  161.9570  208.6610  154.8060 C   0  0  0  0  0  3  0  0  0  0  0  0
  161.1520  207.6460  154.2850 C   0  0  0  0  0  3  0  0  0  0  0  0
  162.4520  211.0660  156.6600 C   0  0  0  0  0  2  0  0  0  0  0  0
  158.1140  212.7070  153.6680 C   0  0  1  0  0  3  0  0  0  0  0  0
  159.4070  211.9440  155.5590 N   0  0  0  0  0  0  0  0  0  0  0  0
  158.1760  212.0200  152.3140 C   0  0  2  0  0  3  0  0  0  0  0  0
  155.9220  212.0870  154.6180 O   0  0  0  0  0  1  0  0  0  0  0  0
  160.3810  211.7810  153.2450 C   0  0  1  0  0  3  0  0  0  0  0  0
  1 21  1  0  0  0  0
  1  6  1  0  0  0  0
  4 22  1  0  0  0  0
  5 27  1  0  0  0  0
  5 17  1  0  0  0  0
  6 23  1  0  0  0  0
  7  8  1  0  0  0  0
  8  2  1  0  0  0  0
  9 18  1  6  0  0  0
  9 13  1  0  0  0  0
 10  8  1  1  0  0  0
 10 26  1  0  0  0  0
 10 28  1  0  0  0  0
 12 25  1  1  0  0  0
 14  9  1  0  0  0  0
 14  8  1  0  0  0  0
 15 11  1  6  0  0  0
 16  1  2  0  0  0  0
 17  3  2  0  0  0  0
 19 15  1  0  0  0  0
 20  4  2  0  0  0  0
 20 16  1  0  0  0  0
 22 21  2  0  0  0  0
 23 15  1  0  0  0  0
 24 12  1  0  0  0  0
 24  5  1  1  0  0  0
 25 17  1  0  0  0  0
 25 19  1  0  0  0  0
 26 13  1  6  0  0  0
 26 24  1  0  0  0  0
 28 16  1  1  0  0  0
 28 12  1  0  0  0  0
M  END
>  <MODEL>
4

>  <REMARK>
 VINA RESULT:      -1.3      2.768      4.336
  Name = 
  0 active torsions:
  status: ('A' for Active; 'I' for Inactive)
                            x       y       z     vdW  Elec       q    Type
                         _______ _______ _______ _____ _____    ______ ____

>  <TORSDO>
F 0

$$$$
