=
 OpenBabel11122414193D

 34 40  0  0  1  0  0  0  0  0999 V2000
  160.9070  205.2720  151.1600 C   0  0  0  0  0  0  0  0  0  0  0  0
  160.9030  206.5810  153.3250 C   0  0  0  0  0  3  0  0  0  0  0  0
  160.8600  205.2590  144.7840 C   0  0  1  0  0  3  0  0  0  0  0  0
  161.4750  204.2030  149.0530 C   0  0  0  0  0  0  0  0  0  0  0  0
  162.0530  205.5980  147.0780 C   0  0  1  0  0  3  0  0  0  0  0  0
  159.5190  205.8680  146.8270 C   0  0  0  0  0  1  0  0  0  0  0  0
  161.4120  206.1960  143.7300 C   0  0  0  0  0  1  0  0  0  0  0  0
  161.1250  202.9420  145.7670 C   0  0  0  0  0  2  0  0  0  0  0  0
  160.7240  207.7750  151.3050 C   0  0  2  0  0  3  0  0  0  0  0  0
  161.7910  210.6290  151.3500 C   0  0  0  0  0  2  0  0  0  0  0  0
  162.2520  206.6470  148.0280 O   0  0  0  0  0  0  0  0  0  0  0  0
  162.0580  203.0020  146.9650 C   0  0  0  0  0  2  0  0  0  0  0  0
  161.8040  207.8180  150.2090 C   0  0  1  0  0  3  0  0  0  0  0  0
  161.0100  207.8470  153.6820 C   0  0  0  0  0  3  0  0  0  0  0  0
  161.8630  204.2590  147.7620 C   0  0  2  0  0  3  0  0  0  0  0  0
  161.5960  203.9210  144.7040 C   0  0  0  0  0  2  0  0  0  0  0  0
  162.0980  209.6110  152.3510 N   0  0  0  0  0  0  0  0  0  0  0  0
  161.3650  205.3780  149.8320 C   0  0  0  0  0  0  0  0  0  0  0  0
  160.8780  205.9590  146.1500 C   0  0  2  0  0  3  0  0  0  0  0  0
  161.7610  206.5750  149.3380 C   0  0  2  0  0  3  0  0  0  0  0  0
  160.7850  202.8810  150.9170 C   0  0  0  0  0  3  0  0  0  0  0  0
  162.3960  210.2450  150.0070 C   0  0  0  0  0  2  0  0  0  0  0  0
  161.1950  202.9950  149.6260 N   0  0  0  0  0  0  0  0  0  0  0  0
  161.6480  209.0810  149.3730 C   0  0  0  0  0  2  0  0  0  0  0  0
  160.9080  208.7590  152.4880 C   0  0  1  0  0  3  0  0  0  0  0  0
  160.6270  204.0190  151.7070 C   0  0  0  0  0  3  0  0  0  0  0  0
  160.7250  206.4650  151.9260 N   0  0  0  0  0  0  0  0  0  0  0  0
  162.2740  210.2800  153.5190 O   0  0  0  0  0  0  0  0  0  0  0  0
  161.1390  211.0870  153.6450 C   0  0  0  0  0  2  0  0  0  0  0  0
  159.7980  209.6880  156.2460 O   0  0  0  0  0  0  0  0  0  0  0  0
  161.9050  210.7130  155.9660 C   0  0  0  0  0  2  0  0  0  0  0  0
  160.9120  211.4390  155.1050 C   0  0  2  0  0  3  0  0  0  0  0  0
  161.0500  209.8420  156.8540 C   0  0  0  0  0  2  0  0  0  0  0  0
  159.5770  210.8880  155.5520 C   0  0  0  0  0  2  0  0  0  0  0  0
  1 26  1  0  0  0  0
  1 27  1  0  0  0  0
  2 14  2  0  0  0  0
  3  7  1  6  0  0  0
  3 19  1  0  0  0  0
  4 23  2  0  0  0  0
  4 18  1  0  0  0  0
  5 15  1  0  0  0  0
  5 11  1  1  0  0  0
  8 12  1  0  0  0  0
  9 27  1  1  0  0  0
  9 25  1  0  0  0  0
 10 17  1  0  0  0  0
 13 24  1  6  0  0  0
 13  9  1  0  0  0  0
 15 12  1  6  0  0  0
 15  4  1  0  0  0  0
 16  3  1  0  0  0  0
 16  8  1  0  0  0  0
 17 25  1  0  0  0  0
 17 28  1  0  0  0  0
 18  1  2  0  0  0  0
 19  6  1  1  0  0  0
 19  5  1  0  0  0  0
 20 11  1  1  0  0  0
 20 18  1  0  0  0  0
 20 13  1  0  0  0  0
 21 26  2  0  0  0  0
 22 10  1  0  0  0  0
 23 21  1  0  0  0  0
 24 22  1  0  0  0  0
 25 14  1  1  0  0  0
 27  2  1  0  0  0  0
 28 29  1  0  0  0  0
 30 33  1  0  0  0  0
 31 33  1  0  0  0  0
 32 29  1  6  0  0  0
 32 34  1  0  0  0  0
 32 31  1  0  0  0  0
 34 30  1  0  0  0  0
M  END
>  <MODEL>
1

>  <REMARK>
 VINA RESULT:      -7.5      0.000      0.000
  Name = 
  3 active torsions:
  status: ('A' for Active; 'I' for Inactive)
    1  A    between atoms: N_17  and  O_28
    2  A    between atoms: O_28  and  C_29
    3  A    between atoms: C_29  and  C_32
                            x       y       z     vdW  Elec       q    Type
                         _______ _______ _______ _____ _____    ______ ____

>  <TORSDO>
F 3

$$$$
=
 OpenBabel11122414193D

 34 40  0  0  1  0  0  0  0  0999 V2000
  161.6910  209.2580  151.6350 C   0  0  0  0  0  0  0  0  0  0  0  0
  161.6110  211.1160  153.3510 C   0  0  0  0  0  3  0  0  0  0  0  0
  161.5810  203.0190  150.3300 C   0  0  1  0  0  3  0  0  0  0  0  0
  161.1870  207.4360  150.1090 C   0  0  0  0  0  0  0  0  0  0  0  0
  160.4170  205.2510  151.0100 C   0  0  1  0  0  3  0  0  0  0  0  0
  162.9020  204.8360  151.4700 C   0  0  0  0  0  1  0  0  0  0  0  0
  160.9080  201.8240  150.9730 C   0  0  0  0  0  1  0  0  0  0  0  0
  161.5860  204.4550  148.2460 C   0  0  0  0  0  2  0  0  0  0  0  0
  161.6140  208.8920  154.1210 C   0  0  2  0  0  3  0  0  0  0  0  0
  160.2550  208.4140  156.8060 C   0  0  0  0  0  2  0  0  0  0  0  0
  160.1330  205.9790  152.2050 O   0  0  0  0  0  0  0  0  0  0  0  0
  160.6810  205.6590  148.4570 C   0  0  0  0  0  2  0  0  0  0  0  0
  160.5080  207.8600  153.8340 C   0  0  1  0  0  3  0  0  0  0  0  0
  161.3810  211.2170  154.6470 C   0  0  0  0  0  3  0  0  0  0  0  0
  160.7630  206.1790  149.8630 C   0  0  2  0  0  3  0  0  0  0  0  0
  160.9880  203.2410  148.9380 C   0  0  0  0  0  2  0  0  0  0  0  0
  160.0820  209.6110  155.9880 N   0  0  0  0  0  0  0  0  0  0  0  0
  161.1920  207.9590  151.4230 C   0  0  0  0  0  0  0  0  0  0  0  0
  161.5240  204.2170  151.2880 C   0  0  2  0  0  3  0  0  0  0  0  0
  160.6610  207.2540  152.4510 C   0  0  2  0  0  3  0  0  0  0  0  0
  162.0570  209.4930  149.2680 C   0  0  0  0  0  3  0  0  0  0  0  0
  159.6600  207.2040  156.0990 C   0  0  0  0  0  2  0  0  0  0  0  0
  161.6060  208.2260  149.0770 N   0  0  0  0  0  0  0  0  0  0  0  0
  160.5110  206.7820  154.9100 C   0  0  0  0  0  2  0  0  0  0  0  0
  161.3570  209.8610  155.3020 C   0  0  1  0  0  3  0  0  0  0  0  0
  162.1140  210.0320  150.5530 C   0  0  0  0  0  3  0  0  0  0  0  0
  161.7660  209.7620  152.9710 N   0  0  0  0  0  0  0  0  0  0  0  0
  159.8650  210.6290  156.8600 O   0  0  0  0  0  0  0  0  0  0  0  0
  158.4760  210.7860  156.8910 C   0  0  0  0  0  2  0  0  0  0  0  0
  155.8030  212.1400  155.6500 O   0  0  0  0  0  0  0  0  0  0  0  0
  158.0800  212.6810  155.3540 C   0  0  0  0  0  2  0  0  0  0  0  0
  157.9690  211.1930  155.5190 C   0  0  2  0  0  3  0  0  0  0  0  0
  156.6550  213.1340  155.1520 C   0  0  0  0  0  2  0  0  0  0  0  0
  156.4830  210.9320  155.4340 C   0  0  0  0  0  2  0  0  0  0  0  0
  1 27  1  0  0  0  0
  2 14  2  0  0  0  0
  3  7  1  1  0  0  0
  3 19  1  0  0  0  0
  4 18  2  0  0  0  0
  5 19  1  0  0  0  0
  5 11  1  1  0  0  0
  8 12  1  0  0  0  0
  8 16  1  0  0  0  0
  9 27  1  6  0  0  0
  9 25  1  0  0  0  0
 11 20  1  0  0  0  0
 13  9  1  0  0  0  0
 13 24  1  1  0  0  0
 15 12  1  1  0  0  0
 15  4  1  0  0  0  0
 15  5  1  0  0  0  0
 16  3  1  0  0  0  0
 17 10  1  0  0  0  0
 17 28  1  0  0  0  0
 18  1  1  0  0  0  0
 19  6  1  6  0  0  0
 20 18  1  6  0  0  0
 20 13  1  0  0  0  0
 21 26  1  0  0  0  0
 22 10  1  0  0  0  0
 23 21  2  0  0  0  0
 23  4  1  0  0  0  0
 24 22  1  0  0  0  0
 25 14  1  6  0  0  0
 25 17  1  0  0  0  0
 26  1  2  0  0  0  0
 27  2  1  0  0  0  0
 28 29  1  0  0  0  0
 31 32  1  0  0  0  0
 32 29  1  1  0  0  0
 33 31  1  0  0  0  0
 33 30  1  0  0  0  0
 34 32  1  0  0  0  0
 34 30  1  0  0  0  0
M  END
>  <MODEL>
2

>  <REMARK>
 VINA RESULT:      -7.1      2.264      4.786
  Name = 
  3 active torsions:
  status: ('A' for Active; 'I' for Inactive)
    1  A    between atoms: N_17  and  O_28
    2  A    between atoms: O_28  and  C_29
    3  A    between atoms: C_29  and  C_32
                            x       y       z     vdW  Elec       q    Type
                         _______ _______ _______ _____ _____    ______ ____

>  <TORSDO>
F 3

$$$$
=
 OpenBabel11122414193D

 34 40  0  0  1  0  0  0  0  0999 V2000
  161.6710  209.2130  151.6420 C   0  0  0  0  0  0  0  0  0  0  0  0
  161.5760  211.0770  153.3510 C   0  0  0  0  0  3  0  0  0  0  0  0
  161.6300  202.9680  150.3630 C   0  0  1  0  0  3  0  0  0  0  0  0
  161.1830  207.3780  150.1250 C   0  0  0  0  0  0  0  0  0  0  0  0
  160.4420  205.1880  151.0380 C   0  0  1  0  0  3  0  0  0  0  0  0
  162.9330  204.8050  151.4910 C   0  0  0  0  0  1  0  0  0  0  0  0
  160.9730  201.7680  151.0140 C   0  0  0  0  0  1  0  0  0  0  0  0
  161.6110  204.3950  148.2740 C   0  0  0  0  0  2  0  0  0  0  0  0
  161.6060  208.8560  154.1300 C   0  0  2  0  0  3  0  0  0  0  0  0
  160.2620  208.3750  156.8210 C   0  0  0  0  0  2  0  0  0  0  0  0
  160.1530  205.9190  152.2310 O   0  0  0  0  0  0  0  0  0  0  0  0
  160.6930  205.5890  148.4830 C   0  0  0  0  0  2  0  0  0  0  0  0
  160.5120  207.8110  153.8510 C   0  0  1  0  0  3  0  0  0  0  0  0
  161.3480  211.1810  154.6470 C   0  0  0  0  0  3  0  0  0  0  0  0
  160.7740  206.1160  149.8860 C   0  0  2  0  0  3  0  0  0  0  0  0
  161.0300  203.1770  148.9730 C   0  0  0  0  0  2  0  0  0  0  0  0
  160.0720  209.5660  155.9980 N   0  0  0  0  0  0  0  0  0  0  0  0
  161.1870  207.9070  151.4370 C   0  0  0  0  0  0  0  0  0  0  0  0
  161.5620  204.1690  151.3170 C   0  0  2  0  0  3  0  0  0  0  0  0
  160.6670  207.2010  152.4690 C   0  0  2  0  0  3  0  0  0  0  0  0
  162.0270  209.4430  149.2730 C   0  0  0  0  0  3  0  0  0  0  0  0
  159.6790  207.1540  156.1220 C   0  0  0  0  0  2  0  0  0  0  0  0
  161.5900  208.1690  149.0890 N   0  0  0  0  0  0  0  0  0  0  0  0
  160.5310  206.7370  154.9310 C   0  0  0  0  0  2  0  0  0  0  0  0
  161.3430  209.8280  155.3070 C   0  0  1  0  0  3  0  0  0  0  0  0
  162.0820  209.9870  150.5550 C   0  0  0  0  0  3  0  0  0  0  0  0
  161.7450  209.7230  152.9760 N   0  0  0  0  0  0  0  0  0  0  0  0
  159.8460  210.5840  156.8670 O   0  0  0  0  0  0  0  0  0  0  0  0
  158.5380  210.9990  156.6020 C   0  0  0  0  0  2  0  0  0  0  0  0
  159.8810  213.9140  156.1410 O   0  0  0  0  0  0  0  0  0  0  0  0
  157.6230  213.2340  156.0720 C   0  0  0  0  0  2  0  0  0  0  0  0
  158.3290  212.4140  157.1130 C   0  0  2  0  0  3  0  0  0  0  0  0
  158.6040  214.3330  155.7450 C   0  0  0  0  0  2  0  0  0  0  0  0
  159.6690  213.0970  157.2610 C   0  0  0  0  0  2  0  0  0  0  0  0
  1 27  1  0  0  0  0
  2 14  2  0  0  0  0
  3  7  1  1  0  0  0
  3 19  1  0  0  0  0
  4 18  2  0  0  0  0
  5 19  1  0  0  0  0
  5 11  1  1  0  0  0
  8 12  1  0  0  0  0
  8 16  1  0  0  0  0
  9 27  1  6  0  0  0
  9 25  1  0  0  0  0
 11 20  1  0  0  0  0
 13  9  1  0  0  0  0
 13 24  1  1  0  0  0
 15 12  1  1  0  0  0
 15  4  1  0  0  0  0
 15  5  1  0  0  0  0
 16  3  1  0  0  0  0
 17 10  1  0  0  0  0
 17 28  1  0  0  0  0
 18  1  1  0  0  0  0
 19  6  1  6  0  0  0
 20 18  1  6  0  0  0
 20 13  1  0  0  0  0
 21 26  1  0  0  0  0
 22 10  1  0  0  0  0
 23 21  2  0  0  0  0
 23  4  1  0  0  0  0
 24 22  1  0  0  0  0
 25 14  1  6  0  0  0
 25 17  1  0  0  0  0
 26  1  2  0  0  0  0
 27  2  1  0  0  0  0
 29 28  1  0  0  0  0
 30 34  1  0  0  0  0
 31 32  1  0  0  0  0
 32 29  1  6  0  0  0
 32 34  1  0  0  0  0
 33 31  1  0  0  0  0
 33 30  1  0  0  0  0
M  END
>  <MODEL>
3

>  <REMARK>
 VINA RESULT:      -6.8      2.263      4.770
  Name = 
  3 active torsions:
  status: ('A' for Active; 'I' for Inactive)
    1  A    between atoms: N_17  and  O_28
    2  A    between atoms: O_28  and  C_29
    3  A    between atoms: C_29  and  C_32
                            x       y       z     vdW  Elec       q    Type
                         _______ _______ _______ _____ _____    ______ ____

>  <TORSDO>
F 3

$$$$
=
 OpenBabel11122414193D

 34 40  0  0  1  0  0  0  0  0999 V2000
  161.8430  208.5220  150.8640 C   0  0  0  0  0  0  0  0  0  0  0  0
  161.8230  210.6090  152.2930 C   0  0  0  0  0  3  0  0  0  0  0  0
  161.4390  202.1720  150.4600 C   0  0  1  0  0  3  0  0  0  0  0  0
  161.2790  206.5240  149.5990 C   0  0  0  0  0  0  0  0  0  0  0  0
  160.3770  204.5310  150.7810 C   0  0  1  0  0  3  0  0  0  0  0  0
  162.8270  204.0680  151.3670 C   0  0  0  0  0  1  0  0  0  0  0  0
  160.6910  201.1160  151.2480 C   0  0  0  0  0  1  0  0  0  0  0  0
  161.5630  203.2910  148.1940 C   0  0  0  0  0  2  0  0  0  0  0  0
  161.6930  208.5210  153.3730 C   0  0  2  0  0  3  0  0  0  0  0  0
  160.2530  208.5020  156.0580 C   0  0  0  0  0  2  0  0  0  0  0  0
  160.1050  205.4380  151.8510 O   0  0  0  0  0  0  0  0  0  0  0  0
  160.7180  204.5550  148.2040 C   0  0  0  0  0  2  0  0  0  0  0  0
  160.5420  207.5130  153.2040 C   0  0  1  0  0  3  0  0  0  0  0  0
  161.5690  210.9070  153.5540 C   0  0  0  0  0  3  0  0  0  0  0  0
  160.7960  205.2670  149.5230 C   0  0  2  0  0  3  0  0  0  0  0  0
  160.8880  202.2190  149.0340 C   0  0  0  0  0  2  0  0  0  0  0  0
  160.1600  209.5750  155.0720 N   0  0  0  0  0  0  0  0  0  0  0  0
  161.2820  207.2310  150.8250 C   0  0  0  0  0  0  0  0  0  0  0  0
  161.4230  203.4970  151.2350 C   0  0  2  0  0  3  0  0  0  0  0  0
  160.6930  206.7080  151.9270 C   0  0  2  0  0  3  0  0  0  0  0  0
  162.2730  208.3950  148.4990 C   0  0  0  0  0  3  0  0  0  0  0  0
  159.6120  207.2320  155.5150 C   0  0  0  0  0  2  0  0  0  0  0  0
  161.7610  207.1360  148.4780 N   0  0  0  0  0  0  0  0  0  0  0  0
  160.4650  206.6020  154.4220 C   0  0  0  0  0  2  0  0  0  0  0  0
  161.4610  209.6620  154.3950 C   0  0  1  0  0  3  0  0  0  0  0  0
  162.3300  209.1090  149.6940 C   0  0  0  0  0  3  0  0  0  0  0  0
  161.9150  209.2080  152.1150 N   0  0  0  0  0  0  0  0  0  0  0  0
  159.9770  210.7170  155.7840 O   0  0  0  0  0  0  0  0  0  0  0  0
  158.6220  210.7130  156.1280 C   0  0  0  0  0  2  0  0  0  0  0  0
  159.2210  213.1140  154.0320 O   0  0  0  0  0  0  0  0  0  0  0  0
  157.2500  211.8820  154.4360 C   0  0  0  0  0  2  0  0  0  0  0  0
  157.9830  212.0340  155.7370 C   0  0  2  0  0  3  0  0  0  0  0  0
  157.9510  212.8420  153.5070 C   0  0  0  0  0  2  0  0  0  0  0  0
  159.0660  213.0410  155.4240 C   0  0  0  0  0  2  0  0  0  0  0  0
  1 27  1  0  0  0  0
  2 14  2  0  0  0  0
  3 19  1  0  0  0  0
  3  7  1  1  0  0  0
  4 18  2  0  0  0  0
  5 19  1  0  0  0  0
  5 11  1  1  0  0  0
  8 12  1  0  0  0  0
  8 16  1  0  0  0  0
  9 27  1  6  0  0  0
  9 25  1  0  0  0  0
 11 20  1  0  0  0  0
 13  9  1  0  0  0  0
 13 24  1  1  0  0  0
 15 12  1  1  0  0  0
 15  4  1  0  0  0  0
 15  5  1  0  0  0  0
 16  3  1  0  0  0  0
 17 28  1  0  0  0  0
 17 10  1  0  0  0  0
 18  1  1  0  0  0  0
 19  6  1  6  0  0  0
 20 18  1  6  0  0  0
 20 13  1  0  0  0  0
 21 26  1  0  0  0  0
 22 10  1  0  0  0  0
 23 21  2  0  0  0  0
 23  4  1  0  0  0  0
 24 22  1  0  0  0  0
 25 14  1  6  0  0  0
 25 17  1  0  0  0  0
 26  1  2  0  0  0  0
 27  2  1  0  0  0  0
 28 29  1  0  0  0  0
 30 34  1  0  0  0  0
 31 32  1  0  0  0  0
 32 29  1  6  0  0  0
 33 30  1  0  0  0  0
 33 31  1  0  0  0  0
 34 32  1  0  0  0  0
M  END
>  <MODEL>
4

>  <REMARK>
 VINA RESULT:      -5.6      2.152      4.463
  Name = 
  3 active torsions:
  status: ('A' for Active; 'I' for Inactive)
    1  A    between atoms: N_17  and  O_28
    2  A    between atoms: O_28  and  C_29
    3  A    between atoms: C_29  and  C_32
                            x       y       z     vdW  Elec       q    Type
                         _______ _______ _______ _____ _____    ______ ____

>  <TORSDO>
F 3

$$$$
=
 OpenBabel11122414193D

 34 40  0  0  1  0  0  0  0  0999 V2000
  161.6270  208.3890  149.8570 C   0  0  0  0  0  0  0  0  0  0  0  0
  161.6030  206.9280  147.7910 C   0  0  0  0  0  3  0  0  0  0  0  0
  160.4110  209.0730  156.0780 C   0  0  1  0  0  3  0  0  0  0  0  0
  162.1080  209.4450  151.9930 C   0  0  0  0  0  0  0  0  0  0  0  0
  161.8340  208.1510  154.0970 C   0  0  1  0  0  3  0  0  0  0  0  0
  159.3460  208.6960  153.8270 C   0  0  0  0  0  1  0  0  0  0  0  0
  160.4290  208.1270  157.2610 C   0  0  0  0  0  1  0  0  0  0  0  0
  161.5800  211.0840  155.0820 C   0  0  0  0  0  2  0  0  0  0  0  0
  160.6820  206.0610  149.7760 C   0  0  2  0  0  3  0  0  0  0  0  0
  160.7680  203.0290  150.0660 C   0  0  0  0  0  2  0  0  0  0  0  0
  161.8580  207.0000  153.2520 O   0  0  0  0  0  0  0  0  0  0  0  0
  162.6490  210.6190  154.1060 C   0  0  0  0  0  2  0  0  0  0  0  0
  161.4700  205.8030  151.0730 C   0  0  1  0  0  3  0  0  0  0  0  0
  161.3640  205.6600  147.5150 C   0  0  0  0  0  3  0  0  0  0  0  0
  162.2120  209.4070  153.3370 C   0  0  2  0  0  3  0  0  0  0  0  0
  161.5080  210.1230  156.2570 C   0  0  0  0  0  2  0  0  0  0  0  0
  161.5640  203.7950  149.1110 N   0  0  0  0  0  0  0  0  0  0  0  0
  161.7740  208.2860  151.2540 C   0  0  0  0  0  0  0  0  0  0  0  0
  160.4550  208.2640  154.7740 C   0  0  2  0  0  3  0  0  0  0  0  0
  161.6660  207.0820  151.8660 C   0  0  2  0  0  3  0  0  0  0  0  0
  162.2340  210.7150  149.9750 C   0  0  0  0  0  3  0  0  0  0  0  0
  161.2050  203.3460  151.4890 C   0  0  0  0  0  2  0  0  0  0  0  0
  162.3400  210.6140  151.3260 N   0  0  0  0  0  0  0  0  0  0  0  0
  160.7650  204.7420  151.9080 C   0  0  0  0  0  2  0  0  0  0  0  0
  160.7560  204.9520  148.6970 C   0  0  1  0  0  3  0  0  0  0  0  0
  161.8690  209.6040  149.2150 C   0  0  0  0  0  3  0  0  0  0  0  0
  161.2170  207.2360  149.1170 N   0  0  0  0  0  0  0  0  0  0  0  0
  161.7290  202.9870  148.0330 O   0  0  0  0  0  0  0  0  0  0  0  0
  161.5770  201.6890  148.5310 C   0  0  0  0  0  2  0  0  0  0  0  0
  160.5650  201.6340  145.4500 O   0  0  0  0  0  0  0  0  0  0  0  0
  161.2120  199.8790  146.8870 C   0  0  0  0  0  2  0  0  0  0  0  0
  160.5410  200.9380  147.7130 C   0  0  2  0  0  3  0  0  0  0  0  0
  160.9040  200.2760  145.4640 C   0  0  0  0  0  2  0  0  0  0  0  0
  159.9420  201.8700  146.6850 C   0  0  0  0  0  2  0  0  0  0  0  0
  1 18  1  0  0  0  0
  2 27  1  0  0  0  0
  3 16  1  0  0  0  0
  3  7  1  1  0  0  0
  4 15  1  0  0  0  0
  5 11  1  6  0  0  0
  5 19  1  0  0  0  0
  8 16  1  0  0  0  0
  9 27  1  6  0  0  0
  9 13  1  0  0  0  0
 10 22  1  0  0  0  0
 12  8  1  0  0  0  0
 13 20  1  0  0  0  0
 13 24  1  1  0  0  0
 14  2  2  0  0  0  0
 15  5  1  0  0  0  0
 15 12  1  1  0  0  0
 17 10  1  0  0  0  0
 18  4  2  0  0  0  0
 19  6  1  6  0  0  0
 19  3  1  0  0  0  0
 20 18  1  6  0  0  0
 20 11  1  0  0  0  0
 21 23  2  0  0  0  0
 22 24  1  0  0  0  0
 23  4  1  0  0  0  0
 25 14  1  6  0  0  0
 25 17  1  0  0  0  0
 25  9  1  0  0  0  0
 26  1  2  0  0  0  0
 26 21  1  0  0  0  0
 27  1  1  0  0  0  0
 28 29  1  0  0  0  0
 28 17  1  0  0  0  0
 30 33  1  0  0  0  0
 30 34  1  0  0  0  0
 31 32  1  0  0  0  0
 32 29  1  6  0  0  0
 33 31  1  0  0  0  0
 34 32  1  0  0  0  0
M  END
>  <MODEL>
5

>  <REMARK>
 VINA RESULT:      -5.0      1.998      8.920
  Name = 
  3 active torsions:
  status: ('A' for Active; 'I' for Inactive)
    1  A    between atoms: N_17  and  O_28
    2  A    between atoms: O_28  and  C_29
    3  A    between atoms: C_29  and  C_32
                            x       y       z     vdW  Elec       q    Type
                         _______ _______ _______ _____ _____    ______ ____

>  <TORSDO>
F 3

$$$$
=
 OpenBabel11122414193D

 34 40  0  0  1  0  0  0  0  0999 V2000
  161.0140  207.2400  153.7330 C   0  0  0  0  0  0  0  0  0  0  0  0
  162.0130  205.7260  151.9700 C   0  0  0  0  0  3  0  0  0  0  0  0
  159.7270  213.1420  155.7740 C   0  0  1  0  0  3  0  0  0  0  0  0
  159.6290  208.7680  155.0200 C   0  0  0  0  0  0  0  0  0  0  0  0
  159.2890  211.0960  154.2170 C   0  0  1  0  0  3  0  0  0  0  0  0
  161.5920  211.5330  155.2480 C   0  0  0  0  0  1  0  0  0  0  0  0
  159.4100  214.4480  155.0740 C   0  0  0  0  0  1  0  0  0  0  0  0
  158.7320  211.3530  157.2600 C   0  0  0  0  0  2  0  0  0  0  0  0
  162.2490  208.0520  151.7000 C   0  0  2  0  0  3  0  0  0  0  0  0
  162.5030  209.0360  148.8280 C   0  0  0  0  0  2  0  0  0  0  0  0
  159.7470  210.6020  152.9580 O   0  0  0  0  0  0  0  0  0  0  0  0
  158.1790  210.2270  156.4010 C   0  0  0  0  0  2  0  0  0  0  0  0
  161.0840  209.0390  151.5080 C   0  0  1  0  0  3  0  0  0  0  0  0
  162.5190  205.8650  150.7590 C   0  0  0  0  0  3  0  0  0  0  0  0
  159.0410  209.9690  155.2000 C   0  0  2  0  0  3  0  0  0  0  0  0
  158.5020  212.6850  156.5650 C   0  0  0  0  0  2  0  0  0  0  0  0
  162.0150  207.7150  149.2130 N   0  0  0  0  0  0  0  0  0  0  0  0
  160.3770  208.4910  153.8510 C   0  0  0  0  0  0  0  0  0  0  0  0
  160.2860  212.1390  154.7550 C   0  0  2  0  0  3  0  0  0  0  0  0
  160.4240  209.3810  152.8320 C   0  0  2  0  0  3  0  0  0  0  0  0
  160.0760  206.5740  155.8470 C   0  0  0  0  0  3  0  0  0  0  0  0
  161.5290  210.1120  149.2880 C   0  0  0  0  0  2  0  0  0  0  0  0
  159.4930  207.7950  155.9690 N   0  0  0  0  0  0  0  0  0  0  0  0
  161.5750  210.2930  150.7980 C   0  0  0  0  0  2  0  0  0  0  0  0
  162.7420  207.3170  150.4280 C   0  0  1  0  0  3  0  0  0  0  0  0
  160.8530  206.2750  154.7290 C   0  0  0  0  0  3  0  0  0  0  0  0
  161.8310  206.9850  152.5890 N   0  0  0  0  0  0  0  0  0  0  0  0
  162.3800  206.8770  148.2090 O   0  0  0  0  0  0  0  0  0  0  0  0
  161.4400  207.0970  147.1980 C   0  0  0  0  0  2  0  0  0  0  0  0
  161.5940  205.1560  144.6050 O   0  0  0  0  0  0  0  0  0  0  0  0
  161.8430  204.6760  146.9020 C   0  0  0  0  0  2  0  0  0  0  0  0
  160.8320  205.7770  146.7590 C   0  0  2  0  0  3  0  0  0  0  0  0
  162.0260  204.1630  145.4940 C   0  0  0  0  0  2  0  0  0  0  0  0
  160.5560  205.8210  145.2730 C   0  0  0  0  0  2  0  0  0  0  0  0
  1 18  2  0  0  0  0
  1 26  1  0  0  0  0
  2 27  1  0  0  0  0
  3  7  1  6  0  0  0
  3 16  1  0  0  0  0
  4 15  1  0  0  0  0
  4 23  2  0  0  0  0
  5 11  1  6  0  0  0
  5 19  1  0  0  0  0
  5 15  1  0  0  0  0
  9 27  1  1  0  0  0
 10 17  1  0  0  0  0
 10 22  1  0  0  0  0
 12  8  1  0  0  0  0
 13 24  1  1  0  0  0
 13  9  1  0  0  0  0
 13 20  1  0  0  0  0
 14  2  2  0  0  0  0
 15 12  1  1  0  0  0
 16  8  1  0  0  0  0
 17 25  1  0  0  0  0
 18  4  1  0  0  0  0
 19  6  1  1  0  0  0
 19  3  1  0  0  0  0
 20 11  1  6  0  0  0
 20 18  1  0  0  0  0
 21 23  1  0  0  0  0
 22 24  1  0  0  0  0
 25 14  1  1  0  0  0
 25  9  1  0  0  0  0
 26 21  2  0  0  0  0
 27  1  1  0  0  0  0
 28 17  1  0  0  0  0
 29 28  1  0  0  0  0
 30 34  1  0  0  0  0
 30 33  1  0  0  0  0
 32 31  1  0  0  0  0
 32 29  1  6  0  0  0
 33 31  1  0  0  0  0
 34 32  1  0  0  0  0
M  END
>  <MODEL>
6

>  <REMARK>
 VINA RESULT:      -5.0      1.874      8.577
  Name = 
  3 active torsions:
  status: ('A' for Active; 'I' for Inactive)
    1  A    between atoms: N_17  and  O_28
    2  A    between atoms: O_28  and  C_29
    3  A    between atoms: C_29  and  C_32
                            x       y       z     vdW  Elec       q    Type
                         _______ _______ _______ _____ _____    ______ ____

>  <TORSDO>
F 3

$$$$
