=
 OpenBabel11122413363D

 37 43  0  0  1  0  0  0  0  0999 V2000
  158.6230  212.8490  149.8980 C   0  0  0  0  0  2  0  0  0  0  0  0
  161.8280  213.5690  147.2050 C   0  0  0  0  0  0  0  0  0  0  0  0
  161.4270  210.9220  150.3360 C   0  0  0  0  0  0  0  0  0  0  0  0
  157.3810  213.5620  149.3550 C   0  0  2  0  0  3  0  0  0  0  0  0
  159.5470  212.1410  153.2820 O   0  0  0  0  0  0  0  0  0  0  0  0
  162.0770  211.2530  148.0570 C   0  0  0  0  0  0  0  0  0  0  0  0
  160.8840  211.7320  151.3680 N   0  0  0  0  0  0  0  0  0  0  0  0
  156.5290  213.8340  151.7850 C   0  0  2  0  0  3  0  0  0  0  0  0
  161.8680  211.7100  149.3330 C   0  0  0  0  0  0  0  0  0  0  0  0
  160.0500  211.1600  152.4210 C   0  0  1  0  0  3  0  0  0  0  0  0
  161.9860  209.8710  147.8230 C   0  0  0  0  0  3  0  0  0  0  0  0
  156.6510  214.4440  150.3810 C   0  0  0  0  0  2  0  0  0  0  0  0
  161.7100  213.0670  149.6360 N   0  0  0  0  0  0  0  0  0  0  0  0
  160.3590  213.6570  146.8320 C   0  0  0  0  0  1  0  0  0  0  0  0
  160.8770  208.6790  151.1880 O   0  0  0  0  0  0  0  0  0  0  0  0
  161.5960  209.0150  148.8840 C   0  0  0  0  0  3  0  0  0  0  0  0
  162.0120  214.1050  148.6510 C   0  0  0  0  0  2  0  0  0  0  0  0
  157.8620  213.7050  152.5620 C   0  0  1  0  0  3  0  0  0  0  0  0
  158.2010  212.2590  152.9270 C   0  0  0  0  0  2  0  0  0  0  0  0
  161.2870  209.5410  150.1600 C   0  0  0  0  0  0  0  0  0  0  0  0
  160.9700  213.1460  150.9030 C   0  0  1  0  0  3  0  0  0  0  0  0
  162.2750  212.2040  147.0480 O   0  0  0  0  0  0  0  0  0  0  0  0
  160.7890  210.0620  153.1490 C   0  0  0  0  0  0  0  0  0  0  0  0
  162.6120  214.4530  146.2570 C   0  0  0  0  0  1  0  0  0  0  0  0
  159.0360  214.4520  151.9030 C   0  0  0  0  0  2  0  0  0  0  0  0
  155.7980  212.6570  151.7560 F   0  0  0  0  0  0  0  0  0  0  0  0
  159.5950  213.7830  150.6370 C   0  0  2  0  0  3  0  0  0  0  0  0
  161.0620  208.9440  152.5370 N   0  0  0  0  0  0  0  0  0  0  0  0
  160.3400  209.7900  155.5950 C   0  0  0  0  0  3  0  0  0  0  0  0
  161.2070  210.1980  154.5670 C   0  0  0  0  0  0  0  0  0  0  0  0
  162.4810  210.6780  154.9090 C   0  0  0  0  0  3  0  0  0  0  0  0
  164.1020  211.2430  156.5620 F   0  0  0  0  0  0  0  0  0  0  0  0
  161.9970  210.3740  157.2610 C   0  0  0  0  0  3  0  0  0  0  0  0
  162.8720  210.7710  156.2480 C   0  0  0  0  0  0  0  0  0  0  0  0
  160.7310  209.8820  156.9340 C   0  0  0  0  0  3  0  0  0  0  0  0
  156.9750  212.3640  147.5390 C   0  0  0  0  0  1  0  0  0  0  0  0
  156.4980  212.6190  148.8260 O   0  0  0  0  0  0  0  0  0  0  0  0
  2 17  1  0  0  0  0
  3  7  1  0  0  0  0
  4 37  1  1  0  0  0
  4  1  1  0  0  0  0
  4 12  1  0  0  0  0
  6  9  1  0  0  0  0
  7 10  1  0  0  0  0
  8 26  1  6  0  0  0
  8 18  1  0  0  0  0
  9 13  1  0  0  0  0
  9  3  2  0  0  0  0
 10 23  1  1  0  0  0
 10  5  1  0  0  0  0
 11  6  2  0  0  0  0
 11 16  1  0  0  0  0
 12  8  1  0  0  0  0
 14  2  1  0  0  0  0
 15 28  1  0  0  0  0
 16 20  2  0  0  0  0
 17 13  1  0  0  0  0
 18 25  1  6  0  0  0
 18 19  1  0  0  0  0
 19  5  1  0  0  0  0
 20  3  1  0  0  0  0
 20 15  1  0  0  0  0
 21 13  1  6  0  0  0
 21  7  1  0  0  0  0
 22  2  1  0  0  0  0
 22  6  1  0  0  0  0
 23 30  1  0  0  0  0
 24  2  1  0  0  0  0
 27  1  1  1  0  0  0
 27 21  1  0  0  0  0
 27 25  1  0  0  0  0
 28 23  2  0  0  0  0
 29 35  1  0  0  0  0
 30 31  1  0  0  0  0
 30 29  2  0  0  0  0
 31 34  2  0  0  0  0
 34 32  1  0  0  0  0
 34 33  1  0  0  0  0
 35 33  2  0  0  0  0
 36 37  1  0  0  0  0
M  END
>  <MODEL>
1

>  <REMARK>
 VINA RESULT:      -0.4      0.000      0.000
  Name = 
  2 active torsions:
  status: ('A' for Active; 'I' for Inactive)
    1  A    between atoms: C_4  and  O_37
    2  A    between atoms: C_23  and  C_30
                            x       y       z     vdW  Elec       q    Type
                         _______ _______ _______ _____ _____    ______ ____

>  <TORSDO>
F 2

$$$$
=
 OpenBabel11122413363D

 37 43  0  0  1  0  0  0  0  0999 V2000
  161.5350  210.2030  154.6730 C   0  0  0  0  0  2  0  0  0  0  0  0
  161.8910  206.6860  152.3180 C   0  0  0  0  0  0  0  0  0  0  0  0
  160.5330  210.4660  151.4040 C   0  0  0  0  0  0  0  0  0  0  0  0
  162.3090  209.9790  155.9760 C   0  0  2  0  0  3  0  0  0  0  0  0
  158.6400  212.2150  154.0600 O   0  0  0  0  0  0  0  0  0  0  0  0
  161.9250  208.6250  150.7710 C   0  0  0  0  0  0  0  0  0  0  0  0
  159.6760  210.7680  152.4950 N   0  0  0  0  0  0  0  0  0  0  0  0
  160.6760  211.5940  157.1720 C   0  0  2  0  0  3  0  0  0  0  0  0
  160.8390  209.1520  151.4240 C   0  0  0  0  0  0  0  0  0  0  0  0
  159.4410  212.1460  152.9160 C   0  0  1  0  0  3  0  0  0  0  0  0
  162.6530  209.4620  149.9100 C   0  0  0  0  0  3  0  0  0  0  0  0
  161.5220  210.3140  157.2530 C   0  0  0  0  0  2  0  0  0  0  0  0
  160.1840  208.4870  152.4650 N   0  0  0  0  0  0  0  0  0  0  0  0
  162.8630  207.0860  153.4130 C   0  0  0  0  0  1  0  0  0  0  0  0
  160.9230  212.7230  150.5010 O   0  0  0  0  0  0  0  0  0  0  0  0
  162.3000  210.8320  149.8170 C   0  0  0  0  0  3  0  0  0  0  0  0
  160.4540  207.0780  152.7540 C   0  0  0  0  0  2  0  0  0  0  0  0
  159.4620  211.5180  156.2160 C   0  0  1  0  0  3  0  0  0  0  0  0
  159.5280  212.5480  155.0860 C   0  0  0  0  0  2  0  0  0  0  0  0
  161.2380  211.3590  150.5890 C   0  0  0  0  0  0  0  0  0  0  0  0
  159.4980  209.5070  153.2700 C   0  0  1  0  0  3  0  0  0  0  0  0
  162.2940  207.3090  151.0770 O   0  0  0  0  0  0  0  0  0  0  0  0
  158.8990  212.9680  151.7690 C   0  0  0  0  0  0  0  0  0  0  0  0
  161.9540  205.1820  152.1520 C   0  0  0  0  0  1  0  0  0  0  0  0
  159.1560  210.0940  155.7160 C   0  0  0  0  0  2  0  0  0  0  0  0
  161.4740  212.7050  156.9540 F   0  0  0  0  0  0  0  0  0  0  0  0
  160.1410  209.5550  154.6660 C   0  0  2  0  0  3  0  0  0  0  0  0
  159.6600  213.2410  150.7460 N   0  0  0  0  0  0  0  0  0  0  0  0
  156.8530  213.7320  150.5500 C   0  0  0  0  0  3  0  0  0  0  0  0
  157.5150  213.5050  151.7680 C   0  0  0  0  0  0  0  0  0  0  0  0
  156.8250  213.7440  152.9670 C   0  0  0  0  0  3  0  0  0  0  0  0
  154.8600  214.4530  154.1140 F   0  0  0  0  0  0  0  0  0  0  0  0
  154.8670  214.4530  151.7320 C   0  0  0  0  0  3  0  0  0  0  0  0
  155.5100  214.2210  152.9500 C   0  0  0  0  0  0  0  0  0  0  0  0
  155.5380  214.2070  150.5310 C   0  0  0  0  0  3  0  0  0  0  0  0
  163.9550  210.7130  157.2610 C   0  0  0  0  0  1  0  0  0  0  0  0
  163.4960  210.7130  155.9430 O   0  0  0  0  0  0  0  0  0  0  0  0
  1  4  1  0  0  0  0
  2 17  1  0  0  0  0
  2 14  1  0  0  0  0
  3  9  1  0  0  0  0
  3  7  1  0  0  0  0
  4 37  1  6  0  0  0
  4 12  1  0  0  0  0
  5 19  1  0  0  0  0
  6 22  1  0  0  0  0
  6  9  2  0  0  0  0
  7 10  1  0  0  0  0
  7 21  1  0  0  0  0
  8 26  1  6  0  0  0
  8 12  1  0  0  0  0
  9 13  1  0  0  0  0
 10 23  1  6  0  0  0
 10  5  1  0  0  0  0
 11  6  1  0  0  0  0
 13 17  1  0  0  0  0
 15 20  1  0  0  0  0
 15 28  1  0  0  0  0
 16 11  2  0  0  0  0
 16 20  1  0  0  0  0
 18 19  1  6  0  0  0
 18  8  1  0  0  0  0
 20  3  2  0  0  0  0
 21 13  1  6  0  0  0
 21 27  1  0  0  0  0
 22  2  1  0  0  0  0
 24  2  1  0  0  0  0
 25 18  1  0  0  0  0
 27  1  1  6  0  0  0
 27 25  1  0  0  0  0
 28 23  2  0  0  0  0
 29 30  1  0  0  0  0
 30 23  1  0  0  0  0
 30 31  2  0  0  0  0
 33 34  2  0  0  0  0
 34 31  1  0  0  0  0
 34 32  1  0  0  0  0
 35 29  2  0  0  0  0
 35 33  1  0  0  0  0
 37 36  1  0  0  0  0
M  END
>  <MODEL>
2

>  <REMARK>
 VINA RESULT:      -0.2      2.285      6.793
  Name = 
  2 active torsions:
  status: ('A' for Active; 'I' for Inactive)
    1  A    between atoms: C_4  and  O_37
    2  A    between atoms: C_23  and  C_30
                            x       y       z     vdW  Elec       q    Type
                         _______ _______ _______ _____ _____    ______ ____

>  <TORSDO>
F 2

$$$$
=
 OpenBabel11122413363D

 37 43  0  0  1  0  0  0  0  0999 V2000
  161.5070  210.3170  154.6810 C   0  0  0  0  0  2  0  0  0  0  0  0
  161.9700  206.7540  152.4140 C   0  0  0  0  0  0  0  0  0  0  0  0
  160.5130  210.4730  151.4020 C   0  0  0  0  0  0  0  0  0  0  0  0
  162.2800  210.1460  155.9930 C   0  0  2  0  0  3  0  0  0  0  0  0
  158.5600  212.2330  154.0080 O   0  0  0  0  0  0  0  0  0  0  0  0
  161.9570  208.6560  150.8210 C   0  0  0  0  0  0  0  0  0  0  0  0
  159.6430  210.7770  152.4820 N   0  0  0  0  0  0  0  0  0  0  0  0
  160.5990  211.7440  157.1420 C   0  0  2  0  0  3  0  0  0  0  0  0
  160.8550  209.1680  151.4560 C   0  0  0  0  0  0  0  0  0  0  0  0
  159.3680  212.1580  152.8680 C   0  0  1  0  0  3  0  0  0  0  0  0
  162.6660  209.4910  149.9420 C   0  0  0  0  0  3  0  0  0  0  0  0
  161.4780  210.4910  157.2570 C   0  0  0  0  0  2  0  0  0  0  0  0
  160.2130  208.5110  152.5110 N   0  0  0  0  0  0  0  0  0  0  0  0
  162.9250  207.2080  153.5030 C   0  0  0  0  0  1  0  0  0  0  0  0
  160.8450  212.7170  150.4460 O   0  0  0  0  0  0  0  0  0  0  0  0
  162.2760  210.8480  149.8140 C   0  0  0  0  0  3  0  0  0  0  0  0
  160.5200  207.1180  152.8350 C   0  0  0  0  0  2  0  0  0  0  0  0
  159.3910  211.6120  156.1830 C   0  0  1  0  0  3  0  0  0  0  0  0
  159.4340  212.6150  155.0280 C   0  0  0  0  0  2  0  0  0  0  0  0
  161.1970  211.3650  150.5680 C   0  0  0  0  0  0  0  0  0  0  0  0
  159.4960  209.5310  153.2870 C   0  0  1  0  0  3  0  0  0  0  0  0
  162.3610  207.3580  151.1600 O   0  0  0  0  0  0  0  0  0  0  0  0
  158.8090  212.9370  151.7000 C   0  0  0  0  0  0  0  0  0  0  0  0
  162.0750  205.2490  152.2860 C   0  0  0  0  0  1  0  0  0  0  0  0
  159.1270  210.1680  155.7170 C   0  0  0  0  0  2  0  0  0  0  0  0
  161.3670  212.8720  156.9000 F   0  0  0  0  0  0  0  0  0  0  0  0
  160.1310  209.6310  154.6850 C   0  0  2  0  0  3  0  0  0  0  0  0
  159.5670  213.2060  150.6740 N   0  0  0  0  0  0  0  0  0  0  0  0
  156.7720  213.7760  152.8850 C   0  0  0  0  0  3  0  0  0  0  0  0
  157.4110  213.4360  151.6810 C   0  0  0  0  0  0  0  0  0  0  0  0
  156.7220  213.6280  150.4720 C   0  0  0  0  0  3  0  0  0  0  0  0
  154.7620  214.3020  149.2960 F   0  0  0  0  0  0  0  0  0  0  0  0
  154.7890  214.4520  151.6730 C   0  0  0  0  0  3  0  0  0  0  0  0
  155.4160  214.1280  150.4690 C   0  0  0  0  0  0  0  0  0  0  0  0
  155.4670  214.2780  152.8820 C   0  0  0  0  0  3  0  0  0  0  0  0
  163.9520  210.8760  157.2460 C   0  0  0  0  0  1  0  0  0  0  0  0
  163.4470  210.9120  155.9460 O   0  0  0  0  0  0  0  0  0  0  0  0
  1  4  1  0  0  0  0
  2 17  1  0  0  0  0
  2 14  1  0  0  0  0
  3  9  1  0  0  0  0
  3  7  1  0  0  0  0
  4 37  1  6  0  0  0
  4 12  1  0  0  0  0
  5 19  1  0  0  0  0
  6 22  1  0  0  0  0
  6  9  2  0  0  0  0
  7 10  1  0  0  0  0
  8 26  1  6  0  0  0
  8 12  1  0  0  0  0
  9 13  1  0  0  0  0
 10 23  1  6  0  0  0
 10  5  1  0  0  0  0
 11  6  1  0  0  0  0
 13 17  1  0  0  0  0
 13 21  1  0  0  0  0
 15 20  1  0  0  0  0
 15 28  1  0  0  0  0
 16 11  2  0  0  0  0
 16 20  1  0  0  0  0
 18 19  1  6  0  0  0
 18  8  1  0  0  0  0
 20  3  2  0  0  0  0
 21  7  1  6  0  0  0
 21 27  1  0  0  0  0
 22  2  1  0  0  0  0
 24  2  1  0  0  0  0
 25 18  1  0  0  0  0
 27  1  1  6  0  0  0
 27 25  1  0  0  0  0
 28 23  2  0  0  0  0
 30 23  1  0  0  0  0
 30 29  2  0  0  0  0
 31 30  1  0  0  0  0
 32 34  1  0  0  0  0
 33 35  2  0  0  0  0
 34 31  2  0  0  0  0
 34 33  1  0  0  0  0
 35 29  1  0  0  0  0
 37 36  1  0  0  0  0
M  END
>  <MODEL>
3

>  <REMARK>
 VINA RESULT:       0.0      2.281      6.871
  Name = 
  2 active torsions:
  status: ('A' for Active; 'I' for Inactive)
    1  A    between atoms: C_4  and  O_37
    2  A    between atoms: C_23  and  C_30
                            x       y       z     vdW  Elec       q    Type
                         _______ _______ _______ _____ _____    ______ ____

>  <TORSDO>
F 2

$$$$
=
 OpenBabel11122413363D

 37 43  0  0  1  0  0  0  0  0999 V2000
  161.0530  208.1570  151.9430 C   0  0  0  0  0  2  0  0  0  0  0  0
  161.7420  209.6630  155.8560 C   0  0  0  0  0  0  0  0  0  0  0  0
  160.3000  211.4660  152.4440 C   0  0  0  0  0  0  0  0  0  0  0  0
  161.1450  206.6290  152.0020 C   0  0  2  0  0  3  0  0  0  0  0  0
  161.8220  210.3830  149.2480 O   0  0  0  0  0  0  0  0  0  0  0  0
  160.0260  211.1050  154.7940 C   0  0  0  0  0  0  0  0  0  0  0  0
  161.2100  211.0300  151.4450 N   0  0  0  0  0  0  0  0  0  0  0  0
  161.9490  206.6260  149.5410 C   0  0  2  0  0  3  0  0  0  0  0  0
  160.8010  211.1780  153.6630 C   0  0  0  0  0  0  0  0  0  0  0  0
  160.8040  210.9140  150.0480 C   0  0  1  0  0  3  0  0  0  0  0  0
  158.6840  211.5090  154.7070 C   0  0  0  0  0  3  0  0  0  0  0  0
  162.0610  206.0020  150.9400 C   0  0  0  0  0  2  0  0  0  0  0  0
  162.0700  210.5960  153.5750 N   0  0  0  0  0  0  0  0  0  0  0  0
  161.2640  208.2540  155.5510 C   0  0  0  0  0  1  0  0  0  0  0  0
  158.4140  212.2020  151.0430 O   0  0  0  0  0  0  0  0  0  0  0  0
  158.1570  211.8890  153.4460 C   0  0  0  0  0  3  0  0  0  0  0  0
  162.7580  210.0940  154.7640 C   0  0  0  0  0  2  0  0  0  0  0  0
  162.4860  208.0730  149.4230 C   0  0  1  0  0  3  0  0  0  0  0  0
  161.4120  209.0740  148.9880 C   0  0  0  0  0  2  0  0  0  0  0  0
  158.9630  211.8490  152.2840 C   0  0  0  0  0  0  0  0  0  0  0  0
  162.3450  210.3690  152.1510 C   0  0  1  0  0  3  0  0  0  0  0  0
  160.5990  210.5430  155.9410 O   0  0  0  0  0  0  0  0  0  0  0  0
  160.2820  212.2350  149.5330 C   0  0  0  0  0  0  0  0  0  0  0  0
  162.4480  209.6450  157.1950 C   0  0  0  0  0  1  0  0  0  0  0  0
  163.2800  208.5410  150.6570 C   0  0  0  0  0  2  0  0  0  0  0  0
  160.6700  206.4750  149.0290 F   0  0  0  0  0  0  0  0  0  0  0  0
  162.4220  208.8540  151.8940 C   0  0  2  0  0  3  0  0  0  0  0  0
  159.1570  212.7120  149.9870 N   0  0  0  0  0  0  0  0  0  0  0  0
  162.1580  213.7360  148.8400 C   0  0  0  0  0  3  0  0  0  0  0  0
  161.0000  213.0180  148.4970 C   0  0  0  0  0  0  0  0  0  0  0  0
  160.5780  213.0160  147.1580 C   0  0  0  0  0  3  0  0  0  0  0  0
  160.8600  213.7280  144.9010 F   0  0  0  0  0  0  0  0  0  0  0  0
  162.4260  214.4530  146.5430 C   0  0  0  0  0  3  0  0  0  0  0  0
  161.2840  213.7340  146.1880 C   0  0  0  0  0  0  0  0  0  0  0  0
  162.8650  214.4530  147.8700 C   0  0  0  0  0  3  0  0  0  0  0  0
  160.0670  204.7090  151.7780 C   0  0  0  0  0  1  0  0  0  0  0  0
  159.8630  206.0840  151.9060 O   0  0  0  0  0  0  0  0  0  0  0  0
  1  4  1  0  0  0  0
  2 22  1  0  0  0  0
  2 24  1  0  0  0  0
  3  9  1  0  0  0  0
  4 37  1  6  0  0  0
  6 22  1  0  0  0  0
  7  3  1  0  0  0  0
  8 26  1  1  0  0  0
  8 12  1  0  0  0  0
  9  6  2  0  0  0  0
 10  5  1  6  0  0  0
 10  7  1  0  0  0  0
 11  6  1  0  0  0  0
 12  4  1  0  0  0  0
 13  9  1  0  0  0  0
 13 17  1  0  0  0  0
 14  2  1  0  0  0  0
 15 20  1  0  0  0  0
 16 11  2  0  0  0  0
 17  2  1  0  0  0  0
 18 19  1  1  0  0  0
 18  8  1  0  0  0  0
 18 25  1  0  0  0  0
 19  5  1  0  0  0  0
 20  3  2  0  0  0  0
 20 16  1  0  0  0  0
 21  7  1  6  0  0  0
 21 13  1  0  0  0  0
 23 28  2  0  0  0  0
 23 10  1  0  0  0  0
 27 25  1  6  0  0  0
 27  1  1  0  0  0  0
 27 21  1  0  0  0  0
 28 15  1  0  0  0  0
 30 29  1  0  0  0  0
 30 23  1  0  0  0  0
 31 30  2  0  0  0  0
 32 34  1  0  0  0  0
 33 35  1  0  0  0  0
 34 33  2  0  0  0  0
 34 31  1  0  0  0  0
 35 29  2  0  0  0  0
 36 37  1  0  0  0  0
M  END
>  <MODEL>
4

>  <REMARK>
 VINA RESULT:       1.4      2.844      7.665
  Name = 
  2 active torsions:
  status: ('A' for Active; 'I' for Inactive)
    1  A    between atoms: C_4  and  O_37
    2  A    between atoms: C_23  and  C_30
                            x       y       z     vdW  Elec       q    Type
                         _______ _______ _______ _____ _____    ______ ____

>  <TORSDO>
F 2

$$$$
