=
 OpenBabel11122412453D

 30 35  0  0  1  0  0  0  0  0999 V2000
  161.1100  205.7280  149.8770 C   0  0  0  0  0  0  0  0  0  0  0  0
  161.0720  203.3170  149.6090 C   0  0  0  0  0  0  0  0  0  0  0  0
  160.9650  205.3800  153.9700 N   0  0  0  0  0  0  0  0  0  0  0  0
  161.1820  206.8910  150.7030 C   0  0  0  0  0  0  0  0  0  0  0  0
  160.9260  205.9610  148.3990 C   0  0  0  0  0  2  0  0  0  0  0  0
  161.6680  209.4360  148.1310 O   0  0  0  0  0  0  0  0  0  0  0  0
  160.5740  209.6820  151.9300 C   0  0  1  0  0  3  0  0  0  0  0  0
  161.5960  208.3060  148.6870 C   0  0  0  0  0  0  0  0  0  0  0  0
  160.8420  208.9360  153.1440 N   0  0  0  0  0  0  0  0  0  0  0  0
  160.9330  206.6910  154.3040 C   0  0  0  0  0  0  0  0  0  0  0  0
  161.8300  207.0650  147.8810 C   0  0  2  0  0  3  0  0  0  0  0  0
  161.3800  208.2050  150.1050 N   0  0  0  0  0  0  0  0  0  0  0  0
  161.0280  202.0330  150.1570 C   0  0  0  0  0  3  0  0  0  0  0  0
  160.9860  209.8250  154.2840 C   0  0  0  0  0  2  0  0  0  0  0  0
  160.6180  211.1040  152.3770 C   0  0  0  0  0  3  0  0  0  0  0  0
  161.1430  203.3920  148.2560 F   0  0  0  0  0  0  0  0  0  0  0  0
  161.0560  205.3650  152.6260 C   0  0  0  0  0  0  0  0  0  0  0  0
  160.9910  201.8630  151.5330 C   0  0  0  0  0  3  0  0  0  0  0  0
  161.0780  204.4400  150.4170 N   0  0  0  0  0  0  0  0  0  0  0  0
  161.0980  206.6820  152.0810 C   0  0  0  0  0  0  0  0  0  0  0  0
  160.7780  207.1480  155.7130 C   0  0  0  0  0  1  0  0  0  0  0  0
  160.9970  207.5140  153.1780 C   0  0  0  0  0  0  0  0  0  0  0  0
  160.8420  211.1820  153.6870 C   0  0  0  0  0  3  0  0  0  0  0  0
  162.9330  209.3600  151.4460 O   0  0  0  0  0  1  0  0  0  0  0  0
  161.0050  202.9780  152.3560 C   0  0  0  0  0  3  0  0  0  0  0  0
  161.0550  204.2580  151.7930 C   0  0  0  0  0  0  0  0  0  0  0  0
  161.6520  209.4150  150.8860 C   0  0  2  0  0  3  0  0  0  0  0  0
  161.5540  207.2920  146.5300 O   0  0  0  0  0  0  0  0  0  0  0  0
  161.1420  205.6810  144.8320 C   0  0  0  0  0  1  0  0  0  0  0  0
  160.6960  206.2550  146.1600 C   0  0  0  0  0  2  0  0  0  0  0  0
  1 19  1  0  0  0  0
  1  4  2  0  0  0  0
  2 13  2  0  0  0  0
  2 19  1  0  0  0  0
  3 10  2  0  0  0  0
  4 20  1  0  0  0  0
  5  1  1  0  0  0  0
  6  8  2  0  0  0  0
  7 15  1  1  0  0  0
  7  9  1  0  0  0  0
  8 12  1  0  0  0  0
  9 22  1  0  0  0  0
  9 14  1  0  0  0  0
 10 21  1  0  0  0  0
 11 28  1  6  0  0  0
 11  5  1  0  0  0  0
 11  8  1  0  0  0  0
 12  4  1  0  0  0  0
 12 27  1  0  0  0  0
 13 18  1  0  0  0  0
 15 23  2  0  0  0  0
 16  2  1  0  0  0  0
 17  3  1  0  0  0  0
 18 25  2  0  0  0  0
 19 26  1  0  0  0  0
 20 17  1  0  0  0  0
 20 22  2  0  0  0  0
 22 10  1  0  0  0  0
 23 14  1  0  0  0  0
 26 25  1  0  0  0  0
 26 17  2  0  0  0  0
 27 24  1  1  0  0  0
 27  7  1  0  0  0  0
 29 30  1  0  0  0  0
 30 28  1  0  0  0  0
M  END
>  <MODEL>
1

>  <REMARK>
 VINA RESULT:      -9.4      0.000      0.000
  Name = 
  2 active torsions:
  status: ('A' for Active; 'I' for Inactive)
    1  A    between atoms: C_11  and  O_28
    2  A    between atoms: O_28  and  C_30
                            x       y       z     vdW  Elec       q    Type
                         _______ _______ _______ _____ _____    ______ ____

>  <TORSDO>
F 2

$$$$
=
 OpenBabel11122412453D

 30 35  0  0  1  0  0  0  0  0999 V2000
  161.3010  207.8560  151.3530 C   0  0  0  0  0  0  0  0  0  0  0  0
  161.6840  210.2140  150.9270 C   0  0  0  0  0  0  0  0  0  0  0  0
  161.9150  206.9340  147.3940 N   0  0  0  0  0  0  0  0  0  0  0  0
  161.2850  206.4960  150.9180 C   0  0  0  0  0  0  0  0  0  0  0  0
  160.8300  208.1200  152.7610 C   0  0  0  0  0  2  0  0  0  0  0  0
  160.8330  204.8320  154.1370 O   0  0  0  0  0  0  0  0  0  0  0  0
  160.3660  203.5690  150.4110 C   0  0  1  0  0  3  0  0  0  0  0  0
  161.0750  205.7340  153.2880 C   0  0  0  0  0  0  0  0  0  0  0  0
  160.9720  203.8590  149.1270 N   0  0  0  0  0  0  0  0  0  0  0  0
  161.6880  205.6010  147.4380 C   0  0  0  0  0  0  0  0  0  0  0  0
  161.4040  207.1210  153.7480 C   0  0  2  0  0  3  0  0  0  0  0  0
  161.1230  205.4180  151.8850 N   0  0  0  0  0  0  0  0  0  0  0  0
  161.9810  211.2580  150.0490 C   0  0  0  0  0  3  0  0  0  0  0  0
  161.1310  202.6510  148.3380 C   0  0  0  0  0  2  0  0  0  0  0  0
  160.2090  202.0870  150.3960 C   0  0  0  0  0  3  0  0  0  0  0  0
  161.5110  210.5530  152.2300 F   0  0  0  0  0  0  0  0  0  0  0  0
  161.7810  207.3530  148.6680 C   0  0  0  0  0  0  0  0  0  0  0  0
  162.2090  210.9960  148.7060 C   0  0  0  0  0  3  0  0  0  0  0  0
  161.6080  208.9060  150.4840 N   0  0  0  0  0  0  0  0  0  0  0  0
  161.4760  206.2760  149.5520 C   0  0  0  0  0  0  0  0  0  0  0  0
  161.6870  204.7550  146.2130 C   0  0  0  0  0  1  0  0  0  0  0  0
  161.4020  205.1670  148.7340 C   0  0  0  0  0  0  0  0  0  0  0  0
  160.6310  201.5770  149.2410 C   0  0  0  0  0  3  0  0  0  0  0  0
  162.6270  203.7080  151.2890 O   0  0  0  0  0  1  0  0  0  0  0  0
  162.1460  209.6900  148.2480 C   0  0  0  0  0  3  0  0  0  0  0  0
  161.8530  208.6530  149.1400 C   0  0  0  0  0  0  0  0  0  0  0  0
  161.2840  204.0010  151.5490 C   0  0  2  0  0  3  0  0  0  0  0  0
  160.8660  207.3620  155.0150 O   0  0  0  0  0  0  0  0  0  0  0  0
  161.9470  208.8540  156.5170 C   0  0  0  0  0  1  0  0  0  0  0  0
  161.1160  208.7130  155.2590 C   0  0  0  0  0  2  0  0  0  0  0  0
  1  5  1  0  0  0  0
  2 16  1  0  0  0  0
  3 10  2  0  0  0  0
  3 17  1  0  0  0  0
  4  1  2  0  0  0  0
  4 12  1  0  0  0  0
  5 11  1  0  0  0  0
  7 15  1  6  0  0  0
  7 27  1  0  0  0  0
  8 11  1  0  0  0  0
  8  6  2  0  0  0  0
  9  7  1  0  0  0  0
 10 22  1  0  0  0  0
 11 28  1  1  0  0  0
 12  8  1  0  0  0  0
 13  2  2  0  0  0  0
 14  9  1  0  0  0  0
 14 23  1  0  0  0  0
 17 26  2  0  0  0  0
 17 20  1  0  0  0  0
 18 13  1  0  0  0  0
 19  2  1  0  0  0  0
 19  1  1  0  0  0  0
 20  4  1  0  0  0  0
 21 10  1  0  0  0  0
 22  9  1  0  0  0  0
 22 20  2  0  0  0  0
 23 15  2  0  0  0  0
 25 18  2  0  0  0  0
 25 26  1  0  0  0  0
 26 19  1  0  0  0  0
 27 24  1  6  0  0  0
 27 12  1  0  0  0  0
 28 30  1  0  0  0  0
 30 29  1  0  0  0  0
M  END
>  <MODEL>
2

>  <REMARK>
 VINA RESULT:      -8.4      2.721      7.187
  Name = 
  2 active torsions:
  status: ('A' for Active; 'I' for Inactive)
    1  A    between atoms: C_11  and  O_28
    2  A    between atoms: O_28  and  C_30
                            x       y       z     vdW  Elec       q    Type
                         _______ _______ _______ _____ _____    ______ ____

>  <TORSDO>
F 2

$$$$
=
 OpenBabel11122412453D

 30 35  0  0  1  0  0  0  0  0999 V2000
  161.6720  208.4990  151.7000 C   0  0  0  0  0  0  0  0  0  0  0  0
  161.4600  209.2150  154.0090 C   0  0  0  0  0  0  0  0  0  0  0  0
  160.8160  204.6090  152.7180 N   0  0  0  0  0  0  0  0  0  0  0  0
  161.5620  207.4960  150.6900 C   0  0  0  0  0  0  0  0  0  0  0  0
  162.2240  209.8340  151.2680 C   0  0  0  0  0  2  0  0  0  0  0  0
  162.0200  209.5710  147.7200 O   0  0  0  0  0  0  0  0  0  0  0  0
  162.2230  205.6530  148.2740 C   0  0  1  0  0  3  0  0  0  0  0  0
  161.8140  209.2410  148.9200 C   0  0  0  0  0  0  0  0  0  0  0  0
  161.5870  204.6880  149.1480 N   0  0  0  0  0  0  0  0  0  0  0  0
  160.9390  204.0280  151.5020 C   0  0  0  0  0  0  0  0  0  0  0  0
  161.6160  210.3020  149.9590 C   0  0  2  0  0  3  0  0  0  0  0  0
  161.6800  207.8550  149.2820 N   0  0  0  0  0  0  0  0  0  0  0  0
  161.2090  208.9280  155.3520 C   0  0  0  0  0  3  0  0  0  0  0  0
  161.2980  203.4520  148.4420 C   0  0  0  0  0  2  0  0  0  0  0  0
  162.2610  204.9580  146.9550 C   0  0  0  0  0  3  0  0  0  0  0  0
  161.7160  210.5130  153.7070 F   0  0  0  0  0  0  0  0  0  0  0  0
  161.0390  205.9200  152.5020 C   0  0  0  0  0  0  0  0  0  0  0  0
  160.9030  207.6330  155.7440 C   0  0  0  0  0  3  0  0  0  0  0  0
  161.4120  208.2230  153.0450 N   0  0  0  0  0  0  0  0  0  0  0  0
  161.2950  206.1960  151.1270 C   0  0  0  0  0  0  0  0  0  0  0  0
  160.8200  202.5560  151.3090 C   0  0  0  0  0  1  0  0  0  0  0  0
  161.2450  204.9620  150.5110 C   0  0  0  0  0  0  0  0  0  0  0  0
  161.7510  203.7320  147.0510 C   0  0  0  0  0  3  0  0  0  0  0  0
  160.0210  206.6650  148.1110 O   0  0  0  0  0  1  0  0  0  0  0  0
  160.8420  206.6310  154.7890 C   0  0  0  0  0  3  0  0  0  0  0  0
  161.0900  206.9330  153.4450 C   0  0  0  0  0  0  0  0  0  0  0  0
  161.3920  206.9280  148.1840 C   0  0  2  0  0  3  0  0  0  0  0  0
  162.2250  211.4970  149.5680 O   0  0  0  0  0  0  0  0  0  0  0  0
  161.2840  213.0580  148.0420 C   0  0  0  0  0  1  0  0  0  0  0  0
  161.1720  212.3980  149.4000 C   0  0  0  0  0  2  0  0  0  0  0  0
  1 19  1  0  0  0  0
  2 13  2  0  0  0  0
  4 20  1  0  0  0  0
  4  1  2  0  0  0  0
  5  1  1  0  0  0  0
  6  8  2  0  0  0  0
  7 15  1  6  0  0  0
  7  9  1  0  0  0  0
  8 12  1  0  0  0  0
  8 11  1  0  0  0  0
  9 22  1  0  0  0  0
 10  3  2  0  0  0  0
 11 28  1  6  0  0  0
 11  5  1  0  0  0  0
 12  4  1  0  0  0  0
 13 18  1  0  0  0  0
 14  9  1  0  0  0  0
 15 23  2  0  0  0  0
 16  2  1  0  0  0  0
 17  3  1  0  0  0  0
 17 26  2  0  0  0  0
 19 26  1  0  0  0  0
 19  2  1  0  0  0  0
 20 17  1  0  0  0  0
 21 10  1  0  0  0  0
 22 20  2  0  0  0  0
 22 10  1  0  0  0  0
 23 14  1  0  0  0  0
 25 18  2  0  0  0  0
 26 25  1  0  0  0  0
 27 24  1  1  0  0  0
 27  7  1  0  0  0  0
 27 12  1  0  0  0  0
 29 30  1  0  0  0  0
 30 28  1  0  0  0  0
M  END
>  <MODEL>
3

>  <REMARK>
 VINA RESULT:      -8.2      2.296      5.570
  Name = 
  2 active torsions:
  status: ('A' for Active; 'I' for Inactive)
    1  A    between atoms: C_11  and  O_28
    2  A    between atoms: O_28  and  C_30
                            x       y       z     vdW  Elec       q    Type
                         _______ _______ _______ _____ _____    ______ ____

>  <TORSDO>
F 2

$$$$
=
 OpenBabel11122412453D

 30 35  0  0  1  0  0  0  0  0999 V2000
  161.2760  206.8030  150.9010 C   0  0  0  0  0  0  0  0  0  0  0  0
  161.7070  209.1900  150.8770 C   0  0  0  0  0  0  0  0  0  0  0  0
  161.9490  206.5340  146.8540 N   0  0  0  0  0  0  0  0  0  0  0  0
  161.2450  205.5330  150.2470 C   0  0  0  0  0  0  0  0  0  0  0  0
  160.7830  206.8400  152.3250 C   0  0  0  0  0  2  0  0  0  0  0  0
  160.7040  203.3710  153.1390 O   0  0  0  0  0  0  0  0  0  0  0  0
  160.2860  202.7490  149.2490 C   0  0  1  0  0  3  0  0  0  0  0  0
  160.9770  204.3950  152.4540 C   0  0  0  0  0  0  0  0  0  0  0  0
  160.9210  203.2350  148.0400 N   0  0  0  0  0  0  0  0  0  0  0  0
  161.6980  205.2160  146.6740 C   0  0  0  0  0  0  0  0  0  0  0  0
  161.3210  205.6800  153.1430 C   0  0  2  0  0  3  0  0  0  0  0  0
  161.0470  204.3140  151.0190 N   0  0  0  0  0  0  0  0  0  0  0  0
  162.0390  210.3590  150.1880 C   0  0  0  0  0  3  0  0  0  0  0  0
  161.0750  202.1700  147.0640 C   0  0  0  0  0  2  0  0  0  0  0  0
  160.1040  201.2930  148.9870 C   0  0  0  0  0  3  0  0  0  0  0  0
  161.5150  209.3130  152.2140 F   0  0  0  0  0  0  0  0  0  0  0  0
  161.7980  206.7400  148.1780 C   0  0  0  0  0  0  0  0  0  0  0  0
  162.2870  210.3180  148.8240 C   0  0  0  0  0  3  0  0  0  0  0  0
  161.6180  207.9750  150.2220 N   0  0  0  0  0  0  0  0  0  0  0  0
  161.4580  205.5380  148.8670 C   0  0  0  0  0  0  0  0  0  0  0  0
  161.7060  204.5840  145.3260 C   0  0  0  0  0  1  0  0  0  0  0  0
  161.3810  204.5800  147.8750 C   0  0  0  0  0  0  0  0  0  0  0  0
  160.5390  200.9720  147.7700 C   0  0  0  0  0  3  0  0  0  0  0  0
  162.5320  202.6960  150.1730 O   0  0  0  0  0  1  0  0  0  0  0  0
  162.2100  209.1060  148.1550 C   0  0  0  0  0  3  0  0  0  0  0  0
  161.8830  207.9420  148.8590 C   0  0  0  0  0  0  0  0  0  0  0  0
  161.1900  202.9680  150.4570 C   0  0  2  0  0  3  0  0  0  0  0  0
  160.7640  205.7200  154.4240 O   0  0  0  0  0  0  0  0  0  0  0  0
  159.8080  207.2850  155.9360 C   0  0  0  0  0  1  0  0  0  0  0  0
  160.7420  207.0730  154.7630 C   0  0  0  0  0  2  0  0  0  0  0  0
  1  5  1  0  0  0  0
  2 16  1  0  0  0  0
  3 17  1  0  0  0  0
  4  1  2  0  0  0  0
  4 12  1  0  0  0  0
  5 11  1  0  0  0  0
  7 15  1  6  0  0  0
  7 27  1  0  0  0  0
  8  6  2  0  0  0  0
  8 11  1  0  0  0  0
  9  7  1  0  0  0  0
 10  3  2  0  0  0  0
 10 22  1  0  0  0  0
 11 28  1  1  0  0  0
 12  8  1  0  0  0  0
 13  2  2  0  0  0  0
 14 23  1  0  0  0  0
 14  9  1  0  0  0  0
 17 26  2  0  0  0  0
 17 20  1  0  0  0  0
 18 13  1  0  0  0  0
 19  2  1  0  0  0  0
 19  1  1  0  0  0  0
 20  4  1  0  0  0  0
 21 10  1  0  0  0  0
 22  9  1  0  0  0  0
 22 20  2  0  0  0  0
 23 15  2  0  0  0  0
 25 18  2  0  0  0  0
 25 26  1  0  0  0  0
 26 19  1  0  0  0  0
 27 24  1  6  0  0  0
 27 12  1  0  0  0  0
 28 30  1  0  0  0  0
 30 29  1  0  0  0  0
M  END
>  <MODEL>
4

>  <REMARK>
 VINA RESULT:      -7.2      2.766      7.343
  Name = 
  2 active torsions:
  status: ('A' for Active; 'I' for Inactive)
    1  A    between atoms: C_11  and  O_28
    2  A    between atoms: O_28  and  C_30
                            x       y       z     vdW  Elec       q    Type
                         _______ _______ _______ _____ _____    ______ ____

>  <TORSDO>
F 2

$$$$
=
 OpenBabel11122412453D

 30 35  0  0  1  0  0  0  0  0999 V2000
  161.0650  209.1240  151.5730 C   0  0  0  0  0  0  0  0  0  0  0  0
  161.3050  211.4070  150.7870 C   0  0  0  0  0  0  0  0  0  0  0  0
  161.9970  207.6340  147.8560 N   0  0  0  0  0  0  0  0  0  0  0  0
  161.1750  207.7150  151.3670 C   0  0  0  0  0  0  0  0  0  0  0  0
  160.4870  209.5700  152.8920 C   0  0  0  0  0  2  0  0  0  0  0  0
  160.6370  206.5550  154.7880 O   0  0  0  0  0  0  0  0  0  0  0  0
  160.5020  204.6800  151.3000 C   0  0  1  0  0  3  0  0  0  0  0  0
  160.8670  207.3260  153.8150 C   0  0  0  0  0  0  0  0  0  0  0  0
  161.1670  204.8090  150.0190 N   0  0  0  0  0  0  0  0  0  0  0  0
  161.8630  206.3110  148.1070 C   0  0  0  0  0  0  0  0  0  0  0  0
  161.0660  208.7910  154.0590 C   0  0  2  0  0  3  0  0  0  0  0  0
  161.0290  206.7950  152.4880 N   0  0  0  0  0  0  0  0  0  0  0  0
  161.5820  212.3180  149.7650 C   0  0  0  0  0  3  0  0  0  0  0  0
  161.4630  203.5070  149.4480 C   0  0  0  0  0  2  0  0  0  0  0  0
  160.4530  203.2060  151.5210 C   0  0  0  0  0  3  0  0  0  0  0  0
  161.0250  211.9340  152.0050 F   0  0  0  0  0  0  0  0  0  0  0  0
  161.7510  208.2390  149.0360 C   0  0  0  0  0  0  0  0  0  0  0  0
  161.9140  211.8640  148.4970 C   0  0  0  0  0  3  0  0  0  0  0  0
  161.3520  210.0430  150.5610 N   0  0  0  0  0  0  0  0  0  0  0  0
  161.4680  207.2960  150.0670 C   0  0  0  0  0  0  0  0  0  0  0  0
  162.0010  205.2830  147.0380 C   0  0  0  0  0  1  0  0  0  0  0  0
  161.5270  206.0680  149.4400 C   0  0  0  0  0  0  0  0  0  0  0  0
  160.9830  202.5540  150.4880 C   0  0  0  0  0  3  0  0  0  0  0  0
  162.6860  205.1400  152.2590 O   0  0  0  0  0  1  0  0  0  0  0  0
  161.9740  210.5010  148.2570 C   0  0  0  0  0  3  0  0  0  0  0  0
  161.6990  209.5990  149.2910 C   0  0  0  0  0  0  0  0  0  0  0  0
  161.3120  205.3600  152.3980 C   0  0  2  0  0  3  0  0  0  0  0  0
  160.4330  209.1870  155.2390 O   0  0  0  0  0  0  0  0  0  0  0  0
  161.0200  210.5040  157.1290 C   0  0  0  0  0  1  0  0  0  0  0  0
  161.0910  210.3560  155.6240 C   0  0  0  0  0  2  0  0  0  0  0  0
  1  5  1  0  0  0  0
  2 16  1  0  0  0  0
  3 10  2  0  0  0  0
  3 17  1  0  0  0  0
  4  1  2  0  0  0  0
  4 12  1  0  0  0  0
  5 11  1  0  0  0  0
  7 15  1  1  0  0  0
  7 27  1  0  0  0  0
  8 11  1  0  0  0  0
  8  6  2  0  0  0  0
  9  7  1  0  0  0  0
 10 22  1  0  0  0  0
 11 28  1  1  0  0  0
 12  8  1  0  0  0  0
 13  2  2  0  0  0  0
 14  9  1  0  0  0  0
 14 23  1  0  0  0  0
 17 26  2  0  0  0  0
 17 20  1  0  0  0  0
 18 13  1  0  0  0  0
 19  2  1  0  0  0  0
 19  1  1  0  0  0  0
 20  4  1  0  0  0  0
 21 10  1  0  0  0  0
 22  9  1  0  0  0  0
 22 20  2  0  0  0  0
 23 15  2  0  0  0  0
 25 18  2  0  0  0  0
 25 26  1  0  0  0  0
 26 19  1  0  0  0  0
 27 24  1  6  0  0  0
 27 12  1  0  0  0  0
 28 30  1  0  0  0  0
 30 29  1  0  0  0  0
M  END
>  <MODEL>
5

>  <REMARK>
 VINA RESULT:      -6.9      2.740      7.210
  Name = 
  2 active torsions:
  status: ('A' for Active; 'I' for Inactive)
    1  A    between atoms: C_11  and  O_28
    2  A    between atoms: O_28  and  C_30
                            x       y       z     vdW  Elec       q    Type
                         _______ _______ _______ _____ _____    ______ ____

>  <TORSDO>
F 2

$$$$
=
 OpenBabel11122412453D

 30 35  0  0  1  0  0  0  0  0999 V2000
  161.2440  203.8350  147.7380 C   0  0  0  0  0  0  0  0  0  0  0  0
  161.1950  203.9560  145.3160 C   0  0  0  0  0  0  0  0  0  0  0  0
  161.3430  207.9340  148.0460 N   0  0  0  0  0  0  0  0  0  0  0  0
  161.2090  204.4640  149.0200 C   0  0  0  0  0  0  0  0  0  0  0  0
  161.4500  202.3420  147.7250 C   0  0  0  0  0  2  0  0  0  0  0  0
  160.8390  201.5110  151.1370 O   0  0  0  0  0  0  0  0  0  0  0  0
  161.9100  205.2380  151.9490 C   0  0  1  0  0  3  0  0  0  0  0  0
  160.8650  202.2420  150.1080 C   0  0  0  0  0  0  0  0  0  0  0  0
  161.6050  206.5520  151.4180 N   0  0  0  0  0  0  0  0  0  0  0  0
  161.4210  208.0540  149.3920 C   0  0  0  0  0  0  0  0  0  0  0  0
  160.5920  201.6410  148.7630 C   0  0  2  0  0  3  0  0  0  0  0  0
  161.0650  203.6610  150.2280 N   0  0  0  0  0  0  0  0  0  0  0  0
  161.1870  204.7030  144.1360 C   0  0  0  0  0  3  0  0  0  0  0  0
  161.4850  207.5320  152.4810 C   0  0  0  0  0  2  0  0  0  0  0  0
  161.9160  205.4510  153.4250 C   0  0  0  0  0  3  0  0  0  0  0  0
  161.1380  202.6080  145.1760 F   0  0  0  0  0  0  0  0  0  0  0  0
  161.2620  206.6070  147.8190 C   0  0  0  0  0  0  0  0  0  0  0  0
  161.2060  206.0890  144.1880 C   0  0  0  0  0  3  0  0  0  0  0  0
  161.2250  204.5740  146.5530 N   0  0  0  0  0  0  0  0  0  0  0  0
  161.2740  205.8590  149.0330 C   0  0  0  0  0  0  0  0  0  0  0  0
  161.5810  209.3740  150.0620 C   0  0  0  0  0  1  0  0  0  0  0  0
  161.3970  206.8100  150.0250 C   0  0  0  0  0  0  0  0  0  0  0  0
  161.6840  206.7290  153.7200 C   0  0  0  0  0  3  0  0  0  0  0  0
  159.5460  204.7780  151.6370 O   0  0  0  0  0  1  0  0  0  0  0  0
  161.2270  206.7230  145.4190 C   0  0  0  0  0  3  0  0  0  0  0  0
  161.2290  205.9630  146.5940 C   0  0  0  0  0  0  0  0  0  0  0  0
  160.8320  204.2340  151.5560 C   0  0  2  0  0  3  0  0  0  0  0  0
  160.8870  200.2760  148.7610 O   0  0  0  0  0  0  0  0  0  0  0  0
  161.2060  199.4530  146.5540 C   0  0  0  0  0  1  0  0  0  0  0  0
  161.8430  200.1170  147.7560 C   0  0  0  0  0  2  0  0  0  0  0  0
  1  4  2  0  0  0  0
  2 19  1  0  0  0  0
  3 10  2  0  0  0  0
  4 20  1  0  0  0  0
  4 12  1  0  0  0  0
  5  1  1  0  0  0  0
  5 11  1  0  0  0  0
  7 15  1  1  0  0  0
  8 12  1  0  0  0  0
  8  6  2  0  0  0  0
  9  7  1  0  0  0  0
  9 14  1  0  0  0  0
 10 22  1  0  0  0  0
 10 21  1  0  0  0  0
 11 28  1  1  0  0  0
 11  8  1  0  0  0  0
 12 27  1  0  0  0  0
 13 18  1  0  0  0  0
 13  2  2  0  0  0  0
 14 23  1  0  0  0  0
 15 23  2  0  0  0  0
 16  2  1  0  0  0  0
 17  3  1  0  0  0  0
 17 20  1  0  0  0  0
 18 25  2  0  0  0  0
 19 26  1  0  0  0  0
 19  1  1  0  0  0  0
 20 22  2  0  0  0  0
 22  9  1  0  0  0  0
 25 26  1  0  0  0  0
 26 17  2  0  0  0  0
 27 24  1  6  0  0  0
 27  7  1  0  0  0  0
 29 30  1  0  0  0  0
 30 28  1  0  0  0  0
M  END
>  <MODEL>
6

>  <REMARK>
 VINA RESULT:      -6.4      2.787      5.448
  Name = 
  2 active torsions:
  status: ('A' for Active; 'I' for Inactive)
    1  A    between atoms: C_11  and  O_28
    2  A    between atoms: O_28  and  C_30
                            x       y       z     vdW  Elec       q    Type
                         _______ _______ _______ _____ _____    ______ ____

>  <TORSDO>
F 2

$$$$
