=
 OpenBabel11122413113D

 31 35  0  0  1  0  0  0  0  0999 V2000
  162.3270  210.7000  149.3500 C   0  0  0  0  0  0  0  0  0  0  0  0
  161.9590  208.6420  152.5300 C   0  0  2  0  0  3  0  0  0  0  0  0
  160.8550  209.2940  153.3400 C   0  0  0  0  0  0  0  0  0  0  0  0
  159.3780  211.2340  153.9300 C   0  0  1  0  0  3  0  0  0  0  0  0
  161.9600  209.0170  151.0640 C   0  0  0  0  0  0  0  0  0  0  0  0
  161.9120  209.7970  148.3700 C   0  0  0  0  0  3  0  0  0  0  0  0
  160.3640  210.5140  153.0460 C   0  0  0  0  0  3  0  0  0  0  0  0
  160.9330  206.4330  151.8550 C   0  0  2  0  0  3  0  0  0  0  0  0
  162.7090  211.9860  148.9930 O   0  0  0  0  0  1  0  0  0  0  0  0
  161.4800  207.8370  155.0930 O   0  0  0  0  0  0  0  0  0  0  0  0
  158.1500  212.0430  152.9320 Cl  0  0  0  0  0  0  0  0  0  0  0  0
  161.2680  206.6690  150.3870 C   0  0  0  0  0  2  0  0  0  0  0  0
  161.9780  207.1090  152.7610 C   0  0  2  0  0  3  0  0  0  0  0  0
  162.3540  210.3100  150.6910 C   0  0  0  0  0  3  0  0  0  0  0  0
  158.7040  210.3080  154.9420 C   0  0  0  0  0  2  0  0  0  0  0  0
  161.5490  208.1060  150.0690 C   0  0  0  0  0  0  0  0  0  0  0  0
  161.5340  208.5010  148.7290 C   0  0  0  0  0  3  0  0  0  0  0  0
  161.7280  206.7340  154.2470 C   0  0  0  0  0  2  0  0  0  0  0  0
  160.3850  208.5280  154.5550 C   0  0  1  0  0  3  0  0  0  0  0  0
  159.7550  209.4310  155.6100 C   0  0  0  0  0  2  0  0  0  0  0  0
  160.8720  204.9920  152.0860 N   0  0  0  0  0  2  0  0  0  0  0  0
  162.0130  202.9730  151.3380 C   0  0  0  0  0  1  0  0  0  0  0  0
  161.4220  204.3130  150.9180 C   0  0  1  0  0  3  0  0  0  0  0  0
  160.8730  201.5220  148.4350 C   0  0  1  0  0  3  0  0  0  0  0  0
  159.6390  202.8530  150.0480 O   0  0  0  0  0  0  0  0  0  0  0  0
  161.9560  205.2660  148.0680 O   0  0  0  0  0  0  0  0  0  0  0  0
  161.6310  200.2180  148.3110 C   0  0  0  0  0  1  0  0  0  0  0  0
  160.5440  201.7780  149.9050 C   0  0  0  0  0  2  0  0  0  0  0  0
  160.8620  204.2100  148.1170 S   0  0  2  0  0  0  0  0  0  0  0  0
  160.3270  204.0760  149.8540 C   0  0  2  0  0  3  0  0  0  0  0  0
  161.7330  202.6510  147.8910 C   0  0  0  0  0  2  0  0  0  0  0  0
  1 14  1  0  0  0  0
  2  5  1  6  0  0  0
  2 13  1  0  0  0  0
  2  3  1  0  0  0  0
  3 19  1  0  0  0  0
  4 11  1  6  0  0  0
  4 15  1  0  0  0  0
  6 17  1  0  0  0  0
  6  1  2  0  0  0  0
  7  3  2  0  0  0  0
  7  4  1  0  0  0  0
  8 21  1  6  0  0  0
  8 13  1  0  0  0  0
  9  1  1  0  0  0  0
 12  8  1  0  0  0  0
 13 18  1  1  0  0  0
 14  5  2  0  0  0  0
 15 20  1  0  0  0  0
 16 12  1  0  0  0  0
 16  5  1  0  0  0  0
 17 16  2  0  0  0  0
 18 10  1  0  0  0  0
 19 10  1  0  0  0  0
 19 20  1  1  0  0  0
 23 22  1  1  0  0  0
 23 21  1  0  0  0  0
 24 27  1  1  0  0  0
 24 28  1  0  0  0  0
 28 25  1  0  0  0  0
 29 26  2  1  0  0  0
 29 30  1  0  0  0  0
 30 25  1  0  0  0  0
 30 23  1  1  0  0  0
 31 29  1  0  0  0  0
 31 24  1  0  0  0  0
M  END
>  <MODEL>
1

>  <REMARK>
 VINA RESULT:      -4.6      0.000      0.000
  Name = 
  3 active torsions:
  status: ('A' for Active; 'I' for Inactive)
    1  A    between atoms: C_5  and  N_16
    2  A    between atoms: C_5  and  C_30
    3  A    between atoms: C_10  and  N_16
                            x       y       z     vdW  Elec       q    Type
                         _______ _______ _______ _____ _____    ______ ____

>  <TORSDO>
F 3

$$$$
=
 OpenBabel11122413113D

 31 35  0  0  1  0  0  0  0  0999 V2000
  160.7720  207.7060  156.2860 C   0  0  0  0  0  0  0  0  0  0  0  0
  161.8190  209.2190  152.9550 C   0  0  2  0  0  3  0  0  0  0  0  0
  161.5430  208.1660  151.8990 C   0  0  0  0  0  0  0  0  0  0  0  0
  161.1340  205.8020  151.1680 C   0  0  1  0  0  3  0  0  0  0  0  0
  161.0750  209.0050  154.2550 C   0  0  0  0  0  0  0  0  0  0  0  0
  159.6890  208.5100  156.6440 C   0  0  0  0  0  3  0  0  0  0  0  0
  161.2580  206.8860  152.2080 C   0  0  0  0  0  3  0  0  0  0  0  0
  160.1310  211.0190  152.4090 C   0  0  2  0  0  3  0  0  0  0  0  0
  161.1600  206.6580  157.1100 O   0  0  0  0  0  1  0  0  0  0  0  0
  162.7060  209.5760  150.4000 O   0  0  0  0  0  0  0  0  0  0  0  0
  159.7740  204.7300  151.5720 Cl  0  0  0  0  0  0  0  0  0  0  0  0
  159.6200  211.0460  153.8450 C   0  0  0  0  0  2  0  0  0  0  0  0
  161.6230  210.6430  152.3760 C   0  0  2  0  0  3  0  0  0  0  0  0
  161.4650  207.9550  155.0990 C   0  0  0  0  0  3  0  0  0  0  0  0
  160.9630  206.3530  149.7540 C   0  0  0  0  0  2  0  0  0  0  0  0
  159.9840  209.8190  154.6240 C   0  0  0  0  0  0  0  0  0  0  0  0
  159.3030  209.5690  155.8190 C   0  0  0  0  0  3  0  0  0  0  0  0
  162.1800  210.7730  150.9320 C   0  0  0  0  0  2  0  0  0  0  0  0
  161.6850  208.6160  150.4630 C   0  0  1  0  0  3  0  0  0  0  0  0
  161.9810  207.4610  149.5120 C   0  0  0  0  0  2  0  0  0  0  0  0
  159.8930  212.3310  151.8130 N   0  0  0  0  0  2  0  0  0  0  0  0
  157.6580  212.2930  152.7820 C   0  0  0  0  0  1  0  0  0  0  0  0
  158.4720  212.4470  151.5030 C   0  0  1  0  0  3  0  0  0  0  0  0
  157.5700  213.4380  147.9730 C   0  0  1  0  0  3  0  0  0  0  0  0
  156.8760  213.8540  150.2620 O   0  0  0  0  0  0  0  0  0  0  0  0
  160.7610  213.9710  150.1780 O   0  0  0  0  0  0  0  0  0  0  0  0
  157.2770  212.5360  146.7940 C   0  0  0  0  0  1  0  0  0  0  0  0
  156.8260  212.9220  149.2030 C   0  0  0  0  0  2  0  0  0  0  0  0
  159.4030  214.4500  149.6900 S   0  0  2  0  0  0  0  0  0  0  0  0
  158.1590  213.8170  150.8620 C   0  0  2  0  0  3  0  0  0  0  0  0
  159.0680  213.4430  148.2360 C   0  0  0  0  0  2  0  0  0  0  0  0
  1  6  1  0  0  0  0
  1  9  1  0  0  0  0
  2  3  1  6  0  0  0
  2  5  1  0  0  0  0
  3  7  2  0  0  0  0
  4 11  1  1  0  0  0
  4  7  1  0  0  0  0
  5 16  2  0  0  0  0
  5 14  1  0  0  0  0
  8 21  1  1  0  0  0
  8 12  1  0  0  0  0
 10 19  1  0  0  0  0
 10 18  1  0  0  0  0
 12 16  1  0  0  0  0
 13 18  1  6  0  0  0
 13  8  1  0  0  0  0
 13  2  1  0  0  0  0
 14  1  2  0  0  0  0
 15  4  1  0  0  0  0
 16 17  1  0  0  0  0
 17  6  2  0  0  0  0
 19 20  1  6  0  0  0
 19  3  1  0  0  0  0
 20 15  1  0  0  0  0
 23 21  1  0  0  0  0
 23 22  1  1  0  0  0
 24 27  1  6  0  0  0
 24 31  1  0  0  0  0
 24 28  1  0  0  0  0
 25 30  1  0  0  0  0
 28 25  1  0  0  0  0
 29 26  2  1  0  0  0
 29 30  1  0  0  0  0
 30 23  1  6  0  0  0
 31 29  1  0  0  0  0
M  END
>  <MODEL>
2

>  <REMARK>
 VINA RESULT:      -4.4      3.822      7.930
  Name = 
  3 active torsions:
  status: ('A' for Active; 'I' for Inactive)
    1  A    between atoms: C_5  and  N_16
    2  A    between atoms: C_5  and  C_30
    3  A    between atoms: C_10  and  N_16
                            x       y       z     vdW  Elec       q    Type
                         _______ _______ _______ _____ _____    ______ ____

>  <TORSDO>
F 3

$$$$
=
 OpenBabel11122413113D

 31 35  0  0  1  0  0  0  0  0999 V2000
  161.0640  208.7600  154.6560 C   0  0  0  0  0  0  0  0  0  0  0  0
  162.1060  210.0400  151.2270 C   0  0  2  0  0  3  0  0  0  0  0  0
  161.7770  208.9380  150.2380 C   0  0  0  0  0  0  0  0  0  0  0  0
  161.2760  206.5520  149.6520 C   0  0  1  0  0  3  0  0  0  0  0  0
  161.3770  209.9280  152.5480 C   0  0  0  0  0  0  0  0  0  0  0  0
  160.0140  209.6200  154.9810 C   0  0  0  0  0  3  0  0  0  0  0  0
  161.4550  207.6890  150.6260 C   0  0  0  0  0  3  0  0  0  0  0  0
  160.4710  211.8640  150.6010 C   0  0  2  0  0  3  0  0  0  0  0  0
  161.4300  207.7490  155.5330 O   0  0  0  0  0  1  0  0  0  0  0  0
  162.9620  210.2180  148.6420 O   0  0  0  0  0  0  0  0  0  0  0  0
  159.8880  205.5530  150.1380 Cl  0  0  0  0  0  0  0  0  0  0  0  0
  159.9850  211.9920  152.0400 C   0  0  0  0  0  2  0  0  0  0  0  0
  161.9490  211.4350  150.5680 C   0  0  2  0  0  3  0  0  0  0  0  0
  161.7450  208.9160  153.4460 C   0  0  0  0  0  3  0  0  0  0  0  0
  161.1020  207.0260  148.2110 C   0  0  0  0  0  2  0  0  0  0  0  0
  160.3200  210.7990  152.8840 C   0  0  0  0  0  0  0  0  0  0  0  0
  159.6510  210.6430  154.1010 C   0  0  0  0  0  3  0  0  0  0  0  0
  162.4860  211.4620  149.1110 C   0  0  0  0  0  2  0  0  0  0  0  0
  161.9110  209.3000  148.7760 C   0  0  1  0  0  3  0  0  0  0  0  0
  162.1520  208.0810  147.8910 C   0  0  0  0  0  2  0  0  0  0  0  0
  160.2680  213.1470  149.9330 N   0  0  0  0  0  2  0  0  0  0  0  0
  157.9650  212.7560  149.2400 C   0  0  0  0  0  1  0  0  0  0  0  0
  159.4050  212.9330  148.7760 C   0  0  1  0  0  3  0  0  0  0  0  0
  159.9040  213.1240  145.0380 C   0  0  1  0  0  3  0  0  0  0  0  0
  158.5030  214.0650  146.7830 O   0  0  0  0  0  0  0  0  0  0  0  0
  162.1610  214.0570  148.0990 O   0  0  0  0  0  0  0  0  0  0  0  0
  159.9470  211.9870  144.0410 C   0  0  0  0  0  1  0  0  0  0  0  0
  158.7270  212.9190  145.9890 C   0  0  0  0  0  2  0  0  0  0  0  0
  161.1180  214.4490  147.0630 S   0  0  2  0  0  0  0  0  0  0  0  0
  159.4830  214.1300  147.8030 C   0  0  2  0  0  3  0  0  0  0  0  0
  161.2070  213.1500  145.8220 C   0  0  0  0  0  2  0  0  0  0  0  0
  1  6  1  0  0  0  0
  1  9  1  0  0  0  0
  2  3  1  6  0  0  0
  2  5  1  0  0  0  0
  3  7  2  0  0  0  0
  4 11  1  1  0  0  0
  4  7  1  0  0  0  0
  5 16  2  0  0  0  0
  5 14  1  0  0  0  0
  8 21  1  1  0  0  0
  8 12  1  0  0  0  0
 10 19  1  0  0  0  0
 10 18  1  0  0  0  0
 12 16  1  0  0  0  0
 13 18  1  6  0  0  0
 13  8  1  0  0  0  0
 13  2  1  0  0  0  0
 14  1  2  0  0  0  0
 15  4  1  0  0  0  0
 16 17  1  0  0  0  0
 17  6  2  0  0  0  0
 19 20  1  6  0  0  0
 19  3  1  0  0  0  0
 20 15  1  0  0  0  0
 23 22  1  1  0  0  0
 23 21  1  0  0  0  0
 24 27  1  6  0  0  0
 24 31  1  0  0  0  0
 24 28  1  0  0  0  0
 25 30  1  0  0  0  0
 28 25  1  0  0  0  0
 29 30  1  0  0  0  0
 29 26  2  1  0  0  0
 30 23  1  6  0  0  0
 31 29  1  0  0  0  0
M  END
>  <MODEL>
3

>  <REMARK>
 VINA RESULT:      -3.8      3.931      7.931
  Name = 
  3 active torsions:
  status: ('A' for Active; 'I' for Inactive)
    1  A    between atoms: C_5  and  N_16
    2  A    between atoms: C_5  and  C_30
    3  A    between atoms: C_10  and  N_16
                            x       y       z     vdW  Elec       q    Type
                         _______ _______ _______ _____ _____    ______ ____

>  <TORSDO>
F 3

$$$$
=
 OpenBabel11122413113D

 31 35  0  0  1  0  0  0  0  0999 V2000
  162.2300  213.2150  148.1070 C   0  0  0  0  0  0  0  0  0  0  0  0
  159.7890  213.6310  150.9960 C   0  0  2  0  0  3  0  0  0  0  0  0
  158.4100  213.7680  150.3790 C   0  0  0  0  0  0  0  0  0  0  0  0
  156.8710  214.2690  148.4620 C   0  0  1  0  0  3  0  0  0  0  0  0
  160.8230  213.0170  150.0790 C   0  0  0  0  0  0  0  0  0  0  0  0
  162.6860  211.9090  148.2970 C   0  0  0  0  0  3  0  0  0  0  0  0
  158.2240  213.9790  149.0610 C   0  0  0  0  0  3  0  0  0  0  0  0
  159.6590  211.3960  152.1700 C   0  0  2  0  0  3  0  0  0  0  0  0
  162.6940  213.9620  147.0340 O   0  0  0  0  0  1  0  0  0  0  0  0
  157.6550  214.3270  152.5480 O   0  0  0  0  0  0  0  0  0  0  0  0
  156.6950  213.4030  146.9190 Cl  0  0  0  0  0  0  0  0  0  0  0  0
  160.9340  210.9090  151.4910 C   0  0  0  0  0  2  0  0  0  0  0  0
  159.7060  212.9220  152.3720 C   0  0  2  0  0  3  0  0  0  0  0  0
  161.3060  213.7680  148.9960 C   0  0  0  0  0  3  0  0  0  0  0  0
  155.7190  213.9080  149.3990 C   0  0  0  0  0  2  0  0  0  0  0  0
  161.2910  211.7010  150.2710 C   0  0  0  0  0  0  0  0  0  0  0  0
  162.2250  211.1590  149.3820 C   0  0  0  0  0  3  0  0  0  0  0  0
  158.4840  213.3930  153.2060 C   0  0  0  0  0  2  0  0  0  0  0  0
  157.2470  213.7370  151.3430 C   0  0  1  0  0  3  0  0  0  0  0  0
  156.0110  214.4420  150.7950 C   0  0  0  0  0  2  0  0  0  0  0  0
  159.5170  210.6890  153.4400 N   0  0  0  0  0  2  0  0  0  0  0  0
  159.7780  211.3880  155.7600 C   0  0  0  0  0  1  0  0  0  0  0  0
  160.4520  211.2690  154.3990 C   0  0  1  0  0  3  0  0  0  0  0  0
  161.0850  208.0020  156.1840 C   0  0  1  0  0  3  0  0  0  0  0  0
  161.5170  209.0750  154.0490 O   0  0  0  0  0  0  0  0  0  0  0  0
  162.2390  211.6860  156.8380 O   0  0  0  0  0  0  0  0  0  0  0  0
  160.0820  207.1040  156.8740 C   0  0  0  0  0  1  0  0  0  0  0  0
  160.5290  208.4340  154.8280 C   0  0  0  0  0  2  0  0  0  0  0  0
  162.4700  210.3290  156.1910 S   0  0  2  0  0  0  0  0  0  0  0  0
  161.7160  210.3910  154.5320 C   0  0  2  0  0  3  0  0  0  0  0  0
  161.3410  209.2230  157.0530 C   0  0  0  0  0  2  0  0  0  0  0  0
  1  6  2  0  0  0  0
  1 14  1  0  0  0  0
  2  5  1  6  0  0  0
  2 13  1  0  0  0  0
  3  2  1  0  0  0  0
  3 19  1  0  0  0  0
  4 11  1  6  0  0  0
  4  7  1  0  0  0  0
  4 15  1  0  0  0  0
  5 16  1  0  0  0  0
  6 17  1  0  0  0  0
  7  3  2  0  0  0  0
  8 13  1  0  0  0  0
  8 21  1  1  0  0  0
  9  1  1  0  0  0  0
 10 18  1  0  0  0  0
 12  8  1  0  0  0  0
 13 18  1  6  0  0  0
 14  5  2  0  0  0  0
 15 20  1  0  0  0  0
 16 12  1  0  0  0  0
 17 16  2  0  0  0  0
 19 20  1  6  0  0  0
 19 10  1  0  0  0  0
 21 23  1  0  0  0  0
 23 22  1  1  0  0  0
 24 27  1  1  0  0  0
 24 31  1  0  0  0  0
 25 30  1  0  0  0  0
 25 28  1  0  0  0  0
 28 24  1  0  0  0  0
 29 26  2  1  0  0  0
 29 31  1  0  0  0  0
 30 23  1  1  0  0  0
 30 29  1  0  0  0  0
M  END
>  <MODEL>
4

>  <REMARK>
 VINA RESULT:      -3.6      5.260      7.153
  Name = 
  3 active torsions:
  status: ('A' for Active; 'I' for Inactive)
    1  A    between atoms: C_5  and  N_16
    2  A    between atoms: C_5  and  C_30
    3  A    between atoms: C_10  and  N_16
                            x       y       z     vdW  Elec       q    Type
                         _______ _______ _______ _____ _____    ______ ____

>  <TORSDO>
F 3

$$$$
=
 OpenBabel11122413113D

 31 35  0  0  1  0  0  0  0  0999 V2000
  161.1330  201.3260  149.8670 C   0  0  0  0  0  0  0  0  0  0  0  0
  162.1480  204.5980  148.2110 C   0  0  2  0  0  3  0  0  0  0  0  0
  161.5430  204.5830  146.8210 C   0  0  0  0  0  0  0  0  0  0  0  0
  160.5520  203.4080  144.8390 C   0  0  1  0  0  3  0  0  0  0  0  0
  161.5100  203.6250  149.1780 C   0  0  0  0  0  0  0  0  0  0  0  0
  160.2940  201.7660  150.8920 C   0  0  0  0  0  3  0  0  0  0  0  0
  161.0160  203.4710  146.2720 C   0  0  0  0  0  3  0  0  0  0  0  0
  160.8530  206.4340  149.3690 C   0  0  2  0  0  3  0  0  0  0  0  0
  161.3610  199.9680  149.6910 O   0  0  0  0  0  1  0  0  0  0  0  0
  162.8320  206.5190  146.3980 O   0  0  0  0  0  0  0  0  0  0  0  0
  159.0370  202.4840  144.7340 Cl  0  0  0  0  0  0  0  0  0  0  0  0
  160.5070  205.5210  150.5390 C   0  0  0  0  0  2  0  0  0  0  0  0
  162.2140  206.0440  148.7660 C   0  0  2  0  0  3  0  0  0  0  0  0
  161.7410  202.2520  149.0160 C   0  0  0  0  0  3  0  0  0  0  0  0
  160.3660  204.7900  144.2140 C   0  0  0  0  0  2  0  0  0  0  0  0
  160.6670  204.0660  150.2200 C   0  0  0  0  0  0  0  0  0  0  0  0
  160.0710  203.1330  151.0730 C   0  0  0  0  0  3  0  0  0  0  0  0
  162.6390  207.0730  147.6820 C   0  0  0  0  0  2  0  0  0  0  0  0
  161.6370  205.8770  146.0440 C   0  0  1  0  0  3  0  0  0  0  0  0
  161.5740  205.6610  144.5360 C   0  0  0  0  0  2  0  0  0  0  0  0
  160.8510  207.8140  149.8480 N   0  0  0  0  0  2  0  0  0  0  0  0
  162.4550  208.9680  151.2740 C   0  0  0  0  0  1  0  0  0  0  0  0
  161.4340  207.8400  151.1850 C   0  0  1  0  0  3  0  0  0  0  0  0
  161.4310  209.7540  154.4390 C   0  0  1  0  0  3  0  0  0  0  0  0
  160.0530  209.4250  152.4680 O   0  0  0  0  0  0  0  0  0  0  0  0
  161.3680  205.9370  153.5700 O   0  0  0  0  0  0  0  0  0  0  0  0
  162.5070  210.6630  154.9910 C   0  0  0  0  0  1  0  0  0  0  0  0
  161.2020  210.0770  152.9640 C   0  0  0  0  0  2  0  0  0  0  0  0
  160.6280  207.2340  153.8590 S   0  0  2  0  0  0  0  0  0  0  0  0
  160.3430  208.0550  152.2560 C   0  0  2  0  0  3  0  0  0  0  0  0
  161.8730  208.3070  154.5920 C   0  0  0  0  0  2  0  0  0  0  0  0
  1  6  1  0  0  0  0
  2  3  1  6  0  0  0
  2 13  1  0  0  0  0
  2  5  1  0  0  0  0
  4 11  1  1  0  0  0
  4  7  1  0  0  0  0
  5 16  2  0  0  0  0
  6 17  2  0  0  0  0
  7  3  2  0  0  0  0
  8 21  1  1  0  0  0
  8 12  1  0  0  0  0
  9  1  1  0  0  0  0
 10 18  1  0  0  0  0
 13 18  1  6  0  0  0
 13  8  1  0  0  0  0
 14  5  1  0  0  0  0
 14  1  2  0  0  0  0
 15 20  1  0  0  0  0
 15  4  1  0  0  0  0
 16 12  1  0  0  0  0
 16 17  1  0  0  0  0
 19 20  1  6  0  0  0
 19 10  1  0  0  0  0
 19  3  1  0  0  0  0
 21 23  1  0  0  0  0
 23 22  1  6  0  0  0
 24 31  1  0  0  0  0
 24 27  1  6  0  0  0
 25 28  1  0  0  0  0
 28 24  1  0  0  0  0
 29 26  2  6  0  0  0
 29 31  1  0  0  0  0
 30 23  1  6  0  0  0
 30 25  1  0  0  0  0
 30 29  1  0  0  0  0
M  END
>  <MODEL>
5

>  <REMARK>
 VINA RESULT:      -3.4      3.420      8.236
  Name = 
  3 active torsions:
  status: ('A' for Active; 'I' for Inactive)
    1  A    between atoms: C_5  and  N_16
    2  A    between atoms: C_5  and  C_30
    3  A    between atoms: C_10  and  N_16
                            x       y       z     vdW  Elec       q    Type
                         _______ _______ _______ _____ _____    ______ ____

>  <TORSDO>
F 3

$$$$
=
 OpenBabel11122413113D

 31 35  0  0  1  0  0  0  0  0999 V2000
  161.8060  206.1820  147.1080 C   0  0  0  0  0  0  0  0  0  0  0  0
  162.4780  208.7300  149.8540 C   0  0  2  0  0  3  0  0  0  0  0  0
  161.9560  210.0600  149.3440 C   0  0  0  0  0  0  0  0  0  0  0  0
  161.2350  211.6110  147.5100 C   0  0  1  0  0  3  0  0  0  0  0  0
  161.9190  207.5240  149.1310 C   0  0  0  0  0  0  0  0  0  0  0  0
  160.8620  205.3480  147.7100 C   0  0  0  0  0  3  0  0  0  0  0  0
  161.6080  210.2570  148.0570 C   0  0  0  0  0  3  0  0  0  0  0  0
  160.8940  208.1940  151.7500 C   0  0  2  0  0  3  0  0  0  0  0  0
  162.2170  205.9390  145.8050 O   0  0  0  0  0  1  0  0  0  0  0  0
  163.0050  211.0270  151.2290 O   0  0  0  0  0  0  0  0  0  0  0  0
  159.8610  211.4530  146.3940 Cl  0  0  0  0  0  0  0  0  0  0  0  0
  160.6060  206.8090  151.1850 C   0  0  0  0  0  2  0  0  0  0  0  0
  162.3260  208.6340  151.3940 C   0  0  2  0  0  3  0  0  0  0  0  0
  162.3340  207.2640  147.8170 C   0  0  0  0  0  3  0  0  0  0  0  0
  160.9070  212.6240  148.6050 C   0  0  0  0  0  2  0  0  0  0  0  0
  160.9700  206.6740  149.7380 C   0  0  0  0  0  0  0  0  0  0  0  0
  160.4550  205.5880  149.0240 C   0  0  0  0  0  3  0  0  0  0  0  0
  162.6720  209.9710  152.1050 C   0  0  0  0  0  2  0  0  0  0  0  0
  161.9240  211.1880  150.3500 C   0  0  1  0  0  3  0  0  0  0  0  0
  161.9720  212.5630  149.6920 C   0  0  0  0  0  2  0  0  0  0  0  0
  160.6880  208.1520  153.1950 N   0  0  0  0  0  2  0  0  0  0  0  0
  159.4890  210.2270  152.7560 C   0  0  0  0  0  1  0  0  0  0  0  0
  160.4770  209.5150  153.6720 C   0  0  1  0  0  3  0  0  0  0  0  0
  162.0890  210.2940  156.9960 C   0  0  1  0  0  3  0  0  0  0  0  0
  160.0620  210.7730  155.7490 O   0  0  0  0  0  0  0  0  0  0  0  0
  160.8190  206.9810  155.3390 O   0  0  0  0  0  0  0  0  0  0  0  0
  163.4740  210.8440  157.2580 C   0  0  0  0  0  1  0  0  0  0  0  0
  161.4330  211.0900  155.8700 C   0  0  0  0  0  2  0  0  0  0  0  0
  160.5610  208.2030  156.2090 S   0  0  2  0  0  0  0  0  0  0  0  0
  159.9250  209.5140  155.1140 C   0  0  2  0  0  3  0  0  0  0  0  0
  162.2010  208.8300  156.6010 C   0  0  0  0  0  2  0  0  0  0  0  0
  1  6  2  0  0  0  0
  1 14  1  0  0  0  0
  2  5  1  6  0  0  0
  2 13  1  0  0  0  0
  3  2  1  0  0  0  0
  3 19  1  0  0  0  0
  4 11  1  6  0  0  0
  4  7  1  0  0  0  0
  4 15  1  0  0  0  0
  5 16  1  0  0  0  0
  6 17  1  0  0  0  0
  7  3  2  0  0  0  0
  8 21  1  1  0  0  0
  9  1  1  0  0  0  0
 10 18  1  0  0  0  0
 12  8  1  0  0  0  0
 13  8  1  0  0  0  0
 13 18  1  1  0  0  0
 14  5  2  0  0  0  0
 15 20  1  0  0  0  0
 16 12  1  0  0  0  0
 17 16  2  0  0  0  0
 19 20  1  6  0  0  0
 19 10  1  0  0  0  0
 21 23  1  0  0  0  0
 23 22  1  6  0  0  0
 24 27  1  6  0  0  0
 25 28  1  0  0  0  0
 28 24  1  0  0  0  0
 29 26  2  6  0  0  0
 29 31  1  0  0  0  0
 30 23  1  6  0  0  0
 30 25  1  0  0  0  0
 30 29  1  0  0  0  0
 31 24  1  0  0  0  0
M  END
>  <MODEL>
6

>  <REMARK>
 VINA RESULT:      -3.4      3.126      6.806
  Name = 
  3 active torsions:
  status: ('A' for Active; 'I' for Inactive)
    1  A    between atoms: C_5  and  N_16
    2  A    between atoms: C_5  and  C_30
    3  A    between atoms: C_10  and  N_16
                            x       y       z     vdW  Elec       q    Type
                         _______ _______ _______ _____ _____    ______ ____

>  <TORSDO>
F 3

$$$$
=
 OpenBabel11122413113D

 31 35  0  0  1  0  0  0  0  0999 V2000
  160.9690  205.0610  145.2340 C   0  0  0  0  0  0  0  0  0  0  0  0
  160.4590  205.0130  149.0050 C   0  0  2  0  0  3  0  0  0  0  0  0
  160.7650  203.6000  149.4630 C   0  0  0  0  0  0  0  0  0  0  0  0
  161.0490  201.1410  149.0530 C   0  0  1  0  0  3  0  0  0  0  0  0
  161.0230  205.3620  147.6450 C   0  0  0  0  0  0  0  0  0  0  0  0
  162.0700  205.9090  145.1000 C   0  0  0  0  0  3  0  0  0  0  0  0
  160.8980  202.5720  148.6020 C   0  0  0  0  0  3  0  0  0  0  0  0
  162.3500  206.3520  150.0140 C   0  0  2  0  0  3  0  0  0  0  0  0
  160.3970  204.4840  144.1090 O   0  0  0  0  0  1  0  0  0  0  0  0
  159.9140  204.2550  151.5690 O   0  0  0  0  0  0  0  0  0  0  0  0
  162.2530  200.3120  148.0420 Cl  0  0  0  0  0  0  0  0  0  0  0  0
  162.6890  206.9830  148.6690 C   0  0  0  0  0  2  0  0  0  0  0  0
  160.8450  206.0410  150.1000 C   0  0  2  0  0  3  0  0  0  0  0  0
  160.4460  204.7910  146.5010 C   0  0  0  0  0  3  0  0  0  0  0  0
  161.4320  201.0220  150.5280 C   0  0  0  0  0  2  0  0  0  0  0  0
  162.1300  206.2240  147.5040 C   0  0  0  0  0  0  0  0  0  0  0  0
  162.6410  206.4960  146.2320 C   0  0  0  0  0  3  0  0  0  0  0  0
  160.4760  205.5490  151.5260 C   0  0  0  0  0  2  0  0  0  0  0  0
  160.8320  203.3880  150.9580 C   0  0  1  0  0  3  0  0  0  0  0  0
  160.5510  201.9440  151.3600 C   0  0  0  0  0  2  0  0  0  0  0  0
  162.7710  207.2700  151.0700 N   0  0  0  0  0  2  0  0  0  0  0  0
  160.8810  208.1950  152.2990 C   0  0  0  0  0  1  0  0  0  0  0  0
  161.8270  208.3810  151.1190 C   0  0  1  0  0  3  0  0  0  0  0  0
  160.6340  211.8320  152.0820 C   0  0  1  0  0  3  0  0  0  0  0  0
  162.4360  210.2790  152.5670 O   0  0  0  0  0  0  0  0  0  0  0  0
  161.8850  210.2660  148.7180 O   0  0  0  0  0  0  0  0  0  0  0  0
  159.2640  212.2440  152.5750 C   0  0  0  0  0  1  0  0  0  0  0  0
  161.0770  210.5680  152.8170 C   0  0  0  0  0  2  0  0  0  0  0  0
  162.1770  210.9960  150.0210 S   0  0  2  0  0  0  0  0  0  0  0  0
  162.5690  209.7270  151.2690 C   0  0  2  0  0  3  0  0  0  0  0  0
  160.5670  211.5670  150.5870 C   0  0  0  0  0  2  0  0  0  0  0  0
  1 14  1  0  0  0  0
  2  5  1  6  0  0  0
  2  3  1  0  0  0  0
  2 13  1  0  0  0  0
  3 19  1  0  0  0  0
  4 11  1  6  0  0  0
  4 15  1  0  0  0  0
  6  1  2  0  0  0  0
  6 17  1  0  0  0  0
  7  4  1  0  0  0  0
  7  3  2  0  0  0  0
  8 13  1  0  0  0  0
  8 21  1  1  0  0  0
  9  1  1  0  0  0  0
 12  8  1  0  0  0  0
 13 18  1  1  0  0  0
 14  5  2  0  0  0  0
 15 20  1  0  0  0  0
 16  5  1  0  0  0  0
 16 12  1  0  0  0  0
 17 16  2  0  0  0  0
 18 10  1  0  0  0  0
 19 20  1  6  0  0  0
 19 10  1  0  0  0  0
 21 23  1  0  0  0  0
 23 22  1  1  0  0  0
 24 27  1  1  0  0  0
 24 28  1  0  0  0  0
 25 28  1  0  0  0  0
 29 26  2  6  0  0  0
 29 31  1  0  0  0  0
 29 30  1  0  0  0  0
 30 23  1  1  0  0  0
 30 25  1  0  0  0  0
 31 24  1  0  0  0  0
M  END
>  <MODEL>
7

>  <REMARK>
 VINA RESULT:      -3.2      3.476      7.439
  Name = 
  3 active torsions:
  status: ('A' for Active; 'I' for Inactive)
    1  A    between atoms: C_5  and  N_16
    2  A    between atoms: C_5  and  C_30
    3  A    between atoms: C_10  and  N_16
                            x       y       z     vdW  Elec       q    Type
                         _______ _______ _______ _____ _____    ______ ____

>  <TORSDO>
F 3

$$$$
=
 OpenBabel11122413113D

 31 35  0  0  1  0  0  0  0  0999 V2000
  160.8010  206.4680  146.5830 C   0  0  0  0  0  0  0  0  0  0  0  0
  160.2990  205.0460  150.0770 C   0  0  2  0  0  3  0  0  0  0  0  0
  160.6670  203.5760  150.0010 C   0  0  0  0  0  0  0  0  0  0  0  0
  161.0590  201.4440  148.7390 C   0  0  1  0  0  3  0  0  0  0  0  0
  160.8440  205.8840  148.9410 C   0  0  0  0  0  0  0  0  0  0  0  0
  161.8620  207.3530  146.7790 C   0  0  0  0  0  3  0  0  0  0  0  0
  160.8440  202.9340  148.8290 C   0  0  0  0  0  3  0  0  0  0  0  0
  162.1310  206.0100  151.5270 C   0  0  2  0  0  3  0  0  0  0  0  0
  160.2530  206.3110  145.3180 O   0  0  0  0  0  1  0  0  0  0  0  0
  159.7920  203.3940  152.1890 O   0  0  0  0  0  0  0  0  0  0  0  0
  162.2970  201.0850  147.5140 Cl  0  0  0  0  0  0  0  0  0  0  0  0
  162.4390  207.0960  150.5040 C   0  0  0  0  0  2  0  0  0  0  0  0
  160.6410  205.6260  151.4730 C   0  0  2  0  0  3  0  0  0  0  0  0
  160.2920  205.7390  147.6610 C   0  0  0  0  0  3  0  0  0  0  0  0
  161.4500  200.8190  150.0770 C   0  0  0  0  0  2  0  0  0  0  0  0
  161.9130  206.7840  149.1360 C   0  0  0  0  0  0  0  0  0  0  0  0
  162.4090  207.5170  148.0540 C   0  0  0  0  0  3  0  0  0  0  0  0
  160.2960  204.6390  152.6220 C   0  0  0  0  0  2  0  0  0  0  0  0
  160.7460  202.8450  151.3210 C   0  0  1  0  0  3  0  0  0  0  0  0
  160.5300  201.3420  151.1720 C   0  0  0  0  0  2  0  0  0  0  0  0
  162.5120  206.5030  152.8480 N   0  0  0  0  0  2  0  0  0  0  0  0
  160.8070  206.8240  154.5590 C   0  0  0  0  0  1  0  0  0  0  0  0
  161.4720  207.4110  153.3200 C   0  0  1  0  0  3  0  0  0  0  0  0
  159.9090  210.5570  154.7060 C   0  0  1  0  0  3  0  0  0  0  0  0
  161.8600  209.1470  155.0240 O   0  0  0  0  0  0  0  0  0  0  0  0
  161.3560  209.6000  151.1960 O   0  0  0  0  0  0  0  0  0  0  0  0
  158.4970  210.7540  155.2140 C   0  0  0  0  0  1  0  0  0  0  0  0
  160.4740  209.2580  155.2750 C   0  0  0  0  0  2  0  0  0  0  0  0
  161.5550  210.1740  152.5910 S   0  0  2  0  0  0  0  0  0  0  0  0
  162.0650  208.7940  153.6680 C   0  0  2  0  0  3  0  0  0  0  0  0
  159.8870  210.4920  153.1870 C   0  0  0  0  0  2  0  0  0  0  0  0
  1  6  2  0  0  0  0
  1 14  1  0  0  0  0
  2  5  1  6  0  0  0
  2 13  1  0  0  0  0
  3  2  1  0  0  0  0
  3 19  1  0  0  0  0
  4 11  1  6  0  0  0
  4  7  1  0  0  0  0
  4 15  1  0  0  0  0
  5 16  1  0  0  0  0
  6 17  1  0  0  0  0
  7  3  2  0  0  0  0
  8 21  1  1  0  0  0
  9  1  1  0  0  0  0
 10 18  1  0  0  0  0
 12  8  1  0  0  0  0
 13  8  1  0  0  0  0
 13 18  1  1  0  0  0
 14  5  2  0  0  0  0
 15 20  1  0  0  0  0
 16 12  1  0  0  0  0
 17 16  2  0  0  0  0
 19 20  1  6  0  0  0
 19 10  1  0  0  0  0
 21 23  1  0  0  0  0
 23 22  1  1  0  0  0
 24 27  1  1  0  0  0
 24 28  1  0  0  0  0
 25 28  1  0  0  0  0
 29 26  2  6  0  0  0
 29 31  1  0  0  0  0
 29 30  1  0  0  0  0
 30 23  1  6  0  0  0
 30 25  1  0  0  0  0
 31 24  1  0  0  0  0
M  END
>  <MODEL>
8

>  <REMARK>
 VINA RESULT:      -3.1      3.190      7.150
  Name = 
  3 active torsions:
  status: ('A' for Active; 'I' for Inactive)
    1  A    between atoms: C_5  and  N_16
    2  A    between atoms: C_5  and  C_30
    3  A    between atoms: C_10  and  N_16
                            x       y       z     vdW  Elec       q    Type
                         _______ _______ _______ _____ _____    ______ ____

>  <TORSDO>
F 3

$$$$
=
 OpenBabel11122413113D

 31 36  0  0  1  0  0  0  0  0999 V2000
  162.3170  210.7610  149.3350 C   0  0  0  0  0  0  0  0  0  0  0  0
  162.1310  207.9710  151.9170 C   0  0  2  0  0  3  0  0  0  0  0  0
  161.1450  208.4280  152.9750 C   0  0  0  0  0  0  0  0  0  0  0  0
  159.8430  210.1970  154.1840 C   0  0  1  0  0  3  0  0  0  0  0  0
  162.0170  208.7080  150.6000 C   0  0  0  0  0  0  0  0  0  0  0  0
  161.7630  210.1520  148.2080 C   0  0  0  0  0  3  0  0  0  0  0  0
  160.7000  209.6980  153.0500 C   0  0  0  0  0  3  0  0  0  0  0  0
  160.9230  206.0410  150.8200 C   0  0  2  0  0  3  0  0  0  0  0  0
  162.7370  212.0820  149.2740 O   0  0  0  0  0  1  0  0  0  0  0  0
  161.8480  206.5530  154.2300 O   0  0  0  0  0  0  0  0  0  0  0  0
  158.5750  211.2730  153.5560 Cl  0  0  0  0  0  0  0  0  0  0  0  0
  161.1330  206.6330  149.4310 C   0  0  2  0  0  3  0  0  0  0  0  0
  162.0850  206.4300  151.7520 C   0  0  2  0  0  3  0  0  0  0  0  0
  162.4470  210.0400  150.5250 C   0  0  0  0  0  3  0  0  0  0  0  0
  159.2140  209.0660  154.9960 C   0  0  0  0  0  2  0  0  0  0  0  0
  161.4640  208.0940  149.4570 C   0  0  0  0  0  0  0  0  0  0  0  0
  161.3470  208.8190  148.2680 C   0  0  0  0  0  3  0  0  0  0  0  0
  161.9530  205.6950  153.1140 C   0  0  0  0  0  2  0  0  0  0  0  0
  160.7480  207.3920  154.0010 C   0  0  1  0  0  3  0  0  0  0  0  0
  160.2710  208.0150  155.3090 C   0  0  0  0  0  2  0  0  0  0  0  0
  160.8030  204.5910  150.6860 N   0  0  0  0  0  2  0  0  0  0  0  0
  160.7570  205.5440  148.4450 C   0  0  0  0  0  2  0  0  0  0  0  0
  160.6590  204.2670  149.2710 C   0  0  1  0  0  3  0  0  0  0  0  0
  160.9010  201.9440  146.3050 C   0  0  1  0  0  3  0  0  0  0  0  0
  162.2400  203.5670  147.5170 O   0  0  0  0  0  0  0  0  0  0  0  0
  160.4230  201.3530  150.1460 O   0  0  0  0  0  0  0  0  0  0  0  0
  159.9610  201.8320  145.1250 C   0  0  0  0  0  1  0  0  0  0  0  0
  161.1900  203.4170  146.5840 C   0  0  0  0  0  2  0  0  0  0  0  0
  161.3390  201.5110  148.9410 S   0  0  2  0  0  0  0  0  0  0  0  0
  161.7580  203.2810  148.8170 C   0  0  2  0  0  3  0  0  0  0  0  0
  160.2540  201.3020  147.5220 C   0  0  0  0  0  2  0  0  0  0  0  0
  1 14  1  0  0  0  0
  2  5  1  6  0  0  0
  2  3  1  0  0  0  0
  3  7  2  0  0  0  0
  3 19  1  0  0  0  0
  4 11  1  6  0  0  0
  4 15  1  0  0  0  0
  6 17  1  0  0  0  0
  6  1  2  0  0  0  0
  7  4  1  0  0  0  0
  8 21  1  6  0  0  0
  8 13  1  0  0  0  0
  9  1  1  0  0  0  0
 12 22  1  6  0  0  0
 12 16  1  0  0  0  0
 12  8  1  0  0  0  0
 13  2  1  0  0  0  0
 13 18  1  1  0  0  0
 14  5  2  0  0  0  0
 15 20  1  0  0  0  0
 16  5  1  0  0  0  0
 17 16  2  0  0  0  0
 18 10  1  0  0  0  0
 19 10  1  0  0  0  0
 19 20  1  1  0  0  0
 23 22  1  6  0  0  0
 23 21  1  0  0  0  0
 24 27  1  6  0  0  0
 24 28  1  0  0  0  0
 24 31  1  0  0  0  0
 28 25  1  0  0  0  0
 29 26  2  1  0  0  0
 30 25  1  6  0  0  0
 30 29  1  0  0  0  0
 30 23  1  0  0  0  0
 31 29  1  0  0  0  0
M  END
>  <MODEL>
9

>  <REMARK>
 VINA RESULT:      -2.7      1.371      2.041
  Name = 
  3 active torsions:
  status: ('A' for Active; 'I' for Inactive)
    1  A    between atoms: C_5  and  N_16
    2  A    between atoms: C_5  and  C_30
    3  A    between atoms: C_10  and  N_16
                            x       y       z     vdW  Elec       q    Type
                         _______ _______ _______ _____ _____    ______ ____

>  <TORSDO>
F 3

$$$$
