=
 OpenBabel11122412483D

 32 37  0  0  1  0  0  0  0  0999 V2000
  159.5550  209.2780  156.4000 C   0  0  0  0  0  2  0  0  0  0  0  0
  161.3560  206.3470  152.3030 C   0  0  1  0  0  3  0  0  0  0  0  0
  162.1150  209.7220  148.7430 C   0  0  0  0  0  3  0  0  0  0  0  0
  161.9020  208.7540  147.7640 C   0  0  0  0  0  3  0  0  0  0  0  0
  160.7640  204.0000  151.6100 C   0  0  0  0  0  0  0  0  0  0  0  0
  160.9760  203.0460  150.5300 C   0  0  0  0  0  0  0  0  0  0  0  0
  161.2370  207.1600  154.6250 N   0  0  1  0  0  0  0  0  0  0  0  0
  162.0080  208.6980  152.8730 C   0  0  0  0  0  2  0  0  0  0  0  0
  161.1550  202.3250  148.4730 N   0  0  0  0  0  0  0  0  0  0  0  0
  161.7900  209.5470  155.1890 C   0  0  0  0  0  2  0  0  0  0  0  0
  161.9880  209.3870  150.0920 C   0  0  0  0  0  3  0  0  0  0  0  0
  161.5350  207.7400  151.8710 N   0  0  0  0  0  0  0  0  0  0  0  0
  161.6440  208.0790  150.4790 C   0  0  0  0  0  0  0  0  0  0  0  0
  161.0390  205.7660  149.8690 N   0  0  0  0  0  0  0  0  0  0  0  0
  161.2470  201.2620  149.2610 N   0  0  0  0  0  0  0  0  0  0  0  0
  159.2560  207.8070  156.0640 C   0  0  0  0  0  2  0  0  0  0  0  0
  161.2090  208.5630  154.1640 C   0  0  2  0  0  3  0  0  0  0  0  0
  161.1390  201.6710  150.5490 C   0  0  0  0  0  3  0  0  0  0  0  0
  160.5130  206.9350  155.8880 C   0  0  0  0  0  2  0  0  0  0  0  0
  161.0520  209.5880  156.5310 C   0  0  1  0  0  3  0  0  0  0  0  0
  161.5540  207.4550  148.1380 C   0  0  0  0  0  3  0  0  0  0  0  0
  161.4130  207.1050  149.4930 C   0  0  0  0  0  0  0  0  0  0  0  0
  160.7320  204.8150  148.7830 C   0  0  0  0  0  2  0  0  0  0  0  0
  160.5720  206.3360  153.6180 C   0  0  0  0  0  2  0  0  0  0  0  0
  160.6400  203.5860  152.7950 O   0  0  0  0  0  0  0  0  0  0  0  0
  161.1910  202.2680  147.0230 C   0  0  0  0  0  1  0  0  0  0  0  0
  160.6140  205.4770  151.2660 C   0  0  2  0  0  3  0  0  0  0  0  0
  161.0020  203.4200  149.2290 C   0  0  0  0  0  0  0  0  0  0  0  0
  161.2430  210.8930  157.1460 N   0  0  0  0  0  2  0  0  0  0  0  0
  160.6540  212.0850  156.6220 C   0  0  0  0  0  0  0  0  0  0  0  0
  159.9150  212.0420  155.6030 O   0  0  0  0  0  0  0  0  0  0  0  0
  160.9020  213.3310  157.2610 N   0  0  0  0  0  1  0  0  0  0  0  0
  1 20  1  0  0  0  0
  2 24  1  1  0  0  0
  3 11  1  0  0  0  0
  4 21  1  0  0  0  0
  4  3  2  0  0  0  0
  5 25  2  0  0  0  0
  6 18  1  0  0  0  0
  6  5  1  0  0  0  0
  7 24  1  6  0  0  0
  7 19  1  0  0  0  0
  9 28  1  0  0  0  0
  9 15  1  0  0  0  0
 10 20  1  0  0  0  0
 11 13  2  0  0  0  0
 12  2  1  0  0  0  0
 12  8  1  0  0  0  0
 13 12  1  0  0  0  0
 14 27  1  0  0  0  0
 15 18  2  0  0  0  0
 16  1  1  0  0  0  0
 17  8  1  6  0  0  0
 17  7  1  0  0  0  0
 17 10  1  0  0  0  0
 19 16  1  0  0  0  0
 20 29  1  6  0  0  0
 21 22  2  0  0  0  0
 22 14  1  0  0  0  0
 22 13  1  0  0  0  0
 23 28  1  0  0  0  0
 23 14  1  0  0  0  0
 26  9  1  0  0  0  0
 27  5  1  1  0  0  0
 27  2  1  0  0  0  0
 28  6  2  0  0  0  0
 30 29  1  0  0  0  0
 30 32  1  0  0  0  0
 31 30  2  0  0  0  0
M  END
>  <MODEL>
1

>  <REMARK>
 VINA RESULT:      -7.8      0.000      0.000
  Name = 
  1 active torsions:
  status: ('A' for Active; 'I' for Inactive)
    1  A    between atoms: C_20  and  N_29
                            x       y       z     vdW  Elec       q    Type
                         _______ _______ _______ _____ _____    ______ ____

>  <TORSDO>
F 1

$$$$
=
 OpenBabel11122412483D

 32 37  0  0  1  0  0  0  0  0999 V2000
  162.9520  210.3430  153.4270 C   0  0  0  0  0  2  0  0  0  0  0  0
  160.9740  206.8060  149.9350 C   0  0  1  0  0  3  0  0  0  0  0  0
  160.8330  202.5900  152.5520 C   0  0  0  0  0  3  0  0  0  0  0  0
  160.9620  201.8460  151.3810 C   0  0  0  0  0  3  0  0  0  0  0  0
  161.2840  206.6490  147.4410 C   0  0  0  0  0  0  0  0  0  0  0  0
  160.9990  205.7720  146.3140 C   0  0  0  0  0  0  0  0  0  0  0  0
  161.0910  208.9170  151.1980 N   0  0  1  0  0  0  0  0  0  0  0  0
  160.6110  206.8380  152.4130 C   0  0  0  0  0  2  0  0  0  0  0  0
  160.8230  203.8960  145.2020 N   0  0  0  0  0  0  0  0  0  0  0  0
  160.8300  208.9430  153.6990 C   0  0  0  0  0  2  0  0  0  0  0  0
  160.8520  203.9840  152.4950 C   0  0  0  0  0  3  0  0  0  0  0  0
  161.0000  206.0890  151.2170 N   0  0  0  0  0  0  0  0  0  0  0  0
  161.0020  204.6520  151.2660 C   0  0  0  0  0  0  0  0  0  0  0  0
  161.3260  204.5700  148.8210 N   0  0  0  0  0  0  0  0  0  0  0  0
  160.5550  204.8750  144.3480 N   0  0  0  0  0  0  0  0  0  0  0  0
  163.0700  210.3360  151.8930 C   0  0  0  0  0  2  0  0  0  0  0  0
  161.3240  208.1840  152.4600 C   0  0  2  0  0  3  0  0  0  0  0  0
  160.6560  206.0570  145.0020 C   0  0  0  0  0  3  0  0  0  0  0  0
  161.7190  210.2490  151.1600 C   0  0  0  0  0  2  0  0  0  0  0  0
  161.5040  210.3000  153.9330 C   0  0  1  0  0  3  0  0  0  0  0  0
  161.1190  202.4990  150.1570 C   0  0  0  0  0  3  0  0  0  0  0  0
  161.1490  203.9040  150.0860 C   0  0  0  0  0  0  0  0  0  0  0  0
  161.5550  203.7250  147.6330 C   0  0  0  0  0  2  0  0  0  0  0  0
  161.6870  208.1500  150.1080 C   0  0  0  0  0  2  0  0  0  0  0  0
  161.2970  207.8980  147.2740 O   0  0  0  0  0  0  0  0  0  0  0  0
  160.8480  202.4890  144.8460 C   0  0  0  0  0  1  0  0  0  0  0  0
  161.6430  206.0240  148.7850 C   0  0  2  0  0  3  0  0  0  0  0  0
  161.0830  204.4230  146.4060 C   0  0  0  0  0  0  0  0  0  0  0  0
  161.4580  210.6210  155.3520 N   0  0  0  0  0  2  0  0  0  0  0  0
  160.7340  211.7420  155.8650 C   0  0  0  0  0  0  0  0  0  0  0  0
  160.0790  212.4910  155.0930 O   0  0  0  0  0  0  0  0  0  0  0  0
  160.7520  212.0110  157.2610 N   0  0  0  0  0  1  0  0  0  0  0  0
  1 20  1  0  0  0  0
  2 24  1  1  0  0  0
  2 12  1  0  0  0  0
  4  3  2  0  0  0  0
  6 28  2  0  0  0  0
  6  5  1  0  0  0  0
  7 24  1  6  0  0  0
  7 17  1  0  0  0  0
  9 28  1  0  0  0  0
 10 20  1  0  0  0  0
 11  3  1  0  0  0  0
 12 13  1  0  0  0  0
 12  8  1  0  0  0  0
 13 11  2  0  0  0  0
 14 22  1  0  0  0  0
 15 18  2  0  0  0  0
 15  9  1  0  0  0  0
 16  1  1  0  0  0  0
 17  8  1  6  0  0  0
 17 10  1  0  0  0  0
 18  6  1  0  0  0  0
 19  7  1  0  0  0  0
 19 16  1  0  0  0  0
 20 29  1  1  0  0  0
 21  4  1  0  0  0  0
 22 21  2  0  0  0  0
 22 13  1  0  0  0  0
 23 14  1  0  0  0  0
 25  5  2  0  0  0  0
 26  9  1  0  0  0  0
 27  5  1  6  0  0  0
 27 14  1  0  0  0  0
 27  2  1  0  0  0  0
 28 23  1  0  0  0  0
 29 30  1  0  0  0  0
 30 32  1  0  0  0  0
 31 30  2  0  0  0  0
M  END
>  <MODEL>
2

>  <REMARK>
 VINA RESULT:      -7.3      2.208      4.354
  Name = 
  1 active torsions:
  status: ('A' for Active; 'I' for Inactive)
    1  A    between atoms: C_20  and  N_29
                            x       y       z     vdW  Elec       q    Type
                         _______ _______ _______ _____ _____    ______ ____

>  <TORSDO>
F 1

$$$$
=
 OpenBabel11122412483D

 32 37  0  0  1  0  0  0  0  0999 V2000
  162.0620  201.7130  150.1600 C   0  0  0  0  0  2  0  0  0  0  0  0
  160.7540  206.4800  152.2070 C   0  0  1  0  0  3  0  0  0  0  0  0
  162.0850  209.6520  148.6280 C   0  0  0  0  0  3  0  0  0  0  0  0
  162.2810  210.6560  149.5740 C   0  0  0  0  0  3  0  0  0  0  0  0
  160.8090  207.2850  154.5920 C   0  0  0  0  0  0  0  0  0  0  0  0
  160.6500  208.4960  155.3850 C   0  0  0  0  0  0  0  0  0  0  0  0
  160.4260  204.1250  151.5650 N   0  0  1  0  0  0  0  0  0  0  0  0
  160.6830  205.8070  149.7950 C   0  0  0  0  0  2  0  0  0  0  0  0
  160.8740  210.6020  155.9320 N   0  0  0  0  0  0  0  0  0  0  0  0
  160.4560  203.4270  149.1490 C   0  0  0  0  0  2  0  0  0  0  0  0
  161.7110  208.3720  149.0390 C   0  0  0  0  0  3  0  0  0  0  0  0
  161.1240  206.7620  150.8130 N   0  0  0  0  0  0  0  0  0  0  0  0
  161.5290  208.0780  150.4020 C   0  0  0  0  0  0  0  0  0  0  0  0
  161.5810  208.7970  152.7620 N   0  0  0  0  0  0  0  0  0  0  0  0
  160.2500  210.0080  156.9410 N   0  0  0  0  0  0  0  0  0  0  0  0
  162.0020  202.1430  151.6360 C   0  0  0  0  0  2  0  0  0  0  0  0
  160.9950  204.3790  150.2250 C   0  0  2  0  0  3  0  0  0  0  0  0
  160.0940  208.6970  156.6380 C   0  0  0  0  0  3  0  0  0  0  0  0
  160.6530  202.7550  152.0560 C   0  0  0  0  0  2  0  0  0  0  0  0
  160.7510  201.9430  149.3970 C   0  0  1  0  0  3  0  0  0  0  0  0
  162.1090  210.3730  150.9300 C   0  0  0  0  0  3  0  0  0  0  0  0
  161.7410  209.0840  151.3600 C   0  0  0  0  0  0  0  0  0  0  0  0
  161.8970  209.8750  153.7190 C   0  0  0  0  0  2  0  0  0  0  0  0
  161.0830  205.0170  152.5170 C   0  0  0  0  0  2  0  0  0  0  0  0
  160.4560  206.1730  155.0690 O   0  0  0  0  0  0  0  0  0  0  0  0
  161.2460  212.0050  155.9180 C   0  0  0  0  0  1  0  0  0  0  0  0
  161.4770  207.3860  153.2250 C   0  0  2  0  0  3  0  0  0  0  0  0
  161.1140  209.6990  154.9720 C   0  0  0  0  0  0  0  0  0  0  0  0
  160.7800  201.2390  148.1240 N   0  0  0  0  0  2  0  0  0  0  0  0
  161.0010  201.9060  146.8790 C   0  0  0  0  0  0  0  0  0  0  0  0
  161.2060  203.1490  146.8440 O   0  0  0  0  0  0  0  0  0  0  0  0
  160.9930  201.1590  145.6700 N   0  0  0  0  0  1  0  0  0  0  0  0
  1 16  1  0  0  0  0
  2 24  1  1  0  0  0
  2 27  1  0  0  0  0
  3 11  2  0  0  0  0
  3  4  1  0  0  0  0
  4 21  2  0  0  0  0
  5 25  2  0  0  0  0
  5  6  1  0  0  0  0
  6 18  1  0  0  0  0
  7 19  1  1  0  0  0
  7 24  1  0  0  0  0
  8 17  1  0  0  0  0
  8 12  1  0  0  0  0
  9 15  1  0  0  0  0
 10 20  1  0  0  0  0
 11 13  1  0  0  0  0
 12  2  1  0  0  0  0
 13 12  1  0  0  0  0
 13 22  2  0  0  0  0
 14 27  1  0  0  0  0
 14 23  1  0  0  0  0
 16 19  1  0  0  0  0
 17 10  1  6  0  0  0
 17  7  1  0  0  0  0
 18 15  2  0  0  0  0
 20 29  1  6  0  0  0
 20  1  1  0  0  0  0
 21 22  1  0  0  0  0
 22 14  1  0  0  0  0
 23 28  1  0  0  0  0
 26  9  1  0  0  0  0
 27  5  1  1  0  0  0
 28  6  2  0  0  0  0
 28  9  1  0  0  0  0
 30 29  1  0  0  0  0
 31 30  2  0  0  0  0
 32 30  1  0  0  0  0
M  END
>  <MODEL>
3

>  <REMARK>
 VINA RESULT:      -7.0      1.781      8.024
  Name = 
  1 active torsions:
  status: ('A' for Active; 'I' for Inactive)
    1  A    between atoms: C_20  and  N_29
                            x       y       z     vdW  Elec       q    Type
                         _______ _______ _______ _____ _____    ______ ____

>  <TORSDO>
F 1

$$$$
=
 OpenBabel11122412483D

 32 37  0  0  1  0  0  0  0  0999 V2000
  162.2600  201.5670  148.8810 C   0  0  0  0  0  2  0  0  0  0  0  0
  160.8250  205.9940  151.5180 C   0  0  1  0  0  3  0  0  0  0  0  0
  162.1650  209.6380  148.4260 C   0  0  0  0  0  3  0  0  0  0  0  0
  162.3240  210.5090  149.5020 C   0  0  0  0  0  3  0  0  0  0  0  0
  160.8180  206.4740  153.9900 C   0  0  0  0  0  0  0  0  0  0  0  0
  160.6210  207.5650  154.9350 C   0  0  0  0  0  0  0  0  0  0  0  0
  160.5530  203.7420  150.5600 N   0  0  1  0  0  0  0  0  0  0  0  0
  160.8120  205.6500  149.0370 C   0  0  0  0  0  2  0  0  0  0  0  0
  160.7960  209.5810  155.7630 N   0  0  0  0  0  0  0  0  0  0  0  0
  160.6430  203.3750  148.0740 C   0  0  0  0  0  2  0  0  0  0  0  0
  161.8080  208.3100  148.6540 C   0  0  0  0  0  3  0  0  0  0  0  0
  161.2170  206.4670  150.1830 N   0  0  0  0  0  0  0  0  0  0  0  0
  161.6050  207.8330  149.9610 C   0  0  0  0  0  0  0  0  0  0  0  0
  161.5970  208.2290  152.3970 N   0  0  0  0  0  0  0  0  0  0  0  0
  160.1630  208.8480  156.6690 N   0  0  0  0  0  0  0  0  0  0  0  0
  162.1630  201.7940  150.4000 C   0  0  0  0  0  2  0  0  0  0  0  0
  161.1430  204.1820  149.2790 C   0  0  2  0  0  3  0  0  0  0  0  0
  160.0380  207.5860  156.1910 C   0  0  0  0  0  3  0  0  0  0  0  0
  160.7950  202.3220  150.8690 C   0  0  0  0  0  2  0  0  0  0  0  0
  160.9600  201.8760  148.1280 C   0  0  1  0  0  3  0  0  0  0  0  0
  162.1320  210.0440  150.8040 C   0  0  0  0  0  3  0  0  0  0  0  0
  161.7800  208.7040  151.0490 C   0  0  0  0  0  0  0  0  0  0  0  0
  161.8750  209.1740  153.4950 C   0  0  0  0  0  2  0  0  0  0  0  0
  161.1740  204.5080  151.6370 C   0  0  0  0  0  2  0  0  0  0  0  0
  160.4770  205.3020  154.3070 O   0  0  0  0  0  0  0  0  0  0  0  0
  161.1420  210.9800  155.9450 C   0  0  0  0  0  1  0  0  0  0  0  0
  161.5110  206.7670  152.6640 C   0  0  2  0  0  3  0  0  0  0  0  0
  161.0710  208.8190  154.6970 C   0  0  0  0  0  0  0  0  0  0  0  0
  161.0270  201.3500  146.7730 N   0  0  0  0  0  2  0  0  0  0  0  0
  159.8850  201.2760  145.9170 C   0  0  0  0  0  0  0  0  0  0  0  0
  158.7620  201.6950  146.3070 O   0  0  0  0  0  0  0  0  0  0  0  0
  160.0180  200.7280  144.6120 N   0  0  0  0  0  1  0  0  0  0  0  0
  1 16  1  0  0  0  0
  2 24  1  6  0  0  0
  2 27  1  0  0  0  0
  3 11  2  0  0  0  0
  3  4  1  0  0  0  0
  4 21  2  0  0  0  0
  5 25  2  0  0  0  0
  5  6  1  0  0  0  0
  6 18  1  0  0  0  0
  7 19  1  1  0  0  0
  7 24  1  0  0  0  0
  8 17  1  0  0  0  0
  8 12  1  0  0  0  0
  9 26  1  0  0  0  0
  9 15  1  0  0  0  0
 10 20  1  0  0  0  0
 11 13  1  0  0  0  0
 12  2  1  0  0  0  0
 13 12  1  0  0  0  0
 13 22  2  0  0  0  0
 14 27  1  0  0  0  0
 14 23  1  0  0  0  0
 16 19  1  0  0  0  0
 17 10  1  6  0  0  0
 17  7  1  0  0  0  0
 18 15  2  0  0  0  0
 20 29  1  6  0  0  0
 20  1  1  0  0  0  0
 21 22  1  0  0  0  0
 22 14  1  0  0  0  0
 23 28  1  0  0  0  0
 27  5  1  1  0  0  0
 28  6  2  0  0  0  0
 28  9  1  0  0  0  0
 30 31  2  0  0  0  0
 30 29  1  0  0  0  0
 32 30  1  0  0  0  0
M  END
>  <MODEL>
4

>  <REMARK>
 VINA RESULT:      -5.5      1.912      8.235
  Name = 
  1 active torsions:
  status: ('A' for Active; 'I' for Inactive)
    1  A    between atoms: C_20  and  N_29
                            x       y       z     vdW  Elec       q    Type
                         _______ _______ _______ _____ _____    ______ ____

>  <TORSDO>
F 1

$$$$
