=
 OpenBabel11122412403D

 30 35  0  0  1  0  0  0  0  0999 V2000
  161.1390  204.5140  148.5210 C   0  0  0  0  0  0  0  0  0  0  0  0
  161.0280  202.0470  148.0640 C   0  0  0  0  0  0  0  0  0  0  0  0
  161.0210  203.8620  152.5870 N   0  0  0  0  0  2  0  0  0  0  0  0
  161.1890  205.5800  149.4650 C   0  0  0  0  0  0  0  0  0  0  0  0
  161.2780  204.8600  147.0620 C   0  0  0  0  0  2  0  0  0  0  0  0
  160.9040  208.4550  147.2560 O   0  0  0  0  0  0  0  0  0  0  0  0
  160.9000  208.3800  150.9070 C   0  0  1  0  0  3  0  0  0  0  0  0
  160.9520  207.2520  147.6380 C   0  0  0  0  0  0  0  0  0  0  0  0
  160.9150  207.4940  152.1340 C   0  0  2  0  0  3  0  0  0  0  0  0
  161.0240  205.1580  152.9660 C   0  0  0  0  0  0  0  0  0  0  0  0
  160.5370  206.1460  146.7080 C   0  0  1  0  0  3  0  0  0  0  0  0
  161.3290  206.9350  148.9880 N   0  0  0  0  0  0  0  0  0  0  0  0
  160.9720  200.7410  148.5600 C   0  0  0  0  0  3  0  0  0  0  0  0
  161.8660  208.0060  153.0290 O   0  0  0  0  0  0  0  0  0  0  0  0
  161.2860  209.7140  151.4760 C   0  0  0  0  0  2  0  0  0  0  0  0
  161.0310  202.2110  146.6840 O   0  0  0  0  0  1  0  0  0  0  0  0
  161.0770  203.9460  151.2460 C   0  0  0  0  0  0  0  0  0  0  0  0
  160.9550  200.4970  149.9310 C   0  0  0  0  0  3  0  0  0  0  0  0
  161.0720  203.1520  148.9580 C   0  0  0  0  0  0  0  0  0  0  0  0
  161.1230  205.2540  150.8360 C   0  0  0  0  0  0  0  0  0  0  0  0
  160.9450  205.5050  154.1740 O   0  0  0  0  0  0  0  0  0  0  0  0
  161.0900  206.0450  151.9400 N   0  0  0  0  0  0  0  0  0  0  0  0
  161.7880  209.4000  152.8730 C   0  0  0  0  0  2  0  0  0  0  0  0
  163.3020  207.6580  150.2900 C   0  0  0  0  0  1  0  0  0  0  0  0
  160.9910  201.5630  150.8260 C   0  0  0  0  0  3  0  0  0  0  0  0
  161.0490  202.8790  150.3540 C   0  0  0  0  0  0  0  0  0  0  0  0
  161.8880  207.9910  149.8160 C   0  0  2  0  0  3  0  0  0  0  0  0
  160.7260  206.4950  145.2290 C   0  0  0  0  0  2  0  0  0  0  0  0
  161.5420  205.7490  143.1190 O   0  0  0  0  0  1  0  0  0  0  0  0
  161.2540  205.3230  144.4150 C   0  0  0  0  0  2  0  0  0  0  0  0
  1 19  2  0  0  0  0
  1  4  1  0  0  0  0
  2 13  2  0  0  0  0
  2 19  1  0  0  0  0
  3 10  1  0  0  0  0
  4 20  2  0  0  0  0
  5  1  1  0  0  0  0
  6  8  2  0  0  0  0
  7 15  1  1  0  0  0
  7  9  1  0  0  0  0
  8 12  1  0  0  0  0
  9 14  1  1  0  0  0
 10 21  2  0  0  0  0
 11 28  1  6  0  0  0
 11  5  1  0  0  0  0
 11  8  1  0  0  0  0
 12  4  1  0  0  0  0
 12 27  1  0  0  0  0
 13 18  1  0  0  0  0
 15 23  1  0  0  0  0
 16  2  1  0  0  0  0
 17  3  1  0  0  0  0
 18 25  2  0  0  0  0
 19 26  1  0  0  0  0
 20 17  1  0  0  0  0
 20 22  1  0  0  0  0
 22  9  1  0  0  0  0
 22 10  1  0  0  0  0
 23 14  1  0  0  0  0
 26 25  1  0  0  0  0
 26 17  2  0  0  0  0
 27 24  1  1  0  0  0
 27  7  1  0  0  0  0
 29 30  1  0  0  0  0
 30 28  1  0  0  0  0
M  END
>  <MODEL>
1

>  <REMARK>
 VINA RESULT:      -7.6      0.000      0.000
  Name = 
  2 active torsions:
  status: ('A' for Active; 'I' for Inactive)
    1  A    between atoms: C_11  and  C_28
    2  A    between atoms: C_28  and  C_30
                            x       y       z     vdW  Elec       q    Type
                         _______ _______ _______ _____ _____    ______ ____

>  <TORSDO>
F 2

$$$$
=
 OpenBabel11122412403D

 30 35  0  0  1  0  0  0  0  0999 V2000
  161.2200  208.6130  151.8810 C   0  0  0  0  0  0  0  0  0  0  0  0
  160.8470  209.5050  154.1990 C   0  0  0  0  0  0  0  0  0  0  0  0
  160.9920  204.7290  153.2350 N   0  0  0  0  0  2  0  0  0  0  0  0
  161.3410  207.4940  151.0080 C   0  0  0  0  0  0  0  0  0  0  0  0
  161.2310  209.9880  151.2670 C   0  0  0  0  0  2  0  0  0  0  0  0
  162.3210  209.1460  147.9200 O   0  0  0  0  0  0  0  0  0  0  0  0
  162.1210  205.5690  148.6240 C   0  0  1  0  0  3  0  0  0  0  0  0
  162.0090  208.9880  149.1330 C   0  0  0  0  0  0  0  0  0  0  0  0
  161.8610  204.5210  149.6840 C   0  0  2  0  0  3  0  0  0  0  0  0
  161.2340  204.1240  152.0530 C   0  0  0  0  0  0  0  0  0  0  0  0
  162.2360  210.0950  150.1240 C   0  0  1  0  0  3  0  0  0  0  0  0
  161.5050  207.7220  149.5920 N   0  0  0  0  0  0  0  0  0  0  0  0
  160.6090  209.2510  155.5530 C   0  0  0  0  0  3  0  0  0  0  0  0
  160.9900  203.5620  149.1470 O   0  0  0  0  0  0  0  0  0  0  0  0
  161.9870  204.7750  147.3570 C   0  0  0  0  0  2  0  0  0  0  0  0
  160.9490  210.8330  153.8030 O   0  0  0  0  0  1  0  0  0  0  0  0
  161.0240  206.0340  152.9110 C   0  0  0  0  0  0  0  0  0  0  0  0
  160.5050  207.9460  156.0280 C   0  0  0  0  0  3  0  0  0  0  0  0
  160.9840  208.4280  153.2810 C   0  0  0  0  0  0  0  0  0  0  0  0
  161.2680  206.2030  151.5720 C   0  0  0  0  0  0  0  0  0  0  0  0
  161.3200  202.8720  151.9440 O   0  0  0  0  0  0  0  0  0  0  0  0
  161.4050  204.9750  151.0090 N   0  0  0  0  0  0  0  0  0  0  0  0
  161.3610  203.4640  147.7950 C   0  0  0  0  0  2  0  0  0  0  0  0
  159.6580  206.3400  148.7060 C   0  0  0  0  0  1  0  0  0  0  0  0
  160.6420  206.8750  155.1490 C   0  0  0  0  0  3  0  0  0  0  0  0
  160.8790  207.1030  153.7900 C   0  0  0  0  0  0  0  0  0  0  0  0
  161.1320  206.7250  148.6010 C   0  0  2  0  0  3  0  0  0  0  0  0
  162.2000  211.4890  149.4930 C   0  0  0  0  0  2  0  0  0  0  0  0
  160.9520  213.5010  149.2220 O   0  0  0  0  0  1  0  0  0  0  0  0
  160.9700  212.2860  149.9050 C   0  0  0  0  0  2  0  0  0  0  0  0
  1 19  1  0  0  0  0
  2 13  1  0  0  0  0
  4 20  1  0  0  0  0
  4  1  2  0  0  0  0
  5  1  1  0  0  0  0
  6  8  2  0  0  0  0
  7 15  1  6  0  0  0
  7  9  1  0  0  0  0
  8 12  1  0  0  0  0
  8 11  1  0  0  0  0
  9 14  1  6  0  0  0
  9 22  1  0  0  0  0
 10  3  1  0  0  0  0
 11 28  1  6  0  0  0
 11  5  1  0  0  0  0
 12  4  1  0  0  0  0
 13 18  2  0  0  0  0
 15 23  1  0  0  0  0
 16  2  1  0  0  0  0
 17  3  1  0  0  0  0
 17 26  1  0  0  0  0
 19 26  1  0  0  0  0
 19  2  2  0  0  0  0
 20 17  2  0  0  0  0
 21 10  2  0  0  0  0
 22 20  1  0  0  0  0
 22 10  1  0  0  0  0
 23 14  1  0  0  0  0
 25 18  1  0  0  0  0
 26 25  2  0  0  0  0
 27  7  1  0  0  0  0
 27 24  1  1  0  0  0
 27 12  1  0  0  0  0
 28 30  1  0  0  0  0
 29 30  1  0  0  0  0
M  END
>  <MODEL>
2

>  <REMARK>
 VINA RESULT:      -7.1      2.237      6.089
  Name = 
  2 active torsions:
  status: ('A' for Active; 'I' for Inactive)
    1  A    between atoms: C_11  and  C_28
    2  A    between atoms: C_28  and  C_30
                            x       y       z     vdW  Elec       q    Type
                         _______ _______ _______ _____ _____    ______ ____

>  <TORSDO>
F 2

$$$$
=
 OpenBabel11122412403D

 30 35  0  0  1  0  0  0  0  0999 V2000
  161.3960  208.7500  151.6220 C   0  0  0  0  0  0  0  0  0  0  0  0
  161.7450  211.0390  150.6490 C   0  0  0  0  0  0  0  0  0  0  0  0
  161.5350  207.0340  147.8800 N   0  0  0  0  0  2  0  0  0  0  0  0
  161.2710  207.3450  151.4240 C   0  0  0  0  0  0  0  0  0  0  0  0
  161.4190  209.2610  153.0380 C   0  0  0  0  0  2  0  0  0  0  0  0
  160.3710  206.2650  154.7780 O   0  0  0  0  0  0  0  0  0  0  0  0
  160.4970  204.2920  151.7080 C   0  0  1  0  0  3  0  0  0  0  0  0
  160.6600  207.0290  153.8160 C   0  0  0  0  0  0  0  0  0  0  0  0
  160.7210  204.3300  150.2110 C   0  0  2  0  0  3  0  0  0  0  0  0
  161.3020  205.7620  148.2690 C   0  0  0  0  0  0  0  0  0  0  0  0
  160.4360  208.5110  153.9310 C   0  0  1  0  0  3  0  0  0  0  0  0
  161.1340  206.4830  152.5730 N   0  0  0  0  0  0  0  0  0  0  0  0
  161.9560  211.8390  149.5210 C   0  0  0  0  0  3  0  0  0  0  0  0
  161.5850  203.2780  149.8720 O   0  0  0  0  0  0  0  0  0  0  0  0
  160.6390  202.8280  152.0110 C   0  0  0  0  0  2  0  0  0  0  0  0
  161.6730  211.6740  151.8830 O   0  0  0  0  0  1  0  0  0  0  0  0
  161.5310  207.7050  149.0450 C   0  0  0  0  0  0  0  0  0  0  0  0
  162.0300  211.2760  148.2500 C   0  0  0  0  0  3  0  0  0  0  0  0
  161.6050  209.6300  150.5120 C   0  0  0  0  0  0  0  0  0  0  0  0
  161.3120  206.8570  150.1010 C   0  0  0  0  0  0  0  0  0  0  0  0
  161.1960  204.8160  147.4440 O   0  0  0  0  0  0  0  0  0  0  0  0
  161.1630  205.5990  149.6100 N   0  0  0  0  0  0  0  0  0  0  0  0
  161.2350  202.2350  150.7480 C   0  0  0  0  0  2  0  0  0  0  0  0
  162.9720  204.8860  152.1470 C   0  0  0  0  0  1  0  0  0  0  0  0
  161.8890  209.9010  148.0910 C   0  0  0  0  0  3  0  0  0  0  0  0
  161.6790  209.0790  149.2030 C   0  0  0  0  0  0  0  0  0  0  0  0
  161.5060  205.0780  152.5330 C   0  0  2  0  0  3  0  0  0  0  0  0
  160.5060  209.0230  155.3730 C   0  0  0  0  0  2  0  0  0  0  0  0
  162.3310  208.8280  156.8910 O   0  0  0  0  0  1  0  0  0  0  0  0
  161.8980  209.5070  155.7530 C   0  0  0  0  0  2  0  0  0  0  0  0
  1  5  1  0  0  0  0
  2 16  1  0  0  0  0
  3 10  1  0  0  0  0
  3 17  1  0  0  0  0
  4  1  1  0  0  0  0
  4 12  1  0  0  0  0
  5 11  1  0  0  0  0
  7 15  1  1  0  0  0
  7 27  1  0  0  0  0
  8 11  1  0  0  0  0
  8  6  2  0  0  0  0
  9 14  1  1  0  0  0
  9  7  1  0  0  0  0
 10 22  1  0  0  0  0
 11 28  1  1  0  0  0
 12  8  1  0  0  0  0
 13  2  2  0  0  0  0
 14 23  1  0  0  0  0
 17 26  2  0  0  0  0
 17 20  1  0  0  0  0
 18 13  1  0  0  0  0
 19  2  1  0  0  0  0
 19  1  2  0  0  0  0
 20  4  2  0  0  0  0
 21 10  2  0  0  0  0
 22 20  1  0  0  0  0
 22  9  1  0  0  0  0
 23 15  1  0  0  0  0
 25 18  2  0  0  0  0
 25 26  1  0  0  0  0
 26 19  1  0  0  0  0
 27 24  1  6  0  0  0
 27 12  1  0  0  0  0
 28 30  1  0  0  0  0
 30 29  1  0  0  0  0
M  END
>  <MODEL>
3

>  <REMARK>
 VINA RESULT:      -5.7      2.066      7.423
  Name = 
  2 active torsions:
  status: ('A' for Active; 'I' for Inactive)
    1  A    between atoms: C_11  and  C_28
    2  A    between atoms: C_28  and  C_30
                            x       y       z     vdW  Elec       q    Type
                         _______ _______ _______ _____ _____    ______ ____

>  <TORSDO>
F 2

$$$$
=
 OpenBabel11122412403D

 30 35  0  0  1  0  0  0  0  0999 V2000
  160.1400  212.1500  151.7980 C   0  0  0  0  0  0  0  0  0  0  0  0
  160.6900  213.2180  149.5910 C   0  0  0  0  0  0  0  0  0  0  0  0
  162.2650  208.7660  150.7960 N   0  0  0  0  0  2  0  0  0  0  0  0
  160.2700  211.0420  152.6840 C   0  0  0  0  0  0  0  0  0  0  0  0
  159.4160  213.3710  152.2990 C   0  0  0  0  0  2  0  0  0  0  0  0
  157.9550  212.0080  155.3180 O   0  0  0  0  0  0  0  0  0  0  0  0
  159.7660  208.8620  154.9190 C   0  0  1  0  0  3  0  0  0  0  0  0
  158.6010  212.0460  154.2330 C   0  0  0  0  0  0  0  0  0  0  0  0
  160.6890  208.0610  154.0260 C   0  0  2  0  0  3  0  0  0  0  0  0
  162.0000  208.0630  151.9180 C   0  0  0  0  0  0  0  0  0  0  0  0
  158.2010  213.0050  153.1470 C   0  0  1  0  0  3  0  0  0  0  0  0
  159.6750  211.1190  153.9960 N   0  0  0  0  0  0  0  0  0  0  0  0
  161.3450  213.1440  148.3580 C   0  0  0  0  0  3  0  0  0  0  0  0
  161.7090  207.5210  154.8240 O   0  0  0  0  0  0  0  0  0  0  0  0
  159.8870  208.1380  156.2280 C   0  0  0  0  0  2  0  0  0  0  0  0
  159.9590  214.3690  149.8630 O   0  0  0  0  0  1  0  0  0  0  0  0
  161.6240  209.9270  151.0170 C   0  0  0  0  0  0  0  0  0  0  0  0
  162.0880  212.0190  148.0100 C   0  0  0  0  0  3  0  0  0  0  0  0
  160.7770  212.1400  150.5150 C   0  0  0  0  0  0  0  0  0  0  0  0
  161.0030  209.9210  152.2400 C   0  0  0  0  0  0  0  0  0  0  0  0
  162.4080  206.8820  152.0830 O   0  0  0  0  0  0  0  0  0  0  0  0
  161.2400  208.7210  152.8300 N   0  0  0  0  0  0  0  0  0  0  0  0
  161.0820  207.2200  156.0450 C   0  0  0  0  0  2  0  0  0  0  0  0
  161.6350  210.5790  155.4010 C   0  0  0  0  0  1  0  0  0  0  0  0
  162.1820  210.9490  148.8950 C   0  0  0  0  0  3  0  0  0  0  0  0
  161.5380  210.9990  150.1350 C   0  0  0  0  0  0  0  0  0  0  0  0
  160.1570  210.3210  155.1110 C   0  0  2  0  0  3  0  0  0  0  0  0
  157.5050  214.2620  153.6760 C   0  0  0  0  0  2  0  0  0  0  0  0
  155.2770  213.4330  153.8260 O   0  0  0  0  0  1  0  0  0  0  0  0
  156.0690  214.3850  153.1860 C   0  0  0  0  0  2  0  0  0  0  0  0
  1  5  1  0  0  0  0
  1  4  1  0  0  0  0
  2 16  1  0  0  0  0
  2 19  1  0  0  0  0
  3 17  1  0  0  0  0
  3 10  1  0  0  0  0
  4 12  1  0  0  0  0
  5 11  1  0  0  0  0
  7 27  1  0  0  0  0
  7 15  1  1  0  0  0
  8  6  2  0  0  0  0
  9 14  1  1  0  0  0
  9  7  1  0  0  0  0
 10 21  2  0  0  0  0
 10 22  1  0  0  0  0
 11 28  1  1  0  0  0
 11  8  1  0  0  0  0
 12  8  1  0  0  0  0
 12 27  1  0  0  0  0
 13  2  2  0  0  0  0
 14 23  1  0  0  0  0
 17 20  1  0  0  0  0
 18 13  1  0  0  0  0
 18 25  2  0  0  0  0
 19  1  2  0  0  0  0
 20  4  2  0  0  0  0
 20 22  1  0  0  0  0
 22  9  1  0  0  0  0
 23 15  1  0  0  0  0
 25 26  1  0  0  0  0
 26 19  1  0  0  0  0
 26 17  2  0  0  0  0
 27 24  1  6  0  0  0
 30 28  1  0  0  0  0
 30 29  1  0  0  0  0
M  END
>  <MODEL>
4

>  <REMARK>
 VINA RESULT:      -5.6      5.027      8.427
  Name = 
  2 active torsions:
  status: ('A' for Active; 'I' for Inactive)
    1  A    between atoms: C_11  and  C_28
    2  A    between atoms: C_28  and  C_30
                            x       y       z     vdW  Elec       q    Type
                         _______ _______ _______ _____ _____    ______ ____

>  <TORSDO>
F 2

$$$$
=
 OpenBabel11122412403D

 30 35  0  0  1  0  0  0  0  0999 V2000
  161.2770  210.1990  150.9990 C   0  0  0  0  0  0  0  0  0  0  0  0
  162.0120  209.6140  148.6690 C   0  0  0  0  0  0  0  0  0  0  0  0
  161.6730  206.2810  152.2100 N   0  0  0  0  0  2  0  0  0  0  0  0
  161.0130  209.7850  152.3370 C   0  0  0  0  0  0  0  0  0  0  0  0
  161.1860  211.6690  150.6880 C   0  0  0  0  0  2  0  0  0  0  0  0
  159.5850  212.8300  153.7190 O   0  0  0  0  0  0  0  0  0  0  0  0
  159.8550  209.5350  155.2690 C   0  0  1  0  0  3  0  0  0  0  0  0
  160.0780  212.0260  152.8800 C   0  0  0  0  0  0  0  0  0  0  0  0
  160.2650  208.0920  155.0640 C   0  0  2  0  0  3  0  0  0  0  0  0
  161.2460  206.4530  153.4790 C   0  0  0  0  0  0  0  0  0  0  0  0
  160.0180  212.3340  151.4100 C   0  0  1  0  0  3  0  0  0  0  0  0
  160.6340  210.7740  153.3160 N   0  0  0  0  0  0  0  0  0  0  0  0
  162.4530  208.6450  147.7630 C   0  0  0  0  0  3  0  0  0  0  0  0
  161.0340  207.6960  156.1680 O   0  0  0  0  0  0  0  0  0  0  0  0
  159.7850  209.6330  156.7650 C   0  0  0  0  0  2  0  0  0  0  0  0
  161.8630  210.9130  148.1990 O   0  0  0  0  0  1  0  0  0  0  0  0
  161.6050  207.5250  151.7040 C   0  0  0  0  0  0  0  0  0  0  0  0
  162.6160  207.3190  148.1580 C   0  0  0  0  0  3  0  0  0  0  0  0
  161.7240  209.2590  150.0160 C   0  0  0  0  0  0  0  0  0  0  0  0
  161.1590  208.4160  152.6470 C   0  0  0  0  0  0  0  0  0  0  0  0
  161.1320  205.4920  154.2850 O   0  0  0  0  0  0  0  0  0  0  0  0
  160.9250  207.7330  153.7970 N   0  0  0  0  0  0  0  0  0  0  0  0
  160.4590  208.3670  157.2610 C   0  0  0  0  0  2  0  0  0  0  0  0
  162.3100  210.3160  155.0750 C   0  0  0  0  0  1  0  0  0  0  0  0
  162.3350  206.9460  149.4700 C   0  0  0  0  0  3  0  0  0  0  0  0
  161.8940  207.8980  150.3950 C   0  0  0  0  0  0  0  0  0  0  0  0
  160.8410  210.5680  154.7410 C   0  0  2  0  0  3  0  0  0  0  0  0
  159.9700  213.8340  151.1070 C   0  0  0  0  0  2  0  0  0  0  0  0
  157.8120  213.1670  150.3480 O   0  0  0  0  0  1  0  0  0  0  0  0
  158.7010  214.2410  150.3710 C   0  0  0  0  0  2  0  0  0  0  0  0
  1  4  1  0  0  0  0
  2 19  1  0  0  0  0
  3 10  1  0  0  0  0
  4 20  2  0  0  0  0
  4 12  1  0  0  0  0
  5  1  1  0  0  0  0
  5 11  1  0  0  0  0
  7 15  1  1  0  0  0
  8 12  1  0  0  0  0
  8  6  2  0  0  0  0
  9  7  1  0  0  0  0
  9 14  1  1  0  0  0
 10 22  1  0  0  0  0
 10 21  2  0  0  0  0
 11 28  1  1  0  0  0
 11  8  1  0  0  0  0
 12 27  1  0  0  0  0
 13 18  1  0  0  0  0
 13  2  2  0  0  0  0
 14 23  1  0  0  0  0
 15 23  1  0  0  0  0
 16  2  1  0  0  0  0
 17  3  1  0  0  0  0
 17 20  1  0  0  0  0
 18 25  2  0  0  0  0
 19 26  1  0  0  0  0
 19  1  2  0  0  0  0
 20 22  1  0  0  0  0
 22  9  1  0  0  0  0
 25 26  1  0  0  0  0
 26 17  2  0  0  0  0
 27 24  1  6  0  0  0
 27  7  1  0  0  0  0
 29 30  1  0  0  0  0
 30 28  1  0  0  0  0
M  END
>  <MODEL>
5

>  <REMARK>
 VINA RESULT:      -5.5      3.758      6.363
  Name = 
  2 active torsions:
  status: ('A' for Active; 'I' for Inactive)
    1  A    between atoms: C_11  and  C_28
    2  A    between atoms: C_28  and  C_30
                            x       y       z     vdW  Elec       q    Type
                         _______ _______ _______ _____ _____    ______ ____

>  <TORSDO>
F 2

$$$$
=
 OpenBabel11122412403D

 30 35  0  0  1  0  0  0  0  0999 V2000
  161.4170  208.6320  151.2340 C   0  0  0  0  0  0  0  0  0  0  0  0
  161.8200  206.6470  149.7480 C   0  0  0  0  0  0  0  0  0  0  0  0
  160.4880  206.1820  154.4140 N   0  0  0  0  0  2  0  0  0  0  0  0
  161.0750  209.1460  152.5180 C   0  0  0  0  0  0  0  0  0  0  0  0
  161.8240  209.6140  150.1680 C   0  0  0  0  0  2  0  0  0  0  0  0
  160.8300  212.6990  151.7800 O   0  0  0  0  0  0  0  0  0  0  0  0
  160.0100  210.9560  154.8820 C   0  0  1  0  0  3  0  0  0  0  0  0
  160.9870  211.4590  151.6030 C   0  0  0  0  0  0  0  0  0  0  0  0
  159.8930  209.6080  155.5590 C   0  0  2  0  0  3  0  0  0  0  0  0
  160.1920  207.1580  155.2980 C   0  0  0  0  0  0  0  0  0  0  0  0
  160.9820  210.8860  150.2130 C   0  0  1  0  0  3  0  0  0  0  0  0
  161.0950  210.5740  152.7310 N   0  0  0  0  0  0  0  0  0  0  0  0
  161.8680  205.2580  149.5960 C   0  0  0  0  0  3  0  0  0  0  0  0
  160.5180  209.6920  156.8120 O   0  0  0  0  0  0  0  0  0  0  0  0
  160.0320  211.8960  156.0530 C   0  0  0  0  0  2  0  0  0  0  0  0
  162.1080  207.4260  148.6340 O   0  0  0  0  0  1  0  0  0  0  0  0
  160.8320  206.8740  153.3130 C   0  0  0  0  0  0  0  0  0  0  0  0
  161.5810  204.4120  150.6650 C   0  0  0  0  0  3  0  0  0  0  0  0
  161.4770  207.2200  151.0040 C   0  0  0  0  0  0  0  0  0  0  0  0
  160.7540  208.2250  153.5370 C   0  0  0  0  0  0  0  0  0  0  0  0
  159.7860  206.9080  156.4630 O   0  0  0  0  0  0  0  0  0  0  0  0
  160.3420  208.4190  154.8160 N   0  0  0  0  0  0  0  0  0  0  0  0
  160.2490  210.9980  157.2570 C   0  0  0  0  0  2  0  0  0  0  0  0
  162.5750  210.7040  154.7060 C   0  0  0  0  0  1  0  0  0  0  0  0
  161.2370  204.9490  151.9020 C   0  0  0  0  0  3  0  0  0  0  0  0
  161.1840  206.3350  152.0800 C   0  0  0  0  0  0  0  0  0  0  0  0
  161.2700  211.1550  154.0520 C   0  0  2  0  0  3  0  0  0  0  0  0
  161.4410  211.8830  149.1450 C   0  0  0  0  0  2  0  0  0  0  0  0
  163.3880  212.5340  147.9380 O   0  0  0  0  0  1  0  0  0  0  0  0
  162.6960  211.4240  148.4180 C   0  0  0  0  0  2  0  0  0  0  0  0
  1  4  1  0  0  0  0
  2 19  1  0  0  0  0
  3 10  1  0  0  0  0
  4 12  1  0  0  0  0
  4 20  2  0  0  0  0
  5 11  1  0  0  0  0
  5  1  1  0  0  0  0
  7  9  1  0  0  0  0
  7 15  1  1  0  0  0
  8  6  2  0  0  0  0
  8 12  1  0  0  0  0
  9 14  1  1  0  0  0
 10 21  2  0  0  0  0
 11 28  1  6  0  0  0
 11  8  1  0  0  0  0
 12 27  1  0  0  0  0
 13  2  2  0  0  0  0
 13 18  1  0  0  0  0
 14 23  1  0  0  0  0
 15 23  1  0  0  0  0
 16  2  1  0  0  0  0
 17 20  1  0  0  0  0
 17  3  1  0  0  0  0
 18 25  2  0  0  0  0
 19  1  2  0  0  0  0
 19 26  1  0  0  0  0
 20 22  1  0  0  0  0
 22 10  1  0  0  0  0
 22  9  1  0  0  0  0
 25 26  1  0  0  0  0
 26 17  2  0  0  0  0
 27 24  1  1  0  0  0
 27  7  1  0  0  0  0
 29 30  1  0  0  0  0
 30 28  1  0  0  0  0
M  END
>  <MODEL>
6

>  <REMARK>
 VINA RESULT:      -5.5      3.105      5.065
  Name = 
  2 active torsions:
  status: ('A' for Active; 'I' for Inactive)
    1  A    between atoms: C_11  and  C_28
    2  A    between atoms: C_28  and  C_30
                            x       y       z     vdW  Elec       q    Type
                         _______ _______ _______ _____ _____    ______ ____

>  <TORSDO>
F 2

$$$$
=
 OpenBabel11122412403D

 30 35  0  0  1  0  0  0  0  0999 V2000
  161.2790  205.2760  149.9420 C   0  0  0  0  0  0  0  0  0  0  0  0
  160.9430  204.0730  152.1220 C   0  0  0  0  0  0  0  0  0  0  0  0
  160.8770  201.7600  147.8320 N   0  0  0  0  0  2  0  0  0  0  0  0
  161.3500  205.2290  148.5200 C   0  0  0  0  0  0  0  0  0  0  0  0
  161.3510  206.6260  150.6060 C   0  0  0  0  0  2  0  0  0  0  0  0
  162.4070  208.6300  147.7830 O   0  0  0  0  0  0  0  0  0  0  0  0
  162.0480  205.8100  145.4910 C   0  0  1  0  0  3  0  0  0  0  0  0
  162.0860  207.6050  148.4470 C   0  0  0  0  0  0  0  0  0  0  0  0
  161.7400  204.3320  145.3730 C   0  0  2  0  0  3  0  0  0  0  0  0
  161.0940  202.2760  146.6040 C   0  0  0  0  0  0  0  0  0  0  0  0
  162.3610  207.5430  149.9240 C   0  0  1  0  0  3  0  0  0  0  0  0
  161.5270  206.4580  147.7850 N   0  0  0  0  0  0  0  0  0  0  0  0
  160.6920  202.8770  152.8010 C   0  0  0  0  0  3  0  0  0  0  0  0
  160.8280  204.1590  144.3220 O   0  0  0  0  0  0  0  0  0  0  0  0
  161.8800  206.2810  144.0760 C   0  0  0  0  0  2  0  0  0  0  0  0
  161.1040  205.2230  152.8860 O   0  0  0  0  0  1  0  0  0  0  0  0
  160.9670  202.8420  148.6270 C   0  0  0  0  0  0  0  0  0  0  0  0
  160.5300  201.6810  152.1050 C   0  0  0  0  0  3  0  0  0  0  0  0
  161.0330  204.0880  150.7030 C   0  0  0  0  0  0  0  0  0  0  0  0
  161.2200  203.9720  147.8920 C   0  0  0  0  0  0  0  0  0  0  0  0
  161.1240  201.5580  145.5690 O   0  0  0  0  0  0  0  0  0  0  0  0
  161.3030  203.6170  146.5840 N   0  0  0  0  0  0  0  0  0  0  0  0
  161.1950  205.1250  143.3700 C   0  0  0  0  0  2  0  0  0  0  0  0
  159.6210  206.3110  146.2180 C   0  0  0  0  0  1  0  0  0  0  0  0
  160.6200  201.6690  150.7160 C   0  0  0  0  0  3  0  0  0  0  0  0
  160.8680  202.8530  150.0140 C   0  0  0  0  0  0  0  0  0  0  0  0
  161.1110  206.5950  146.3980 C   0  0  2  0  0  3  0  0  0  0  0  0
  162.3870  208.9200  150.5930 C   0  0  0  0  0  2  0  0  0  0  0  0
  162.0060  209.9800  152.6920 O   0  0  0  0  0  1  0  0  0  0  0  0
  161.5310  208.9750  151.8500 C   0  0  0  0  0  2  0  0  0  0  0  0
  1  5  1  0  0  0  0
  1 19  1  0  0  0  0
  2 13  1  0  0  0  0
  2 16  1  0  0  0  0
  3 17  1  0  0  0  0
  4  1  2  0  0  0  0
  6  8  2  0  0  0  0
  7 15  1  6  0  0  0
  7 27  1  0  0  0  0
  8 11  1  0  0  0  0
  9 14  1  6  0  0  0
  9  7  1  0  0  0  0
  9 22  1  0  0  0  0
 10  3  1  0  0  0  0
 11 28  1  1  0  0  0
 11  5  1  0  0  0  0
 12  8  1  0  0  0  0
 12  4  1  0  0  0  0
 17 26  1  0  0  0  0
 18 13  2  0  0  0  0
 19  2  2  0  0  0  0
 20  4  1  0  0  0  0
 20 17  2  0  0  0  0
 21 10  2  0  0  0  0
 22 10  1  0  0  0  0
 22 20  1  0  0  0  0
 23 15  1  0  0  0  0
 23 14  1  0  0  0  0
 25 18  1  0  0  0  0
 26 19  1  0  0  0  0
 26 25  2  0  0  0  0
 27 24  1  1  0  0  0
 27 12  1  0  0  0  0
 28 30  1  0  0  0  0
 30 29  1  0  0  0  0
M  END
>  <MODEL>
7

>  <REMARK>
 VINA RESULT:      -5.3      1.707      5.728
  Name = 
  2 active torsions:
  status: ('A' for Active; 'I' for Inactive)
    1  A    between atoms: C_11  and  C_28
    2  A    between atoms: C_28  and  C_30
                            x       y       z     vdW  Elec       q    Type
                         _______ _______ _______ _____ _____    ______ ____

>  <TORSDO>
F 2

$$$$
=
 OpenBabel11122412403D

 30 35  0  0  1  0  0  0  0  0999 V2000
  161.8410  206.3960  148.3490 C   0  0  0  0  0  0  0  0  0  0  0  0
  161.9310  205.2380  146.1220 C   0  0  0  0  0  0  0  0  0  0  0  0
  160.6350  202.9240  150.2110 N   0  0  0  0  0  2  0  0  0  0  0  0
  161.5990  206.3280  149.7520 C   0  0  0  0  0  0  0  0  0  0  0  0
  162.3630  207.6920  147.7880 C   0  0  0  0  0  2  0  0  0  0  0  0
  161.8460  209.8430  150.6530 O   0  0  0  0  0  0  0  0  0  0  0  0
  160.8460  207.0210  152.7440 C   0  0  1  0  0  3  0  0  0  0  0  0
  161.8230  208.7990  149.9420 C   0  0  0  0  0  0  0  0  0  0  0  0
  160.5510  205.5370  152.7750 C   0  0  2  0  0  3  0  0  0  0  0  0
  160.4960  203.4370  151.4510 C   0  0  0  0  0  0  0  0  0  0  0  0
  161.7100  208.9030  148.4470 C   0  0  1  0  0  3  0  0  0  0  0  0
  161.8250  207.5010  150.5610 N   0  0  0  0  0  0  0  0  0  0  0  0
  161.7800  204.0640  145.3780 C   0  0  0  0  0  3  0  0  0  0  0  0
  161.2060  204.9850  153.8850 O   0  0  0  0  0  0  0  0  0  0  0  0
  161.0230  207.3380  154.2000 C   0  0  0  0  0  2  0  0  0  0  0  0
  162.3060  206.3890  145.4380 O   0  0  0  0  0  1  0  0  0  0  0  0
  161.0530  203.9850  149.4970 C   0  0  0  0  0  0  0  0  0  0  0  0
  161.3960  202.8740  145.9920 C   0  0  0  0  0  3  0  0  0  0  0  0
  161.6970  205.2340  147.5250 C   0  0  0  0  0  0  0  0  0  0  0  0
  161.1710  205.0970  150.2910 C   0  0  0  0  0  0  0  0  0  0  0  0
  160.0800  202.7490  152.4210 O   0  0  0  0  0  0  0  0  0  0  0  0
  160.8140  204.7540  151.5560 N   0  0  0  0  0  0  0  0  0  0  0  0
  161.1320  205.9820  154.8730 C   0  0  0  0  0  2  0  0  0  0  0  0
  163.3450  206.5700  152.2730 C   0  0  0  0  0  1  0  0  0  0  0  0
  161.1550  202.8470  147.3620 C   0  0  0  0  0  3  0  0  0  0  0  0
  161.3010  204.0080  148.1280 C   0  0  0  0  0  0  0  0  0  0  0  0
  162.1050  207.4150  151.9850 C   0  0  2  0  0  3  0  0  0  0  0  0
  162.2850  210.2060  147.8860 C   0  0  0  0  0  2  0  0  0  0  0  0
  161.7990  212.4380  148.5620 O   0  0  0  0  0  1  0  0  0  0  0  0
  161.2700  211.3400  147.8850 C   0  0  0  0  0  2  0  0  0  0  0  0
  1  4  1  0  0  0  0
  2 19  1  0  0  0  0
  3 10  1  0  0  0  0
  4 20  2  0  0  0  0
  4 12  1  0  0  0  0
  5  1  1  0  0  0  0
  5 11  1  0  0  0  0
  7  9  1  0  0  0  0
  7 15  1  1  0  0  0
  8 12  1  0  0  0  0
  8  6  2  0  0  0  0
  9 14  1  1  0  0  0
 10 22  1  0  0  0  0
 10 21  2  0  0  0  0
 11 28  1  6  0  0  0
 11  8  1  0  0  0  0
 12 27  1  0  0  0  0
 13 18  1  0  0  0  0
 13  2  2  0  0  0  0
 14 23  1  0  0  0  0
 15 23  1  0  0  0  0
 16  2  1  0  0  0  0
 17  3  1  0  0  0  0
 17 20  1  0  0  0  0
 18 25  2  0  0  0  0
 19 26  1  0  0  0  0
 19  1  2  0  0  0  0
 20 22  1  0  0  0  0
 22  9  1  0  0  0  0
 25 26  1  0  0  0  0
 26 17  2  0  0  0  0
 27 24  1  6  0  0  0
 27  7  1  0  0  0  0
 30 28  1  0  0  0  0
 30 29  1  0  0  0  0
M  END
>  <MODEL>
8

>  <REMARK>
 VINA RESULT:      -5.2      1.995      3.615
  Name = 
  2 active torsions:
  status: ('A' for Active; 'I' for Inactive)
    1  A    between atoms: C_11  and  C_28
    2  A    between atoms: C_28  and  C_30
                            x       y       z     vdW  Elec       q    Type
                         _______ _______ _______ _____ _____    ______ ____

>  <TORSDO>
F 2

$$$$
