=
 OpenBabel11122412323D

 30 35  0  0  1  0  0  0  0  0999 V2000
  161.3100  210.6830  150.8810 C   0  0  0  0  0  0  0  0  0  0  0  0
  161.5820  212.3110  149.0030 C   0  0  0  0  0  0  0  0  0  0  0  0
  158.8270  213.3600  153.0860 C   0  0  0  0  0  2  0  0  0  0  0  0
  160.7460  210.3880  152.1440 C   0  0  0  0  0  0  0  0  0  0  0  0
  162.2430  209.6780  150.2630 C   0  0  0  0  0  2  0  0  0  0  0  0
  160.9990  206.7150  152.0050 O   0  0  0  0  0  0  0  0  0  0  0  0
  161.5700  210.0310  154.9360 C   0  0  1  0  0  3  0  0  0  0  0  0
  161.1900  207.9320  151.7340 C   0  0  0  0  0  0  0  0  0  0  0  0
  160.4150  210.9890  155.2290 C   0  0  2  0  0  3  0  0  0  0  0  0
  158.5920  212.4200  154.2860 C   0  0  1  0  0  3  0  0  0  0  0  0
  161.7980  208.3080  150.4910 N   0  0  0  0  0  0  0  0  0  0  0  0
  160.7130  208.9830  152.6940 C   0  0  1  0  0  3  0  0  0  0  0  0
  161.2740  213.5520  148.4400 C   0  0  0  0  0  3  0  0  0  0  0  0
  159.7210  210.4470  156.4550 C   0  0  0  0  0  2  0  0  0  0  0  0
  162.0340  209.6280  156.3260 C   0  0  0  0  0  2  0  0  0  0  0  0
  162.3820  211.4780  148.2920 F   0  0  0  0  0  0  0  0  0  0  0  0
  159.7050  212.5560  152.1970 C   0  0  0  0  0  0  0  0  0  0  0  0
  160.4480  214.4530  149.1100 C   0  0  0  0  0  3  0  0  0  0  0  0
  161.0550  211.9480  150.2670 C   0  0  0  0  0  0  0  0  0  0  0  0
  160.0090  211.3730  152.7950 C   0  0  0  0  0  0  0  0  0  0  0  0
  157.1570  211.9300  154.2740 C   0  0  0  0  0  1  0  0  0  0  0  0
  159.5050  211.2860  154.1190 N   0  0  0  0  0  0  0  0  0  0  0  0
  160.8370  209.7960  157.2610 C   0  0  0  0  0  2  0  0  0  0  0  0
  160.3170  207.9460  154.8100 O   0  0  0  0  0  1  0  0  0  0  0  0
  159.9190  214.1220  150.3560 C   0  0  0  0  0  3  0  0  0  0  0  0
  160.2130  212.8850  150.9390 C   0  0  0  0  0  0  0  0  0  0  0  0
  161.2180  208.7660  154.1240 C   0  0  2  0  0  3  0  0  0  0  0  0
  162.1650  207.2890  149.5180 C   0  0  0  0  0  2  0  0  0  0  0  0
  160.5250  206.2130  148.5110 C   0  0  0  0  0  1  0  0  0  0  0  0
  161.3120  207.3600  148.4160 O   0  0  0  0  0  0  0  0  0  0  0  0
  1  4  1  0  0  0  0
  2 19  1  0  0  0  0
  3 10  1  0  0  0  0
  4 12  1  0  0  0  0
  4 20  2  0  0  0  0
  5 11  1  0  0  0  0
  5  1  1  0  0  0  0
  7  9  1  0  0  0  0
  7 15  1  1  0  0  0
  8  6  2  0  0  0  0
  9 14  1  1  0  0  0
 10 21  1  6  0  0  0
 11  8  1  0  0  0  0
 12  8  1  6  0  0  0
 12 27  1  0  0  0  0
 13  2  2  0  0  0  0
 13 18  1  0  0  0  0
 14 23  1  0  0  0  0
 15 23  1  0  0  0  0
 16  2  1  0  0  0  0
 17 20  1  0  0  0  0
 17  3  1  0  0  0  0
 18 25  2  0  0  0  0
 19  1  2  0  0  0  0
 19 26  1  0  0  0  0
 20 22  1  0  0  0  0
 22 10  1  0  0  0  0
 22  9  1  0  0  0  0
 25 26  1  0  0  0  0
 26 17  2  0  0  0  0
 27 24  1  1  0  0  0
 27  7  1  0  0  0  0
 28 11  1  0  0  0  0
 30 29  1  0  0  0  0
 30 28  1  0  0  0  0
M  END
>  <MODEL>
1

>  <REMARK>
 VINA RESULT:      -6.9      0.000      0.000
  Name = 
  2 active torsions:
  status: ('A' for Active; 'I' for Inactive)
    1  A    between atoms: N_11  and  C_28
    2  A    between atoms: C_28  and  O_30
                            x       y       z     vdW  Elec       q    Type
                         _______ _______ _______ _____ _____    ______ ____

>  <TORSDO>
F 2

$$$$
=
 OpenBabel11122412323D

 30 35  0  0  1  0  0  0  0  0999 V2000
  161.0500  207.8710  151.2500 C   0  0  0  0  0  0  0  0  0  0  0  0
  161.2970  205.5260  150.4190 C   0  0  0  0  0  0  0  0  0  0  0  0
  160.7800  206.5980  155.3130 C   0  0  0  0  0  2  0  0  0  0  0  0
  160.8910  208.7460  152.3500 C   0  0  0  0  0  0  0  0  0  0  0  0
  161.0360  208.4550  149.8640 C   0  0  0  0  0  2  0  0  0  0  0  0
  162.0740  211.8460  150.7500 O   0  0  0  0  0  0  0  0  0  0  0  0
  158.8640  210.4980  153.5410 C   0  0  1  0  0  3  0  0  0  0  0  0
  161.6470  210.6680  150.8900 C   0  0  0  0  0  0  0  0  0  0  0  0
  159.2410  209.7830  154.8380 C   0  0  2  0  0  3  0  0  0  0  0  0
  160.6330  208.0080  155.9200 C   0  0  1  0  0  3  0  0  0  0  0  0
  161.7340  209.7350  149.8050 N   0  0  0  0  0  0  0  0  0  0  0  0
  161.1120  210.2330  152.2240 C   0  0  1  0  0  3  0  0  0  0  0  0
  161.4000  204.1600  150.6990 C   0  0  0  0  0  3  0  0  0  0  0  0
  159.2880  210.8470  155.9080 C   0  0  0  0  0  2  0  0  0  0  0  0
  157.8930  211.5670  154.0160 C   0  0  0  0  0  2  0  0  0  0  0  0
  161.3740  205.9100  149.1210 F   0  0  0  0  0  0  0  0  0  0  0  0
  160.8850  206.8700  153.8560 C   0  0  0  0  0  0  0  0  0  0  0  0
  161.3410  203.6960  152.0120 C   0  0  0  0  0  3  0  0  0  0  0  0
  161.1320  206.4610  151.4710 C   0  0  0  0  0  0  0  0  0  0  0  0
  160.7460  208.2030  153.6230 C   0  0  0  0  0  0  0  0  0  0  0  0
  161.9020  208.3740  156.6670 C   0  0  0  0  0  1  0  0  0  0  0  0
  160.4340  208.9320  154.8010 N   0  0  0  0  0  0  0  0  0  0  0  0
  158.2300  211.8550  155.4790 C   0  0  0  0  0  2  0  0  0  0  0  0
  160.6210  212.1860  153.5100 O   0  0  0  0  0  1  0  0  0  0  0  0
  161.1770  204.5950  153.0640 C   0  0  0  0  0  3  0  0  0  0  0  0
  161.0720  205.9660  152.8080 C   0  0  0  0  0  0  0  0  0  0  0  0
  160.0220  211.1640  152.7670 C   0  0  2  0  0  3  0  0  0  0  0  0
  162.3470  210.1310  148.5460 C   0  0  0  0  0  2  0  0  0  0  0  0
  162.4040  212.1320  147.6200 C   0  0  0  0  0  1  0  0  0  0  0  0
  161.5430  211.0740  147.9060 O   0  0  0  0  0  0  0  0  0  0  0  0
  1 19  2  0  0  0  0
  1  4  1  0  0  0  0
  2 13  2  0  0  0  0
  2 19  1  0  0  0  0
  3 10  1  0  0  0  0
  4 20  2  0  0  0  0
  5  1  1  0  0  0  0
  6  8  2  0  0  0  0
  7 15  1  1  0  0  0
  7  9  1  0  0  0  0
  9 14  1  1  0  0  0
 10 21  1  6  0  0  0
 11  5  1  0  0  0  0
 11  8  1  0  0  0  0
 12  8  1  6  0  0  0
 12  4  1  0  0  0  0
 12 27  1  0  0  0  0
 13 18  1  0  0  0  0
 15 23  1  0  0  0  0
 16  2  1  0  0  0  0
 17  3  1  0  0  0  0
 18 25  2  0  0  0  0
 19 26  1  0  0  0  0
 20 17  1  0  0  0  0
 20 22  1  0  0  0  0
 22  9  1  0  0  0  0
 22 10  1  0  0  0  0
 23 14  1  0  0  0  0
 26 25  1  0  0  0  0
 26 17  2  0  0  0  0
 27 24  1  1  0  0  0
 27  7  1  0  0  0  0
 28 11  1  0  0  0  0
 29 30  1  0  0  0  0
 30 28  1  0  0  0  0
M  END
>  <MODEL>
2

>  <REMARK>
 VINA RESULT:      -5.8      2.515      5.353
  Name = 
  2 active torsions:
  status: ('A' for Active; 'I' for Inactive)
    1  A    between atoms: N_11  and  C_28
    2  A    between atoms: C_28  and  O_30
                            x       y       z     vdW  Elec       q    Type
                         _______ _______ _______ _____ _____    ______ ____

>  <TORSDO>
F 2

$$$$
=
 OpenBabel11122412323D

 30 35  0  0  1  0  0  0  0  0999 V2000
  161.0170  207.2300  151.2130 C   0  0  0  0  0  0  0  0  0  0  0  0
  160.9790  204.7470  150.9320 C   0  0  0  0  0  0  0  0  0  0  0  0
  160.7710  206.9370  155.4620 C   0  0  0  0  0  2  0  0  0  0  0  0
  160.9960  208.3420  152.0880 C   0  0  0  0  0  0  0  0  0  0  0  0
  161.0110  207.4870  149.7310 C   0  0  0  0  0  2  0  0  0  0  0  0
  162.4390  210.8510  149.8100 O   0  0  0  0  0  0  0  0  0  0  0  0
  159.2150  210.5330  152.8790 C   0  0  1  0  0  3  0  0  0  0  0  0
  161.8950  209.7900  150.2200 C   0  0  0  0  0  0  0  0  0  0  0  0
  159.5640  210.0880  154.2990 C   0  0  2  0  0  3  0  0  0  0  0  0
  160.8000  208.4550  155.7360 C   0  0  1  0  0  3  0  0  0  0  0  0
  161.8380  208.6340  149.3740 N   0  0  0  0  0  0  0  0  0  0  0  0
  161.3690  209.7280  151.6250 C   0  0  1  0  0  3  0  0  0  0  0  0
  160.9460  203.4750  151.5130 C   0  0  0  0  0  3  0  0  0  0  0  0
  159.7660  211.3520  155.0990 C   0  0  0  0  0  2  0  0  0  0  0  0
  158.3840  211.7840  153.1130 C   0  0  0  0  0  2  0  0  0  0  0  0
  161.0450  204.8190  149.5790 F   0  0  0  0  0  0  0  0  0  0  0  0
  160.8480  206.8630  153.9800 C   0  0  0  0  0  0  0  0  0  0  0  0
  160.8900  203.3260  152.8980 C   0  0  0  0  0  3  0  0  0  0  0  0
  160.9560  205.9050  151.7470 C   0  0  0  0  0  0  0  0  0  0  0  0
  160.8420  208.1170  153.4530 C   0  0  0  0  0  0  0  0  0  0  0  0
  162.1290  208.8330  156.3620 C   0  0  0  0  0  1  0  0  0  0  0  0
  160.6570  209.1220  154.4390 N   0  0  0  0  0  0  0  0  0  0  0  0
  158.8060  212.3520  154.4680 C   0  0  0  0  0  2  0  0  0  0  0  0
  161.1400  211.9620  152.4420 O   0  0  0  0  0  1  0  0  0  0  0  0
  160.8640  204.4500  153.7200 C   0  0  0  0  0  3  0  0  0  0  0  0
  160.8960  205.7320  153.1620 C   0  0  0  0  0  0  0  0  0  0  0  0
  160.4070  210.8740  151.9580 C   0  0  2  0  0  3  0  0  0  0  0  0
  162.4410  208.6660  148.0490 C   0  0  0  0  0  2  0  0  0  0  0  0
  162.4440  206.6980  147.0550 C   0  0  0  0  0  1  0  0  0  0  0  0
  161.7010  207.8700  147.1740 O   0  0  0  0  0  0  0  0  0  0  0  0
  1 19  2  0  0  0  0
  1  4  1  0  0  0  0
  2 13  2  0  0  0  0
  2 19  1  0  0  0  0
  3 10  1  0  0  0  0
  4 20  2  0  0  0  0
  5  1  1  0  0  0  0
  6  8  2  0  0  0  0
  7 15  1  1  0  0  0
  7  9  1  0  0  0  0
  9 22  1  0  0  0  0
  9 14  1  1  0  0  0
 10 21  1  6  0  0  0
 11  5  1  0  0  0  0
 11  8  1  0  0  0  0
 12  8  1  6  0  0  0
 12 27  1  0  0  0  0
 12  4  1  0  0  0  0
 13 18  1  0  0  0  0
 15 23  1  0  0  0  0
 16  2  1  0  0  0  0
 17  3  1  0  0  0  0
 18 25  2  0  0  0  0
 19 26  1  0  0  0  0
 20 17  1  0  0  0  0
 20 22  1  0  0  0  0
 22 10  1  0  0  0  0
 23 14  1  0  0  0  0
 26 25  1  0  0  0  0
 26 17  2  0  0  0  0
 27 24  1  1  0  0  0
 27  7  1  0  0  0  0
 28 11  1  0  0  0  0
 29 30  1  0  0  0  0
 30 28  1  0  0  0  0
M  END
>  <MODEL>
3

>  <REMARK>
 VINA RESULT:      -5.0      2.608      5.444
  Name = 
  2 active torsions:
  status: ('A' for Active; 'I' for Inactive)
    1  A    between atoms: N_11  and  C_28
    2  A    between atoms: C_28  and  O_30
                            x       y       z     vdW  Elec       q    Type
                         _______ _______ _______ _____ _____    ______ ____

>  <TORSDO>
F 2

$$$$
=
 OpenBabel11122412323D

 30 35  0  0  1  0  0  0  0  0999 V2000
  160.9270  210.6440  152.4730 C   0  0  0  0  0  0  0  0  0  0  0  0
  162.0280  210.4990  150.2330 C   0  0  0  0  0  0  0  0  0  0  0  0
  158.8330  214.2070  151.4180 C   0  0  0  0  0  2  0  0  0  0  0  0
  160.0430  211.3320  153.3360 C   0  0  0  0  0  0  0  0  0  0  0  0
  161.6690  209.4510  153.0130 C   0  0  0  0  0  2  0  0  0  0  0  0
  159.3280  208.5840  155.6830 O   0  0  0  0  0  0  0  0  0  0  0  0
  160.1120  212.9770  155.7630 C   0  0  1  0  0  3  0  0  0  0  0  0
  159.8920  209.2630  154.7820 C   0  0  0  0  0  0  0  0  0  0  0  0
  159.2200  213.9190  154.9550 C   0  0  2  0  0  3  0  0  0  0  0  0
  158.0990  214.3740  152.7640 C   0  0  1  0  0  3  0  0  0  0  0  0
  160.8340  208.6440  153.8950 N   0  0  0  0  0  0  0  0  0  0  0  0
  159.5160  210.7050  154.6030 C   0  0  1  0  0  3  0  0  0  0  0  0
  162.1940  211.0140  148.9440 C   0  0  0  0  0  3  0  0  0  0  0  0
  158.1560  214.4100  155.9060 C   0  0  0  0  0  2  0  0  0  0  0  0
  160.1360  213.6300  157.1350 C   0  0  0  0  0  2  0  0  0  0  0  0
  162.7110  209.3720  150.5530 F   0  0  0  0  0  0  0  0  0  0  0  0
  159.6350  212.9730  151.6240 C   0  0  0  0  0  0  0  0  0  0  0  0
  161.5130  212.1630  148.5430 C   0  0  0  0  0  3  0  0  0  0  0  0
  161.1600  211.1390  151.1520 C   0  0  0  0  0  0  0  0  0  0  0  0
  159.4730  212.5240  152.8980 C   0  0  0  0  0  0  0  0  0  0  0  0
  156.6230  214.0750  152.5800 C   0  0  0  0  0  1  0  0  0  0  0  0
  158.6870  213.4020  153.6900 N   0  0  0  0  0  0  0  0  0  0  0  0
  158.8540  214.4530  157.2580 C   0  0  0  0  0  2  0  0  0  0  0  0
  158.4050  211.4440  156.5850 O   0  0  0  0  0  1  0  0  0  0  0  0
  160.6570  212.8120  149.4300 C   0  0  0  0  0  3  0  0  0  0  0  0
  160.4750  212.3150  150.7240 C   0  0  0  0  0  0  0  0  0  0  0  0
  159.6200  211.5190  155.8970 C   0  0  2  0  0  3  0  0  0  0  0  0
  161.1190  207.2210  154.0070 C   0  0  0  0  0  2  0  0  0  0  0  0
  161.9550  205.7210  152.6240 C   0  0  0  0  0  1  0  0  0  0  0  0
  160.8810  206.5950  152.7830 O   0  0  0  0  0  0  0  0  0  0  0  0
  1  5  1  0  0  0  0
  1  4  1  0  0  0  0
  2 16  1  0  0  0  0
  2 19  1  0  0  0  0
  3 17  1  0  0  0  0
  3 10  1  0  0  0  0
  5 11  1  0  0  0  0
  7 27  1  0  0  0  0
  7 15  1  1  0  0  0
  8  6  2  0  0  0  0
  9  7  1  0  0  0  0
  9 14  1  1  0  0  0
 10 21  1  6  0  0  0
 10 22  1  0  0  0  0
 11 28  1  0  0  0  0
 11  8  1  0  0  0  0
 12  4  1  6  0  0  0
 12  8  1  0  0  0  0
 12 27  1  0  0  0  0
 13  2  2  0  0  0  0
 14 23  1  0  0  0  0
 15 23  1  0  0  0  0
 17 20  1  0  0  0  0
 18 13  1  0  0  0  0
 18 25  2  0  0  0  0
 19  1  2  0  0  0  0
 20  4  2  0  0  0  0
 20 22  1  0  0  0  0
 22  9  1  0  0  0  0
 25 26  1  0  0  0  0
 26 19  1  0  0  0  0
 26 17  2  0  0  0  0
 27 24  1  6  0  0  0
 29 30  1  0  0  0  0
 30 28  1  0  0  0  0
M  END
>  <MODEL>
4

>  <REMARK>
 VINA RESULT:      -4.8      2.071      3.184
  Name = 
  2 active torsions:
  status: ('A' for Active; 'I' for Inactive)
    1  A    between atoms: N_11  and  C_28
    2  A    between atoms: C_28  and  O_30
                            x       y       z     vdW  Elec       q    Type
                         _______ _______ _______ _____ _____    ______ ____

>  <TORSDO>
F 2

$$$$
=
 OpenBabel11122412323D

 30 35  0  0  1  0  0  0  0  0999 V2000
  160.5760  210.3480  151.7640 C   0  0  0  0  0  0  0  0  0  0  0  0
  161.7270  208.3570  150.7840 C   0  0  0  0  0  0  0  0  0  0  0  0
  160.5340  208.6320  155.6690 C   0  0  0  0  0  2  0  0  0  0  0  0
  160.0330  210.9820  152.9060 C   0  0  0  0  0  0  0  0  0  0  0  0
  160.4370  211.0340  150.4320 C   0  0  0  0  0  2  0  0  0  0  0  0
  160.0830  214.4530  151.6740 O   0  0  0  0  0  0  0  0  0  0  0  0
  157.4280  211.7390  154.0190 C   0  0  1  0  0  3  0  0  0  0  0  0
  160.1150  213.1930  151.6810 C   0  0  0  0  0  0  0  0  0  0  0  0
  157.9580  211.0730  155.2880 C   0  0  2  0  0  3  0  0  0  0  0  0
  159.8360  209.8190  156.3650 C   0  0  1  0  0  3  0  0  0  0  0  0
  160.6120  212.4770  150.5410 N   0  0  0  0  0  0  0  0  0  0  0  0
  159.6940  212.4520  152.9170 C   0  0  1  0  0  3  0  0  0  0  0  0
  162.3120  207.1000  150.9670 C   0  0  0  0  0  3  0  0  0  0  0  0
  157.5380  211.9600  156.4360 C   0  0  0  0  0  2  0  0  0  0  0  0
  156.1020  212.3250  154.4750 C   0  0  0  0  0  2  0  0  0  0  0  0
  161.7410  208.8810  149.5330 F   0  0  0  0  0  0  0  0  0  0  0  0
  160.6260  209.0800  154.2550 C   0  0  0  0  0  0  0  0  0  0  0  0
  162.3440  206.5070  152.2280 C   0  0  0  0  0  3  0  0  0  0  0  0
  161.1600  209.0490  151.8830 C   0  0  0  0  0  0  0  0  0  0  0  0
  160.0170  210.2880  154.1130 C   0  0  0  0  0  0  0  0  0  0  0  0
  160.8280  210.5370  157.2610 C   0  0  0  0  0  1  0  0  0  0  0  0
  159.3820  210.7230  155.3050 N   0  0  0  0  0  0  0  0  0  0  0  0
  156.2120  212.5550  155.9820 C   0  0  0  0  0  2  0  0  0  0  0  0
  158.4320  213.9420  154.2930 O   0  0  0  0  0  1  0  0  0  0  0  0
  161.7910  207.1660  153.3240 C   0  0  0  0  0  3  0  0  0  0  0  0
  161.2020  208.4240  153.1650 C   0  0  0  0  0  0  0  0  0  0  0  0
  158.3050  212.8590  153.4180 C   0  0  2  0  0  3  0  0  0  0  0  0
  161.1150  213.2030  149.3840 C   0  0  0  0  0  2  0  0  0  0  0  0
  162.7150  212.7480  147.9360 C   0  0  0  0  0  1  0  0  0  0  0  0
  161.4730  212.3010  148.3810 O   0  0  0  0  0  0  0  0  0  0  0  0
  1 19  2  0  0  0  0
  1  4  1  0  0  0  0
  2 13  2  0  0  0  0
  2 19  1  0  0  0  0
  3 10  1  0  0  0  0
  4 12  1  0  0  0  0
  4 20  2  0  0  0  0
  5 11  1  0  0  0  0
  5  1  1  0  0  0  0
  6  8  2  0  0  0  0
  7 15  1  1  0  0  0
  7  9  1  0  0  0  0
  9 22  1  0  0  0  0
  9 14  1  1  0  0  0
 10 21  1  1  0  0  0
 11  8  1  0  0  0  0
 12  8  1  6  0  0  0
 12 27  1  0  0  0  0
 13 18  1  0  0  0  0
 15 23  1  0  0  0  0
 16  2  1  0  0  0  0
 17  3  1  0  0  0  0
 18 25  2  0  0  0  0
 19 26  1  0  0  0  0
 20 17  1  0  0  0  0
 20 22  1  0  0  0  0
 22 10  1  0  0  0  0
 23 14  1  0  0  0  0
 26 25  1  0  0  0  0
 26 17  2  0  0  0  0
 27  7  1  0  0  0  0
 27 24  1  1  0  0  0
 28 11  1  0  0  0  0
 29 30  1  0  0  0  0
 30 28  1  0  0  0  0
M  END
>  <MODEL>
5

>  <REMARK>
 VINA RESULT:      -4.6      2.454      5.018
  Name = 
  2 active torsions:
  status: ('A' for Active; 'I' for Inactive)
    1  A    between atoms: N_11  and  C_28
    2  A    between atoms: C_28  and  O_30
                            x       y       z     vdW  Elec       q    Type
                         _______ _______ _______ _____ _____    ______ ____

>  <TORSDO>
F 2

$$$$
=
 OpenBabel11122412323D

 30 35  0  0  1  0  0  0  0  0999 V2000
  159.4330  212.6820  152.9720 C   0  0  0  0  0  0  0  0  0  0  0  0
  159.7260  212.2460  155.4160 C   0  0  0  0  0  0  0  0  0  0  0  0
  162.3310  209.7370  151.9130 C   0  0  0  0  0  2  0  0  0  0  0  0
  159.7990  212.3680  151.6430 C   0  0  0  0  0  0  0  0  0  0  0  0
  158.4630  213.8100  153.1990 C   0  0  0  0  0  2  0  0  0  0  0  0
  156.8320  213.7210  149.9290 O   0  0  0  0  0  0  0  0  0  0  0  0
  161.2580  213.5430  149.3870 C   0  0  1  0  0  3  0  0  0  0  0  0
  157.6910  213.5000  150.8260 C   0  0  0  0  0  0  0  0  0  0  0  0
  161.9610  212.1870  149.3450 C   0  0  2  0  0  3  0  0  0  0  0  0
  162.2120  209.9260  150.3870 C   0  0  1  0  0  3  0  0  0  0  0  0
  157.4080  213.8320  152.1920 N   0  0  0  0  0  0  0  0  0  0  0  0
  158.9810  212.8240  150.4610 C   0  0  1  0  0  3  0  0  0  0  0  0
  160.3390  211.5160  156.4380 C   0  0  0  0  0  3  0  0  0  0  0  0
  162.0850  211.8220  147.8850 C   0  0  0  0  0  2  0  0  0  0  0  0
  161.8150  214.2500  148.1610 C   0  0  0  0  0  2  0  0  0  0  0  0
  158.8150  213.1860  155.7740 F   0  0  0  0  0  0  0  0  0  0  0  0
  161.3580  210.7230  152.4500 C   0  0  0  0  0  0  0  0  0  0  0  0
  161.2760  210.5260  156.1430 C   0  0  0  0  0  3  0  0  0  0  0  0
  160.0470  211.9890  154.0610 C   0  0  0  0  0  0  0  0  0  0  0  0
  160.8100  211.4350  151.4290 C   0  0  0  0  0  0  0  0  0  0  0  0
  161.5280  208.7180  149.7760 C   0  0  0  0  0  1  0  0  0  0  0  0
  161.3900  211.1210  150.1720 N   0  0  0  0  0  0  0  0  0  0  0  0
  162.2410  213.1610  147.1770 C   0  0  0  0  0  2  0  0  0  0  0  0
  159.2700  212.9850  148.0940 O   0  0  0  0  0  1  0  0  0  0  0  0
  161.6110  210.2560  154.8180 C   0  0  0  0  0  3  0  0  0  0  0  0
  161.0100  210.9740  153.7790 C   0  0  0  0  0  0  0  0  0  0  0  0
  159.7160  213.5160  149.3080 C   0  0  2  0  0  3  0  0  0  0  0  0
  156.1150  214.3930  152.5570 C   0  0  0  0  0  2  0  0  0  0  0  0
  154.8240  214.4530  154.3440 C   0  0  0  0  0  1  0  0  0  0  0  0
  155.4930  213.5710  153.4980 O   0  0  0  0  0  0  0  0  0  0  0  0
  1  5  1  0  0  0  0
  1 19  1  0  0  0  0
  2 16  1  0  0  0  0
  2 13  1  0  0  0  0
  3 17  1  0  0  0  0
  4  1  2  0  0  0  0
  6  8  2  0  0  0  0
  7 15  1  6  0  0  0
  8 11  1  0  0  0  0
  9 14  1  6  0  0  0
  9  7  1  0  0  0  0
  9 22  1  0  0  0  0
 10 21  1  6  0  0  0
 10  3  1  0  0  0  0
 11 28  1  0  0  0  0
 11  5  1  0  0  0  0
 12  8  1  1  0  0  0
 12  4  1  0  0  0  0
 17 26  1  0  0  0  0
 18 13  2  0  0  0  0
 19  2  2  0  0  0  0
 20  4  1  0  0  0  0
 20 17  2  0  0  0  0
 22 10  1  0  0  0  0
 22 20  1  0  0  0  0
 23 14  1  0  0  0  0
 23 15  1  0  0  0  0
 25 18  1  0  0  0  0
 26 19  1  0  0  0  0
 26 25  2  0  0  0  0
 27 24  1  6  0  0  0
 27  7  1  0  0  0  0
 27 12  1  0  0  0  0
 28 30  1  0  0  0  0
 30 29  1  0  0  0  0
M  END
>  <MODEL>
6

>  <REMARK>
 VINA RESULT:      -4.5      3.174      7.110
  Name = 
  2 active torsions:
  status: ('A' for Active; 'I' for Inactive)
    1  A    between atoms: N_11  and  C_28
    2  A    between atoms: C_28  and  O_30
                            x       y       z     vdW  Elec       q    Type
                         _______ _______ _______ _____ _____    ______ ____

>  <TORSDO>
F 2

$$$$
=
 OpenBabel11122412323D

 30 35  0  0  1  0  0  0  0  0999 V2000
  161.1020  209.9870  151.1310 C   0  0  0  0  0  0  0  0  0  0  0  0
  161.9910  207.6530  151.0350 C   0  0  0  0  0  0  0  0  0  0  0  0
  160.1040  209.6320  155.2630 C   0  0  0  0  0  2  0  0  0  0  0  0
  160.5140  211.0190  151.9000 C   0  0  0  0  0  0  0  0  0  0  0  0
  161.3120  210.2230  149.6600 C   0  0  0  0  0  2  0  0  0  0  0  0
  161.4270  213.8760  149.7600 O   0  0  0  0  0  0  0  0  0  0  0  0
  157.9590  212.4320  152.1690 C   0  0  1  0  0  3  0  0  0  0  0  0
  161.2150  212.6910  150.1360 C   0  0  0  0  0  0  0  0  0  0  0  0
  158.1400  212.1430  153.6580 C   0  0  2  0  0  3  0  0  0  0  0  0
  159.5440  211.0600  155.4240 C   0  0  1  0  0  3  0  0  0  0  0  0
  161.7420  211.5890  149.3840 N   0  0  0  0  0  0  0  0  0  0  0  0
  160.4670  212.4470  151.4150 C   0  0  1  0  0  3  0  0  0  0  0  0
  162.2860  206.4550  151.6910 C   0  0  0  0  0  3  0  0  0  0  0  0
  157.7190  213.3970  154.3850 C   0  0  0  0  0  2  0  0  0  0  0  0
  156.7140  213.3040  152.1440 C   0  0  0  0  0  2  0  0  0  0  0  0
  162.3060  207.7430  149.7180 F   0  0  0  0  0  0  0  0  0  0  0  0
  160.5060  209.5870  153.8340 C   0  0  0  0  0  0  0  0  0  0  0  0
  162.0010  206.2970  153.0470 C   0  0  0  0  0  3  0  0  0  0  0  0
  161.3990  208.7290  151.7410 C   0  0  0  0  0  0  0  0  0  0  0  0
  160.1710  210.7570  153.2230 C   0  0  0  0  0  0  0  0  0  0  0  0
  160.4980  211.8890  156.2630 C   0  0  0  0  0  1  0  0  0  0  0  0
  159.4480  211.6300  154.0770 N   0  0  0  0  0  0  0  0  0  0  0  0
  156.6230  213.9870  153.5080 C   0  0  0  0  0  2  0  0  0  0  0  0
  159.3100  214.4530  152.0030 O   0  0  0  0  0  1  0  0  0  0  0  0
  161.4160  207.3390  153.7630 C   0  0  0  0  0  3  0  0  0  0  0  0
  161.1130  208.5470  153.1270 C   0  0  0  0  0  0  0  0  0  0  0  0
  159.1190  213.1740  151.4700 C   0  0  2  0  0  3  0  0  0  0  0  0
  162.5540  211.8330  148.2010 C   0  0  0  0  0  2  0  0  0  0  0  0
  162.3440  213.2230  146.5020 C   0  0  0  0  0  1  0  0  0  0  0  0
  161.7300  212.1330  147.1160 O   0  0  0  0  0  0  0  0  0  0  0  0
  1 19  2  0  0  0  0
  1  4  1  0  0  0  0
  2 13  2  0  0  0  0
  2 19  1  0  0  0  0
  3 10  1  0  0  0  0
  4 20  2  0  0  0  0
  5  1  1  0  0  0  0
  6  8  2  0  0  0  0
  7 15  1  1  0  0  0
  7  9  1  0  0  0  0
  9 22  1  0  0  0  0
  9 14  1  1  0  0  0
 10 21  1  1  0  0  0
 11  5  1  0  0  0  0
 11  8  1  0  0  0  0
 12  8  1  6  0  0  0
 12 27  1  0  0  0  0
 12  4  1  0  0  0  0
 13 18  1  0  0  0  0
 15 23  1  0  0  0  0
 16  2  1  0  0  0  0
 17  3  1  0  0  0  0
 18 25  2  0  0  0  0
 19 26  1  0  0  0  0
 20 17  1  0  0  0  0
 20 22  1  0  0  0  0
 22 10  1  0  0  0  0
 23 14  1  0  0  0  0
 26 25  1  0  0  0  0
 26 17  2  0  0  0  0
 27 24  1  1  0  0  0
 27  7  1  0  0  0  0
 28 11  1  0  0  0  0
 29 30  1  0  0  0  0
 30 28  1  0  0  0  0
M  END
>  <MODEL>
7

>  <REMARK>
 VINA RESULT:      -4.4      2.644      5.146
  Name = 
  2 active torsions:
  status: ('A' for Active; 'I' for Inactive)
    1  A    between atoms: N_11  and  C_28
    2  A    between atoms: C_28  and  O_30
                            x       y       z     vdW  Elec       q    Type
                         _______ _______ _______ _____ _____    ______ ____

>  <TORSDO>
F 2

$$$$
=
 OpenBabel11122412323D

 30 35  0  0  1  0  0  0  0  0999 V2000
  161.0000  208.3890  151.5970 C   0  0  0  0  0  0  0  0  0  0  0  0
  161.1690  205.9270  151.9910 C   0  0  0  0  0  0  0  0  0  0  0  0
  160.4830  209.2050  155.7520 C   0  0  0  0  0  2  0  0  0  0  0  0
  160.8350  209.6850  152.1390 C   0  0  0  0  0  0  0  0  0  0  0  0
  161.0790  208.2450  150.1010 C   0  0  0  0  0  2  0  0  0  0  0  0
  162.2400  211.6270  149.3420 O   0  0  0  0  0  0  0  0  0  0  0  0
  158.8440  211.8370  152.2290 C   0  0  1  0  0  3  0  0  0  0  0  0
  161.7500  210.6660  149.9950 C   0  0  0  0  0  0  0  0  0  0  0  0
  159.1260  211.8150  153.7300 C   0  0  2  0  0  3  0  0  0  0  0  0
  160.3780  210.7370  155.6100 C   0  0  1  0  0  3  0  0  0  0  0  0
  161.8400  209.3280  149.4880 N   0  0  0  0  0  0  0  0  0  0  0  0
  161.1340  210.9290  151.3390 C   0  0  1  0  0  3  0  0  0  0  0  0
  161.1920  204.8560  152.8890 C   0  0  0  0  0  3  0  0  0  0  0  0
  159.1760  213.2580  154.1700 C   0  0  0  0  0  2  0  0  0  0  0  0
  157.9070  213.0240  152.0790 C   0  0  0  0  0  2  0  0  0  0  0  0
  161.3240  205.6460  150.6730 F   0  0  0  0  0  0  0  0  0  0  0  0
  160.6680  208.7500  154.3490 C   0  0  0  0  0  0  0  0  0  0  0  0
  161.0510  205.0720  154.2590 C   0  0  0  0  0  3  0  0  0  0  0  0
  161.0030  207.2520  152.4620 C   0  0  0  0  0  0  0  0  0  0  0  0
  160.6050  209.8150  153.5060 C   0  0  0  0  0  0  0  0  0  0  0  0
  161.6280  211.3860  156.1730 C   0  0  0  0  0  1  0  0  0  0  0  0
  160.2760  211.0230  154.1760 N   0  0  0  0  0  0  0  0  0  0  0  0
  158.1900  213.9640  153.2500 C   0  0  0  0  0  2  0  0  0  0  0  0
  160.6820  213.2690  151.5140 O   0  0  0  0  0  1  0  0  0  0  0  0
  160.8830  206.3660  154.7480 C   0  0  0  0  0  3  0  0  0  0  0  0
  160.8580  207.4530  153.8680 C   0  0  0  0  0  0  0  0  0  0  0  0
  160.0680  212.0290  151.3070 C   0  0  2  0  0  3  0  0  0  0  0  0
  162.5290  209.0650  148.2330 C   0  0  0  0  0  2  0  0  0  0  0  0
  162.0390  207.1020  147.3550 C   0  0  0  0  0  1  0  0  0  0  0  0
  162.9520  207.7360  148.1970 O   0  0  0  0  0  0  0  0  0  0  0  0
  1  4  2  0  0  0  0
  1 19  1  0  0  0  0
  2 19  2  0  0  0  0
  2 13  1  0  0  0  0
  4 20  1  0  0  0  0
  5  1  1  0  0  0  0
  6  8  2  0  0  0  0
  7 15  1  1  0  0  0
  7  9  1  0  0  0  0
  9 14  1  6  0  0  0
  9 22  1  0  0  0  0
 10  3  1  0  0  0  0
 10 21  1  6  0  0  0
 11  8  1  0  0  0  0
 11  5  1  0  0  0  0
 12  8  1  6  0  0  0
 12  4  1  0  0  0  0
 13 18  2  0  0  0  0
 15 23  1  0  0  0  0
 16  2  1  0  0  0  0
 17  3  1  0  0  0  0
 18 25  1  0  0  0  0
 19 26  1  0  0  0  0
 20 22  1  0  0  0  0
 20 17  2  0  0  0  0
 22 10  1  0  0  0  0
 23 14  1  0  0  0  0
 26 17  1  0  0  0  0
 26 25  2  0  0  0  0
 27 12  1  0  0  0  0
 27 24  1  1  0  0  0
 27  7  1  0  0  0  0
 28 11  1  0  0  0  0
 29 30  1  0  0  0  0
 30 28  1  0  0  0  0
M  END
>  <MODEL>
8

>  <REMARK>
 VINA RESULT:      -4.3      2.386      5.116
  Name = 
  2 active torsions:
  status: ('A' for Active; 'I' for Inactive)
    1  A    between atoms: N_11  and  C_28
    2  A    between atoms: C_28  and  O_30
                            x       y       z     vdW  Elec       q    Type
                         _______ _______ _______ _____ _____    ______ ____

>  <TORSDO>
F 2

$$$$
