=
 OpenBabel11122414383D

 34 40  0  0  1  0  0  0  0  0999 V2000
  161.0650  204.2780  151.3330 C   0  0  0  0  0  0  0  0  0  0  0  0
  161.0860  206.1390  153.0980 C   0  0  0  0  0  2  0  0  0  0  0  0
  160.3010  202.0310  145.1820 C   0  0  0  0  0  0  0  0  0  0  0  0
  160.9770  202.6230  149.5250 C   0  0  0  0  0  0  0  0  0  0  0  0
  161.0770  203.3610  147.1850 C   0  0  0  0  0  0  0  0  0  0  0  0
  161.1230  204.3640  144.8140 C   0  0  0  0  0  1  0  0  0  0  0  0
  159.1950  202.2930  144.7350 O   0  0  0  0  0  0  0  0  0  0  0  0
  161.5700  200.3890  146.5490 C   0  0  0  0  0  2  0  0  0  0  0  0
  161.2680  206.6290  150.7860 C   0  0  0  0  0  0  0  0  0  0  0  0
  161.8780  209.3830  149.6800 C   0  0  0  0  0  2  0  0  0  0  0  0
  161.1940  204.6810  147.6420 C   0  0  0  0  0  3  0  0  0  0  0  0
  160.7830  200.8500  147.7680 C   0  0  0  0  0  2  0  0  0  0  0  0
  161.3010  206.3420  149.4090 C   0  0  0  0  0  0  0  0  0  0  0  0
  161.2910  207.6450  152.9370 C   0  0  0  0  0  2  0  0  0  0  0  0
  160.9890  202.3070  148.1450 C   0  0  0  0  0  0  0  0  0  0  0  0
  160.7430  200.6070  145.2860 C   0  0  0  0  0  2  0  0  0  0  0  0
  162.2710  208.8560  150.9800 N   0  0  0  0  0  0  0  0  0  0  0  0
  161.0750  203.9620  149.9540 C   0  0  1  0  0  3  0  0  0  0  0  0
  161.2080  203.1140  145.6880 C   0  0  2  0  0  3  0  0  0  0  0  0
  161.1830  205.0000  148.9980 C   0  0  0  0  0  0  0  0  0  0  0  0
  160.8480  201.8140  151.8420 C   0  0  0  0  0  3  0  0  0  0  0  0
  162.3300  208.4460  148.5790 C   0  0  0  0  0  2  0  0  0  0  0  0
  160.8680  201.5510  150.5370 C   0  0  0  0  0  3  0  0  0  0  0  0
  161.4380  207.3460  148.4420 O   0  0  0  0  0  0  0  0  0  0  0  0
  161.1880  207.9740  151.4340 C   0  0  1  0  0  3  0  0  0  0  0  0
  160.9260  203.2100  152.3910 C   0  0  0  0  0  3  0  0  0  0  0  0
  161.1570  205.6200  151.7140 C   0  0  0  0  0  0  0  0  0  0  0  0
  162.3440  210.0260  151.8470 C   0  0  0  0  0  2  0  0  0  0  0  0
  161.0020  210.7370  151.8630 C   0  0  0  0  0  2  0  0  0  0  0  0
  161.0390  210.5250  155.3560 N   0  0  0  0  0  2  0  0  0  0  0  0
  159.4760  210.9600  153.6140 C   0  0  0  0  0  2  0  0  0  0  0  0
  160.7920  211.3640  153.1570 N   0  0  0  0  0  0  0  0  0  0  0  0
  159.6380  210.4000  155.0070 C   0  0  0  0  0  2  0  0  0  0  0  0
  161.7220  210.7480  154.0920 C   0  0  0  0  0  2  0  0  0  0  0  0
  1 27  1  0  0  0  0
  1 26  2  0  0  0  0
  3 16  1  0  0  0  0
  3 19  1  0  0  0  0
  4 18  1  0  0  0  0
  4 23  1  0  0  0  0
  5 11  2  0  0  0  0
  5 15  1  0  0  0  0
  7  3  2  0  0  0  0
  8 12  1  0  0  0  0
  9 25  1  0  0  0  0
  9 27  2  0  0  0  0
 10 17  1  0  0  0  0
 11 20  1  0  0  0  0
 12 15  1  0  0  0  0
 13  9  1  0  0  0  0
 14  2  1  0  0  0  0
 15  4  2  0  0  0  0
 16  8  1  0  0  0  0
 17 25  1  0  0  0  0
 17 28  1  0  0  0  0
 18 20  1  6  0  0  0
 18  1  1  0  0  0  0
 19  6  1  6  0  0  0
 19  5  1  0  0  0  0
 20 13  2  0  0  0  0
 21 26  1  0  0  0  0
 22 10  1  0  0  0  0
 23 21  2  0  0  0  0
 24 22  1  0  0  0  0
 24 13  1  0  0  0  0
 25 14  1  1  0  0  0
 27  2  1  0  0  0  0
 28 29  1  0  0  0  0
 29 32  1  0  0  0  0
 31 33  1  0  0  0  0
 32 31  1  0  0  0  0
 32 34  1  0  0  0  0
 33 30  1  0  0  0  0
 34 30  1  0  0  0  0
M  END
>  <MODEL>
1

>  <REMARK>
 VINA RESULT:     -11.6      0.000      0.000
  Name = 
  3 active torsions:
  status: ('A' for Active; 'I' for Inactive)
    1  A    between atoms: N_17  and  C_28
    2  A    between atoms: C_28  and  C_29
    3  A    between atoms: C_29  and  N_32
                            x       y       z     vdW  Elec       q    Type
                         _______ _______ _______ _____ _____    ______ ____

>  <TORSDO>
F 3

$$$$
=
 OpenBabel11122414383D

 34 40  0  0  1  0  0  0  0  0999 V2000
  161.0390  204.6590  151.5030 C   0  0  0  0  0  0  0  0  0  0  0  0
  160.9820  206.6550  153.1140 C   0  0  0  0  0  2  0  0  0  0  0  0
  160.4540  201.9160  145.5360 C   0  0  0  0  0  0  0  0  0  0  0  0
  161.0250  202.8660  149.8300 C   0  0  0  0  0  0  0  0  0  0  0  0
  161.1580  203.4180  147.4420 C   0  0  0  0  0  0  0  0  0  0  0  0
  161.2330  204.2320  145.0000 C   0  0  0  0  0  1  0  0  0  0  0  0
  159.3520  202.1160  145.0490 O   0  0  0  0  0  0  0  0  0  0  0  0
  161.7290  200.4180  147.0530 C   0  0  0  0  0  2  0  0  0  0  0  0
  161.2020  206.9650  150.7750 C   0  0  0  0  0  0  0  0  0  0  0  0
  161.7750  209.6360  149.4650 C   0  0  0  0  0  2  0  0  0  0  0  0
  161.2370  204.7730  147.7940 C   0  0  0  0  0  3  0  0  0  0  0  0
  160.9070  200.9550  148.2170 C   0  0  0  0  0  2  0  0  0  0  0  0
  161.2700  206.5700  149.4250 C   0  0  0  0  0  0  0  0  0  0  0  0
  161.1580  208.1470  152.8380 C   0  0  0  0  0  2  0  0  0  0  0  0
  161.0720  202.4410  148.4810 C   0  0  0  0  0  0  0  0  0  0  0  0
  160.9240  200.5150  145.7620 C   0  0  0  0  0  2  0  0  0  0  0  0
  162.1520  209.2220  150.8090 N   0  0  0  0  0  0  0  0  0  0  0  0
  161.0840  204.2360  150.1540 C   0  0  2  0  0  3  0  0  0  0  0  0
  161.3270  203.0570  145.9720 C   0  0  2  0  0  3  0  0  0  0  0  0
  161.1900  205.1970  149.1210 C   0  0  0  0  0  0  0  0  0  0  0  0
  160.8640  202.2390  152.2020 C   0  0  0  0  0  3  0  0  0  0  0  0
  162.2710  208.6250  148.4500 C   0  0  0  0  0  2  0  0  0  0  0  0
  160.9180  201.8740  150.9220 C   0  0  0  0  0  3  0  0  0  0  0  0
  161.4060  207.4980  148.3840 O   0  0  0  0  0  0  0  0  0  0  0  0
  161.0790  208.3540  151.3110 C   0  0  1  0  0  3  0  0  0  0  0  0
  160.9010  203.6760  152.6390 C   0  0  0  0  0  3  0  0  0  0  0  0
  161.0930  206.0300  151.7770 C   0  0  0  0  0  0  0  0  0  0  0  0
  162.1810  210.4590  151.5830 C   0  0  0  0  0  2  0  0  0  0  0  0
  161.4380  211.5500  150.8320 C   0  0  0  0  0  2  0  0  0  0  0  0
  159.2010  213.6110  152.5620 N   0  0  0  0  0  2  0  0  0  0  0  0
  160.2670  211.5010  152.8490 C   0  0  0  0  0  2  0  0  0  0  0  0
  160.1270  211.7530  151.4280 N   0  0  0  0  0  0  0  0  0  0  0  0
  159.7000  212.7000  153.5730 C   0  0  0  0  0  2  0  0  0  0  0  0
  159.8200  213.1720  151.3230 C   0  0  0  0  0  2  0  0  0  0  0  0
  1 27  1  0  0  0  0
  1 26  2  0  0  0  0
  3 16  1  0  0  0  0
  3 19  1  0  0  0  0
  4 18  1  0  0  0  0
  4 23  1  0  0  0  0
  5 11  2  0  0  0  0
  5 15  1  0  0  0  0
  7  3  2  0  0  0  0
  8 12  1  0  0  0  0
  9 25  1  0  0  0  0
  9 27  2  0  0  0  0
 10 17  1  0  0  0  0
 11 20  1  0  0  0  0
 12 15  1  0  0  0  0
 13  9  1  0  0  0  0
 14  2  1  0  0  0  0
 15  4  2  0  0  0  0
 16  8  1  0  0  0  0
 17 25  1  0  0  0  0
 17 28  1  0  0  0  0
 18 20  1  1  0  0  0
 18  1  1  0  0  0  0
 19  6  1  6  0  0  0
 19  5  1  0  0  0  0
 20 13  2  0  0  0  0
 21 26  1  0  0  0  0
 22 10  1  0  0  0  0
 23 21  2  0  0  0  0
 24 22  1  0  0  0  0
 24 13  1  0  0  0  0
 25 14  1  1  0  0  0
 27  2  1  0  0  0  0
 29 32  1  0  0  0  0
 29 28  1  0  0  0  0
 30 33  1  0  0  0  0
 31 33  1  0  0  0  0
 32 31  1  0  0  0  0
 34 32  1  0  0  0  0
 34 30  1  0  0  0  0
M  END
>  <MODEL>
2

>  <REMARK>
 VINA RESULT:     -10.7      1.078      1.292
  Name = 
  3 active torsions:
  status: ('A' for Active; 'I' for Inactive)
    1  A    between atoms: N_17  and  C_28
    2  A    between atoms: C_28  and  C_29
    3  A    between atoms: C_29  and  N_32
                            x       y       z     vdW  Elec       q    Type
                         _______ _______ _______ _____ _____    ______ ____

>  <TORSDO>
F 3

$$$$
=
 OpenBabel11122414383D

 34 40  0  0  1  0  0  0  0  0999 V2000
  160.9780  204.7910  151.7160 C   0  0  0  0  0  0  0  0  0  0  0  0
  160.9030  206.3060  153.7850 C   0  0  0  0  0  2  0  0  0  0  0  0
  160.4220  203.6660  145.2440 C   0  0  0  0  0  0  0  0  0  0  0  0
  160.9810  203.4870  149.6390 C   0  0  0  0  0  0  0  0  0  0  0  0
  161.1120  204.6350  147.4730 C   0  0  0  0  0  0  0  0  0  0  0  0
  161.1820  206.0480  145.3220 C   0  0  0  0  0  1  0  0  0  0  0  0
  159.3190  203.9760  144.8200 O   0  0  0  0  0  0  0  0  0  0  0  0
  161.7080  201.8390  146.3290 C   0  0  0  0  0  2  0  0  0  0  0  0
  161.1230  207.2070  151.6040 C   0  0  0  0  0  0  0  0  0  0  0  0
  161.6750  210.1290  151.0250 C   0  0  0  0  0  2  0  0  0  0  0  0
  161.1790  205.8540  148.1620 C   0  0  0  0  0  3  0  0  0  0  0  0
  160.8800  202.0530  147.5900 C   0  0  0  0  0  2  0  0  0  0  0  0
  161.1960  207.1730  150.1990 C   0  0  0  0  0  0  0  0  0  0  0  0
  161.0670  207.8200  153.9020 C   0  0  0  0  0  2  0  0  0  0  0  0
  161.0330  203.4230  148.2270 C   0  0  0  0  0  0  0  0  0  0  0  0
  160.9030  202.2580  145.1040 C   0  0  0  0  0  2  0  0  0  0  0  0
  162.0540  209.3880  152.2200 N   0  0  0  0  0  0  0  0  0  0  0  0
  161.0290  204.7280  150.3040 C   0  0  1  0  0  3  0  0  0  0  0  0
  161.2840  204.6640  145.9600 C   0  0  2  0  0  3  0  0  0  0  0  0
  161.1270  205.9230  149.5520 C   0  0  0  0  0  0  0  0  0  0  0  0
  160.8230  202.2710  151.7700 C   0  0  0  0  0  3  0  0  0  0  0  0
  162.1800  209.4170  149.7870 C   0  0  0  0  0  2  0  0  0  0  0  0
  160.8810  202.2470  150.4400 C   0  0  0  0  0  3  0  0  0  0  0  0
  161.3250  208.3370  149.4310 O   0  0  0  0  0  0  0  0  0  0  0  0
  160.9880  208.4120  152.4790 C   0  0  1  0  0  3  0  0  0  0  0  0
  160.8470  203.5480  152.5610 C   0  0  0  0  0  3  0  0  0  0  0  0
  161.0210  206.0460  152.3330 C   0  0  0  0  0  0  0  0  0  0  0  0
  162.0720  210.3850  153.2850 C   0  0  0  0  0  2  0  0  0  0  0  0
  160.8730  211.3050  153.1450 C   0  0  0  0  0  2  0  0  0  0  0  0
  160.5860  210.6450  156.5690 N   0  0  0  0  0  2  0  0  0  0  0  0
  159.1580  210.9940  154.6960 C   0  0  0  0  0  2  0  0  0  0  0  0
  160.4010  211.7030  154.4610 N   0  0  0  0  0  0  0  0  0  0  0  0
  159.2860  210.2960  156.0290 C   0  0  0  0  0  2  0  0  0  0  0  0
  161.3360  211.1610  155.4370 C   0  0  0  0  0  2  0  0  0  0  0  0
  1 27  1  0  0  0  0
  1 26  2  0  0  0  0
  2 14  1  0  0  0  0
  3 19  1  0  0  0  0
  4 18  1  0  0  0  0
  4 23  1  0  0  0  0
  5 11  2  0  0  0  0
  5 15  1  0  0  0  0
  7  3  2  0  0  0  0
  8 12  1  0  0  0  0
  9 27  2  0  0  0  0
  9 25  1  0  0  0  0
 10 17  1  0  0  0  0
 11 20  1  0  0  0  0
 12 15  1  0  0  0  0
 13  9  1  0  0  0  0
 15  4  2  0  0  0  0
 16  3  1  0  0  0  0
 16  8  1  0  0  0  0
 17 25  1  0  0  0  0
 17 28  1  0  0  0  0
 18 20  1  6  0  0  0
 18  1  1  0  0  0  0
 19  6  1  6  0  0  0
 19  5  1  0  0  0  0
 20 13  2  0  0  0  0
 21 26  1  0  0  0  0
 22 10  1  0  0  0  0
 23 21  2  0  0  0  0
 24 22  1  0  0  0  0
 24 13  1  0  0  0  0
 25 14  1  1  0  0  0
 27  2  1  0  0  0  0
 29 28  1  0  0  0  0
 29 32  1  0  0  0  0
 31 33  1  0  0  0  0
 32 31  1  0  0  0  0
 32 34  1  0  0  0  0
 33 30  1  0  0  0  0
 34 30  1  0  0  0  0
M  END
>  <MODEL>
3

>  <REMARK>
 VINA RESULT:     -10.3      1.035      1.249
  Name = 
  3 active torsions:
  status: ('A' for Active; 'I' for Inactive)
    1  A    between atoms: N_17  and  C_28
    2  A    between atoms: C_28  and  C_29
    3  A    between atoms: C_29  and  N_32
                            x       y       z     vdW  Elec       q    Type
                         _______ _______ _______ _____ _____    ______ ____

>  <TORSDO>
F 3

$$$$
=
 OpenBabel11122414383D

 34 40  0  0  1  0  0  0  0  0999 V2000
  161.6250  208.2740  149.6220 C   0  0  0  0  0  0  0  0  0  0  0  0
  161.5230  206.9200  147.4450 C   0  0  0  0  0  2  0  0  0  0  0  0
  160.2840  209.2320  156.0050 C   0  0  0  0  0  0  0  0  0  0  0  0
  161.6050  209.4440  151.7770 C   0  0  0  0  0  0  0  0  0  0  0  0
  161.0740  208.2120  153.8340 C   0  0  0  0  0  0  0  0  0  0  0  0
  160.4220  206.7400  155.8430 C   0  0  0  0  0  1  0  0  0  0  0  0
  159.0830  209.2040  156.2280 O   0  0  0  0  0  0  0  0  0  0  0  0
  162.1520  210.7030  155.2860 C   0  0  0  0  0  2  0  0  0  0  0  0
  161.1370  205.9020  149.5500 C   0  0  0  0  0  0  0  0  0  0  0  0
  160.8310  202.9160  149.9580 C   0  0  0  0  0  2  0  0  0  0  0  0
  160.9480  207.0470  153.0630 C   0  0  0  0  0  3  0  0  0  0  0  0
  161.5230  210.7670  153.9010 C   0  0  0  0  0  2  0  0  0  0  0  0
  160.9770  205.8570  150.9480 C   0  0  0  0  0  0  0  0  0  0  0  0
  161.3180  205.4220  147.2270 C   0  0  0  0  0  2  0  0  0  0  0  0
  161.4320  209.4320  153.1820 C   0  0  0  0  0  0  0  0  0  0  0  0
  161.0730  210.4580  156.3350 C   0  0  0  0  0  2  0  0  0  0  0  0
  161.5800  203.5820  148.9020 N   0  0  0  0  0  0  0  0  0  0  0  0
  161.4500  208.2620  151.0250 C   0  0  0  0  0  0  0  0  0  0  0  0
  160.9760  208.0750  155.3470 C   0  0  2  0  0  3  0  0  0  0  0  0
  161.1170  207.0520  151.6800 C   0  0  0  0  0  0  0  0  0  0  0  0
  162.1200  210.7470  149.7580 C   0  0  0  0  0  3  0  0  0  0  0  0
  161.2810  203.4180  151.3140 C   0  0  0  0  0  2  0  0  0  0  0  0
  161.9560  210.6990  151.0780 C   0  0  0  0  0  3  0  0  0  0  0  0
  160.6770  204.6680  151.6260 O   0  0  0  0  0  0  0  0  0  0  0  0
  160.8530  204.8130  148.5670 C   0  0  1  0  0  3  0  0  0  0  0  0
  161.9560  209.5430  148.8740 C   0  0  0  0  0  3  0  0  0  0  0  0
  161.4560  207.0790  148.9150 C   0  0  2  0  0  3  0  0  0  0  0  0
  161.5270  202.6600  147.7720 C   0  0  0  0  0  2  0  0  0  0  0  0
  161.5630  201.2290  148.2760 C   0  0  0  0  0  2  0  0  0  0  0  0
  161.1250  199.3220  145.3760 N   0  0  0  0  0  2  0  0  0  0  0  0
  160.1690  201.2440  146.4060 C   0  0  0  0  0  2  0  0  0  0  0  0
  160.7140  200.3920  147.4460 N   0  0  0  0  0  0  0  0  0  0  0  0
  160.4560  200.5740  145.0830 C   0  0  0  0  0  2  0  0  0  0  0  0
  161.5810  199.4530  146.7490 C   0  0  0  0  0  2  0  0  0  0  0  0
  1 18  1  0  0  0  0
  3  7  2  0  0  0  0
  3 16  1  0  0  0  0
  4 15  2  0  0  0  0
  5 19  1  0  0  0  0
  8 16  1  0  0  0  0
  9 13  2  0  0  0  0
 10 22  1  0  0  0  0
 11  5  2  0  0  0  0
 12  8  1  0  0  0  0
 13 24  1  0  0  0  0
 13 20  1  0  0  0  0
 14  2  1  0  0  0  0
 15  5  1  0  0  0  0
 15 12  1  0  0  0  0
 17 10  1  0  0  0  0
 18 20  2  0  0  0  0
 18  4  1  0  0  0  0
 19  6  1  6  0  0  0
 19  3  1  0  0  0  0
 20 11  1  0  0  0  0
 21 23  2  0  0  0  0
 22 24  1  0  0  0  0
 23  4  1  0  0  0  0
 25 14  1  6  0  0  0
 25 17  1  0  0  0  0
 25  9  1  0  0  0  0
 26  1  2  0  0  0  0
 26 21  1  0  0  0  0
 27  2  1  6  0  0  0
 27  9  1  0  0  0  0
 27  1  1  0  0  0  0
 28 29  1  0  0  0  0
 28 17  1  0  0  0  0
 30 34  1  0  0  0  0
 31 32  1  0  0  0  0
 32 29  1  0  0  0  0
 33 30  1  0  0  0  0
 33 31  1  0  0  0  0
 34 32  1  0  0  0  0
M  END
>  <MODEL>
4

>  <REMARK>
 VINA RESULT:      -8.9      3.331      9.311
  Name = 
  3 active torsions:
  status: ('A' for Active; 'I' for Inactive)
    1  A    between atoms: N_17  and  C_28
    2  A    between atoms: C_28  and  C_29
    3  A    between atoms: C_29  and  N_32
                            x       y       z     vdW  Elec       q    Type
                         _______ _______ _______ _____ _____    ______ ____

>  <TORSDO>
F 3

$$$$
=
 OpenBabel11122414383D

 34 40  0  0  1  0  0  0  0  0999 V2000
  161.7540  207.3650  149.2800 C   0  0  0  0  0  0  0  0  0  0  0  0
  162.1530  209.4390  150.7360 C   0  0  0  0  0  2  0  0  0  0  0  0
  161.3440  200.8540  148.3280 C   0  0  0  0  0  0  0  0  0  0  0  0
  161.4280  205.2780  148.0330 C   0  0  0  0  0  0  0  0  0  0  0  0
  161.0010  203.1840  149.2420 C   0  0  0  0  0  0  0  0  0  0  0  0
  160.6410  201.1030  150.7150 C   0  0  0  0  0  1  0  0  0  0  0  0
  162.3780  200.2820  148.6360 O   0  0  0  0  0  0  0  0  0  0  0  0
  160.2000  202.0690  146.4860 C   0  0  0  0  0  2  0  0  0  0  0  0
  161.6330  207.3370  151.7000 C   0  0  0  0  0  0  0  0  0  0  0  0
  161.0490  206.9200  154.6430 C   0  0  0  0  0  2  0  0  0  0  0  0
  161.0550  203.9060  150.4430 C   0  0  0  0  0  3  0  0  0  0  0  0
  161.2060  203.2000  146.6560 C   0  0  0  0  0  2  0  0  0  0  0  0
  161.3560  205.9570  151.7050 C   0  0  0  0  0  0  0  0  0  0  0  0
  162.0320  209.6170  152.2490 C   0  0  0  0  0  2  0  0  0  0  0  0
  161.1690  203.8870  148.0100 C   0  0  0  0  0  0  0  0  0  0  0  0
  160.8240  200.7500  146.9300 C   0  0  0  0  0  2  0  0  0  0  0  0
  160.8360  208.1380  153.8740 N   0  0  0  0  0  0  0  0  0  0  0  0
  161.4970  205.9740  149.2570 C   0  0  0  0  0  0  0  0  0  0  0  0
  160.6110  201.7140  149.3150 C   0  0  2  0  0  3  0  0  0  0  0  0
  161.3090  205.2750  150.4730 C   0  0  0  0  0  0  0  0  0  0  0  0
  161.8750  207.3310  146.7580 C   0  0  0  0  0  3  0  0  0  0  0  0
  160.3580  205.7510  153.9720 C   0  0  0  0  0  2  0  0  0  0  0  0
  161.6230  206.0240  146.7720 C   0  0  0  0  0  3  0  0  0  0  0  0
  161.1350  205.2460  152.8920 O   0  0  0  0  0  0  0  0  0  0  0  0
  161.9130  208.2130  152.8780 C   0  0  1  0  0  3  0  0  0  0  0  0
  161.9860  208.1500  148.0130 C   0  0  0  0  0  2  0  0  0  0  0  0
  161.8210  208.0140  150.5170 C   0  0  0  0  0  0  0  0  0  0  0  0
  160.9890  209.2190  154.8410 C   0  0  0  0  0  2  0  0  0  0  0  0
  159.7050  209.3810  155.6350 C   0  0  0  0  0  2  0  0  0  0  0  0
  158.1210  212.3560  154.6990 N   0  0  0  0  0  2  0  0  0  0  0  0
  160.3350  211.5360  155.0010 C   0  0  0  0  0  2  0  0  0  0  0  0
  159.4490  210.7910  155.8750 N   0  0  0  0  0  0  0  0  0  0  0  0
  159.4830  212.5160  154.2300 C   0  0  0  0  0  2  0  0  0  0  0  0
  158.1080  211.0760  155.3860 C   0  0  0  0  0  2  0  0  0  0  0  0
  1 27  2  0  0  0  0
  2 14  1  0  0  0  0
  3  7  2  0  0  0  0
  3 19  1  0  0  0  0
  4 18  2  0  0  0  0
  5 19  1  0  0  0  0
  5 11  1  0  0  0  0
  8 12  1  0  0  0  0
  8 16  1  0  0  0  0
  9 13  2  0  0  0  0
  9 25  1  0  0  0  0
 11 20  2  0  0  0  0
 12 15  1  0  0  0  0
 13 24  1  0  0  0  0
 15  4  1  0  0  0  0
 15  5  2  0  0  0  0
 16  3  1  0  0  0  0
 17 10  1  0  0  0  0
 17 28  1  0  0  0  0
 18  1  1  0  0  0  0
 18 20  1  0  0  0  0
 19  6  1  1  0  0  0
 20 13  1  0  0  0  0
 21 23  2  0  0  0  0
 21 26  1  0  0  0  0
 22 10  1  0  0  0  0
 23  4  1  0  0  0  0
 24 22  1  0  0  0  0
 25 14  1  6  0  0  0
 25 17  1  0  0  0  0
 26  1  1  0  0  0  0
 27  2  1  0  0  0  0
 27  9  1  0  0  0  0
 28 29  1  0  0  0  0
 29 32  1  0  0  0  0
 30 34  1  0  0  0  0
 31 32  1  0  0  0  0
 33 30  1  0  0  0  0
 33 31  1  0  0  0  0
 34 32  1  0  0  0  0
M  END
>  <MODEL>
5

>  <REMARK>
 VINA RESULT:      -8.7      1.856      3.913
  Name = 
  3 active torsions:
  status: ('A' for Active; 'I' for Inactive)
    1  A    between atoms: N_17  and  C_28
    2  A    between atoms: C_28  and  C_29
    3  A    between atoms: C_29  and  N_32
                            x       y       z     vdW  Elec       q    Type
                         _______ _______ _______ _____ _____    ______ ____

>  <TORSDO>
F 3

$$$$
