=
 OpenBabel11122412413D

 30 35  0  0  1  0  0  0  0  0999 V2000
  161.2980  206.3470  150.4340 C   0  0  0  0  0  0  0  0  0  0  0  0
  161.1120  203.8120  150.3920 C   0  0  0  0  0  0  0  0  0  0  0  0
  160.6680  206.4040  154.5770 N   0  0  0  0  0  2  0  0  0  0  0  0
  161.2580  207.5600  151.1970 C   0  0  0  0  0  0  0  0  0  0  0  0
  161.5570  206.4420  149.0620 C   0  0  0  0  0  3  0  0  0  0  0  0
  162.0600  210.0540  148.5580 O   0  0  0  0  0  1  0  0  0  0  0  0
  160.3110  210.4500  152.0020 C   0  0  1  0  0  3  0  0  0  0  0  0
  161.7990  208.8380  149.1860 C   0  0  0  0  0  0  0  0  0  0  0  0
  159.9890  209.6930  153.2830 C   0  0  2  0  0  3  0  0  0  0  0  0
  160.7170  207.8410  154.8420 C   0  0  1  0  0  3  0  0  0  0  0  0
  161.7970  207.6600  148.4360 C   0  0  0  0  0  0  0  0  0  0  0  0
  161.5430  208.7990  150.5660 C   0  0  0  0  0  0  0  0  0  0  0  0
  160.9430  202.6250  151.1110 C   0  0  0  0  0  3  0  0  0  0  0  0
  160.1560  210.7300  154.3740 C   0  0  0  0  0  2  0  0  0  0  0  0
  160.2940  211.9190  152.3830 C   0  0  0  0  0  2  0  0  0  0  0  0
  161.3120  203.5870  148.6550 Cl  0  0  0  0  0  0  0  0  0  0  0  0
  160.8510  206.2520  153.1820 C   0  0  0  0  0  0  0  0  0  0  0  0
  160.7580  202.6370  152.4890 C   0  0  0  0  0  3  0  0  0  0  0  0
  161.1000  205.0730  151.0720 C   0  0  0  0  0  0  0  0  0  0  0  0
  160.9730  207.4580  152.5710 C   0  0  0  0  0  0  0  0  0  0  0  0
  161.9490  208.1570  155.6710 C   0  0  0  0  0  1  0  0  0  0  0  0
  160.8160  208.5070  153.5330 N   0  0  0  0  0  0  0  0  0  0  0  0
  159.8840  212.0280  153.7780 N   0  0  0  0  0  2  0  0  0  0  0  0
  162.8660  210.1780  152.2080 C   0  0  0  0  0  1  0  0  0  0  0  0
  160.7340  203.8460  153.1720 C   0  0  0  0  0  3  0  0  0  0  0  0
  160.8970  205.0510  152.4830 C   0  0  0  0  0  0  0  0  0  0  0  0
  161.6290  210.0940  151.3190 C   0  0  2  0  0  3  0  0  0  0  0  0
  162.0450  207.6830  146.9650 C   0  0  0  0  0  2  0  0  0  0  0  0
  160.5810  206.3470  145.6520 O   0  0  0  0  0  1  0  0  0  0  0  0
  161.7760  206.3140  146.3680 C   0  0  0  0  0  2  0  0  0  0  0  0
  1 19  1  0  0  0  0
  1  4  1  0  0  0  0
  2 19  2  0  0  0  0
  2 13  1  0  0  0  0
  3 10  1  0  0  0  0
  4 20  1  0  0  0  0
  5  1  2  0  0  0  0
  6  8  1  0  0  0  0
  7 15  1  1  0  0  0
  7  9  1  0  0  0  0
  8 12  1  0  0  0  0
  9 22  1  0  0  0  0
  9 14  1  1  0  0  0
 10 21  1  1  0  0  0
 11  5  1  0  0  0  0
 11  8  2  0  0  0  0
 12  4  2  0  0  0  0
 12 27  1  0  0  0  0
 13 18  2  0  0  0  0
 15 23  1  0  0  0  0
 16  2  1  0  0  0  0
 17  3  1  0  0  0  0
 18 25  1  0  0  0  0
 19 26  1  0  0  0  0
 20 17  2  0  0  0  0
 20 22  1  0  0  0  0
 22 10  1  0  0  0  0
 23 14  1  0  0  0  0
 26 25  2  0  0  0  0
 26 17  1  0  0  0  0
 27  7  1  0  0  0  0
 27 24  1  1  0  0  0
 28 11  1  0  0  0  0
 29 30  1  0  0  0  0
 30 28  1  0  0  0  0
M  END
>  <MODEL>
1

>  <REMARK>
 VINA RESULT:      -7.0      0.000      0.000
  Name = 
  2 active torsions:
  status: ('A' for Active; 'I' for Inactive)
    1  A    between atoms: C_11  and  C_28
    2  A    between atoms: C_28  and  C_30
                            x       y       z     vdW  Elec       q    Type
                         _______ _______ _______ _____ _____    ______ ____

>  <TORSDO>
F 2

$$$$
=
 OpenBabel11122412413D

 30 35  0  0  1  0  0  0  0  0999 V2000
  161.3530  207.6440  151.1150 C   0  0  0  0  0  0  0  0  0  0  0  0
  161.3870  205.2740  150.1990 C   0  0  0  0  0  0  0  0  0  0  0  0
  160.5070  206.2290  154.9680 N   0  0  0  0  0  2  0  0  0  0  0  0
  161.1700  208.5140  152.2400 C   0  0  0  0  0  0  0  0  0  0  0  0
  161.6740  208.2230  149.8820 C   0  0  0  0  0  3  0  0  0  0  0  0
  161.8920  211.8110  150.6770 O   0  0  0  0  0  1  0  0  0  0  0  0
  159.9390  210.8840  153.9030 C   0  0  1  0  0  3  0  0  0  0  0  0
  161.7030  210.4390  150.8320 C   0  0  0  0  0  0  0  0  0  0  0  0
  159.6170  209.7140  154.8210 C   0  0  2  0  0  3  0  0  0  0  0  0
  160.4190  207.4870  155.7090 C   0  0  1  0  0  3  0  0  0  0  0  0
  161.8410  209.5940  149.7280 C   0  0  0  0  0  0  0  0  0  0  0  0
  161.3810  209.9110  152.0910 C   0  0  0  0  0  0  0  0  0  0  0  0
  161.2830  203.9030  150.4560 C   0  0  0  0  0  3  0  0  0  0  0  0
  159.6380  210.3190  156.2090 C   0  0  0  0  0  2  0  0  0  0  0  0
  159.7770  212.1280  154.7580 C   0  0  0  0  0  2  0  0  0  0  0  0
  161.6950  205.6740  148.5110 Cl  0  0  0  0  0  0  0  0  0  0  0  0
  160.7740  206.5790  153.6230 C   0  0  0  0  0  0  0  0  0  0  0  0
  161.0270  203.4270  151.7380 C   0  0  0  0  0  3  0  0  0  0  0  0
  161.2320  206.2190  151.2640 C   0  0  0  0  0  0  0  0  0  0  0  0
  160.8240  207.9270  153.4710 C   0  0  0  0  0  0  0  0  0  0  0  0
  161.5750  207.5730  156.6900 C   0  0  0  0  0  1  0  0  0  0  0  0
  160.5290  208.5680  154.7160 N   0  0  0  0  0  0  0  0  0  0  0  0
  159.2870  211.7230  156.0710 N   0  0  0  0  0  2  0  0  0  0  0  0
  162.4940  210.7180  154.2030 C   0  0  0  0  0  1  0  0  0  0  0  0
  160.8630  204.3220  152.7870 C   0  0  0  0  0  3  0  0  0  0  0  0
  160.9590  205.6990  152.5640 C   0  0  0  0  0  0  0  0  0  0  0  0
  161.3160  210.8690  153.2450 C   0  0  2  0  0  3  0  0  0  0  0  0
  162.1620  210.1390  148.3770 C   0  0  0  0  0  2  0  0  0  0  0  0
  161.9050  212.3040  147.4300 O   0  0  0  0  0  1  0  0  0  0  0  0
  161.2000  211.2590  148.0230 C   0  0  0  0  0  2  0  0  0  0  0  0
  1 19  2  0  0  0  0
  1  4  1  0  0  0  0
  2 13  2  0  0  0  0
  2 19  1  0  0  0  0
  3 10  1  0  0  0  0
  4 20  2  0  0  0  0
  5  1  1  0  0  0  0
  6  8  1  0  0  0  0
  7 15  1  1  0  0  0
  7  9  1  0  0  0  0
  8 12  2  0  0  0  0
  9 14  1  1  0  0  0
 10 21  1  1  0  0  0
 11  5  2  0  0  0  0
 11  8  1  0  0  0  0
 12  4  1  0  0  0  0
 12 27  1  0  0  0  0
 13 18  1  0  0  0  0
 15 23  1  0  0  0  0
 16  2  1  0  0  0  0
 17  3  1  0  0  0  0
 18 25  2  0  0  0  0
 19 26  1  0  0  0  0
 20 17  1  0  0  0  0
 20 22  1  0  0  0  0
 22  9  1  0  0  0  0
 22 10  1  0  0  0  0
 23 14  1  0  0  0  0
 26 25  1  0  0  0  0
 26 17  2  0  0  0  0
 27  7  1  0  0  0  0
 27 24  1  1  0  0  0
 28 11  1  0  0  0  0
 29 30  1  0  0  0  0
 30 28  1  0  0  0  0
M  END
>  <MODEL>
2

>  <REMARK>
 VINA RESULT:      -6.2      1.890      2.270
  Name = 
  2 active torsions:
  status: ('A' for Active; 'I' for Inactive)
    1  A    between atoms: C_11  and  C_28
    2  A    between atoms: C_28  and  C_30
                            x       y       z     vdW  Elec       q    Type
                         _______ _______ _______ _____ _____    ______ ____

>  <TORSDO>
F 2

$$$$
=
 OpenBabel11122412413D

 30 35  0  0  1  0  0  0  0  0999 V2000
  161.3500  207.8570  151.4370 C   0  0  0  0  0  0  0  0  0  0  0  0
  161.5770  210.3460  150.9750 C   0  0  0  0  0  0  0  0  0  0  0  0
  162.0630  206.9630  147.4050 N   0  0  0  0  0  2  0  0  0  0  0  0
  161.3560  206.5170  150.9270 C   0  0  0  0  0  0  0  0  0  0  0  0
  161.1430  208.0370  152.8090 C   0  0  0  0  0  3  0  0  0  0  0  0
  160.8630  204.5890  154.0690 O   0  0  0  0  0  1  0  0  0  0  0  0
  160.2540  203.6260  150.3570 C   0  0  1  0  0  3  0  0  0  0  0  0
  161.0170  205.6590  153.1900 C   0  0  0  0  0  0  0  0  0  0  0  0
  160.4810  204.1140  148.9340 C   0  0  2  0  0  3  0  0  0  0  0  0
  161.9580  205.5050  147.4240 C   0  0  1  0  0  3  0  0  0  0  0  0
  160.9700  206.9670  153.6790 C   0  0  0  0  0  0  0  0  0  0  0  0
  161.2210  205.4220  151.8220 C   0  0  0  0  0  0  0  0  0  0  0  0
  161.8410  211.3590  150.0490 C   0  0  0  0  0  3  0  0  0  0  0  0
  160.8130  202.8540  148.1620 C   0  0  0  0  0  2  0  0  0  0  0  0
  160.1180  202.1170  150.2520 C   0  0  0  0  0  2  0  0  0  0  0  0
  161.2520  210.9220  152.6090 Cl  0  0  0  0  0  0  0  0  0  0  0  0
  161.8180  207.3960  148.7300 C   0  0  0  0  0  0  0  0  0  0  0  0
  162.1020  211.0670  148.7150 C   0  0  0  0  0  3  0  0  0  0  0  0
  161.5750  208.9750  150.5600 C   0  0  0  0  0  0  0  0  0  0  0  0
  161.5410  206.3450  149.5430 C   0  0  0  0  0  0  0  0  0  0  0  0
  163.3200  204.8990  147.1350 C   0  0  0  0  0  1  0  0  0  0  0  0
  161.5280  205.1320  148.7820 N   0  0  0  0  0  0  0  0  0  0  0  0
  160.1590  201.7480  148.8430 N   0  0  0  0  0  2  0  0  0  0  0  0
  162.7510  203.5990  150.9950 C   0  0  0  0  0  1  0  0  0  0  0  0
  162.0980  209.7470  148.2840 C   0  0  0  0  0  3  0  0  0  0  0  0
  161.8350  208.7100  149.1840 C   0  0  0  0  0  0  0  0  0  0  0  0
  161.3270  203.9930  151.3780 C   0  0  2  0  0  3  0  0  0  0  0  0
  160.7330  207.2390  155.1270 C   0  0  0  0  0  2  0  0  0  0  0  0
  162.0090  208.5600  156.6360 O   0  0  0  0  0  1  0  0  0  0  0  0
  161.2270  208.6290  155.4850 C   0  0  0  0  0  2  0  0  0  0  0  0
  1  5  2  0  0  0  0
  2 16  1  0  0  0  0
  3 10  1  0  0  0  0
  3 17  1  0  0  0  0
  4  1  1  0  0  0  0
  4 12  2  0  0  0  0
  5 11  1  0  0  0  0
  7 15  1  6  0  0  0
  7 27  1  0  0  0  0
  8 11  2  0  0  0  0
  8  6  1  0  0  0  0
  9 14  1  6  0  0  0
  9  7  1  0  0  0  0
 10 21  1  1  0  0  0
 10 22  1  0  0  0  0
 11 28  1  0  0  0  0
 12  8  1  0  0  0  0
 13  2  2  0  0  0  0
 14 23  1  0  0  0  0
 17 26  1  0  0  0  0
 17 20  2  0  0  0  0
 18 13  1  0  0  0  0
 19  2  1  0  0  0  0
 19  1  1  0  0  0  0
 20  4  1  0  0  0  0
 22  9  1  0  0  0  0
 22 20  1  0  0  0  0
 23 15  1  0  0  0  0
 25 18  2  0  0  0  0
 25 26  1  0  0  0  0
 26 19  2  0  0  0  0
 27 24  1  6  0  0  0
 27 12  1  0  0  0  0
 28 30  1  0  0  0  0
 30 29  1  0  0  0  0
M  END
>  <MODEL>
3

>  <REMARK>
 VINA RESULT:      -5.9      3.598      7.297
  Name = 
  2 active torsions:
  status: ('A' for Active; 'I' for Inactive)
    1  A    between atoms: C_11  and  C_28
    2  A    between atoms: C_28  and  C_30
                            x       y       z     vdW  Elec       q    Type
                         _______ _______ _______ _____ _____    ______ ____

>  <TORSDO>
F 2

$$$$
=
 OpenBabel11122412413D

 30 35  0  0  1  0  0  0  0  0999 V2000
  160.7110  210.4910  151.7730 C   0  0  0  0  0  0  0  0  0  0  0  0
  161.9240  208.6050  150.5770 C   0  0  0  0  0  0  0  0  0  0  0  0
  160.3380  208.1600  155.2370 N   0  0  0  0  0  2  0  0  0  0  0  0
  160.0540  210.9590  152.9590 C   0  0  0  0  0  0  0  0  0  0  0  0
  160.8150  211.3690  150.6900 C   0  0  0  0  0  3  0  0  0  0  0  0
  159.2590  214.4530  151.9620 O   0  0  0  0  0  1  0  0  0  0  0  0
  157.7310  212.1660  154.7040 C   0  0  1  0  0  3  0  0  0  0  0  0
  159.7260  213.1410  151.9090 C   0  0  0  0  0  0  0  0  0  0  0  0
  157.9280  210.8290  155.4030 C   0  0  2  0  0  3  0  0  0  0  0  0
  159.6130  209.0810  156.1110 C   0  0  1  0  0  3  0  0  0  0  0  0
  160.3280  212.6700  150.7410 C   0  0  0  0  0  0  0  0  0  0  0  0
  159.5950  212.3010  153.0260 C   0  0  0  0  0  0  0  0  0  0  0  0
  162.4580  207.3140  150.6370 C   0  0  0  0  0  3  0  0  0  0  0  0
  157.5560  211.1090  156.8440 C   0  0  0  0  0  2  0  0  0  0  0  0
  156.9380  213.0200  155.6770 C   0  0  0  0  0  2  0  0  0  0  0  0
  162.1360  209.4070  149.0220 Cl  0  0  0  0  0  0  0  0  0  0  0  0
  160.5110  208.8350  154.0050 C   0  0  0  0  0  0  0  0  0  0  0  0
  162.3590  206.5460  151.7920 C   0  0  0  0  0  3  0  0  0  0  0  0
  161.2620  209.1640  151.7180 C   0  0  0  0  0  0  0  0  0  0  0  0
  159.9320  210.0630  154.0370 C   0  0  0  0  0  0  0  0  0  0  0  0
  160.5130  209.4960  157.2600 C   0  0  0  0  0  1  0  0  0  0  0  0
  159.2760  210.2590  155.2940 N   0  0  0  0  0  0  0  0  0  0  0  0
  156.5980  212.2030  156.8350 N   0  0  0  0  0  2  0  0  0  0  0  0
  160.0320  213.1170  155.3690 C   0  0  0  0  0  1  0  0  0  0  0  0
  161.7140  207.0600  152.9090 C   0  0  0  0  0  3  0  0  0  0  0  0
  161.1680  208.3460  152.8820 C   0  0  0  0  0  0  0  0  0  0  0  0
  158.9990  212.8950  154.2690 C   0  0  2  0  0  3  0  0  0  0  0  0
  160.4570  213.5410  149.5350 C   0  0  0  0  0  2  0  0  0  0  0  0
  160.9510  212.6100  147.4050 O   0  0  0  0  0  1  0  0  0  0  0  0
  161.5310  212.9980  148.6110 C   0  0  0  0  0  2  0  0  0  0  0  0
  1  4  1  0  0  0  0
  2 13  2  0  0  0  0
  2 19  1  0  0  0  0
  3 10  1  0  0  0  0
  4 12  1  0  0  0  0
  4 20  2  0  0  0  0
  5 11  2  0  0  0  0
  5  1  1  0  0  0  0
  7  9  1  0  0  0  0
  7 15  1  1  0  0  0
  8  6  1  0  0  0  0
  8 12  2  0  0  0  0
  9 14  1  1  0  0  0
 10 21  1  1  0  0  0
 11  8  1  0  0  0  0
 12 27  1  0  0  0  0
 13 18  1  0  0  0  0
 15 23  1  0  0  0  0
 16  2  1  0  0  0  0
 17 20  1  0  0  0  0
 17  3  1  0  0  0  0
 18 25  2  0  0  0  0
 19  1  2  0  0  0  0
 19 26  1  0  0  0  0
 20 22  1  0  0  0  0
 22  9  1  0  0  0  0
 22 10  1  0  0  0  0
 23 14  1  0  0  0  0
 26 25  1  0  0  0  0
 26 17  2  0  0  0  0
 27  7  1  0  0  0  0
 27 24  1  1  0  0  0
 28 11  1  0  0  0  0
 29 30  1  0  0  0  0
 30 28  1  0  0  0  0
M  END
>  <MODEL>
4

>  <REMARK>
 VINA RESULT:      -5.8      2.785      4.608
  Name = 
  2 active torsions:
  status: ('A' for Active; 'I' for Inactive)
    1  A    between atoms: C_11  and  C_28
    2  A    between atoms: C_28  and  C_30
                            x       y       z     vdW  Elec       q    Type
                         _______ _______ _______ _____ _____    ______ ____

>  <TORSDO>
F 2

$$$$
=
 OpenBabel11122412413D

 30 35  0  0  1  0  0  0  0  0999 V2000
  161.1960  208.9070  151.9580 C   0  0  0  0  0  0  0  0  0  0  0  0
  162.0790  208.8290  149.5760 C   0  0  0  0  0  0  0  0  0  0  0  0
  160.2330  212.9660  151.5550 N   0  0  0  0  0  2  0  0  0  0  0  0
  160.6180  209.6780  153.0200 C   0  0  0  0  0  0  0  0  0  0  0  0
  161.4380  207.5480  152.1890 C   0  0  0  0  0  3  0  0  0  0  0  0
  160.1740  207.0460  155.6110 O   0  0  0  0  0  1  0  0  0  0  0  0
  160.3670  210.9140  155.9020 C   0  0  1  0  0  3  0  0  0  0  0  0
  160.5150  207.6730  154.4140 C   0  0  0  0  0  0  0  0  0  0  0  0
  160.3970  212.1840  155.0650 C   0  0  2  0  0  3  0  0  0  0  0  0
  159.6950  213.2540  152.8840 C   0  0  1  0  0  3  0  0  0  0  0  0
  161.1150  206.9320  153.3930 C   0  0  0  0  0  0  0  0  0  0  0  0
  160.2510  209.0400  154.2340 C   0  0  0  0  0  0  0  0  0  0  0  0
  162.2960  209.5050  148.3710 C   0  0  0  0  0  3  0  0  0  0  0  0
  159.5650  213.1680  155.8590 C   0  0  0  0  0  2  0  0  0  0  0  0
  159.8370  211.3360  157.2610 C   0  0  0  0  0  2  0  0  0  0  0  0
  162.5950  207.1440  149.5680 Cl  0  0  0  0  0  0  0  0  0  0  0  0
  160.6200  211.6040  151.5700 C   0  0  0  0  0  0  0  0  0  0  0  0
  161.9560  210.8450  148.2240 C   0  0  0  0  0  3  0  0  0  0  0  0
  161.4930  209.5150  150.6890 C   0  0  0  0  0  0  0  0  0  0  0  0
  160.4000  211.0490  152.7890 C   0  0  0  0  0  0  0  0  0  0  0  0
  158.2100  213.5500  152.7710 C   0  0  0  0  0  1  0  0  0  0  0  0
  159.8990  212.0400  153.6920 N   0  0  0  0  0  0  0  0  0  0  0  0
  159.6630  212.7830  157.2580 N   0  0  0  0  0  2  0  0  0  0  0  0
  158.0950  210.0950  155.0010 C   0  0  0  0  0  1  0  0  0  0  0  0
  161.3950  211.5350  149.2900 C   0  0  0  0  0  3  0  0  0  0  0  0
  161.1660  210.8910  150.5090 C   0  0  0  0  0  0  0  0  0  0  0  0
  159.5420  209.7560  155.3460 C   0  0  2  0  0  3  0  0  0  0  0  0
  161.4240  205.4830  153.5730 C   0  0  0  0  0  2  0  0  0  0  0  0
  160.8250  203.7110  152.1060 O   0  0  0  0  0  1  0  0  0  0  0  0
  161.6520  204.8270  152.2240 C   0  0  0  0  0  2  0  0  0  0  0  0
  1  5  2  0  0  0  0
  1  4  1  0  0  0  0
  2 19  1  0  0  0  0
  3 17  1  0  0  0  0
  3 10  1  0  0  0  0
  4 12  2  0  0  0  0
  5 11  1  0  0  0  0
  7 15  1  1  0  0  0
  8  6  1  0  0  0  0
  9 14  1  1  0  0  0
  9  7  1  0  0  0  0
 10 21  1  6  0  0  0
 10 22  1  0  0  0  0
 11 28  1  0  0  0  0
 11  8  2  0  0  0  0
 12  8  1  0  0  0  0
 12 27  1  0  0  0  0
 13  2  2  0  0  0  0
 14 23  1  0  0  0  0
 16  2  1  0  0  0  0
 17 20  2  0  0  0  0
 18 13  1  0  0  0  0
 18 25  2  0  0  0  0
 19  1  1  0  0  0  0
 20  4  1  0  0  0  0
 20 22  1  0  0  0  0
 22  9  1  0  0  0  0
 23 15  1  0  0  0  0
 25 26  1  0  0  0  0
 26 19  2  0  0  0  0
 26 17  1  0  0  0  0
 27 24  1  6  0  0  0
 27  7  1  0  0  0  0
 29 30  1  0  0  0  0
 30 28  1  0  0  0  0
M  END
>  <MODEL>
5

>  <REMARK>
 VINA RESULT:      -5.1      2.809      5.573
  Name = 
  2 active torsions:
  status: ('A' for Active; 'I' for Inactive)
    1  A    between atoms: C_11  and  C_28
    2  A    between atoms: C_28  and  C_30
                            x       y       z     vdW  Elec       q    Type
                         _______ _______ _______ _____ _____    ______ ____

>  <TORSDO>
F 2

$$$$
=
 OpenBabel11122412413D

 30 35  0  0  1  0  0  0  0  0999 V2000
  161.5270  208.4970  151.4630 C   0  0  0  0  0  0  0  0  0  0  0  0
  161.4160  208.8310  153.9800 C   0  0  0  0  0  0  0  0  0  0  0  0
  160.9440  204.3700  151.9050 N   0  0  0  0  0  2  0  0  0  0  0  0
  161.4900  207.5930  150.3500 C   0  0  0  0  0  0  0  0  0  0  0  0
  161.6850  209.8610  151.1970 C   0  0  0  0  0  3  0  0  0  0  0  0
  161.7780  209.9870  147.5180 O   0  0  0  0  0  1  0  0  0  0  0  0
  162.5000  206.1770  147.7290 C   0  0  1  0  0  3  0  0  0  0  0  0
  161.7030  209.4830  148.8150 C   0  0  0  0  0  0  0  0  0  0  0  0
  162.3500  204.9730  148.6460 C   0  0  2  0  0  3  0  0  0  0  0  0
  160.9920  203.9350  150.5100 C   0  0  1  0  0  3  0  0  0  0  0  0
  161.7800  210.3570  149.9010 C   0  0  0  0  0  0  0  0  0  0  0  0
  161.5450  208.1040  149.0260 C   0  0  0  0  0  0  0  0  0  0  0  0
  161.2300  208.2610  155.2430 C   0  0  0  0  0  3  0  0  0  0  0  0
  162.0010  203.8370  147.7070 C   0  0  0  0  0  2  0  0  0  0  0  0
  162.5810  205.6100  146.3230 C   0  0  0  0  0  2  0  0  0  0  0  0
  161.6980  210.5700  154.0020 Cl  0  0  0  0  0  0  0  0  0  0  0  0
  161.1520  205.7700  151.8910 C   0  0  0  0  0  0  0  0  0  0  0  0
  161.0120  206.8960  155.3930 C   0  0  0  0  0  3  0  0  0  0  0  0
  161.3820  208.0080  152.8080 C   0  0  0  0  0  0  0  0  0  0  0  0
  161.3540  206.2200  150.6270 C   0  0  0  0  0  0  0  0  0  0  0  0
  159.6200  203.4350  150.0930 C   0  0  0  0  0  1  0  0  0  0  0  0
  161.3510  205.1190  149.7120 N   0  0  0  0  0  0  0  0  0  0  0  0
  162.5830  204.1550  146.4130 N   0  0  0  0  0  2  0  0  0  0  0  0
  159.9800  206.7090  147.6290 C   0  0  0  0  0  1  0  0  0  0  0  0
  160.9830  206.0740  154.2750 C   0  0  0  0  0  3  0  0  0  0  0  0
  161.1670  206.6110  152.9970 C   0  0  0  0  0  0  0  0  0  0  0  0
  161.4010  207.2330  147.8130 C   0  0  2  0  0  3  0  0  0  0  0  0
  161.9700  211.8230  149.6980 C   0  0  0  0  0  2  0  0  0  0  0  0
  160.4150  213.0460  148.3790 O   0  0  0  0  0  1  0  0  0  0  0  0
  160.6230  212.5230  149.6530 C   0  0  0  0  0  2  0  0  0  0  0  0
  1 19  1  0  0  0  0
  2 16  1  0  0  0  0
  2 13  1  0  0  0  0
  4 20  1  0  0  0  0
  4  1  2  0  0  0  0
  5  1  1  0  0  0  0
  6  8  1  0  0  0  0
  7 15  1  6  0  0  0
  7 27  1  0  0  0  0
  7  9  1  0  0  0  0
  8 12  2  0  0  0  0
  8 11  1  0  0  0  0
  9 14  1  6  0  0  0
  9 22  1  0  0  0  0
 10 21  1  6  0  0  0
 10  3  1  0  0  0  0
 11  5  2  0  0  0  0
 12  4  1  0  0  0  0
 13 18  2  0  0  0  0
 15 23  1  0  0  0  0
 17  3  1  0  0  0  0
 17 26  1  0  0  0  0
 19 26  1  0  0  0  0
 19  2  2  0  0  0  0
 20 17  2  0  0  0  0
 22 10  1  0  0  0  0
 22 20  1  0  0  0  0
 23 14  1  0  0  0  0
 25 18  1  0  0  0  0
 26 25  2  0  0  0  0
 27 24  1  1  0  0  0
 27 12  1  0  0  0  0
 28 11  1  0  0  0  0
 29 30  1  0  0  0  0
 30 28  1  0  0  0  0
M  END
>  <MODEL>
6

>  <REMARK>
 VINA RESULT:      -4.7      2.877      5.679
  Name = 
  2 active torsions:
  status: ('A' for Active; 'I' for Inactive)
    1  A    between atoms: C_11  and  C_28
    2  A    between atoms: C_28  and  C_30
                            x       y       z     vdW  Elec       q    Type
                         _______ _______ _______ _____ _____    ______ ____

>  <TORSDO>
F 2

$$$$
