=
 OpenBabel11122412363D

 30 35  0  0  1  0  0  0  0  0999 V2000
  161.3670  205.9180  150.1600 C   0  0  0  0  0  0  0  0  0  0  0  0
  161.0350  203.4290  149.9690 C   0  0  0  0  0  0  0  0  0  0  0  0
  161.0270  205.6860  154.3510 N   0  0  0  0  0  2  0  0  0  0  0  0
  161.4420  207.0840  150.9830 C   0  0  0  0  0  0  0  0  0  0  0  0
  161.5190  206.0660  148.7780 C   0  0  0  0  0  3  0  0  0  0  0  0
  161.9090  209.7910  148.3080 C   0  0  0  0  0  1  0  0  0  0  0  0
  160.3020  209.6960  152.1180 C   0  0  1  0  0  3  0  0  0  0  0  0
  161.7370  208.4610  148.9740 C   0  0  0  0  0  0  0  0  0  0  0  0
  160.5910  209.0150  153.3750 N   0  0  0  0  0  0  0  0  0  0  0  0
  161.2750  207.0460  154.6770 C   0  0  0  0  0  0  0  0  0  0  0  0
  161.7160  207.3110  148.1800 C   0  0  0  0  0  0  0  0  0  0  0  0
  161.5800  208.3680  150.3740 C   0  0  0  0  0  0  0  0  0  0  0  0
  160.8000  202.2040  150.5980 C   0  0  0  0  0  3  0  0  0  0  0  0
  160.3900  209.9380  154.4350 C   0  0  0  0  0  3  0  0  0  0  0  0
  159.9380  211.1270  152.5060 C   0  0  0  0  0  2  0  0  0  0  0  0
  161.1610  203.4230  148.5840 O   0  0  0  0  0  1  0  0  0  0  0  0
  161.1010  205.6640  152.9320 C   0  0  0  0  0  0  0  0  0  0  0  0
  160.6600  202.1270  151.9810 C   0  0  0  0  0  3  0  0  0  0  0  0
  161.1350  204.6260  150.7360 C   0  0  0  0  0  0  0  0  0  0  0  0
  161.3420  206.9060  152.3810 C   0  0  0  0  0  0  0  0  0  0  0  0
  161.3220  207.4560  155.8660 O   0  0  0  0  0  0  0  0  0  0  0  0
  161.5420  207.9090  153.4800 C   0  0  1  0  0  3  0  0  0  0  0  0
  160.0050  211.1200  153.9960 C   0  0  0  0  0  3  0  0  0  0  0  0
  162.8310  210.0690  151.7590 C   0  0  0  0  0  1  0  0  0  0  0  0
  160.7570  203.2810  152.7530 C   0  0  0  0  0  3  0  0  0  0  0  0
  160.9900  204.5210  152.1470 C   0  0  0  0  0  0  0  0  0  0  0  0
  161.4930  209.6620  151.1510 C   0  0  2  0  0  3  0  0  0  0  0  0
  161.8780  207.4220  146.7930 O   0  0  0  0  0  0  0  0  0  0  0  0
  160.4330  206.1800  145.3390 C   0  0  0  0  0  1  0  0  0  0  0  0
  161.8260  206.3030  145.9180 C   0  0  0  0  0  2  0  0  0  0  0  0
  1 19  2  0  0  0  0
  1  4  1  0  0  0  0
  2 13  2  0  0  0  0
  2 19  1  0  0  0  0
  3 10  1  0  0  0  0
  4 20  2  0  0  0  0
  5  1  1  0  0  0  0
  6  8  1  0  0  0  0
  7 15  1  1  0  0  0
  7  9  1  0  0  0  0
  8 12  2  0  0  0  0
  9 22  1  0  0  0  0
  9 14  1  0  0  0  0
 10 21  2  0  0  0  0
 11  5  2  0  0  0  0
 11  8  1  0  0  0  0
 12  4  1  0  0  0  0
 12 27  1  0  0  0  0
 13 18  1  0  0  0  0
 15 23  1  0  0  0  0
 16  2  1  0  0  0  0
 17  3  1  0  0  0  0
 18 25  2  0  0  0  0
 19 26  1  0  0  0  0
 20 17  1  0  0  0  0
 22 20  1  6  0  0  0
 22 10  1  0  0  0  0
 23 14  2  0  0  0  0
 26 25  1  0  0  0  0
 26 17  2  0  0  0  0
 27 24  1  1  0  0  0
 27  7  1  0  0  0  0
 28 11  1  0  0  0  0
 29 30  1  0  0  0  0
 30 28  1  0  0  0  0
M  END
>  <MODEL>
1

>  <REMARK>
 VINA RESULT:      -8.1      0.000      0.000
  Name = 
  2 active torsions:
  status: ('A' for Active; 'I' for Inactive)
    1  A    between atoms: C_11  and  O_28
    2  A    between atoms: O_28  and  C_30
                            x       y       z     vdW  Elec       q    Type
                         _______ _______ _______ _____ _____    ______ ____

>  <TORSDO>
F 2

$$$$
=
 OpenBabel11122412363D

 30 35  0  0  1  0  0  0  0  0999 V2000
  160.8100  209.9080  152.4230 C   0  0  0  0  0  0  0  0  0  0  0  0
  160.4260  212.3340  151.8690 C   0  0  0  0  0  0  0  0  0  0  0  0
  162.0910  209.1650  148.4810 N   0  0  0  0  0  2  0  0  0  0  0  0
  161.1950  208.6000  151.9940 C   0  0  0  0  0  0  0  0  0  0  0  0
  160.4240  210.0870  153.7560 C   0  0  0  0  0  3  0  0  0  0  0  0
  160.6130  206.6140  155.2230 C   0  0  0  0  0  1  0  0  0  0  0  0
  160.5780  205.7050  151.1880 C   0  0  1  0  0  3  0  0  0  0  0  0
  160.7060  207.7400  154.2400 C   0  0  0  0  0  0  0  0  0  0  0  0
  161.3220  206.1120  150.0020 N   0  0  0  0  0  0  0  0  0  0  0  0
  162.4470  207.7960  148.6090 C   0  0  0  0  0  0  0  0  0  0  0  0
  160.3810  209.0310  154.6660 C   0  0  0  0  0  0  0  0  0  0  0  0
  161.0930  207.5020  152.9030 C   0  0  0  0  0  0  0  0  0  0  0  0
  160.4460  213.3600  150.9210 C   0  0  0  0  0  3  0  0  0  0  0  0
  161.5420  204.9610  149.2000 C   0  0  0  0  0  3  0  0  0  0  0  0
  160.3920  204.1960  151.0520 C   0  0  0  0  0  2  0  0  0  0  0  0
  160.0150  212.6610  153.1570 O   0  0  0  0  0  1  0  0  0  0  0  0
  161.6190  209.5110  149.7760 C   0  0  0  0  0  0  0  0  0  0  0  0
  160.8430  213.1130  149.6100 C   0  0  0  0  0  3  0  0  0  0  0  0
  160.8130  211.0110  151.5080 C   0  0  0  0  0  0  0  0  0  0  0  0
  161.6350  208.4510  150.6600 C   0  0  0  0  0  0  0  0  0  0  0  0
  162.9440  207.1380  147.6590 O   0  0  0  0  0  0  0  0  0  0  0  0
  162.2400  207.2510  149.9900 C   0  0  1  0  0  3  0  0  0  0  0  0
  161.0210  203.8760  149.7380 C   0  0  0  0  0  3  0  0  0  0  0  0
  162.7800  205.6610  152.5330 C   0  0  0  0  0  1  0  0  0  0  0  0
  161.2280  211.8300  149.2330 C   0  0  0  0  0  3  0  0  0  0  0  0
  161.2160  210.7840  150.1630 C   0  0  0  0  0  0  0  0  0  0  0  0
  161.3110  206.0660  152.4870 C   0  0  2  0  0  3  0  0  0  0  0  0
  160.0040  209.2480  155.9980 O   0  0  0  0  0  0  0  0  0  0  0  0
  162.1270  209.5370  157.0730 C   0  0  0  0  0  1  0  0  0  0  0  0
  160.7330  210.0940  156.8780 C   0  0  0  0  0  2  0  0  0  0  0  0
  1  5  2  0  0  0  0
  2 16  1  0  0  0  0
  3 10  1  0  0  0  0
  3 17  1  0  0  0  0
  4  1  1  0  0  0  0
  4 12  2  0  0  0  0
  5 11  1  0  0  0  0
  7 15  1  6  0  0  0
  7 27  1  0  0  0  0
  8 11  2  0  0  0  0
  8  6  1  0  0  0  0
  9  7  1  0  0  0  0
 11 28  1  0  0  0  0
 12  8  1  0  0  0  0
 13  2  2  0  0  0  0
 14 23  2  0  0  0  0
 14  9  1  0  0  0  0
 17 26  1  0  0  0  0
 17 20  2  0  0  0  0
 18 13  1  0  0  0  0
 19  2  1  0  0  0  0
 19  1  1  0  0  0  0
 20  4  1  0  0  0  0
 21 10  2  0  0  0  0
 22 10  1  6  0  0  0
 22  9  1  0  0  0  0
 22 20  1  0  0  0  0
 23 15  1  0  0  0  0
 25 18  2  0  0  0  0
 25 26  1  0  0  0  0
 26 19  2  0  0  0  0
 27 24  1  6  0  0  0
 27 12  1  0  0  0  0
 28 30  1  0  0  0  0
 30 29  1  0  0  0  0
M  END
>  <MODEL>
2

>  <REMARK>
 VINA RESULT:      -6.8      2.277      7.414
  Name = 
  2 active torsions:
  status: ('A' for Active; 'I' for Inactive)
    1  A    between atoms: C_11  and  O_28
    2  A    between atoms: O_28  and  C_30
                            x       y       z     vdW  Elec       q    Type
                         _______ _______ _______ _____ _____    ______ ____

>  <TORSDO>
F 2

$$$$
=
 OpenBabel11122412363D

 30 35  0  0  1  0  0  0  0  0999 V2000
  161.5060  207.9240  149.8910 C   0  0  0  0  0  0  0  0  0  0  0  0
  161.4650  205.8960  148.3990 C   0  0  0  0  0  0  0  0  0  0  0  0
  160.9420  205.4950  153.2840 N   0  0  0  0  0  2  0  0  0  0  0  0
  161.4010  208.4820  151.2020 C   0  0  0  0  0  0  0  0  0  0  0  0
  161.7230  208.7880  148.8130 C   0  0  0  0  0  3  0  0  0  0  0  0
  161.7240  212.2170  150.3930 C   0  0  0  0  0  1  0  0  0  0  0  0
  159.9120  210.0240  153.3960 C   0  0  1  0  0  3  0  0  0  0  0  0
  161.6620  210.7270  150.2480 C   0  0  0  0  0  0  0  0  0  0  0  0
  160.1980  208.8020  154.1390 N   0  0  0  0  0  0  0  0  0  0  0  0
  161.0170  206.4900  154.2940 C   0  0  0  0  0  0  0  0  0  0  0  0
  161.8160  210.1710  148.9750 C   0  0  0  0  0  0  0  0  0  0  0  0
  161.4320  209.9000  151.3690 C   0  0  0  0  0  0  0  0  0  0  0  0
  161.3300  204.5110  148.2700 C   0  0  0  0  0  3  0  0  0  0  0  0
  159.8320  209.0120  155.4950 C   0  0  0  0  0  3  0  0  0  0  0  0
  159.3680  211.0090  154.4290 C   0  0  0  0  0  2  0  0  0  0  0  0
  161.6740  206.6290  147.2360 O   0  0  0  0  0  1  0  0  0  0  0  0
  161.1040  206.2290  152.0780 C   0  0  0  0  0  0  0  0  0  0  0  0
  161.1170  203.7070  149.3860 C   0  0  0  0  0  3  0  0  0  0  0  0
  161.3850  206.5110  149.6820 C   0  0  0  0  0  0  0  0  0  0  0  0
  161.2380  207.5870  152.2830 C   0  0  0  0  0  0  0  0  0  0  0  0
  160.9460  206.2130  155.5200 O   0  0  0  0  0  0  0  0  0  0  0  0
  161.2580  207.8700  153.7580 C   0  0  1  0  0  3  0  0  0  0  0  0
  159.3460  210.2210  155.6950 C   0  0  0  0  0  3  0  0  0  0  0  0
  162.4000  210.6890  153.5630 C   0  0  0  0  0  1  0  0  0  0  0  0
  161.0380  204.2840  150.6500 C   0  0  0  0  0  3  0  0  0  0  0  0
  161.1680  205.6680  150.8070 C   0  0  0  0  0  0  0  0  0  0  0  0
  161.1550  210.5810  152.6890 C   0  0  2  0  0  3  0  0  0  0  0  0
  162.0490  211.0070  147.8750 O   0  0  0  0  0  0  0  0  0  0  0  0
  161.6380  213.0210  146.6430 C   0  0  0  0  0  1  0  0  0  0  0  0
  161.0260  211.7850  147.2680 C   0  0  0  0  0  2  0  0  0  0  0  0
  1  4  1  0  0  0  0
  2 19  1  0  0  0  0
  3 10  1  0  0  0  0
  4 12  1  0  0  0  0
  4 20  2  0  0  0  0
  5 11  2  0  0  0  0
  5  1  1  0  0  0  0
  7  9  1  0  0  0  0
  7 15  1  1  0  0  0
  8  6  1  0  0  0  0
  8 12  2  0  0  0  0
  9 14  1  0  0  0  0
 10 21  2  0  0  0  0
 11  8  1  0  0  0  0
 12 27  1  0  0  0  0
 13  2  2  0  0  0  0
 13 18  1  0  0  0  0
 14 23  2  0  0  0  0
 15 23  1  0  0  0  0
 16  2  1  0  0  0  0
 17 20  1  0  0  0  0
 17  3  1  0  0  0  0
 18 25  2  0  0  0  0
 19  1  2  0  0  0  0
 19 26  1  0  0  0  0
 22 20  1  6  0  0  0
 22  9  1  0  0  0  0
 22 10  1  0  0  0  0
 25 26  1  0  0  0  0
 26 17  2  0  0  0  0
 27  7  1  0  0  0  0
 27 24  1  1  0  0  0
 28 11  1  0  0  0  0
 29 30  1  0  0  0  0
 30 28  1  0  0  0  0
M  END
>  <MODEL>
3

>  <REMARK>
 VINA RESULT:      -6.7      1.513      2.706
  Name = 
  2 active torsions:
  status: ('A' for Active; 'I' for Inactive)
    1  A    between atoms: C_11  and  O_28
    2  A    between atoms: O_28  and  C_30
                            x       y       z     vdW  Elec       q    Type
                         _______ _______ _______ _____ _____    ______ ____

>  <TORSDO>
F 2

$$$$
=
 OpenBabel11122412363D

 30 35  0  0  1  0  0  0  0  0999 V2000
  161.1050  209.7940  151.6750 C   0  0  0  0  0  0  0  0  0  0  0  0
  160.9180  212.1440  150.7910 C   0  0  0  0  0  0  0  0  0  0  0  0
  162.3230  208.4190  147.8860 N   0  0  0  0  0  2  0  0  0  0  0  0
  161.3840  208.4130  151.4330 C   0  0  0  0  0  0  0  0  0  0  0  0
  160.7350  210.1840  152.9660 C   0  0  0  0  0  3  0  0  0  0  0  0
  160.6430  206.9400  154.8960 C   0  0  0  0  0  1  0  0  0  0  0  0
  160.5360  205.4940  151.0220 C   0  0  1  0  0  3  0  0  0  0  0  0
  160.8260  207.9100  153.7690 C   0  0  0  0  0  0  0  0  0  0  0  0
  161.3110  205.6730  149.8000 N   0  0  0  0  0  0  0  0  0  0  0  0
  162.5680  207.0560  148.2030 C   0  0  0  0  0  0  0  0  0  0  0  0
  160.6070  209.2690  154.0120 C   0  0  0  0  0  0  0  0  0  0  0  0
  161.1930  207.4620  152.4820 C   0  0  0  0  0  0  0  0  0  0  0  0
  161.0200  213.0260  149.7120 C   0  0  0  0  0  3  0  0  0  0  0  0
  161.4370  204.4100  149.1650 C   0  0  0  0  0  3  0  0  0  0  0  0
  160.2290  203.9990  151.0910 C   0  0  0  0  0  2  0  0  0  0  0  0
  160.5340  212.6760  152.0180 O   0  0  0  0  0  1  0  0  0  0  0  0
  161.8810  208.9750  149.1160 C   0  0  0  0  0  0  0  0  0  0  0  0
  161.3970  212.5710  148.4520 C   0  0  0  0  0  3  0  0  0  0  0  0
  161.1970  210.7570  150.6180 C   0  0  0  0  0  0  0  0  0  0  0  0
  161.8100  208.0490  150.1370 C   0  0  0  0  0  0  0  0  0  0  0  0
  163.0100  206.2370  147.3570 O   0  0  0  0  0  0  0  0  0  0  0  0
  162.3170  206.7230  149.6440 C   0  0  1  0  0  3  0  0  0  0  0  0
  160.8310  203.4540  149.8400 C   0  0  0  0  0  3  0  0  0  0  0  0
  162.7270  205.4580  152.3860 C   0  0  0  0  0  1  0  0  0  0  0  0
  161.6780  211.2220  148.2570 C   0  0  0  0  0  3  0  0  0  0  0  0
  161.5810  210.3170  149.3210 C   0  0  0  0  0  0  0  0  0  0  0  0
  161.2960  205.9690  152.2680 C   0  0  2  0  0  3  0  0  0  0  0  0
  160.2480  209.6960  155.2970 O   0  0  0  0  0  0  0  0  0  0  0  0
  158.2470  210.9860  155.5680 C   0  0  0  0  0  1  0  0  0  0  0  0
  159.7600  211.0030  155.5680 C   0  0  0  0  0  2  0  0  0  0  0  0
  1  5  2  0  0  0  0
  2 16  1  0  0  0  0
  3 10  1  0  0  0  0
  3 17  1  0  0  0  0
  4  1  1  0  0  0  0
  4 12  2  0  0  0  0
  5 11  1  0  0  0  0
  7 15  1  1  0  0  0
  7 27  1  0  0  0  0
  8 11  2  0  0  0  0
  8  6  1  0  0  0  0
  9  7  1  0  0  0  0
 11 28  1  0  0  0  0
 12  8  1  0  0  0  0
 13  2  2  0  0  0  0
 14  9  1  0  0  0  0
 14 23  2  0  0  0  0
 17 26  1  0  0  0  0
 17 20  2  0  0  0  0
 18 13  1  0  0  0  0
 19  2  1  0  0  0  0
 19  1  1  0  0  0  0
 20  4  1  0  0  0  0
 21 10  2  0  0  0  0
 22 10  1  6  0  0  0
 22  9  1  0  0  0  0
 22 20  1  0  0  0  0
 23 15  1  0  0  0  0
 25 18  2  0  0  0  0
 25 26  1  0  0  0  0
 26 19  2  0  0  0  0
 27 24  1  6  0  0  0
 27 12  1  0  0  0  0
 28 30  1  0  0  0  0
 29 30  1  0  0  0  0
M  END
>  <MODEL>
4

>  <REMARK>
 VINA RESULT:      -6.4      2.317      7.248
  Name = 
  2 active torsions:
  status: ('A' for Active; 'I' for Inactive)
    1  A    between atoms: C_11  and  O_28
    2  A    between atoms: O_28  and  C_30
                            x       y       z     vdW  Elec       q    Type
                         _______ _______ _______ _____ _____    ______ ____

>  <TORSDO>
F 2

$$$$
=
 OpenBabel11122412363D

 30 35  0  0  1  0  0  0  0  0999 V2000
  161.1480  209.1420  151.9710 C   0  0  0  0  0  0  0  0  0  0  0  0
  162.0460  209.1640  149.6190 C   0  0  0  0  0  0  0  0  0  0  0  0
  160.0580  213.1960  151.6400 N   0  0  0  0  0  2  0  0  0  0  0  0
  160.5470  209.8480  153.0590 C   0  0  0  0  0  0  0  0  0  0  0  0
  161.4570  207.7890  152.1420 C   0  0  0  0  0  3  0  0  0  0  0  0
  160.4720  207.0850  155.7180 C   0  0  0  0  0  1  0  0  0  0  0  0
  160.6420  211.2170  155.8030 C   0  0  1  0  0  3  0  0  0  0  0  0
  160.6810  207.8150  154.4270 C   0  0  0  0  0  0  0  0  0  0  0  0
  160.0870  212.3190  155.0240 N   0  0  0  0  0  0  0  0  0  0  0  0
  159.4300  213.3690  152.9020 C   0  0  0  0  0  0  0  0  0  0  0  0
  161.2190  207.1170  153.3420 C   0  0  0  0  0  0  0  0  0  0  0  0
  160.3600  209.1850  154.3110 C   0  0  0  0  0  0  0  0  0  0  0  0
  162.3030  209.8780  148.4450 C   0  0  0  0  0  3  0  0  0  0  0  0
  159.7090  213.3500  155.9230 C   0  0  0  0  0  3  0  0  0  0  0  0
  160.5360  211.6580  157.2610 C   0  0  0  0  0  2  0  0  0  0  0  0
  162.4110  207.8220  149.6450 O   0  0  0  0  0  1  0  0  0  0  0  0
  160.4860  211.8410  151.6620 C   0  0  0  0  0  0  0  0  0  0  0  0
  161.9690  211.2250  148.3410 C   0  0  0  0  0  3  0  0  0  0  0  0
  161.4340  209.8070  150.7340 C   0  0  0  0  0  0  0  0  0  0  0  0
  160.1930  211.1980  152.8480 C   0  0  0  0  0  0  0  0  0  0  0  0
  158.8880  214.4530  153.2420 O   0  0  0  0  0  0  0  0  0  0  0  0
  159.4170  212.1250  153.7390 C   0  0  1  0  0  3  0  0  0  0  0  0
  159.9610  213.0310  157.1770 C   0  0  0  0  0  3  0  0  0  0  0  0
  158.3760  209.9910  155.6490 C   0  0  0  0  0  1  0  0  0  0  0  0
  161.3680  211.8750  149.4150 C   0  0  0  0  0  3  0  0  0  0  0  0
  161.1010  211.1840  150.6020 C   0  0  0  0  0  0  0  0  0  0  0  0
  159.8950  209.8980  155.5590 C   0  0  2  0  0  3  0  0  0  0  0  0
  161.5270  205.7570  153.4750 O   0  0  0  0  0  0  0  0  0  0  0  0
  160.8380  203.9850  152.0150 C   0  0  0  0  0  1  0  0  0  0  0  0
  161.9450  204.9510  152.3810 C   0  0  0  0  0  2  0  0  0  0  0  0
  1  5  2  0  0  0  0
  1  4  1  0  0  0  0
  2 16  1  0  0  0  0
  2 19  1  0  0  0  0
  3 17  1  0  0  0  0
  3 10  1  0  0  0  0
  4 12  2  0  0  0  0
  5 11  1  0  0  0  0
  7 15  1  1  0  0  0
  8  6  1  0  0  0  0
  9  7  1  0  0  0  0
  9 14  1  0  0  0  0
 10 21  2  0  0  0  0
 10 22  1  0  0  0  0
 11 28  1  0  0  0  0
 11  8  2  0  0  0  0
 12  8  1  0  0  0  0
 12 27  1  0  0  0  0
 13  2  2  0  0  0  0
 14 23  2  0  0  0  0
 17 20  2  0  0  0  0
 18 13  1  0  0  0  0
 18 25  2  0  0  0  0
 19  1  1  0  0  0  0
 20  4  1  0  0  0  0
 22 20  1  6  0  0  0
 22  9  1  0  0  0  0
 23 15  1  0  0  0  0
 25 26  1  0  0  0  0
 26 19  2  0  0  0  0
 26 17  1  0  0  0  0
 27 24  1  6  0  0  0
 27  7  1  0  0  0  0
 29 30  1  0  0  0  0
 30 28  1  0  0  0  0
M  END
>  <MODEL>
5

>  <REMARK>
 VINA RESULT:      -6.2      2.574      6.039
  Name = 
  2 active torsions:
  status: ('A' for Active; 'I' for Inactive)
    1  A    between atoms: C_11  and  O_28
    2  A    between atoms: O_28  and  C_30
                            x       y       z     vdW  Elec       q    Type
                         _______ _______ _______ _____ _____    ______ ____

>  <TORSDO>
F 2

$$$$
=
 OpenBabel11122412363D

 30 35  0  0  1  0  0  0  0  0999 V2000
  161.4320  208.0540  150.7260 C   0  0  0  0  0  0  0  0  0  0  0  0
  161.9590  209.1660  148.5290 C   0  0  0  0  0  0  0  0  0  0  0  0
  160.8270  211.8100  152.5330 N   0  0  0  0  0  2  0  0  0  0  0  0
  161.0980  208.1750  152.1110 C   0  0  0  0  0  0  0  0  0  0  0  0
  161.5890  206.7740  150.1860 C   0  0  0  0  0  3  0  0  0  0  0  0
  161.0760  204.4810  153.1410 C   0  0  0  0  0  1  0  0  0  0  0  0
  161.7790  208.0560  155.0990 C   0  0  1  0  0  3  0  0  0  0  0  0
  161.1780  205.7320  152.3240 C   0  0  0  0  0  0  0  0  0  0  0  0
  161.2580  209.4170  155.0450 N   0  0  0  0  0  0  0  0  0  0  0  0
  160.4250  211.3810  153.8250 C   0  0  0  0  0  0  0  0  0  0  0  0
  161.4530  205.6190  150.9580 C   0  0  0  0  0  0  0  0  0  0  0  0
  161.0190  207.0010  152.9210 C   0  0  0  0  0  0  0  0  0  0  0  0
  162.1240  210.3440  147.7970 C   0  0  0  0  0  3  0  0  0  0  0  0
  161.1530  209.9050  156.3740 C   0  0  0  0  0  3  0  0  0  0  0  0
  161.9530  207.7470  156.5850 C   0  0  0  0  0  2  0  0  0  0  0  0
  162.1510  207.9630  147.8580 O   0  0  0  0  0  1  0  0  0  0  0  0
  161.0780  210.5950  151.8400 C   0  0  0  0  0  0  0  0  0  0  0  0
  161.9510  211.5880  148.3960 C   0  0  0  0  0  3  0  0  0  0  0  0
  161.6100  209.2190  149.9110 C   0  0  0  0  0  0  0  0  0  0  0  0
  160.8890  209.4740  152.6230 C   0  0  0  0  0  0  0  0  0  0  0  0
  160.0830  212.1900  154.7270 O   0  0  0  0  0  0  0  0  0  0  0  0
  160.3810  209.8900  153.9740 C   0  0  1  0  0  3  0  0  0  0  0  0
  161.5500  209.0140  157.2610 C   0  0  0  0  0  3  0  0  0  0  0  0
  159.3800  207.1430  154.8360 C   0  0  0  0  0  1  0  0  0  0  0  0
  161.6070  211.6670  149.7430 C   0  0  0  0  0  3  0  0  0  0  0  0
  161.4380  210.5020  150.5000 C   0  0  0  0  0  0  0  0  0  0  0  0
  160.8430  207.0460  154.4210 C   0  0  2  0  0  3  0  0  0  0  0  0
  161.6020  204.3510  150.3820 O   0  0  0  0  0  0  0  0  0  0  0  0
  160.8040  202.5620  149.0000 C   0  0  0  0  0  1  0  0  0  0  0  0
  161.1360  204.0370  149.0760 C   0  0  0  0  0  2  0  0  0  0  0  0
  1  4  1  0  0  0  0
  2 19  1  0  0  0  0
  3 10  1  0  0  0  0
  4 20  1  0  0  0  0
  4 12  2  0  0  0  0
  5  1  2  0  0  0  0
  5 11  1  0  0  0  0
  7 15  1  1  0  0  0
  8 12  1  0  0  0  0
  8  6  1  0  0  0  0
  9  7  1  0  0  0  0
  9 14  1  0  0  0  0
 10 22  1  0  0  0  0
 10 21  2  0  0  0  0
 11  8  2  0  0  0  0
 12 27  1  0  0  0  0
 13 18  1  0  0  0  0
 13  2  2  0  0  0  0
 14 23  2  0  0  0  0
 15 23  1  0  0  0  0
 16  2  1  0  0  0  0
 17  3  1  0  0  0  0
 17 20  2  0  0  0  0
 18 25  2  0  0  0  0
 19 26  2  0  0  0  0
 19  1  1  0  0  0  0
 22 20  1  6  0  0  0
 22  9  1  0  0  0  0
 25 26  1  0  0  0  0
 26 17  1  0  0  0  0
 27 24  1  6  0  0  0
 27  7  1  0  0  0  0
 28 11  1  0  0  0  0
 29 30  1  0  0  0  0
 30 28  1  0  0  0  0
M  END
>  <MODEL>
6

>  <REMARK>
 VINA RESULT:      -5.9      1.973      5.122
  Name = 
  2 active torsions:
  status: ('A' for Active; 'I' for Inactive)
    1  A    between atoms: C_11  and  O_28
    2  A    between atoms: O_28  and  C_30
                            x       y       z     vdW  Elec       q    Type
                         _______ _______ _______ _____ _____    ______ ____

>  <TORSDO>
F 2

$$$$
=
 OpenBabel11122412363D

 30 35  0  0  1  0  0  0  0  0999 V2000
  161.4450  208.5470  151.4180 C   0  0  0  0  0  0  0  0  0  0  0  0
  161.4460  210.9780  150.7630 C   0  0  0  0  0  0  0  0  0  0  0  0
  162.3310  207.4330  147.4540 N   0  0  0  0  0  2  0  0  0  0  0  0
  161.5730  207.1760  151.0360 C   0  0  0  0  0  0  0  0  0  0  0  0
  161.1790  208.8440  152.7580 C   0  0  0  0  0  3  0  0  0  0  0  0
  160.8640  205.4530  154.3880 C   0  0  0  0  0  1  0  0  0  0  0  0
  160.4230  204.4010  150.4120 C   0  0  1  0  0  3  0  0  0  0  0  0
  161.0860  206.5060  153.3450 C   0  0  0  0  0  0  0  0  0  0  0  0
  161.1500  204.6240  149.1680 N   0  0  0  0  0  0  0  0  0  0  0  0
  162.4560  206.0300  147.6320 C   0  0  0  0  0  0  0  0  0  0  0  0
  161.0140  207.8500  153.7220 C   0  0  0  0  0  0  0  0  0  0  0  0
  161.3430  206.1500  152.0030 C   0  0  0  0  0  0  0  0  0  0  0  0
  161.5810  211.9460  149.7640 C   0  0  0  0  0  3  0  0  0  0  0  0
  161.1190  203.4210  148.4150 C   0  0  0  0  0  3  0  0  0  0  0  0
  159.9740  202.9430  150.3640 C   0  0  0  0  0  2  0  0  0  0  0  0
  161.1780  211.4240  152.0530 O   0  0  0  0  0  1  0  0  0  0  0  0
  162.0070  207.9080  148.7540 C   0  0  0  0  0  0  0  0  0  0  0  0
  161.8480  211.5810  148.4480 C   0  0  0  0  0  3  0  0  0  0  0  0
  161.5790  209.5940  150.4480 C   0  0  0  0  0  0  0  0  0  0  0  0
  161.8970  206.8990  149.6890 C   0  0  0  0  0  0  0  0  0  0  0  0
  162.7720  205.2580  146.6910 O   0  0  0  0  0  0  0  0  0  0  0  0
  162.2460  205.5860  149.0490 C   0  0  1  0  0  3  0  0  0  0  0  0
  160.4560  202.4660  149.0350 C   0  0  0  0  0  3  0  0  0  0  0  0
  162.6650  204.0310  151.6360 C   0  0  0  0  0  1  0  0  0  0  0  0
  161.9840  210.2360  148.1160 C   0  0  0  0  0  3  0  0  0  0  0  0
  161.8520  209.2470  149.0970 C   0  0  0  0  0  0  0  0  0  0  0  0
  161.2860  204.6820  151.6500 C   0  0  2  0  0  3  0  0  0  0  0  0
  160.7630  208.1830  155.0600 O   0  0  0  0  0  0  0  0  0  0  0  0
  159.3310  209.9730  155.7610 C   0  0  0  0  0  1  0  0  0  0  0  0
  160.7590  209.5230  155.5330 C   0  0  0  0  0  2  0  0  0  0  0  0
  1  5  2  0  0  0  0
  2 16  1  0  0  0  0
  3 10  1  0  0  0  0
  3 17  1  0  0  0  0
  4  1  1  0  0  0  0
  4 12  2  0  0  0  0
  5 11  1  0  0  0  0
  7 15  1  1  0  0  0
  7 27  1  0  0  0  0
  8 11  2  0  0  0  0
  8  6  1  0  0  0  0
  9  7  1  0  0  0  0
 11 28  1  0  0  0  0
 12  8  1  0  0  0  0
 13  2  2  0  0  0  0
 14 23  2  0  0  0  0
 14  9  1  0  0  0  0
 17 26  1  0  0  0  0
 17 20  2  0  0  0  0
 18 13  1  0  0  0  0
 19  2  1  0  0  0  0
 19  1  1  0  0  0  0
 20  4  1  0  0  0  0
 21 10  2  0  0  0  0
 22 10  1  6  0  0  0
 22  9  1  0  0  0  0
 22 20  1  0  0  0  0
 23 15  1  0  0  0  0
 25 18  2  0  0  0  0
 25 26  1  0  0  0  0
 26 19  2  0  0  0  0
 27 24  1  6  0  0  0
 27 12  1  0  0  0  0
 28 30  1  0  0  0  0
 30 29  1  0  0  0  0
M  END
>  <MODEL>
7

>  <REMARK>
 VINA RESULT:      -5.9      2.203      7.175
  Name = 
  2 active torsions:
  status: ('A' for Active; 'I' for Inactive)
    1  A    between atoms: C_11  and  O_28
    2  A    between atoms: O_28  and  C_30
                            x       y       z     vdW  Elec       q    Type
                         _______ _______ _______ _____ _____    ______ ____

>  <TORSDO>
F 2

$$$$
=
 OpenBabel11122412363D

 30 35  0  0  1  0  0  0  0  0999 V2000
  161.4250  208.3480  151.4810 C   0  0  0  0  0  0  0  0  0  0  0  0
  161.4300  208.6450  153.9820 C   0  0  0  0  0  0  0  0  0  0  0  0
  160.6180  204.2400  151.9250 N   0  0  0  0  0  2  0  0  0  0  0  0
  161.3080  207.4820  150.3510 C   0  0  0  0  0  0  0  0  0  0  0  0
  161.6640  209.7080  151.2580 C   0  0  0  0  0  3  0  0  0  0  0  0
  161.9580  209.9670  147.5030 C   0  0  0  0  0  1  0  0  0  0  0  0
  162.4780  205.8940  148.0020 C   0  0  1  0  0  3  0  0  0  0  0  0
  161.7530  209.3850  148.8680 C   0  0  0  0  0  0  0  0  0  0  0  0
  161.7750  204.8080  148.6750 N   0  0  0  0  0  0  0  0  0  0  0  0
  160.4940  203.8800  150.5570 C   0  0  0  0  0  0  0  0  0  0  0  0
  161.8150  210.2370  149.9760 C   0  0  0  0  0  0  0  0  0  0  0  0
  161.5230  208.0030  149.0380 C   0  0  0  0  0  0  0  0  0  0  0  0
  161.3110  208.0750  155.2520 C   0  0  0  0  0  3  0  0  0  0  0  0
  161.8230  203.6620  147.8380 C   0  0  0  0  0  3  0  0  0  0  0  0
  162.9320  205.3150  146.6640 C   0  0  0  0  0  2  0  0  0  0  0  0
  161.6710  210.0120  153.9150 O   0  0  0  0  0  1  0  0  0  0  0  0
  160.9160  205.6280  151.8810 C   0  0  0  0  0  0  0  0  0  0  0  0
  161.0710  206.7120  155.4040 C   0  0  0  0  0  3  0  0  0  0  0  0
  161.3070  207.8360  152.8150 C   0  0  0  0  0  0  0  0  0  0  0  0
  161.0110  206.1230  150.5960 C   0  0  0  0  0  0  0  0  0  0  0  0
  160.1980  202.7130  150.1910 O   0  0  0  0  0  0  0  0  0  0  0  0
  160.6790  205.0340  149.6160 C   0  0  1  0  0  3  0  0  0  0  0  0
  162.4770  203.8950  146.7170 C   0  0  0  0  0  3  0  0  0  0  0  0
  160.2150  206.8490  147.2130 C   0  0  0  0  0  1  0  0  0  0  0  0
  160.9440  205.9020  154.2800 C   0  0  0  0  0  3  0  0  0  0  0  0
  161.0610  206.4470  152.9960 C   0  0  0  0  0  0  0  0  0  0  0  0
  161.5910  207.1300  147.8070 C   0  0  2  0  0  3  0  0  0  0  0  0
  162.0390  211.6060  149.7870 O   0  0  0  0  0  0  0  0  0  0  0  0
  161.3190  213.5530  148.5870 C   0  0  0  0  0  1  0  0  0  0  0  0
  160.9830  212.5520  149.6720 C   0  0  0  0  0  2  0  0  0  0  0  0
  1 19  1  0  0  0  0
  2 13  1  0  0  0  0
  4 20  1  0  0  0  0
  4  1  2  0  0  0  0
  5  1  1  0  0  0  0
  6  8  1  0  0  0  0
  7 15  1  6  0  0  0
  7  9  1  0  0  0  0
  8 12  2  0  0  0  0
  8 11  1  0  0  0  0
  9 22  1  0  0  0  0
 10  3  1  0  0  0  0
 11  5  2  0  0  0  0
 12  4  1  0  0  0  0
 13 18  2  0  0  0  0
 14  9  1  0  0  0  0
 15 23  1  0  0  0  0
 16  2  1  0  0  0  0
 17  3  1  0  0  0  0
 17 26  1  0  0  0  0
 19 26  1  0  0  0  0
 19  2  2  0  0  0  0
 20 17  2  0  0  0  0
 21 10  2  0  0  0  0
 22 10  1  1  0  0  0
 22 20  1  0  0  0  0
 23 14  2  0  0  0  0
 25 18  1  0  0  0  0
 26 25  2  0  0  0  0
 27 24  1  1  0  0  0
 27  7  1  0  0  0  0
 27 12  1  0  0  0  0
 28 11  1  0  0  0  0
 29 30  1  0  0  0  0
 30 28  1  0  0  0  0
M  END
>  <MODEL>
8

>  <REMARK>
 VINA RESULT:      -5.9      2.177      5.624
  Name = 
  2 active torsions:
  status: ('A' for Active; 'I' for Inactive)
    1  A    between atoms: C_11  and  O_28
    2  A    between atoms: O_28  and  C_30
                            x       y       z     vdW  Elec       q    Type
                         _______ _______ _______ _____ _____    ______ ____

>  <TORSDO>
F 2

$$$$
=
 OpenBabel11122412363D

 30 35  0  0  1  0  0  0  0  0999 V2000
  160.9670  210.2530  151.6660 C   0  0  0  0  0  0  0  0  0  0  0  0
  162.0790  208.2000  150.7210 C   0  0  0  0  0  0  0  0  0  0  0  0
  160.2900  208.2620  155.3140 N   0  0  0  0  0  2  0  0  0  0  0  0
  160.2880  210.8880  152.7520 C   0  0  0  0  0  0  0  0  0  0  0  0
  161.1840  210.9850  150.4940 C   0  0  0  0  0  3  0  0  0  0  0  0
  159.5250  214.3050  151.1860 C   0  0  0  0  0  1  0  0  0  0  0  0
  157.7730  211.9820  154.1260 C   0  0  1  0  0  3  0  0  0  0  0  0
  160.0280  212.9080  151.3830 C   0  0  0  0  0  0  0  0  0  0  0  0
  158.2280  211.0810  155.1800 N   0  0  0  0  0  0  0  0  0  0  0  0
  159.7100  209.3260  156.0530 C   0  0  0  0  0  0  0  0  0  0  0  0
  160.7390  212.2990  150.3450 C   0  0  0  0  0  0  0  0  0  0  0  0
  159.7740  212.2100  152.5840 C   0  0  0  0  0  0  0  0  0  0  0  0
  162.4760  206.8720  150.8930 C   0  0  0  0  0  3  0  0  0  0  0  0
  157.4240  211.3020  156.3290 C   0  0  0  0  0  3  0  0  0  0  0  0
  156.6400  212.7940  154.7480 C   0  0  0  0  0  2  0  0  0  0  0  0
  162.3590  208.7990  149.4980 O   0  0  0  0  0  1  0  0  0  0  0  0
  160.5410  208.8370  154.0390 C   0  0  0  0  0  0  0  0  0  0  0  0
  162.2310  206.2020  152.0880 C   0  0  0  0  0  3  0  0  0  0  0  0
  161.4110  208.8940  151.7730 C   0  0  0  0  0  0  0  0  0  0  0  0
  160.1290  210.1500  153.9460 C   0  0  0  0  0  0  0  0  0  0  0  0
  159.3760  209.2050  157.2610 O   0  0  0  0  0  0  0  0  0  0  0  0
  159.6070  210.6060  155.2780 C   0  0  1  0  0  3  0  0  0  0  0  0
  156.5130  212.2330  156.1240 C   0  0  0  0  0  3  0  0  0  0  0  0
  159.7050  213.5950  154.6940 C   0  0  0  0  0  1  0  0  0  0  0  0
  161.5830  206.8580  153.1300 C   0  0  0  0  0  3  0  0  0  0  0  0
  161.1730  208.1880  152.9840 C   0  0  0  0  0  0  0  0  0  0  0  0
  158.8980  212.8900  153.6100 C   0  0  2  0  0  3  0  0  0  0  0  0
  160.9860  213.0080  149.1630 O   0  0  0  0  0  0  0  0  0  0  0  0
  162.9780  212.6250  147.8870 C   0  0  0  0  0  1  0  0  0  0  0  0
  161.4850  212.3930  147.9830 C   0  0  0  0  0  2  0  0  0  0  0  0
  1 19  2  0  0  0  0
  1  4  1  0  0  0  0
  2 13  2  0  0  0  0
  2 19  1  0  0  0  0
  3 10  1  0  0  0  0
  4 20  2  0  0  0  0
  5  1  1  0  0  0  0
  6  8  1  0  0  0  0
  7 15  1  1  0  0  0
  7  9  1  0  0  0  0
  8 12  2  0  0  0  0
  9 22  1  0  0  0  0
  9 14  1  0  0  0  0
 10 21  2  0  0  0  0
 11  5  2  0  0  0  0
 11  8  1  0  0  0  0
 12  4  1  0  0  0  0
 12 27  1  0  0  0  0
 13 18  1  0  0  0  0
 15 23  1  0  0  0  0
 16  2  1  0  0  0  0
 17  3  1  0  0  0  0
 18 25  2  0  0  0  0
 19 26  1  0  0  0  0
 20 17  1  0  0  0  0
 22 20  1  6  0  0  0
 22 10  1  0  0  0  0
 23 14  2  0  0  0  0
 26 25  1  0  0  0  0
 26 17  2  0  0  0  0
 27  7  1  0  0  0  0
 27 24  1  1  0  0  0
 28 11  1  0  0  0  0
 29 30  1  0  0  0  0
 30 28  1  0  0  0  0
M  END
>  <MODEL>
9

>  <REMARK>
 VINA RESULT:      -5.8      2.808      4.705
  Name = 
  2 active torsions:
  status: ('A' for Active; 'I' for Inactive)
    1  A    between atoms: C_11  and  O_28
    2  A    between atoms: O_28  and  C_30
                            x       y       z     vdW  Elec       q    Type
                         _______ _______ _______ _____ _____    ______ ____

>  <TORSDO>
F 2

$$$$
