=
 OpenBabel11122412313D

 30 35  0  0  1  0  0  0  0  0999 V2000
  161.3950  206.4290  150.1060 C   0  0  1  0  0  3  0  0  0  0  0  0
  161.4940  203.8670  149.9980 C   0  0  0  0  0  0  0  0  0  0  0  0
  160.6710  206.2150  154.1720 N   0  0  0  0  0  2  0  0  0  0  0  0
  161.6890  207.5460  151.1270 C   0  0  1  0  0  3  0  0  0  0  0  0
  162.3560  206.4870  149.0760 O   0  0  0  0  0  0  0  0  0  0  0  0
  162.1570  209.9960  148.4570 O   0  0  0  0  0  0  0  0  0  0  0  0
  160.4310  210.3910  152.0010 C   0  0  1  0  0  3  0  0  0  0  0  0
  161.9930  208.8940  149.0470 C   0  0  0  0  0  0  0  0  0  0  0  0
  160.2400  209.6700  153.2720 N   0  0  2  0  0  0  0  0  0  0  0  0
  160.6130  207.5980  154.6140 C   0  0  1  0  0  3  0  0  0  0  0  0
  162.0760  207.6120  148.2590 C   0  0  2  0  0  3  0  0  0  0  0  0
  161.6950  208.8540  150.4550 N   0  0  0  0  0  0  0  0  0  0  0  0
  161.3720  202.6170  150.6130 C   0  0  0  0  0  3  0  0  0  0  0  0
  160.7040  210.6100  154.2830 C   0  0  0  0  0  2  0  0  0  0  0  0
  160.3580  211.8580  152.3510 C   0  0  0  0  0  2  0  0  0  0  0  0
  161.7880  203.9160  148.6400 O   0  0  0  0  0  1  0  0  0  0  0  0
  160.6910  206.1650  152.8850 C   0  0  1  0  0  3  0  0  0  0  0  0
  161.0450  202.5220  151.9660 C   0  0  0  0  0  3  0  0  0  0  0  0
  161.3130  205.0480  150.7500 C   0  0  0  0  0  0  0  0  0  0  0  0
  160.6480  207.4890  152.2310 C   0  0  1  0  0  3  0  0  0  0  0  0
  161.6200  207.8190  155.7260 C   0  0  0  0  0  1  0  0  0  0  0  0
  161.0000  208.4190  153.3760 C   0  0  1  0  0  3  0  0  0  0  0  0
  160.4870  211.9660  153.7960 N   0  0  0  0  0  2  0  0  0  0  0  0
  163.0270  210.2430  152.0240 C   0  0  0  0  0  1  0  0  0  0  0  0
  160.8220  203.6780  152.7120 C   0  0  0  0  0  3  0  0  0  0  0  0
  160.9320  204.9370  152.1100 C   0  0  0  0  0  0  0  0  0  0  0  0
  161.7400  210.1090  151.2160 C   0  0  2  0  0  3  0  0  0  0  0  0
  160.8290  207.4060  147.3970 C   0  0  0  0  0  2  0  0  0  0  0  0
  160.1600  206.2770  145.2760 C   0  0  0  0  0  1  0  0  0  0  0  0
  160.9390  206.1350  146.5700 C   0  0  0  0  0  2  0  0  0  0  0  0
  1  5  1  6  0  0  0
  1 19  1  0  0  0  0
  1  4  1  0  0  0  0
  2 13  2  0  0  0  0
  2 19  1  0  0  0  0
  3 10  1  0  0  0  0
  4 12  1  6  0  0  0
  4 20  1  0  0  0  0
  6  8  2  0  0  0  0
  7 15  1  1  0  0  0
  7  9  1  0  0  0  0
  8 12  1  0  0  0  0
  9 22  1  0  0  0  0
  9 14  1  1  0  0  0
 10 21  1  1  0  0  0
 11 28  1  1  0  0  0
 11  8  1  0  0  0  0
 11  5  1  0  0  0  0
 12 27  1  0  0  0  0
 13 18  1  0  0  0  0
 15 23  1  0  0  0  0
 16  2  1  0  0  0  0
 17 26  1  1  0  0  0
 17  3  1  0  0  0  0
 18 25  2  0  0  0  0
 19 26  2  0  0  0  0
 20 17  1  0  0  0  0
 20 22  1  0  0  0  0
 22 10  1  0  0  0  0
 23 14  1  0  0  0  0
 26 25  1  0  0  0  0
 27  7  1  0  0  0  0
 27 24  1  0  0  0  0
 29 30  1  0  0  0  0
 30 28  1  0  0  0  0
M  END
>  <MODEL>
1

>  <REMARK>
 VINA RESULT:      -7.8      0.000      0.000
  Name = 
  2 active torsions:
  status: ('A' for Active; 'I' for Inactive)
    1  A    between atoms: C_11  and  C_28
    2  A    between atoms: C_28  and  C_30
                            x       y       z     vdW  Elec       q    Type
                         _______ _______ _______ _____ _____    ______ ____

>  <TORSDO>
F 2

$$$$
=
 OpenBabel11122412313D

 30 35  0  0  1  0  0  0  0  0999 V2000
  161.3990  207.6500  151.5440 C   0  0  1  0  0  3  0  0  0  0  0  0
  161.9490  210.0970  151.0020 C   0  0  0  0  0  0  0  0  0  0  0  0
  161.6780  206.7120  147.5270 N   0  0  0  0  0  2  0  0  0  0  0  0
  161.7040  206.2510  150.9710 C   0  0  1  0  0  3  0  0  0  0  0  0
  162.0710  207.7950  152.7750 O   0  0  0  0  0  0  0  0  0  0  0  0
  161.0810  204.6810  154.2110 O   0  0  0  0  0  0  0  0  0  0  0  0
  160.1690  203.4380  150.5610 C   0  0  1  0  0  3  0  0  0  0  0  0
  161.2650  205.5660  153.3320 C   0  0  0  0  0  0  0  0  0  0  0  0
  160.4130  203.7600  149.1440 N   0  0  2  0  0  0  0  0  0  0  0  0
  161.4650  205.2760  147.4630 C   0  0  1  0  0  3  0  0  0  0  0  0
  161.4060  207.0070  153.7490 C   0  0  2  0  0  3  0  0  0  0  0  0
  161.3110  205.2140  151.9370 N   0  0  0  0  0  0  0  0  0  0  0  0
  162.2080  211.1090  150.0730 C   0  0  0  0  0  3  0  0  0  0  0  0
  160.9110  202.5140  148.5800 C   0  0  0  0  0  2  0  0  0  0  0  0
  159.9040  201.9520  150.6010 C   0  0  0  0  0  2  0  0  0  0  0  0
  161.9100  210.4250  152.3520 O   0  0  0  0  0  1  0  0  0  0  0  0
  161.4120  207.1440  148.7100 C   0  0  1  0  0  3  0  0  0  0  0  0
  162.2230  210.8290  148.7060 C   0  0  0  0  0  3  0  0  0  0  0  0
  161.7270  208.7730  150.5650 C   0  0  0  0  0  0  0  0  0  0  0  0
  160.9730  206.0930  149.6490 C   0  0  1  0  0  3  0  0  0  0  0  0
  162.6390  204.6180  146.7650 C   0  0  0  0  0  1  0  0  0  0  0  0
  161.3970  204.8270  148.9280 C   0  0  1  0  0  3  0  0  0  0  0  0
  160.3380  201.4000  149.3260 N   0  0  0  0  0  2  0  0  0  0  0  0
  162.6820  203.2760  151.2100 C   0  0  0  0  0  1  0  0  0  0  0  0
  161.9630  209.5360  148.2560 C   0  0  0  0  0  3  0  0  0  0  0  0
  161.6950  208.5120  149.1720 C   0  0  0  0  0  0  0  0  0  0  0  0
  161.2920  203.7920  151.5710 C   0  0  2  0  0  3  0  0  0  0  0  0
  160.0550  207.6040  154.1530 C   0  0  0  0  0  2  0  0  0  0  0  0
  160.0600  207.1070  156.5970 C   0  0  0  0  0  1  0  0  0  0  0  0
  160.1170  208.2020  155.5490 C   0  0  0  0  0  2  0  0  0  0  0  0
  1 19  1  6  0  0  0
  1  5  1  0  0  0  0
  2 16  1  0  0  0  0
  4  1  1  0  0  0  0
  4 12  1  1  0  0  0
  5 11  1  0  0  0  0
  7 15  1  6  0  0  0
  7 27  1  0  0  0  0
  8 11  1  0  0  0  0
  8  6  2  0  0  0  0
  9 14  1  6  0  0  0
  9  7  1  0  0  0  0
 10 21  1  1  0  0  0
 10  3  1  0  0  0  0
 10 22  1  0  0  0  0
 11 28  1  6  0  0  0
 12  8  1  0  0  0  0
 13  2  2  0  0  0  0
 14 23  1  0  0  0  0
 17  3  1  1  0  0  0
 17 26  1  0  0  0  0
 17 20  1  0  0  0  0
 18 13  1  0  0  0  0
 19  2  1  0  0  0  0
 20  4  1  0  0  0  0
 22  9  1  0  0  0  0
 22 20  1  0  0  0  0
 23 15  1  0  0  0  0
 24 27  1  0  0  0  0
 25 18  2  0  0  0  0
 25 26  1  0  0  0  0
 26 19  2  0  0  0  0
 27 12  1  0  0  0  0
 28 30  1  0  0  0  0
 30 29  1  0  0  0  0
M  END
>  <MODEL>
2

>  <REMARK>
 VINA RESULT:      -5.8      2.629      7.165
  Name = 
  2 active torsions:
  status: ('A' for Active; 'I' for Inactive)
    1  A    between atoms: C_11  and  C_28
    2  A    between atoms: C_28  and  C_30
                            x       y       z     vdW  Elec       q    Type
                         _______ _______ _______ _____ _____    ______ ____

>  <TORSDO>
F 2

$$$$
=
 OpenBabel11122412313D

 30 35  0  0  1  0  0  0  0  0999 V2000
  161.1840  205.4440  149.2500 C   0  0  1  0  0  3  0  0  0  0  0  0
  161.1960  202.8940  148.9670 C   0  0  0  0  0  0  0  0  0  0  0  0
  160.9090  204.9750  153.3490 N   0  0  0  0  0  2  0  0  0  0  0  0
  161.6220  206.4840  150.3010 C   0  0  1  0  0  3  0  0  0  0  0  0
  162.0260  205.5510  148.1240 O   0  0  0  0  0  0  0  0  0  0  0  0
  161.8620  209.0970  147.7570 O   0  0  0  0  0  0  0  0  0  0  0  0
  160.5510  209.2910  151.4920 C   0  0  1  0  0  3  0  0  0  0  0  0
  161.7320  207.9620  148.2910 C   0  0  0  0  0  0  0  0  0  0  0  0
  160.4820  208.4910  152.7270 N   0  0  2  0  0  0  0  0  0  0  0  0
  160.9410  206.3260  153.8830 C   0  0  1  0  0  3  0  0  0  0  0  0
  161.6900  206.7340  147.4180 C   0  0  2  0  0  3  0  0  0  0  0  0
  161.5910  207.8340  149.7170 N   0  0  0  0  0  0  0  0  0  0  0  0
  161.1070  201.6090  149.5110 C   0  0  0  0  0  3  0  0  0  0  0  0
  161.0830  209.3500  153.7370 C   0  0  0  0  0  2  0  0  0  0  0  0
  160.5600  210.7330  151.9410 C   0  0  0  0  0  2  0  0  0  0  0  0
  161.3390  203.0280  147.5910 O   0  0  0  0  0  1  0  0  0  0  0  0
  160.7850  205.0110  152.0680 C   0  0  1  0  0  3  0  0  0  0  0  0
  160.9290  201.4310  150.8830 C   0  0  0  0  0  3  0  0  0  0  0  0
  161.1340  204.0260  149.8090 C   0  0  0  0  0  0  0  0  0  0  0  0
  160.7080  206.3760  151.5090 C   0  0  1  0  0  3  0  0  0  0  0  0
  162.0710  206.4500  154.8870 C   0  0  0  0  0  1  0  0  0  0  0  0
  161.2110  207.2190  152.6650 C   0  0  1  0  0  3  0  0  0  0  0  0
  160.8520  210.7410  153.3670 N   0  0  0  0  0  2  0  0  0  0  0  0
  163.1280  209.0850  151.2130 C   0  0  0  0  0  1  0  0  0  0  0  0
  160.8230  202.5390  151.7230 C   0  0  0  0  0  3  0  0  0  0  0  0
  160.9020  203.8330  151.1940 C   0  0  0  0  0  0  0  0  0  0  0  0
  161.7560  209.0330  150.5480 C   0  0  2  0  0  3  0  0  0  0  0  0
  160.3490  206.6130  146.6900 C   0  0  0  0  0  2  0  0  0  0  0  0
  161.4910  205.9770  144.5660 C   0  0  0  0  0  1  0  0  0  0  0  0
  160.4240  205.5860  145.5710 C   0  0  0  0  0  2  0  0  0  0  0  0
  1  5  1  6  0  0  0
  1 19  1  0  0  0  0
  1  4  1  0  0  0  0
  2 13  2  0  0  0  0
  2 19  1  0  0  0  0
  3 10  1  0  0  0  0
  4 12  1  6  0  0  0
  4 20  1  0  0  0  0
  6  8  2  0  0  0  0
  7 15  1  1  0  0  0
  7  9  1  0  0  0  0
  8 12  1  0  0  0  0
  9 14  1  1  0  0  0
 10 21  1  1  0  0  0
 11 28  1  1  0  0  0
 11  5  1  0  0  0  0
 11  8  1  0  0  0  0
 12 27  1  0  0  0  0
 13 18  1  0  0  0  0
 15 23  1  0  0  0  0
 16  2  1  0  0  0  0
 17 26  1  6  0  0  0
 17  3  1  0  0  0  0
 18 25  2  0  0  0  0
 19 26  2  0  0  0  0
 20 17  1  0  0  0  0
 20 22  1  0  0  0  0
 22  9  1  0  0  0  0
 22 10  1  0  0  0  0
 23 14  1  0  0  0  0
 26 25  1  0  0  0  0
 27 24  1  0  0  0  0
 27  7  1  0  0  0  0
 29 30  1  0  0  0  0
 30 28  1  0  0  0  0
M  END
>  <MODEL>
3

>  <REMARK>
 VINA RESULT:      -5.3      1.155      1.382
  Name = 
  2 active torsions:
  status: ('A' for Active; 'I' for Inactive)
    1  A    between atoms: C_11  and  C_28
    2  A    between atoms: C_28  and  C_30
                            x       y       z     vdW  Elec       q    Type
                         _______ _______ _______ _____ _____    ______ ____

>  <TORSDO>
F 2

$$$$
=
 OpenBabel11122412313D

 30 35  0  0  1  0  0  0  0  0999 V2000
  161.5400  208.1930  149.2000 C   0  0  1  0  0  3  0  0  0  0  0  0
  161.7900  206.1540  147.6630 C   0  0  0  0  0  0  0  0  0  0  0  0
  160.8110  205.6750  152.3980 N   0  0  0  0  0  2  0  0  0  0  0  0
  161.7630  208.5440  150.6850 C   0  0  1  0  0  3  0  0  0  0  0  0
  162.5010  208.8700  148.4220 O   0  0  0  0  0  0  0  0  0  0  0  0
  162.0980  212.0960  149.8930 O   0  0  0  0  0  0  0  0  0  0  0  0
  160.3360  210.3270  152.9700 C   0  0  1  0  0  3  0  0  0  0  0  0
  161.9960  210.8480  149.7490 C   0  0  0  0  0  0  0  0  0  0  0  0
  160.1820  209.0050  153.6000 N   0  0  2  0  0  0  0  0  0  0  0  0
  160.6700  206.5570  153.5440 C   0  0  1  0  0  3  0  0  0  0  0  0
  162.1590  210.2460  148.3760 C   0  0  2  0  0  3  0  0  0  0  0  0
  161.6950  210.0010  150.8730 N   0  0  0  0  0  0  0  0  0  0  0  0
  161.7390  204.7720  147.4560 C   0  0  0  0  0  3  0  0  0  0  0  0
  160.5850  209.2240  154.9820 C   0  0  0  0  0  2  0  0  0  0  0  0
  160.1750  211.3320  154.0870 C   0  0  0  0  0  2  0  0  0  0  0  0
  162.0860  206.9780  146.5840 O   0  0  0  0  0  1  0  0  0  0  0  0
  160.8390  206.3650  151.3120 C   0  0  1  0  0  3  0  0  0  0  0  0
  161.4120  203.9100  148.5040 C   0  0  0  0  0  3  0  0  0  0  0  0
  161.5360  206.6890  148.9450 C   0  0  0  0  0  0  0  0  0  0  0  0
  160.7220  207.8220  151.5220 C   0  0  1  0  0  3  0  0  0  0  0  0
  161.6570  206.1530  154.6220 C   0  0  0  0  0  1  0  0  0  0  0  0
  161.0130  207.9520  153.0050 C   0  0  1  0  0  3  0  0  0  0  0  0
  160.2900  210.6050  155.3430 N   0  0  0  0  0  2  0  0  0  0  0  0
  162.9350  210.3120  153.0020 C   0  0  0  0  0  1  0  0  0  0  0  0
  161.1170  204.4260  149.7650 C   0  0  0  0  0  3  0  0  0  0  0  0
  161.1560  205.8070  149.9870 C   0  0  0  0  0  0  0  0  0  0  0  0
  161.6620  210.6020  152.2130 C   0  0  2  0  0  3  0  0  0  0  0  0
  160.9290  210.5090  147.5030 C   0  0  0  0  0  2  0  0  0  0  0  0
  159.6190  212.6000  147.1440 C   0  0  0  0  0  1  0  0  0  0  0  0
  160.9560  211.9160  146.9300 C   0  0  0  0  0  2  0  0  0  0  0  0
  1  5  1  6  0  0  0
  1  4  1  0  0  0  0
  2 19  1  0  0  0  0
  3 10  1  0  0  0  0
  4 12  1  6  0  0  0
  4 20  1  0  0  0  0
  7  9  1  0  0  0  0
  7 15  1  1  0  0  0
  8  6  2  0  0  0  0
  8 12  1  0  0  0  0
  9 14  1  1  0  0  0
 10 21  1  1  0  0  0
 11 28  1  6  0  0  0
 11  5  1  0  0  0  0
 11  8  1  0  0  0  0
 12 27  1  0  0  0  0
 13  2  2  0  0  0  0
 13 18  1  0  0  0  0
 14 23  1  0  0  0  0
 15 23  1  0  0  0  0
 16  2  1  0  0  0  0
 17 26  1  1  0  0  0
 17 20  1  0  0  0  0
 17  3  1  0  0  0  0
 18 25  2  0  0  0  0
 19  1  1  0  0  0  0
 19 26  2  0  0  0  0
 20 22  1  0  0  0  0
 22 10  1  0  0  0  0
 22  9  1  0  0  0  0
 25 26  1  0  0  0  0
 27  7  1  0  0  0  0
 27 24  1  0  0  0  0
 30 29  1  0  0  0  0
 30 28  1  0  0  0  0
M  END
>  <MODEL>
4

>  <REMARK>
 VINA RESULT:      -4.8      1.805      2.698
  Name = 
  2 active torsions:
  status: ('A' for Active; 'I' for Inactive)
    1  A    between atoms: C_11  and  C_28
    2  A    between atoms: C_28  and  C_30
                            x       y       z     vdW  Elec       q    Type
                         _______ _______ _______ _____ _____    ______ ____

>  <TORSDO>
F 2

$$$$
