=
 OpenBabel11122412373D

 30 35  0  0  1  0  0  0  0  0999 V2000
  161.2090  205.6770  149.9750 C   0  0  0  0  0  0  0  0  0  0  0  0
  160.9050  203.1800  149.8980 C   0  0  0  0  0  0  0  0  0  0  0  0
  161.2540  205.6000  154.1810 N   0  0  0  0  0  2  0  0  0  0  0  0
  161.3360  206.8670  150.7530 C   0  0  0  0  0  0  0  0  0  0  0  0
  161.2470  205.7890  148.5800 C   0  0  0  0  0  3  0  0  0  0  0  0
  161.6140  209.4180  148.0650 O   0  0  0  0  0  1  0  0  0  0  0  0
  160.3360  209.5610  151.8820 C   0  0  1  0  0  3  0  0  0  0  0  0
  161.4900  208.1870  148.7050 C   0  0  0  0  0  0  0  0  0  0  0  0
  160.4780  208.8260  153.1600 N   0  0  2  0  0  0  0  0  0  0  0  0
  161.4840  206.9810  154.4290 C   0  0  0  0  0  0  0  0  0  0  0  0
  161.3940  207.0230  147.9390 C   0  0  0  0  0  0  0  0  0  0  0  0
  161.4520  208.1250  150.1080 C   0  0  0  0  0  0  0  0  0  0  0  0
  160.7600  201.9740  150.5870 C   0  0  0  0  0  3  0  0  0  0  0  0
  160.7720  209.8560  154.1510 C   0  0  0  0  0  2  0  0  0  0  0  0
  160.0880  211.0260  152.1940 C   0  0  0  0  0  2  0  0  0  0  0  0
  160.9010  203.1310  148.5090 O   0  0  0  0  0  1  0  0  0  0  0  0
  161.1810  205.5220  152.7670 C   0  0  0  0  0  0  0  0  0  0  0  0
  160.7540  201.9420  151.9800 C   0  0  0  0  0  3  0  0  0  0  0  0
  161.0490  204.4040  150.6120 C   0  0  0  0  0  0  0  0  0  0  0  0
  161.3260  206.7480  152.1540 C   0  0  0  0  0  0  0  0  0  0  0  0
  161.6580  207.4320  155.5920 O   0  0  0  0  0  0  0  0  0  0  0  0
  161.5520  207.8210  153.1830 C   0  0  1  0  0  3  0  0  0  0  0  0
  160.0900  211.1210  153.6960 C   0  0  0  0  0  2  0  0  0  0  0  0
  162.8740  209.7780  151.3900 C   0  0  0  0  0  1  0  0  0  0  0  0
  160.8920  203.1240  152.7010 C   0  0  0  0  0  3  0  0  0  0  0  0
  161.0360  204.3460  152.0360 C   0  0  0  0  0  0  0  0  0  0  0  0
  161.4870  209.4240  150.8650 C   0  0  2  0  0  3  0  0  0  0  0  0
  161.4350  207.1150  146.5070 N   0  0  0  0  0  0  0  0  0  0  0  0
  161.0240  206.3680  144.3470 O   0  0  0  0  0  1  0  0  0  0  0  0
  160.9480  206.2090  145.7230 C   0  0  0  0  0  3  0  0  0  0  0  0
  1 19  2  0  0  0  0
  1  4  1  0  0  0  0
  2 13  2  0  0  0  0
  2 19  1  0  0  0  0
  3 10  1  0  0  0  0
  4 20  2  0  0  0  0
  5  1  1  0  0  0  0
  6  8  1  0  0  0  0
  7 15  1  1  0  0  0
  7  9  1  0  0  0  0
  8 12  2  0  0  0  0
  9 22  1  0  0  0  0
  9 14  1  1  0  0  0
 10 21  2  0  0  0  0
 11  5  2  0  0  0  0
 11  8  1  0  0  0  0
 12  4  1  0  0  0  0
 12 27  1  0  0  0  0
 13 18  1  0  0  0  0
 15 23  1  0  0  0  0
 16  2  1  0  0  0  0
 17  3  1  0  0  0  0
 18 25  2  0  0  0  0
 19 26  1  0  0  0  0
 20 17  1  0  0  0  0
 22 20  1  6  0  0  0
 22 10  1  0  0  0  0
 23 14  1  0  0  0  0
 26 25  1  0  0  0  0
 26 17  2  0  0  0  0
 27 24  1  1  0  0  0
 27  7  1  0  0  0  0
 28 11  1  0  0  0  0
 29 30  1  0  0  0  0
 30 28  2  0  0  0  0
M  END
>  <MODEL>
1

>  <REMARK>
 VINA RESULT:      -7.6      0.000      0.000
  Name = 
  1 active torsions:
  status: ('A' for Active; 'I' for Inactive)
    1  A    between atoms: C_11  and  N_28
                            x       y       z     vdW  Elec       q    Type
                         _______ _______ _______ _____ _____    ______ ____

>  <TORSDO>
F 1

$$$$
=
 OpenBabel11122412373D

 30 35  0  0  1  0  0  0  0  0999 V2000
  161.5610  207.9320  149.6810 C   0  0  0  0  0  0  0  0  0  0  0  0
  161.5260  205.9600  148.1180 C   0  0  0  0  0  0  0  0  0  0  0  0
  161.0510  205.3880  152.9940 N   0  0  0  0  0  2  0  0  0  0  0  0
  161.4610  208.4340  151.0140 C   0  0  0  0  0  0  0  0  0  0  0  0
  161.7730  208.8450  148.6410 C   0  0  0  0  0  3  0  0  0  0  0  0
  161.8340  212.0800  150.4020 O   0  0  0  0  0  1  0  0  0  0  0  0
  160.0500  209.9390  153.3100 C   0  0  1  0  0  3  0  0  0  0  0  0
  161.7510  210.7080  150.1760 C   0  0  0  0  0  0  0  0  0  0  0  0
  160.0940  208.5920  153.9250 N   0  0  2  0  0  0  0  0  0  0  0  0
  161.1050  206.3570  154.0320 C   0  0  0  0  0  0  0  0  0  0  0  0
  161.8780  210.2200  148.8730 C   0  0  0  0  0  0  0  0  0  0  0  0
  161.5330  209.8310  151.2510 C   0  0  0  0  0  0  0  0  0  0  0  0
  161.4130  204.5790  147.9420 C   0  0  0  0  0  3  0  0  0  0  0  0
  160.1470  208.8400  155.3620 C   0  0  0  0  0  2  0  0  0  0  0  0
  159.6140  210.9370  154.3690 C   0  0  0  0  0  2  0  0  0  0  0  0
  161.7120  206.7400  146.9820 O   0  0  0  0  0  1  0  0  0  0  0  0
  161.1770  206.1590  151.8100 C   0  0  0  0  0  0  0  0  0  0  0  0
  161.2250  203.7320  149.0310 C   0  0  0  0  0  3  0  0  0  0  0  0
  161.4480  206.5270  149.4220 C   0  0  0  0  0  0  0  0  0  0  0  0
  161.2760  207.5110  152.0580 C   0  0  0  0  0  0  0  0  0  0  0  0
  161.0750  206.0360  155.2500 O   0  0  0  0  0  0  0  0  0  0  0  0
  161.2530  207.7710  153.5390 C   0  0  1  0  0  3  0  0  0  0  0  0
  159.4060  210.1270  155.6200 C   0  0  0  0  0  2  0  0  0  0  0  0
  162.5960  210.4140  153.4710 C   0  0  0  0  0  1  0  0  0  0  0  0
  161.1450  204.2610  150.3150 C   0  0  0  0  0  3  0  0  0  0  0  0
  161.2510  205.6410  150.5200 C   0  0  0  0  0  0  0  0  0  0  0  0
  161.3340  210.4330  152.6150 C   0  0  2  0  0  3  0  0  0  0  0  0
  162.0990  211.1400  147.7940 N   0  0  0  0  0  0  0  0  0  0  0  0
  161.4640  212.7730  146.2690 O   0  0  0  0  0  1  0  0  0  0  0  0
  161.1750  211.9090  147.3160 C   0  0  0  0  0  3  0  0  0  0  0  0
  1  4  1  0  0  0  0
  2 19  1  0  0  0  0
  3 10  1  0  0  0  0
  4 12  1  0  0  0  0
  4 20  2  0  0  0  0
  5 11  2  0  0  0  0
  5  1  1  0  0  0  0
  7  9  1  0  0  0  0
  7 15  1  1  0  0  0
  8  6  1  0  0  0  0
  8 12  2  0  0  0  0
  9 14  1  1  0  0  0
 10 21  2  0  0  0  0
 11  8  1  0  0  0  0
 12 27  1  0  0  0  0
 13  2  2  0  0  0  0
 13 18  1  0  0  0  0
 14 23  1  0  0  0  0
 15 23  1  0  0  0  0
 16  2  1  0  0  0  0
 17 20  1  0  0  0  0
 17  3  1  0  0  0  0
 18 25  2  0  0  0  0
 19  1  2  0  0  0  0
 19 26  1  0  0  0  0
 22 20  1  6  0  0  0
 22  9  1  0  0  0  0
 22 10  1  0  0  0  0
 25 26  1  0  0  0  0
 26 17  2  0  0  0  0
 27  7  1  0  0  0  0
 27 24  1  1  0  0  0
 28 11  1  0  0  0  0
 29 30  1  0  0  0  0
 30 28  2  0  0  0  0
M  END
>  <MODEL>
2

>  <REMARK>
 VINA RESULT:      -7.5      1.862      2.915
  Name = 
  1 active torsions:
  status: ('A' for Active; 'I' for Inactive)
    1  A    between atoms: C_11  and  N_28
                            x       y       z     vdW  Elec       q    Type
                         _______ _______ _______ _____ _____    ______ ____

>  <TORSDO>
F 1

$$$$
=
 OpenBabel11122412373D

 30 35  0  0  1  0  0  0  0  0999 V2000
  161.4580  207.8640  151.4410 C   0  0  0  0  0  0  0  0  0  0  0  0
  161.5810  210.3280  150.9440 C   0  0  0  0  0  0  0  0  0  0  0  0
  162.3310  206.9540  147.4270 N   0  0  0  0  0  2  0  0  0  0  0  0
  161.5260  206.5200  150.9670 C   0  0  0  0  0  0  0  0  0  0  0  0
  161.2040  208.0770  152.8010 C   0  0  0  0  0  3  0  0  0  0  0  0
  160.8310  204.6510  154.1030 O   0  0  0  0  0  1  0  0  0  0  0  0
  160.3130  203.7850  150.2030 C   0  0  1  0  0  3  0  0  0  0  0  0
  161.0480  205.7050  153.2180 C   0  0  0  0  0  0  0  0  0  0  0  0
  160.8260  204.1780  148.8710 N   0  0  2  0  0  0  0  0  0  0  0  0
  162.3630  205.5350  147.5200 C   0  0  0  0  0  0  0  0  0  0  0  0
  161.0090  207.0180  153.6930 C   0  0  0  0  0  0  0  0  0  0  0  0
  161.2950  205.4420  151.8600 C   0  0  0  0  0  0  0  0  0  0  0  0
  161.7830  211.3500  150.0120 C   0  0  0  0  0  3  0  0  0  0  0  0
  161.1240  202.9170  148.2000 C   0  0  0  0  0  2  0  0  0  0  0  0
  159.8810  202.3310  150.1430 C   0  0  0  0  0  2  0  0  0  0  0  0
  161.3160  210.7000  152.2570 O   0  0  0  0  0  1  0  0  0  0  0  0
  162.0000  207.3670  148.7420 C   0  0  0  0  0  0  0  0  0  0  0  0
  162.0530  211.0570  148.6780 C   0  0  0  0  0  3  0  0  0  0  0  0
  161.6480  208.9640  150.5420 C   0  0  0  0  0  0  0  0  0  0  0  0
  161.8090  206.3100  149.6050 C   0  0  0  0  0  0  0  0  0  0  0  0
  162.6780  204.8080  146.5420 O   0  0  0  0  0  0  0  0  0  0  0  0
  162.0420  205.0070  148.8920 C   0  0  1  0  0  3  0  0  0  0  0  0
  160.1580  201.8890  148.7310 C   0  0  0  0  0  2  0  0  0  0  0  0
  162.6310  203.3710  151.2930 C   0  0  0  0  0  1  0  0  0  0  0  0
  162.1230  209.7320  148.2590 C   0  0  0  0  0  3  0  0  0  0  0  0
  161.9210  208.6900  149.1710 C   0  0  0  0  0  0  0  0  0  0  0  0
  161.2510  204.0090  151.4070 C   0  0  2  0  0  3  0  0  0  0  0  0
  160.7540  207.2570  155.0850 N   0  0  0  0  0  0  0  0  0  0  0  0
  160.9190  208.4500  157.0700 O   0  0  0  0  0  1  0  0  0  0  0  0
  161.2070  208.2870  155.7230 C   0  0  0  0  0  3  0  0  0  0  0  0
  1  5  2  0  0  0  0
  2 16  1  0  0  0  0
  3 10  1  0  0  0  0
  3 17  1  0  0  0  0
  4  1  1  0  0  0  0
  4 12  2  0  0  0  0
  5 11  1  0  0  0  0
  7 15  1  6  0  0  0
  7 27  1  0  0  0  0
  8 11  2  0  0  0  0
  8  6  1  0  0  0  0
  9 14  1  6  0  0  0
  9 22  1  0  0  0  0
  9  7  1  0  0  0  0
 11 28  1  0  0  0  0
 12  8  1  0  0  0  0
 13  2  2  0  0  0  0
 14 23  1  0  0  0  0
 17 26  1  0  0  0  0
 17 20  2  0  0  0  0
 18 13  1  0  0  0  0
 19  2  1  0  0  0  0
 19  1  1  0  0  0  0
 20  4  1  0  0  0  0
 21 10  2  0  0  0  0
 22 10  1  6  0  0  0
 22 20  1  0  0  0  0
 23 15  1  0  0  0  0
 25 18  2  0  0  0  0
 25 26  1  0  0  0  0
 26 19  2  0  0  0  0
 27 24  1  6  0  0  0
 27 12  1  0  0  0  0
 28 30  2  0  0  0  0
 30 29  1  0  0  0  0
M  END
>  <MODEL>
3

>  <REMARK>
 VINA RESULT:      -7.0      1.886      7.283
  Name = 
  1 active torsions:
  status: ('A' for Active; 'I' for Inactive)
    1  A    between atoms: C_11  and  N_28
                            x       y       z     vdW  Elec       q    Type
                         _______ _______ _______ _____ _____    ______ ____

>  <TORSDO>
F 1

$$$$
=
 OpenBabel11122412373D

 30 35  0  0  1  0  0  0  0  0999 V2000
  161.4520  208.1780  151.2600 C   0  0  0  0  0  0  0  0  0  0  0  0
  161.4040  208.4940  153.7560 C   0  0  0  0  0  0  0  0  0  0  0  0
  160.5320  204.0960  151.7010 N   0  0  0  0  0  2  0  0  0  0  0  0
  161.3390  207.3020  150.1390 C   0  0  0  0  0  0  0  0  0  0  0  0
  161.7190  209.5320  151.0210 C   0  0  0  0  0  3  0  0  0  0  0  0
  161.9900  209.6700  147.3500 O   0  0  0  0  0  1  0  0  0  0  0  0
  162.4630  205.6910  147.7570 C   0  0  1  0  0  3  0  0  0  0  0  0
  161.8020  209.1690  148.6360 C   0  0  0  0  0  0  0  0  0  0  0  0
  161.9560  204.5600  148.5680 N   0  0  2  0  0  0  0  0  0  0  0  0
  160.4560  203.7340  150.3280 C   0  0  0  0  0  0  0  0  0  0  0  0
  161.8850  210.0370  149.7280 C   0  0  0  0  0  0  0  0  0  0  0  0
  161.5410  207.8020  148.8270 C   0  0  0  0  0  0  0  0  0  0  0  0
  161.2300  207.9390  155.0260 C   0  0  0  0  0  3  0  0  0  0  0  0
  161.6150  203.5270  147.5960 C   0  0  0  0  0  2  0  0  0  0  0  0
  162.8490  205.1640  146.3860 C   0  0  0  0  0  2  0  0  0  0  0  0
  161.6870  209.8530  153.6820 O   0  0  0  0  0  1  0  0  0  0  0  0
  160.8820  205.4700  151.6640 C   0  0  0  0  0  0  0  0  0  0  0  0
  160.9440  206.5850  155.1820 C   0  0  0  0  0  3  0  0  0  0  0  0
  161.2930  207.6790  152.5940 C   0  0  0  0  0  0  0  0  0  0  0  0
  161.0440  205.9490  150.3820 C   0  0  0  0  0  0  0  0  0  0  0  0
  160.1140  202.5790  149.9590 O   0  0  0  0  0  0  0  0  0  0  0  0
  160.7670  204.8610  149.3810 C   0  0  1  0  0  3  0  0  0  0  0  0
  162.5510  203.6890  146.4250 C   0  0  0  0  0  2  0  0  0  0  0  0
  160.1380  206.6250  147.0830 C   0  0  0  0  0  1  0  0  0  0  0  0
  160.8310  205.7670  154.0620 C   0  0  0  0  0  3  0  0  0  0  0  0
  161.0050  206.2960  152.7780 C   0  0  0  0  0  0  0  0  0  0  0  0
  161.5380  206.9160  147.6120 C   0  0  2  0  0  3  0  0  0  0  0  0
  162.1540  211.4290  149.5030 N   0  0  0  0  0  0  0  0  0  0  0  0
  161.5710  213.6220  149.0110 O   0  0  0  0  0  1  0  0  0  0  0  0
  161.2340  212.2920  149.2150 C   0  0  0  0  0  3  0  0  0  0  0  0
  1 19  1  0  0  0  0
  2 13  1  0  0  0  0
  4 20  1  0  0  0  0
  4  1  2  0  0  0  0
  5  1  1  0  0  0  0
  6  8  1  0  0  0  0
  7 15  1  6  0  0  0
  7  9  1  0  0  0  0
  8 12  2  0  0  0  0
  8 11  1  0  0  0  0
  9 14  1  6  0  0  0
  9 22  1  0  0  0  0
 10  3  1  0  0  0  0
 11  5  2  0  0  0  0
 12  4  1  0  0  0  0
 13 18  2  0  0  0  0
 15 23  1  0  0  0  0
 16  2  1  0  0  0  0
 17  3  1  0  0  0  0
 17 26  1  0  0  0  0
 19 26  1  0  0  0  0
 19  2  2  0  0  0  0
 20 17  2  0  0  0  0
 21 10  2  0  0  0  0
 22 10  1  1  0  0  0
 22 20  1  0  0  0  0
 23 14  1  0  0  0  0
 25 18  1  0  0  0  0
 26 25  2  0  0  0  0
 27 24  1  1  0  0  0
 27  7  1  0  0  0  0
 27 12  1  0  0  0  0
 28 11  1  0  0  0  0
 29 30  1  0  0  0  0
 30 28  2  0  0  0  0
M  END
>  <MODEL>
4

>  <REMARK>
 VINA RESULT:      -6.9      2.050      5.647
  Name = 
  1 active torsions:
  status: ('A' for Active; 'I' for Inactive)
    1  A    between atoms: C_11  and  N_28
                            x       y       z     vdW  Elec       q    Type
                         _______ _______ _______ _____ _____    ______ ____

>  <TORSDO>
F 1

$$$$
=
 OpenBabel11122412373D

 30 35  0  0  1  0  0  0  0  0999 V2000
  160.7740  210.5540  151.6900 C   0  0  0  0  0  0  0  0  0  0  0  0
  161.9290  208.6770  150.4750 C   0  0  0  0  0  0  0  0  0  0  0  0
  160.5110  208.2120  155.1760 N   0  0  0  0  0  2  0  0  0  0  0  0
  160.1480  211.0340  152.8800 C   0  0  0  0  0  0  0  0  0  0  0  0
  160.8560  211.4140  150.5890 C   0  0  0  0  0  3  0  0  0  0  0  0
  159.1660  214.4530  151.8060 O   0  0  0  0  0  1  0  0  0  0  0  0
  157.7220  211.9100  154.5760 C   0  0  1  0  0  3  0  0  0  0  0  0
  159.7010  213.1670  151.7810 C   0  0  0  0  0  0  0  0  0  0  0  0
  158.1460  210.7450  155.3860 N   0  0  2  0  0  0  0  0  0  0  0  0
  159.9070  209.1640  156.0410 C   0  0  0  0  0  0  0  0  0  0  0  0
  160.3380  212.7130  150.6230 C   0  0  0  0  0  0  0  0  0  0  0  0
  159.5910  212.3380  152.9100 C   0  0  0  0  0  0  0  0  0  0  0  0
  162.4290  207.3720  150.4930 C   0  0  0  0  0  3  0  0  0  0  0  0
  157.7310  211.0670  156.7470 C   0  0  0  0  0  2  0  0  0  0  0  0
  156.6710  212.6800  155.3550 C   0  0  0  0  0  2  0  0  0  0  0  0
  162.0660  209.4010  149.2970 O   0  0  0  0  0  1  0  0  0  0  0  0
  160.6100  208.9000  153.9400 C   0  0  0  0  0  0  0  0  0  0  0  0
  162.3290  206.5840  151.6370 C   0  0  0  0  0  3  0  0  0  0  0  0
  161.3040  209.2230  151.6320 C   0  0  0  0  0  0  0  0  0  0  0  0
  160.0920  210.1760  153.9920 C   0  0  0  0  0  0  0  0  0  0  0  0
  159.7020  208.9250  157.2610 O   0  0  0  0  0  0  0  0  0  0  0  0
  159.5940  210.4780  155.3780 C   0  0  1  0  0  3  0  0  0  0  0  0
  156.4960  211.9260  156.6450 C   0  0  0  0  0  2  0  0  0  0  0  0
  159.7320  213.4340  155.1840 C   0  0  0  0  0  1  0  0  0  0  0  0
  161.7220  207.0950  152.7800 C   0  0  0  0  0  3  0  0  0  0  0  0
  161.2090  208.3960  152.7880 C   0  0  0  0  0  0  0  0  0  0  0  0
  158.8300  212.8680  154.0930 C   0  0  2  0  0  3  0  0  0  0  0  0
  160.4360  213.5810  149.4850 N   0  0  0  0  0  0  0  0  0  0  0  0
  161.2120  214.2070  147.3870 O   0  0  0  0  0  1  0  0  0  0  0  0
  161.1670  213.3170  148.4510 C   0  0  0  0  0  3  0  0  0  0  0  0
  1  4  1  0  0  0  0
  2 13  2  0  0  0  0
  2 19  1  0  0  0  0
  3 10  1  0  0  0  0
  4 12  1  0  0  0  0
  4 20  2  0  0  0  0
  5 11  2  0  0  0  0
  5  1  1  0  0  0  0
  7 15  1  1  0  0  0
  7  9  1  0  0  0  0
  8  6  1  0  0  0  0
  8 12  2  0  0  0  0
  9 14  1  1  0  0  0
 10 21  2  0  0  0  0
 11  8  1  0  0  0  0
 12 27  1  0  0  0  0
 13 18  1  0  0  0  0
 15 23  1  0  0  0  0
 16  2  1  0  0  0  0
 17 20  1  0  0  0  0
 17  3  1  0  0  0  0
 18 25  2  0  0  0  0
 19  1  2  0  0  0  0
 19 26  1  0  0  0  0
 22 20  1  6  0  0  0
 22  9  1  0  0  0  0
 22 10  1  0  0  0  0
 23 14  1  0  0  0  0
 25 26  1  0  0  0  0
 26 17  2  0  0  0  0
 27  7  1  0  0  0  0
 27 24  1  1  0  0  0
 28 11  1  0  0  0  0
 29 30  1  0  0  0  0
 30 28  2  0  0  0  0
M  END
>  <MODEL>
5

>  <REMARK>
 VINA RESULT:      -6.1      3.221      5.301
  Name = 
  1 active torsions:
  status: ('A' for Active; 'I' for Inactive)
    1  A    between atoms: C_11  and  N_28
                            x       y       z     vdW  Elec       q    Type
                         _______ _______ _______ _____ _____    ______ ____

>  <TORSDO>
F 1

$$$$
=
 OpenBabel11122412373D

 30 35  0  0  1  0  0  0  0  0999 V2000
  161.3130  209.8120  151.2190 C   0  0  0  0  0  0  0  0  0  0  0  0
  161.9560  210.3560  148.8480 C   0  0  0  0  0  0  0  0  0  0  0  0
  159.7160  213.6700  151.7330 N   0  0  0  0  0  2  0  0  0  0  0  0
  160.7470  210.2380  152.4580 C   0  0  0  0  0  0  0  0  0  0  0  0
  161.7840  208.4960  151.1220 C   0  0  0  0  0  3  0  0  0  0  0  0
  161.1520  207.1560  154.4940 O   0  0  0  0  0  1  0  0  0  0  0  0
  160.8850  211.0650  155.4300 C   0  0  1  0  0  3  0  0  0  0  0  0
  161.1920  208.0380  153.4170 C   0  0  0  0  0  0  0  0  0  0  0  0
  160.3760  212.3380  154.8710 N   0  0  2  0  0  0  0  0  0  0  0  0
  159.2270  213.5360  153.0610 C   0  0  0  0  0  0  0  0  0  0  0  0
  161.7210  207.6060  152.1980 C   0  0  0  0  0  0  0  0  0  0  0  0
  160.7120  209.3500  153.5640 C   0  0  0  0  0  0  0  0  0  0  0  0
  161.9940  211.2850  147.8050 C   0  0  0  0  0  3  0  0  0  0  0  0
  159.5990  212.9360  155.9510 C   0  0  0  0  0  2  0  0  0  0  0  0
  160.8000  211.1360  156.9440 C   0  0  0  0  0  2  0  0  0  0  0  0
  162.4840  209.0930  148.6030 O   0  0  0  0  0  1  0  0  0  0  0  0
  160.3200  212.4140  151.4710 C   0  0  0  0  0  0  0  0  0  0  0  0
  161.4860  212.5700  147.9730 C   0  0  0  0  0  3  0  0  0  0  0  0
  161.3930  210.7110  150.1070 C   0  0  0  0  0  0  0  0  0  0  0  0
  160.2510  211.5510  152.5440 C   0  0  0  0  0  0  0  0  0  0  0  0
  158.5740  214.4510  153.6290 O   0  0  0  0  0  0  0  0  0  0  0  0
  159.5160  212.1970  153.6850 C   0  0  1  0  0  3  0  0  0  0  0  0
  160.2260  212.4930  157.2490 C   0  0  0  0  0  2  0  0  0  0  0  0
  158.7080  209.7010  155.0650 C   0  0  0  0  0  1  0  0  0  0  0  0
  160.9310  212.9420  149.1940 C   0  0  0  0  0  3  0  0  0  0  0  0
  160.8830  212.0330  150.2560 C   0  0  0  0  0  0  0  0  0  0  0  0
  160.2240  209.7660  154.9240 C   0  0  2  0  0  3  0  0  0  0  0  0
  162.2050  206.2600  152.0760 N   0  0  0  0  0  0  0  0  0  0  0  0
  161.9940  203.9900  151.6330 O   0  0  0  0  0  1  0  0  0  0  0  0
  161.4550  205.2650  151.7280 C   0  0  0  0  0  3  0  0  0  0  0  0
  1  4  1  0  0  0  0
  2 19  1  0  0  0  0
  3 10  1  0  0  0  0
  4 20  1  0  0  0  0
  4 12  2  0  0  0  0
  5  1  2  0  0  0  0
  5 11  1  0  0  0  0
  7 15  1  1  0  0  0
  8 12  1  0  0  0  0
  8  6  1  0  0  0  0
  9  7  1  0  0  0  0
  9 14  1  1  0  0  0
 10 21  2  0  0  0  0
 10 22  1  0  0  0  0
 11  8  2  0  0  0  0
 12 27  1  0  0  0  0
 13 18  1  0  0  0  0
 13  2  2  0  0  0  0
 14 23  1  0  0  0  0
 15 23  1  0  0  0  0
 16  2  1  0  0  0  0
 17  3  1  0  0  0  0
 17 20  2  0  0  0  0
 18 25  2  0  0  0  0
 19 26  2  0  0  0  0
 19  1  1  0  0  0  0
 22 20  1  6  0  0  0
 22  9  1  0  0  0  0
 25 26  1  0  0  0  0
 26 17  1  0  0  0  0
 27 24  1  6  0  0  0
 27  7  1  0  0  0  0
 28 11  1  0  0  0  0
 29 30  1  0  0  0  0
 30 28  2  0  0  0  0
M  END
>  <MODEL>
6

>  <REMARK>
 VINA RESULT:      -5.4      2.812      6.381
  Name = 
  1 active torsions:
  status: ('A' for Active; 'I' for Inactive)
    1  A    between atoms: C_11  and  N_28
                            x       y       z     vdW  Elec       q    Type
                         _______ _______ _______ _____ _____    ______ ____

>  <TORSDO>
F 1

$$$$
=
 OpenBabel11122412373D

 30 35  0  0  1  0  0  0  0  0999 V2000
  160.7120  210.6330  151.7520 C   0  0  0  0  0  0  0  0  0  0  0  0
  161.8920  208.4470  151.3520 C   0  0  0  0  0  0  0  0  0  0  0  0
  159.6740  209.4260  155.6470 N   0  0  0  0  0  2  0  0  0  0  0  0
  159.9390  211.4610  152.6220 C   0  0  0  0  0  0  0  0  0  0  0  0
  161.0490  211.1300  150.4880 C   0  0  0  0  0  3  0  0  0  0  0  0
  159.4410  214.4450  150.4620 O   0  0  0  0  0  1  0  0  0  0  0  0
  157.3450  212.8730  153.5220 C   0  0  1  0  0  3  0  0  0  0  0  0
  159.8630  213.1920  150.9010 C   0  0  0  0  0  0  0  0  0  0  0  0
  157.5290  211.9840  154.6920 N   0  0  2  0  0  0  0  0  0  0  0  0
  159.0160  210.6090  156.0820 C   0  0  0  0  0  0  0  0  0  0  0  0
  160.6440  212.3980  150.0570 C   0  0  0  0  0  0  0  0  0  0  0  0
  159.4960  212.7340  152.1780 C   0  0  0  0  0  0  0  0  0  0  0  0
  162.2710  207.1900  151.8310 C   0  0  0  0  0  3  0  0  0  0  0  0
  156.9210  212.7040  155.8060 C   0  0  0  0  0  2  0  0  0  0  0  0
  156.2470  213.8710  153.8440 C   0  0  0  0  0  2  0  0  0  0  0  0
  162.2850  208.7890  150.0630 O   0  0  0  0  0  1  0  0  0  0  0  0
  160.0360  209.7180  154.3070 C   0  0  0  0  0  0  0  0  0  0  0  0
  161.9150  206.7750  153.1110 C   0  0  0  0  0  3  0  0  0  0  0  0
  161.1300  209.3290  152.1710 C   0  0  0  0  0  0  0  0  0  0  0  0
  159.6260  210.9700  153.9010 C   0  0  0  0  0  0  0  0  0  0  0  0
  158.5910  210.7450  157.2590 O   0  0  0  0  0  0  0  0  0  0  0  0
  158.9300  211.6800  155.0280 C   0  0  1  0  0  3  0  0  0  0  0  0
  155.7970  213.5340  155.2400 C   0  0  0  0  0  2  0  0  0  0  0  0
  159.3460  214.4430  154.0350 C   0  0  0  0  0  1  0  0  0  0  0  0
  161.1700  207.6180  153.9310 C   0  0  0  0  0  3  0  0  0  0  0  0
  160.7750  208.8800  153.4760 C   0  0  0  0  0  0  0  0  0  0  0  0
  158.5950  213.6110  153.0020 C   0  0  2  0  0  3  0  0  0  0  0  0
  161.0030  212.8910  148.7590 N   0  0  0  0  0  0  0  0  0  0  0  0
  160.7780  213.0830  146.4550 O   0  0  0  0  0  1  0  0  0  0  0  0
  160.3720  212.5660  147.6760 C   0  0  0  0  0  3  0  0  0  0  0  0
  1 19  2  0  0  0  0
  1  4  1  0  0  0  0
  2 13  2  0  0  0  0
  2 19  1  0  0  0  0
  3 10  1  0  0  0  0
  4 20  2  0  0  0  0
  5  1  1  0  0  0  0
  6  8  1  0  0  0  0
  7 15  1  1  0  0  0
  7  9  1  0  0  0  0
  8 12  2  0  0  0  0
  9 22  1  0  0  0  0
  9 14  1  1  0  0  0
 10 21  2  0  0  0  0
 11  5  2  0  0  0  0
 11  8  1  0  0  0  0
 12  4  1  0  0  0  0
 12 27  1  0  0  0  0
 13 18  1  0  0  0  0
 15 23  1  0  0  0  0
 16  2  1  0  0  0  0
 17  3  1  0  0  0  0
 18 25  2  0  0  0  0
 19 26  1  0  0  0  0
 20 17  1  0  0  0  0
 22 20  1  6  0  0  0
 22 10  1  0  0  0  0
 23 14  1  0  0  0  0
 26 25  1  0  0  0  0
 26 17  2  0  0  0  0
 27  7  1  0  0  0  0
 27 24  1  1  0  0  0
 28 11  1  0  0  0  0
 29 30  1  0  0  0  0
 30 28  2  0  0  0  0
M  END
>  <MODEL>
7

>  <REMARK>
 VINA RESULT:      -5.2      3.537      5.398
  Name = 
  1 active torsions:
  status: ('A' for Active; 'I' for Inactive)
    1  A    between atoms: C_11  and  N_28
                            x       y       z     vdW  Elec       q    Type
                         _______ _______ _______ _____ _____    ______ ____

>  <TORSDO>
F 1

$$$$
=
 OpenBabel11122412373D

 30 35  0  0  1  0  0  0  0  0999 V2000
  161.5170  207.8910  150.7570 C   0  0  0  0  0  0  0  0  0  0  0  0
  162.0260  208.7710  148.4550 C   0  0  0  0  0  0  0  0  0  0  0  0
  160.8650  211.8000  152.1700 N   0  0  0  0  0  2  0  0  0  0  0  0
  161.1840  208.1580  152.1190 C   0  0  0  0  0  0  0  0  0  0  0  0
  161.6760  206.5570  150.3610 C   0  0  0  0  0  3  0  0  0  0  0  0
  161.1030  204.7070  153.4940 O   0  0  0  0  0  1  0  0  0  0  0  0
  161.7940  208.3170  155.1410 C   0  0  1  0  0  3  0  0  0  0  0  0
  161.2290  205.7640  152.5970 C   0  0  0  0  0  0  0  0  0  0  0  0
  161.5250  209.7520  154.8960 N   0  0  2  0  0  0  0  0  0  0  0  0
  160.4920  211.4960  153.5080 C   0  0  0  0  0  0  0  0  0  0  0  0
  161.5260  205.4950  151.2580 C   0  0  0  0  0  0  0  0  0  0  0  0
  161.0650  207.0870  153.0420 C   0  0  0  0  0  0  0  0  0  0  0  0
  162.1630  209.8680  147.6000 C   0  0  0  0  0  3  0  0  0  0  0  0
  161.0080  210.2570  156.1640 C   0  0  0  0  0  2  0  0  0  0  0  0
  161.8770  208.0930  156.6410 C   0  0  0  0  0  2  0  0  0  0  0  0
  162.2360  207.5070  147.9170 O   0  0  0  0  0  1  0  0  0  0  0  0
  161.1490  210.5300  151.6070 C   0  0  0  0  0  0  0  0  0  0  0  0
  161.9680  211.1660  148.0640 C   0  0  0  0  0  3  0  0  0  0  0  0
  161.6820  208.9650  149.8230 C   0  0  0  0  0  0  0  0  0  0  0  0
  160.9990  209.4970  152.5060 C   0  0  0  0  0  0  0  0  0  0  0  0
  160.1160  212.3850  154.3170 O   0  0  0  0  0  0  0  0  0  0  0  0
  160.5410  210.0280  153.8360 C   0  0  1  0  0  3  0  0  0  0  0  0
  161.6480  209.4450  157.2610 C   0  0  0  0  0  2  0  0  0  0  0  0
  159.3450  207.5100  154.8470 C   0  0  0  0  0  1  0  0  0  0  0  0
  161.6330  211.3820  149.3970 C   0  0  0  0  0  3  0  0  0  0  0  0
  161.4920  210.3030  150.2760 C   0  0  0  0  0  0  0  0  0  0  0  0
  160.8180  207.3040  154.5090 C   0  0  2  0  0  3  0  0  0  0  0  0
  161.6880  204.1350  150.8320 N   0  0  0  0  0  0  0  0  0  0  0  0
  161.0010  202.1600  149.8210 O   0  0  0  0  0  1  0  0  0  0  0  0
  160.7710  203.4740  150.2010 C   0  0  0  0  0  3  0  0  0  0  0  0
  1  4  1  0  0  0  0
  2 19  1  0  0  0  0
  3 10  1  0  0  0  0
  4 20  1  0  0  0  0
  4 12  2  0  0  0  0
  5  1  2  0  0  0  0
  5 11  1  0  0  0  0
  7 15  1  1  0  0  0
  8 12  1  0  0  0  0
  8  6  1  0  0  0  0
  9  7  1  0  0  0  0
  9 14  1  1  0  0  0
 10 22  1  0  0  0  0
 10 21  2  0  0  0  0
 11  8  2  0  0  0  0
 12 27  1  0  0  0  0
 13 18  1  0  0  0  0
 13  2  2  0  0  0  0
 14 23  1  0  0  0  0
 15 23  1  0  0  0  0
 16  2  1  0  0  0  0
 17  3  1  0  0  0  0
 17 20  2  0  0  0  0
 18 25  2  0  0  0  0
 19 26  2  0  0  0  0
 19  1  1  0  0  0  0
 22 20  1  6  0  0  0
 22  9  1  0  0  0  0
 25 26  1  0  0  0  0
 26 17  1  0  0  0  0
 27 24  1  6  0  0  0
 27  7  1  0  0  0  0
 28 11  1  0  0  0  0
 29 30  1  0  0  0  0
 30 28  2  0  0  0  0
M  END
>  <MODEL>
8

>  <REMARK>
 VINA RESULT:      -5.1      2.128      5.286
  Name = 
  1 active torsions:
  status: ('A' for Active; 'I' for Inactive)
    1  A    between atoms: C_11  and  N_28
                            x       y       z     vdW  Elec       q    Type
                         _______ _______ _______ _____ _____    ______ ____

>  <TORSDO>
F 1

$$$$
=
 OpenBabel11122412373D

 30 35  0  0  1  0  0  0  0  0999 V2000
  161.2080  210.5950  150.6020 C   0  0  0  0  0  0  0  0  0  0  0  0
  161.1130  212.2510  148.7100 C   0  0  0  0  0  0  0  0  0  0  0  0
  159.3840  213.3620  153.1930 N   0  0  0  0  0  2  0  0  0  0  0  0
  160.9570  210.2950  151.9750 C   0  0  0  0  0  0  0  0  0  0  0  0
  161.7800  209.6010  149.7990 C   0  0  0  0  0  3  0  0  0  0  0  0
  162.2500  206.8160  152.1650 O   0  0  0  0  0  1  0  0  0  0  0  0
  161.8060  209.7470  154.8920 C   0  0  1  0  0  3  0  0  0  0  0  0
  161.8940  208.0640  151.6570 C   0  0  0  0  0  0  0  0  0  0  0  0
  161.0230  210.9840  155.1190 N   0  0  2  0  0  0  0  0  0  0  0  0
  159.2950  212.5540  154.3590 C   0  0  0  0  0  0  0  0  0  0  0  0
  162.1160  208.3410  150.3050 C   0  0  0  0  0  0  0  0  0  0  0  0
  161.3270  209.0310  152.5020 C   0  0  0  0  0  0  0  0  0  0  0  0
  160.7590  213.5240  148.2540 C   0  0  0  0  0  3  0  0  0  0  0  0
  160.5080  210.8540  156.4780 C   0  0  0  0  0  2  0  0  0  0  0  0
  162.1300  209.1290  156.2400 C   0  0  0  0  0  2  0  0  0  0  0  0
  161.6930  211.3800  147.7950 O   0  0  0  0  0  1  0  0  0  0  0  0
  160.0320  212.5210  152.2530 C   0  0  0  0  0  0  0  0  0  0  0  0
  160.1730  214.4520  149.1100 C   0  0  0  0  0  3  0  0  0  0  0  0
  160.8790  211.8820  150.0650 C   0  0  0  0  0  0  0  0  0  0  0  0
  160.3570  211.2870  152.7710 C   0  0  0  0  0  0  0  0  0  0  0  0
  158.7220  212.9520  155.4070 O   0  0  0  0  0  0  0  0  0  0  0  0
  159.8930  211.1830  154.1970 C   0  0  1  0  0  3  0  0  0  0  0  0
  161.5110  210.0450  157.2600 C   0  0  0  0  0  2  0  0  0  0  0  0
  159.7820  208.2230  154.3340 C   0  0  0  0  0  1  0  0  0  0  0  0
  159.9340  214.1160  150.4390 C   0  0  0  0  0  3  0  0  0  0  0  0
  160.2820  212.8500  150.9230 C   0  0  0  0  0  0  0  0  0  0  0  0
  161.1850  208.6880  153.9590 C   0  0  2  0  0  3  0  0  0  0  0  0
  162.6980  207.3340  149.4650 N   0  0  0  0  0  0  0  0  0  0  0  0
  162.7980  205.9780  147.5820 O   0  0  0  0  0  1  0  0  0  0  0  0
  162.1780  206.9600  148.3400 C   0  0  0  0  0  3  0  0  0  0  0  0
  1  4  1  0  0  0  0
  2 19  1  0  0  0  0
  3 10  1  0  0  0  0
  4 12  1  0  0  0  0
  4 20  2  0  0  0  0
  5 11  2  0  0  0  0
  5  1  1  0  0  0  0
  7  9  1  0  0  0  0
  7 15  1  1  0  0  0
  8  6  1  0  0  0  0
  8 12  2  0  0  0  0
  9 14  1  1  0  0  0
 10 21  2  0  0  0  0
 11  8  1  0  0  0  0
 12 27  1  0  0  0  0
 13  2  2  0  0  0  0
 13 18  1  0  0  0  0
 14 23  1  0  0  0  0
 15 23  1  0  0  0  0
 16  2  1  0  0  0  0
 17 20  1  0  0  0  0
 17  3  1  0  0  0  0
 18 25  2  0  0  0  0
 19  1  2  0  0  0  0
 19 26  1  0  0  0  0
 22 20  1  6  0  0  0
 22 10  1  0  0  0  0
 22  9  1  0  0  0  0
 25 26  1  0  0  0  0
 26 17  2  0  0  0  0
 27 24  1  1  0  0  0
 27  7  1  0  0  0  0
 28 11  1  0  0  0  0
 29 30  1  0  0  0  0
 30 28  2  0  0  0  0
M  END
>  <MODEL>
9

>  <REMARK>
 VINA RESULT:      -4.8      3.047      6.254
  Name = 
  1 active torsions:
  status: ('A' for Active; 'I' for Inactive)
    1  A    between atoms: C_11  and  N_28
                            x       y       z     vdW  Elec       q    Type
                         _______ _______ _______ _____ _____    ______ ____

>  <TORSDO>
F 1

$$$$
