=
 OpenBabel11122414363D

 34 41  0  0  1  0  0  0  0  0999 V2000
  161.4790  206.4170  152.8220 C   0  0  1  0  0  3  0  0  0  0  0  0
  160.9820  204.4160  151.4030 C   0  0  0  0  0  2  0  0  0  0  0  0
  159.6350  212.4270  153.5600 C   0  0  1  0  0  3  0  0  0  0  0  0
  161.2320  208.6800  154.0790 C   0  0  0  0  0  0  0  0  0  0  0  0
  161.2950  210.8520  152.7680 C   0  0  2  0  0  3  0  0  0  0  0  0
  159.2820  211.9500  151.5180 C   0  0  0  0  0  2  0  0  0  0  0  0
  158.8580  213.0850  152.4430 C   0  0  0  0  0  2  0  0  0  0  0  0
  159.6410  210.9540  155.6050 C   0  0  0  0  0  2  0  0  0  0  0  0
  160.6330  206.6130  150.4010 C   0  0  1  0  0  3  0  0  0  0  0  0
  161.9110  206.8130  147.4410 C   0  0  0  0  0  2  0  0  0  0  0  0
  161.6520  210.0080  151.6270 N   0  0  0  0  0  0  0  0  0  0  0  0
  161.1720  210.9170  155.3870 C   0  0  0  0  0  2  0  0  0  0  0  0
  161.6770  207.7620  150.3870 C   0  0  2  0  0  3  0  0  0  0  0  0
  160.6120  204.2120  149.9520 C   0  0  0  0  0  2  0  0  0  0  0  0
  161.6210  210.1430  154.1130 C   0  0  1  0  0  3  0  0  0  0  0  0
  158.8990  212.0690  154.8370 C   0  0  0  0  0  2  0  0  0  0  0  0
  162.0350  205.6610  148.4330 C   0  0  1  0  0  3  0  0  0  0  0  0
  161.4290  207.9290  152.8210 C   0  0  1  0  0  3  0  0  0  0  0  0
  159.8170  211.1940  152.7200 C   0  0  2  0  0  3  0  0  0  0  0  0
  161.5670  208.5740  151.6560 C   0  0  0  0  0  0  0  0  0  0  0  0
  160.3030  206.6120  155.0670 C   0  0  0  0  0  2  0  0  0  0  0  0
  162.4160  208.1200  148.0340 C   0  0  0  0  0  2  0  0  0  0  0  0
  160.7660  208.0370  155.1570 C   0  0  0  0  0  3  0  0  0  0  0  0
  161.5060  208.6230  149.1430 C   0  0  0  0  0  2  0  0  0  0  0  0
  160.7500  205.5680  149.2740 C   0  0  2  0  0  3  0  0  0  0  0  0
  161.2610  205.7900  154.2070 C   0  0  0  0  0  2  0  0  0  0  0  0
  160.5700  205.8340  151.7320 C   0  0  2  0  0  3  0  0  0  0  0  0
  162.2390  204.4790  147.7140 O   0  0  0  0  0  0  0  0  0  0  0  0
  161.5590  204.6750  146.5090 C   0  0  0  0  0  2  0  0  0  0  0  0
  160.2760  201.4500  146.1530 N   0  0  0  0  0  2  0  0  0  0  0  0
  160.4450  203.3720  144.7850 N   0  0  0  0  0  2  0  0  0  0  0  0
  161.5750  203.3950  145.6930 C   0  0  2  0  0  3  0  0  0  0  0  0
  159.9400  202.0100  144.8540 C   0  0  0  0  0  2  0  0  0  0  0  0
  161.4260  202.2080  146.6120 C   0  0  0  0  0  2  0  0  0  0  0  0
  1 26  1  1  0  0  0
  2 27  1  0  0  0  0
  3  7  1  6  0  0  0
  3 16  1  0  0  0  0
  4 15  1  0  0  0  0
  4 23  2  0  0  0  0
  5 11  1  6  0  0  0
  5 15  1  0  0  0  0
  6  7  1  0  0  0  0
  6 19  1  0  0  0  0
  9 27  1  0  0  0  0
 10 22  1  0  0  0  0
 10 17  1  0  0  0  0
 11 20  2  0  0  0  0
 12  8  1  0  0  0  0
 13  9  1  0  0  0  0
 13 20  1  0  0  0  0
 14  2  1  0  0  0  0
 15 12  1  0  0  0  0
 16  8  1  0  0  0  0
 17 25  1  0  0  0  0
 18  1  1  0  0  0  0
 18  4  1  0  0  0  0
 19  5  1  0  0  0  0
 19  3  1  0  0  0  0
 20 18  1  0  0  0  0
 21 23  1  0  0  0  0
 22 24  1  0  0  0  0
 24 13  1  0  0  0  0
 25 14  1  0  0  0  0
 25  9  1  0  0  0  0
 26 21  1  0  0  0  0
 27  1  1  0  0  0  0
 28 17  1  0  0  0  0
 29 28  1  0  0  0  0
 30 34  1  0  0  0  0
 31 33  1  0  0  0  0
 31 32  1  0  0  0  0
 32 29  1  0  0  0  0
 32 34  1  0  0  0  0
 33 30  1  0  0  0  0
M  END
>  <MODEL>
1

>  <REMARK>
 VINA RESULT:      -9.2      0.000      0.000
  Name = 
  3 active torsions:
  status: ('A' for Active; 'I' for Inactive)
    1  A    between atoms: C_17  and  O_28
    2  A    between atoms: O_28  and  C_29
    3  A    between atoms: C_29  and  C_32
                            x       y       z     vdW  Elec       q    Type
                         _______ _______ _______ _____ _____    ______ ____

>  <TORSDO>
F 3

$$$$
=
 OpenBabel11122414363D

 34 41  0  0  1  0  0  0  0  0999 V2000
  161.3320  207.7660  154.1320 C   0  0  1  0  0  3  0  0  0  0  0  0
  161.3910  205.9400  152.4210 C   0  0  0  0  0  2  0  0  0  0  0  0
  158.1880  213.1040  155.4340 C   0  0  1  0  0  3  0  0  0  0  0  0
  160.5050  209.7200  155.6370 C   0  0  0  0  0  0  0  0  0  0  0  0
  160.2050  212.0310  154.6320 C   0  0  2  0  0  3  0  0  0  0  0  0
  158.1110  212.8750  153.3210 C   0  0  0  0  0  2  0  0  0  0  0  0
  157.3800  213.7520  154.3330 C   0  0  0  0  0  2  0  0  0  0  0  0
  158.3450  211.3730  157.2600 C   0  0  0  0  0  2  0  0  0  0  0  0
  160.6600  208.1470  151.6790 C   0  0  1  0  0  3  0  0  0  0  0  0
  162.0990  209.0390  148.9280 C   0  0  0  0  0  2  0  0  0  0  0  0
  160.8260  211.4550  153.4380 N   0  0  0  0  0  0  0  0  0  0  0  0
  159.8610  211.6780  157.2080 C   0  0  0  0  0  2  0  0  0  0  0  0
  161.4310  209.4710  151.9290 C   0  0  2  0  0  3  0  0  0  0  0  0
  161.1910  205.8850  150.9250 C   0  0  0  0  0  2  0  0  0  0  0  0
  160.5670  211.2090  155.9020 C   0  0  1  0  0  3  0  0  0  0  0  0
  157.4460  212.4190  156.5650 C   0  0  0  0  0  2  0  0  0  0  0  0
  162.3880  207.8010  149.7710 C   0  0  1  0  0  3  0  0  0  0  0  0
  160.9590  209.2200  154.3220 C   0  0  2  0  0  3  0  0  0  0  0  0
  158.6960  212.0720  154.4670 C   0  0  2  0  0  3  0  0  0  0  0  0
  161.0480  210.0470  153.2710 C   0  0  0  0  0  0  0  0  0  0  0  0
  159.9650  207.3840  156.2410 C   0  0  0  0  0  2  0  0  0  0  0  0
  162.2620  210.3180  149.7370 C   0  0  0  0  0  2  0  0  0  0  0  0
  160.1020  208.8420  156.5650 C   0  0  0  0  0  3  0  0  0  0  0  0
  161.1800  210.4570  150.7950 C   0  0  0  0  0  2  0  0  0  0  0  0
  161.0880  207.3270  150.4470 C   0  0  2  0  0  3  0  0  0  0  0  0
  161.1420  206.9080  155.3930 C   0  0  0  0  0  2  0  0  0  0  0  0
  160.6590  207.1820  152.8840 C   0  0  2  0  0  3  0  0  0  0  0  0
  162.8970  206.8050  148.9320 O   0  0  0  0  0  0  0  0  0  0  0  0
  162.3270  207.0670  147.6830 C   0  0  0  0  0  2  0  0  0  0  0  0
  160.9630  205.4800  144.8920 N   0  0  0  0  0  2  0  0  0  0  0  0
  162.6340  204.9730  146.4870 N   0  0  0  0  0  2  0  0  0  0  0  0
  161.6570  205.8150  147.1480 C   0  0  2  0  0  3  0  0  0  0  0  0
  161.9680  204.5050  145.2820 C   0  0  0  0  0  2  0  0  0  0  0  0
  160.6300  206.1960  146.1100 C   0  0  0  0  0  2  0  0  0  0  0  0
  1 18  1  0  0  0  0
  1 26  1  1  0  0  0
  2 27  1  0  0  0  0
  3  7  1  6  0  0  0
  3 16  1  0  0  0  0
  4 15  1  0  0  0  0
  4 23  2  0  0  0  0
  5 11  1  6  0  0  0
  5 15  1  0  0  0  0
  6  7  1  0  0  0  0
  6 19  1  0  0  0  0
  9 13  1  0  0  0  0
  9 27  1  0  0  0  0
 10 22  1  0  0  0  0
 10 17  1  0  0  0  0
 12  8  1  0  0  0  0
 13 20  1  0  0  0  0
 14  2  1  0  0  0  0
 15 12  1  0  0  0  0
 16  8  1  0  0  0  0
 17 25  1  0  0  0  0
 18  4  1  0  0  0  0
 19  5  1  0  0  0  0
 19  3  1  0  0  0  0
 20 11  2  0  0  0  0
 20 18  1  0  0  0  0
 21 23  1  0  0  0  0
 22 24  1  0  0  0  0
 24 13  1  0  0  0  0
 25 14  1  0  0  0  0
 25  9  1  0  0  0  0
 26 21  1  0  0  0  0
 27  1  1  0  0  0  0
 28 17  1  0  0  0  0
 29 28  1  0  0  0  0
 30 33  1  0  0  0  0
 30 34  1  0  0  0  0
 31 32  1  0  0  0  0
 32 29  1  0  0  0  0
 33 31  1  0  0  0  0
 34 32  1  0  0  0  0
M  END
>  <MODEL>
2

>  <REMARK>
 VINA RESULT:      -8.7      1.685      2.495
  Name = 
  3 active torsions:
  status: ('A' for Active; 'I' for Inactive)
    1  A    between atoms: C_17  and  O_28
    2  A    between atoms: O_28  and  C_29
    3  A    between atoms: C_29  and  C_32
                            x       y       z     vdW  Elec       q    Type
                         _______ _______ _______ _____ _____    ______ ____

>  <TORSDO>
F 3

$$$$
=
 OpenBabel11122414363D

 34 41  0  0  1  0  0  0  0  0999 V2000
  161.7310  210.3110  151.1550 C   0  0  1  0  0  3  0  0  0  0  0  0
  160.4270  212.0150  152.4430 C   0  0  0  0  0  2  0  0  0  0  0  0
  161.2870  204.2980  149.2250 C   0  0  1  0  0  3  0  0  0  0  0  0
  162.3360  208.2390  149.7030 C   0  0  0  0  0  0  0  0  0  0  0  0
  162.2570  205.9230  150.7360 C   0  0  2  0  0  3  0  0  0  0  0  0
  160.1300  204.4320  151.0050 C   0  0  0  0  0  2  0  0  0  0  0  0
  160.2680  203.4010  149.8900 C   0  0  0  0  0  2  0  0  0  0  0  0
  161.8120  206.0420  147.4830 C   0  0  0  0  0  2  0  0  0  0  0  0
  160.0910  209.6710  153.0310 C   0  0  1  0  0  3  0  0  0  0  0  0
  160.1960  209.1940  156.2240 C   0  0  0  0  0  2  0  0  0  0  0  0
  162.0260  206.6290  151.9970 N   0  0  0  0  0  2  0  0  0  0  0  0
  163.1260  206.2230  148.2800 C   0  0  0  0  0  2  0  0  0  0  0  0
  161.2260  208.6600  153.3450 C   0  0  2  0  0  3  0  0  0  0  0  0
  159.5180  211.9640  153.6490 C   0  0  0  0  0  2  0  0  0  0  0  0
  162.9400  206.8510  149.6920 C   0  0  1  0  0  3  0  0  0  0  0  0
  161.0290  204.7500  147.8010 C   0  0  0  0  0  2  0  0  0  0  0  0
  160.4910  210.4840  155.4650 C   0  0  1  0  0  3  0  0  0  0  0  0
  161.9290  208.8190  151.0010 C   0  0  0  0  0  0  0  0  0  0  0  0
  160.9430  205.4100  150.1770 C   0  0  2  0  0  3  0  0  0  0  0  0
  161.7270  208.0320  152.0660 C   0  0  0  0  0  0  0  0  0  0  0  0
  161.5180  210.3080  148.6220 C   0  0  0  0  0  2  0  0  0  0  0  0
  161.0880  208.0530  155.7580 C   0  0  0  0  0  2  0  0  0  0  0  0
  162.2050  208.9740  148.5910 C   0  0  0  0  0  3  0  0  0  0  0  0
  160.7480  207.6140  154.3430 C   0  0  0  0  0  2  0  0  0  0  0  0
  159.6120  210.5490  154.2030 C   0  0  2  0  0  3  0  0  0  0  0  0
  161.9430  211.1020  149.8560 C   0  0  0  0  0  2  0  0  0  0  0  0
  160.4020  210.6220  151.8550 C   0  0  2  0  0  3  0  0  0  0  0  0
  160.2210  211.5650  156.3090 O   0  0  0  0  0  0  0  0  0  0  0  0
  159.2110  211.1070  157.1600 C   0  0  0  0  0  2  0  0  0  0  0  0
  157.8230  213.9980  155.7870 N   0  0  0  0  0  2  0  0  0  0  0  0
  157.0440  211.8320  156.3290 N   0  0  0  0  0  2  0  0  0  0  0  0
  158.1090  212.1470  157.2610 C   0  0  2  0  0  3  0  0  0  0  0  0
  156.6730  213.1090  155.7430 C   0  0  0  0  0  2  0  0  0  0  0  0
  158.6530  213.4980  156.8680 C   0  0  0  0  0  2  0  0  0  0  0  0
  1 26  1  6  0  0  0
  1 27  1  0  0  0  0
  2 14  1  0  0  0  0
  3 16  1  6  0  0  0
  3  7  1  0  0  0  0
  3 19  1  0  0  0  0
  4 18  1  0  0  0  0
  5 11  1  1  0  0  0
  7  6  1  0  0  0  0
  8 16  1  0  0  0  0
  8 12  1  0  0  0  0
  9 13  1  0  0  0  0
  9 25  1  0  0  0  0
 11 20  1  0  0  0  0
 12 15  1  0  0  0  0
 13 24  1  0  0  0  0
 14 25  1  0  0  0  0
 15  4  1  0  0  0  0
 15  5  1  0  0  0  0
 17 10  1  0  0  0  0
 17 28  1  0  0  0  0
 18  1  1  0  0  0  0
 18 20  2  0  0  0  0
 19  5  1  0  0  0  0
 19  6  1  0  0  0  0
 20 13  1  0  0  0  0
 21 26  1  0  0  0  0
 22 10  1  0  0  0  0
 23 21  1  0  0  0  0
 23  4  2  0  0  0  0
 24 22  1  0  0  0  0
 25 17  1  0  0  0  0
 27  2  1  0  0  0  0
 27  9  1  0  0  0  0
 28 29  1  0  0  0  0
 29 32  1  0  0  0  0
 30 34  1  0  0  0  0
 31 32  1  0  0  0  0
 33 30  1  0  0  0  0
 33 31  1  0  0  0  0
 34 32  1  0  0  0  0
M  END
>  <MODEL>
3

>  <REMARK>
 VINA RESULT:      -6.7      3.163      9.067
  Name = 
  3 active torsions:
  status: ('A' for Active; 'I' for Inactive)
    1  A    between atoms: C_17  and  O_28
    2  A    between atoms: O_28  and  C_29
    3  A    between atoms: C_29  and  C_32
                            x       y       z     vdW  Elec       q    Type
                         _______ _______ _______ _____ _____    ______ ____

>  <TORSDO>
F 3

$$$$
=
 OpenBabel11122414363D

 34 41  0  0  1  0  0  0  0  0999 V2000
  161.3870  207.8910  155.0460 C   0  0  1  0  0  3  0  0  0  0  0  0
  161.2760  205.6240  153.9920 C   0  0  0  0  0  2  0  0  0  0  0  0
  158.4530  213.4970  154.8350 C   0  0  1  0  0  3  0  0  0  0  0  0
  160.7190  210.2480  155.9200 C   0  0  0  0  0  0  0  0  0  0  0  0
  160.3800  212.1440  154.2670 C   0  0  2  0  0  3  0  0  0  0  0  0
  158.2020  212.6270  152.9100 C   0  0  0  0  0  2  0  0  0  0  0  0
  157.5710  213.8040  153.6460 C   0  0  0  0  0  2  0  0  0  0  0  0
  158.7270  212.4130  157.0940 C   0  0  0  0  0  2  0  0  0  0  0  0
  160.5270  207.5200  152.6510 C   0  0  1  0  0  3  0  0  0  0  0  0
  161.7550  207.4540  149.6640 C   0  0  0  0  0  2  0  0  0  0  0  0
  160.8920  211.2010  153.2720 N   0  0  0  0  0  0  0  0  0  0  0  0
  160.2390  212.6220  156.8420 C   0  0  0  0  0  2  0  0  0  0  0  0
  161.3380  208.8230  152.4190 C   0  0  2  0  0  3  0  0  0  0  0  0
  160.9550  205.1160  152.6060 C   0  0  0  0  0  2  0  0  0  0  0  0
  160.8280  211.7430  155.7010 C   0  0  1  0  0  3  0  0  0  0  0  0
  157.7930  213.2280  156.1730 C   0  0  0  0  0  2  0  0  0  0  0  0
  162.0890  206.5280  150.8290 C   0  0  1  0  0  3  0  0  0  0  0  0
  161.0570  209.3460  154.7980 C   0  0  2  0  0  3  0  0  0  0  0  0
  158.8640  212.1950  154.2050 C   0  0  2  0  0  3  0  0  0  0  0  0
  161.0750  209.8020  153.5380 C   0  0  0  0  0  0  0  0  0  0  0  0
  160.1880  208.2400  157.2610 C   0  0  0  0  0  2  0  0  0  0  0  0
  162.0060  208.9130  150.0190 C   0  0  0  0  0  2  0  0  0  0  0  0
  160.3770  209.7190  157.1010 C   0  0  0  0  0  3  0  0  0  0  0  0
  161.0140  209.4180  151.0550 C   0  0  0  0  0  2  0  0  0  0  0  0
  160.8400  206.3420  151.7100 C   0  0  2  0  0  3  0  0  0  0  0  0
  161.2850  207.4760  156.5220 C   0  0  0  0  0  2  0  0  0  0  0  0
  160.6060  206.9770  154.0940 C   0  0  2  0  0  3  0  0  0  0  0  0
  162.5110  205.3000  150.3090 O   0  0  0  0  0  0  0  0  0  0  0  0
  161.4220  204.8340  149.5680 C   0  0  0  0  0  2  0  0  0  0  0  0
  159.8300  201.7720  149.0600 N   0  0  0  0  0  2  0  0  0  0  0  0
  161.3610  203.1120  147.8530 N   0  0  0  0  0  2  0  0  0  0  0  0
  161.5980  203.3580  149.2620 C   0  0  2  0  0  3  0  0  0  0  0  0
  160.5750  201.8890  147.8170 C   0  0  0  0  0  2  0  0  0  0  0  0
  160.5740  202.5580  150.0280 C   0  0  0  0  0  2  0  0  0  0  0  0
  1 26  1  1  0  0  0
  2 27  1  0  0  0  0
  3  7  1  6  0  0  0
  3 16  1  0  0  0  0
  4 23  2  0  0  0  0
  5 11  1  6  0  0  0
  5 15  1  0  0  0  0
  6  7  1  0  0  0  0
  6 19  1  0  0  0  0
  9 27  1  0  0  0  0
 10 22  1  0  0  0  0
 10 17  1  0  0  0  0
 11 20  2  0  0  0  0
 12  8  1  0  0  0  0
 13  9  1  0  0  0  0
 13 20  1  0  0  0  0
 14  2  1  0  0  0  0
 15  4  1  0  0  0  0
 15 12  1  0  0  0  0
 16  8  1  0  0  0  0
 17 25  1  0  0  0  0
 18  1  1  0  0  0  0
 18  4  1  0  0  0  0
 19  5  1  0  0  0  0
 19  3  1  0  0  0  0
 20 18  1  0  0  0  0
 22 24  1  0  0  0  0
 23 21  1  0  0  0  0
 24 13  1  0  0  0  0
 25 14  1  0  0  0  0
 25  9  1  0  0  0  0
 26 21  1  0  0  0  0
 27  1  1  0  0  0  0
 28 17  1  0  0  0  0
 29 28  1  0  0  0  0
 30 34  1  0  0  0  0
 31 32  1  0  0  0  0
 32 29  1  0  0  0  0
 32 34  1  0  0  0  0
 33 31  1  0  0  0  0
 33 30  1  0  0  0  0
M  END
>  <MODEL>
4

>  <REMARK>
 VINA RESULT:      -6.7      1.697      2.576
  Name = 
  3 active torsions:
  status: ('A' for Active; 'I' for Inactive)
    1  A    between atoms: C_17  and  O_28
    2  A    between atoms: O_28  and  C_29
    3  A    between atoms: C_29  and  C_32
                            x       y       z     vdW  Elec       q    Type
                         _______ _______ _______ _____ _____    ______ ____

>  <TORSDO>
F 3

$$$$
