=
 OpenBabel11122413573D

 37 43  0  0  1  0  0  0  0  0999 V2000
  161.4480  212.0750  148.3210 C   0  0  2  0  0  3  0  0  0  0  0  0
  161.6830  207.4460  148.8410 C   0  0  1  0  0  0  0  0  0  0  0  0
  161.4000  209.4960  152.4000 C   0  0  0  0  0  0  0  0  0  0  0  0
  159.0480  212.6200  152.1900 C   0  0  0  0  0  2  0  0  0  0  0  0
  162.2300  207.5360  151.2970 C   0  0  0  0  0  0  0  0  0  0  0  0
  160.8710  210.8610  152.0370 C   0  0  2  0  0  3  0  0  0  0  0  0
  159.8120  213.8610  148.6350 N   0  0  0  0  0  0  0  0  0  0  0  0
  161.8160  208.8540  151.2810 C   0  0  0  0  0  0  0  0  0  0  0  0
  159.4560  211.1930  152.5980 C   0  0  1  0  0  3  0  0  0  0  0  0
  162.3170  206.8920  152.4960 N   0  0  0  0  0  0  0  0  0  0  0  0
  160.0570  212.5940  147.9570 C   0  0  0  0  0  2  0  0  0  0  0  0
  161.5770  209.5780  150.1110 N   0  0  0  0  0  0  0  0  0  0  0  0
  160.3540  207.0540  149.0120 O   0  0  0  0  0  1  0  0  0  0  0  0
  160.9250  209.4750  154.8560 C   0  0  0  0  0  2  0  0  0  0  0  0
  161.9510  207.5180  153.6590 C   0  0  0  0  0  3  0  0  0  0  0  0
  161.7540  208.9870  148.7820 C   0  0  0  0  0  2  0  0  0  0  0  0
  159.9070  213.6680  150.0920 C   0  0  1  0  0  3  0  0  0  0  0  0
  158.8030  212.7810  150.6990 C   0  0  0  0  0  2  0  0  0  0  0  0
  161.4760  208.8450  153.6340 C   0  0  0  0  0  0  0  0  0  0  0  0
  160.8800  210.8120  150.4680 C   0  0  2  0  0  3  0  0  0  0  0  0
  162.5420  206.8670  149.9910 C   0  0  0  0  0  2  0  0  0  0  0  0
  159.3950  211.1090  154.1500 C   0  0  2  0  0  3  0  0  0  0  0  0
  162.1880  206.8880  147.5290 C   0  0  0  0  0  1  0  0  0  0  0  0
  161.2160  213.2610  150.4720 O   0  0  0  0  0  0  0  0  0  0  0  0
  158.4790  214.3220  148.2720 C   0  0  0  0  0  1  0  0  0  0  0  0
  161.5830  212.0340  149.8550 C   0  0  2  0  0  3  0  0  0  0  0  0
  159.5160  209.7400  154.6320 N   0  0  0  0  0  2  0  0  0  0  0  0
  156.8810  211.1540  154.4330 C   0  0  0  0  0  3  0  0  0  0  0  0
  158.1390  211.7010  154.7270 C   0  0  0  0  0  0  0  0  0  0  0  0
  158.2310  212.8120  155.5720 C   0  0  0  0  0  3  0  0  0  0  0  0
  157.1680  214.4530  156.9350 F   0  0  0  0  0  0  0  0  0  0  0  0
  155.8220  212.8310  155.8220 C   0  0  0  0  0  3  0  0  0  0  0  0
  157.0740  213.3770  156.1190 C   0  0  0  0  0  0  0  0  0  0  0  0
  155.7260  211.7190  154.9800 C   0  0  0  0  0  3  0  0  0  0  0  0
  162.5530  212.9250  147.6870 C   0  0  1  0  0  3  0  0  0  0  0  0
  163.9100  212.2730  147.8870 C   0  0  0  0  0  1  0  0  0  0  0  0
  162.3150  213.0760  146.2620 N   0  0  0  0  0  1  0  0  0  0  0  0
  1 35  1  6  0  0  0
  1 26  1  0  0  0  0
  2 23  1  6  0  0  0
  2 13  1  0  0  0  0
  2 21  1  0  0  0  0
  3 19  1  0  0  0  0
  5 10  2  0  0  0  0
  6  3  1  1  0  0  0
  6  9  1  0  0  0  0
  7 17  1  0  0  0  0
  8  5  1  0  0  0  0
  8  3  2  0  0  0  0
  9  4  1  1  0  0  0
  9 22  1  0  0  0  0
 10 15  1  0  0  0  0
 11  1  1  0  0  0  0
 11  7  1  0  0  0  0
 12  8  1  0  0  0  0
 16  2  1  0  0  0  0
 16 12  1  0  0  0  0
 17 24  1  0  0  0  0
 17 18  1  6  0  0  0
 18  4  1  0  0  0  0
 19 15  2  0  0  0  0
 19 14  1  0  0  0  0
 20 12  1  1  0  0  0
 20  6  1  0  0  0  0
 21  5  1  0  0  0  0
 22 27  1  0  0  0  0
 22 29  1  6  0  0  0
 25  7  1  0  0  0  0
 26 20  1  0  0  0  0
 26 24  1  1  0  0  0
 27 14  1  0  0  0  0
 28 29  2  0  0  0  0
 28 34  1  0  0  0  0
 29 30  1  0  0  0  0
 30 33  2  0  0  0  0
 32 33  1  0  0  0  0
 33 31  1  0  0  0  0
 34 32  2  0  0  0  0
 35 36  1  6  0  0  0
 37 35  1  0  0  0  0
M  END
>  <MODEL>
1

>  <REMARK>
 VINA RESULT:      -5.8      0.000      0.000
  Name = 
  2 active torsions:
  status: ('A' for Active; 'I' for Inactive)
    1  A    between atoms: C_1  and  C_4
    2  A    between atoms: C_23  and  C_30
                            x       y       z     vdW  Elec       q    Type
                         _______ _______ _______ _____ _____    ______ ____

>  <TORSDO>
F 2

$$$$
=
 OpenBabel11122413573D

 37 43  0  0  1  0  0  0  0  0999 V2000
  161.0010  209.7660  154.9400 C   0  0  2  0  0  3  0  0  0  0  0  0
  158.8400  212.9380  152.2900 C   0  0  1  0  0  0  0  0  0  0  0  0
  161.5880  210.6630  150.2350 C   0  0  0  0  0  0  0  0  0  0  0  0
  161.6680  206.9260  151.4020 C   0  0  0  0  0  2  0  0  0  0  0  0
  160.4900  212.7890  150.3940 C   0  0  0  0  0  0  0  0  0  0  0  0
  161.8160  209.4400  151.0880 C   0  0  2  0  0  3  0  0  0  0  0  0
  161.0730  207.3360  155.1760 N   0  0  0  0  0  0  0  0  0  0  0  0
  160.9420  211.6110  150.9570 C   0  0  0  0  0  0  0  0  0  0  0  0
  161.3490  208.0960  150.4540 C   0  0  1  0  0  3  0  0  0  0  0  0
  160.7920  213.0490  149.0900 N   0  0  0  0  0  0  0  0  0  0  0  0
  160.1880  208.4950  155.1820 C   0  0  0  0  0  2  0  0  0  0  0  0
  160.5970  211.1830  152.2420 N   0  0  0  0  0  0  0  0  0  0  0  0
  157.8310  212.2180  151.6500 O   0  0  0  0  0  1  0  0  0  0  0  0
  162.5000  209.8580  148.0500 C   0  0  0  0  0  2  0  0  0  0  0  0
  161.4850  212.1390  148.3330 C   0  0  0  0  0  3  0  0  0  0  0  0
  159.7170  211.9670  153.1110 C   0  0  0  0  0  2  0  0  0  0  0  0
  161.7630  207.2490  153.8770 C   0  0  1  0  0  3  0  0  0  0  0  0
  160.8450  206.9360  152.6790 C   0  0  0  0  0  2  0  0  0  0  0  0
  161.8970  210.9140  148.8950 C   0  0  0  0  0  0  0  0  0  0  0  0
  161.0040  209.7870  152.3860 C   0  0  2  0  0  3  0  0  0  0  0  0
  159.6640  213.7170  151.2370 C   0  0  0  0  0  2  0  0  0  0  0  0
  162.0430  207.8050  149.0920 C   0  0  2  0  0  3  0  0  0  0  0  0
  158.2030  213.9320  153.2370 C   0  0  0  0  0  1  0  0  0  0  0  0
  162.5910  208.3830  153.6580 O   0  0  0  0  0  0  0  0  0  0  0  0
  160.2670  206.1450  155.4020 C   0  0  0  0  0  1  0  0  0  0  0  0
  161.8400  209.5900  153.6610 C   0  0  2  0  0  3  0  0  0  0  0  0
  161.6040  208.7160  148.0450 N   0  0  0  0  0  2  0  0  0  0  0  0
  162.3860  205.9590  147.3960 C   0  0  0  0  0  3  0  0  0  0  0  0
  161.8340  206.3970  148.6100 C   0  0  0  0  0  0  0  0  0  0  0  0
  161.0790  205.5120  149.3870 C   0  0  0  0  0  3  0  0  0  0  0  0
  160.1390  203.3450  149.7100 F   0  0  0  0  0  0  0  0  0  0  0  0
  161.4210  203.7650  147.7450 C   0  0  0  0  0  3  0  0  0  0  0  0
  160.8720  204.1980  148.9550 C   0  0  0  0  0  0  0  0  0  0  0  0
  162.1790  204.6450  146.9660 C   0  0  0  0  0  3  0  0  0  0  0  0
  161.8840  210.1100  156.1430 C   0  0  1  0  0  3  0  0  0  0  0  0
  161.5990  211.5200  156.6300 C   0  0  0  0  0  1  0  0  0  0  0  0
  161.6340  209.1820  157.2320 N   0  0  0  0  0  1  0  0  0  0  0  0
  1 11  1  0  0  0  0
  1 35  1  1  0  0  0
  2 16  1  0  0  0  0
  2 23  1  1  0  0  0
  3  8  1  0  0  0  0
  4 18  1  0  0  0  0
  5  8  2  0  0  0  0
  5 21  1  0  0  0  0
  6  3  1  6  0  0  0
  6 20  1  0  0  0  0
  7 11  1  0  0  0  0
  7 25  1  0  0  0  0
  8 12  1  0  0  0  0
  9  6  1  0  0  0  0
  9  4  1  1  0  0  0
 10  5  1  0  0  0  0
 12 16  1  0  0  0  0
 13  2  1  0  0  0  0
 14 19  1  0  0  0  0
 15 19  1  0  0  0  0
 15 10  2  0  0  0  0
 17 18  1  6  0  0  0
 17  7  1  0  0  0  0
 19  3  2  0  0  0  0
 20 12  1  6  0  0  0
 20 26  1  0  0  0  0
 21  2  1  0  0  0  0
 22 29  1  6  0  0  0
 22  9  1  0  0  0  0
 24 17  1  0  0  0  0
 26 24  1  6  0  0  0
 26  1  1  0  0  0  0
 27 14  1  0  0  0  0
 27 22  1  0  0  0  0
 28 29  1  0  0  0  0
 29 30  2  0  0  0  0
 32 33  2  0  0  0  0
 33 30  1  0  0  0  0
 33 31  1  0  0  0  0
 34 28  2  0  0  0  0
 34 32  1  0  0  0  0
 35 36  1  1  0  0  0
 35 37  1  0  0  0  0
M  END
>  <MODEL>
2

>  <REMARK>
 VINA RESULT:      -5.4      3.116      8.060
  Name = 
  2 active torsions:
  status: ('A' for Active; 'I' for Inactive)
    1  A    between atoms: C_1  and  C_4
    2  A    between atoms: C_23  and  C_30
                            x       y       z     vdW  Elec       q    Type
                         _______ _______ _______ _____ _____    ______ ____

>  <TORSDO>
F 2

$$$$
