=
 OpenBabel11122414103D

 28 32  0  0  1  0  0  0  0  0999 V2000
  160.7260  209.8380  155.8290 C   0  0  0  0  0  0  0  0  0  0  0  0
  155.8090  210.6300  155.0620 F   0  0  0  0  0  0  0  0  0  0  0  0
  161.1660  211.9170  151.7310 O   0  0  0  0  0  0  0  0  0  0  0  0
  161.7190  212.1770  157.0020 C   0  0  0  0  0  3  0  0  0  0  0  0
  159.1880  212.9780  152.6060 C   0  0  2  0  0  3  0  0  0  0  0  0
  160.2330  208.7000  155.1910 O   0  0  0  0  0  0  0  0  0  0  0  0
  156.0420  211.0740  157.2550 F   0  0  0  0  0  0  0  0  0  0  0  0
  156.1660  211.6030  155.9840 C   0  0  0  0  0  0  0  0  0  0  0  0
  155.5010  213.4820  154.5280 C   0  0  1  0  0  3  0  0  0  0  0  0
  157.6240  212.0690  155.7770 C   0  0  2  0  0  3  0  0  0  0  0  0
  162.3310  209.6040  153.1220 C   0  0  0  0  0  1  0  0  0  0  0  0
  158.4540  210.9340  153.7700 C   0  0  1  0  0  3  0  0  0  0  0  0
  156.7670  214.0920  154.5870 O   0  0  0  0  0  0  0  0  0  0  0  0
  155.2070  212.7730  155.8430 C   0  0  0  0  0  2  0  0  0  0  0  0
  161.2040  208.6890  153.0000 N   0  0  0  0  0  0  0  0  0  0  0  0
  159.9070  210.9750  155.9100 C   0  0  0  0  0  0  0  0  0  0  0  0
  160.1260  211.8480  152.4390 C   0  0  0  0  0  0  0  0  0  0  0  0
  154.5290  214.4530  154.3000 O   0  0  0  0  0  1  0  0  0  0  0  0
  159.9760  209.3420  152.5050 C   0  0  0  0  0  2  0  0  0  0  0  0
  160.4200  212.1480  156.4890 C   0  0  0  0  0  3  0  0  0  0  0  0
  162.0290  209.8710  156.3440 C   0  0  0  0  0  3  0  0  0  0  0  0
  162.5220  211.0370  156.9340 C   0  0  0  0  0  3  0  0  0  0  0  0
  161.0060  207.9560  154.2550 C   0  0  0  0  0  2  0  0  0  0  0  0
  158.0170  212.3510  153.3560 C   0  0  1  0  0  3  0  0  0  0  0  0
  159.7240  210.6600  153.1050 N   0  0  0  0  0  0  0  0  0  0  0  0
  157.7780  213.1020  154.6550 C   0  0  2  0  0  3  0  0  0  0  0  0
  158.7510  213.4190  151.3560 O   0  0  0  0  0  1  0  0  0  0  0  0
  158.5140  210.9150  155.3180 C   0  0  1  0  0  3  0  0  0  0  0  0
  1 16  2  0  0  0  0
  1 21  1  0  0  0  0
  2  8  1  0  0  0  0
  3 17  2  0  0  0  0
  5 27  1  6  0  0  0
  5 24  1  0  0  0  0
  6  1  1  0  0  0  0
  8  7  1  0  0  0  0
  9 18  1  1  0  0  0
  9 13  1  0  0  0  0
  9 14  1  0  0  0  0
 10  8  1  6  0  0  0
 12 25  1  6  0  0  0
 12 28  1  0  0  0  0
 13 26  1  0  0  0  0
 14  8  1  0  0  0  0
 15 11  1  0  0  0  0
 15 23  1  0  0  0  0
 16 20  1  0  0  0  0
 17  5  1  0  0  0  0
 17 25  1  0  0  0  0
 19 15  1  0  0  0  0
 19 25  1  0  0  0  0
 20  4  2  0  0  0  0
 21 22  2  0  0  0  0
 22  4  1  0  0  0  0
 23  6  1  0  0  0  0
 24 12  1  0  0  0  0
 24 26  1  0  0  0  0
 26 10  1  0  0  0  0
 28 10  1  0  0  0  0
 28 16  1  0  0  0  0
M  END
>  <MODEL>
1

>  <REMARK>
 VINA RESULT:      -3.6      0.000      0.000
  Name = 
  0 active torsions:
  status: ('A' for Active; 'I' for Inactive)
                            x       y       z     vdW  Elec       q    Type
                         _______ _______ _______ _____ _____    ______ ____

>  <TORSDO>
F 0

$$$$
=
 OpenBabel11122414103D

 28 32  0  0  1  0  0  0  0  0999 V2000
  161.4540  210.3370  154.5100 C   0  0  0  0  0  0  0  0  0  0  0  0
  160.3940  214.4300  151.7690 F   0  0  0  0  0  0  0  0  0  0  0  0
  157.2440  211.0590  156.2600 O   0  0  0  0  0  0  0  0  0  0  0  0
  160.3820  208.1630  153.1110 C   0  0  0  0  0  3  0  0  0  0  0  0
  156.9940  211.9130  154.0210 C   0  0  2  0  0  3  0  0  0  0  0  0
  161.9330  211.4330  155.2270 O   0  0  0  0  0  0  0  0  0  0  0  0
  161.4390  213.1030  150.2850 F   0  0  0  0  0  0  0  0  0  0  0  0
  160.2230  213.3780  150.8810 C   0  0  0  0  0  0  0  0  0  0  0  0
  157.8530  213.9010  150.4360 C   0  0  1  0  0  3  0  0  0  0  0  0
  159.7200  212.1070  151.6010 C   0  0  2  0  0  3  0  0  0  0  0  0
  159.9050  210.3110  157.2600 C   0  0  0  0  0  1  0  0  0  0  0  0
  159.3180  212.7270  153.9370 C   0  0  1  0  0  3  0  0  0  0  0  0
  157.4090  212.6170  150.8020 O   0  0  0  0  0  0  0  0  0  0  0  0
  159.2360  213.8090  149.8090 C   0  0  0  0  0  2  0  0  0  0  0  0
  160.5440  211.6170  157.1710 N   0  0  0  0  0  0  0  0  0  0  0  0
  160.6330  210.5660  153.3950 C   0  0  0  0  0  0  0  0  0  0  0  0
  157.7550  211.6210  155.2550 C   0  0  0  0  0  0  0  0  0  0  0  0
  156.9640  214.4530  149.5150 O   0  0  0  0  0  1  0  0  0  0  0  0
  159.7350  212.6120  156.4400 C   0  0  0  0  0  2  0  0  0  0  0  0
  160.0890  209.4680  152.7080 C   0  0  0  0  0  3  0  0  0  0  0  0
  161.7450  209.0260  154.9120 C   0  0  0  0  0  3  0  0  0  0  0  0
  161.2140  207.9420  154.2110 C   0  0  0  0  0  3  0  0  0  0  0  0
  161.9080  211.4820  156.6500 C   0  0  0  0  0  2  0  0  0  0  0  0
  157.9640  212.7630  153.2070 C   0  0  1  0  0  3  0  0  0  0  0  0
  159.0990  212.0800  155.2270 N   0  0  0  0  0  0  0  0  0  0  0  0
  158.2090  212.1120  151.8560 C   0  0  2  0  0  3  0  0  0  0  0  0
  155.8640  212.6700  154.3290 O   0  0  0  0  0  1  0  0  0  0  0  0
  160.3150  211.9950  153.0040 C   0  0  1  0  0  3  0  0  0  0  0  0
  1 21  1  0  0  0  0
  1  6  1  0  0  0  0
  4 22  1  0  0  0  0
  5 27  1  1  0  0  0
  5 17  1  0  0  0  0
  6 23  1  0  0  0  0
  7  8  1  0  0  0  0
  8  2  1  0  0  0  0
  9 18  1  6  0  0  0
  9 13  1  0  0  0  0
 10  8  1  1  0  0  0
 10 26  1  0  0  0  0
 10 28  1  0  0  0  0
 12 25  1  1  0  0  0
 13 26  1  0  0  0  0
 14  9  1  0  0  0  0
 14  8  1  0  0  0  0
 15 11  1  0  0  0  0
 16  1  2  0  0  0  0
 17  3  2  0  0  0  0
 19 15  1  0  0  0  0
 20  4  2  0  0  0  0
 20 16  1  0  0  0  0
 22 21  2  0  0  0  0
 23 15  1  0  0  0  0
 24 12  1  0  0  0  0
 24  5  1  0  0  0  0
 25 17  1  0  0  0  0
 25 19  1  0  0  0  0
 26 24  1  0  0  0  0
 28 16  1  0  0  0  0
 28 12  1  0  0  0  0
M  END
>  <MODEL>
2

>  <REMARK>
 VINA RESULT:      -2.9      2.729      4.685
  Name = 
  0 active torsions:
  status: ('A' for Active; 'I' for Inactive)
                            x       y       z     vdW  Elec       q    Type
                         _______ _______ _______ _____ _____    ______ ____

>  <TORSDO>
F 0

$$$$
=
 OpenBabel11122414103D

 28 32  0  0  1  0  0  0  0  0999 V2000
  160.8690  208.7810  155.8200 C   0  0  0  0  0  0  0  0  0  0  0  0
  157.1950  211.1790  153.3420 F   0  0  0  0  0  0  0  0  0  0  0  0
  162.7990  208.5060  151.6360 O   0  0  0  0  0  0  0  0  0  0  0  0
  162.7790  210.7240  156.4560 C   0  0  0  0  0  3  0  0  0  0  0  0
  161.5640  210.5670  151.4690 C   0  0  2  0  0  3  0  0  0  0  0  0
  159.9390  207.8100  155.4480 O   0  0  0  0  0  0  0  0  0  0  0  0
  157.3630  212.3690  155.2430 F   0  0  0  0  0  0  0  0  0  0  0  0
  157.8920  212.1960  153.9780 C   0  0  0  0  0  0  0  0  0  0  0  0
  158.4690  213.3590  151.8780 C   0  0  1  0  0  3  0  0  0  0  0  0
  159.3940  211.8600  154.1050 C   0  0  2  0  0  3  0  0  0  0  0  0
  162.4300  206.7560  153.9700 C   0  0  0  0  0  1  0  0  0  0  0  0
  159.7500  209.7450  152.9190 C   0  0  1  0  0  3  0  0  0  0  0  0
  159.8510  213.3320  152.1390 O   0  0  0  0  0  0  0  0  0  0  0  0
  157.6980  213.4790  153.1850 C   0  0  0  0  0  2  0  0  0  0  0  0
  161.0160  206.4540  153.7910 N   0  0  0  0  0  0  0  0  0  0  0  0
  160.7510  210.0710  155.2820 C   0  0  0  0  0  0  0  0  0  0  0  0
  161.7980  209.1950  151.9660 C   0  0  0  0  0  0  0  0  0  0  0  0
  158.1710  214.4510  151.0650 O   0  0  0  0  0  1  0  0  0  0  0  0
  160.3690  207.2870  152.7590 C   0  0  0  0  0  2  0  0  0  0  0  0
  161.7230  211.0360  155.5970 C   0  0  0  0  0  3  0  0  0  0  0  0
  161.9310  208.4710  156.6820 C   0  0  0  0  0  3  0  0  0  0  0  0
  162.8800  209.4430  157.0020 C   0  0  0  0  0  3  0  0  0  0  0  0
  160.3220  206.4880  155.0830 C   0  0  0  0  0  2  0  0  0  0  0  0
  160.1590  210.8850  151.9700 C   0  0  1  0  0  3  0  0  0  0  0  0
  160.7640  208.7010  152.8070 N   0  0  0  0  0  0  0  0  0  0  0  0
  160.1900  212.1400  152.8250 C   0  0  2  0  0  3  0  0  0  0  0  0
  161.5690  210.5730  150.0740 O   0  0  0  0  0  1  0  0  0  0  0  0
  159.6070  210.3640  154.3320 C   0  0  1  0  0  3  0  0  0  0  0  0
  1 21  1  0  0  0  0
  2  8  1  0  0  0  0
  3 17  2  0  0  0  0
  4 22  1  0  0  0  0
  5 27  1  6  0  0  0
  5 17  1  0  0  0  0
  5 24  1  0  0  0  0
  6  1  1  0  0  0  0
  8  7  1  0  0  0  0
  9 18  1  6  0  0  0
  9 13  1  0  0  0  0
  9 14  1  0  0  0  0
 10  8  1  6  0  0  0
 10 28  1  0  0  0  0
 12 25  1  1  0  0  0
 12 28  1  0  0  0  0
 13 26  1  0  0  0  0
 14  8  1  0  0  0  0
 15 11  1  0  0  0  0
 15 23  1  0  0  0  0
 16 20  1  0  0  0  0
 16  1  2  0  0  0  0
 17 25  1  0  0  0  0
 19 25  1  0  0  0  0
 19 15  1  0  0  0  0
 20  4  2  0  0  0  0
 21 22  2  0  0  0  0
 23  6  1  0  0  0  0
 24 26  1  0  0  0  0
 24 12  1  0  0  0  0
 26 10  1  0  0  0  0
 28 16  1  0  0  0  0
M  END
>  <MODEL>
3

>  <REMARK>
 VINA RESULT:      -2.8      2.022      2.794
  Name = 
  0 active torsions:
  status: ('A' for Active; 'I' for Inactive)
                            x       y       z     vdW  Elec       q    Type
                         _______ _______ _______ _____ _____    ______ ____

>  <TORSDO>
F 0

$$$$
=
 OpenBabel11122414103D

 28 32  0  0  1  0  0  0  0  0999 V2000
  161.4370  207.7680  156.1450 C   0  0  0  0  0  0  0  0  0  0  0  0
  163.6820  207.4090  151.6490 F   0  0  0  0  0  0  0  0  0  0  0  0
  159.8620  211.7650  154.4570 O   0  0  0  0  0  0  0  0  0  0  0  0
  158.8570  206.7350  155.8140 C   0  0  0  0  0  3  0  0  0  0  0  0
  160.0540  210.4340  152.4590 C   0  0  2  0  0  3  0  0  0  0  0  0
  162.7040  208.3340  156.2860 O   0  0  0  0  0  0  0  0  0  0  0  0
  162.9880  205.3020  152.0210 F   0  0  0  0  0  0  0  0  0  0  0  0
  162.6010  206.5440  151.5550 C   0  0  0  0  0  0  0  0  0  0  0  0
  161.5840  207.7340  149.6460 C   0  0  1  0  0  3  0  0  0  0  0  0
  161.4030  207.0420  152.3940 C   0  0  2  0  0  3  0  0  0  0  0  0
  160.9520  210.7680  156.9990 C   0  0  0  0  0  1  0  0  0  0  0  0
  162.0330  209.2310  153.2990 C   0  0  1  0  0  3  0  0  0  0  0  0
  160.3560  207.9250  150.3050 O   0  0  0  0  0  0  0  0  0  0  0  0
  162.2110  206.4200  150.0910 C   0  0  0  0  0  2  0  0  0  0  0  0
  162.3540  210.6820  156.6130 N   0  0  0  0  0  0  0  0  0  0  0  0
  160.9730  207.4590  154.8580 C   0  0  0  0  0  0  0  0  0  0  0  0
  160.4510  210.8520  153.8200 C   0  0  0  0  0  0  0  0  0  0  0  0
  161.3720  207.7010  148.2690 O   0  0  0  0  0  1  0  0  0  0  0  0
  162.5720  210.8670  155.1650 C   0  0  0  0  0  2  0  0  0  0  0  0
  159.6720  206.9540  154.7010 C   0  0  0  0  0  3  0  0  0  0  0  0
  160.6160  207.5480  157.2610 C   0  0  0  0  0  3  0  0  0  0  0  0
  159.3310  207.0280  157.0950 C   0  0  0  0  0  3  0  0  0  0  0  0
  162.9510  209.4480  157.1370 C   0  0  0  0  0  2  0  0  0  0  0  0
  161.1680  209.4750  152.0500 C   0  0  1  0  0  3  0  0  0  0  0  0
  161.5890  210.1690  154.3250 N   0  0  0  0  0  0  0  0  0  0  0  0
  160.5760  208.1240  151.6900 C   0  0  2  0  0  3  0  0  0  0  0  0
  160.0580  211.5370  151.6040 O   0  0  0  0  0  1  0  0  0  0  0  0
  161.8750  207.7360  153.6710 C   0  0  1  0  0  3  0  0  0  0  0  0
  1  6  1  0  0  0  0
  1 21  1  0  0  0  0
  4 22  1  0  0  0  0
  5 27  1  6  0  0  0
  5 17  1  0  0  0  0
  6 23  1  0  0  0  0
  8  2  1  0  0  0  0
  8  7  1  0  0  0  0
  9 18  1  6  0  0  0
  9 14  1  0  0  0  0
  9 13  1  0  0  0  0
 10  8  1  6  0  0  0
 10 28  1  0  0  0  0
 12 28  1  0  0  0  0
 12 25  1  1  0  0  0
 13 26  1  0  0  0  0
 14  8  1  0  0  0  0
 15 11  1  0  0  0  0
 15 23  1  0  0  0  0
 16  1  2  0  0  0  0
 17 25  1  0  0  0  0
 17  3  2  0  0  0  0
 19 15  1  0  0  0  0
 20 16  1  0  0  0  0
 20  4  2  0  0  0  0
 22 21  2  0  0  0  0
 24  5  1  0  0  0  0
 24 12  1  0  0  0  0
 25 19  1  0  0  0  0
 26 24  1  0  0  0  0
 26 10  1  0  0  0  0
 28 16  1  0  0  0  0
M  END
>  <MODEL>
4

>  <REMARK>
 VINA RESULT:      -0.7      3.882      6.195
  Name = 
  0 active torsions:
  status: ('A' for Active; 'I' for Inactive)
                            x       y       z     vdW  Elec       q    Type
                         _______ _______ _______ _____ _____    ______ ____

>  <TORSDO>
F 0

$$$$
