=
 OpenBabel11122414093D

 28 32  0  0  1  0  0  0  0  0999 V2000
  162.6310  211.6560  139.2150 C   0  0  0  0  0  0  0  0  0  0  0  0
  160.4000  211.4600  143.7350 F   0  0  0  0  0  0  0  0  0  0  0  0
  158.3570  211.8060  137.6650 O   0  0  0  0  0  0  0  0  0  0  0  0
  162.7010  214.3600  138.4970 C   0  0  0  0  0  3  0  0  0  0  0  0
  158.1340  212.9240  139.7910 C   0  0  2  0  0  3  0  0  0  0  0  0
  162.5430  210.3050  139.5520 O   0  0  0  0  0  0  0  0  0  0  0  0
  162.2090  212.9030  144.1770 C   0  0  0  0  0  1  0  0  0  0  0  0
  160.8030  212.7820  143.6260 C   0  0  1  0  0  0  0  0  0  0  0  0
  158.5520  213.7220  143.7570 C   0  0  1  0  0  3  0  0  0  0  0  0
  160.7940  213.2610  142.1510 C   0  0  2  0  0  3  0  0  0  0  0  0
  160.8200  210.4180  137.0210 O   0  0  0  0  0  1  0  0  0  0  0  0
  159.8100  211.4720  140.8690 C   0  0  1  0  0  3  0  0  0  0  0  0
  158.7340  214.4530  142.5690 O   0  0  0  0  0  0  0  0  0  0  0  0
  159.8790  213.6300  144.4740 C   0  0  0  0  0  2  0  0  0  0  0  0
  160.8620  209.4370  138.0130 C   0  0  2  0  0  3  0  0  0  0  0  0
  161.9660  212.6010  140.0100 C   0  0  0  0  0  0  0  0  0  0  0  0
  158.7080  211.9200  138.8700 C   0  0  0  0  0  0  0  0  0  0  0  0
  157.5530  214.4400  144.6390 C   0  0  0  0  0  1  0  0  0  0  0  0
  159.7850  209.6650  139.0830 C   0  0  0  0  0  2  0  0  0  0  0  0
  161.9970  213.9540  139.6340 C   0  0  0  0  0  3  0  0  0  0  0  0
  163.3330  212.0660  138.0720 C   0  0  0  0  0  3  0  0  0  0  0  0
  163.3720  213.4160  137.7180 C   0  0  0  0  0  3  0  0  0  0  0  0
  162.2730  209.2970  138.5860 C   0  0  0  0  0  2  0  0  0  0  0  0
  158.7580  212.5620  141.1390 C   0  0  1  0  0  3  0  0  0  0  0  0
  159.6640  211.0680  139.4770 N   0  0  0  0  0  0  0  0  0  0  0  0
  159.4760  213.7180  141.6730 N   0  0  2  0  0  0  0  0  0  0  0  0
  156.7510  212.7640  139.8640 O   0  0  0  0  0  1  0  0  0  0  0  0
  161.1690  212.1210  141.2100 C   0  0  1  0  0  3  0  0  0  0  0  0
  1  6  1  0  0  0  0
  1 16  1  0  0  0  0
  3 17  2  0  0  0  0
  4 20  1  0  0  0  0
  5 27  1  1  0  0  0
  5 24  1  0  0  0  0
  8  2  1  0  0  0  0
  8  7  1  1  0  0  0
  8 14  1  0  0  0  0
  9 14  1  0  0  0  0
  9 18  1  1  0  0  0
 10  8  1  0  0  0  0
 11 15  1  0  0  0  0
 12 24  1  0  0  0  0
 12 28  1  0  0  0  0
 13  9  1  0  0  0  0
 15 23  1  0  0  0  0
 15 19  1  0  0  0  0
 16 28  1  0  0  0  0
 17 25  1  0  0  0  0
 17  5  1  0  0  0  0
 19 25  1  0  0  0  0
 20 16  2  0  0  0  0
 21  1  2  0  0  0  0
 22 21  1  0  0  0  0
 22  4  2  0  0  0  0
 23  6  1  0  0  0  0
 24 26  1  0  0  0  0
 25 12  1  0  0  0  0
 26 10  1  0  0  0  0
 26 13  1  0  0  0  0
 28 10  1  0  0  0  0
M  END
>  <MODEL>
1

>  <REMARK>
 VINA RESULT:      -4.4      0.000      0.000
  Name = 
  0 active torsions:
  status: ('A' for Active; 'I' for Inactive)
                            x       y       z     vdW  Elec       q    Type
                         _______ _______ _______ _____ _____    ______ ____

>  <TORSDO>
F 0

$$$$
=
 OpenBabel11122414093D

 28 32  0  0  1  0  0  0  0  0999 V2000
  160.8640  208.8380  155.8010 C   0  0  0  0  0  0  0  0  0  0  0  0
  157.2050  211.1380  153.1980 F   0  0  0  0  0  0  0  0  0  0  0  0
  162.9350  208.6430  151.7560 O   0  0  0  0  0  0  0  0  0  0  0  0
  162.7660  210.8080  156.3790 C   0  0  0  0  0  3  0  0  0  0  0  0
  161.6660  210.6830  151.5450 C   0  0  2  0  0  3  0  0  0  0  0  0
  159.9400  207.8490  155.4620 O   0  0  0  0  0  0  0  0  0  0  0  0
  157.2340  212.4150  155.1790 C   0  0  0  0  0  1  0  0  0  0  0  0
  157.8690  212.1830  153.8230 C   0  0  1  0  0  0  0  0  0  0  0  0
  158.5530  213.2930  151.7560 C   0  0  1  0  0  3  0  0  0  0  0  0
  159.3750  211.8670  154.0170 C   0  0  2  0  0  3  0  0  0  0  0  0
  162.4490  206.8720  154.0000 O   0  0  0  0  0  1  0  0  0  0  0  0
  159.7810  209.7910  152.8600 C   0  0  1  0  0  3  0  0  0  0  0  0
  159.9020  213.3150  152.1550 O   0  0  0  0  0  0  0  0  0  0  0  0
  157.6840  213.4300  152.9850 C   0  0  0  0  0  2  0  0  0  0  0  0
  161.1160  206.5120  153.7950 C   0  0  2  0  0  3  0  0  0  0  0  0
  160.7300  210.1160  155.2380 C   0  0  0  0  0  0  0  0  0  0  0  0
  161.8940  209.3010  152.0190 C   0  0  0  0  0  0  0  0  0  0  0  0
  158.2870  214.4520  150.8200 C   0  0  0  0  0  1  0  0  0  0  0  0
  160.4660  207.3500  152.6850 C   0  0  0  0  0  2  0  0  0  0  0  0
  161.6980  211.0940  155.5240 C   0  0  0  0  0  3  0  0  0  0  0  0
  161.9400  208.5530  156.6540 C   0  0  0  0  0  3  0  0  0  0  0  0
  162.8850  209.5380  156.9460 C   0  0  0  0  0  3  0  0  0  0  0  0
  160.3350  206.5290  155.1110 C   0  0  0  0  0  2  0  0  0  0  0  0
  160.2310  210.9740  151.9850 C   0  0  1  0  0  3  0  0  0  0  0  0
  160.8140  208.7680  152.7670 N   0  0  0  0  0  0  0  0  0  0  0  0
  160.2110  212.1610  152.8380 N   0  0  2  0  0  0  0  0  0  0  0  0
  161.7390  210.7240  150.1530 O   0  0  0  0  0  1  0  0  0  0  0  0
  159.5860  210.3780  154.2750 C   0  0  1  0  0  3  0  0  0  0  0  0
  1 21  1  0  0  0  0
  2  8  1  0  0  0  0
  3 17  2  0  0  0  0
  4 22  1  0  0  0  0
  5 27  1  6  0  0  0
  5 24  1  0  0  0  0
  5 17  1  0  0  0  0
  6  1  1  0  0  0  0
  8 10  1  0  0  0  0
  8  7  1  1  0  0  0
  9 18  1  6  0  0  0
  9 13  1  0  0  0  0
  9 14  1  0  0  0  0
 10 28  1  0  0  0  0
 12 28  1  0  0  0  0
 13 26  1  0  0  0  0
 14  8  1  0  0  0  0
 15 11  1  0  0  0  0
 15 23  1  0  0  0  0
 16 20  1  0  0  0  0
 16  1  2  0  0  0  0
 17 25  1  0  0  0  0
 19 25  1  0  0  0  0
 19 15  1  0  0  0  0
 20  4  2  0  0  0  0
 21 22  2  0  0  0  0
 23  6  1  0  0  0  0
 24 26  1  0  0  0  0
 24 12  1  0  0  0  0
 25 12  1  0  0  0  0
 26 10  1  0  0  0  0
 28 16  1  0  0  0  0
M  END
>  <MODEL>
2

>  <REMARK>
 VINA RESULT:      -3.3     11.180     13.901
  Name = 
  0 active torsions:
  status: ('A' for Active; 'I' for Inactive)
                            x       y       z     vdW  Elec       q    Type
                         _______ _______ _______ _____ _____    ______ ____

>  <TORSDO>
F 0

$$$$
=
 OpenBabel11122414093D

 28 32  0  0  1  0  0  0  0  0999 V2000
  160.5360  209.7680  156.2060 C   0  0  0  0  0  0  0  0  0  0  0  0
  155.7620  210.6110  154.8060 F   0  0  0  0  0  0  0  0  0  0  0  0
  161.5090  211.3570  152.0560 O   0  0  0  0  0  0  0  0  0  0  0  0
  161.5340  212.2290  157.0890 C   0  0  0  0  0  3  0  0  0  0  0  0
  159.5010  212.5870  152.5800 C   0  0  2  0  0  3  0  0  0  0  0  0
  160.0510  208.5560  155.7120 O   0  0  0  0  0  0  0  0  0  0  0  0
  155.7190  211.3330  157.0490 C   0  0  0  0  0  1  0  0  0  0  0  0
  156.0620  211.6940  155.6170 C   0  0  1  0  0  0  0  0  0  0  0  0
  155.7310  213.3820  153.8830 C   0  0  1  0  0  3  0  0  0  0  0  0
  157.5640  212.0700  155.5370 C   0  0  2  0  0  3  0  0  0  0  0  0
  162.3280  209.1510  153.7500 O   0  0  0  0  0  1  0  0  0  0  0  0
  158.5100  210.6890  153.8020 C   0  0  1  0  0  3  0  0  0  0  0  0
  157.0030  213.9390  154.1110 O   0  0  0  0  0  0  0  0  0  0  0  0
  155.1910  212.8580  155.1930 C   0  0  0  0  0  2  0  0  0  0  0  0
  161.2530  208.2700  153.6090 C   0  0  2  0  0  3  0  0  0  0  0  0
  159.7620  210.9270  156.0460 C   0  0  0  0  0  0  0  0  0  0  0  0
  160.3810  211.3990  152.6150 C   0  0  0  0  0  0  0  0  0  0  0  0
  154.8030  214.4530  153.3500 C   0  0  0  0  0  1  0  0  0  0  0  0
  160.0790  208.9220  152.8650 C   0  0  0  0  0  2  0  0  0  0  0  0
  160.2780  212.1600  156.4810 C   0  0  0  0  0  3  0  0  0  0  0  0
  161.7990  209.8420  156.8120 C   0  0  0  0  0  3  0  0  0  0  0  0
  162.2940  211.0700  157.2570 C   0  0  0  0  0  3  0  0  0  0  0  0
  160.8610  207.6640  154.9590 C   0  0  0  0  0  2  0  0  0  0  0  0
  158.2180  212.0950  153.2490 C   0  0  1  0  0  3  0  0  0  0  0  0
  159.8210  210.2940  153.3030 N   0  0  0  0  0  0  0  0  0  0  0  0
  157.9080  212.9430  154.3990 N   0  0  2  0  0  0  0  0  0  0  0  0
  159.2280  212.9360  151.2570 O   0  0  0  0  0  1  0  0  0  0  0  0
  158.4230  210.8250  155.3380 C   0  0  1  0  0  3  0  0  0  0  0  0
  1 21  1  0  0  0  0
  2  8  1  0  0  0  0
  3 17  2  0  0  0  0
  4 22  1  0  0  0  0
  5 27  1  6  0  0  0
  5 17  1  0  0  0  0
  5 24  1  0  0  0  0
  6  1  1  0  0  0  0
  8  7  1  1  0  0  0
  9 18  1  1  0  0  0
  9 13  1  0  0  0  0
  9 14  1  0  0  0  0
 10  8  1  0  0  0  0
 12 28  1  0  0  0  0
 13 26  1  0  0  0  0
 14  8  1  0  0  0  0
 15 11  1  0  0  0  0
 15 23  1  0  0  0  0
 16  1  2  0  0  0  0
 16 20  1  0  0  0  0
 17 25  1  0  0  0  0
 19 25  1  0  0  0  0
 19 15  1  0  0  0  0
 20  4  2  0  0  0  0
 21 22  2  0  0  0  0
 23  6  1  0  0  0  0
 24 12  1  0  0  0  0
 24 26  1  0  0  0  0
 25 12  1  0  0  0  0
 26 10  1  0  0  0  0
 28 10  1  0  0  0  0
 28 16  1  0  0  0  0
M  END
>  <MODEL>
3

>  <REMARK>
 VINA RESULT:      -3.2     12.382     14.622
  Name = 
  0 active torsions:
  status: ('A' for Active; 'I' for Inactive)
                            x       y       z     vdW  Elec       q    Type
                         _______ _______ _______ _____ _____    ______ ____

>  <TORSDO>
F 0

$$$$
