=
 OpenBabel11122413553D

 37 44  0  0  1  0  0  0  0  0999 V2000
  160.7760  207.6860  154.7050 C   0  0  2  0  0  3  0  0  0  0  0  0
  161.1480  203.9130  151.7260 C   0  0  0  0  0  0  0  0  0  0  0  0
  161.2850  207.6380  149.9000 C   0  0  0  0  0  0  0  0  0  0  0  0
  159.8830  208.2480  155.7910 C   0  0  2  0  0  3  0  0  0  0  0  0
  162.9130  210.4990  151.9840 C   0  0  0  0  0  2  0  0  0  0  0  0
  160.7430  205.3090  149.6570 C   0  0  0  0  0  0  0  0  0  0  0  0
  161.6840  208.5030  151.0160 C   0  0  0  0  0  0  0  0  0  0  0  0
  161.4010  210.1590  155.3870 C   0  0  2  0  0  3  0  0  0  0  0  0
  160.9130  206.4400  150.4340 C   0  0  0  0  0  0  0  0  0  0  0  0
  162.1390  209.7710  150.8930 C   0  0  0  0  0  0  0  0  0  0  0  0
  160.9110  205.4110  148.3100 N   0  0  0  0  0  0  0  0  0  0  0  0
  161.3500  208.6660  155.7450 C   0  0  2  0  0  3  0  0  0  0  0  0
  161.0550  206.3920  151.8310 N   0  0  0  0  0  0  0  0  0  0  0  0
  162.6470  203.7390  151.5520 C   0  0  0  0  0  1  0  0  0  0  0  0
  162.1920  208.8840  147.8910 C   0  0  0  0  0  3  0  0  0  0  0  0
  161.3120  206.5870  147.7370 C   0  0  0  0  0  3  0  0  0  0  0  0
  160.8710  205.1580  152.5970 C   0  0  0  0  0  2  0  0  0  0  0  0
  161.4810  210.4540  153.8930 C   0  0  1  0  0  3  0  0  0  0  0  0
  162.7400  209.9630  153.3300 N   0  0  0  0  0  2  0  0  0  0  0  0
  161.5480  207.7310  148.5260 C   0  0  0  0  0  0  0  0  0  0  0  0
  161.5220  207.6900  152.3100 C   0  0  2  0  0  3  0  0  0  0  0  0
  160.4650  204.0010  150.3400 C   0  0  0  0  0  2  0  0  0  0  0  0
  161.8670  210.5270  149.6920 N   0  0  0  0  0  0  0  0  0  0  0  0
  160.6120  202.6960  152.4480 C   0  0  0  0  0  1  0  0  0  0  0  0
  160.2930  209.7670  153.2410 C   0  0  0  0  0  2  0  0  0  0  0  0
  162.5220  210.8460  156.1460 C   0  0  0  0  0  1  0  0  0  0  0  0
  160.4700  208.2460  153.2980 C   0  0  2  0  0  3  0  0  0  0  0  0
  162.3360  210.1050  148.4010 C   0  0  0  0  0  3  0  0  0  0  0  0
  161.6970  212.8750  148.9030 C   0  0  0  0  0  3  0  0  0  0  0  0
  161.3210  211.8620  149.8050 C   0  0  0  0  0  0  0  0  0  0  0  0
  160.3760  212.1640  150.7990 C   0  0  0  0  0  3  0  0  0  0  0  0
  158.9260  213.7220  151.8710 F   0  0  0  0  0  0  0  0  0  0  0  0
  160.2210  214.4450  150.0050 C   0  0  0  0  0  3  0  0  0  0  0  0
  159.8320  213.4470  150.9020 C   0  0  0  0  0  0  0  0  0  0  0  0
  161.1530  214.1580  149.0050 C   0  0  0  0  0  3  0  0  0  0  0  0
  160.7120  206.6030  157.2600 C   0  0  0  0  0  2  0  0  0  0  0  0
  159.7040  207.2590  156.8180 N   0  0  0  0  0  0  0  0  0  0  0  0
  1 12  1  0  0  0  0
  1  4  1  0  0  0  0
  2 24  1  0  0  0  0
  2 17  1  0  0  0  0
  3  9  1  0  0  0  0
  3  7  1  0  0  0  0
  4 37  1  0  0  0  0
  5 19  1  0  0  0  0
  6 22  1  0  0  0  0
  6  9  2  0  0  0  0
  7 21  1  0  0  0  0
  8 12  1  0  0  0  0
  8 26  1  0  0  0  0
  9 13  1  0  0  0  0
 10  7  2  0  0  0  0
 10  5  1  0  0  0  0
 11  6  1  0  0  0  0
 12  4  1  0  0  0  0
 13 21  1  0  0  0  0
 13 17  1  0  0  0  0
 14  2  1  0  0  0  0
 15 28  2  0  0  0  0
 15 20  1  0  0  0  0
 16 11  2  0  0  0  0
 16 20  1  0  0  0  0
 18  8  1  0  0  0  0
 19 18  1  0  0  0  0
 20  3  2  0  0  0  0
 21 27  1  0  0  0  0
 22  2  1  0  0  0  0
 23 30  1  0  0  0  0
 23 10  1  0  0  0  0
 25 27  1  0  0  0  0
 25 18  1  0  0  0  0
 27  1  1  0  0  0  0
 28 23  1  0  0  0  0
 29 35  2  0  0  0  0
 29 30  1  0  0  0  0
 30 31  2  0  0  0  0
 31 34  1  0  0  0  0
 33 34  2  0  0  0  0
 34 32  1  0  0  0  0
 35 33  1  0  0  0  0
 37 36  2  0  0  0  0
M  END
>  <MODEL>
1

>  <REMARK>
 VINA RESULT:      -6.3      0.000      0.000
  Name = 
  2 active torsions:
  status: ('A' for Active; 'I' for Inactive)
    1  A    between atoms: C_4  and  N_37
    2  A    between atoms: N_23  and  C_30
                            x       y       z     vdW  Elec       q    Type
                         _______ _______ _______ _____ _____    ______ ____

>  <TORSDO>
F 2

$$$$
=
 OpenBabel11122413553D

 37 44  0  0  1  0  0  0  0  0999 V2000
  161.6080  210.9360  149.0170 C   0  0  2  0  0  3  0  0  0  0  0  0
  161.4680  206.2280  147.9870 C   0  0  0  0  0  0  0  0  0  0  0  0
  161.3490  207.1660  152.0280 C   0  0  0  0  0  0  0  0  0  0  0  0
  162.4320  212.1780  148.7490 C   0  0  2  0  0  3  0  0  0  0  0  0
  159.5570  210.5010  152.9510 C   0  0  0  0  0  2  0  0  0  0  0  0
  161.9500  205.5340  150.3700 C   0  0  0  0  0  0  0  0  0  0  0  0
  160.8750  208.5550  151.9980 C   0  0  0  0  0  0  0  0  0  0  0  0
  160.8980  212.9940  150.5100 C   0  0  2  0  0  3  0  0  0  0  0  0
  161.7180  206.8400  150.7570 C   0  0  0  0  0  0  0  0  0  0  0  0
  160.4010  209.2370  153.0660 C   0  0  0  0  0  0  0  0  0  0  0  0
  161.8510  204.5480  151.3040 N   0  0  0  0  0  0  0  0  0  0  0  0
  160.9620  212.3300  149.1270 C   0  0  2  0  0  3  0  0  0  0  0  0
  161.5040  207.8820  149.8370 N   0  0  0  0  0  0  0  0  0  0  0  0
  159.9840  205.9040  147.9870 C   0  0  0  0  0  1  0  0  0  0  0  0
  160.5210  206.3540  154.2790 C   0  0  0  0  0  3  0  0  0  0  0  0
  161.4540  204.8290  152.5830 C   0  0  0  0  0  3  0  0  0  0  0  0
  161.6740  207.7030  148.3950 C   0  0  0  0  0  2  0  0  0  0  0  0
  160.8890  212.0230  151.6860 C   0  0  1  0  0  3  0  0  0  0  0  0
  159.6710  211.2100  151.6820 N   0  0  0  0  0  2  0  0  0  0  0  0
  161.1560  206.1500  152.9740 C   0  0  0  0  0  0  0  0  0  0  0  0
  160.9870  209.0480  150.5480 C   0  0  2  0  0  3  0  0  0  0  0  0
  162.2200  205.2480  148.9210 C   0  0  0  0  0  2  0  0  0  0  0  0
  160.7190  208.8030  154.4070 N   0  0  0  0  0  0  0  0  0  0  0  0
  161.9920  206.0450  146.5790 C   0  0  0  0  0  1  0  0  0  0  0  0
  162.1230  211.1470  151.5460 C   0  0  0  0  0  2  0  0  0  0  0  0
  159.7260  213.9560  150.5800 C   0  0  0  0  0  1  0  0  0  0  0  0
  161.9750  210.2190  150.3350 C   0  0  2  0  0  3  0  0  0  0  0  0
  160.3260  207.5130  154.9040 C   0  0  0  0  0  3  0  0  0  0  0  0
  160.3890  210.3360  156.3300 C   0  0  0  0  0  3  0  0  0  0  0  0
  161.2300  209.7630  155.3590 C   0  0  0  0  0  0  0  0  0  0  0  0
  162.5900  210.1170  155.3550 C   0  0  0  0  0  3  0  0  0  0  0  0
  164.4060  211.3660  156.2610 F   0  0  0  0  0  0  0  0  0  0  0  0
  162.2440  211.5990  157.2370 C   0  0  0  0  0  3  0  0  0  0  0  0
  163.0930  211.0310  156.2840 C   0  0  0  0  0  0  0  0  0  0  0  0
  160.8910  211.2500  157.2600 C   0  0  0  0  0  3  0  0  0  0  0  0
  162.0440  213.3660  146.7520 C   0  0  0  0  0  2  0  0  0  0  0  0
  162.5780  212.3560  147.3320 N   0  0  0  0  0  0  0  0  0  0  0  0
  1 12  1  0  0  0  0
  1 27  1  0  0  0  0
  2 14  1  0  0  0  0
  2 17  1  0  0  0  0
  2 22  1  0  0  0  0
  3 20  1  0  0  0  0
  4  1  1  0  0  0  0
  4 12  1  0  0  0  0
  5 10  1  0  0  0  0
  6  9  1  0  0  0  0
  6 11  2  0  0  0  0
  7  3  1  0  0  0  0
  7 10  2  0  0  0  0
  8 26  1  0  0  0  0
  8 18  1  0  0  0  0
  9  3  2  0  0  0  0
 10 23  1  0  0  0  0
 11 16  1  0  0  0  0
 12  8  1  0  0  0  0
 13 21  1  0  0  0  0
 13  9  1  0  0  0  0
 15 28  2  0  0  0  0
 16 20  2  0  0  0  0
 17 13  1  0  0  0  0
 19 18  1  0  0  0  0
 19  5  1  0  0  0  0
 20 15  1  0  0  0  0
 21  7  1  0  0  0  0
 22  6  1  0  0  0  0
 23 28  1  0  0  0  0
 23 30  1  0  0  0  0
 24  2  1  0  0  0  0
 25 18  1  0  0  0  0
 27 21  1  0  0  0  0
 27 25  1  0  0  0  0
 29 35  1  0  0  0  0
 30 29  2  0  0  0  0
 31 30  1  0  0  0  0
 31 34  2  0  0  0  0
 32 34  1  0  0  0  0
 33 35  2  0  0  0  0
 34 33  1  0  0  0  0
 36 37  2  0  0  0  0
 37  4  1  0  0  0  0
M  END
>  <MODEL>
2

>  <REMARK>
 VINA RESULT:      -4.6      1.942      5.934
  Name = 
  2 active torsions:
  status: ('A' for Active; 'I' for Inactive)
    1  A    between atoms: C_4  and  N_37
    2  A    between atoms: N_23  and  C_30
                            x       y       z     vdW  Elec       q    Type
                         _______ _______ _______ _____ _____    ______ ____

>  <TORSDO>
F 2

$$$$
