=
 OpenBabel11122413423D

 37 44  0  0  1  0  0  0  0  0999 V2000
  160.8300  207.7230  151.4560 C   0  0  0  0  0  2  0  0  0  0  0  0
  160.9280  208.7070  156.0760 C   0  0  1  0  0  0  0  0  0  0  0  0
  159.7420  211.0940  152.8600 C   0  0  0  0  0  0  0  0  0  0  0  0
  161.2620  206.2850  151.1570 C   0  0  2  0  0  3  0  0  0  0  0  0
  161.9500  211.0180  149.5940 C   0  0  0  0  0  2  0  0  0  0  0  0
  159.3870  210.4310  155.1600 C   0  0  0  0  0  0  0  0  0  0  0  0
  160.7250  210.8680  151.8410 N   0  0  0  0  0  0  0  0  0  0  0  0
  162.0960  207.1990  148.9730 C   0  0  0  0  0  0  0  0  0  0  0  0
  160.0290  210.3280  153.9470 C   0  0  0  0  0  0  0  0  0  0  0  0
  160.9060  211.5530  150.5570 C   0  0  0  0  0  0  0  0  0  0  0  0
  158.3100  211.3170  155.2630 C   0  0  0  0  0  3  0  0  0  0  0  0
  162.3200  206.1860  150.0530 C   0  0  0  0  0  2  0  0  0  0  0  0
  161.1810  209.5640  153.7750 N   0  0  0  0  0  0  0  0  0  0  0  0
  160.3030  207.3610  155.7580 C   0  0  0  0  0  1  0  0  0  0  0  0
  158.3000  212.9090  151.8640 C   0  0  0  0  0  3  0  0  0  0  0  0
  157.9590  212.0990  154.1410 C   0  0  0  0  0  3  0  0  0  0  0  0
  161.9170  209.0870  154.9440 C   0  0  0  0  0  2  0  0  0  0  0  0
  162.7120  208.5660  149.0730 C   0  0  1  0  0  3  0  0  0  0  0  0
  161.7490  209.5370  149.5600 C   0  0  1  0  0  3  0  0  0  0  0  0
  158.6900  212.0120  152.9330 C   0  0  0  0  0  0  0  0  0  0  0  0
  161.7230  209.9330  152.4710 C   0  0  1  0  0  3  0  0  0  0  0  0
  159.8820  209.6880  156.2410 O   0  0  0  0  0  0  0  0  0  0  0  0
  160.1290  212.5760  150.0980 C   0  0  0  0  0  0  0  0  0  0  0  0
  161.6290  208.5960  157.2610 F   0  0  0  0  0  0  0  0  0  0  0  0
  162.8070  209.0630  150.4670 N   0  0  1  0  0  0  0  0  0  0  0  0
  161.4040  206.9140  148.0090 O   0  0  0  0  0  0  0  0  0  0  0  0
  162.0400  208.6590  151.6580 C   0  0  2  0  0  3  0  0  0  0  0  0
  158.9060  213.1290  150.7090 C   0  0  0  0  0  3  0  0  0  0  0  0
  161.6970  213.8470  148.6150 C   0  0  0  0  0  3  0  0  0  0  0  0
  160.4470  213.2390  148.8090 C   0  0  0  0  0  0  0  0  0  0  0  0
  159.5180  213.2330  147.7570 C   0  0  0  0  0  3  0  0  0  0  0  0
  158.6580  213.8340  145.2360 Cl  0  0  0  0  0  0  0  0  0  0  0  0
  161.0710  214.4520  146.3560 C   0  0  0  0  0  3  0  0  0  0  0  0
  159.8280  213.8400  146.5370 C   0  0  0  0  0  0  0  0  0  0  0  0
  162.0060  214.4530  147.3940 C   0  0  0  0  0  3  0  0  0  0  0  0
  160.4570  204.1610  150.4170 O   0  0  0  0  0  1  0  0  0  0  0  0
  160.0520  205.4430  150.7900 C   0  0  0  0  0  2  0  0  0  0  0  0
  1 27  1  0  0  0  0
  2 14  1  6  0  0  0
  2 22  1  0  0  0  0
  2 24  1  0  0  0  0
  3 20  2  0  0  0  0
  3  9  1  0  0  0  0
  4 37  1  6  0  0  0
  4  1  1  0  0  0  0
  5 10  1  0  0  0  0
  6 11  1  0  0  0  0
  6 22  1  0  0  0  0
  7  3  1  0  0  0  0
  8 12  1  0  0  0  0
  9  6  2  0  0  0  0
 10  7  1  0  0  0  0
 12  4  1  0  0  0  0
 13  9  1  0  0  0  0
 13 17  1  0  0  0  0
 15 20  1  0  0  0  0
 16 11  2  0  0  0  0
 17  2  1  0  0  0  0
 18  8  1  1  0  0  0
 18 19  1  0  0  0  0
 18 25  1  0  0  0  0
 19  5  1  6  0  0  0
 19 25  1  0  0  0  0
 20 16  1  0  0  0  0
 21  7  1  6  0  0  0
 21 13  1  0  0  0  0
 23 10  2  0  0  0  0
 23 28  1  0  0  0  0
 25 27  1  0  0  0  0
 26  8  2  0  0  0  0
 27 21  1  0  0  0  0
 28 15  2  0  0  0  0
 29 30  1  0  0  0  0
 30 23  1  0  0  0  0
 31 30  2  0  0  0  0
 32 34  1  0  0  0  0
 33 34  2  0  0  0  0
 33 35  1  0  0  0  0
 34 31  1  0  0  0  0
 35 29  2  0  0  0  0
 36 37  1  0  0  0  0
M  END
>  <MODEL>
1

>  <REMARK>
 VINA RESULT:      -5.3      0.000      0.000
  Name = 
  2 active torsions:
  status: ('A' for Active; 'I' for Inactive)
    1  A    between atoms: C_4  and  C_37
    2  A    between atoms: C_23  and  C_30
                            x       y       z     vdW  Elec       q    Type
                         _______ _______ _______ _____ _____    ______ ____

>  <TORSDO>
F 2

$$$$
=
 OpenBabel11122413423D

 37 44  0  0  1  0  0  0  0  0999 V2000
  161.0680  208.3990  151.8000 C   0  0  0  0  0  2  0  0  0  0  0  0
  161.7120  210.0020  156.1970 C   0  0  1  0  0  0  0  0  0  0  0  0
  159.7860  211.7960  152.9550 C   0  0  0  0  0  0  0  0  0  0  0  0
  161.6260  206.9860  151.6070 C   0  0  2  0  0  3  0  0  0  0  0  0
  161.4900  211.5100  149.4100 C   0  0  0  0  0  2  0  0  0  0  0  0
  159.8530  211.4160  155.3430 C   0  0  0  0  0  0  0  0  0  0  0  0
  160.6320  211.5380  151.8250 N   0  0  0  0  0  0  0  0  0  0  0  0
  162.0150  207.6790  149.2260 C   0  0  0  0  0  0  0  0  0  0  0  0
  160.3200  211.2180  154.0640 C   0  0  0  0  0  0  0  0  0  0  0  0
  160.5390  212.0590  150.4570 C   0  0  0  0  0  0  0  0  0  0  0  0
  158.7020  212.1920  155.5110 C   0  0  0  0  0  3  0  0  0  0  0  0
  162.5170  206.8490  150.3680 C   0  0  0  0  0  2  0  0  0  0  0  0
  161.5210  210.5620  153.8010 N   0  0  0  0  0  0  0  0  0  0  0  0
  161.2190  208.5670  156.1430 C   0  0  0  0  0  1  0  0  0  0  0  0
  158.0020  213.3010  151.9950 C   0  0  0  0  0  3  0  0  0  0  0  0
  158.0980  212.7740  154.3760 C   0  0  0  0  0  3  0  0  0  0  0  0
  162.4720  210.3260  154.8850 C   0  0  0  0  0  2  0  0  0  0  0  0
  162.4650  209.1030  149.0650 C   0  0  1  0  0  3  0  0  0  0  0  0
  161.4700  210.0260  149.5820 C   0  0  1  0  0  3  0  0  0  0  0  0
  158.6510  212.6010  153.0850 C   0  0  0  0  0  0  0  0  0  0  0  0
  161.8190  210.8060  152.3930 C   0  0  1  0  0  3  0  0  0  0  0  0
  160.5870  210.8820  156.4110 O   0  0  0  0  0  0  0  0  0  0  0  0
  159.5830  212.9240  150.0110 C   0  0  0  0  0  0  0  0  0  0  0  0
  162.5860  210.1250  157.2600 F   0  0  0  0  0  0  0  0  0  0  0  0
  162.6990  209.7910  150.3580 N   0  0  1  0  0  0  0  0  0  0  0  0
  161.2310  207.1960  148.4250 O   0  0  0  0  0  0  0  0  0  0  0  0
  162.1690  209.4740  151.6950 C   0  0  2  0  0  3  0  0  0  0  0  0
  158.4030  213.4240  150.7400 C   0  0  0  0  0  3  0  0  0  0  0  0
  158.4370  213.7330  147.9360 C   0  0  0  0  0  3  0  0  0  0  0  0
  159.6270  213.4370  148.6190 C   0  0  0  0  0  0  0  0  0  0  0  0
  160.8580  213.6680  147.9840 C   0  0  0  0  0  3  0  0  0  0  0  0
  162.4350  214.4470  145.8960 Cl  0  0  0  0  0  0  0  0  0  0  0  0
  159.7070  214.4530  146.0050 C   0  0  0  0  0  3  0  0  0  0  0  0
  160.8960  214.1710  146.6800 C   0  0  0  0  0  0  0  0  0  0  0  0
  158.4780  214.2360  146.6330 C   0  0  0  0  0  3  0  0  0  0  0  0
  160.9460  204.7780  151.0020 O   0  0  0  0  0  1  0  0  0  0  0  0
  160.4890  205.9810  151.5400 C   0  0  0  0  0  2  0  0  0  0  0  0
  2 14  1  6  0  0  0
  2 22  1  0  0  0  0
  2 24  1  0  0  0  0
  3 20  2  0  0  0  0
  3  9  1  0  0  0  0
  4 37  1  6  0  0  0
  4  1  1  0  0  0  0
  5 10  1  0  0  0  0
  6 11  1  0  0  0  0
  6 22  1  0  0  0  0
  7  3  1  0  0  0  0
  8 12  1  0  0  0  0
  9  6  2  0  0  0  0
 10  7  1  0  0  0  0
 12  4  1  0  0  0  0
 13  9  1  0  0  0  0
 13 17  1  0  0  0  0
 15 20  1  0  0  0  0
 16 11  2  0  0  0  0
 17  2  1  0  0  0  0
 18  8  1  1  0  0  0
 18 19  1  0  0  0  0
 18 25  1  0  0  0  0
 19  5  1  6  0  0  0
 19 25  1  0  0  0  0
 20 16  1  0  0  0  0
 21  7  1  6  0  0  0
 21 13  1  0  0  0  0
 23 10  2  0  0  0  0
 23 28  1  0  0  0  0
 25 27  1  0  0  0  0
 26  8  2  0  0  0  0
 27  1  1  0  0  0  0
 27 21  1  0  0  0  0
 28 15  2  0  0  0  0
 29 30  1  0  0  0  0
 30 23  1  0  0  0  0
 31 30  2  0  0  0  0
 32 34  1  0  0  0  0
 33 35  1  0  0  0  0
 33 34  2  0  0  0  0
 34 31  1  0  0  0  0
 35 29  2  0  0  0  0
 36 37  1  0  0  0  0
M  END
>  <MODEL>
2

>  <REMARK>
 VINA RESULT:      -4.3      1.112      1.399
  Name = 
  2 active torsions:
  status: ('A' for Active; 'I' for Inactive)
    1  A    between atoms: C_4  and  C_37
    2  A    between atoms: C_23  and  C_30
                            x       y       z     vdW  Elec       q    Type
                         _______ _______ _______ _____ _____    ______ ____

>  <TORSDO>
F 2

$$$$
=
 OpenBabel11122413423D

 37 44  0  0  1  0  0  0  0  0999 V2000
  160.0280  211.0610  151.6580 C   0  0  0  0  0  2  0  0  0  0  0  0
  158.2100  213.6960  155.1330 C   0  0  1  0  0  0  0  0  0  0  0  0
  157.3260  213.6790  151.0510 C   0  0  0  0  0  0  0  0  0  0  0  0
  161.0540  210.0470  152.1710 C   0  0  2  0  0  3  0  0  0  0  0  0
  160.3330  213.4270  148.5140 C   0  0  0  0  0  2  0  0  0  0  0  0
  156.5180  213.8990  153.3210 C   0  0  0  0  0  0  0  0  0  0  0  0
  158.5960  213.5900  150.3910 N   0  0  0  0  0  0  0  0  0  0  0  0
  162.1380  210.3050  149.9220 C   0  0  0  0  0  0  0  0  0  0  0  0
  157.5100  213.6590  152.3980 C   0  0  0  0  0  0  0  0  0  0  0  0
  158.9100  213.7010  148.9630 C   0  0  0  0  0  0  0  0  0  0  0  0
  155.2150  214.0890  152.8530 C   0  0  0  0  0  3  0  0  0  0  0  0
  162.3670  210.0600  151.3820 C   0  0  0  0  0  2  0  0  0  0  0  0
  158.8550  213.5750  152.7540 N   0  0  0  0  0  0  0  0  0  0  0  0
  158.2960  212.2200  155.4760 C   0  0  0  0  0  1  0  0  0  0  0  0
  155.7100  213.9700  149.1350 C   0  0  0  0  0  3  0  0  0  0  0  0
  154.9800  214.0750  151.4610 C   0  0  0  0  0  3  0  0  0  0  0  0
  159.2890  214.0340  154.0710 C   0  0  0  0  0  2  0  0  0  0  0  0
  162.1080  211.7060  149.3810 C   0  0  1  0  0  3  0  0  0  0  0  0
  160.7430  212.1700  149.2100 C   0  0  1  0  0  3  0  0  0  0  0  0
  156.0410  213.8930  150.5430 C   0  0  0  0  0  0  0  0  0  0  0  0
  159.6090  213.6130  151.5040 C   0  0  1  0  0  3  0  0  0  0  0  0
  156.8750  213.9990  154.6730 O   0  0  0  0  0  0  0  0  0  0  0  0
  157.9970  213.9240  147.9750 C   0  0  0  0  0  0  0  0  0  0  0  0
  158.4670  214.4270  156.2760 F   0  0  0  0  0  0  0  0  0  0  0  0
  161.5390  212.6880  150.3350 N   0  0  1  0  0  0  0  0  0  0  0  0
  161.9690  209.3590  149.1690 O   0  0  0  0  0  0  0  0  0  0  0  0
  160.6420  212.4660  151.4820 C   0  0  2  0  0  3  0  0  0  0  0  0
  156.5280  213.9840  148.0950 C   0  0  0  0  0  3  0  0  0  0  0  0
  157.4960  214.2780  145.5460 C   0  0  0  0  0  3  0  0  0  0  0  0
  158.4400  214.0850  146.5670 C   0  0  0  0  0  0  0  0  0  0  0  0
  159.8070  214.0850  146.2460 C   0  0  0  0  0  3  0  0  0  0  0  0
  161.9270  214.2470  144.5340 Cl  0  0  0  0  0  0  0  0  0  0  0  0
  159.2750  214.4390  143.9120 C   0  0  0  0  0  3  0  0  0  0  0  0
  160.2210  214.2570  144.9230 C   0  0  0  0  0  0  0  0  0  0  0  0
  157.9130  214.4510  144.2230 C   0  0  0  0  0  3  0  0  0  0  0  0
  160.8880  207.9360  153.2760 O   0  0  0  0  0  1  0  0  0  0  0  0
  160.4560  208.6500  152.1580 C   0  0  0  0  0  2  0  0  0  0  0  0
  1  4  1  0  0  0  0
  2 14  1  1  0  0  0
  2 24  1  0  0  0  0
  3  9  1  0  0  0  0
  4 37  1  6  0  0  0
  5 10  1  0  0  0  0
  6 22  1  0  0  0  0
  7  3  1  0  0  0  0
  8 12  1  0  0  0  0
  9 13  1  0  0  0  0
  9  6  2  0  0  0  0
 10  7  1  0  0  0  0
 11  6  1  0  0  0  0
 12  4  1  0  0  0  0
 13 17  1  0  0  0  0
 15 20  1  0  0  0  0
 16 11  2  0  0  0  0
 17  2  1  0  0  0  0
 18  8  1  1  0  0  0
 18 25  1  0  0  0  0
 19  5  1  6  0  0  0
 19 18  1  0  0  0  0
 19 25  1  0  0  0  0
 20  3  2  0  0  0  0
 20 16  1  0  0  0  0
 21  7  1  6  0  0  0
 21 13  1  0  0  0  0
 22  2  1  0  0  0  0
 23 28  1  0  0  0  0
 23 10  2  0  0  0  0
 25 27  1  0  0  0  0
 26  8  2  0  0  0  0
 27 21  1  0  0  0  0
 27  1  1  0  0  0  0
 28 15  2  0  0  0  0
 29 30  1  0  0  0  0
 30 23  1  0  0  0  0
 31 30  2  0  0  0  0
 32 34  1  0  0  0  0
 33 35  1  0  0  0  0
 33 34  2  0  0  0  0
 34 31  1  0  0  0  0
 35 29  2  0  0  0  0
 37 36  1  0  0  0  0
M  END
>  <MODEL>
3

>  <REMARK>
 VINA RESULT:      -2.8      2.698      4.157
  Name = 
  2 active torsions:
  status: ('A' for Active; 'I' for Inactive)
    1  A    between atoms: C_4  and  C_37
    2  A    between atoms: C_23  and  C_30
                            x       y       z     vdW  Elec       q    Type
                         _______ _______ _______ _____ _____    ______ ____

>  <TORSDO>
F 2

$$$$
