=
 OpenBabel11122414213D

 34 42  0  0  1  0  0  0  0  0999 V2000
  160.9930  207.9260  154.0880 C   0  0  0  0  0  0  0  0  0  0  0  0
  162.3810  206.1790  152.9520 C   0  0  0  0  0  2  0  0  0  0  0  0
  159.6550  213.2460  155.8780 C   0  0  2  0  0  0  0  0  0  0  0  0
  159.1700  209.3650  154.7270 C   0  0  0  0  0  0  0  0  0  0  0  0
  159.0600  211.7510  153.7960 C   0  0  1  0  0  3  0  0  0  0  0  0
  160.4710  211.9590  155.9700 C   0  0  2  0  0  3  0  0  0  0  0  0
  160.6690  213.0640  156.9870 C   0  0  0  0  0  2  0  0  0  0  0  0
  157.7890  211.6240  156.7220 C   0  0  0  0  0  2  0  0  0  0  0  0
  162.4200  208.4410  152.0450 N   0  0  2  0  0  0  0  0  0  0  0  0
  161.5160  208.4550  148.9190 C   0  0  0  0  0  2  0  0  0  0  0  0
  159.7320  211.1790  152.5480 C   0  0  0  0  0  2  0  0  0  0  0  0
  157.2430  210.9210  155.4960 C   0  0  0  0  0  2  0  0  0  0  0  0
  161.3270  209.3840  151.6950 C   0  0  1  0  0  3  0  0  0  0  0  0
  163.0850  206.1470  151.6260 C   0  0  0  0  0  2  0  0  0  0  0  0
  158.3210  210.5800  154.4690 C   0  0  2  0  0  3  0  0  0  0  0  0
  158.2030  213.0470  156.3570 C   0  0  0  0  0  2  0  0  0  0  0  0
  161.6340  207.2700  149.8960 C   0  0  1  0  0  3  0  0  0  0  0  0
  160.2930  209.1210  153.9140 C   0  0  0  0  0  0  0  0  0  0  0  0
  160.1220  212.5400  154.6080 C   0  0  2  0  0  3  0  0  0  0  0  0
  160.8030  210.1320  152.9220 C   0  0  2  0  0  3  0  0  0  0  0  0
  159.4950  207.2900  155.8100 C   0  0  0  0  0  3  0  0  0  0  0  0
  162.3130  209.6950  149.3360 C   0  0  0  0  0  2  0  0  0  0  0  0
  158.7860  208.4350  155.6410 N   0  0  0  0  0  0  0  0  0  0  0  0
  161.7660  210.3680  150.5980 C   0  0  0  0  0  2  0  0  0  0  0  0
  162.7340  207.4650  150.9740 C   0  0  1  0  0  3  0  0  0  0  0  0
  160.5900  207.0460  155.0450 N   0  0  0  0  0  0  0  0  0  0  0  0
  162.2450  207.6520  153.2890 C   0  0  1  0  0  3  0  0  0  0  0  0
  160.3880  207.0090  150.4770 O   0  0  0  0  0  0  0  0  0  0  0  0
  159.7630  206.0920  149.6300 C   0  0  0  0  0  2  0  0  0  0  0  0
  160.9660  202.8500  150.9160 O   0  0  0  0  0  0  0  0  0  0  0  0
  160.8900  204.0410  148.9390 N   0  0  0  0  0  0  0  0  0  0  0  0
  160.3450  204.7400  149.8520 C   0  0  0  0  0  0  0  0  0  0  0  0
  161.2790  202.8670  149.5860 N   0  0  0  0  0  2  0  0  0  0  0  0
  160.3520  204.0570  151.0880 N   0  0  0  0  0  2  0  0  0  0  0  0
  1 26  1  0  0  0  0
  2 27  1  0  0  0  0
  3  6  1  0  0  0  0
  3 16  1  1  0  0  0
  3  7  1  0  0  0  0
  4 23  2  0  0  0  0
  5 11  1  6  0  0  0
  5 15  1  0  0  0  0
  5 19  1  0  0  0  0
  6  7  1  1  0  0  0
  9 27  1  0  0  0  0
 10 22  1  0  0  0  0
 10 17  1  0  0  0  0
 11 20  1  0  0  0  0
 12  8  1  0  0  0  0
 13  9  1  0  0  0  0
 13 20  1  0  0  0  0
 14  2  1  0  0  0  0
 15  4  1  0  0  0  0
 15 12  1  0  0  0  0
 16  8  1  0  0  0  0
 17 28  1  0  0  0  0
 17 25  1  0  0  0  0
 18  1  2  0  0  0  0
 18  4  1  0  0  0  0
 19  3  1  0  0  0  0
 19  6  1  0  0  0  0
 20 18  1  0  0  0  0
 22 24  1  0  0  0  0
 23 21  1  0  0  0  0
 24 13  1  0  0  0  0
 25 14  1  0  0  0  0
 25  9  1  0  0  0  0
 26 21  2  0  0  0  0
 27  1  1  0  0  0  0
 29 32  1  0  0  0  0
 29 28  1  0  0  0  0
 30 34  1  0  0  0  0
 31 33  1  0  0  0  0
 31 32  2  0  0  0  0
 32 34  1  0  0  0  0
 33 30  1  0  0  0  0
M  END
>  <MODEL>
1

>  <REMARK>
 VINA RESULT:      -3.2      0.000      0.000
  Name = 
  3 active torsions:
  status: ('A' for Active; 'I' for Inactive)
    1  A    between atoms: C_17  and  O_28
    2  A    between atoms: O_28  and  C_29
    3  A    between atoms: C_29  and  C_32
                            x       y       z     vdW  Elec       q    Type
                         _______ _______ _______ _____ _____    ______ ____

>  <TORSDO>
F 3

$$$$
=
 OpenBabel11122414213D

 34 42  0  0  1  0  0  0  0  0999 V2000
  161.1090  211.5990  150.7370 C   0  0  0  0  0  0  0  0  0  0  0  0
  160.8540  213.3300  148.9460 C   0  0  0  0  0  2  0  0  0  0  0  0
  161.3220  209.6160  156.1520 C   0  0  2  0  0  0  0  0  0  0  0  0
  160.8150  209.6400  152.1060 C   0  0  0  0  0  0  0  0  0  0  0  0
  159.4770  209.8120  154.2850 C   0  0  1  0  0  3  0  0  0  0  0  0
  161.9210  210.3750  154.9710 C   0  0  2  0  0  3  0  0  0  0  0  0
  162.7220  210.1850  156.2420 C   0  0  0  0  0  2  0  0  0  0  0  0
  161.7700  207.6060  154.5450 C   0  0  0  0  0  2  0  0  0  0  0  0
  159.6100  213.6360  151.0200 N   0  0  2  0  0  0  0  0  0  0  0  0
  156.4190  213.8750  150.4370 C   0  0  0  0  0  2  0  0  0  0  0  0
  158.6590  210.8870  153.5710 C   0  0  0  0  0  2  0  0  0  0  0  0
  160.5850  207.5350  153.6040 C   0  0  0  0  0  2  0  0  0  0  0  0
  158.7430  212.7140  151.7970 C   0  0  1  0  0  3  0  0  0  0  0  0
  159.8740  214.4520  148.7510 C   0  0  0  0  0  2  0  0  0  0  0  0
  160.0650  208.9080  153.1860 C   0  0  2  0  0  3  0  0  0  0  0  0
  161.3100  208.0920  155.9160 C   0  0  0  0  0  2  0  0  0  0  0  0
  157.5790  213.6700  149.4460 C   0  0  1  0  0  3  0  0  0  0  0  0
  160.4900  210.9790  151.8230 C   0  0  0  0  0  0  0  0  0  0  0  0
  160.4390  210.5090  155.2840 C   0  0  2  0  0  3  0  0  0  0  0  0
  159.5600  211.7820  152.6930 C   0  0  2  0  0  3  0  0  0  0  0  0
  162.3090  209.6090  150.2760 C   0  0  0  0  0  3  0  0  0  0  0  0
  156.8430  214.4530  151.7910 C   0  0  0  0  0  2  0  0  0  0  0  0
  161.7010  208.9800  151.3140 N   0  0  0  0  0  0  0  0  0  0  0  0
  157.6970  213.4880  152.6170 C   0  0  0  0  0  2  0  0  0  0  0  0
  158.9100  214.3220  149.9080 C   0  0  1  0  0  3  0  0  0  0  0  0
  162.0190  210.9060  149.9990 N   0  0  0  0  0  0  0  0  0  0  0  0
  160.8460  213.0560  150.4380 C   0  0  1  0  0  3  0  0  0  0  0  0
  157.7430  212.3050  149.1830 O   0  0  0  0  0  0  0  0  0  0  0  0
  156.9040  212.0270  148.1020 C   0  0  0  0  0  2  0  0  0  0  0  0
  157.6870  213.9870  145.0760 O   0  0  0  0  0  0  0  0  0  0  0  0
  158.5680  212.2610  146.3330 N   0  0  0  0  0  0  0  0  0  0  0  0
  157.4740  212.6320  146.8670 C   0  0  0  0  0  0  0  0  0  0  0  0
  158.7110  213.0940  145.2210 N   0  0  0  0  0  2  0  0  0  0  0  0
  156.8910  213.6970  146.1460 N   0  0  0  0  0  2  0  0  0  0  0  0
  1 18  1  0  0  0  0
  2 27  1  0  0  0  0
  3 16  1  6  0  0  0
  3  7  1  0  0  0  0
  4 15  1  0  0  0  0
  5 11  1  6  0  0  0
  5 19  1  0  0  0  0
  6 19  1  0  0  0  0
  6  3  1  0  0  0  0
  6  7  1  1  0  0  0
  8 16  1  0  0  0  0
  9 13  1  0  0  0  0
 10 22  1  0  0  0  0
 12  8  1  0  0  0  0
 13 24  1  0  0  0  0
 13 20  1  0  0  0  0
 14  2  1  0  0  0  0
 14 25  1  0  0  0  0
 15 12  1  0  0  0  0
 15  5  1  0  0  0  0
 17 25  1  0  0  0  0
 17 10  1  0  0  0  0
 18  4  2  0  0  0  0
 18 20  1  0  0  0  0
 19  3  1  0  0  0  0
 20 11  1  0  0  0  0
 21 23  2  0  0  0  0
 22 24  1  0  0  0  0
 23  4  1  0  0  0  0
 25  9  1  0  0  0  0
 26 21  1  0  0  0  0
 26  1  2  0  0  0  0
 27  1  1  0  0  0  0
 27  9  1  0  0  0  0
 28 17  1  0  0  0  0
 29 28  1  0  0  0  0
 30 33  1  0  0  0  0
 30 34  1  0  0  0  0
 31 32  2  0  0  0  0
 32 29  1  0  0  0  0
 33 31  1  0  0  0  0
 34 32  1  0  0  0  0
M  END
>  <MODEL>
2

>  <REMARK>
 VINA RESULT:      -2.8      4.332      6.638
  Name = 
  3 active torsions:
  status: ('A' for Active; 'I' for Inactive)
    1  A    between atoms: C_17  and  O_28
    2  A    between atoms: O_28  and  C_29
    3  A    between atoms: C_29  and  C_32
                            x       y       z     vdW  Elec       q    Type
                         _______ _______ _______ _____ _____    ______ ____

>  <TORSDO>
F 3

$$$$
=
 OpenBabel11122414213D

 34 42  0  0  1  0  0  0  0  0999 V2000
  161.0130  207.7760  154.1380 C   0  0  0  0  0  0  0  0  0  0  0  0
  162.3350  206.0340  152.9190 C   0  0  0  0  0  2  0  0  0  0  0  0
  159.8580  213.0600  156.1500 C   0  0  2  0  0  0  0  0  0  0  0  0
  159.2430  209.2430  154.8540 C   0  0  0  0  0  0  0  0  0  0  0  0
  159.1960  211.6660  154.0190 C   0  0  1  0  0  3  0  0  0  0  0  0
  160.6360  211.7460  156.1820 C   0  0  2  0  0  3  0  0  0  0  0  0
  160.8780  212.8040  157.2390 C   0  0  0  0  0  2  0  0  0  0  0  0
  157.9530  211.4630  156.9520 C   0  0  0  0  0  2  0  0  0  0  0  0
  162.4330  208.3280  152.0990 N   0  0  2  0  0  0  0  0  0  0  0  0
  161.4970  208.4920  148.9880 C   0  0  0  0  0  2  0  0  0  0  0  0
  159.8360  211.1240  152.7420 C   0  0  0  0  0  2  0  0  0  0  0  0
  157.3730  210.8250  155.7070 C   0  0  0  0  0  2  0  0  0  0  0  0
  161.3660  209.3160  151.7990 C   0  0  1  0  0  3  0  0  0  0  0  0
  163.0240  206.0330  151.5830 C   0  0  0  0  0  2  0  0  0  0  0  0
  158.4280  210.4920  154.6540 C   0  0  2  0  0  3  0  0  0  0  0  0
  158.4060  212.8860  156.6380 C   0  0  0  0  0  2  0  0  0  0  0  0
  161.5890  207.2670  149.9160 C   0  0  1  0  0  3  0  0  0  0  0  0
  160.3490  208.9970  154.0190 C   0  0  0  0  0  0  0  0  0  0  0  0
  160.2900  212.3900  154.8480 C   0  0  2  0  0  3  0  0  0  0  0  0
  160.8780  210.0310  153.0610 C   0  0  2  0  0  3  0  0  0  0  0  0
  159.5150  207.1180  155.8520 C   0  0  0  0  0  3  0  0  0  0  0  0
  162.3360  209.6910  149.4430 C   0  0  0  0  0  2  0  0  0  0  0  0
  158.8400  208.2900  155.7360 N   0  0  0  0  0  0  0  0  0  0  0  0
  161.8230  210.3290  150.7360 C   0  0  0  0  0  2  0  0  0  0  0  0
  162.7060  207.3860  150.9880 C   0  0  1  0  0  3  0  0  0  0  0  0
  160.5940  206.8720  155.0650 N   0  0  0  0  0  0  0  0  0  0  0  0
  162.2480  207.4960  153.3140 C   0  0  1  0  0  3  0  0  0  0  0  0
  160.3420  207.0200  150.5020 O   0  0  0  0  0  0  0  0  0  0  0  0
  160.0870  205.6650  150.2870 C   0  0  0  0  0  2  0  0  0  0  0  0
  161.1640  205.2460  146.7830 O   0  0  0  0  0  0  0  0  0  0  0  0
  161.4860  204.2720  148.8520 N   0  0  0  0  0  0  0  0  0  0  0  0
  160.6850  205.2510  148.9870 C   0  0  0  0  0  0  0  0  0  0  0  0
  161.7910  204.2590  147.4900 N   0  0  0  0  0  2  0  0  0  0  0  0
  160.4560  205.8960  147.7520 N   0  0  0  0  0  2  0  0  0  0  0  0
  1 26  1  0  0  0  0
  2 27  1  0  0  0  0
  3  6  1  0  0  0  0
  3 16  1  1  0  0  0
  3  7  1  0  0  0  0
  4 23  2  0  0  0  0
  5 11  1  6  0  0  0
  5 15  1  0  0  0  0
  5 19  1  0  0  0  0
  6  7  1  1  0  0  0
  9 27  1  0  0  0  0
 10 22  1  0  0  0  0
 10 17  1  0  0  0  0
 11 20  1  0  0  0  0
 12  8  1  0  0  0  0
 13  9  1  0  0  0  0
 13 20  1  0  0  0  0
 14  2  1  0  0  0  0
 15  4  1  0  0  0  0
 15 12  1  0  0  0  0
 16  8  1  0  0  0  0
 17 28  1  0  0  0  0
 17 25  1  0  0  0  0
 18  1  2  0  0  0  0
 18  4  1  0  0  0  0
 19  3  1  0  0  0  0
 19  6  1  0  0  0  0
 20 18  1  0  0  0  0
 22 24  1  0  0  0  0
 23 21  1  0  0  0  0
 24 13  1  0  0  0  0
 25 14  1  0  0  0  0
 25  9  1  0  0  0  0
 26 21  2  0  0  0  0
 27  1  1  0  0  0  0
 29 28  1  0  0  0  0
 30 33  1  0  0  0  0
 30 34  1  0  0  0  0
 31 32  2  0  0  0  0
 32 29  1  0  0  0  0
 33 31  1  0  0  0  0
 34 32  1  0  0  0  0
M  END
>  <MODEL>
3

>  <REMARK>
 VINA RESULT:      -2.4      0.947      1.184
  Name = 
  3 active torsions:
  status: ('A' for Active; 'I' for Inactive)
    1  A    between atoms: C_17  and  O_28
    2  A    between atoms: O_28  and  C_29
    3  A    between atoms: C_29  and  C_32
                            x       y       z     vdW  Elec       q    Type
                         _______ _______ _______ _____ _____    ______ ____

>  <TORSDO>
F 3

$$$$
=
 OpenBabel11122414213D

 34 42  0  0  1  0  0  0  0  0999 V2000
  160.5610  210.1390  152.0320 C   0  0  0  0  0  0  0  0  0  0  0  0
  160.6040  208.6000  154.0060 C   0  0  0  0  0  2  0  0  0  0  0  0
  158.2940  214.0720  148.4700 C   0  0  2  0  0  0  0  0  0  0  0  0
  161.0990  211.8740  150.4510 C   0  0  0  0  0  0  0  0  0  0  0  0
  159.8720  214.1200  150.5760 C   0  0  1  0  0  3  0  0  0  0  0  0
  158.3940  212.6520  149.0200 C   0  0  2  0  0  3  0  0  0  0  0  0
  157.4760  212.9570  147.8540 C   0  0  0  0  0  2  0  0  0  0  0  0
  160.6580  213.4340  147.5590 C   0  0  0  0  0  2  0  0  0  0  0  0
  159.3280  210.6690  154.1940 N   0  0  2  0  0  0  0  0  0  0  0  0
  160.3670  212.4500  156.7110 C   0  0  0  0  0  2  0  0  0  0  0  0
  159.8030  213.8760  152.0830 C   0  0  0  0  0  2  0  0  0  0  0  0
  161.6380  213.6950  148.6840 C   0  0  0  0  0  2  0  0  0  0  0  0
  159.6800  212.0780  153.8840 C   0  0  1  0  0  3  0  0  0  0  0  0
  160.1980  208.7790  155.4420 C   0  0  0  0  0  2  0  0  0  0  0  0
  161.0860  213.3270  150.0600 C   0  0  2  0  0  3  0  0  0  0  0  0
  159.5230  214.4530  147.6190 C   0  0  0  0  0  2  0  0  0  0  0  0
  160.8720  211.0860  156.2060 C   0  0  1  0  0  3  0  0  0  0  0  0
  160.4310  211.4660  151.6200 C   0  0  0  0  0  0  0  0  0  0  0  0
  158.4710  213.8390  149.9680 C   0  0  2  0  0  3  0  0  0  0  0  0
  159.5280  212.3890  152.3950 C   0  0  2  0  0  3  0  0  0  0  0  0
  161.9560  209.6890  150.1700 C   0  0  0  0  0  3  0  0  0  0  0  0
  158.9520  212.8080  156.2440 C   0  0  0  0  0  2  0  0  0  0  0  0
  161.8610  210.9820  149.7650 N   0  0  0  0  0  0  0  0  0  0  0  0
  158.8600  213.0600  154.7370 C   0  0  0  0  0  2  0  0  0  0  0  0
  159.7660  210.2240  155.5390 C   0  0  1  0  0  3  0  0  0  0  0  0
  161.3040  209.2760  151.2870 N   0  0  0  0  0  0  0  0  0  0  0  0
  159.8060  209.6370  153.2400 C   0  0  1  0  0  3  0  0  0  0  0  0
  161.9630  211.2720  155.3480 O   0  0  0  0  0  0  0  0  0  0  0  0
  162.9710  210.4380  155.8350 C   0  0  0  0  0  2  0  0  0  0  0  0
  165.7980  212.4640  157.0660 O   0  0  0  0  0  0  0  0  0  0  0  0
  165.0670  211.4620  155.1180 N   0  0  0  0  0  0  0  0  0  0  0  0
  164.2140  211.2330  156.0350 C   0  0  0  0  0  0  0  0  0  0  0  0
  166.0530  212.2240  155.7450 N   0  0  0  0  0  2  0  0  0  0  0  0
  164.6130  211.8140  157.2570 N   0  0  0  0  0  2  0  0  0  0  0  0
  1 27  1  0  0  0  0
  2 14  1  0  0  0  0
  3 16  1  6  0  0  0
  3  6  1  0  0  0  0
  3 19  1  0  0  0  0
  4 18  2  0  0  0  0
  5 11  1  1  0  0  0
  6  7  1  1  0  0  0
  6 19  1  0  0  0  0
  7  3  1  0  0  0  0
  8 16  1  0  0  0  0
  8 12  1  0  0  0  0
  9 25  1  0  0  0  0
 11 20  1  0  0  0  0
 12 15  1  0  0  0  0
 13  9  1  0  0  0  0
 13 24  1  0  0  0  0
 14 25  1  0  0  0  0
 15  4  1  0  0  0  0
 15  5  1  0  0  0  0
 17 10  1  0  0  0  0
 18  1  1  0  0  0  0
 18 20  1  0  0  0  0
 19  5  1  0  0  0  0
 20 13  1  0  0  0  0
 21 26  1  0  0  0  0
 22 10  1  0  0  0  0
 23 21  2  0  0  0  0
 23  4  1  0  0  0  0
 24 22  1  0  0  0  0
 25 17  1  0  0  0  0
 26  1  2  0  0  0  0
 27  2  1  0  0  0  0
 27  9  1  0  0  0  0
 28 29  1  0  0  0  0
 28 17  1  0  0  0  0
 29 32  1  0  0  0  0
 30 34  1  0  0  0  0
 31 33  1  0  0  0  0
 31 32  2  0  0  0  0
 32 34  1  0  0  0  0
 33 30  1  0  0  0  0
M  END
>  <MODEL>
4

>  <REMARK>
 VINA RESULT:      -2.0      3.845      7.273
  Name = 
  3 active torsions:
  status: ('A' for Active; 'I' for Inactive)
    1  A    between atoms: C_17  and  O_28
    2  A    between atoms: O_28  and  C_29
    3  A    between atoms: C_29  and  C_32
                            x       y       z     vdW  Elec       q    Type
                         _______ _______ _______ _____ _____    ______ ____

>  <TORSDO>
F 3

$$$$
=
 OpenBabel11122414213D

 34 42  0  0  1  0  0  0  0  0999 V2000
  162.2020  209.0270  150.0640 C   0  0  0  0  0  0  0  0  0  0  0  0
  162.6790  210.5240  152.0140 C   0  0  0  0  0  2  0  0  0  0  0  0
  162.2800  204.0970  147.0670 C   0  0  2  0  0  0  0  0  0  0  0  0
  161.0780  207.7800  148.3380 C   0  0  0  0  0  0  0  0  0  0  0  0
  160.5910  205.2890  148.6950 C   0  0  1  0  0  3  0  0  0  0  0  0
  162.9580  205.3470  147.6230 C   0  0  2  0  0  3  0  0  0  0  0  0
  163.7220  204.3990  146.7220 C   0  0  0  0  0  2  0  0  0  0  0  0
  161.0920  205.9050  145.6040 C   0  0  0  0  0  2  0  0  0  0  0  0
  162.3240  208.1520  152.4510 N   0  0  2  0  0  0  0  0  0  0  0  0
  159.8800  207.7110  154.5520 C   0  0  0  0  0  2  0  0  0  0  0  0
  160.4570  205.6390  150.1770 C   0  0  0  0  0  2  0  0  0  0  0  0
  159.9410  206.4400  146.4300 C   0  0  0  0  0  2  0  0  0  0  0  0
  161.2580  207.2160  152.0120 C   0  0  1  0  0  3  0  0  0  0  0  0
  162.5550  210.3270  153.4980 C   0  0  0  0  0  2  0  0  0  0  0  0
  160.2790  206.5780  147.9130 C   0  0  2  0  0  3  0  0  0  0  0  0
  161.3070  204.4270  145.9170 C   0  0  0  0  0  2  0  0  0  0  0  0
  160.4530  209.0220  153.9830 C   0  0  1  0  0  3  0  0  0  0  0  0
  161.5730  207.8520  149.6530 C   0  0  0  0  0  0  0  0  0  0  0  0
  161.9560  204.5850  148.4770 C   0  0  2  0  0  3  0  0  0  0  0  0
  161.5120  206.6830  150.6010 C   0  0  2  0  0  3  0  0  0  0  0  0
  161.8420  209.9780  147.9230 C   0  0  0  0  0  3  0  0  0  0  0  0
  160.8310  206.5130  154.4520 C   0  0  0  0  0  2  0  0  0  0  0  0
  161.2060  208.8510  147.5110 N   0  0  0  0  0  0  0  0  0  0  0  0
  161.0800  206.0610  153.0110 C   0  0  0  0  0  2  0  0  0  0  0  0
  161.9680  208.9430  153.6530 C   0  0  1  0  0  3  0  0  0  0  0  0
  162.3390  210.0570  149.1850 N   0  0  0  0  0  0  0  0  0  0  0  0
  162.8120  209.1250  151.4430 C   0  0  1  0  0  3  0  0  0  0  0  0
  159.7060  209.4210  152.8680 O   0  0  0  0  0  0  0  0  0  0  0  0
  158.7620  210.3280  153.3530 C   0  0  0  0  0  2  0  0  0  0  0  0
  158.9550  213.9060  152.4760 O   0  0  0  0  0  0  0  0  0  0  0  0
  159.7410  211.8670  151.7310 N   0  0  0  0  0  0  0  0  0  0  0  0
  159.0200  211.6700  152.7610 C   0  0  0  0  0  0  0  0  0  0  0  0
  159.7080  213.2500  151.5440 N   0  0  0  0  0  2  0  0  0  0  0  0
  158.5170  212.8870  153.2700 N   0  0  0  0  0  2  0  0  0  0  0  0
  1 27  1  0  0  0  0
  2 14  1  0  0  0  0
  3 16  1  6  0  0  0
  3  6  1  0  0  0  0
  3 19  1  0  0  0  0
  4 18  2  0  0  0  0
  5 11  1  1  0  0  0
  6  7  1  1  0  0  0
  6 19  1  0  0  0  0
  7  3  1  0  0  0  0
  8 16  1  0  0  0  0
  8 12  1  0  0  0  0
  9 25  1  0  0  0  0
 11 20  1  0  0  0  0
 12 15  1  0  0  0  0
 13  9  1  0  0  0  0
 13 24  1  0  0  0  0
 14 25  1  0  0  0  0
 15  4  1  0  0  0  0
 15  5  1  0  0  0  0
 17 10  1  0  0  0  0
 18  1  1  0  0  0  0
 18 20  1  0  0  0  0
 19  5  1  0  0  0  0
 20 13  1  0  0  0  0
 21 26  1  0  0  0  0
 22 10  1  0  0  0  0
 23 21  2  0  0  0  0
 23  4  1  0  0  0  0
 24 22  1  0  0  0  0
 25 17  1  0  0  0  0
 26  1  2  0  0  0  0
 27  2  1  0  0  0  0
 27  9  1  0  0  0  0
 28 29  1  0  0  0  0
 28 17  1  0  0  0  0
 30 34  1  0  0  0  0
 31 32  2  0  0  0  0
 32 34  1  0  0  0  0
 32 29  1  0  0  0  0
 33 31  1  0  0  0  0
 33 30  1  0  0  0  0
M  END
>  <MODEL>
5

>  <REMARK>
 VINA RESULT:      -2.0      2.969      8.051
  Name = 
  3 active torsions:
  status: ('A' for Active; 'I' for Inactive)
    1  A    between atoms: C_17  and  O_28
    2  A    between atoms: O_28  and  C_29
    3  A    between atoms: C_29  and  C_32
                            x       y       z     vdW  Elec       q    Type
                         _______ _______ _______ _____ _____    ______ ____

>  <TORSDO>
F 3

$$$$
=
 OpenBabel11122414213D

 34 42  0  0  1  0  0  0  0  0999 V2000
  159.3760  210.8680  152.9320 C   0  0  0  0  0  0  0  0  0  0  0  0
  159.0490  209.6890  155.1160 C   0  0  0  0  0  2  0  0  0  0  0  0
  157.7660  213.8830  148.2820 C   0  0  2  0  0  0  0  0  0  0  0  0
  160.1560  212.3700  151.2180 C   0  0  0  0  0  0  0  0  0  0  0  0
  158.7790  214.4530  150.6430 C   0  0  1  0  0  3  0  0  0  0  0  0
  157.8300  212.5930  149.0950 C   0  0  2  0  0  3  0  0  0  0  0  0
  157.2020  212.5970  147.7170 C   0  0  0  0  0  2  0  0  0  0  0  0
  160.3190  213.3750  148.0630 C   0  0  0  0  0  2  0  0  0  0  0  0
  157.6220  211.6030  154.6230 N   0  0  2  0  0  0  0  0  0  0  0  0
  157.8930  213.8790  156.9320 C   0  0  0  0  0  2  0  0  0  0  0  0
  158.3660  214.4530  152.1140 C   0  0  0  0  0  2  0  0  0  0  0  0
  160.9760  213.9250  149.3110 C   0  0  0  0  0  2  0  0  0  0  0  0
  157.9380  212.9730  154.1440 C   0  0  1  0  0  3  0  0  0  0  0  0
  158.2960  210.0540  156.3630 C   0  0  0  0  0  2  0  0  0  0  0  0
  160.1350  213.7270  150.5710 C   0  0  2  0  0  3  0  0  0  0  0  0
  159.1340  214.2550  147.6750 C   0  0  0  0  0  2  0  0  0  0  0  0
  158.6000  212.5160  156.8170 C   0  0  1  0  0  3  0  0  0  0  0  0
  159.2560  212.0860  152.2620 C   0  0  0  0  0  0  0  0  0  0  0  0
  157.5910  213.9200  149.7980 C   0  0  2  0  0  3  0  0  0  0  0  0
  158.1300  213.0170  152.6270 C   0  0  2  0  0  3  0  0  0  0  0  0
  161.2080  210.2790  151.5490 C   0  0  0  0  0  3  0  0  0  0  0  0
  156.6110  213.9940  156.1000 C   0  0  0  0  0  2  0  0  0  0  0  0
  161.1230  211.4680  150.9000 N   0  0  0  0  0  0  0  0  0  0  0  0
  156.8690  213.9840  154.5910 C   0  0  0  0  0  2  0  0  0  0  0  0
  157.7520  211.4380  156.0900 C   0  0  1  0  0  3  0  0  0  0  0  0
  160.3360  209.9840  152.5480 N   0  0  0  0  0  0  0  0  0  0  0  0
  158.3880  210.4900  154.0100 C   0  0  1  0  0  3  0  0  0  0  0  0
  159.8500  212.6800  156.2080 O   0  0  0  0  0  0  0  0  0  0  0  0
  160.7610  212.8370  157.2550 C   0  0  0  0  0  2  0  0  0  0  0  0
  162.4690  209.5680  157.2590 O   0  0  0  0  0  0  0  0  0  0  0  0
  162.9790  211.8200  157.2350 N   0  0  0  0  0  0  0  0  0  0  0  0
  161.7130  211.6930  157.2550 C   0  0  0  0  0  0  0  0  0  0  0  0
  163.4590  210.5090  157.2370 N   0  0  0  0  0  2  0  0  0  0  0  0
  161.3380  210.3320  157.2610 N   0  0  0  0  0  2  0  0  0  0  0  0
  1 27  1  0  0  0  0
  2 14  1  0  0  0  0
  3 16  1  6  0  0  0
  3  6  1  0  0  0  0
  3 19  1  0  0  0  0
  4 18  1  0  0  0  0
  5 11  1  1  0  0  0
  6  7  1  6  0  0  0
  6 19  1  0  0  0  0
  7  3  1  0  0  0  0
  8 12  1  0  0  0  0
  9 25  1  0  0  0  0
 11 20  1  0  0  0  0
 12 15  1  0  0  0  0
 13 24  1  0  0  0  0
 13  9  1  0  0  0  0
 15  5  1  0  0  0  0
 15  4  1  0  0  0  0
 16  8  1  0  0  0  0
 17 10  1  0  0  0  0
 18 20  1  0  0  0  0
 18  1  2  0  0  0  0
 19  5  1  0  0  0  0
 20 13  1  0  0  0  0
 21 26  2  0  0  0  0
 22 10  1  0  0  0  0
 23  4  2  0  0  0  0
 23 21  1  0  0  0  0
 24 22  1  0  0  0  0
 25 14  1  0  0  0  0
 25 17  1  0  0  0  0
 26  1  1  0  0  0  0
 27  9  1  0  0  0  0
 27  2  1  0  0  0  0
 28 17  1  0  0  0  0
 28 29  1  0  0  0  0
 29 32  1  0  0  0  0
 30 34  1  0  0  0  0
 31 33  1  0  0  0  0
 31 32  2  0  0  0  0
 32 34  1  0  0  0  0
 33 30  1  0  0  0  0
M  END
>  <MODEL>
6

>  <REMARK>
 VINA RESULT:      -0.7      3.874      7.592
  Name = 
  3 active torsions:
  status: ('A' for Active; 'I' for Inactive)
    1  A    between atoms: C_17  and  O_28
    2  A    between atoms: O_28  and  C_29
    3  A    between atoms: C_29  and  C_32
                            x       y       z     vdW  Elec       q    Type
                         _______ _______ _______ _____ _____    ______ ____

>  <TORSDO>
F 3

$$$$
