=
 OpenBabel11122413083D

 31 35  0  0  1  0  0  0  0  0999 V2000
  161.6840  210.6040  156.4160 C   0  0  2  0  0  3  0  0  0  0  0  0
  161.8480  209.2330  152.9450 C   0  0  2  0  0  3  0  0  0  0  0  0
  161.1310  207.9930  152.3930 C   0  0  2  0  0  3  0  0  0  0  0  0
  161.1650  205.4770  152.4550 C   0  0  0  0  0  0  0  0  0  0  0  0
  161.2370  209.6580  154.2910 C   0  0  1  0  0  3  0  0  0  0  0  0
  160.5110  211.5930  156.3600 C   0  0  0  0  0  2  0  0  0  0  0  0
  161.5870  206.7400  153.1550 C   0  0  0  0  0  2  0  0  0  0  0  0
  160.5840  211.1790  151.8760 C   0  0  0  0  0  0  0  0  0  0  0  0
  162.6660  211.0990  157.2520 F   0  0  0  0  0  0  0  0  0  0  0  0
  161.4650  209.0880  150.0810 C   0  0  0  0  0  2  0  0  0  0  0  0
  160.9840  204.3430  153.1740 F   0  0  0  0  0  0  0  0  0  0  0  0
  159.4410  210.7230  152.7410 C   0  0  0  0  0  2  0  0  0  0  0  0
  161.8780  210.4080  151.9390 C   0  0  2  0  0  3  0  0  0  0  0  0
  160.4950  212.1960  151.0700 N   0  0  0  0  0  0  0  0  0  0  0  0
  162.2440  210.3580  155.0900 N   0  0  0  0  0  2  0  0  0  0  0  0
  161.0720  205.4360  151.1230 C   0  0  0  0  0  3  0  0  0  0  0  0
  159.9100  210.4750  154.1770 C   0  0  2  0  0  3  0  0  0  0  0  0
  159.9800  211.7990  154.9410 C   0  0  0  0  0  2  0  0  0  0  0  0
  162.3610  210.0080  150.6670 O   0  0  0  0  0  0  0  0  0  0  0  0
  161.3630  207.8480  150.9090 C   0  0  0  0  0  0  0  0  0  0  0  0
  161.2610  206.6560  150.3170 C   0  0  0  0  0  3  0  0  0  0  0  0
  158.3380  212.9790  151.5950 O   0  0  0  0  0  0  0  0  0  0  0  0
  159.3640  213.0600  150.8670 C   0  0  0  0  0  0  0  0  0  0  0  0
  158.2640  212.9060  147.3780 C   0  0  0  0  0  0  0  0  0  0  0  0
  157.9740  214.4530  149.2970 C   0  0  0  0  0  2  0  0  0  0  0  0
  161.5630  213.3430  149.0060 O   0  0  0  0  0  1  0  0  0  0  0  0
  157.8580  212.7590  146.2380 O   0  0  0  0  0  0  0  0  0  0  0  0
  157.3300  213.3420  148.4640 C   0  0  0  0  0  2  0  0  0  0  0  0
  160.2850  213.6990  148.5740 C   0  0  2  0  0  3  0  0  0  0  0  0
  159.3860  214.0820  149.7650 C   0  0  2  0  0  3  0  0  0  0  0  0
  159.6860  212.5800  147.7210 C   0  0  0  0  0  2  0  0  0  0  0  0
  1  9  1  1  0  0  0
  2  5  1  0  0  0  0
  3  2  1  0  0  0  0
  3  7  1  0  0  0  0
  4  7  1  0  0  0  0
  4 11  1  0  0  0  0
  5 15  1  0  0  0  0
  6  1  1  0  0  0  0
  8 13  1  0  0  0  0
  8 12  1  0  0  0  0
 10 19  1  0  0  0  0
 10 20  1  0  0  0  0
 12 17  1  0  0  0  0
 13  2  1  0  0  0  0
 14  8  2  0  0  0  0
 15  1  1  0  0  0  0
 16  4  2  0  0  0  0
 17  5  1  0  0  0  0
 17 18  1  0  0  0  0
 18  6  1  0  0  0  0
 19 13  1  0  0  0  0
 20  3  1  0  0  0  0
 21 20  2  0  0  0  0
 21 16  1  0  0  0  0
 23 14  1  0  0  0  0
 23 22  2  0  0  0  0
 24 31  1  0  0  0  0
 24 28  1  0  0  0  0
 25 30  1  0  0  0  0
 27 24  2  0  0  0  0
 28 25  1  0  0  0  0
 29 26  1  0  0  0  0
 29 30  1  0  0  0  0
 30 23  1  0  0  0  0
 31 29  1  0  0  0  0
M  END
>  <MODEL>
1

>  <REMARK>
 VINA RESULT:      -7.3      0.000      0.000
  Name = 
  2 active torsions:
  status: ('A' for Active; 'I' for Inactive)
    1  A    between atoms: C_5  and  N_16
    2  A    between atoms: C_5  and  C_30
                            x       y       z     vdW  Elec       q    Type
                         _______ _______ _______ _____ _____    ______ ____

>  <TORSDO>
F 2

$$$$
=
 OpenBabel11122413083D

 31 35  0  0  1  0  0  0  0  0999 V2000
  161.2890  206.4360  150.7780 C   0  0  2  0  0  3  0  0  0  0  0  0
  160.5570  209.3910  152.9430 C   0  0  2  0  0  3  0  0  0  0  0  0
  161.4320  209.9730  154.0620 C   0  0  2  0  0  3  0  0  0  0  0  0
  162.2110  209.5380  156.4160 C   0  0  0  0  0  0  0  0  0  0  0  0
  161.3680  208.4220  152.0680 C   0  0  1  0  0  3  0  0  0  0  0  0
  162.0210  207.0430  149.5730 C   0  0  0  0  0  2  0  0  0  0  0  0
  161.6370  208.9260  155.1670 C   0  0  0  0  0  2  0  0  0  0  0  0
  160.7740  211.1060  151.0620 C   0  0  0  0  0  0  0  0  0  0  0  0
  160.4900  205.3910  150.3560 F   0  0  0  0  0  0  0  0  0  0  0  0
  160.1100  212.1540  153.6760 C   0  0  0  0  0  2  0  0  0  0  0  0
  162.9400  208.7710  157.2610 F   0  0  0  0  0  0  0  0  0  0  0  0
  162.2020  210.6400  150.9970 C   0  0  0  0  0  2  0  0  0  0  0  0
  159.8660  210.4820  152.0910 C   0  0  2  0  0  3  0  0  0  0  0  0
  160.2990  212.0310  150.2800 N   0  0  0  0  0  0  0  0  0  0  0  0
  160.4730  207.4310  151.4680 N   0  0  0  0  0  2  0  0  0  0  0  0
  161.9170  210.7970  156.7530 C   0  0  0  0  0  3  0  0  0  0  0  0
  162.2770  209.1110  150.9990 C   0  0  2  0  0  3  0  0  0  0  0  0
  162.0210  208.5720  149.5910 C   0  0  0  0  0  2  0  0  0  0  0  0
  159.1830  211.4320  152.8930 O   0  0  0  0  0  0  0  0  0  0  0  0
  160.8340  211.2440  154.6140 C   0  0  0  0  0  0  0  0  0  0  0  0
  161.1280  211.6540  155.8500 C   0  0  0  0  0  3  0  0  0  0  0  0
  161.2630  213.9660  149.3500 O   0  0  0  0  0  0  0  0  0  0  0  0
  160.9900  212.7410  149.2380 C   0  0  0  0  0  0  0  0  0  0  0  0
  162.4240  213.9530  146.0950 C   0  0  0  0  0  0  0  0  0  0  0  0
  162.9030  212.1380  147.7180 C   0  0  0  0  0  2  0  0  0  0  0  0
  159.2120  212.3400  146.9900 O   0  0  0  0  0  1  0  0  0  0  0  0
  162.9100  214.4530  145.0950 O   0  0  0  0  0  0  0  0  0  0  0  0
  163.3020  213.5350  147.2340 C   0  0  0  0  0  2  0  0  0  0  0  0
  160.5820  212.4260  146.7390 C   0  0  2  0  0  3  0  0  0  0  0  0
  161.3970  212.0230  147.9820 C   0  0  2  0  0  3  0  0  0  0  0  0
  160.9380  213.8230  146.2290 C   0  0  0  0  0  2  0  0  0  0  0  0
  1  9  1  6  0  0  0
  1 15  1  0  0  0  0
  2  3  1  0  0  0  0
  3 20  1  0  0  0  0
  3  7  1  0  0  0  0
  4 16  2  0  0  0  0
  4 11  1  0  0  0  0
  5  2  1  0  0  0  0
  6 18  1  0  0  0  0
  6  1  1  0  0  0  0
  7  4  1  0  0  0  0
  8 13  1  0  0  0  0
 10 20  1  0  0  0  0
 12 17  1  0  0  0  0
 12  8  1  0  0  0  0
 13 19  1  0  0  0  0
 13  2  1  0  0  0  0
 14  8  2  0  0  0  0
 15  5  1  0  0  0  0
 17  5  1  0  0  0  0
 18 17  1  0  0  0  0
 19 10  1  0  0  0  0
 20 21  2  0  0  0  0
 21 16  1  0  0  0  0
 23 22  2  0  0  0  0
 23 14  1  0  0  0  0
 24 31  1  0  0  0  0
 24 28  1  0  0  0  0
 25 30  1  0  0  0  0
 27 24  2  0  0  0  0
 28 25  1  0  0  0  0
 29 26  1  0  0  0  0
 29 30  1  0  0  0  0
 30 23  1  0  0  0  0
 31 29  1  0  0  0  0
M  END
>  <MODEL>
2

>  <REMARK>
 VINA RESULT:      -6.4      2.059      4.942
  Name = 
  2 active torsions:
  status: ('A' for Active; 'I' for Inactive)
    1  A    between atoms: C_5  and  N_16
    2  A    between atoms: C_5  and  C_30
                            x       y       z     vdW  Elec       q    Type
                         _______ _______ _______ _____ _____    ______ ____

>  <TORSDO>
F 2

$$$$
=
 OpenBabel11122413083D

 31 35  0  0  1  0  0  0  0  0999 V2000
  161.3300  202.3990  151.3660 C   0  0  2  0  0  3  0  0  0  0  0  0
  161.7600  203.7430  147.9070 C   0  0  2  0  0  3  0  0  0  0  0  0
  160.7280  203.7530  146.7710 C   0  0  2  0  0  3  0  0  0  0  0  0
  159.5770  202.2550  145.1080 C   0  0  0  0  0  0  0  0  0  0  0  0
  161.0810  203.4430  149.2530 C   0  0  1  0  0  3  0  0  0  0  0  0
  160.8100  203.6050  152.1610 C   0  0  0  0  0  2  0  0  0  0  0  0
  160.3310  202.3150  146.4080 C   0  0  0  0  0  2  0  0  0  0  0  0
  161.8750  206.1910  148.6310 C   0  0  0  0  0  0  0  0  0  0  0  0
  162.1670  201.6440  152.1650 F   0  0  0  0  0  0  0  0  0  0  0  0
  162.1320  205.6850  145.7940 C   0  0  0  0  0  2  0  0  0  0  0  0
  158.7080  201.2390  144.8860 F   0  0  0  0  0  0  0  0  0  0  0  0
  160.4680  205.9650  149.1100 C   0  0  0  0  0  2  0  0  0  0  0  0
  162.5960  205.0430  147.9710 C   0  0  2  0  0  3  0  0  0  0  0  0
  162.4850  207.3340  148.7500 N   0  0  0  0  0  0  0  0  0  0  0  0
  162.0440  202.8160  150.1620 N   0  0  0  0  0  2  0  0  0  0  0  0
  159.8350  203.1290  144.1320 C   0  0  0  0  0  3  0  0  0  0  0  0
  160.3670  204.6660  149.9130 C   0  0  2  0  0  3  0  0  0  0  0  0
  160.8340  204.9010  151.3510 C   0  0  0  0  0  2  0  0  0  0  0  0
  163.1590  205.3780  146.7130 O   0  0  0  0  0  0  0  0  0  0  0  0
  161.2530  204.4990  145.5680 C   0  0  0  0  0  0  0  0  0  0  0  0
  160.7730  204.2450  144.3480 C   0  0  0  0  0  3  0  0  0  0  0  0
  161.0660  209.2120  148.8000 O   0  0  0  0  0  0  0  0  0  0  0  0
  161.9810  208.5400  149.3490 C   0  0  0  0  0  0  0  0  0  0  0  0
  160.3740  209.6600  152.4420 C   0  0  0  0  0  0  0  0  0  0  0  0
  162.1960  208.0950  151.8170 C   0  0  0  0  0  2  0  0  0  0  0  0
  162.5020  211.3320  149.9110 O   0  0  0  0  0  1  0  0  0  0  0  0
  159.7450  210.0030  153.4290 O   0  0  0  0  0  0  0  0  0  0  0  0
  160.7270  208.2200  152.2320 C   0  0  0  0  0  2  0  0  0  0  0  0
  162.1960  210.4900  150.9820 C   0  0  2  0  0  3  0  0  0  0  0  0
  162.5500  209.0270  150.6510 C   0  0  2  0  0  3  0  0  0  0  0  0
  160.7330  210.6630  151.3890 C   0  0  0  0  0  2  0  0  0  0  0  0
  1  6  1  0  0  0  0
  1  9  1  1  0  0  0
  2 13  1  0  0  0  0
  2  5  1  0  0  0  0
  3  2  1  0  0  0  0
  4  7  1  0  0  0  0
  5 17  1  0  0  0  0
  5 15  1  0  0  0  0
  7  3  1  0  0  0  0
  8 14  2  0  0  0  0
  8 12  1  0  0  0  0
 10 19  1  0  0  0  0
 11  4  1  0  0  0  0
 12 17  1  0  0  0  0
 13  8  1  0  0  0  0
 14 23  1  0  0  0  0
 15  1  1  0  0  0  0
 16 21  1  0  0  0  0
 16  4  2  0  0  0  0
 17 18  1  0  0  0  0
 18  6  1  0  0  0  0
 19 13  1  0  0  0  0
 20 10  1  0  0  0  0
 20  3  1  0  0  0  0
 21 20  2  0  0  0  0
 22 23  2  0  0  0  0
 23 30  1  0  0  0  0
 24 27  2  0  0  0  0
 25 28  1  0  0  0  0
 26 29  1  0  0  0  0
 28 24  1  0  0  0  0
 29 31  1  0  0  0  0
 30 29  1  0  0  0  0
 30 25  1  0  0  0  0
 31 24  1  0  0  0  0
M  END
>  <MODEL>
3

>  <REMARK>
 VINA RESULT:      -5.9      4.305      7.156
  Name = 
  2 active torsions:
  status: ('A' for Active; 'I' for Inactive)
    1  A    between atoms: C_5  and  N_16
    2  A    between atoms: C_5  and  C_30
                            x       y       z     vdW  Elec       q    Type
                         _______ _______ _______ _____ _____    ______ ____

>  <TORSDO>
F 2

$$$$
=
 OpenBabel11122413083D

 31 35  0  0  1  0  0  0  0  0999 V2000
  161.9730  210.8520  148.2990 C   0  0  2  0  0  3  0  0  0  0  0  0
  161.1140  207.2350  148.6670 C   0  0  2  0  0  3  0  0  0  0  0  0
  162.0060  206.0240  148.3590 C   0  0  2  0  0  3  0  0  0  0  0  0
  162.9870  204.7020  146.4550 C   0  0  0  0  0  0  0  0  0  0  0  0
  161.9520  208.5220  148.7330 C   0  0  1  0  0  3  0  0  0  0  0  0
  162.5560  211.2260  149.6690 C   0  0  0  0  0  2  0  0  0  0  0  0
  162.3880  206.0170  146.8720 C   0  0  0  0  0  2  0  0  0  0  0  0
  161.0310  207.2830  151.2200 C   0  0  0  0  0  0  0  0  0  0  0  0
  161.2520  211.9180  147.7970 F   0  0  0  0  0  0  0  0  0  0  0  0
  160.4560  204.7370  149.9700 C   0  0  0  0  0  2  0  0  0  0  0  0
  163.8450  204.6600  145.4080 F   0  0  0  0  0  0  0  0  0  0  0  0
  162.4890  207.6350  151.1160 C   0  0  0  0  0  2  0  0  0  0  0  0
  160.2630  207.0460  149.9450 C   0  0  2  0  0  3  0  0  0  0  0  0
  160.4150  207.1610  152.3590 N   0  0  0  0  0  0  0  0  0  0  0  0
  161.1150  209.6730  148.3840 N   0  0  0  0  0  2  0  0  0  0  0  0
  162.5980  203.5640  147.0370 C   0  0  0  0  0  3  0  0  0  0  0  0
  162.7110  208.7400  150.0800 C   0  0  2  0  0  3  0  0  0  0  0  0
  162.4100  210.1060  150.6990 C   0  0  0  0  0  2  0  0  0  0  0  0
  159.5500  205.8200  149.9340 O   0  0  0  0  0  0  0  0  0  0  0  0
  161.3280  204.7360  148.7580 C   0  0  0  0  0  0  0  0  0  0  0  0
  161.6680  203.5810  148.1800 C   0  0  0  0  0  3  0  0  0  0  0  0
  161.9760  206.7120  154.0630 O   0  0  0  0  0  0  0  0  0  0  0  0
  160.9590  207.3490  153.6770 C   0  0  0  0  0  0  0  0  0  0  0  0
  162.3760  209.7840  156.0160 C   0  0  0  0  0  0  0  0  0  0  0  0
  160.6220  209.7750  154.2600 C   0  0  0  0  0  2  0  0  0  0  0  0
  160.3530  206.7080  156.4330 O   0  0  0  0  0  1  0  0  0  0  0  0
  162.9440  210.5710  156.7540 O   0  0  0  0  0  0  0  0  0  0  0  0
  162.0630  210.1630  154.6010 C   0  0  0  0  0  2  0  0  0  0  0  0
  160.6170  208.0400  156.1100 C   0  0  2  0  0  3  0  0  0  0  0  0
  160.3120  208.3180  154.6250 C   0  0  2  0  0  3  0  0  0  0  0  0
  162.0530  208.4000  156.4920 C   0  0  0  0  0  2  0  0  0  0  0  0
  1  9  1  1  0  0  0
  1 15  1  0  0  0  0
  1  6  1  0  0  0  0
  2  5  1  0  0  0  0
  2 13  1  0  0  0  0
  3  2  1  0  0  0  0
  3 20  1  0  0  0  0
  4  7  1  0  0  0  0
  4 16  2  0  0  0  0
  5 17  1  0  0  0  0
  6 18  1  0  0  0  0
  7  3  1  0  0  0  0
  8 14  2  0  0  0  0
 11  4  1  0  0  0  0
 12  8  1  0  0  0  0
 13  8  1  0  0  0  0
 14 23  1  0  0  0  0
 15  5  1  0  0  0  0
 16 21  1  0  0  0  0
 17 18  1  0  0  0  0
 17 12  1  0  0  0  0
 19 13  1  0  0  0  0
 19 10  1  0  0  0  0
 20 10  1  0  0  0  0
 21 20  2  0  0  0  0
 23 22  2  0  0  0  0
 23 30  1  0  0  0  0
 24 31  1  0  0  0  0
 24 27  2  0  0  0  0
 25 28  1  0  0  0  0
 25 30  1  0  0  0  0
 28 24  1  0  0  0  0
 29 26  1  0  0  0  0
 29 31  1  0  0  0  0
 30 29  1  0  0  0  0
M  END
>  <MODEL>
4

>  <REMARK>
 VINA RESULT:      -5.6      4.293      7.021
  Name = 
  2 active torsions:
  status: ('A' for Active; 'I' for Inactive)
    1  A    between atoms: C_5  and  N_16
    2  A    between atoms: C_5  and  C_30
                            x       y       z     vdW  Elec       q    Type
                         _______ _______ _______ _____ _____    ______ ____

>  <TORSDO>
F 2

$$$$
=
 OpenBabel11122413083D

 31 35  0  0  1  0  0  0  0  0999 V2000
  162.3310  210.7630  149.4160 C   0  0  2  0  0  3  0  0  0  0  0  0
  162.0090  208.0970  152.0120 C   0  0  2  0  0  3  0  0  0  0  0  0
  160.8450  207.8730  152.9870 C   0  0  2  0  0  3  0  0  0  0  0  0
  159.7750  208.8090  155.0640 C   0  0  0  0  0  0  0  0  0  0  0  0
  161.5960  209.0540  150.8820 C   0  0  1  0  0  3  0  0  0  0  0  0
  161.7100  210.1260  148.1640 C   0  0  0  0  0  2  0  0  0  0  0  0
  160.6790  209.0990  153.8970 C   0  0  0  0  0  2  0  0  0  0  0  0
  161.7630  206.1830  150.3370 C   0  0  0  0  0  0  0  0  0  0  0  0
  163.3990  211.5590  149.0480 F   0  0  0  0  0  0  0  0  0  0  0  0
  161.7090  205.4470  153.1360 C   0  0  0  0  0  2  0  0  0  0  0  0
  159.0910  209.8230  155.6460 F   0  0  0  0  0  0  0  0  0  0  0  0
  160.5040  206.8960  149.9270 C   0  0  0  0  0  2  0  0  0  0  0  0
  162.5870  206.7750  151.4520 C   0  0  2  0  0  3  0  0  0  0  0  0
  162.1570  205.0740  149.7830 N   0  0  0  0  0  0  0  0  0  0  0  0
  162.7770  209.7510  150.3690 N   0  0  0  0  0  2  0  0  0  0  0  0
  159.7240  207.5860  155.5970 C   0  0  0  0  0  3  0  0  0  0  0  0
  160.7640  208.3930  149.7370 C   0  0  2  0  0  3  0  0  0  0  0  0
  161.3760  208.6470  148.3580 C   0  0  0  0  0  2  0  0  0  0  0  0
  162.8940  205.8490  152.4820 O   0  0  0  0  0  0  0  0  0  0  0  0
  161.0460  206.6130  153.7930 C   0  0  0  0  0  0  0  0  0  0  0  0
  160.4560  206.4640  154.9810 C   0  0  0  0  0  3  0  0  0  0  0  0
  160.2940  204.0810  148.7410 O   0  0  0  0  0  0  0  0  0  0  0  0
  161.5240  204.3550  148.7100 C   0  0  0  0  0  0  0  0  0  0  0  0
  161.2920  205.1910  145.1530 C   0  0  0  0  0  0  0  0  0  0  0  0
  163.0810  205.0780  146.8690 C   0  0  0  0  0  2  0  0  0  0  0  0
  160.8310  202.0630  147.0840 O   0  0  0  0  0  1  0  0  0  0  0  0
  161.1400  205.5420  143.9950 O   0  0  0  0  0  0  0  0  0  0  0  0
  162.1440  205.9990  146.0820 C   0  0  0  0  0  2  0  0  0  0  0  0
  161.5270  203.1120  146.4810 C   0  0  2  0  0  3  0  0  0  0  0  0
  162.3320  203.9110  147.5240 C   0  0  2  0  0  3  0  0  0  0  0  0
  160.5660  203.9920  145.6800 C   0  0  0  0  0  2  0  0  0  0  0  0
  1  9  1  6  0  0  0
  1 15  1  0  0  0  0
  2  3  1  0  0  0  0
  3 20  1  0  0  0  0
  3  7  1  0  0  0  0
  4 16  2  0  0  0  0
  4 11  1  0  0  0  0
  5  2  1  0  0  0  0
  6 18  1  0  0  0  0
  6  1  1  0  0  0  0
  7  4  1  0  0  0  0
  8 13  1  0  0  0  0
 10 20  1  0  0  0  0
 12  8  1  0  0  0  0
 13  2  1  0  0  0  0
 13 19  1  0  0  0  0
 14  8  2  0  0  0  0
 15  5  1  0  0  0  0
 17 12  1  0  0  0  0
 17  5  1  0  0  0  0
 18 17  1  0  0  0  0
 19 10  1  0  0  0  0
 20 21  2  0  0  0  0
 21 16  1  0  0  0  0
 23 22  2  0  0  0  0
 23 14  1  0  0  0  0
 24 31  1  0  0  0  0
 24 28  1  0  0  0  0
 25 30  1  0  0  0  0
 27 24  2  0  0  0  0
 28 25  1  0  0  0  0
 29 26  1  0  0  0  0
 29 30  1  0  0  0  0
 30 23  1  0  0  0  0
 31 29  1  0  0  0  0
M  END
>  <MODEL>
5

>  <REMARK>
 VINA RESULT:      -5.1      4.188      7.098
  Name = 
  2 active torsions:
  status: ('A' for Active; 'I' for Inactive)
    1  A    between atoms: C_5  and  N_16
    2  A    between atoms: C_5  and  C_30
                            x       y       z     vdW  Elec       q    Type
                         _______ _______ _______ _____ _____    ______ ____

>  <TORSDO>
F 2

$$$$
=
 OpenBabel11122413083D

 31 35  0  0  1  0  0  0  0  0999 V2000
  161.2420  207.9150  156.1200 C   0  0  2  0  0  3  0  0  0  0  0  0
  161.8550  208.5050  152.4830 C   0  0  2  0  0  3  0  0  0  0  0  0
  161.2870  207.7140  151.2970 C   0  0  2  0  0  3  0  0  0  0  0  0
  161.4890  205.5180  150.0840 C   0  0  0  0  0  0  0  0  0  0  0  0
  161.0810  208.1810  153.7710 C   0  0  1  0  0  3  0  0  0  0  0  0
  160.0150  208.7860  156.4260 C   0  0  0  0  0  2  0  0  0  0  0  0
  161.7490  206.2520  151.3710 C   0  0  0  0  0  2  0  0  0  0  0  0
  160.5750  210.7150  152.3960 C   0  0  0  0  0  0  0  0  0  0  0  0
  162.0960  207.9230  157.2060 F   0  0  0  0  0  0  0  0  0  0  0  0
  161.7790  209.8370  149.9150 C   0  0  0  0  0  2  0  0  0  0  0  0
  161.3150  204.1750  150.1030 F   0  0  0  0  0  0  0  0  0  0  0  0
  159.3850  209.8730  152.7630 C   0  0  0  0  0  2  0  0  0  0  0  0
  161.9060  210.0290  152.2210 C   0  0  2  0  0  3  0  0  0  0  0  0
  160.4980  212.0000  152.2090 N   0  0  0  0  0  0  0  0  0  0  0  0
  161.9500  208.3830  154.9330 N   0  0  0  0  0  2  0  0  0  0  0  0
  161.5370  206.1610  148.9140 C   0  0  0  0  0  3  0  0  0  0  0  0
  159.7200  208.9320  153.9230 C   0  0  2  0  0  3  0  0  0  0  0  0
  159.6190  209.6820  155.2520 C   0  0  0  0  0  2  0  0  0  0  0  0
  162.5440  210.3380  150.9920 O   0  0  0  0  0  0  0  0  0  0  0  0
  161.6800  208.3480  149.9840 C   0  0  0  0  0  0  0  0  0  0  0  0
  161.7220  207.6230  148.8640 C   0  0  0  0  0  3  0  0  0  0  0  0
  158.4420  212.5960  153.1860 O   0  0  0  0  0  0  0  0  0  0  0  0
  159.3370  212.8380  152.3320 C   0  0  0  0  0  0  0  0  0  0  0  0
  157.7200  213.2080  149.0680 C   0  0  0  0  0  0  0  0  0  0  0  0
  157.6930  214.4030  151.2430 C   0  0  0  0  0  2  0  0  0  0  0  0
  161.2190  213.5260  150.2430 O   0  0  0  0  0  1  0  0  0  0  0  0
  157.1470  213.2310  147.9920 O   0  0  0  0  0  0  0  0  0  0  0  0
  156.9530  213.4140  150.3380 C   0  0  0  0  0  2  0  0  0  0  0  0
  159.8820  213.8880  150.0710 C   0  0  2  0  0  3  0  0  0  0  0  0
  159.1680  214.0270  151.4290 C   0  0  2  0  0  3  0  0  0  0  0  0
  159.1840  212.8970  149.1380 C   0  0  0  0  0  2  0  0  0  0  0  0
  1  6  1  0  0  0  0
  1  9  1  1  0  0  0
  2  5  1  0  0  0  0
  3  7  1  0  0  0  0
  3  2  1  0  0  0  0
  4 11  1  0  0  0  0
  4  7  1  0  0  0  0
  5 17  1  0  0  0  0
  5 15  1  0  0  0  0
  8 12  1  0  0  0  0
 10 20  1  0  0  0  0
 10 19  1  0  0  0  0
 12 17  1  0  0  0  0
 13  8  1  0  0  0  0
 13  2  1  0  0  0  0
 14 23  1  0  0  0  0
 14  8  2  0  0  0  0
 15  1  1  0  0  0  0
 16  4  2  0  0  0  0
 17 18  1  0  0  0  0
 18  6  1  0  0  0  0
 19 13  1  0  0  0  0
 20  3  1  0  0  0  0
 21 16  1  0  0  0  0
 21 20  2  0  0  0  0
 23 22  2  0  0  0  0
 24 31  1  0  0  0  0
 24 28  1  0  0  0  0
 25 30  1  0  0  0  0
 27 24  2  0  0  0  0
 28 25  1  0  0  0  0
 29 26  1  0  0  0  0
 29 30  1  0  0  0  0
 30 23  1  0  0  0  0
 31 29  1  0  0  0  0
M  END
>  <MODEL>
6

>  <REMARK>
 VINA RESULT:      -5.1      1.581      1.824
  Name = 
  2 active torsions:
  status: ('A' for Active; 'I' for Inactive)
    1  A    between atoms: C_5  and  N_16
    2  A    between atoms: C_5  and  C_30
                            x       y       z     vdW  Elec       q    Type
                         _______ _______ _______ _____ _____    ______ ____

>  <TORSDO>
F 2

$$$$
=
 OpenBabel11122413083D

 31 35  0  0  1  0  0  0  0  0999 V2000
  162.1850  209.5490  148.7310 C   0  0  2  0  0  3  0  0  0  0  0  0
  161.8490  207.8030  152.0170 C   0  0  2  0  0  3  0  0  0  0  0  0
  160.7010  207.9240  153.0290 C   0  0  2  0  0  3  0  0  0  0  0  0
  159.7070  209.4800  154.7400 C   0  0  0  0  0  0  0  0  0  0  0  0
  161.4360  208.3880  150.6560 C   0  0  1  0  0  3  0  0  0  0  0  0
  161.5170  208.5850  147.7400 C   0  0  0  0  0  2  0  0  0  0  0  0
  160.5920  209.3720  153.5290 C   0  0  0  0  0  2  0  0  0  0  0  0
  161.5080  205.4820  151.0030 C   0  0  0  0  0  0  0  0  0  0  0  0
  163.2660  210.1590  148.1260 F   0  0  0  0  0  0  0  0  0  0  0  0
  161.5000  205.6280  153.8930 C   0  0  0  0  0  2  0  0  0  0  0  0
  159.0660  210.6440  154.9980 F   0  0  0  0  0  0  0  0  0  0  0  0
  160.2620  206.0810  150.4140 C   0  0  0  0  0  2  0  0  0  0  0  0
  162.3750  206.3550  151.8750 C   0  0  2  0  0  3  0  0  0  0  0  0
  161.8570  204.2450  150.8040 N   0  0  0  0  0  0  0  0  0  0  0  0
  162.6240  208.8570  149.9400 N   0  0  0  0  0  2  0  0  0  0  0  0
  159.6340  208.4770  155.6190 C   0  0  0  0  0  3  0  0  0  0  0  0
  160.5590  207.4410  149.7760 C   0  0  2  0  0  3  0  0  0  0  0  0
  161.1450  207.2460  148.3770 C   0  0  0  0  0  2  0  0  0  0  0  0
  162.6800  205.7730  153.1320 O   0  0  0  0  0  0  0  0  0  0  0  0
  160.8860  206.9600  154.1760 C   0  0  0  0  0  0  0  0  0  0  0  0
  160.3200  207.1970  155.3620 C   0  0  0  0  0  3  0  0  0  0  0  0
  159.9430  203.0500  150.1360 O   0  0  0  0  0  0  0  0  0  0  0  0
  161.1800  203.2580  150.0080 C   0  0  0  0  0  0  0  0  0  0  0  0
  160.3050  202.0700  146.6570 C   0  0  0  0  0  0  0  0  0  0  0  0
  162.2230  203.2360  147.7170 C   0  0  0  0  0  2  0  0  0  0  0  0
  161.0490  200.3700  149.8640 O   0  0  0  0  0  1  0  0  0  0  0  0
  159.9240  201.7330  145.5490 O   0  0  0  0  0  0  0  0  0  0  0  0
  160.9660  203.3990  146.8580 C   0  0  0  0  0  2  0  0  0  0  0  0
  161.3160  201.0770  148.6900 C   0  0  2  0  0  3  0  0  0  0  0  0
  161.9480  202.4470  149.0030 C   0  0  2  0  0  3  0  0  0  0  0  0
  160.0480  201.1930  147.8440 C   0  0  0  0  0  2  0  0  0  0  0  0
  1  9  1  6  0  0  0
  1 15  1  0  0  0  0
  2  3  1  0  0  0  0
  3  7  1  0  0  0  0
  3 20  1  0  0  0  0
  4 11  1  0  0  0  0
  4 16  2  0  0  0  0
  5  2  1  0  0  0  0
  6 18  1  0  0  0  0
  6  1  1  0  0  0  0
  7  4  1  0  0  0  0
  8 13  1  0  0  0  0
 10 20  1  0  0  0  0
 12  8  1  0  0  0  0
 13  2  1  0  0  0  0
 13 19  1  0  0  0  0
 14  8  2  0  0  0  0
 15  5  1  0  0  0  0
 17 12  1  0  0  0  0
 17  5  1  0  0  0  0
 18 17  1  0  0  0  0
 19 10  1  0  0  0  0
 20 21  2  0  0  0  0
 21 16  1  0  0  0  0
 23 22  2  0  0  0  0
 23 14  1  0  0  0  0
 24 28  1  0  0  0  0
 24 31  1  0  0  0  0
 25 30  1  0  0  0  0
 27 24  2  0  0  0  0
 28 25  1  0  0  0  0
 29 30  1  0  0  0  0
 29 26  1  0  0  0  0
 30 23  1  0  0  0  0
 31 29  1  0  0  0  0
M  END
>  <MODEL>
7

>  <REMARK>
 VINA RESULT:      -5.1      4.553      8.088
  Name = 
  2 active torsions:
  status: ('A' for Active; 'I' for Inactive)
    1  A    between atoms: C_5  and  N_16
    2  A    between atoms: C_5  and  C_30
                            x       y       z     vdW  Elec       q    Type
                         _______ _______ _______ _____ _____    ______ ____

>  <TORSDO>
F 2

$$$$
