=
 OpenBabel11122413433D

 37 44  0  0  1  0  0  0  0  0999 V2000
  160.8740  207.9860  151.4240 C   0  0  0  0  0  2  0  0  0  0  0  0
  161.8680  210.2060  156.4190 S   0  0  0  0  0  0  0  0  0  0  0  0
  159.8560  211.4380  152.7920 C   0  0  0  0  0  0  0  0  0  0  0  0
  161.2940  206.5360  151.1600 C   0  0  2  0  0  3  0  0  0  0  0  0
  161.9320  211.2080  149.4450 C   0  0  0  0  0  2  0  0  0  0  0  0
  159.5900  211.0330  155.1770 C   0  0  0  0  0  0  0  0  0  0  0  0
  160.7410  211.1080  151.7150 N   0  0  0  0  0  0  0  0  0  0  0  0
  162.0800  207.3690  148.9270 C   0  0  0  0  0  0  0  0  0  0  0  0
  160.2240  210.8020  153.9540 C   0  0  0  0  0  0  0  0  0  0  0  0
  160.8760  211.7420  150.3970 C   0  0  0  0  0  0  0  0  0  0  0  0
  158.4780  211.8750  155.1970 C   0  0  0  0  0  3  0  0  0  0  0  0
  162.3290  206.3980  150.0390 C   0  0  0  0  0  2  0  0  0  0  0  0
  161.3980  209.9370  153.7640 C   0  0  2  0  0  3  0  0  0  0  0  0
  162.2400  208.8670  156.9910 O   0  0  0  0  0  0  0  0  0  0  0  0
  158.2150  212.9920  151.6460 C   0  0  0  0  0  3  0  0  0  0  0  0
  158.0570  212.4940  154.0110 C   0  0  0  0  0  3  0  0  0  0  0  0
  162.4920  210.3310  154.7450 C   0  0  0  0  0  2  0  0  0  0  0  0
  162.6970  208.7380  148.9610 C   0  0  1  0  0  3  0  0  0  0  0  0
  161.7460  209.7250  149.4400 C   0  0  1  0  0  3  0  0  0  0  0  0
  158.7460  212.2960  152.8010 C   0  0  0  0  0  0  0  0  0  0  0  0
  161.7950  210.2390  152.3190 C   0  0  1  0  0  3  0  0  0  0  0  0
  160.0800  210.3760  156.4330 C   0  0  0  0  0  2  0  0  0  0  0  0
  160.0350  212.6850  149.8860 C   0  0  0  0  0  0  0  0  0  0  0  0
  162.4780  211.2930  157.2580 O   0  0  0  0  0  0  0  0  0  0  0  0
  162.8280  209.2800  150.3350 N   0  0  1  0  0  0  0  0  0  0  0  0
  161.3680  207.0480  147.9890 O   0  0  0  0  0  0  0  0  0  0  0  0
  162.0910  208.9270  151.5600 C   0  0  2  0  0  3  0  0  0  0  0  0
  158.7590  213.1460  150.4530 C   0  0  0  0  0  3  0  0  0  0  0  0
  161.5680  213.8840  148.3060 C   0  0  0  0  0  3  0  0  0  0  0  0
  160.3150  213.3090  148.5660 C   0  0  0  0  0  0  0  0  0  0  0  0
  159.3420  213.2980  147.5540 C   0  0  0  0  0  3  0  0  0  0  0  0
  158.6440  213.8600  145.3140 O   0  0  0  0  0  1  0  0  0  0  0  0
  160.8620  214.4480  146.0600 C   0  0  0  0  0  3  0  0  0  0  0  0
  159.6140  213.8690  146.3070 C   0  0  0  0  0  0  0  0  0  0  0  0
  161.8390  214.4530  147.0590 C   0  0  0  0  0  3  0  0  0  0  0  0
  160.4840  204.3420  150.4800 N   0  0  0  0  0  1  0  0  0  0  0  0
  160.0750  205.6870  150.8470 C   0  0  0  0  0  2  0  0  0  0  0  0
  1 27  1  0  0  0  0
  2 22  1  0  0  0  0
  2 14  2  0  0  0  0
  2 24  2  0  0  0  0
  3 20  2  0  0  0  0
  3  9  1  0  0  0  0
  4 37  1  6  0  0  0
  4  1  1  0  0  0  0
  5 10  1  0  0  0  0
  6 11  1  0  0  0  0
  6 22  1  0  0  0  0
  7  3  1  0  0  0  0
  8 12  1  0  0  0  0
  9  6  2  0  0  0  0
 10  7  1  0  0  0  0
 12  4  1  0  0  0  0
 13  9  1  0  0  0  0
 13 17  1  1  0  0  0
 15 20  1  0  0  0  0
 16 11  2  0  0  0  0
 17  2  1  0  0  0  0
 18  8  1  1  0  0  0
 18 19  1  0  0  0  0
 18 25  1  0  0  0  0
 19  5  1  6  0  0  0
 19 25  1  0  0  0  0
 20 16  1  0  0  0  0
 21  7  1  6  0  0  0
 21 13  1  0  0  0  0
 23 10  2  0  0  0  0
 23 28  1  0  0  0  0
 25 27  1  0  0  0  0
 26  8  2  0  0  0  0
 27 21  1  0  0  0  0
 28 15  2  0  0  0  0
 29 30  1  0  0  0  0
 30 23  1  0  0  0  0
 31 30  2  0  0  0  0
 32 34  1  0  0  0  0
 33 34  2  0  0  0  0
 33 35  1  0  0  0  0
 34 31  1  0  0  0  0
 35 29  2  0  0  0  0
 36 37  1  0  0  0  0
M  END
>  <MODEL>
1

>  <REMARK>
 VINA RESULT:      -4.8      0.000      0.000
  Name = 
  2 active torsions:
  status: ('A' for Active; 'I' for Inactive)
    1  A    between atoms: C_4  and  C_37
    2  A    between atoms: C_23  and  C_30
                            x       y       z     vdW  Elec       q    Type
                         _______ _______ _______ _____ _____    ______ ____

>  <TORSDO>
F 2

$$$$
