=
 OpenBabel11122414363D

 34 40  0  0  1  0  0  0  0  0999 V2000
  161.0530  204.0160  151.2560 C   0  0  0  0  0  0  0  0  0  0  0  0
  160.9950  205.8720  153.0390 C   0  0  0  0  0  3  0  0  0  0  0  0
  160.2060  202.0800  145.1140 C   0  0  0  0  0  0  0  0  0  0  0  0
  161.1160  202.4190  149.4490 C   0  0  0  0  0  0  0  0  0  0  0  0
  161.1120  203.2260  147.1480 C   0  0  0  0  0  0  0  0  0  0  0  0
  161.2410  204.3510  144.8620 C   0  0  0  0  0  1  0  0  0  0  0  0
  159.1890  202.4770  144.4860 O   0  0  0  0  0  0  0  0  0  0  0  0
  161.4430  200.2660  146.2670 C   0  0  0  0  0  2  0  0  0  0  0  0
  160.9920  206.4460  150.7500 C   0  0  0  0  0  0  0  0  0  0  0  0
  162.0900  209.2090  149.6830 C   0  0  0  0  0  2  0  0  0  0  0  0
  161.0760  204.5040  147.6310 N   0  0  0  0  0  0  0  0  0  0  0  0
  161.0740  200.6560  147.6920 C   0  0  0  0  0  2  0  0  0  0  0  0
  161.0090  206.2080  149.4250 C   0  0  0  0  0  0  0  0  0  0  0  0
  160.9320  207.4020  152.9170 C   0  0  0  0  0  3  0  0  0  0  0  0
  161.1390  202.1290  148.0690 C   0  0  0  0  0  0  0  0  0  0  0  0
  160.3880  200.6920  145.3620 N   0  0  0  0  0  2  0  0  0  0  0  0
  162.2290  208.5820  151.0670 C   0  0  2  0  0  3  0  0  0  0  0  0
  161.0750  203.7490  149.8840 C   0  0  0  0  0  0  0  0  0  0  0  0
  161.2190  203.0440  145.6500 C   0  0  2  0  0  3  0  0  0  0  0  0
  161.0510  204.7970  148.9550 C   0  0  0  0  0  0  0  0  0  0  0  0
  161.1060  201.7020  151.7150 C   0  0  0  0  0  3  0  0  0  0  0  0
  162.2480  208.1870  148.5640 C   0  0  0  0  0  2  0  0  0  0  0  0
  161.1290  201.4240  150.3820 N   0  0  0  0  0  0  0  0  0  0  0  0
  160.9960  207.3320  148.4340 C   0  0  0  0  0  2  0  0  0  0  0  0
  160.9700  207.7730  151.4210 C   0  0  1  0  0  3  0  0  0  0  0  0
  161.0690  202.9910  152.1480 N   0  0  0  0  0  0  0  0  0  0  0  0
  161.0090  205.3810  151.6810 N   0  0  0  0  0  0  0  0  0  0  0  0
  162.4330  209.6290  152.0040 O   0  0  0  0  0  0  0  0  0  0  0  0
  161.4780  210.6050  152.1780 N   0  0  0  0  0  0  0  0  0  0  0  0
  159.9500  212.1260  155.0380 N   0  0  0  0  0  2  0  0  0  0  0  0
  161.6940  210.4800  154.6090 C   0  0  0  0  0  2  0  0  0  0  0  0
  161.1300  211.0030  153.3590 C   0  0  0  0  0  0  0  0  0  0  0  0
  161.0380  211.3590  155.6580 C   0  0  0  0  0  2  0  0  0  0  0  0
  160.1190  212.0410  153.5910 C   0  0  0  0  0  2  0  0  0  0  0  0
  1 27  1  0  0  0  0
  1 26  1  0  0  0  0
  3 16  1  0  0  0  0
  3 19  1  0  0  0  0
  4 18  1  0  0  0  0
  4 23  2  0  0  0  0
  5 11  1  0  0  0  0
  5 15  2  0  0  0  0
  7  3  2  0  0  0  0
  8 12  1  0  0  0  0
  9 25  1  0  0  0  0
  9 27  1  0  0  0  0
 10 17  1  0  0  0  0
 11 20  2  0  0  0  0
 12 15  1  0  0  0  0
 13  9  2  0  0  0  0
 14  2  2  0  0  0  0
 15  4  1  0  0  0  0
 16  8  1  0  0  0  0
 17 25  1  0  0  0  0
 17 28  1  1  0  0  0
 18  1  2  0  0  0  0
 19  6  1  6  0  0  0
 19  5  1  0  0  0  0
 20 13  1  0  0  0  0
 20 18  1  0  0  0  0
 21 26  2  0  0  0  0
 22 10  1  0  0  0  0
 23 21  1  0  0  0  0
 24 22  1  0  0  0  0
 24 13  1  0  0  0  0
 25 14  1  1  0  0  0
 27  2  1  0  0  0  0
 28 29  1  0  0  0  0
 29 32  2  0  0  0  0
 30 33  1  0  0  0  0
 31 33  1  0  0  0  0
 32 34  1  0  0  0  0
 32 31  1  0  0  0  0
 34 30  1  0  0  0  0
M  END
>  <MODEL>
1

>  <REMARK>
 VINA RESULT:     -11.1      0.000      0.000
  Name = 
  2 active torsions:
  status: ('A' for Active; 'I' for Inactive)
    1  A    between atoms: C_17  and  O_28
    2  A    between atoms: O_28  and  N_29
                            x       y       z     vdW  Elec       q    Type
                         _______ _______ _______ _____ _____    ______ ____

>  <TORSDO>
F 2

$$$$
=
 OpenBabel11122414363D

 34 40  0  0  1  0  0  0  0  0999 V2000
  160.9130  204.8670  151.5800 C   0  0  0  0  0  0  0  0  0  0  0  0
  160.7760  206.5780  153.5010 C   0  0  0  0  0  3  0  0  0  0  0  0
  160.5250  203.4670  145.2510 C   0  0  0  0  0  0  0  0  0  0  0  0
  161.0670  203.4170  149.6600 C   0  0  0  0  0  0  0  0  0  0  0  0
  161.2970  204.4030  147.4410 C   0  0  0  0  0  0  0  0  0  0  0  0
  161.6710  205.6970  145.2750 C   0  0  0  0  0  1  0  0  0  0  0  0
  159.5850  203.9610  144.5740 O   0  0  0  0  0  0  0  0  0  0  0  0
  161.5810  201.5090  146.3490 C   0  0  0  0  0  2  0  0  0  0  0  0
  160.9970  207.3300  151.2750 C   0  0  0  0  0  0  0  0  0  0  0  0
  162.2970  210.1120  150.5350 C   0  0  0  0  0  2  0  0  0  0  0  0
  161.2730  205.6380  148.0230 N   0  0  0  0  0  0  0  0  0  0  0  0
  161.1060  201.8030  147.7650 C   0  0  0  0  0  2  0  0  0  0  0  0
  161.1200  207.1970  149.9400 C   0  0  0  0  0  0  0  0  0  0  0  0
  160.7870  208.1130  153.5010 C   0  0  0  0  0  3  0  0  0  0  0  0
  161.1980  203.2360  148.2670 C   0  0  0  0  0  0  0  0  0  0  0  0
  160.6280  202.0560  145.3970 N   0  0  0  0  0  2  0  0  0  0  0  0
  162.2890  209.3720  151.8700 C   0  0  2  0  0  3  0  0  0  0  0  0
  161.0430  204.7090  150.1980 C   0  0  0  0  0  0  0  0  0  0  0  0
  161.5270  204.3340  145.9470 C   0  0  2  0  0  3  0  0  0  0  0  0
  161.1440  205.8270  149.3600 C   0  0  0  0  0  0  0  0  0  0  0  0
  160.8300  202.5250  151.8490 C   0  0  0  0  0  3  0  0  0  0  0  0
  162.5100  209.1750  149.3530 C   0  0  0  0  0  2  0  0  0  0  0  0
  160.9580  202.3520  150.5040 N   0  0  0  0  0  0  0  0  0  0  0  0
  161.2390  208.3950  149.0480 C   0  0  0  0  0  2  0  0  0  0  0  0
  160.9710  208.5990  152.0490 C   0  0  1  0  0  3  0  0  0  0  0  0
  160.8080  203.7760  152.3830 N   0  0  0  0  0  0  0  0  0  0  0  0
  160.8880  206.1960  152.1120 N   0  0  0  0  0  0  0  0  0  0  0  0
  162.4530  210.3310  152.9050 O   0  0  0  0  0  0  0  0  0  0  0  0
  161.3540  210.9010  153.5070 N   0  0  0  0  0  0  0  0  0  0  0  0
  160.4570  211.6210  156.8990 N   0  0  0  0  0  2  0  0  0  0  0  0
  162.3830  210.7130  155.7160 C   0  0  0  0  0  2  0  0  0  0  0  0
  161.3080  211.0810  154.7870 C   0  0  0  0  0  0  0  0  0  0  0  0
  161.8680  211.2450  157.0410 C   0  0  0  0  0  2  0  0  0  0  0  0
  160.1590  211.6880  155.4710 C   0  0  0  0  0  2  0  0  0  0  0  0
  1 27  1  0  0  0  0
  1 26  1  0  0  0  0
  2 14  2  0  0  0  0
  3 16  1  0  0  0  0
  3 19  1  0  0  0  0
  4 18  1  0  0  0  0
  4 23  2  0  0  0  0
  5 11  1  0  0  0  0
  5 15  2  0  0  0  0
  7  3  2  0  0  0  0
  8 12  1  0  0  0  0
  9 25  1  0  0  0  0
  9 27  1  0  0  0  0
 10 17  1  0  0  0  0
 11 20  2  0  0  0  0
 12 15  1  0  0  0  0
 13  9  2  0  0  0  0
 15  4  1  0  0  0  0
 16  8  1  0  0  0  0
 17 25  1  0  0  0  0
 17 28  1  1  0  0  0
 18  1  2  0  0  0  0
 19  6  1  6  0  0  0
 19  5  1  0  0  0  0
 20 13  1  0  0  0  0
 20 18  1  0  0  0  0
 21 26  2  0  0  0  0
 22 10  1  0  0  0  0
 23 21  1  0  0  0  0
 24 22  1  0  0  0  0
 24 13  1  0  0  0  0
 25 14  1  1  0  0  0
 27  2  1  0  0  0  0
 28 29  1  0  0  0  0
 29 32  2  0  0  0  0
 30 33  1  0  0  0  0
 31 33  1  0  0  0  0
 32 34  1  0  0  0  0
 32 31  1  0  0  0  0
 34 30  1  0  0  0  0
M  END
>  <MODEL>
2

>  <REMARK>
 VINA RESULT:      -9.2      1.120      1.252
  Name = 
  2 active torsions:
  status: ('A' for Active; 'I' for Inactive)
    1  A    between atoms: C_17  and  O_28
    2  A    between atoms: O_28  and  N_29
                            x       y       z     vdW  Elec       q    Type
                         _______ _______ _______ _____ _____    ______ ____

>  <TORSDO>
F 2

$$$$
=
 OpenBabel11122414363D

 34 40  0  0  1  0  0  0  0  0999 V2000
  161.6540  207.9990  149.6170 C   0  0  0  0  0  0  0  0  0  0  0  0
  161.5570  206.4460  147.5650 C   0  0  0  0  0  3  0  0  0  0  0  0
  159.9690  209.3470  155.7420 C   0  0  0  0  0  0  0  0  0  0  0  0
  161.6920  209.2990  151.6470 C   0  0  0  0  0  0  0  0  0  0  0  0
  161.0040  208.2540  153.7410 C   0  0  0  0  0  0  0  0  0  0  0  0
  160.3730  206.8720  155.7900 C   0  0  0  0  0  1  0  0  0  0  0  0
  158.7770  209.1570  156.1010 O   0  0  0  0  0  0  0  0  0  0  0  0
  161.8110  210.9010  155.1530 C   0  0  0  0  0  2  0  0  0  0  0  0
  160.9270  205.6260  149.6860 C   0  0  0  0  0  0  0  0  0  0  0  0
  161.1000  202.5670  150.4530 C   0  0  0  0  0  2  0  0  0  0  0  0
  160.7800  207.0960  153.0520 N   0  0  0  0  0  0  0  0  0  0  0  0
  161.6790  210.7910  153.6400 C   0  0  0  0  0  2  0  0  0  0  0  0
  160.7110  205.6920  151.0140 C   0  0  0  0  0  0  0  0  0  0  0  0
  161.1180  204.9810  147.4140 C   0  0  0  0  0  3  0  0  0  0  0  0
  161.4820  209.4080  153.0380 C   0  0  0  0  0  0  0  0  0  0  0  0
  160.5160  210.6600  155.7680 N   0  0  0  0  0  2  0  0  0  0  0  0
  161.6760  203.2940  149.2420 C   0  0  2  0  0  3  0  0  0  0  0  0
  161.4400  208.0860  150.9950 C   0  0  0  0  0  0  0  0  0  0  0  0
  160.8250  208.2240  155.2430 C   0  0  2  0  0  3  0  0  0  0  0  0
  160.9750  206.9790  151.7140 C   0  0  0  0  0  0  0  0  0  0  0  0
  162.3380  210.2570  149.5700 C   0  0  0  0  0  3  0  0  0  0  0  0
  161.2440  203.3720  151.7380 C   0  0  0  0  0  2  0  0  0  0  0  0
  162.1360  210.3590  150.9140 N   0  0  0  0  0  0  0  0  0  0  0  0
  160.2250  204.5020  151.7830 C   0  0  0  0  0  2  0  0  0  0  0  0
  160.7450  204.4390  148.8090 C   0  0  1  0  0  3  0  0  0  0  0  0
  162.0990  209.0820  148.9270 N   0  0  0  0  0  0  0  0  0  0  0  0
  161.3900  206.7510  148.9660 N   0  0  0  0  0  0  0  0  0  0  0  0
  161.8310  202.3490  148.1940 O   0  0  0  0  0  0  0  0  0  0  0  0
  161.0040  202.3870  147.0930 N   0  0  0  0  0  0  0  0  0  0  0  0
  160.1010  200.0190  144.5630 N   0  0  0  0  0  2  0  0  0  0  0  0
  161.4610  200.0410  146.5840 C   0  0  0  0  0  2  0  0  0  0  0  0
  160.8260  201.3430  146.3500 C   0  0  0  0  0  0  0  0  0  0  0  0
  160.8240  199.1690  145.5170 C   0  0  0  0  0  2  0  0  0  0  0  0
  159.9530  201.3380  145.1700 C   0  0  0  0  0  2  0  0  0  0  0  0
  1 18  1  0  0  0  0
  2 27  1  0  0  0  0
  3 16  1  0  0  0  0
  3  7  2  0  0  0  0
  4 15  1  0  0  0  0
  5 19  1  0  0  0  0
  8 16  1  0  0  0  0
  9 13  2  0  0  0  0
 10 22  1  0  0  0  0
 11  5  1  0  0  0  0
 12  8  1  0  0  0  0
 13 20  1  0  0  0  0
 13 24  1  0  0  0  0
 14  2  2  0  0  0  0
 15 12  1  0  0  0  0
 15  5  2  0  0  0  0
 17 28  1  6  0  0  0
 17 10  1  0  0  0  0
 18  4  2  0  0  0  0
 18 20  1  0  0  0  0
 19  3  1  0  0  0  0
 19  6  1  6  0  0  0
 20 11  2  0  0  0  0
 21 23  2  0  0  0  0
 22 24  1  0  0  0  0
 23  4  1  0  0  0  0
 25 14  1  6  0  0  0
 25 17  1  0  0  0  0
 25  9  1  0  0  0  0
 26 21  1  0  0  0  0
 26  1  2  0  0  0  0
 27  1  1  0  0  0  0
 27  9  1  0  0  0  0
 29 28  1  0  0  0  0
 30 34  1  0  0  0  0
 30 33  1  0  0  0  0
 32 31  1  0  0  0  0
 32 29  2  0  0  0  0
 33 31  1  0  0  0  0
 34 32  1  0  0  0  0
M  END
>  <MODEL>
3

>  <REMARK>
 VINA RESULT:      -8.6      2.017      9.434
  Name = 
  2 active torsions:
  status: ('A' for Active; 'I' for Inactive)
    1  A    between atoms: C_17  and  O_28
    2  A    between atoms: O_28  and  N_29
                            x       y       z     vdW  Elec       q    Type
                         _______ _______ _______ _____ _____    ______ ____

>  <TORSDO>
F 2

$$$$
=
 OpenBabel11122414363D

 34 40  0  0  1  0  0  0  0  0999 V2000
  161.4590  206.6840  147.9520 C   0  0  0  0  0  0  0  0  0  0  0  0
  161.9550  208.8100  149.3170 C   0  0  0  0  0  3  0  0  0  0  0  0
  161.5020  200.2140  147.3940 C   0  0  0  0  0  0  0  0  0  0  0  0
  160.9990  204.5930  146.8420 C   0  0  0  0  0  0  0  0  0  0  0  0
  160.9540  202.5360  148.1520 C   0  0  0  0  0  0  0  0  0  0  0  0
  160.8310  200.5790  149.7820 C   0  0  0  0  0  1  0  0  0  0  0  0
  162.5170  199.5760  147.7800 O   0  0  0  0  0  0  0  0  0  0  0  0
  160.0820  201.0770  145.5530 C   0  0  0  0  0  2  0  0  0  0  0  0
  161.8720  206.7150  150.4000 C   0  0  0  0  0  0  0  0  0  0  0  0
  161.1550  206.4030  153.4600 C   0  0  0  0  0  2  0  0  0  0  0  0
  161.2330  203.2780  149.2650 N   0  0  0  0  0  0  0  0  0  0  0  0
  160.6190  202.5010  145.5460 C   0  0  0  0  0  2  0  0  0  0  0  0
  161.7140  205.3800  150.4810 C   0  0  0  0  0  0  0  0  0  0  0  0
  162.2540  209.0170  150.8100 C   0  0  0  0  0  3  0  0  0  0  0  0
  160.8220  203.1950  146.8860 C   0  0  0  0  0  0  0  0  0  0  0  0
  161.1180  200.1730  146.0250 N   0  0  0  0  0  2  0  0  0  0  0  0
  161.0250  207.6250  152.5560 C   0  0  2  0  0  3  0  0  0  0  0  0
  161.2880  205.2990  148.0160 C   0  0  0  0  0  0  0  0  0  0  0  0
  160.7020  201.0560  148.3380 C   0  0  2  0  0  3  0  0  0  0  0  0
  161.4080  204.6230  149.2360 C   0  0  0  0  0  0  0  0  0  0  0  0
  161.0690  206.6330  145.6250 C   0  0  0  0  0  3  0  0  0  0  0  0
  160.7470  205.1140  152.7580 C   0  0  0  0  0  2  0  0  0  0  0  0
  160.8980  205.2830  145.6700 N   0  0  0  0  0  0  0  0  0  0  0  0
  161.8310  204.6610  151.7900 C   0  0  0  0  0  2  0  0  0  0  0  0
  162.1600  207.6510  151.5190 C   0  0  1  0  0  3  0  0  0  0  0  0
  161.3470  207.3290  146.7610 N   0  0  0  0  0  0  0  0  0  0  0  0
  161.7560  207.3880  149.1620 N   0  0  0  0  0  0  0  0  0  0  0  0
  161.0660  208.7840  153.3750 O   0  0  0  0  0  0  0  0  0  0  0  0
  160.9250  208.6780  154.7410 N   0  0  0  0  0  0  0  0  0  0  0  0
  159.3770  210.7020  157.2570 N   0  0  0  0  0  2  0  0  0  0  0  0
  159.6080  210.7350  154.8320 C   0  0  0  0  0  2  0  0  0  0  0  0
  160.2640  209.5600  155.4180 C   0  0  0  0  0  0  0  0  0  0  0  0
  158.8960  211.3430  156.0270 C   0  0  0  0  0  2  0  0  0  0  0  0
  160.0860  209.4850  156.8740 C   0  0  0  0  0  2  0  0  0  0  0  0
  1 18  1  0  0  0  0
  1 27  1  0  0  0  0
  2 14  2  0  0  0  0
  3  7  2  0  0  0  0
  3 19  1  0  0  0  0
  4 15  2  0  0  0  0
  4 18  1  0  0  0  0
  5 19  1  0  0  0  0
  5 11  2  0  0  0  0
  8 16  1  0  0  0  0
  9 13  2  0  0  0  0
  9 25  1  0  0  0  0
 12  8  1  0  0  0  0
 12 15  1  0  0  0  0
 13 24  1  0  0  0  0
 15  5  1  0  0  0  0
 16  3  1  0  0  0  0
 17 28  1  1  0  0  0
 17 10  1  0  0  0  0
 18 20  2  0  0  0  0
 19  6  1  1  0  0  0
 20 11  1  0  0  0  0
 20 13  1  0  0  0  0
 21 23  2  0  0  0  0
 21 26  1  0  0  0  0
 22 10  1  0  0  0  0
 23  4  1  0  0  0  0
 24 22  1  0  0  0  0
 25 14  1  6  0  0  0
 25 17  1  0  0  0  0
 26  1  2  0  0  0  0
 27  2  1  0  0  0  0
 27  9  1  0  0  0  0
 28 29  1  0  0  0  0
 29 32  2  0  0  0  0
 31 32  1  0  0  0  0
 31 33  1  0  0  0  0
 32 34  1  0  0  0  0
 33 30  1  0  0  0  0
 34 30  1  0  0  0  0
M  END
>  <MODEL>
4

>  <REMARK>
 VINA RESULT:      -8.2      1.907      3.733
  Name = 
  2 active torsions:
  status: ('A' for Active; 'I' for Inactive)
    1  A    between atoms: C_17  and  O_28
    2  A    between atoms: O_28  and  N_29
                            x       y       z     vdW  Elec       q    Type
                         _______ _______ _______ _____ _____    ______ ____

>  <TORSDO>
F 2

$$$$
=
 OpenBabel11122414363D

 34 40  0  0  1  0  0  0  0  0999 V2000
  161.6400  207.5570  148.3740 C   0  0  0  0  0  0  0  0  0  0  0  0
  162.0570  210.0910  148.5640 C   0  0  0  0  0  3  0  0  0  0  0  0
  161.5090  201.6540  151.0790 C   0  0  0  0  0  0  0  0  0  0  0  0
  161.2300  205.1810  148.3910 C   0  0  0  0  0  0  0  0  0  0  0  0
  160.9650  204.0350  150.5290 C   0  0  0  0  0  0  0  0  0  0  0  0
  160.5900  203.1320  152.8840 C   0  0  0  0  0  1  0  0  0  0  0  0
  162.4510  201.3130  151.8420 O   0  0  0  0  0  0  0  0  0  0  0  0
  160.3350  201.4650  148.9020 C   0  0  0  0  0  2  0  0  0  0  0  0
  161.7780  208.7990  150.5190 C   0  0  0  0  0  0  0  0  0  0  0  0
  160.7140  210.0180  153.2320 C   0  0  0  0  0  2  0  0  0  0  0  0
  161.1450  205.2350  151.1560 N   0  0  0  0  0  0  0  0  0  0  0  0
  160.9210  202.7140  148.2580 C   0  0  0  0  0  2  0  0  0  0  0  0
  161.5640  207.6740  151.2270 C   0  0  0  0  0  0  0  0  0  0  0  0
  162.1960  211.0130  149.7850 C   0  0  0  0  0  3  0  0  0  0  0  0
  160.9990  203.9810  149.0970 C   0  0  0  0  0  0  0  0  0  0  0  0
  161.2790  200.9360  149.8730 N   0  0  0  0  0  2  0  0  0  0  0  0
  160.7300  210.6330  151.8360 C   0  0  2  0  0  3  0  0  0  0  0  0
  161.4120  206.3790  149.0910 C   0  0  0  0  0  0  0  0  0  0  0  0
  160.6400  202.8340  151.3880 C   0  0  2  0  0  3  0  0  0  0  0  0
  161.3710  206.3950  150.4910 C   0  0  0  0  0  0  0  0  0  0  0  0
  161.5100  206.3580  146.3460 C   0  0  0  0  0  3  0  0  0  0  0  0
  160.3400  208.5420  153.2130 C   0  0  0  0  0  2  0  0  0  0  0  0
  161.2860  205.2010  147.0290 N   0  0  0  0  0  0  0  0  0  0  0  0
  161.5080  207.6960  152.7240 C   0  0  0  0  0  2  0  0  0  0  0  0
  161.9740  210.1710  151.0580 C   0  0  1  0  0  3  0  0  0  0  0  0
  161.6850  207.5290  147.0160 N   0  0  0  0  0  0  0  0  0  0  0  0
  161.8260  208.7730  149.1070 N   0  0  0  0  0  0  0  0  0  0  0  0
  160.7210  212.0460  151.9770 O   0  0  0  0  0  0  0  0  0  0  0  0
  159.6380  212.7820  151.5520 N   0  0  0  0  0  0  0  0  0  0  0  0
  156.9430  214.4520  153.2170 N   0  0  0  0  0  2  0  0  0  0  0  0
  158.9420  213.2140  153.8540 C   0  0  0  0  0  2  0  0  0  0  0  0
  158.8190  213.3200  152.3960 C   0  0  0  0  0  0  0  0  0  0  0  0
  157.8180  214.1090  154.3440 C   0  0  0  0  0  2  0  0  0  0  0  0
  157.6530  214.1150  151.9870 C   0  0  0  0  0  2  0  0  0  0  0  0
  1 18  1  0  0  0  0
  1 27  1  0  0  0  0
  2 27  1  0  0  0  0
  2 14  2  0  0  0  0
  3 19  1  0  0  0  0
  3  7  2  0  0  0  0
  4 18  2  0  0  0  0
  4 15  1  0  0  0  0
  5 11  1  0  0  0  0
  5 19  1  0  0  0  0
  8 16  1  0  0  0  0
  9 25  1  0  0  0  0
  9 13  2  0  0  0  0
 12  8  1  0  0  0  0
 12 15  1  0  0  0  0
 13 24  1  0  0  0  0
 15  5  2  0  0  0  0
 16  3  1  0  0  0  0
 17 28  1  1  0  0  0
 17 10  1  0  0  0  0
 18 20  1  0  0  0  0
 19  6  1  1  0  0  0
 20 11  2  0  0  0  0
 20 13  1  0  0  0  0
 21 26  1  0  0  0  0
 21 23  2  0  0  0  0
 22 10  1  0  0  0  0
 23  4  1  0  0  0  0
 24 22  1  0  0  0  0
 25 14  1  6  0  0  0
 25 17  1  0  0  0  0
 26  1  2  0  0  0  0
 27  9  1  0  0  0  0
 29 28  1  0  0  0  0
 29 32  2  0  0  0  0
 30 33  1  0  0  0  0
 31 33  1  0  0  0  0
 32 31  1  0  0  0  0
 34 32  1  0  0  0  0
 34 30  1  0  0  0  0
M  END
>  <MODEL>
5

>  <REMARK>
 VINA RESULT:      -8.2      2.362      4.526
  Name = 
  2 active torsions:
  status: ('A' for Active; 'I' for Inactive)
    1  A    between atoms: C_17  and  O_28
    2  A    between atoms: O_28  and  N_29
                            x       y       z     vdW  Elec       q    Type
                         _______ _______ _______ _____ _____    ______ ____

>  <TORSDO>
F 2

$$$$
=
 OpenBabel11122414363D

 34 40  0  0  1  0  0  0  0  0999 V2000
  161.6400  207.0140  148.3730 C   0  0  0  0  0  0  0  0  0  0  0  0
  162.1400  209.1380  149.7400 C   0  0  0  0  0  3  0  0  0  0  0  0
  161.4080  200.5400  147.9130 C   0  0  0  0  0  0  0  0  0  0  0  0
  161.1590  204.9270  147.2630 C   0  0  0  0  0  0  0  0  0  0  0  0
  160.9210  202.8990  148.5960 C   0  0  0  0  0  0  0  0  0  0  0  0
  160.5870  200.9790  150.2410 C   0  0  0  0  0  1  0  0  0  0  0  0
  162.3610  199.8620  148.3800 O   0  0  0  0  0  0  0  0  0  0  0  0
  160.1660  201.4360  145.9620 C   0  0  0  0  0  2  0  0  0  0  0  0
  161.8780  207.0690  150.8440 C   0  0  0  0  0  0  0  0  0  0  0  0
  160.9310  206.8460  153.8490 C   0  0  0  0  0  2  0  0  0  0  0  0
  161.1550  203.6460  149.7150 N   0  0  0  0  0  0  0  0  0  0  0  0
  160.7710  202.8330  145.9740 C   0  0  0  0  0  2  0  0  0  0  0  0
  161.6500  205.7440  150.9320 C   0  0  0  0  0  0  0  0  0  0  0  0
  162.3420  209.3570  151.2470 C   0  0  0  0  0  3  0  0  0  0  0  0
  160.9120  203.5400  147.3140 C   0  0  0  0  0  0  0  0  0  0  0  0
  161.1210  200.4930  146.5210 N   0  0  0  0  0  2  0  0  0  0  0  0
  160.9250  208.0560  152.9200 C   0  0  2  0  0  3  0  0  0  0  0  0
  161.3970  205.6390  148.4440 C   0  0  0  0  0  0  0  0  0  0  0  0
  160.5850  201.4360  148.7850 C   0  0  2  0  0  3  0  0  0  0  0  0
  161.3980  204.9800  149.6800 C   0  0  0  0  0  0  0  0  0  0  0  0
  161.4150  206.9400  146.0250 C   0  0  0  0  0  3  0  0  0  0  0  0
  160.5130  205.5660  153.1380 C   0  0  0  0  0  2  0  0  0  0  0  0
  161.1750  205.6000  146.0770 N   0  0  0  0  0  0  0  0  0  0  0  0
  161.6390  205.0440  152.2570 C   0  0  0  0  0  2  0  0  0  0  0  0
  162.1320  208.0100  151.9670 C   0  0  1  0  0  3  0  0  0  0  0  0
  161.6450  207.6420  147.1680 N   0  0  0  0  0  0  0  0  0  0  0  0
  161.8840  207.7240  149.5910 N   0  0  0  0  0  0  0  0  0  0  0  0
  160.9640  209.2270  153.7230 O   0  0  0  0  0  0  0  0  0  0  0  0
  159.7960  209.8110  154.1590 N   0  0  0  0  0  0  0  0  0  0  0  0
  158.1590  212.9250  153.4910 N   0  0  0  0  0  2  0  0  0  0  0  0
  160.1510  211.7540  152.7200 C   0  0  0  0  0  2  0  0  0  0  0  0
  159.4130  210.9630  153.7120 C   0  0  0  0  0  0  0  0  0  0  0  0
  159.2160  212.9240  152.4720 C   0  0  0  0  0  2  0  0  0  0  0  0
  158.1750  211.6220  154.1470 C   0  0  0  0  0  2  0  0  0  0  0  0
  1 18  1  0  0  0  0
  1 27  1  0  0  0  0
  2 14  2  0  0  0  0
  3  7  2  0  0  0  0
  3 19  1  0  0  0  0
  4 15  2  0  0  0  0
  4 18  1  0  0  0  0
  5 19  1  0  0  0  0
  5 11  2  0  0  0  0
  8 12  1  0  0  0  0
  8 16  1  0  0  0  0
  9 13  2  0  0  0  0
  9 25  1  0  0  0  0
 12 15  1  0  0  0  0
 13 24  1  0  0  0  0
 15  5  1  0  0  0  0
 16  3  1  0  0  0  0
 17 28  1  1  0  0  0
 17 10  1  0  0  0  0
 18 20  2  0  0  0  0
 19  6  1  1  0  0  0
 20 11  1  0  0  0  0
 20 13  1  0  0  0  0
 21 23  2  0  0  0  0
 21 26  1  0  0  0  0
 22 10  1  0  0  0  0
 23  4  1  0  0  0  0
 24 22  1  0  0  0  0
 25 14  1  6  0  0  0
 25 17  1  0  0  0  0
 26  1  2  0  0  0  0
 27  2  1  0  0  0  0
 27  9  1  0  0  0  0
 28 29  1  0  0  0  0
 30 34  1  0  0  0  0
 31 32  1  0  0  0  0
 32 34  1  0  0  0  0
 32 29  2  0  0  0  0
 33 31  1  0  0  0  0
 33 30  1  0  0  0  0
M  END
>  <MODEL>
6

>  <REMARK>
 VINA RESULT:      -8.1      1.854      3.742
  Name = 
  2 active torsions:
  status: ('A' for Active; 'I' for Inactive)
    1  A    between atoms: C_17  and  O_28
    2  A    between atoms: O_28  and  N_29
                            x       y       z     vdW  Elec       q    Type
                         _______ _______ _______ _____ _____    ______ ____

>  <TORSDO>
F 2

$$$$
