=
 OpenBabel11122414073D

 28 32  0  0  1  0  0  0  0  0999 V2000
  161.2340  208.5740  155.3480 C   0  0  0  0  0  0  0  0  0  0  0  0
  158.4180  210.5490  152.5450 O   0  0  0  0  0  0  0  0  0  0  0  0
  162.3630  207.0730  149.1960 C   0  0  0  0  0  1  0  0  0  0  0  0
  162.8830  210.4480  156.5710 C   0  0  0  0  0  3  0  0  0  0  0  0
  162.3180  209.6230  149.7320 C   0  0  2  0  0  3  0  0  0  0  0  0
  160.4120  207.5030  154.7080 C   0  0  0  0  0  2  0  0  0  0  0  0
  158.9490  212.2870  154.2090 O   0  0  0  0  0  0  0  0  0  0  0  0
  159.2790  211.7440  152.8470 S   0  0  0  0  0  0  0  0  0  0  0  0
  159.8180  213.0950  150.6190 C   0  0  0  0  0  0  0  0  0  0  0  0
  160.9960  211.3270  152.7760 C   0  0  2  0  0  3  0  0  0  0  0  0
  161.2440  205.0950  152.1340 N   0  0  0  0  0  1  0  0  0  0  0  0
  162.3470  209.4040  152.2140 C   0  0  2  0  0  3  0  0  0  0  0  0
  160.9190  212.2480  150.4010 O   0  0  0  0  0  0  0  0  0  0  0  0
  159.0330  212.9650  151.6480 N   0  0  0  0  0  0  0  0  0  0  0  0
  160.6540  206.3010  152.6860 C   0  0  2  0  0  3  0  0  0  0  0  0
  161.6570  209.7020  154.6190 C   0  0  0  0  0  0  0  0  0  0  0  0
  162.7070  208.2000  150.1660 C   0  0  1  0  0  3  0  0  0  0  0  0
  159.5270  214.1560  149.6220 C   0  0  0  0  0  1  0  0  0  0  0  0
  160.7960  207.4510  151.6830 C   0  0  0  0  0  2  0  0  0  0  0  0
  162.4980  210.6320  155.2440 C   0  0  0  0  0  3  0  0  0  0  0  0
  161.6340  208.4150  156.6390 N   0  0  0  0  0  0  0  0  0  0  0  0
  162.4350  209.3210  157.2610 C   0  0  0  0  0  3  0  0  0  0  0  0
  161.2870  206.6100  153.9630 N   0  0  0  0  0  2  0  0  0  0  0  0
  162.1570  210.2920  151.0560 C   0  0  2  0  0  3  0  0  0  0  0  0
  162.2330  207.9950  151.6160 C   0  0  2  0  0  3  0  0  0  0  0  0
  161.3990  211.3370  151.3490 C   0  0  2  0  0  3  0  0  0  0  0  0
  161.0030  209.6330  148.9520 C   0  0  0  0  0  1  0  0  0  0  0  0
  161.2550  209.8710  153.1800 C   0  0  1  0  0  3  0  0  0  0  0  0
  1 21  1  0  0  0  0
  2  8  2  0  0  0  0
  3 17  1  0  0  0  0
  4 22  1  0  0  0  0
  5 27  1  1  0  0  0
  5 17  1  0  0  0  0
  5 24  1  0  0  0  0
  6  1  1  0  0  0  0
  8  7  2  0  0  0  0
  9 14  2  0  0  0  0
 10  8  1  6  0  0  0
 10 28  1  0  0  0  0
 11 15  1  0  0  0  0
 12 28  1  0  0  0  0
 13  9  1  0  0  0  0
 13 26  1  0  0  0  0
 14  8  1  0  0  0  0
 15 23  1  0  0  0  0
 16 20  1  0  0  0  0
 16  1  2  0  0  0  0
 17 25  1  0  0  0  0
 18  9  1  0  0  0  0
 19 15  1  0  0  0  0
 20  4  2  0  0  0  0
 21 22  2  0  0  0  0
 23  6  1  0  0  0  0
 24 26  1  0  0  0  0
 24 12  1  0  0  0  0
 25 19  1  0  0  0  0
 25 12  1  0  0  0  0
 26 10  1  0  0  0  0
 28 16  1  0  0  0  0
M  END
>  <MODEL>
1

>  <REMARK>
 VINA RESULT:      -3.0      0.000      0.000
  Name = 
  0 active torsions:
  status: ('A' for Active; 'I' for Inactive)
                            x       y       z     vdW  Elec       q    Type
                         _______ _______ _______ _____ _____    ______ ____

>  <TORSDO>
F 0

$$$$
=
 OpenBabel11122414073D

 28 32  0  0  1  0  0  0  0  0999 V2000
  158.0850  213.4380  150.8690 C   0  0  0  0  0  0  0  0  0  0  0  0
  158.5710  209.8390  153.4200 O   0  0  0  0  0  0  0  0  0  0  0  0
  156.3590  214.4530  156.9820 C   0  0  0  0  0  1  0  0  0  0  0  0
  160.5570  214.3860  150.0230 C   0  0  0  0  0  3  0  0  0  0  0  0
  158.7690  213.5210  156.6430 C   0  0  2  0  0  3  0  0  0  0  0  0
  156.7230  213.0120  151.3100 C   0  0  0  0  0  2  0  0  0  0  0  0
  160.5710  209.8470  151.9800 O   0  0  0  0  0  0  0  0  0  0  0  0
  160.0220  210.2230  153.3270 S   0  0  0  0  0  0  0  0  0  0  0  0
  161.1980  210.0130  155.7050 C   0  0  0  0  0  0  0  0  0  0  0  0
  160.2400  211.9580  153.5920 C   0  0  2  0  0  3  0  0  0  0  0  0
  154.4800  214.4270  153.7780 N   0  0  0  0  0  1  0  0  0  0  0  0
  158.8740  213.8640  154.1780 C   0  0  2  0  0  3  0  0  0  0  0  0
  160.7810  211.3220  156.0000 O   0  0  0  0  0  0  0  0  0  0  0  0
  160.9210  209.4320  154.5750 N   0  0  0  0  0  0  0  0  0  0  0  0
  155.4530  213.4880  153.2480 C   0  0  2  0  0  3  0  0  0  0  0  0
  159.1930  213.3430  151.7330 C   0  0  0  0  0  0  0  0  0  0  0  0
  157.6420  214.4470  156.1560 C   0  0  1  0  0  3  0  0  0  0  0  0
  161.9570  209.2580  156.7340 C   0  0  0  0  0  1  0  0  0  0  0  0
  156.4480  213.1000  154.3460 C   0  0  0  0  0  2  0  0  0  0  0  0
  160.4310  213.8360  151.2980 C   0  0  0  0  0  3  0  0  0  0  0  0
  158.2360  213.9880  149.6330 N   0  0  0  0  0  0  0  0  0  0  0  0
  159.4360  214.4530  149.1950 C   0  0  0  0  0  3  0  0  0  0  0  0
  156.1190  214.0800  152.0930 N   0  0  0  0  0  2  0  0  0  0  0  0
  159.4900  213.2510  155.3660 C   0  0  2  0  0  3  0  0  0  0  0  0
  157.4580  214.2210  154.6440 C   0  0  2  0  0  3  0  0  0  0  0  0
  160.2230  212.1930  155.0560 C   0  0  2  0  0  3  0  0  0  0  0  0
  158.2140  212.2280  157.2420 C   0  0  0  0  0  1  0  0  0  0  0  0
  159.0330  212.7730  153.1150 C   0  0  1  0  0  3  0  0  0  0  0  0
  1  6  1  0  0  0  0
  1 16  1  0  0  0  0
  4 20  1  0  0  0  0
  5 27  1  6  0  0  0
  6 23  1  0  0  0  0
  7  8  2  0  0  0  0
  8  2  2  0  0  0  0
  8 14  1  0  0  0  0
  9 13  1  0  0  0  0
  9 18  1  0  0  0  0
 10  8  1  1  0  0  0
 10 26  1  0  0  0  0
 12 25  1  0  0  0  0
 12 24  1  0  0  0  0
 14  9  2  0  0  0  0
 15 11  1  0  0  0  0
 15 19  1  0  0  0  0
 16 28  1  0  0  0  0
 17  5  1  0  0  0  0
 17  3  1  0  0  0  0
 19 25  1  0  0  0  0
 20 16  2  0  0  0  0
 21  1  2  0  0  0  0
 22 21  1  0  0  0  0
 22  4  2  0  0  0  0
 23 15  1  0  0  0  0
 24  5  1  0  0  0  0
 25 17  1  0  0  0  0
 26 24  1  0  0  0  0
 26 13  1  0  0  0  0
 28 10  1  0  0  0  0
 28 12  1  0  0  0  0
M  END
>  <MODEL>
2

>  <REMARK>
 VINA RESULT:      -1.9      3.437      7.455
  Name = 
  0 active torsions:
  status: ('A' for Active; 'I' for Inactive)
                            x       y       z     vdW  Elec       q    Type
                         _______ _______ _______ _____ _____    ______ ____

>  <TORSDO>
F 0

$$$$
=
 OpenBabel11122414073D

 28 32  0  0  1  0  0  0  0  0999 V2000
  161.0120  213.0210  145.0990 C   0  0  0  0  0  0  0  0  0  0  0  0
  160.7410  209.8440  148.1860 O   0  0  0  0  0  0  0  0  0  0  0  0
  156.3150  214.0730  149.3670 C   0  0  0  0  0  1  0  0  0  0  0  0
  163.3790  214.4530  145.3660 C   0  0  0  0  0  3  0  0  0  0  0  0
  158.6860  213.7070  150.3850 C   0  0  2  0  0  3  0  0  0  0  0  0
  159.7040  212.3240  144.9130 C   0  0  0  0  0  2  0  0  0  0  0  0
  163.1600  210.2070  147.8880 O   0  0  0  0  0  0  0  0  0  0  0  0
  161.9570  210.5480  148.7210 S   0  0  0  0  0  0  0  0  0  0  0  0
  161.7990  210.8020  151.3650 C   0  0  0  0  0  0  0  0  0  0  0  0
  161.7230  212.3010  148.7360 C   0  0  2  0  0  3  0  0  0  0  0  0
  156.3280  213.3610  145.7220 N   0  0  0  0  0  1  0  0  0  0  0  0
  159.9540  213.8730  148.2470 C   0  0  2  0  0  3  0  0  0  0  0  0
  161.0810  211.9970  151.1840 O   0  0  0  0  0  0  0  0  0  0  0  0
  162.2260  210.0870  150.3660 N   0  0  0  0  0  0  0  0  0  0  0  0
  157.5760  212.6370  145.8960 C   0  0  2  0  0  3  0  0  0  0  0  0
  161.5360  213.2550  146.3850 C   0  0  0  0  0  0  0  0  0  0  0  0
  157.8200  214.3030  149.2630 C   0  0  1  0  0  3  0  0  0  0  0  0
  162.0530  210.3280  152.7490 C   0  0  0  0  0  1  0  0  0  0  0  0
  157.9340  212.5790  147.3840 C   0  0  0  0  0  2  0  0  0  0  0  0
  162.7240  213.9890  146.5050 C   0  0  0  0  0  3  0  0  0  0  0  0
  161.6680  213.4940  144.0050 N   0  0  0  0  0  0  0  0  0  0  0  0
  162.8300  214.1920  144.1090 C   0  0  0  0  0  3  0  0  0  0  0  0
  158.6220  213.2780  145.1080 N   0  0  0  0  0  2  0  0  0  0  0  0
  159.9840  213.5150  149.6740 C   0  0  2  0  0  3  0  0  0  0  0  0
  158.4580  213.9250  147.9130 C   0  0  2  0  0  3  0  0  0  0  0  0
  160.9360  212.6370  149.9470 C   0  0  2  0  0  3  0  0  0  0  0  0
  158.1290  212.3700  150.8750 C   0  0  0  0  0  1  0  0  0  0  0  0
  160.8020  212.7710  147.6050 C   0  0  1  0  0  3  0  0  0  0  0  0
  1 16  1  0  0  0  0
  2  8  2  0  0  0  0
  4 20  1  0  0  0  0
  5 27  1  6  0  0  0
  6  1  1  0  0  0  0
  6 23  1  0  0  0  0
  7  8  2  0  0  0  0
  8 14  1  0  0  0  0
  9 18  1  0  0  0  0
 10  8  1  6  0  0  0
 10 26  1  0  0  0  0
 11 15  1  0  0  0  0
 12 24  1  0  0  0  0
 13  9  1  0  0  0  0
 14  9  2  0  0  0  0
 15 19  1  0  0  0  0
 16 20  2  0  0  0  0
 16 28  1  0  0  0  0
 17  3  1  0  0  0  0
 17  5  1  0  0  0  0
 19 25  1  0  0  0  0
 21 22  1  0  0  0  0
 21  1  2  0  0  0  0
 22  4  2  0  0  0  0
 23 15  1  0  0  0  0
 24 26  1  0  0  0  0
 24  5  1  0  0  0  0
 25 12  1  0  0  0  0
 25 17  1  0  0  0  0
 26 13  1  0  0  0  0
 28 12  1  0  0  0  0
 28 10  1  0  0  0  0
M  END
>  <MODEL>
3

>  <REMARK>
 VINA RESULT:      -0.2      4.039      8.244
  Name = 
  0 active torsions:
  status: ('A' for Active; 'I' for Inactive)
                            x       y       z     vdW  Elec       q    Type
                         _______ _______ _______ _____ _____    ______ ____

>  <TORSDO>
F 0

$$$$
