=
 OpenBabel11122413093D

 31 35  0  0  1  0  0  0  0  0999 V2000
  161.9540  208.6770  148.3880 C   0  0  0  0  0  0  0  0  0  0  0  0
  160.8340  207.5080  151.8680 C   0  0  2  0  0  3  0  0  0  0  0  0
  160.9760  205.9920  151.7680 C   0  0  0  0  0  0  0  0  0  0  0  0
  160.6890  203.9390  150.4870 C   0  0  0  0  0  0  0  0  0  0  0  0
  161.4330  208.3530  150.7470 C   0  0  0  0  0  0  0  0  0  0  0  0
  162.3360  209.9930  148.6410 C   0  0  0  0  0  3  0  0  0  0  0  0
  160.6740  205.3330  150.5660 C   0  0  0  0  0  3  0  0  0  0  0  0
  160.9180  209.5310  153.3670 C   0  0  2  0  0  3  0  0  0  0  0  0
  162.0230  208.1700  147.0980 O   0  0  0  0  0  1  0  0  0  0  0  0
  161.4710  205.8290  154.2670 C   0  0  0  0  0  2  0  0  0  0  0  0
  160.4180  203.3260  149.3090 F   0  0  0  0  0  0  0  0  0  0  0  0
  161.7660  210.3170  152.3700 C   0  0  0  0  0  2  0  0  0  0  0  0
  161.2920  208.0540  153.2280 C   0  0  1  0  0  3  0  0  0  0  0  0
  161.4960  207.8700  149.4300 C   0  0  0  0  0  3  0  0  0  0  0  0
  160.9740  203.1780  151.6200 C   0  0  0  0  0  3  0  0  0  0  0  0
  161.7890  209.7090  150.9870 C   0  0  0  0  0  0  0  0  0  0  0  0
  162.2540  210.5060  149.9370 C   0  0  0  0  0  3  0  0  0  0  0  0
  160.8160  207.1960  154.3850 C   0  0  0  0  0  2  0  0  0  0  0  0
  161.2070  205.2060  152.9270 C   0  0  0  0  0  0  0  0  0  0  0  0
  161.2280  203.8110  152.8360 C   0  0  0  0  0  3  0  0  0  0  0  0
  159.5020  209.7690  153.0880 N   0  0  0  0  0  2  0  0  0  0  0  0
  158.6200  211.7950  152.3560 O   0  0  0  0  0  1  0  0  0  0  0  0
  159.1670  211.1370  153.4590 C   0  0  1  0  0  3  0  0  0  0  0  0
  159.1780  213.4750  156.4110 C   0  0  1  0  0  3  0  0  0  0  0  0
  157.1160  212.6560  154.5820 S   0  0  0  0  0  0  0  0  0  0  0  0
  159.3410  209.7540  156.2080 O   0  0  0  0  0  1  0  0  0  0  0  0
  160.1650  214.4510  157.0120 C   0  0  0  0  0  1  0  0  0  0  0  0
  158.7520  214.0240  154.7310 S   0  0  0  0  0  0  0  0  0  0  0  0
  158.7880  211.0220  156.0270 C   0  0  2  0  0  3  0  0  0  0  0  0
  158.1680  211.1610  154.6260 C   0  0  2  0  0  3  0  0  0  0  0  0
  159.8210  212.0980  156.3480 C   0  0  0  0  0  2  0  0  0  0  0  0
  1  6  2  0  0  0  0
  1 14  1  0  0  0  0
  2  5  1  6  0  0  0
  2 13  1  0  0  0  0
  3  2  1  0  0  0  0
  3 19  1  0  0  0  0
  4  7  1  0  0  0  0
  4 15  2  0  0  0  0
  5 16  1  0  0  0  0
  6 17  1  0  0  0  0
  7  3  2  0  0  0  0
  8 21  1  6  0  0  0
  9  1  1  0  0  0  0
 10 18  1  0  0  0  0
 11  4  1  0  0  0  0
 12  8  1  0  0  0  0
 13  8  1  0  0  0  0
 13 18  1  1  0  0  0
 14  5  2  0  0  0  0
 15 20  1  0  0  0  0
 16 12  1  0  0  0  0
 17 16  2  0  0  0  0
 19 10  1  0  0  0  0
 20 19  2  0  0  0  0
 21 23  1  0  0  0  0
 23 22  1  6  0  0  0
 24 27  1  6  0  0  0
 25 30  1  0  0  0  0
 25 28  1  0  0  0  0
 28 24  1  0  0  0  0
 29 26  1  6  0  0  0
 29 31  1  0  0  0  0
 30 23  1  6  0  0  0
 30 29  1  0  0  0  0
 31 24  1  0  0  0  0
M  END
>  <MODEL>
1

>  <REMARK>
 VINA RESULT:      -6.9      0.000      0.000
  Name = 
  3 active torsions:
  status: ('A' for Active; 'I' for Inactive)
    1  A    between atoms: C_5  and  N_16
    2  A    between atoms: C_5  and  C_30
    3  A    between atoms: C_10  and  N_16
                            x       y       z     vdW  Elec       q    Type
                         _______ _______ _______ _____ _____    ______ ____

>  <TORSDO>
F 3

$$$$
=
 OpenBabel11122413093D

 31 35  0  0  1  0  0  0  0  0999 V2000
  161.9320  208.6120  148.4180 C   0  0  0  0  0  0  0  0  0  0  0  0
  160.8430  207.5710  151.9490 C   0  0  2  0  0  3  0  0  0  0  0  0
  160.9380  206.0500  151.8880 C   0  0  0  0  0  0  0  0  0  0  0  0
  160.5660  203.9720  150.6680 C   0  0  0  0  0  0  0  0  0  0  0  0
  161.4460  208.3670  150.7940 C   0  0  0  0  0  0  0  0  0  0  0  0
  162.3580  209.9220  148.6290 C   0  0  0  0  0  3  0  0  0  0  0  0
  160.5940  205.3680  150.7100 C   0  0  0  0  0  3  0  0  0  0  0  0
  161.0150  209.6310  153.3900 C   0  0  2  0  0  3  0  0  0  0  0  0
  161.9620  208.0680  147.1410 O   0  0  0  0  0  1  0  0  0  0  0  0
  161.4750  205.9390  154.3800 C   0  0  0  0  0  2  0  0  0  0  0  0
  160.2550  203.3360  149.5130 F   0  0  0  0  0  0  0  0  0  0  0  0
  161.8680  210.3630  152.3570 C   0  0  0  0  0  2  0  0  0  0  0  0
  161.3430  208.1400  153.2850 C   0  0  1  0  0  3  0  0  0  0  0  0
  161.4700  207.8480  149.4900 C   0  0  0  0  0  3  0  0  0  0  0  0
  160.8500  203.2340  151.8170 C   0  0  0  0  0  3  0  0  0  0  0  0
  161.8460  209.7180  150.9910 C   0  0  0  0  0  0  0  0  0  0  0  0
  162.3150  210.4720  149.9110 C   0  0  0  0  0  3  0  0  0  0  0  0
  160.8620  207.3270  154.4730 C   0  0  0  0  0  2  0  0  0  0  0  0
  161.1670  205.2880  153.0640 C   0  0  0  0  0  0  0  0  0  0  0  0
  161.1460  203.8910  153.0100 C   0  0  0  0  0  3  0  0  0  0  0  0
  159.6020  209.9030  153.1300 N   0  0  0  0  0  2  0  0  0  0  0  0
  159.4330  210.2030  155.4330 O   0  0  0  0  0  1  0  0  0  0  0  0
  159.0760  210.7440  154.1960 C   0  0  1  0  0  3  0  0  0  0  0  0
  157.1240  213.9440  154.5530 C   0  0  1  0  0  3  0  0  0  0  0  0
  159.6000  213.0360  155.6970 S   0  0  0  0  0  0  0  0  0  0  0  0
  159.1760  212.6050  151.7410 O   0  0  0  0  0  1  0  0  0  0  0  0
  155.6580  214.3180  154.5830 C   0  0  0  0  0  1  0  0  0  0  0  0
  157.4860  212.8590  155.9650 S   0  0  0  0  0  0  0  0  0  0  0  0
  158.9210  213.0630  153.0340 C   0  0  2  0  0  3  0  0  0  0  0  0
  159.6170  212.1780  154.0820 C   0  0  2  0  0  3  0  0  0  0  0  0
  157.4190  213.2070  153.2560 C   0  0  0  0  0  2  0  0  0  0  0  0
  1  6  2  0  0  0  0
  1 14  1  0  0  0  0
  2  5  1  6  0  0  0
  2 13  1  0  0  0  0
  3  2  1  0  0  0  0
  3 19  1  0  0  0  0
  4  7  1  0  0  0  0
  4 15  2  0  0  0  0
  5 16  1  0  0  0  0
  6 17  1  0  0  0  0
  7  3  2  0  0  0  0
  8 21  1  6  0  0  0
  9  1  1  0  0  0  0
 10 18  1  0  0  0  0
 11  4  1  0  0  0  0
 12  8  1  0  0  0  0
 13  8  1  0  0  0  0
 13 18  1  1  0  0  0
 14  5  2  0  0  0  0
 15 20  1  0  0  0  0
 16 12  1  0  0  0  0
 17 16  2  0  0  0  0
 19 10  1  0  0  0  0
 20 19  2  0  0  0  0
 21 23  1  0  0  0  0
 23 22  1  1  0  0  0
 24 27  1  6  0  0  0
 24 28  1  0  0  0  0
 25 28  1  0  0  0  0
 29 26  1  6  0  0  0
 29 31  1  0  0  0  0
 29 30  1  0  0  0  0
 30 23  1  1  0  0  0
 30 25  1  0  0  0  0
 31 24  1  0  0  0  0
M  END
>  <MODEL>
2

>  <REMARK>
 VINA RESULT:      -6.9      1.198      1.978
  Name = 
  3 active torsions:
  status: ('A' for Active; 'I' for Inactive)
    1  A    between atoms: C_5  and  N_16
    2  A    between atoms: C_5  and  C_30
    3  A    between atoms: C_10  and  N_16
                            x       y       z     vdW  Elec       q    Type
                         _______ _______ _______ _____ _____    ______ ____

>  <TORSDO>
F 3

$$$$
=
 OpenBabel11122413093D

 31 35  0  0  1  0  0  0  0  0999 V2000
  160.5160  207.4090  154.8060 C   0  0  0  0  0  0  0  0  0  0  0  0
  160.8640  208.7740  151.2350 C   0  0  2  0  0  3  0  0  0  0  0  0
  160.6660  210.2740  151.4350 C   0  0  0  0  0  0  0  0  0  0  0  0
  159.4670  212.1060  152.5060 C   0  0  0  0  0  0  0  0  0  0  0  0
  161.0470  207.9100  152.4790 C   0  0  0  0  0  0  0  0  0  0  0  0
  161.2060  206.2010  154.7140 C   0  0  0  0  0  3  0  0  0  0  0  0
  159.7470  210.7430  152.3860 C   0  0  0  0  0  3  0  0  0  0  0  0
  161.9760  206.9650  149.8790 C   0  0  2  0  0  3  0  0  0  0  0  0
  159.9110  207.7750  156.0000 O   0  0  0  0  0  1  0  0  0  0  0  0
  162.1800  210.7840  149.4450 C   0  0  0  0  0  2  0  0  0  0  0  0
  158.5940  212.5380  153.4480 F   0  0  0  0  0  0  0  0  0  0  0  0
  162.4220  206.2100  151.1290 C   0  0  0  0  0  2  0  0  0  0  0  0
  161.9710  208.4570  150.2180 C   0  0  1  0  0  3  0  0  0  0  0  0
  160.4290  208.2480  153.6940 C   0  0  0  0  0  3  0  0  0  0  0  0
  160.0810  213.0220  151.6510 C   0  0  0  0  0  3  0  0  0  0  0  0
  161.7150  206.6580  152.3870 C   0  0  0  0  0  0  0  0  0  0  0  0
  161.8040  205.8280  153.5090 C   0  0  0  0  0  3  0  0  0  0  0  0
  161.9080  209.3570  148.9980 C   0  0  0  0  0  2  0  0  0  0  0  0
  161.2380  211.2090  150.5330 C   0  0  0  0  0  0  0  0  0  0  0  0
  160.9610  212.5730  150.6670 C   0  0  0  0  0  3  0  0  0  0  0  0
  160.6540  206.4880  149.4730 N   0  0  0  0  0  2  0  0  0  0  0  0
  160.9170  206.7890  147.1800 O   0  0  0  0  0  1  0  0  0  0  0  0
  160.7630  205.8270  148.1800 C   0  0  1  0  0  3  0  0  0  0  0  0
  161.1230  202.7140  146.0930 C   0  0  1  0  0  3  0  0  0  0  0  0
  162.8670  204.9490  146.5740 S   0  0  0  0  0  0  0  0  0  0  0  0
  161.2060  203.2330  149.7850 O   0  0  0  0  0  1  0  0  0  0  0  0
  160.1930  201.8580  145.2610 C   0  0  0  0  0  1  0  0  0  0  0  0
  161.1880  204.3830  145.3760 S   0  0  0  0  0  0  0  0  0  0  0  0
  161.6180  203.3900  148.4620 C   0  0  2  0  0  3  0  0  0  0  0  0
  161.9560  204.8590  148.1570 C   0  0  2  0  0  3  0  0  0  0  0  0
  160.5850  202.7900  147.5130 C   0  0  0  0  0  2  0  0  0  0  0  0
  1  9  1  0  0  0  0
  2  3  1  1  0  0  0
  2  5  1  0  0  0  0
  3  7  1  0  0  0  0
  4 11  1  0  0  0  0
  5 14  1  0  0  0  0
  6  1  1  0  0  0  0
  7  4  2  0  0  0  0
  8 21  1  1  0  0  0
  8 13  1  0  0  0  0
  8 12  1  0  0  0  0
 10 19  1  0  0  0  0
 12 16  1  0  0  0  0
 13 18  1  6  0  0  0
 13  2  1  0  0  0  0
 14  1  2  0  0  0  0
 15  4  1  0  0  0  0
 16  5  2  0  0  0  0
 16 17  1  0  0  0  0
 17  6  2  0  0  0  0
 18 10  1  0  0  0  0
 19 20  1  0  0  0  0
 19  3  2  0  0  0  0
 20 15  2  0  0  0  0
 23 22  1  6  0  0  0
 23 21  1  0  0  0  0
 24 27  1  6  0  0  0
 24 31  1  0  0  0  0
 25 30  1  0  0  0  0
 28 24  1  0  0  0  0
 28 25  1  0  0  0  0
 29 26  1  1  0  0  0
 30 23  1  6  0  0  0
 30 29  1  0  0  0  0
 31 29  1  0  0  0  0
M  END
>  <MODEL>
3

>  <REMARK>
 VINA RESULT:      -6.6      4.440      8.638
  Name = 
  3 active torsions:
  status: ('A' for Active; 'I' for Inactive)
    1  A    between atoms: C_5  and  N_16
    2  A    between atoms: C_5  and  C_30
    3  A    between atoms: C_10  and  N_16
                            x       y       z     vdW  Elec       q    Type
                         _______ _______ _______ _____ _____    ______ ____

>  <TORSDO>
F 3

$$$$
=
 OpenBabel11122413093D

 31 35  0  0  1  0  0  0  0  0999 V2000
  161.3070  206.5720  146.9200 C   0  0  0  0  0  0  0  0  0  0  0  0
  161.0500  205.1480  150.4760 C   0  0  2  0  0  3  0  0  0  0  0  0
  160.9020  203.6510  150.2210 C   0  0  0  0  0  0  0  0  0  0  0  0
  159.9210  201.8300  148.9310 C   0  0  0  0  0  0  0  0  0  0  0  0
  161.4360  206.0340  149.2950 C   0  0  0  0  0  0  0  0  0  0  0  0
  161.9600  207.7820  147.1470 C   0  0  0  0  0  3  0  0  0  0  0  0
  160.1630  203.1920  149.1190 C   0  0  0  0  0  3  0  0  0  0  0  0
  161.8960  206.9410  152.0300 C   0  0  2  0  0  3  0  0  0  0  0  0
  160.9190  206.2230  145.6340 O   0  0  0  0  0  1  0  0  0  0  0  0
  162.0560  203.1160  152.4330 C   0  0  0  0  0  2  0  0  0  0  0  0
  159.2260  201.4090  147.8470 F   0  0  0  0  0  0  0  0  0  0  0  0
  162.5430  207.7200  150.8880 C   0  0  0  0  0  2  0  0  0  0  0  0
  161.9620  205.4550  151.6720 C   0  0  1  0  0  3  0  0  0  0  0  0
  161.0380  205.7130  147.9870 C   0  0  0  0  0  3  0  0  0  0  0  0
  160.3870  200.9040  149.8640 C   0  0  0  0  0  3  0  0  0  0  0  0
  162.0670  207.2890  149.5200 C   0  0  0  0  0  0  0  0  0  0  0  0
  162.3390  208.1380  148.4430 C   0  0  0  0  0  3  0  0  0  0  0  0
  161.7000  204.5330  152.8490 C   0  0  0  0  0  2  0  0  0  0  0  0
  161.3190  202.7040  151.1920 C   0  0  0  0  0  0  0  0  0  0  0  0
  161.0810  201.3410  150.9910 C   0  0  0  0  0  3  0  0  0  0  0  0
  160.5200  207.4020  152.2110 N   0  0  0  0  0  2  0  0  0  0  0  0
  160.7310  207.0520  154.5030 O   0  0  0  0  0  1  0  0  0  0  0  0
  160.3870  207.9960  153.5340 C   0  0  1  0  0  3  0  0  0  0  0  0
  159.3990  211.3900  154.8310 C   0  0  1  0  0  3  0  0  0  0  0  0
  161.6040  209.6440  155.4270 S   0  0  0  0  0  0  0  0  0  0  0  0
  160.8330  210.3200  151.5590 O   0  0  0  0  0  1  0  0  0  0  0  0
  158.0930  212.0960  155.1260 C   0  0  0  0  0  1  0  0  0  0  0  0
  159.5410  209.9360  155.9110 S   0  0  0  0  0  0  0  0  0  0  0  0
  160.7930  210.4940  152.9420 C   0  0  2  0  0  3  0  0  0  0  0  0
  161.2870  209.2340  153.6730 C   0  0  2  0  0  3  0  0  0  0  0  0
  159.4020  210.9470  153.3760 C   0  0  0  0  0  2  0  0  0  0  0  0
  1  6  2  0  0  0  0
  1 14  1  0  0  0  0
  2  5  1  6  0  0  0
  2 13  1  0  0  0  0
  3  2  1  0  0  0  0
  3 19  1  0  0  0  0
  4  7  1  0  0  0  0
  4 15  2  0  0  0  0
  5 16  1  0  0  0  0
  6 17  1  0  0  0  0
  7  3  2  0  0  0  0
  8 21  1  6  0  0  0
  9  1  1  0  0  0  0
 10 18  1  0  0  0  0
 11  4  1  0  0  0  0
 12  8  1  0  0  0  0
 13  8  1  0  0  0  0
 13 18  1  1  0  0  0
 14  5  2  0  0  0  0
 15 20  1  0  0  0  0
 16 12  1  0  0  0  0
 17 16  2  0  0  0  0
 19 10  1  0  0  0  0
 20 19  2  0  0  0  0
 21 23  1  0  0  0  0
 23 22  1  1  0  0  0
 24 27  1  1  0  0  0
 24 28  1  0  0  0  0
 25 28  1  0  0  0  0
 29 26  1  6  0  0  0
 29 31  1  0  0  0  0
 29 30  1  0  0  0  0
 30 23  1  1  0  0  0
 30 25  1  0  0  0  0
 31 24  1  0  0  0  0
M  END
>  <MODEL>
4

>  <REMARK>
 VINA RESULT:      -6.3      2.122      3.351
  Name = 
  3 active torsions:
  status: ('A' for Active; 'I' for Inactive)
    1  A    between atoms: C_5  and  N_16
    2  A    between atoms: C_5  and  C_30
    3  A    between atoms: C_10  and  N_16
                            x       y       z     vdW  Elec       q    Type
                         _______ _______ _______ _____ _____    ______ ____

>  <TORSDO>
F 3

$$$$
=
 OpenBabel11122413093D

 31 35  0  0  1  0  0  0  0  0999 V2000
  161.3610  200.9940  149.0760 C   0  0  0  0  0  0  0  0  0  0  0  0
  161.5140  204.8240  148.8640 C   0  0  2  0  0  3  0  0  0  0  0  0
  161.6770  205.0650  147.3660 C   0  0  0  0  0  0  0  0  0  0  0  0
  162.7080  204.4520  145.2440 C   0  0  0  0  0  0  0  0  0  0  0  0
  161.1610  203.4110  149.3220 C   0  0  0  0  0  0  0  0  0  0  0  0
  160.6950  200.8040  150.2860 C   0  0  0  0  0  3  0  0  0  0  0  0
  162.4530  204.1880  146.5910 C   0  0  0  0  0  3  0  0  0  0  0  0
  160.6100  205.7000  151.0460 C   0  0  2  0  0  3  0  0  0  0  0  0
  161.7920  199.8980  148.3410 O   0  0  0  0  0  1  0  0  0  0  0  0
  160.4560  207.2980  147.5470 C   0  0  0  0  0  2  0  0  0  0  0  0
  163.4390  203.5780  144.5100 F   0  0  0  0  0  0  0  0  0  0  0  0
  159.9950  204.3510  151.4100 C   0  0  0  0  0  2  0  0  0  0  0  0
  160.5620  205.8330  149.5230 C   0  0  1  0  0  3  0  0  0  0  0  0
  161.6010  202.2860  148.6060 C   0  0  0  0  0  3  0  0  0  0  0  0
  162.2170  205.6180  144.6570 C   0  0  0  0  0  3  0  0  0  0  0  0
  160.5160  203.2060  150.5730 C   0  0  0  0  0  0  0  0  0  0  0  0
  160.2740  201.9080  151.0300 C   0  0  0  0  0  3  0  0  0  0  0  0
  160.7920  207.2500  149.0290 C   0  0  0  0  0  2  0  0  0  0  0  0
  161.2340  206.2750  146.7720 C   0  0  0  0  0  0  0  0  0  0  0  0
  161.4860  206.5270  145.4200 C   0  0  0  0  0  3  0  0  0  0  0  0
  161.9770  205.7630  151.5610 N   0  0  0  0  0  2  0  0  0  0  0  0
  162.7650  207.9460  151.3800 O   0  0  0  0  0  1  0  0  0  0  0  0
  162.1680  207.0320  152.2500 C   0  0  1  0  0  3  0  0  0  0  0  0
  161.6510  209.6690  154.8880 C   0  0  1  0  0  3  0  0  0  0  0  0
  160.5880  209.3300  152.2370 S   0  0  0  0  0  0  0  0  0  0  0  0
  160.4560  206.1440  154.6550 O   0  0  0  0  0  1  0  0  0  0  0  0
  162.5140  210.3260  155.9430 C   0  0  0  0  0  1  0  0  0  0  0  0
  162.3310  210.0500  153.2460 S   0  0  0  0  0  0  0  0  0  0  0  0
  160.5910  207.4770  154.2670 C   0  0  2  0  0  3  0  0  0  0  0  0
  160.8270  207.5920  152.7520 C   0  0  2  0  0  3  0  0  0  0  0  0
  161.6630  208.1650  155.1070 C   0  0  0  0  0  2  0  0  0  0  0  0
  1  6  1  0  0  0  0
  2  3  1  6  0  0  0
  2  5  1  0  0  0  0
  2 13  1  0  0  0  0
  4  7  1  0  0  0  0
  5 16  2  0  0  0  0
  6 17  2  0  0  0  0
  7  3  2  0  0  0  0
  8 12  1  0  0  0  0
  8 21  1  6  0  0  0
  9  1  1  0  0  0  0
 10 18  1  0  0  0  0
 11  4  1  0  0  0  0
 13 18  1  1  0  0  0
 13  8  1  0  0  0  0
 14  1  2  0  0  0  0
 14  5  1  0  0  0  0
 15  4  2  0  0  0  0
 15 20  1  0  0  0  0
 16 17  1  0  0  0  0
 16 12  1  0  0  0  0
 19  3  1  0  0  0  0
 19 10  1  0  0  0  0
 20 19  2  0  0  0  0
 21 23  1  0  0  0  0
 23 22  1  6  0  0  0
 24 31  1  0  0  0  0
 24 27  1  1  0  0  0
 25 30  1  0  0  0  0
 25 28  1  0  0  0  0
 28 24  1  0  0  0  0
 29 26  1  1  0  0  0
 29 31  1  0  0  0  0
 30 23  1  1  0  0  0
 30 29  1  0  0  0  0
M  END
>  <MODEL>
5

>  <REMARK>
 VINA RESULT:      -5.4      3.533      5.975
  Name = 
  3 active torsions:
  status: ('A' for Active; 'I' for Inactive)
    1  A    between atoms: C_5  and  N_16
    2  A    between atoms: C_5  and  C_30
    3  A    between atoms: C_10  and  N_16
                            x       y       z     vdW  Elec       q    Type
                         _______ _______ _______ _____ _____    ______ ____

>  <TORSDO>
F 3

$$$$
=
 OpenBabel11122413093D

 31 35  0  0  1  0  0  0  0  0999 V2000
  160.9140  206.8980  147.0550 C   0  0  0  0  0  0  0  0  0  0  0  0
  161.0540  205.7940  150.7290 C   0  0  2  0  0  3  0  0  0  0  0  0
  161.0100  204.2730  150.6180 C   0  0  0  0  0  0  0  0  0  0  0  0
  160.0840  202.2720  149.5780 C   0  0  0  0  0  0  0  0  0  0  0  0
  161.2730  206.5930  149.4480 C   0  0  0  0  0  0  0  0  0  0  0  0
  161.4820  208.1690  147.1210 C   0  0  0  0  0  3  0  0  0  0  0  0
  160.2280  203.6600  149.6270 C   0  0  0  0  0  3  0  0  0  0  0  0
  161.8700  207.7810  152.0460 C   0  0  2  0  0  3  0  0  0  0  0  0
  160.4570  206.4030  145.8420 O   0  0  0  0  0  1  0  0  0  0  0  0
  162.3750  204.0320  152.7610 C   0  0  0  0  0  2  0  0  0  0  0  0
  159.3440  201.7020  148.5980 F   0  0  0  0  0  0  0  0  0  0  0  0
  162.3590  208.4970  150.7890 C   0  0  0  0  0  2  0  0  0  0  0  0
  162.0300  206.2770  151.8120 C   0  0  1  0  0  3  0  0  0  0  0  0
  160.8010  206.1240  148.2110 C   0  0  0  0  0  3  0  0  0  0  0  0
  160.6970  201.4730  150.5440 C   0  0  0  0  0  3  0  0  0  0  0  0
  161.8140  207.9070  149.5090 C   0  0  0  0  0  0  0  0  0  0  0  0
  161.9300  208.6710  148.3440 C   0  0  0  0  0  3  0  0  0  0  0  0
  161.9370  205.4520  153.0830 C   0  0  0  0  0  2  0  0  0  0  0  0
  161.5790  203.4540  151.6280 C   0  0  0  0  0  0  0  0  0  0  0  0
  161.4380  202.0640  151.5670 C   0  0  0  0  0  3  0  0  0  0  0  0
  160.4790  208.1530  152.3030 N   0  0  0  0  0  2  0  0  0  0  0  0
  159.9040  210.4070  152.4080 O   0  0  0  0  0  1  0  0  0  0  0  0
  160.4520  209.3480  153.1350 C   0  0  1  0  0  3  0  0  0  0  0  0
  161.1210  210.7430  156.5680 C   0  0  1  0  0  3  0  0  0  0  0  0
  158.7540  210.6290  154.9380 S   0  0  0  0  0  0  0  0  0  0  0  0
  160.8290  207.2320  155.3440 O   0  0  0  0  0  1  0  0  0  0  0  0
  162.2840  211.4330  157.2460 C   0  0  0  0  0  1  0  0  0  0  0  0
  160.5420  211.7760  155.1890 S   0  0  0  0  0  0  0  0  0  0  0  0
  160.4060  208.5350  155.6020 C   0  0  2  0  0  3  0  0  0  0  0  0
  159.6260  209.1120  154.4090 C   0  0  2  0  0  3  0  0  0  0  0  0
  161.5880  209.3980  156.0340 C   0  0  0  0  0  2  0  0  0  0  0  0
  1  6  2  0  0  0  0
  1 14  1  0  0  0  0
  2  5  1  6  0  0  0
  2 13  1  0  0  0  0
  3  2  1  0  0  0  0
  3 19  1  0  0  0  0
  4  7  1  0  0  0  0
  4 15  2  0  0  0  0
  5 16  1  0  0  0  0
  6 17  1  0  0  0  0
  7  3  2  0  0  0  0
  8 21  1  6  0  0  0
  9  1  1  0  0  0  0
 10 18  1  0  0  0  0
 11  4  1  0  0  0  0
 12  8  1  0  0  0  0
 13  8  1  0  0  0  0
 13 18  1  1  0  0  0
 14  5  2  0  0  0  0
 15 20  1  0  0  0  0
 16 12  1  0  0  0  0
 17 16  2  0  0  0  0
 19 10  1  0  0  0  0
 20 19  2  0  0  0  0
 21 23  1  0  0  0  0
 23 22  1  6  0  0  0
 24 27  1  6  0  0  0
 25 28  1  0  0  0  0
 28 24  1  0  0  0  0
 29 26  1  6  0  0  0
 29 31  1  0  0  0  0
 30 23  1  6  0  0  0
 30 25  1  0  0  0  0
 30 29  1  0  0  0  0
 31 24  1  0  0  0  0
M  END
>  <MODEL>
6

>  <REMARK>
 VINA RESULT:      -5.3      1.927      2.498
  Name = 
  3 active torsions:
  status: ('A' for Active; 'I' for Inactive)
    1  A    between atoms: C_5  and  N_16
    2  A    between atoms: C_5  and  C_30
    3  A    between atoms: C_10  and  N_16
                            x       y       z     vdW  Elec       q    Type
                         _______ _______ _______ _____ _____    ______ ____

>  <TORSDO>
F 3

$$$$
=
 OpenBabel11122413093D

 31 35  0  0  1  0  0  0  0  0999 V2000
  160.2470  210.0720  153.8080 C   0  0  0  0  0  0  0  0  0  0  0  0
  161.2390  209.5490  150.1370 C   0  0  2  0  0  3  0  0  0  0  0  0
  161.4850  210.9760  149.6560 C   0  0  0  0  0  0  0  0  0  0  0  0
  160.8160  213.3200  149.6150 C   0  0  0  0  0  0  0  0  0  0  0  0
  161.0670  209.3260  151.6370 C   0  0  0  0  0  0  0  0  0  0  0  0
  160.5480  208.8290  154.3620 C   0  0  0  0  0  3  0  0  0  0  0  0
  160.6830  212.0280  150.1270 C   0  0  0  0  0  3  0  0  0  0  0  0
  161.8520  207.1170  149.8980 C   0  0  2  0  0  3  0  0  0  0  0  0
  159.6960  211.0700  154.6000 O   0  0  0  0  0  1  0  0  0  0  0  0
  163.2190  210.1570  147.9720 C   0  0  0  0  0  2  0  0  0  0  0  0
  160.0470  214.3240  150.1030 F   0  0  0  0  0  0  0  0  0  0  0  0
  161.9620  206.9280  151.4090 C   0  0  0  0  0  2  0  0  0  0  0  0
  162.2690  208.5550  149.5810 C   0  0  1  0  0  3  0  0  0  0  0  0
  160.4940  210.3120  152.4560 C   0  0  0  0  0  3  0  0  0  0  0  0
  161.7340  213.5760  148.5970 C   0  0  0  0  0  3  0  0  0  0  0  0
  161.3350  208.0490  152.2040 C   0  0  0  0  0  0  0  0  0  0  0  0
  161.0910  207.8220  153.5620 C   0  0  0  0  0  3  0  0  0  0  0  0
  162.5650  208.7920  148.1120 C   0  0  0  0  0  2  0  0  0  0  0  0
  162.3730  211.2380  148.5800 C   0  0  0  0  0  0  0  0  0  0  0  0
  162.5070  212.5370  148.0800 C   0  0  0  0  0  3  0  0  0  0  0  0
  160.4800  206.8370  149.4750 N   0  0  0  0  0  2  0  0  0  0  0  0
  160.4200  206.6570  147.1540 O   0  0  0  0  0  1  0  0  0  0  0  0
  160.5100  205.9250  148.3400 C   0  0  1  0  0  3  0  0  0  0  0  0
  161.2060  202.8170  146.3310 C   0  0  1  0  0  3  0  0  0  0  0  0
  162.6970  205.2390  146.7520 S   0  0  0  0  0  0  0  0  0  0  0  0
  161.2290  203.4340  150.0080 O   0  0  0  0  0  1  0  0  0  0  0  0
  160.3750  201.8440  145.5220 C   0  0  0  0  0  1  0  0  0  0  0  0
  161.0900  204.4650  145.5720 S   0  0  0  0  0  0  0  0  0  0  0  0
  161.6230  203.6020  148.6810 C   0  0  2  0  0  3  0  0  0  0  0  0
  161.8010  205.0910  148.3390 C   0  0  2  0  0  3  0  0  0  0  0  0
  160.6620  202.8700  147.7490 C   0  0  0  0  0  2  0  0  0  0  0  0
  1  6  1  0  0  0  0
  1  9  1  0  0  0  0
  2  3  1  1  0  0  0
  2  5  1  0  0  0  0
  3  7  1  0  0  0  0
  4 11  1  0  0  0  0
  4  7  2  0  0  0  0
  5 16  2  0  0  0  0
  5 14  1  0  0  0  0
  8 21  1  1  0  0  0
  8 12  1  0  0  0  0
 10 18  1  0  0  0  0
 10 19  1  0  0  0  0
 12 16  1  0  0  0  0
 13 18  1  6  0  0  0
 13  8  1  0  0  0  0
 13  2  1  0  0  0  0
 14  1  2  0  0  0  0
 15  4  1  0  0  0  0
 16 17  1  0  0  0  0
 17  6  2  0  0  0  0
 19  3  2  0  0  0  0
 20 19  1  0  0  0  0
 20 15  2  0  0  0  0
 23 22  1  6  0  0  0
 23 21  1  0  0  0  0
 24 27  1  6  0  0  0
 24 31  1  0  0  0  0
 25 30  1  0  0  0  0
 28 24  1  0  0  0  0
 28 25  1  0  0  0  0
 29 26  1  1  0  0  0
 30 23  1  6  0  0  0
 30 29  1  0  0  0  0
 31 29  1  0  0  0  0
M  END
>  <MODEL>
7

>  <REMARK>
 VINA RESULT:      -4.3      4.463      8.663
  Name = 
  3 active torsions:
  status: ('A' for Active; 'I' for Inactive)
    1  A    between atoms: C_5  and  N_16
    2  A    between atoms: C_5  and  C_30
    3  A    between atoms: C_10  and  N_16
                            x       y       z     vdW  Elec       q    Type
                         _______ _______ _______ _____ _____    ______ ____

>  <TORSDO>
F 3

$$$$
