=
 OpenBabel11122414123D

 28 32  0  0  1  0  0  0  0  0999 V2000
  160.6380  205.6790  150.9850 C   0  0  2  0  0  3  0  0  0  0  0  0
  159.9530  206.5920  153.7050 O   0  0  0  0  0  0  0  0  0  0  0  0
  162.2030  211.0570  147.7680 O   0  0  0  0  0  0  0  0  0  0  0  0
  162.9640  204.1920  152.0040 C   0  0  0  0  0  2  0  0  0  0  0  0
  161.9160  211.0750  150.1150 N   0  0  0  0  0  0  0  0  0  0  0  0
  159.8070  206.2700  149.8410 C   0  0  0  0  0  2  0  0  0  0  0  0
  161.9840  207.3790  154.8580 O   0  0  0  0  0  0  0  0  0  0  0  0
  160.8380  207.7760  153.9710 S   0  0  0  0  0  0  0  0  0  0  0  0
  160.2770  210.4570  154.3590 C   0  0  0  0  0  0  0  0  0  0  0  0
  161.4320  208.4500  152.4980 N   0  0  0  0  0  0  0  0  0  0  0  0
  162.1060  206.5740  146.7570 C   0  0  0  0  0  1  0  0  0  0  0  0
  162.2420  208.8160  150.4620 C   0  0  0  0  0  0  0  0  0  0  0  0
  160.9130  210.7740  153.2220 C   0  0  0  0  0  3  0  0  0  0  0  0
  159.8730  209.0560  154.7570 C   0  0  0  0  0  2  0  0  0  0  0  0
  161.6160  206.8550  148.1630 C   0  0  1  0  0  3  0  0  0  0  0  0
  162.0150  206.3520  151.1420 C   0  0  2  0  0  3  0  0  0  0  0  0
  162.1830  210.4330  148.8620 C   0  0  0  0  0  0  0  0  0  0  0  0
  159.8050  211.5730  155.2200 C   0  0  0  0  0  1  0  0  0  0  0  0
  161.2850  208.2670  148.2950 N   0  0  0  0  0  2  0  0  0  0  0  0
  162.8500  205.6930  152.2400 C   0  0  0  0  0  2  0  0  0  0  0  0
  160.7670  204.1620  150.8270 C   0  0  0  0  0  2  0  0  0  0  0  0
  161.5760  203.5660  151.9730 C   0  0  0  0  0  2  0  0  0  0  0  0
  160.3860  206.0030  148.4480 C   0  0  0  0  0  2  0  0  0  0  0  0
  161.9730  210.0030  151.0320 C   0  0  0  0  0  0  0  0  0  0  0  0
  162.3890  208.9350  148.9750 C   0  0  2  0  0  3  0  0  0  0  0  0
  161.4320  209.7790  152.2740 C   0  0  0  0  0  0  0  0  0  0  0  0
  161.1770  212.3140  150.2900 C   0  0  0  0  0  1  0  0  0  0  0  0
  161.9120  207.8330  151.3810 C   0  0  0  0  0  0  0  0  0  0  0  0
  1  6  1  6  0  0  0
  1 16  1  0  0  0  0
  2  8  2  0  0  0  0
  3 17  2  0  0  0  0
  4 20  1  0  0  0  0
  5 27  1  0  0  0  0
  5 24  1  0  0  0  0
  8 14  1  0  0  0  0
  8  7  2  0  0  0  0
  9 14  1  0  0  0  0
  9 18  1  0  0  0  0
 10  8  1  0  0  0  0
 12 24  1  0  0  0  0
 12 28  2  0  0  0  0
 13  9  2  0  0  0  0
 15 11  1  6  0  0  0
 15 19  1  0  0  0  0
 15 23  1  0  0  0  0
 16 28  1  0  0  0  0
 16 20  1  1  0  0  0
 17 25  1  0  0  0  0
 17  5  1  0  0  0  0
 21  1  1  0  0  0  0
 21 22  1  0  0  0  0
 22  4  1  0  0  0  0
 23  6  1  0  0  0  0
 24 26  2  0  0  0  0
 25 19  1  6  0  0  0
 25 12  1  0  0  0  0
 26 10  1  0  0  0  0
 26 13  1  0  0  0  0
 28 10  1  0  0  0  0
M  END
>  <MODEL>
1

>  <REMARK>
 VINA RESULT:      -4.1      0.000      0.000
  Name = 
  0 active torsions:
  status: ('A' for Active; 'I' for Inactive)
                            x       y       z     vdW  Elec       q    Type
                         _______ _______ _______ _____ _____    ______ ____

>  <TORSDO>
F 0

$$$$
=
 OpenBabel11122414123D

 28 32  0  0  1  0  0  0  0  0999 V2000
  161.6190  208.7080  155.8430 C   0  0  2  0  0  3  0  0  0  0  0  0
  162.5150  206.7870  153.7930 O   0  0  0  0  0  0  0  0  0  0  0  0
  159.6380  213.8830  152.5240 O   0  0  0  0  0  0  0  0  0  0  0  0
  159.4310  206.9150  156.6540 C   0  0  0  0  0  2  0  0  0  0  0  0
  160.1290  211.8440  151.4330 N   0  0  0  0  0  0  0  0  0  0  0  0
  162.3310  210.0650  155.8600 C   0  0  0  0  0  2  0  0  0  0  0  0
  160.5730  205.9470  152.5280 O   0  0  0  0  0  0  0  0  0  0  0  0
  161.6260  207.0170  152.6040 S   0  0  0  0  0  0  0  0  0  0  0  0
  162.1480  207.9570  150.0550 C   0  0  0  0  0  0  0  0  0  0  0  0
  160.8880  208.5740  152.6740 N   0  0  0  0  0  0  0  0  0  0  0  0
  159.7640  212.7240  156.9700 C   0  0  0  0  0  1  0  0  0  0  0  0
  159.8940  210.4690  153.2730 C   0  0  0  0  0  0  0  0  0  0  0  0
  161.4070  209.0500  150.2870 C   0  0  0  0  0  3  0  0  0  0  0  0
  162.6230  206.9980  151.1230 C   0  0  0  0  0  2  0  0  0  0  0  0
  160.3680  211.6540  156.0820 C   0  0  1  0  0  3  0  0  0  0  0  0
  160.2440  208.7560  155.1500 C   0  0  2  0  0  3  0  0  0  0  0  0
  159.7700  212.6320  152.5750 C   0  0  0  0  0  0  0  0  0  0  0  0
  162.6640  207.7520  148.6770 C   0  0  0  0  0  1  0  0  0  0  0  0
  160.6720  212.2160  154.7740 N   0  0  0  0  0  2  0  0  0  0  0  0
  159.5260  207.4070  155.2160 C   0  0  0  0  0  2  0  0  0  0  0  0
  161.5160  208.1380  157.2610 C   0  0  0  0  0  2  0  0  0  0  0  0
  160.8270  206.7800  157.2480 C   0  0  0  0  0  2  0  0  0  0  0  0
  161.6400  211.1210  156.7280 C   0  0  0  0  0  2  0  0  0  0  0  0
  160.1810  210.5360  151.9610 C   0  0  0  0  0  0  0  0  0  0  0  0
  159.6150  211.8240  153.8490 C   0  0  2  0  0  3  0  0  0  0  0  0
  160.8340  209.3840  151.5970 C   0  0  0  0  0  0  0  0  0  0  0  0
  160.8480  212.3250  150.2650 C   0  0  0  0  0  1  0  0  0  0  0  0
  160.3290  209.2350  153.7270 C   0  0  0  0  0  0  0  0  0  0  0  0
  1  6  1  1  0  0  0
  1 21  1  0  0  0  0
  3 17  2  0  0  0  0
  4 22  1  0  0  0  0
  5 24  1  0  0  0  0
  5 17  1  0  0  0  0
  6 23  1  0  0  0  0
  7  8  2  0  0  0  0
  8 10  1  0  0  0  0
  8  2  2  0  0  0  0
  9 13  2  0  0  0  0
  9 14  1  0  0  0  0
 10 28  1  0  0  0  0
 12 28  2  0  0  0  0
 12 25  1  0  0  0  0
 13 26  1  0  0  0  0
 14  8  1  0  0  0  0
 15 23  1  0  0  0  0
 15 11  1  1  0  0  0
 16 20  1  6  0  0  0
 16  1  1  0  0  0  0
 18  9  1  0  0  0  0
 19 15  1  0  0  0  0
 20  4  1  0  0  0  0
 22 21  1  0  0  0  0
 24 12  1  0  0  0  0
 25 17  1  6  0  0  0
 25 19  1  0  0  0  0
 26 24  2  0  0  0  0
 26 10  1  0  0  0  0
 27  5  1  0  0  0  0
 28 16  1  0  0  0  0
M  END
>  <MODEL>
2

>  <REMARK>
 VINA RESULT:      -3.8      2.331      5.838
  Name = 
  0 active torsions:
  status: ('A' for Active; 'I' for Inactive)
                            x       y       z     vdW  Elec       q    Type
                         _______ _______ _______ _____ _____    ______ ____

>  <TORSDO>
F 0

$$$$
=
 OpenBabel11122414123D

 28 32  0  0  1  0  0  0  0  0999 V2000
  159.9650  209.9780  155.0880 C   0  0  2  0  0  3  0  0  0  0  0  0
  157.6460  211.0120  156.5890 O   0  0  0  0  0  0  0  0  0  0  0  0
  159.8890  213.1900  149.4840 O   0  0  0  0  0  0  0  0  0  0  0  0
  161.8260  211.1040  157.0710 C   0  0  0  0  0  2  0  0  0  0  0  0
  158.4960  213.8350  151.2830 N   0  0  0  0  0  0  0  0  0  0  0  0
  159.6630  209.3340  153.7310 C   0  0  0  0  0  2  0  0  0  0  0  0
  158.0590  213.3480  157.2610 O   0  0  0  0  0  0  0  0  0  0  0  0
  157.5100  212.4530  156.1850 S   0  0  0  0  0  0  0  0  0  0  0  0
  155.5400  213.8090  154.7950 C   0  0  0  0  0  0  0  0  0  0  0  0
  158.3160  212.7570  154.6910 N   0  0  0  0  0  0  0  0  0  0  0  0
  162.6520  210.0550  151.3990 C   0  0  0  0  0  1  0  0  0  0  0  0
  159.7150  212.8280  152.9660 C   0  0  0  0  0  0  0  0  0  0  0  0
  156.3900  214.0480  153.7860 C   0  0  0  0  0  3  0  0  0  0  0  0
  155.7840  212.8170  155.9100 C   0  0  0  0  0  2  0  0  0  0  0  0
  161.4580  210.3770  152.2750 C   0  0  1  0  0  3  0  0  0  0  0  0
  160.4890  211.4230  154.9680 C   0  0  2  0  0  3  0  0  0  0  0  0
  159.6460  213.1900  150.7200 C   0  0  0  0  0  0  0  0  0  0  0  0
  154.2020  214.4530  154.7380 C   0  0  0  0  0  1  0  0  0  0  0  0
  160.4320  211.0400  151.4820 N   0  0  0  0  0  2  0  0  0  0  0  0
  160.8520  212.0120  156.3310 C   0  0  0  0  0  2  0  0  0  0  0  0
  160.9190  209.0990  155.9010 C   0  0  0  0  0  2  0  0  0  0  0  0
  161.2070  209.7250  157.2590 C   0  0  0  0  0  2  0  0  0  0  0  0
  160.9050  209.0880  152.8680 C   0  0  0  0  0  2  0  0  0  0  0  0
  158.6270  213.5560  152.6600 C   0  0  0  0  0  0  0  0  0  0  0  0
  160.5060  212.4730  151.7430 C   0  0  2  0  0  3  0  0  0  0  0  0
  157.7410  213.4790  153.7080 C   0  0  0  0  0  0  0  0  0  0  0  0
  157.2570  214.1180  150.5800 C   0  0  0  0  0  1  0  0  0  0  0  0
  159.5310  212.3280  154.2440 C   0  0  0  0  0  0  0  0  0  0  0  0
  1  6  1  6  0  0  0
  1 21  1  0  0  0  0
  3 17  2  0  0  0  0
  4 22  1  0  0  0  0
  5 24  1  0  0  0  0
  8  2  2  0  0  0  0
  8  7  2  0  0  0  0
  9 14  1  0  0  0  0
 10  8  1  0  0  0  0
 12 28  2  0  0  0  0
 13  9  2  0  0  0  0
 14  8  1  0  0  0  0
 15 11  1  6  0  0  0
 15 23  1  0  0  0  0
 16  1  1  0  0  0  0
 16 20  1  1  0  0  0
 17  5  1  0  0  0  0
 18  9  1  0  0  0  0
 19 25  1  0  0  0  0
 19 15  1  0  0  0  0
 20  4  1  0  0  0  0
 21 22  1  0  0  0  0
 23  6  1  0  0  0  0
 24 12  1  0  0  0  0
 24 26  2  0  0  0  0
 25 17  1  6  0  0  0
 25 12  1  0  0  0  0
 26 13  1  0  0  0  0
 26 10  1  0  0  0  0
 27  5  1  0  0  0  0
 28 10  1  0  0  0  0
 28 16  1  0  0  0  0
M  END
>  <MODEL>
3

>  <REMARK>
 VINA RESULT:      -3.7      3.846      5.905
  Name = 
  0 active torsions:
  status: ('A' for Active; 'I' for Inactive)
                            x       y       z     vdW  Elec       q    Type
                         _______ _______ _______ _____ _____    ______ ____

>  <TORSDO>
F 0

$$$$
=
 OpenBabel11122414123D

 28 32  0  0  1  0  0  0  0  0999 V2000
  160.3620  208.0710  154.8850 C   0  0  2  0  0  3  0  0  0  0  0  0
  158.6520  210.3000  155.7840 O   0  0  0  0  0  0  0  0  0  0  0  0
  162.3650  209.7840  148.9870 O   0  0  0  0  0  0  0  0  0  0  0  0
  162.3190  208.6370  157.0090 C   0  0  0  0  0  2  0  0  0  0  0  0
  161.2570  211.3240  150.3980 N   0  0  0  0  0  0  0  0  0  0  0  0
  159.9350  207.3660  153.5930 C   0  0  0  0  0  2  0  0  0  0  0  0
  160.0340  212.2970  156.2050 O   0  0  0  0  0  0  0  0  0  0  0  0
  159.2440  211.5390  155.1750 S   0  0  0  0  0  0  0  0  0  0  0  0
  158.2870  213.3120  153.2800 C   0  0  0  0  0  0  0  0  0  0  0  0
  160.2470  211.1480  153.8270 N   0  0  0  0  0  0  0  0  0  0  0  0
  163.1360  206.2110  151.7740 C   0  0  0  0  0  1  0  0  0  0  0  0
  161.6860  210.2460  152.3950 C   0  0  0  0  0  0  0  0  0  0  0  0
  159.2480  212.9430  152.4220 C   0  0  0  0  0  3  0  0  0  0  0  0
  157.9250  212.5620  154.5420 C   0  0  0  0  0  2  0  0  0  0  0  0
  162.1470  207.1950  152.3660 C   0  0  1  0  0  3  0  0  0  0  0  0
  161.5070  209.0800  154.6730 C   0  0  2  0  0  3  0  0  0  0  0  0
  162.0240  210.1400  150.1470 C   0  0  0  0  0  0  0  0  0  0  0  0
  157.4170  214.4530  152.8940 C   0  0  0  0  0  1  0  0  0  0  0  0
  161.6350  208.0670  151.3180 N   0  0  0  0  0  2  0  0  0  0  0  0
  161.9620  209.7110  155.9890 C   0  0  0  0  0  2  0  0  0  0  0  0
  160.7070  207.0460  155.9680 C   0  0  0  0  0  2  0  0  0  0  0  0
  161.1130  207.7410  157.2610 C   0  0  0  0  0  2  0  0  0  0  0  0
  161.0000  206.4310  153.0130 C   0  0  0  0  0  2  0  0  0  0  0  0
  161.1000  211.3010  151.8010 C   0  0  0  0  0  0  0  0  0  0  0  0
  162.3410  209.3410  151.3960 C   0  0  2  0  0  3  0  0  0  0  0  0
  160.1790  211.8340  152.6690 C   0  0  0  0  0  0  0  0  0  0  0  0
  160.3700  211.9750  149.4490 C   0  0  0  0  0  1  0  0  0  0  0  0
  161.1610  210.1480  153.6720 C   0  0  0  0  0  0  0  0  0  0  0  0
  1  6  1  6  0  0  0
  1 21  1  0  0  0  0
  3 17  2  0  0  0  0
  4 22  1  0  0  0  0
  5 24  1  0  0  0  0
  8  2  2  0  0  0  0
  8  7  2  0  0  0  0
  9 14  1  0  0  0  0
 10  8  1  0  0  0  0
 12 28  2  0  0  0  0
 13 26  1  0  0  0  0
 13  9  2  0  0  0  0
 14  8  1  0  0  0  0
 15 11  1  6  0  0  0
 15 23  1  0  0  0  0
 16  1  1  0  0  0  0
 16 20  1  1  0  0  0
 17  5  1  0  0  0  0
 18  9  1  0  0  0  0
 19 25  1  0  0  0  0
 19 15  1  0  0  0  0
 20  4  1  0  0  0  0
 21 22  1  0  0  0  0
 23  6  1  0  0  0  0
 24 12  1  0  0  0  0
 24 26  2  0  0  0  0
 25 17  1  6  0  0  0
 25 12  1  0  0  0  0
 26 10  1  0  0  0  0
 27  5  1  0  0  0  0
 28 10  1  0  0  0  0
 28 16  1  0  0  0  0
M  END
>  <MODEL>
4

>  <REMARK>
 VINA RESULT:      -3.2      2.611      4.064
  Name = 
  0 active torsions:
  status: ('A' for Active; 'I' for Inactive)
                            x       y       z     vdW  Elec       q    Type
                         _______ _______ _______ _____ _____    ______ ____

>  <TORSDO>
F 0

$$$$
=
 OpenBabel11122414123D

 28 32  0  0  1  0  0  0  0  0999 V2000
  161.1270  210.3980  155.3620 C   0  0  2  0  0  3  0  0  0  0  0  0
  162.8440  209.9400  153.0080 O   0  0  0  0  0  0  0  0  0  0  0  0
  156.4930  214.3930  153.2920 O   0  0  0  0  0  0  0  0  0  0  0  0
  160.3190  207.5680  155.3980 C   0  0  0  0  0  2  0  0  0  0  0  0
  157.9770  213.3500  151.7750 N   0  0  0  0  0  0  0  0  0  0  0  0
  160.9770  211.8520  155.8210 C   0  0  0  0  0  2  0  0  0  0  0  0
  161.6310  208.5940  151.3370 O   0  0  0  0  0  0  0  0  0  0  0  0
  161.9260  209.9860  151.8200 S   0  0  0  0  0  0  0  0  0  0  0  0
  161.7390  211.7430  149.6910 C   0  0  0  0  0  0  0  0  0  0  0  0
  160.4580  210.8070  152.2030 N   0  0  0  0  0  0  0  0  0  0  0  0
  157.4200  212.2670  157.2600 C   0  0  0  0  0  1  0  0  0  0  0  0
  158.6130  211.6060  153.1480 C   0  0  0  0  0  0  0  0  0  0  0  0
  160.5300  212.1470  150.1060 C   0  0  0  0  0  3  0  0  0  0  0  0
  162.7060  210.9300  150.5210 C   0  0  0  0  0  2  0  0  0  0  0  0
  158.4750  211.9960  156.2060 C   0  0  1  0  0  3  0  0  0  0  0  0
  159.9240  209.8960  154.5400 C   0  0  2  0  0  3  0  0  0  0  0  0
  157.2920  213.4560  153.0300 C   0  0  0  0  0  0  0  0  0  0  0  0
  162.2250  212.2520  148.3820 C   0  0  0  0  0  1  0  0  0  0  0  0
  158.3650  212.9810  155.1380 N   0  0  0  0  0  2  0  0  0  0  0  0
  160.0680  208.4210  154.1610 C   0  0  0  0  0  2  0  0  0  0  0  0
  161.4130  209.4840  156.5570 C   0  0  0  0  0  2  0  0  0  0  0  0
  161.5830  208.0390  156.1040 C   0  0  0  0  0  2  0  0  0  0  0  0
  159.8560  212.0710  156.8420 C   0  0  0  0  0  2  0  0  0  0  0  0
  158.7600  212.1880  151.9450 C   0  0  0  0  0  0  0  0  0  0  0  0
  157.6590  212.3670  154.0190 C   0  0  2  0  0  3  0  0  0  0  0  0
  159.9230  211.7280  151.3770 C   0  0  0  0  0  0  0  0  0  0  0  0
  158.2640  214.4520  150.8730 C   0  0  0  0  0  1  0  0  0  0  0  0
  159.6720  210.7290  153.3140 C   0  0  0  0  0  0  0  0  0  0  0  0
  1  6  1  1  0  0  0
  1 21  1  0  0  0  0
  4 22  1  0  0  0  0
  5 24  1  0  0  0  0
  5 17  1  0  0  0  0
  6 23  1  0  0  0  0
  7  8  2  0  0  0  0
  8 10  1  0  0  0  0
  8  2  2  0  0  0  0
  9 13  2  0  0  0  0
  9 14  1  0  0  0  0
 10 28  1  0  0  0  0
 12 28  2  0  0  0  0
 12 25  1  0  0  0  0
 13 26  1  0  0  0  0
 14  8  1  0  0  0  0
 15 23  1  0  0  0  0
 15 11  1  1  0  0  0
 16 20  1  6  0  0  0
 16  1  1  0  0  0  0
 17  3  2  0  0  0  0
 18  9  1  0  0  0  0
 19 15  1  0  0  0  0
 20  4  1  0  0  0  0
 22 21  1  0  0  0  0
 24 12  1  0  0  0  0
 25 17  1  6  0  0  0
 25 19  1  0  0  0  0
 26 24  2  0  0  0  0
 26 10  1  0  0  0  0
 27  5  1  0  0  0  0
 28 16  1  0  0  0  0
M  END
>  <MODEL>
5

>  <REMARK>
 VINA RESULT:      -3.1      3.695      6.539
  Name = 
  0 active torsions:
  status: ('A' for Active; 'I' for Inactive)
                            x       y       z     vdW  Elec       q    Type
                         _______ _______ _______ _____ _____    ______ ____

>  <TORSDO>
F 0

$$$$
=
 OpenBabel11122414123D

 28 32  0  0  1  0  0  0  0  0999 V2000
  162.2960  205.3520  146.8280 C   0  0  2  0  0  3  0  0  0  0  0  0
  162.9080  208.1560  147.5110 O   0  0  0  0  0  0  0  0  0  0  0  0
  160.4010  202.6600  152.3860 O   0  0  0  0  0  0  0  0  0  0  0  0
  160.0670  206.1960  145.1020 C   0  0  0  0  0  2  0  0  0  0  0  0
  160.6750  205.0010  152.1910 N   0  0  0  0  0  0  0  0  0  0  0  0
  163.0930  204.2810  147.5810 C   0  0  0  0  0  2  0  0  0  0  0  0
  160.8250  209.3590  148.0490 O   0  0  0  0  0  0  0  0  0  0  0  0
  161.9470  208.5270  148.6040 S   0  0  0  0  0  0  0  0  0  0  0  0
  162.3310  209.1820  151.2640 C   0  0  0  0  0  0  0  0  0  0  0  0
  161.3170  207.1210  149.3800 N   0  0  0  0  0  0  0  0  0  0  0  0
  160.7930  201.2160  148.0400 C   0  0  0  0  0  1  0  0  0  0  0  0
  160.4950  205.1210  149.8920 C   0  0  0  0  0  0  0  0  0  0  0  0
  161.6810  208.0750  151.6500 C   0  0  0  0  0  3  0  0  0  0  0  0
  162.8240  209.4450  149.8600 C   0  0  0  0  0  2  0  0  0  0  0  0
  161.2580  202.6480  148.2110 C   0  0  1  0  0  3  0  0  0  0  0  0
  160.8780  205.5590  147.3930 C   0  0  2  0  0  3  0  0  0  0  0  0
  160.4560  203.6880  151.6590 C   0  0  0  0  0  0  0  0  0  0  0  0
  162.7260  210.1530  152.3180 C   0  0  0  0  0  1  0  0  0  0  0  0
  161.4960  202.9220  149.6210 N   0  0  0  0  0  2  0  0  0  0  0  0
  160.0820  206.5780  146.5770 C   0  0  0  0  0  2  0  0  0  0  0  0
  162.2660  205.0450  145.3280 C   0  0  0  0  0  2  0  0  0  0  0  0
  161.4930  206.1180  144.5730 C   0  0  0  0  0  2  0  0  0  0  0  0
  162.5390  202.8620  147.4160 C   0  0  0  0  0  2  0  0  0  0  0  0
  160.6840  205.8080  151.0330 C   0  0  0  0  0  0  0  0  0  0  0  0
  160.3480  203.6520  150.1470 C   0  0  2  0  0  3  0  0  0  0  0  0
  161.2320  207.0280  150.7220 C   0  0  0  0  0  0  0  0  0  0  0  0
  161.3320  205.3050  153.4510 C   0  0  0  0  0  1  0  0  0  0  0  0
  160.8840  205.9430  148.8470 C   0  0  0  0  0  0  0  0  0  0  0  0
  1 21  1  6  0  0  0
  1 16  1  0  0  0  0
  1  6  1  0  0  0  0
  2  8  2  0  0  0  0
  4 20  1  0  0  0  0
  5 27  1  0  0  0  0
  7  8  2  0  0  0  0
  8 10  1  0  0  0  0
  8 14  1  0  0  0  0
  9 13  2  0  0  0  0
  9 18  1  0  0  0  0
 10 26  1  0  0  0  0
 12 25  1  0  0  0  0
 12 24  1  0  0  0  0
 14  9  1  0  0  0  0
 15 11  1  1  0  0  0
 15 19  1  0  0  0  0
 16 20  1  6  0  0  0
 16 28  1  0  0  0  0
 17  5  1  0  0  0  0
 17  3  2  0  0  0  0
 22  4  1  0  0  0  0
 22 21  1  0  0  0  0
 23  6  1  0  0  0  0
 23 15  1  0  0  0  0
 24  5  1  0  0  0  0
 25 19  1  6  0  0  0
 25 17  1  0  0  0  0
 26 24  2  0  0  0  0
 26 13  1  0  0  0  0
 28 10  1  0  0  0  0
 28 12  2  0  0  0  0
M  END
>  <MODEL>
6

>  <REMARK>
 VINA RESULT:      -1.9      2.668      5.707
  Name = 
  0 active torsions:
  status: ('A' for Active; 'I' for Inactive)
                            x       y       z     vdW  Elec       q    Type
                         _______ _______ _______ _____ _____    ______ ____

>  <TORSDO>
F 0

$$$$
