=
 OpenBabel11122413003D

 32 37  0  0  1  0  0  0  0  0999 V2000
  159.7350  211.0850  154.2410 C   0  0  0  0  0  0  0  0  0  0  0  0
  159.9600  213.4340  149.9860 C   0  0  0  0  0  3  0  0  0  0  0  0
  158.6240  214.0160  150.2210 C   0  0  0  0  0  3  0  0  0  0  0  0
  157.9240  211.6080  155.8620 C   0  0  0  0  0  0  0  0  0  0  0  0
  157.0780  212.7590  156.3300 C   0  0  2  0  0  3  0  0  0  0  0  0
  161.5680  209.5560  154.9360 C   0  0  2  0  0  3  0  0  0  0  0  0
  161.6780  210.6940  152.7070 C   0  0  0  0  0  2  0  0  0  0  0  0
  155.0640  213.7570  155.6470 N   0  0  0  0  0  0  0  0  0  0  0  0
  160.4310  212.4530  150.7650 C   0  0  0  0  0  3  0  0  0  0  0  0
  160.3640  211.2900  152.9600 N   0  0  0  0  0  0  0  0  0  0  0  0
  159.5760  211.8250  151.8400 C   0  0  1  0  0  3  0  0  0  0  0  0
  157.9800  212.6640  153.5500 C   0  0  0  0  0  0  0  0  0  0  0  0
  154.7640  213.2350  156.9140 N   0  0  0  0  0  2  0  0  0  0  0  0
  161.8440  209.3640  153.4410 C   0  0  2  0  0  3  0  0  0  0  0  0
  155.9190  212.3870  157.2590 C   0  0  0  0  0  2  0  0  0  0  0  0
  157.9290  213.7170  151.3190 C   0  0  0  0  0  3  0  0  0  0  0  0
  158.4820  212.7650  152.3070 C   0  0  0  0  0  0  0  0  0  0  0  0
  156.7590  213.4020  153.9440 C   0  0  0  0  0  3  0  0  0  0  0  0
  160.3140  210.2010  155.1610 O   0  0  0  0  0  0  0  0  0  0  0  0
  158.1260  210.6190  156.6170 O   0  0  0  0  0  0  0  0  0  0  0  0
  154.0760  214.4530  154.8400 C   0  0  0  0  0  1  0  0  0  0  0  0
  158.5890  211.7270  154.5390 C   0  0  0  0  0  0  0  0  0  0  0  0
  156.3570  213.4030  155.2190 C   0  0  0  0  0  0  0  0  0  0  0  0
  161.2580  208.0760  151.3940 C   0  0  0  0  0  2  0  0  0  0  0  0
  160.9190  208.3060  152.8540 C   0  0  1  0  0  3  0  0  0  0  0  0
  161.7360  207.0960  152.4440 C   0  0  1  0  0  3  0  0  0  0  0  0
  160.8390  205.8750  152.4450 C   0  0  0  0  0  2  0  0  0  0  0  0
  161.1740  204.9970  151.2890 C   0  0  0  0  0  0  0  0  0  0  0  0
  160.5670  205.2070  150.0590 O   0  0  0  0  0  0  0  0  0  0  0  0
  162.0360  204.0890  151.4190 O   0  0  0  0  0  1  0  0  0  0  0  0
  162.6900  210.1150  157.0890 C   0  0  0  0  0  1  0  0  0  0  0  0
  162.6950  210.3420  155.5890 C   0  0  0  0  0  2  0  0  0  0  0  0
  1 22  2  0  0  0  0
  1 19  1  0  0  0  0
  2  3  1  0  0  0  0
  2  9  2  0  0  0  0
  3 16  2  0  0  0  0
  4  5  1  0  0  0  0
  4 20  2  0  0  0  0
  5 15  1  1  0  0  0
  6 19  1  0  0  0  0
  6 32  1  6  0  0  0
  7 10  1  0  0  0  0
  8 13  1  0  0  0  0
 10  1  1  0  0  0  0
 11  9  1  6  0  0  0
 11 17  1  0  0  0  0
 11 10  1  0  0  0  0
 12 18  1  0  0  0  0
 12 22  1  0  0  0  0
 13 15  1  0  0  0  0
 14  7  1  6  0  0  0
 14  6  1  0  0  0  0
 16 17  1  0  0  0  0
 17 12  2  0  0  0  0
 18 23  2  0  0  0  0
 21  8  1  0  0  0  0
 22  4  1  0  0  0  0
 23  8  1  0  0  0  0
 23  5  1  0  0  0  0
 24 26  1  0  0  0  0
 25 24  1  6  0  0  0
 25 14  1  0  0  0  0
 26 27  1  6  0  0  0
 26 25  1  0  0  0  0
 28 30  1  0  0  0  0
 28 27  1  0  0  0  0
 29 28  2  0  0  0  0
 32 31  1  0  0  0  0
M  END
>  <MODEL>
1

>  <REMARK>
 VINA RESULT:      -5.3      0.000      0.000
  Name = 
  4 active torsions:
  status: ('A' for Active; 'I' for Inactive)
    1  A    between atoms: C_7  and  C_19
    2  A    between atoms: C_10  and  C_17
    3  A    between atoms: C_20  and  C_29
    4  A    between atoms: C_29  and  C_30
                            x       y       z     vdW  Elec       q    Type
                         _______ _______ _______ _____ _____    ______ ____

>  <TORSDO>
F 4

$$$$
=
 OpenBabel11122413003D

 32 37  0  0  1  0  0  0  0  0999 V2000
  161.5770  209.4520  149.6380 C   0  0  0  0  0  0  0  0  0  0  0  0
  161.4620  209.8360  154.4860 C   0  0  0  0  0  3  0  0  0  0  0  0
  161.1320  208.4020  154.6070 C   0  0  0  0  0  3  0  0  0  0  0  0
  161.5080  207.2120  148.5600 C   0  0  0  0  0  0  0  0  0  0  0  0
  161.9570  205.7970  148.7910 C   0  0  2  0  0  3  0  0  0  0  0  0
  161.9780  211.4570  148.2230 C   0  0  2  0  0  3  0  0  0  0  0  0
  161.8520  211.7000  150.7130 C   0  0  0  0  0  2  0  0  0  0  0  0
  161.0960  203.9180  149.9080 N   0  0  0  0  0  0  0  0  0  0  0  0
  161.4300  210.4540  153.3000 C   0  0  0  0  0  3  0  0  0  0  0  0
  161.5510  210.2700  150.8250 N   0  0  0  0  0  0  0  0  0  0  0  0
  160.9470  209.7440  152.0570 C   0  0  1  0  0  3  0  0  0  0  0  0
  161.2590  207.4820  151.0750 C   0  0  0  0  0  0  0  0  0  0  0  0
  161.1060  203.5280  148.5610 N   0  0  0  0  0  2  0  0  0  0  0  0
  161.3810  212.2700  149.3760 C   0  0  2  0  0  3  0  0  0  0  0  0
  161.3960  204.7630  147.8100 C   0  0  0  0  0  2  0  0  0  0  0  0
  160.9750  207.6420  153.5210 C   0  0  0  0  0  3  0  0  0  0  0  0
  161.1020  208.2400  152.1740 C   0  0  0  0  0  0  0  0  0  0  0  0
  161.1710  206.0060  151.1450 C   0  0  0  0  0  3  0  0  0  0  0  0
  161.7360  210.0580  148.3850 O   0  0  0  0  0  0  0  0  0  0  0  0
  161.2960  207.6300  147.3900 O   0  0  0  0  0  0  0  0  0  0  0  0
  160.6100  203.0470  150.9650 C   0  0  0  0  0  1  0  0  0  0  0  0
  161.4300  208.1170  149.7360 C   0  0  0  0  0  0  0  0  0  0  0  0
  161.4700  205.2640  150.0750 C   0  0  0  0  0  0  0  0  0  0  0  0
  159.3150  213.5210  149.9750 C   0  0  0  0  0  2  0  0  0  0  0  0
  159.8600  212.2780  149.2980 C   0  0  1  0  0  3  0  0  0  0  0  0
  159.4050  213.4610  148.4650 C   0  0  1  0  0  3  0  0  0  0  0  0
  158.0380  213.1560  147.8860 C   0  0  0  0  0  2  0  0  0  0  0  0
  158.1770  212.6790  146.4820 C   0  0  0  0  0  0  0  0  0  0  0  0
  159.4190  212.6940  145.8630 O   0  0  0  0  0  0  0  0  0  0  0  0
  157.1740  212.2280  145.8700 O   0  0  0  0  0  1  0  0  0  0  0  0
  163.7150  213.1980  147.8210 C   0  0  0  0  0  1  0  0  0  0  0  0
  163.4710  211.7270  148.0970 C   0  0  0  0  0  2  0  0  0  0  0  0
  1 22  2  0  0  0  0
  1 10  1  0  0  0  0
  2  3  1  0  0  0  0
  4  5  1  0  0  0  0
  4 22  1  0  0  0  0
  5 15  1  6  0  0  0
  5 23  1  0  0  0  0
  6 32  1  1  0  0  0
  6 19  1  0  0  0  0
  6 14  1  0  0  0  0
  7 10  1  0  0  0  0
  8 23  1  0  0  0  0
  8 21  1  0  0  0  0
  9  2  2  0  0  0  0
 10 11  1  0  0  0  0
 11 17  1  0  0  0  0
 11  9  1  1  0  0  0
 12 18  1  0  0  0  0
 12 17  2  0  0  0  0
 13  8  1  0  0  0  0
 14  7  1  1  0  0  0
 15 13  1  0  0  0  0
 16  3  2  0  0  0  0
 17 16  1  0  0  0  0
 19  1  1  0  0  0  0
 20  4  2  0  0  0  0
 22 12  1  0  0  0  0
 23 18  2  0  0  0  0
 25 14  1  0  0  0  0
 25 24  1  1  0  0  0
 26 27  1  6  0  0  0
 26 25  1  0  0  0  0
 26 24  1  0  0  0  0
 28 27  1  0  0  0  0
 29 28  2  0  0  0  0
 30 28  1  0  0  0  0
 31 32  1  0  0  0  0
M  END
>  <MODEL>
2

>  <REMARK>
 VINA RESULT:      -5.2      4.411      8.557
  Name = 
  4 active torsions:
  status: ('A' for Active; 'I' for Inactive)
    1  A    between atoms: C_7  and  C_19
    2  A    between atoms: C_10  and  C_17
    3  A    between atoms: C_20  and  C_29
    4  A    between atoms: C_29  and  C_30
                            x       y       z     vdW  Elec       q    Type
                         _______ _______ _______ _____ _____    ______ ____

>  <TORSDO>
F 4

$$$$
=
 OpenBabel11122413003D

 32 37  0  0  1  0  0  0  0  0999 V2000
  161.0140  211.8820  149.9980 C   0  0  0  0  0  0  0  0  0  0  0  0
  158.7570  214.1280  153.6760 C   0  0  0  0  0  3  0  0  0  0  0  0
  158.6920  212.8600  154.4300 C   0  0  0  0  0  3  0  0  0  0  0  0
  161.8500  209.5570  150.2770 C   0  0  0  0  0  0  0  0  0  0  0  0
  162.4210  208.6450  151.3260 C   0  0  2  0  0  3  0  0  0  0  0  0
  161.5860  213.1260  147.9220 C   0  0  2  0  0  3  0  0  0  0  0  0
  160.3590  214.2910  149.7690 C   0  0  0  0  0  2  0  0  0  0  0  0
  161.5470  207.2110  152.9690 N   0  0  0  0  0  0  0  0  0  0  0  0
  159.1180  214.1470  152.3890 C   0  0  0  0  0  3  0  0  0  0  0  0
  160.3230  213.0350  150.5210 N   0  0  0  0  0  0  0  0  0  0  0  0
  159.3640  212.8680  151.6220 C   0  0  1  0  0  3  0  0  0  0  0  0
  160.4980  210.7090  152.0960 C   0  0  0  0  0  0  0  0  0  0  0  0
  162.2090  206.3430  152.0880 N   0  0  0  0  0  2  0  0  0  0  0  0
  160.4060  214.0430  148.2610 C   0  0  2  0  0  3  0  0  0  0  0  0
  162.5470  207.1740  150.9180 C   0  0  0  0  0  2  0  0  0  0  0  0
  159.1680  211.7270  153.9080 C   0  0  0  0  0  3  0  0  0  0  0  0
  159.7420  211.7260  152.5440 C   0  0  0  0  0  0  0  0  0  0  0  0
  160.6770  209.4770  152.8980 C   0  0  0  0  0  3  0  0  0  0  0  0
  161.5740  211.9370  148.7140 O   0  0  0  0  0  0  0  0  0  0  0  0
  162.0840  209.3480  149.0560 O   0  0  0  0  0  0  0  0  0  0  0  0
  160.8330  206.7320  154.1400 C   0  0  0  0  0  1  0  0  0  0  0  0
  161.1000  210.7570  150.7320 C   0  0  0  0  0  0  0  0  0  0  0  0
  161.5430  208.5400  152.5040 C   0  0  0  0  0  0  0  0  0  0  0  0
  157.9370  214.3330  148.1700 C   0  0  0  0  0  2  0  0  0  0  0  0
  159.0960  213.4400  147.7730 C   0  0  1  0  0  3  0  0  0  0  0  0
  158.4660  214.3680  146.7520 C   0  0  1  0  0  3  0  0  0  0  0  0
  157.5560  213.5580  145.8500 C   0  0  0  0  0  2  0  0  0  0  0  0
  158.0870  213.5620  144.4580 C   0  0  0  0  0  0  0  0  0  0  0  0
  158.9530  212.5600  144.0430 O   0  0  0  0  0  1  0  0  0  0  0  0
  157.7190  214.4520  143.6480 O   0  0  0  0  0  0  0  0  0  0  0  0
  164.0570  212.8810  148.1280 C   0  0  0  0  0  1  0  0  0  0  0  0
  162.9040  213.8660  148.0940 C   0  0  0  0  0  2  0  0  0  0  0  0
  1 10  1  0  0  0  0
  1 22  2  0  0  0  0
  2  3  1  0  0  0  0
  4 22  1  0  0  0  0
  4  5  1  0  0  0  0
  5 15  1  6  0  0  0
  5 23  1  0  0  0  0
  6 32  1  1  0  0  0
  6 14  1  0  0  0  0
  6 19  1  0  0  0  0
  7 10  1  0  0  0  0
  8 21  1  0  0  0  0
  9  2  2  0  0  0  0
 10 11  1  0  0  0  0
 11  9  1  1  0  0  0
 11 17  1  0  0  0  0
 12 17  2  0  0  0  0
 12 18  1  0  0  0  0
 13  8  1  0  0  0  0
 14  7  1  1  0  0  0
 15 13  1  0  0  0  0
 16  3  2  0  0  0  0
 17 16  1  0  0  0  0
 19  1  1  0  0  0  0
 20  4  2  0  0  0  0
 22 12  1  0  0  0  0
 23 18  2  0  0  0  0
 23  8  1  0  0  0  0
 25 24  1  1  0  0  0
 25 14  1  0  0  0  0
 26 27  1  6  0  0  0
 26 25  1  0  0  0  0
 26 24  1  0  0  0  0
 28 27  1  0  0  0  0
 29 28  1  0  0  0  0
 30 28  2  0  0  0  0
 32 31  1  0  0  0  0
M  END
>  <MODEL>
3

>  <REMARK>
 VINA RESULT:      -5.0      3.952      7.740
  Name = 
  4 active torsions:
  status: ('A' for Active; 'I' for Inactive)
    1  A    between atoms: C_7  and  C_19
    2  A    between atoms: C_10  and  C_17
    3  A    between atoms: C_20  and  C_29
    4  A    between atoms: C_29  and  C_30
                            x       y       z     vdW  Elec       q    Type
                         _______ _______ _______ _____ _____    ______ ____

>  <TORSDO>
F 4

$$$$
=
 OpenBabel11122413003D

 32 37  0  0  1  0  0  0  0  0999 V2000
  160.9800  212.6870  140.4160 C   0  0  0  0  0  0  0  0  0  0  0  0
  156.6000  214.2310  138.9700 C   0  0  0  0  0  3  0  0  0  0  0  0
  156.1980  214.4530  140.3730 C   0  0  0  0  0  3  0  0  0  0  0  0
  161.6820  212.9610  142.7850 C   0  0  0  0  0  0  0  0  0  0  0  0
  161.5080  213.8970  143.9490 C   0  0  2  0  0  3  0  0  0  0  0  0
  162.6410  211.8690  138.7550 C   0  0  2  0  0  3  0  0  0  0  0  0
  160.3670  212.5890  137.9870 C   0  0  0  0  0  2  0  0  0  0  0  0
  159.9380  214.1640  145.6750 N   0  0  0  0  0  0  0  0  0  0  0  0
  157.7220  213.5700  138.6700 C   0  0  0  0  0  3  0  0  0  0  0  0
  159.9870  212.8320  139.3810 N   0  0  0  0  0  0  0  0  0  0  0  0
  158.5660  212.9260  139.7450 C   0  0  1  0  0  3  0  0  0  0  0  0
  159.3380  213.5740  142.0170 C   0  0  0  0  0  0  0  0  0  0  0  0
  161.1160  213.8070  146.3490 N   0  0  0  0  0  2  0  0  0  0  0  0
  161.4390  211.5040  137.8780 C   0  0  2  0  0  3  0  0  0  0  0  0
  162.0480  213.3850  145.2880 C   0  0  0  0  0  2  0  0  0  0  0  0
  157.0300  214.1680  141.3770 C   0  0  0  0  0  3  0  0  0  0  0  0
  158.3630  213.5930  141.0910 C   0  0  0  0  0  0  0  0  0  0  0  0
  159.0790  214.0020  143.4100 C   0  0  0  0  0  3  0  0  0  0  0  0
  162.2420  212.1710  140.0940 O   0  0  0  0  0  0  0  0  0  0  0  0
  162.6940  212.2130  142.7160 O   0  0  0  0  0  0  0  0  0  0  0  0
  158.6880  214.4090  146.3740 C   0  0  0  0  0  1  0  0  0  0  0  0
  160.6860  213.0280  141.6850 C   0  0  0  0  0  0  0  0  0  0  0  0
  160.0890  214.1130  144.2770 C   0  0  0  0  0  0  0  0  0  0  0  0
  161.1390  209.1360  137.1740 C   0  0  0  0  0  2  0  0  0  0  0  0
  160.8740  210.1470  138.2740 C   0  0  1  0  0  3  0  0  0  0  0  0
  162.0100  209.1510  138.4130 C   0  0  1  0  0  3  0  0  0  0  0  0
  161.5770  208.0430  139.3510 C   0  0  0  0  0  2  0  0  0  0  0  0
  162.3330  206.7960  139.0460 C   0  0  0  0  0  0  0  0  0  0  0  0
  162.3390  206.2860  137.7550 O   0  0  0  0  0  0  0  0  0  0  0  0
  162.9960  206.2260  139.9510 O   0  0  0  0  0  1  0  0  0  0  0  0
  164.0530  213.8610  139.2500 C   0  0  0  0  0  1  0  0  0  0  0  0
  163.4070  213.0370  138.1520 C   0  0  0  0  0  2  0  0  0  0  0  0
  1 22  2  0  0  0  0
  2  3  1  0  0  0  0
  3 16  2  0  0  0  0
  4  5  1  0  0  0  0
  5 23  1  0  0  0  0
  5 15  1  1  0  0  0
  6 32  1  6  0  0  0
  6 19  1  0  0  0  0
  7 10  1  0  0  0  0
  8 13  1  0  0  0  0
  8 21  1  0  0  0  0
  9  2  2  0  0  0  0
 10 11  1  0  0  0  0
 10  1  1  0  0  0  0
 11  9  1  6  0  0  0
 11 17  1  0  0  0  0
 12 18  1  0  0  0  0
 14  7  1  1  0  0  0
 14 25  1  0  0  0  0
 14  6  1  0  0  0  0
 15 13  1  0  0  0  0
 17 16  1  0  0  0  0
 17 12  2  0  0  0  0
 18 23  2  0  0  0  0
 19  1  1  0  0  0  0
 20  4  2  0  0  0  0
 22 12  1  0  0  0  0
 22  4  1  0  0  0  0
 23  8  1  0  0  0  0
 24 26  1  0  0  0  0
 25 24  1  6  0  0  0
 25 26  1  0  0  0  0
 26 27  1  1  0  0  0
 28 27  1  0  0  0  0
 28 30  1  0  0  0  0
 29 28  2  0  0  0  0
 32 31  1  0  0  0  0
M  END
>  <MODEL>
4

>  <REMARK>
 VINA RESULT:      -4.3     10.314     13.342
  Name = 
  4 active torsions:
  status: ('A' for Active; 'I' for Inactive)
    1  A    between atoms: C_7  and  C_19
    2  A    between atoms: C_10  and  C_17
    3  A    between atoms: C_20  and  C_29
    4  A    between atoms: C_29  and  C_30
                            x       y       z     vdW  Elec       q    Type
                         _______ _______ _______ _____ _____    ______ ____

>  <TORSDO>
F 4

$$$$
=
 OpenBabel11122413003D

 32 37  0  0  1  0  0  0  0  0999 V2000
  159.9950  211.0300  153.3840 C   0  0  0  0  0  0  0  0  0  0  0  0
  160.4910  213.7560  149.3850 C   0  0  0  0  0  3  0  0  0  0  0  0
  159.1550  214.3440  149.6020 C   0  0  0  0  0  3  0  0  0  0  0  0
  158.1080  211.4410  154.9500 C   0  0  0  0  0  0  0  0  0  0  0  0
  157.2590  212.5630  155.4780 C   0  0  2  0  0  3  0  0  0  0  0  0
  161.7620  209.4030  154.0280 C   0  0  2  0  0  3  0  0  0  0  0  0
  162.0120  210.7400  151.9240 C   0  0  0  0  0  2  0  0  0  0  0  0
  155.3020  213.6640  154.7870 N   0  0  0  0  0  0  0  0  0  0  0  0
  160.9020  212.6980  150.0920 C   0  0  0  0  0  3  0  0  0  0  0  0
  160.6970  211.3380  152.1620 N   0  0  0  0  0  0  0  0  0  0  0  0
  159.9800  211.9910  151.0580 C   0  0  1  0  0  3  0  0  0  0  0  0
  158.3080  212.7040  152.7530 C   0  0  0  0  0  0  0  0  0  0  0  0
  154.9240  213.0330  155.9820 N   0  0  0  0  0  2  0  0  0  0  0  0
  162.1150  209.3440  152.5380 C   0  0  2  0  0  3  0  0  0  0  0  0
  156.0450  212.1310  156.3060 C   0  0  0  0  0  2  0  0  0  0  0  0
  158.3960  213.9590  150.6300 C   0  0  0  0  0  3  0  0  0  0  0  0
  158.8780  212.9080  151.5530 C   0  0  0  0  0  0  0  0  0  0  0  0
  157.0800  213.4300  153.1500 C   0  0  0  0  0  3  0  0  0  0  0  0
  160.5080  210.0520  154.2460 O   0  0  0  0  0  0  0  0  0  0  0  0
  158.2520  210.3820  155.6190 O   0  0  0  0  0  0  0  0  0  0  0  0
  154.3710  214.4530  153.9980 C   0  0  0  0  0  1  0  0  0  0  0  0
  158.8460  211.6670  153.6800 C   0  0  0  0  0  0  0  0  0  0  0  0
  156.6100  213.3220  154.3960 C   0  0  0  0  0  0  0  0  0  0  0  0
  161.4600  208.4390  150.3140 C   0  0  0  0  0  2  0  0  0  0  0  0
  161.2050  208.3650  151.8070 C   0  0  1  0  0  3  0  0  0  0  0  0
  162.0510  207.3060  151.1260 C   0  0  1  0  0  3  0  0  0  0  0  0
  161.2130  206.0570  150.9390 C   0  0  0  0  0  2  0  0  0  0  0  0
  161.0470  205.7710  149.4870 C   0  0  0  0  0  0  0  0  0  0  0  0
  159.9090  206.2020  148.8200 O   0  0  0  0  0  0  0  0  0  0  0  0
  161.9560  205.1700  148.8560 O   0  0  0  0  0  1  0  0  0  0  0  0
  162.3090  210.6750  156.0990 C   0  0  0  0  0  1  0  0  0  0  0  0
  162.8650  210.1010  154.8100 C   0  0  0  0  0  2  0  0  0  0  0  0
  1 22  2  0  0  0  0
  1 19  1  0  0  0  0
  2  3  1  0  0  0  0
  2  9  2  0  0  0  0
  3 16  2  0  0  0  0
  4  5  1  0  0  0  0
  4 20  2  0  0  0  0
  5 15  1  1  0  0  0
  6 19  1  0  0  0  0
  6 32  1  1  0  0  0
  7 10  1  0  0  0  0
  8 13  1  0  0  0  0
 10  1  1  0  0  0  0
 11  9  1  1  0  0  0
 11 17  1  0  0  0  0
 11 10  1  0  0  0  0
 12 18  1  0  0  0  0
 12 22  1  0  0  0  0
 13 15  1  0  0  0  0
 14  7  1  6  0  0  0
 14  6  1  0  0  0  0
 16 17  1  0  0  0  0
 17 12  2  0  0  0  0
 18 23  2  0  0  0  0
 21  8  1  0  0  0  0
 22  4  1  0  0  0  0
 23  8  1  0  0  0  0
 23  5  1  0  0  0  0
 24 26  1  0  0  0  0
 25 24  1  6  0  0  0
 25 14  1  0  0  0  0
 26 27  1  6  0  0  0
 26 25  1  0  0  0  0
 28 27  1  0  0  0  0
 29 28  2  0  0  0  0
 30 28  1  0  0  0  0
 32 31  1  0  0  0  0
M  END
>  <MODEL>
5

>  <REMARK>
 VINA RESULT:      -4.1      1.056      1.151
  Name = 
  4 active torsions:
  status: ('A' for Active; 'I' for Inactive)
    1  A    between atoms: C_7  and  C_19
    2  A    between atoms: C_10  and  C_17
    3  A    between atoms: C_20  and  C_29
    4  A    between atoms: C_29  and  C_30
                            x       y       z     vdW  Elec       q    Type
                         _______ _______ _______ _____ _____    ______ ____

>  <TORSDO>
F 4

$$$$
=
 OpenBabel11122413003D

 32 37  0  0  1  0  0  0  0  0999 V2000
  161.4670  209.0620  150.3170 C   0  0  0  0  0  0  0  0  0  0  0  0
  161.4030  208.4680  155.1450 C   0  0  0  0  0  3  0  0  0  0  0  0
  161.1170  207.0290  154.9790 C   0  0  0  0  0  3  0  0  0  0  0  0
  161.4510  207.0820  148.8140 C   0  0  0  0  0  0  0  0  0  0  0  0
  161.9450  205.6630  148.7550 C   0  0  2  0  0  3  0  0  0  0  0  0
  161.7890  211.3210  149.3290 C   0  0  2  0  0  3  0  0  0  0  0  0
  161.6880  211.0580  151.8180 C   0  0  0  0  0  2  0  0  0  0  0  0
  161.1560  203.5730  149.4800 N   0  0  0  0  0  0  0  0  0  0  0  0
  161.3370  209.3080  154.1070 C   0  0  0  0  0  3  0  0  0  0  0  0
  161.4320  209.6260  151.6440 N   0  0  0  0  0  0  0  0  0  0  0  0
  160.8600  208.8460  152.7500 C   0  0  1  0  0  3  0  0  0  0  0  0
  161.2260  206.8370  151.3350 C   0  0  0  0  0  0  0  0  0  0  0  0
  161.1600  203.4600  148.0820 N   0  0  0  0  0  2  0  0  0  0  0  0
  161.1830  211.8690  150.6240 C   0  0  2  0  0  3  0  0  0  0  0  0
  161.4030  204.8280  147.5910 C   0  0  0  0  0  2  0  0  0  0  0  0
  160.9700  206.4960  153.7650 C   0  0  0  0  0  3  0  0  0  0  0  0
  161.0620  207.3550  152.5640 C   0  0  0  0  0  0  0  0  0  0  0  0
  161.1840  205.3740  151.1090 C   0  0  0  0  0  3  0  0  0  0  0  0
  161.5910  209.9110  149.2090 O   0  0  0  0  0  0  0  0  0  0  0  0
  161.2120  207.7170  147.7520 O   0  0  0  0  0  0  0  0  0  0  0  0
  160.7100  202.4940  150.3450 C   0  0  0  0  0  1  0  0  0  0  0  0
  161.3610  207.7310  150.1480 C   0  0  0  0  0  0  0  0  0  0  0  0
  161.4910  204.8710  149.9100 C   0  0  0  0  0  0  0  0  0  0  0  0
  159.0830  212.0320  151.9490 C   0  0  0  0  0  2  0  0  0  0  0  0
  159.6610  211.8430  150.5610 C   0  0  1  0  0  3  0  0  0  0  0  0
  159.1180  213.1950  150.9810 C   0  0  1  0  0  3  0  0  0  0  0  0
  157.7460  213.3850  150.3660 C   0  0  0  0  0  2  0  0  0  0  0  0
  156.8540  214.0940  151.3240 C   0  0  0  0  0  0  0  0  0  0  0  0
  157.3260  214.4490  152.5800 O   0  0  0  0  0  1  0  0  0  0  0  0
  155.6830  214.4050  150.9810 O   0  0  0  0  0  0  0  0  0  0  0  0
  163.6060  212.2250  147.8830 C   0  0  0  0  0  1  0  0  0  0  0  0
  163.2710  211.6580  149.2490 C   0  0  0  0  0  2  0  0  0  0  0  0
  1 10  1  0  0  0  0
  3  2  1  0  0  0  0
  4 22  1  0  0  0  0
  5 15  1  6  0  0  0
  5  4  1  0  0  0  0
  5 23  1  0  0  0  0
  6 32  1  1  0  0  0
  6 14  1  0  0  0  0
  8 23  1  0  0  0  0
  8 21  1  0  0  0  0
  9  2  2  0  0  0  0
 10  7  1  0  0  0  0
 10 11  1  0  0  0  0
 11  9  1  1  0  0  0
 12 17  2  0  0  0  0
 13  8  1  0  0  0  0
 14  7  1  1  0  0  0
 15 13  1  0  0  0  0
 16  3  2  0  0  0  0
 17 11  1  0  0  0  0
 17 16  1  0  0  0  0
 18 12  1  0  0  0  0
 19  6  1  0  0  0  0
 19  1  1  0  0  0  0
 20  4  2  0  0  0  0
 22  1  2  0  0  0  0
 22 12  1  0  0  0  0
 23 18  2  0  0  0  0
 25 14  1  0  0  0  0
 25 26  1  0  0  0  0
 25 24  1  1  0  0  0
 26 27  1  6  0  0  0
 26 24  1  0  0  0  0
 27 28  1  0  0  0  0
 28 29  1  0  0  0  0
 30 28  2  0  0  0  0
 31 32  1  0  0  0  0
M  END
>  <MODEL>
6

>  <REMARK>
 VINA RESULT:      -4.1      3.687      8.707
  Name = 
  4 active torsions:
  status: ('A' for Active; 'I' for Inactive)
    1  A    between atoms: C_7  and  C_19
    2  A    between atoms: C_10  and  C_17
    3  A    between atoms: C_20  and  C_29
    4  A    between atoms: C_29  and  C_30
                            x       y       z     vdW  Elec       q    Type
                         _______ _______ _______ _____ _____    ______ ____

>  <TORSDO>
F 4

$$$$
=
 OpenBabel11122413003D

 32 37  0  0  1  0  0  0  0  0999 V2000
  159.9580  210.1100  154.3930 C   0  0  0  0  0  0  0  0  0  0  0  0
  161.6150  211.8610  150.1670 C   0  0  0  0  0  3  0  0  0  0  0  0
  160.4020  212.6900  150.0190 C   0  0  0  0  0  3  0  0  0  0  0  0
  157.9610  211.1270  155.4700 C   0  0  0  0  0  0  0  0  0  0  0  0
  157.2750  212.4540  155.6270 C   0  0  2  0  0  3  0  0  0  0  0  0
  161.2440  208.3790  155.6320 C   0  0  2  0  0  3  0  0  0  0  0  0
  162.0870  209.2080  153.4230 C   0  0  0  0  0  2  0  0  0  0  0  0
  155.7090  213.6980  154.3930 N   0  0  0  0  0  0  0  0  0  0  0  0
  161.6910  210.9130  151.1080 C   0  0  0  0  0  3  0  0  0  0  0  0
  160.8930  210.0480  153.2970 N   0  0  0  0  0  0  0  0  0  0  0  0
  160.5050  210.5750  151.9810 C   0  0  1  0  0  3  0  0  0  0  0  0
  158.7560  211.8740  153.1740 C   0  0  0  0  0  0  0  0  0  0  0  0
  155.0280  213.3900  155.5810 N   0  0  0  0  0  2  0  0  0  0  0  0
  161.8130  207.9660  154.2710 C   0  0  2  0  0  3  0  0  0  0  0  0
  155.8820  212.4010  156.2640 C   0  0  0  0  0  2  0  0  0  0  0  0
  159.4270  212.6480  150.9290 C   0  0  0  0  0  3  0  0  0  0  0  0
  159.5400  211.7380  152.0910 C   0  0  0  0  0  0  0  0  0  0  0  0
  157.6460  212.8550  153.1970 C   0  0  0  0  0  3  0  0  0  0  0  0
  160.1240  209.2540  155.4900 O   0  0  0  0  0  0  0  0  0  0  0  0
  157.7860  210.2150  156.3220 O   0  0  0  0  0  0  0  0  0  0  0  0
  155.0900  214.4530  153.3180 C   0  0  0  0  0  1  0  0  0  0  0  0
  158.9240  210.9700  154.3480 C   0  0  0  0  0  0  0  0  0  0  0  0
  156.9700  213.0770  154.3270 C   0  0  0  0  0  0  0  0  0  0  0  0
  161.2230  206.9410  152.0820 C   0  0  0  0  0  2  0  0  0  0  0  0
  160.8590  207.0220  153.5520 C   0  0  1  0  0  3  0  0  0  0  0  0
  161.6340  205.8300  153.0250 C   0  0  1  0  0  3  0  0  0  0  0  0
  160.6860  204.6570  152.8730 C   0  0  0  0  0  2  0  0  0  0  0  0
  161.0380  203.8740  151.6560 C   0  0  0  0  0  0  0  0  0  0  0  0
  160.4450  204.1790  150.4380 O   0  0  0  0  0  0  0  0  0  0  0  0
  161.9020  202.9610  151.7240 O   0  0  0  0  0  1  0  0  0  0  0  0
  161.8400  210.3730  157.0030 C   0  0  0  0  0  1  0  0  0  0  0  0
  162.3220  209.0310  156.4850 C   0  0  0  0  0  2  0  0  0  0  0  0
  1 19  1  0  0  0  0
  2  9  2  0  0  0  0
  3  2  1  0  0  0  0
  3 16  2  0  0  0  0
  4  5  1  0  0  0  0
  4 20  2  0  0  0  0
  5 15  1  6  0  0  0
  6 32  1  1  0  0  0
  8 13  1  0  0  0  0
 10  7  1  0  0  0  0
 10  1  1  0  0  0  0
 11  9  1  1  0  0  0
 11 17  1  0  0  0  0
 11 10  1  0  0  0  0
 12 18  1  0  0  0  0
 12 22  1  0  0  0  0
 13 15  1  0  0  0  0
 14  7  1  6  0  0  0
 14  6  1  0  0  0  0
 16 17  1  0  0  0  0
 17 12  2  0  0  0  0
 18 23  2  0  0  0  0
 19  6  1  0  0  0  0
 21  8  1  0  0  0  0
 22  1  2  0  0  0  0
 22  4  1  0  0  0  0
 23  8  1  0  0  0  0
 23  5  1  0  0  0  0
 24 26  1  0  0  0  0
 25 24  1  6  0  0  0
 25 14  1  0  0  0  0
 26 27  1  6  0  0  0
 26 25  1  0  0  0  0
 28 30  1  0  0  0  0
 28 27  1  0  0  0  0
 29 28  2  0  0  0  0
 32 31  1  0  0  0  0
M  END
>  <MODEL>
7

>  <REMARK>
 VINA RESULT:      -4.0      1.121      1.410
  Name = 
  4 active torsions:
  status: ('A' for Active; 'I' for Inactive)
    1  A    between atoms: C_7  and  C_19
    2  A    between atoms: C_10  and  C_17
    3  A    between atoms: C_20  and  C_29
    4  A    between atoms: C_29  and  C_30
                            x       y       z     vdW  Elec       q    Type
                         _______ _______ _______ _____ _____    ______ ____

>  <TORSDO>
F 4

$$$$
=
 OpenBabel11122413003D

 32 37  0  0  1  0  0  0  0  0999 V2000
  160.8910  209.0250  151.7140 C   0  0  0  0  0  0  0  0  0  0  0  0
  161.5750  208.5290  156.5050 C   0  0  0  0  0  3  0  0  0  0  0  0
  161.4600  207.0620  156.3840 C   0  0  0  0  0  3  0  0  0  0  0  0
  160.9250  207.0280  150.2330 C   0  0  0  0  0  0  0  0  0  0  0  0
  161.5870  205.6840  150.1090 C   0  0  2  0  0  3  0  0  0  0  0  0
  160.7750  211.2850  150.6840 C   0  0  2  0  0  3  0  0  0  0  0  0
  161.0550  211.0630  153.1640 C   0  0  0  0  0  2  0  0  0  0  0  0
  161.1870  203.5250  150.9440 N   0  0  0  0  0  0  0  0  0  0  0  0
  161.2560  209.3310  155.4840 C   0  0  0  0  0  3  0  0  0  0  0  0
  160.9670  209.6070  153.0310 N   0  0  0  0  0  0  0  0  0  0  0  0
  160.6600  208.7820  154.2090 C   0  0  1  0  0  3  0  0  0  0  0  0
  161.0860  206.8080  152.7610 C   0  0  0  0  0  0  0  0  0  0  0  0
  161.0110  203.3840  149.5590 N   0  0  0  0  0  2  0  0  0  0  0  0
  160.2870  211.7770  152.0510 C   0  0  2  0  0  3  0  0  0  0  0  0
  161.0020  204.7620  149.0350 C   0  0  0  0  0  2  0  0  0  0  0  0
  161.2170  206.4880  155.2040 C   0  0  0  0  0  3  0  0  0  0  0  0
  161.0280  207.3270  154.0000 C   0  0  0  0  0  0  0  0  0  0  0  0
  161.2040  205.3480  152.5470 C   0  0  0  0  0  3  0  0  0  0  0  0
  160.7470  209.8590  150.5980 O   0  0  0  0  0  0  0  0  0  0  0  0
  160.4600  207.6050  149.2140 O   0  0  0  0  0  0  0  0  0  0  0  0
  161.0100  202.4150  151.8650 C   0  0  0  0  0  1  0  0  0  0  0  0
  160.9370  207.6870  151.5650 C   0  0  0  0  0  0  0  0  0  0  0  0
  161.4050  204.8640  151.3190 C   0  0  0  0  0  0  0  0  0  0  0  0
  158.4240  211.4650  153.6700 C   0  0  0  0  0  2  0  0  0  0  0  0
  158.7890  211.5540  152.2010 C   0  0  1  0  0  3  0  0  0  0  0  0
  158.1710  212.7460  152.9060 C   0  0  1  0  0  3  0  0  0  0  0  0
  156.7060  212.8330  152.5300 C   0  0  0  0  0  2  0  0  0  0  0  0
  156.0600  213.9600  153.2590 C   0  0  0  0  0  0  0  0  0  0  0  0
  154.8270  214.4410  152.8420 O   0  0  0  0  0  0  0  0  0  0  0  0
  156.6160  214.4510  154.2760 O   0  0  0  0  0  1  0  0  0  0  0  0
  162.6760  211.2600  149.0750 C   0  0  0  0  0  1  0  0  0  0  0  0
  162.1740  211.8090  150.3970 C   0  0  0  0  0  2  0  0  0  0  0  0
  1 10  1  0  0  0  0
  3  2  1  0  0  0  0
  4 22  1  0  0  0  0
  5 15  1  6  0  0  0
  5  4  1  0  0  0  0
  5 23  1  0  0  0  0
  6 32  1  1  0  0  0
  6 14  1  0  0  0  0
  8 23  1  0  0  0  0
  8 21  1  0  0  0  0
  9  2  2  0  0  0  0
 10  7  1  0  0  0  0
 10 11  1  0  0  0  0
 11  9  1  1  0  0  0
 12 17  2  0  0  0  0
 13  8  1  0  0  0  0
 14 25  1  0  0  0  0
 14  7  1  1  0  0  0
 15 13  1  0  0  0  0
 16  3  2  0  0  0  0
 17 11  1  0  0  0  0
 17 16  1  0  0  0  0
 18 12  1  0  0  0  0
 19  6  1  0  0  0  0
 19  1  1  0  0  0  0
 20  4  2  0  0  0  0
 22  1  2  0  0  0  0
 22 12  1  0  0  0  0
 23 18  2  0  0  0  0
 25 26  1  0  0  0  0
 25 24  1  1  0  0  0
 26 27  1  6  0  0  0
 26 24  1  0  0  0  0
 27 28  1  0  0  0  0
 28 30  1  0  0  0  0
 29 28  2  0  0  0  0
 31 32  1  0  0  0  0
M  END
>  <MODEL>
8

>  <REMARK>
 VINA RESULT:      -2.8      3.051      8.382
  Name = 
  4 active torsions:
  status: ('A' for Active; 'I' for Inactive)
    1  A    between atoms: C_7  and  C_19
    2  A    between atoms: C_10  and  C_17
    3  A    between atoms: C_20  and  C_29
    4  A    between atoms: C_29  and  C_30
                            x       y       z     vdW  Elec       q    Type
                         _______ _______ _______ _____ _____    ______ ____

>  <TORSDO>
F 4

$$$$
