=
 OpenBabel11122414073D

 28 32  0  0  1  0  0  0  0  0999 V2000
  161.0030  208.9700  156.1180 C   0  0  0  0  0  0  0  0  0  0  0  0
  157.0960  211.0610  154.1470 O   0  0  0  0  0  0  0  0  0  0  0  0
  161.1400  207.9570  150.4400 C   0  0  0  0  0  1  0  0  0  0  0  0
  163.0080  210.8700  156.5730 C   0  0  0  0  0  3  0  0  0  0  0  0
  161.4810  210.3460  151.0980 C   0  0  1  0  0  3  0  0  0  0  0  0
  160.0150  208.0130  155.8680 O   0  0  0  0  0  0  0  0  0  0  0  0
  157.7310  212.9560  155.5630 O   0  0  0  0  0  0  0  0  0  0  0  0
  157.9250  212.3130  154.2190 S   0  0  0  0  0  0  0  0  0  0  0  0
  158.7320  213.5020  151.6810 C   0  0  2  0  0  3  0  0  0  0  0  0
  159.6640  211.9000  154.0400 C   0  0  2  0  0  3  0  0  0  0  0  0
  161.8800  205.9100  153.9060 O   0  0  0  0  0  0  0  0  0  0  0  0
  160.3180  209.8560  153.0090 C   0  0  1  0  0  3  0  0  0  0  0  0
  159.1910  212.1840  151.6550 O   0  0  0  0  0  0  0  0  0  0  0  0
  157.2490  213.6380  152.7290 S   0  0  0  0  0  0  0  0  0  0  0  0
  160.9320  206.6400  154.1390 C   0  0  0  0  0  0  0  0  0  0  0  0
  160.9730  210.1940  155.4290 C   0  0  0  0  0  0  0  0  0  0  0  0
  161.7270  208.8800  151.5100 C   0  0  1  0  0  3  0  0  0  0  0  0
  158.3990  213.9510  150.2740 C   0  0  0  0  0  1  0  0  0  0  0  0
  160.3590  207.4910  153.0480 C   0  0  0  0  0  2  0  0  0  0  0  0
  161.9900  211.1350  155.6550 C   0  0  0  0  0  3  0  0  0  0  0  0
  162.0340  208.7030  157.0300 C   0  0  0  0  0  3  0  0  0  0  0  0
  163.0310  209.6550  157.2610 C   0  0  0  0  0  3  0  0  0  0  0  0
  160.3410  206.6750  155.5160 C   0  0  0  0  0  2  0  0  0  0  0  0
  161.0940  210.9480  152.4110 C   0  0  2  0  0  3  0  0  0  0  0  0
  161.1770  208.6940  152.8870 N   0  0  2  0  0  0  0  0  0  0  0  0
  160.2160  212.1570  152.6090 C   0  0  2  0  0  3  0  0  0  0  0  0
  162.6700  210.9190  150.6480 O   0  0  0  0  0  1  0  0  0  0  0  0
  159.9190  210.4080  154.3660 C   0  0  1  0  0  3  0  0  0  0  0  0
  1 21  1  0  0  0  0
  2  8  2  0  0  0  0
  3 17  1  0  0  0  0
  4 22  1  0  0  0  0
  5 27  1  1  0  0  0
  5 17  1  0  0  0  0
  5 24  1  0  0  0  0
  6  1  1  0  0  0  0
  8  7  2  0  0  0  0
  9 18  1  6  0  0  0
  9 14  1  0  0  0  0
 10  8  1  6  0  0  0
 10 28  1  0  0  0  0
 11 15  2  0  0  0  0
 12 28  1  0  0  0  0
 13  9  1  0  0  0  0
 13 26  1  0  0  0  0
 14  8  1  0  0  0  0
 15 23  1  0  0  0  0
 16 20  1  0  0  0  0
 16  1  2  0  0  0  0
 17 25  1  0  0  0  0
 19 15  1  0  0  0  0
 20  4  2  0  0  0  0
 21 22  2  0  0  0  0
 23  6  1  0  0  0  0
 24 26  1  0  0  0  0
 24 12  1  0  0  0  0
 25 12  1  0  0  0  0
 25 19  1  0  0  0  0
 26 10  1  0  0  0  0
 28 16  1  0  0  0  0
M  END
>  <MODEL>
1

>  <REMARK>
 VINA RESULT:      -5.1      0.000      0.000
  Name = 
  0 active torsions:
  status: ('A' for Active; 'I' for Inactive)
                            x       y       z     vdW  Elec       q    Type
                         _______ _______ _______ _____ _____    ______ ____

>  <TORSDO>
F 0

$$$$
