=
 OpenBabel11122412503D

 32 37  0  0  1  0  0  0  0  0999 V2000
  159.5710  213.4930  146.4540 C   0  0  0  0  0  2  0  0  0  0  0  0
  161.4690  211.1620  151.2070 C   0  0  1  0  0  3  0  0  0  0  0  0
  161.3720  207.2820  148.0960 C   0  0  0  0  0  2  0  0  0  0  0  0
  161.2920  206.2900  149.2640 C   0  0  0  0  0  2  0  0  0  0  0  0
  160.7090  210.7690  153.5930 C   0  0  0  0  0  0  0  0  0  0  0  0
  160.7300  209.8670  154.7520 C   0  0  0  0  0  0  0  0  0  0  0  0
  160.8460  212.8520  149.4380 C   0  0  1  0  0  3  0  0  0  0  0  0
  162.6520  211.4000  148.9570 C   0  0  0  0  0  2  0  0  0  0  0  0
  160.8490  207.9540  156.0040 C   0  0  1  0  0  3  0  0  0  0  0  0
  161.8500  212.7820  147.2570 C   0  0  0  0  0  2  0  0  0  0  0  0
  162.2370  208.4930  148.4580 C   0  0  0  0  0  2  0  0  0  0  0  0
  162.3290  210.4580  150.1250 C   0  0  2  0  0  3  0  0  0  0  0  0
  161.6570  209.1510  149.7060 C   0  0  2  0  0  3  0  0  0  0  0  0
  161.5490  208.7990  152.2500 C   0  0  2  0  0  3  0  0  0  0  0  0
  160.6680  209.1210  156.8680 N   0  0  0  0  0  0  0  0  0  0  0  0
  158.9100  213.1120  147.7740 C   0  0  0  0  0  2  0  0  0  0  0  0
  161.4340  211.9840  148.4050 N   0  0  2  0  0  0  0  0  0  0  0  0
  160.6010  210.2010  156.1570 C   0  0  0  0  0  3  0  0  0  0  0  0
  159.6890  213.7270  148.9320 C   0  0  0  0  0  2  0  0  0  0  0  0
  160.8090  212.6470  146.1550 C   0  0  2  0  0  3  0  0  0  0  0  0
  160.8020  206.9750  150.5430 C   0  0  0  0  0  2  0  0  0  0  0  0
  161.7290  208.1470  150.8600 C   0  0  1  0  0  3  0  0  0  0  0  0
  161.0020  207.8500  153.3300 C   0  0  0  0  0  2  0  0  0  0  0  0
  160.3380  211.9880  150.5860 C   0  0  0  0  0  2  0  0  0  0  0  0
  160.5230  212.0050  153.7560 O   0  0  0  0  0  0  0  0  0  0  0  0
  159.6490  207.0330  156.1350 C   0  0  0  0  0  1  0  0  0  0  0  0
  160.8290  210.1730  152.2100 C   0  0  2  0  0  3  0  0  0  0  0  0
  160.8890  208.5640  154.6460 C   0  0  0  0  0  0  0  0  0  0  0  0
  161.3950  213.0640  144.8910 N   0  0  0  0  0  2  0  0  0  0  0  0
  160.9490  212.5580  143.6310 C   0  0  0  0  0  0  0  0  0  0  0  0
  160.0310  211.6980  143.5720 O   0  0  0  0  0  0  0  0  0  0  0  0
  161.5530  213.0270  142.4310 N   0  0  0  0  0  1  0  0  0  0  0  0
  1 16  1  0  0  0  0
  2 24  1  6  0  0  0
  2 27  1  0  0  0  0
  3 11  1  0  0  0  0
  3  4  1  0  0  0  0
  4 21  1  0  0  0  0
  5 25  2  0  0  0  0
  5  6  1  0  0  0  0
  6 18  1  0  0  0  0
  7 19  1  6  0  0  0
  7 24  1  0  0  0  0
  9 26  1  6  0  0  0
  9 15  1  0  0  0  0
 12  8  1  6  0  0  0
 12  2  1  0  0  0  0
 13 11  1  6  0  0  0
 13 12  1  0  0  0  0
 13 22  1  0  0  0  0
 14 23  1  1  0  0  0
 16 19  1  0  0  0  0
 17 10  1  6  0  0  0
 17  8  1  0  0  0  0
 17  7  1  0  0  0  0
 18 15  2  0  0  0  0
 20 29  1  6  0  0  0
 20  1  1  0  0  0  0
 20 10  1  0  0  0  0
 22 21  1  6  0  0  0
 22 14  1  0  0  0  0
 23 28  1  0  0  0  0
 27 14  1  0  0  0  0
 27  5  1  1  0  0  0
 28  6  2  0  0  0  0
 28  9  1  0  0  0  0
 30 29  1  0  0  0  0
 31 30  2  0  0  0  0
 32 30  1  0  0  0  0
M  END
>  <MODEL>
1

>  <REMARK>
 VINA RESULT:      -7.7      0.000      0.000
  Name = 
  1 active torsions:
  status: ('A' for Active; 'I' for Inactive)
    1  A    between atoms: C_20  and  N_29
                            x       y       z     vdW  Elec       q    Type
                         _______ _______ _______ _____ _____    ______ ____

>  <TORSDO>
F 1

$$$$
=
 OpenBabel11122412503D

 32 37  0  0  1  0  0  0  0  0999 V2000
  157.5700  213.6730  146.7220 C   0  0  0  0  0  2  0  0  0  0  0  0
  160.0640  212.4640  151.6150 C   0  0  1  0  0  3  0  0  0  0  0  0
  161.9820  209.0250  148.5760 C   0  0  0  0  0  2  0  0  0  0  0  0
  162.3110  208.1010  149.7560 C   0  0  0  0  0  2  0  0  0  0  0  0
  159.4430  211.7380  153.9630 C   0  0  0  0  0  0  0  0  0  0  0  0
  159.8190  210.9410  155.1380 C   0  0  0  0  0  0  0  0  0  0  0  0
  158.8220  213.6790  149.7830 C   0  0  1  0  0  3  0  0  0  0  0  0
  161.1230  213.2530  149.4300 C   0  0  0  0  0  2  0  0  0  0  0  0
  160.7510  209.2970  156.4300 C   0  0  1  0  0  3  0  0  0  0  0  0
  159.8650  214.1100  147.6630 C   0  0  0  0  0  2  0  0  0  0  0  0
  162.1540  210.4970  148.9630 C   0  0  0  0  0  2  0  0  0  0  0  0
  161.2150  212.2580  150.5950 C   0  0  2  0  0  3  0  0  0  0  0  0
  161.2620  210.7930  150.1650 C   0  0  2  0  0  3  0  0  0  0  0  0
  161.1860  210.4070  152.7050 C   0  0  2  0  0  3  0  0  0  0  0  0
  159.9930  210.2330  157.2610 N   0  0  0  0  0  0  0  0  0  0  0  0
  157.0910  213.0140  148.0100 C   0  0  0  0  0  2  0  0  0  0  0  0
  159.8080  213.2000  148.8000 N   0  0  2  0  0  0  0  0  0  0  0  0
  159.4670  211.1620  156.5270 C   0  0  0  0  0  3  0  0  0  0  0  0
  157.4210  213.9120  149.1970 C   0  0  0  0  0  2  0  0  0  0  0  0
  159.0750  213.5120  146.5080 C   0  0  2  0  0  3  0  0  0  0  0  0
  161.4840  208.4620  150.9940 C   0  0  0  0  0  2  0  0  0  0  0  0
  161.7310  209.9300  151.3390 C   0  0  1  0  0  3  0  0  0  0  0  0
  161.0890  209.3020  153.7710 C   0  0  0  0  0  2  0  0  0  0  0  0
  158.7160  212.6670  150.9170 C   0  0  0  0  0  2  0  0  0  0  0  0
  158.6890  212.7390  154.0920 O   0  0  0  0  0  0  0  0  0  0  0  0
  160.1200  207.9180  156.5120 C   0  0  0  0  0  1  0  0  0  0  0  0
  159.9080  211.2810  152.5990 C   0  0  2  0  0  3  0  0  0  0  0  0
  160.5780  209.8670  155.0640 C   0  0  0  0  0  0  0  0  0  0  0  0
  159.4670  214.1670  145.2700 N   0  0  0  0  0  2  0  0  0  0  0  0
  159.8420  213.4410  144.0980 C   0  0  0  0  0  0  0  0  0  0  0  0
  159.8700  212.1810  144.1050 O   0  0  0  0  0  0  0  0  0  0  0  0
  160.1930  214.1470  142.9140 N   0  0  0  0  0  1  0  0  0  0  0  0
  1 16  1  0  0  0  0
  2 24  1  6  0  0  0
  2 27  1  0  0  0  0
  3 11  1  0  0  0  0
  3  4  1  0  0  0  0
  4 21  1  0  0  0  0
  5 25  2  0  0  0  0
  5  6  1  0  0  0  0
  6 18  1  0  0  0  0
  7 19  1  6  0  0  0
  7 24  1  0  0  0  0
  9 26  1  6  0  0  0
  9 15  1  0  0  0  0
 12  8  1  6  0  0  0
 12  2  1  0  0  0  0
 13 11  1  6  0  0  0
 13 12  1  0  0  0  0
 13 22  1  0  0  0  0
 14 23  1  1  0  0  0
 16 19  1  0  0  0  0
 17 10  1  6  0  0  0
 17  8  1  0  0  0  0
 17  7  1  0  0  0  0
 18 15  2  0  0  0  0
 20 29  1  6  0  0  0
 20  1  1  0  0  0  0
 20 10  1  0  0  0  0
 22 21  1  6  0  0  0
 22 14  1  0  0  0  0
 23 28  1  0  0  0  0
 27 14  1  0  0  0  0
 27  5  1  1  0  0  0
 28  6  2  0  0  0  0
 28  9  1  0  0  0  0
 30 31  2  0  0  0  0
 30 29  1  0  0  0  0
 32 30  1  0  0  0  0
M  END
>  <MODEL>
2

>  <REMARK>
 VINA RESULT:      -5.7      1.389      1.837
  Name = 
  1 active torsions:
  status: ('A' for Active; 'I' for Inactive)
    1  A    between atoms: C_20  and  N_29
                            x       y       z     vdW  Elec       q    Type
                         _______ _______ _______ _____ _____    ______ ____

>  <TORSDO>
F 1

$$$$
=
 OpenBabel11122412503D

 32 37  0  0  1  0  0  0  0  0999 V2000
  158.7180  212.8710  145.5290 C   0  0  0  0  0  2  0  0  0  0  0  0
  158.2930  213.8050  151.0580 C   0  0  1  0  0  3  0  0  0  0  0  0
  161.7320  210.2170  150.8570 C   0  0  0  0  0  2  0  0  0  0  0  0
  161.4350  209.7900  152.3010 C   0  0  0  0  0  2  0  0  0  0  0  0
  156.5620  213.6660  152.9050 C   0  0  0  0  0  0  0  0  0  0  0  0
  156.3010  213.3670  154.3190 C   0  0  0  0  0  0  0  0  0  0  0  0
  158.1470  214.0830  148.5530 C   0  0  1  0  0  3  0  0  0  0  0  0
  160.3030  214.1570  149.5250 C   0  0  0  0  0  2  0  0  0  0  0  0
  156.4970  212.4590  156.4110 C   0  0  1  0  0  3  0  0  0  0  0  0
  160.1300  214.1200  147.1990 C   0  0  0  0  0  2  0  0  0  0  0  0
  161.5840  211.7310  150.6870 C   0  0  0  0  0  2  0  0  0  0  0  0
  159.8190  213.6030  150.8710 C   0  0  2  0  0  3  0  0  0  0  0  0
  160.1740  212.1350  151.1070 C   0  0  2  0  0  3  0  0  0  0  0  0
  158.7810  212.5030  153.2360 C   0  0  2  0  0  3  0  0  0  0  0  0
  155.3600  213.3780  156.3570 N   0  0  0  0  0  0  0  0  0  0  0  0
  157.6670  212.5200  146.5750 C   0  0  0  0  0  2  0  0  0  0  0  0
  159.5300  213.5980  148.4210 N   0  0  2  0  0  0  0  0  0  0  0  0
  155.2520  213.8900  155.1720 C   0  0  0  0  0  3  0  0  0  0  0  0
  157.2610  213.7790  147.3350 C   0  0  0  0  0  2  0  0  0  0  0  0
  160.1130  213.0340  146.1340 C   0  0  2  0  0  3  0  0  0  0  0  0
  160.0570  210.2800  152.7550 C   0  0  0  0  0  2  0  0  0  0  0  0
  159.9960  211.7980  152.5900 C   0  0  1  0  0  3  0  0  0  0  0  0
  158.1970  211.7700  154.4560 C   0  0  0  0  0  2  0  0  0  0  0  0
  157.5130  213.4530  149.7880 C   0  0  0  0  0  2  0  0  0  0  0  0
  155.7970  214.4410  152.2700 O   0  0  0  0  0  0  0  0  0  0  0  0
  156.0010  211.0520  156.6990 C   0  0  0  0  0  1  0  0  0  0  0  0
  157.7070  212.9610  152.2150 C   0  0  2  0  0  3  0  0  0  0  0  0
  157.0430  212.5420  155.0270 C   0  0  0  0  0  0  0  0  0  0  0  0
  161.0650  213.3740  145.0880 N   0  0  0  0  0  2  0  0  0  0  0  0
  162.4780  213.2940  145.2760 C   0  0  0  0  0  0  0  0  0  0  0  0
  162.9600  212.9420  146.3860 O   0  0  0  0  0  0  0  0  0  0  0  0
  163.3520  213.6220  144.2020 N   0  0  0  0  0  1  0  0  0  0  0  0
  1 20  1  0  0  0  0
  1 16  1  0  0  0  0
  2 24  1  6  0  0  0
  2 27  1  0  0  0  0
  3  4  1  0  0  0  0
  4 21  1  0  0  0  0
  5  6  1  0  0  0  0
  6 28  2  0  0  0  0
  6 18  1  0  0  0  0
  7 19  1  6  0  0  0
  7 24  1  0  0  0  0
  9 26  1  6  0  0  0
 11  3  1  0  0  0  0
 12  8  1  6  0  0  0
 12  2  1  0  0  0  0
 12 13  1  0  0  0  0
 13 11  1  1  0  0  0
 13 22  1  0  0  0  0
 14 23  1  1  0  0  0
 15  9  1  0  0  0  0
 16 19  1  0  0  0  0
 17 10  1  6  0  0  0
 17  7  1  0  0  0  0
 17  8  1  0  0  0  0
 18 15  2  0  0  0  0
 20 29  1  6  0  0  0
 20 10  1  0  0  0  0
 22 21  1  6  0  0  0
 22 14  1  0  0  0  0
 23 28  1  0  0  0  0
 25  5  2  0  0  0  0
 27  5  1  1  0  0  0
 27 14  1  0  0  0  0
 28  9  1  0  0  0  0
 29 30  1  0  0  0  0
 30 31  2  0  0  0  0
 32 30  1  0  0  0  0
M  END
>  <MODEL>
3

>  <REMARK>
 VINA RESULT:      -5.3      3.182      4.216
  Name = 
  1 active torsions:
  status: ('A' for Active; 'I' for Inactive)
    1  A    between atoms: C_20  and  N_29
                            x       y       z     vdW  Elec       q    Type
                         _______ _______ _______ _____ _____    ______ ____

>  <TORSDO>
F 1

$$$$
=
 OpenBabel11122412503D

 32 37  0  0  1  0  0  0  0  0999 V2000
  158.2240  213.4310  145.2160 C   0  0  0  0  0  2  0  0  0  0  0  0
  160.0690  213.2570  150.5250 C   0  0  1  0  0  3  0  0  0  0  0  0
  162.0120  209.1030  148.5970 C   0  0  0  0  0  2  0  0  0  0  0  0
  162.1340  208.4620  149.9850 C   0  0  0  0  0  2  0  0  0  0  0  0
  159.1410  213.1310  152.8810 C   0  0  0  0  0  0  0  0  0  0  0  0
  159.3210  212.6090  154.2420 C   0  0  0  0  0  0  0  0  0  0  0  0
  159.1360  214.0790  148.3290 C   0  0  1  0  0  3  0  0  0  0  0  0
  161.4180  213.4550  148.3670 C   0  0  0  0  0  2  0  0  0  0  0  0
  159.9700  211.2620  155.9750 C   0  0  1  0  0  3  0  0  0  0  0  0
  160.4320  213.9470  146.3110 C   0  0  0  0  0  2  0  0  0  0  0  0
  162.2620  210.6120  148.6610 C   0  0  0  0  0  2  0  0  0  0  0  0
  161.3010  212.7550  149.7280 C   0  0  2  0  0  3  0  0  0  0  0  0
  161.2730  211.2300  149.6460 C   0  0  2  0  0  3  0  0  0  0  0  0
  160.8930  211.4500  152.1790 C   0  0  2  0  0  3  0  0  0  0  0  0
  159.2070  212.4070  156.4740 N   0  0  0  0  0  0  0  0  0  0  0  0
  157.5560  213.1170  146.5500 C   0  0  0  0  0  2  0  0  0  0  0  0
  160.1780  213.3310  147.6080 N   0  0  2  0  0  0  0  0  0  0  0  0
  158.8410  213.1670  155.4910 C   0  0  0  0  0  3  0  0  0  0  0  0
  157.8290  214.2470  147.5370 C   0  0  0  0  0  2  0  0  0  0  0  0
  159.7250  213.1410  145.2310 C   0  0  2  0  0  3  0  0  0  0  0  0
  161.2110  209.1470  150.9980 C   0  0  0  0  0  2  0  0  0  0  0  0
  161.5410  210.6390  151.0330 C   0  0  1  0  0  3  0  0  0  0  0  0
  160.5910  210.6300  153.4450 C   0  0  0  0  0  2  0  0  0  0  0  0
  158.8240  213.3660  149.6390 C   0  0  0  0  0  2  0  0  0  0  0  0
  158.4620  214.1760  152.6880 O   0  0  0  0  0  0  0  0  0  0  0  0
  159.2220  209.9770  156.2860 C   0  0  0  0  0  1  0  0  0  0  0  0
  159.7110  212.3450  151.7230 C   0  0  2  0  0  3  0  0  0  0  0  0
  159.9920  211.5080  154.5060 C   0  0  0  0  0  0  0  0  0  0  0  0
  160.3010  213.4680  143.9360 N   0  0  0  0  0  2  0  0  0  0  0  0
  160.4380  212.5060  142.8890 C   0  0  0  0  0  0  0  0  0  0  0  0
  160.0810  211.3100  143.0630 O   0  0  0  0  0  0  0  0  0  0  0  0
  160.9910  212.9000  141.6380 N   0  0  0  0  0  1  0  0  0  0  0  0
  1 20  1  0  0  0  0
  1 16  1  0  0  0  0
  2 24  1  6  0  0  0
  2 27  1  0  0  0  0
  3 11  1  0  0  0  0
  3  4  1  0  0  0  0
  4 21  1  0  0  0  0
  5  6  1  0  0  0  0
  6 28  2  0  0  0  0
  6 18  1  0  0  0  0
  7 19  1  6  0  0  0
  7 24  1  0  0  0  0
  9 26  1  6  0  0  0
  9 15  1  0  0  0  0
 12  8  1  6  0  0  0
 12  2  1  0  0  0  0
 13 11  1  6  0  0  0
 13 12  1  0  0  0  0
 13 22  1  0  0  0  0
 14 23  1  1  0  0  0
 16 19  1  0  0  0  0
 17 10  1  6  0  0  0
 17  7  1  0  0  0  0
 17  8  1  0  0  0  0
 18 15  2  0  0  0  0
 20 29  1  6  0  0  0
 20 10  1  0  0  0  0
 22 21  1  6  0  0  0
 22 14  1  0  0  0  0
 23 28  1  0  0  0  0
 25  5  2  0  0  0  0
 27 14  1  0  0  0  0
 27  5  1  1  0  0  0
 28  9  1  0  0  0  0
 30 31  2  0  0  0  0
 30 29  1  0  0  0  0
 32 30  1  0  0  0  0
M  END
>  <MODEL>
4

>  <REMARK>
 VINA RESULT:      -5.2      1.728      2.458
  Name = 
  1 active torsions:
  status: ('A' for Active; 'I' for Inactive)
    1  A    between atoms: C_20  and  N_29
                            x       y       z     vdW  Elec       q    Type
                         _______ _______ _______ _____ _____    ______ ____

>  <TORSDO>
F 1

$$$$
=
 OpenBabel11122412503D

 32 37  0  0  1  0  0  0  0  0999 V2000
  160.2610  209.3220  153.1370 C   0  0  0  0  0  2  0  0  0  0  0  0
  161.4300  212.9010  148.9600 C   0  0  1  0  0  3  0  0  0  0  0  0
  156.4900  213.3270  149.3620 C   0  0  0  0  0  2  0  0  0  0  0  0
  156.3720  213.8360  147.9200 C   0  0  0  0  0  2  0  0  0  0  0  0
  162.4170  212.8770  146.6260 C   0  0  0  0  0  0  0  0  0  0  0  0
  162.3780  213.4490  145.2740 C   0  0  0  0  0  0  0  0  0  0  0  0
  161.6630  211.3850  150.9650 C   0  0  1  0  0  3  0  0  0  0  0  0
  160.4530  213.3960  151.2670 C   0  0  0  0  0  2  0  0  0  0  0  0
  161.5990  214.4530  143.3700 C   0  0  1  0  0  3  0  0  0  0  0  0
  160.4570  211.8290  152.9940 C   0  0  0  0  0  2  0  0  0  0  0  0
  157.7820  213.8220  150.0180 C   0  0  0  0  0  2  0  0  0  0  0  0
  160.3430  213.6670  149.7600 C   0  0  2  0  0  3  0  0  0  0  0  0
  158.9660  213.3670  149.1700 C   0  0  2  0  0  3  0  0  0  0  0  0
  160.1620  213.9640  146.9750 C   0  0  2  0  0  3  0  0  0  0  0  0
  163.0150  214.1150  143.2270 N   0  0  0  0  0  0  0  0  0  0  0  0
  160.6460  209.1380  151.6740 C   0  0  0  0  0  2  0  0  0  0  0  0
  160.4390  211.9630  151.5430 N   0  0  2  0  0  0  0  0  0  0  0  0
  163.4530  213.5470  144.3060 C   0  0  0  0  0  3  0  0  0  0  0  0
  161.9170  209.9260  151.3770 C   0  0  0  0  0  2  0  0  0  0  0  0
  159.5690  210.6600  153.3960 C   0  0  2  0  0  3  0  0  0  0  0  0
  157.6060  213.4630  147.0940 C   0  0  0  0  0  2  0  0  0  0  0  0
  158.8490  214.0170  147.7890 C   0  0  1  0  0  3  0  0  0  0  0  0
  159.9670  214.0110  145.4500 C   0  0  0  0  0  2  0  0  0  0  0  0
  161.5800  211.4560  149.4450 C   0  0  0  0  0  2  0  0  0  0  0  0
  163.4770  212.3510  147.0610 O   0  0  0  0  0  0  0  0  0  0  0  0
  160.7840  213.6710  142.3540 C   0  0  0  0  0  1  0  0  0  0  0  0
  161.1440  212.8580  147.4410 C   0  0  2  0  0  3  0  0  0  0  0  0
  161.2950  213.9840  144.7510 C   0  0  0  0  0  0  0  0  0  0  0  0
  159.2360  210.7760  154.8070 N   0  0  0  0  0  2  0  0  0  0  0  0
  158.0310  211.3910  155.2670 C   0  0  0  0  0  0  0  0  0  0  0  0
  157.2110  211.8870  154.4500 O   0  0  0  0  0  0  0  0  0  0  0  0
  157.7590  211.4490  156.6630 N   0  0  0  0  0  1  0  0  0  0  0  0
  1 20  1  0  0  0  0
  2 24  1  1  0  0  0
  2 12  1  0  0  0  0
  3 11  1  0  0  0  0
  4  3  1  0  0  0  0
  5 25  2  0  0  0  0
  6  5  1  0  0  0  0
  7 24  1  6  0  0  0
  7 19  1  0  0  0  0
  7 17  1  0  0  0  0
  9 26  1  6  0  0  0
  9 28  1  0  0  0  0
 10 20  1  0  0  0  0
 12  8  1  1  0  0  0
 13 12  1  0  0  0  0
 13 11  1  1  0  0  0
 14 23  1  6  0  0  0
 14 27  1  0  0  0  0
 14 22  1  0  0  0  0
 15  9  1  0  0  0  0
 15 18  2  0  0  0  0
 16  1  1  0  0  0  0
 17  8  1  1  0  0  0
 17 10  1  0  0  0  0
 18  6  1  0  0  0  0
 19 16  1  0  0  0  0
 20 29  1  1  0  0  0
 21  4  1  0  0  0  0
 22 21  1  6  0  0  0
 22 13  1  0  0  0  0
 27  5  1  6  0  0  0
 27  2  1  0  0  0  0
 28  6  2  0  0  0  0
 28 23  1  0  0  0  0
 29 30  1  0  0  0  0
 30 32  1  0  0  0  0
 31 30  2  0  0  0  0
M  END
>  <MODEL>
5

>  <REMARK>
 VINA RESULT:      -5.0      2.377      8.930
  Name = 
  1 active torsions:
  status: ('A' for Active; 'I' for Inactive)
    1  A    between atoms: C_20  and  N_29
                            x       y       z     vdW  Elec       q    Type
                         _______ _______ _______ _____ _____    ______ ____

>  <TORSDO>
F 1

$$$$
=
 OpenBabel11122412503D

 32 37  0  0  1  0  0  0  0  0999 V2000
  159.1540  209.5860  156.2020 C   0  0  0  0  0  2  0  0  0  0  0  0
  161.4360  205.7560  152.7750 C   0  0  1  0  0  3  0  0  0  0  0  0
  161.6020  209.8820  150.0020 C   0  0  0  0  0  2  0  0  0  0  0  0
  161.6590  209.0630  148.7070 C   0  0  0  0  0  2  0  0  0  0  0  0
  160.8050  203.5910  151.6170 C   0  0  0  0  0  0  0  0  0  0  0  0
  160.9540  202.7540  150.4200 C   0  0  0  0  0  0  0  0  0  0  0  0
  160.5910  206.9370  154.8400 C   0  0  1  0  0  3  0  0  0  0  0  0
  162.5090  207.8390  153.7890 C   0  0  0  0  0  2  0  0  0  0  0  0
  161.3010  202.1300  148.2450 C   0  0  1  0  0  3  0  0  0  0  0  0
  161.5180  209.0440  155.5220 C   0  0  0  0  0  2  0  0  0  0  0  0
  162.3580  209.1810  151.1330 C   0  0  0  0  0  2  0  0  0  0  0  0
  162.3210  207.0040  152.5160 C   0  0  2  0  0  3  0  0  0  0  0  0
  161.7630  207.7890  151.3300 C   0  0  2  0  0  3  0  0  0  0  0  0
  161.7810  205.4660  150.2310 C   0  0  2  0  0  3  0  0  0  0  0  0
  161.0390  200.9570  149.0780 N   0  0  0  0  0  0  0  0  0  0  0  0
  158.5800  208.4360  155.3820 C   0  0  0  0  0  2  0  0  0  0  0  0
  161.2220  208.1850  154.3830 N   0  0  2  0  0  0  0  0  0  0  0  0
  160.8430  201.3130  150.3080 C   0  0  0  0  0  3  0  0  0  0  0  0
  159.3370  207.1520  155.7030 C   0  0  0  0  0  2  0  0  0  0  0  0
  160.4560  210.1310  155.6140 C   0  0  2  0  0  3  0  0  0  0  0  0
  161.1520  207.6350  148.9270 C   0  0  0  0  0  2  0  0  0  0  0  0
  161.9730  206.9880  150.0420 C   0  0  1  0  0  3  0  0  0  0  0  0
  161.3670  204.7150  148.9530 C   0  0  0  0  0  2  0  0  0  0  0  0
  160.2100  206.0960  153.6270 C   0  0  0  0  0  2  0  0  0  0  0  0
  160.5060  203.0660  152.7230 O   0  0  0  0  0  0  0  0  0  0  0  0
  160.2000  202.2740  147.2080 C   0  0  0  0  0  1  0  0  0  0  0  0
  160.9310  205.0910  151.4730 C   0  0  2  0  0  3  0  0  0  0  0  0
  161.2330  203.2460  149.2300 C   0  0  0  0  0  0  0  0  0  0  0  0
  160.9530  211.2170  156.4440 N   0  0  0  0  0  2  0  0  0  0  0  0
  160.4000  212.5330  156.4040 C   0  0  0  0  0  0  0  0  0  0  0  0
  159.4600  212.8120  155.6130 O   0  0  0  0  0  0  0  0  0  0  0  0
  160.9210  213.5430  157.2610 N   0  0  0  0  0  1  0  0  0  0  0  0
  2 24  1  1  0  0  0
  3 11  1  0  0  0  0
  4 21  1  0  0  0  0
  4  3  1  0  0  0  0
  5 25  2  0  0  0  0
  6  5  1  0  0  0  0
  7 24  1  6  0  0  0
  7 19  1  0  0  0  0
  9 26  1  6  0  0  0
  9 15  1  0  0  0  0
  9 28  1  0  0  0  0
 10 20  1  0  0  0  0
 12  2  1  0  0  0  0
 12  8  1  1  0  0  0
 13 11  1  6  0  0  0
 13 12  1  0  0  0  0
 14 23  1  6  0  0  0
 14 27  1  0  0  0  0
 15 18  2  0  0  0  0
 16 19  1  0  0  0  0
 16  1  1  0  0  0  0
 17  8  1  1  0  0  0
 17  7  1  0  0  0  0
 17 10  1  0  0  0  0
 18  6  1  0  0  0  0
 20  1  1  0  0  0  0
 20 29  1  1  0  0  0
 22 21  1  6  0  0  0
 22 14  1  0  0  0  0
 22 13  1  0  0  0  0
 23 28  1  0  0  0  0
 27  5  1  1  0  0  0
 27  2  1  0  0  0  0
 28  6  2  0  0  0  0
 30 29  1  0  0  0  0
 30 32  1  0  0  0  0
 31 30  2  0  0  0  0
M  END
>  <MODEL>
6

>  <REMARK>
 VINA RESULT:      -4.9      4.614      8.249
  Name = 
  1 active torsions:
  status: ('A' for Active; 'I' for Inactive)
    1  A    between atoms: C_20  and  N_29
                            x       y       z     vdW  Elec       q    Type
                         _______ _______ _______ _____ _____    ______ ____

>  <TORSDO>
F 1

$$$$
