=
 OpenBabel11122414063D

 28 32  0  0  1  0  0  0  0  0999 V2000
  161.0710  208.7200  155.1990 C   0  0  0  0  0  0  0  0  0  0  0  0
  158.3240  210.2520  155.0770 O   0  0  0  0  0  0  0  0  0  0  0  0
  161.9650  211.3750  149.8790 O   0  0  0  0  0  0  0  0  0  0  0  0
  162.6800  209.8050  157.2260 C   0  0  0  0  0  3  0  0  0  0  0  0
  160.1350  212.1290  151.1410 N   0  0  0  0  0  0  0  0  0  0  0  0
  160.2910  208.0370  154.1230 C   0  0  0  0  0  2  0  0  0  0  0  0
  159.1180  211.5080  157.0270 O   0  0  0  0  0  0  0  0  0  0  0  0
  158.7600  211.6030  155.5710 S   0  0  0  0  0  0  0  0  0  0  0  0
  157.3520  213.1000  153.9160 C   0  0  1  0  0  3  0  0  0  0  0  0
  160.1410  212.2070  154.6640 N   0  0  2  0  0  0  0  0  0  0  0  0
  162.6680  207.2080  151.4780 O   0  0  0  0  0  0  0  0  0  0  0  0
  160.2910  210.5750  152.9170 N   0  0  1  0  0  0  0  0  0  0  0  0
  158.5890  213.7770  153.5470 N   0  0  0  0  0  2  0  0  0  0  0  0
  157.4070  212.7230  155.3770 C   0  0  0  0  0  2  0  0  0  0  0  0
  161.6790  207.7670  152.0180 C   0  0  0  0  0  0  0  0  0  0  0  0
  161.4130  210.0970  155.1640 C   0  0  0  0  0  0  0  0  0  0  0  0
  161.2110  211.2700  150.8820 C   0  0  0  0  0  0  0  0  0  0  0  0
  156.1810  214.0300  153.6820 C   0  0  0  0  0  1  0  0  0  0  0  0
  161.0040  208.8900  151.3020 C   0  0  0  0  0  2  0  0  0  0  0  0
  162.2240  210.6140  156.1850 C   0  0  0  0  0  3  0  0  0  0  0  0
  161.5350  207.9180  156.2500 C   0  0  0  0  0  3  0  0  0  0  0  0
  162.3310  208.4560  157.2610 C   0  0  0  0  0  3  0  0  0  0  0  0
  161.2030  207.2860  153.2750 N   0  0  0  0  0  2  0  0  0  0  0  0
  159.5260  211.7310  152.3920 C   0  0  1  0  0  3  0  0  0  0  0  0
  161.3330  210.2390  151.9260 C   0  0  2  0  0  3  0  0  0  0  0  0
  159.7110  212.8350  153.4170 C   0  0  2  0  0  3  0  0  0  0  0  0
  159.6100  213.1310  150.2280 C   0  0  0  0  0  1  0  0  0  0  0  0
  160.9420  211.0990  154.1240 C   0  0  2  0  0  3  0  0  0  0  0  0
  1 21  1  0  0  0  0
  2  8  2  0  0  0  0
  3 17  2  0  0  0  0
  4 22  1  0  0  0  0
  5 24  1  0  0  0  0
  6  1  1  0  0  0  0
  8  7  2  0  0  0  0
  9 18  1  1  0  0  0
  9 14  1  0  0  0  0
 10  8  1  6  0  0  0
 11 15  2  0  0  0  0
 12 28  1  0  0  0  0
 13  9  1  0  0  0  0
 14  8  1  0  0  0  0
 15 23  1  0  0  0  0
 16  1  2  0  0  0  0
 16 20  1  0  0  0  0
 17  5  1  0  0  0  0
 17 25  1  0  0  0  0
 19 25  1  0  0  0  0
 19 15  1  0  0  0  0
 20  4  2  0  0  0  0
 21 22  2  0  0  0  0
 23  6  1  0  0  0  0
 24 12  1  0  0  0  0
 24 26  1  0  0  0  0
 25 12  1  0  0  0  0
 26 13  1  0  0  0  0
 26 10  1  0  0  0  0
 27  5  1  0  0  0  0
 28 10  1  0  0  0  0
 28 16  1  0  0  0  0
M  END
>  <MODEL>
1

>  <REMARK>
 VINA RESULT:      -5.1      0.000      0.000
  Name = 
  0 active torsions:
  status: ('A' for Active; 'I' for Inactive)
                            x       y       z     vdW  Elec       q    Type
                         _______ _______ _______ _____ _____    ______ ____

>  <TORSDO>
F 0

$$$$
=
 OpenBabel11122414063D

 28 32  0  0  1  0  0  0  0  0999 V2000
  160.9790  208.8490  153.3200 C   0  0  0  0  0  0  0  0  0  0  0  0
  158.4230  210.5320  152.5870 O   0  0  0  0  0  0  0  0  0  0  0  0
  163.2750  211.5670  148.4730 O   0  0  0  0  0  0  0  0  0  0  0  0
  162.0940  209.7990  155.7140 C   0  0  0  0  0  3  0  0  0  0  0  0
  161.2300  212.3920  149.2770 N   0  0  0  0  0  0  0  0  0  0  0  0
  160.4550  208.2340  152.0640 C   0  0  0  0  0  2  0  0  0  0  0  0
  158.7750  211.7000  154.7140 O   0  0  0  0  0  0  0  0  0  0  0  0
  158.7890  211.8460  153.2190 S   0  0  0  0  0  0  0  0  0  0  0  0
  157.9020  213.4540  151.3230 C   0  0  1  0  0  3  0  0  0  0  0  0
  160.3770  212.3920  152.6960 N   0  0  2  0  0  0  0  0  0  0  0  0
  163.3650  207.3330  150.0500 O   0  0  0  0  0  0  0  0  0  0  0  0
  160.8720  210.7930  150.9830 N   0  0  1  0  0  0  0  0  0  0  0  0
  159.2240  214.0700  151.2910 N   0  0  0  0  0  2  0  0  0  0  0  0
  157.5800  213.0430  152.7400 C   0  0  0  0  0  2  0  0  0  0  0  0
  162.3020  207.9340  150.3520 C   0  0  0  0  0  0  0  0  0  0  0  0
  161.3860  210.2050  153.4170 C   0  0  0  0  0  0  0  0  0  0  0  0
  162.2940  211.4810  149.2580 C   0  0  0  0  0  0  0  0  0  0  0  0
  156.8700  214.4520  150.8440 C   0  0  0  0  0  1  0  0  0  0  0  0
  161.8770  209.1080  149.5330 C   0  0  0  0  0  2  0  0  0  0  0  0
  161.9460  210.6550  154.6230 C   0  0  0  0  0  3  0  0  0  0  0  0
  161.1330  208.0000  154.4250 C   0  0  0  0  0  3  0  0  0  0  0  0
  161.6820  208.4710  155.6160 C   0  0  0  0  0  3  0  0  0  0  0  0
  161.5100  207.4520  151.4380 N   0  0  0  0  0  2  0  0  0  0  0  0
  160.3150  212.0000  150.3280 C   0  0  1  0  0  3  0  0  0  0  0  0
  162.1070  210.4220  150.2640 C   0  0  2  0  0  3  0  0  0  0  0  0
  160.2970  213.0700  151.4040 C   0  0  2  0  0  3  0  0  0  0  0  0
  160.9940  213.4410  148.2990 C   0  0  0  0  0  1  0  0  0  0  0  0
  161.2320  211.2550  152.3300 C   0  0  2  0  0  3  0  0  0  0  0  0
  1 16  2  0  0  0  0
  1 21  1  0  0  0  0
  2  8  2  0  0  0  0
  3 17  2  0  0  0  0
  5 24  1  0  0  0  0
  6  1  1  0  0  0  0
  8  7  2  0  0  0  0
  9 18  1  1  0  0  0
  9 14  1  0  0  0  0
 10  8  1  6  0  0  0
 11 15  2  0  0  0  0
 12 28  1  0  0  0  0
 13  9  1  0  0  0  0
 13 26  1  0  0  0  0
 14  8  1  0  0  0  0
 15 23  1  0  0  0  0
 16 20  1  0  0  0  0
 17  5  1  0  0  0  0
 17 25  1  0  0  0  0
 19 25  1  0  0  0  0
 19 15  1  0  0  0  0
 20  4  2  0  0  0  0
 21 22  2  0  0  0  0
 22  4  1  0  0  0  0
 23  6  1  0  0  0  0
 24 12  1  0  0  0  0
 24 26  1  0  0  0  0
 25 12  1  0  0  0  0
 26 10  1  0  0  0  0
 27  5  1  0  0  0  0
 28 10  1  0  0  0  0
 28 16  1  0  0  0  0
M  END
>  <MODEL>
2

>  <REMARK>
 VINA RESULT:      -2.7      1.730      2.105
  Name = 
  0 active torsions:
  status: ('A' for Active; 'I' for Inactive)
                            x       y       z     vdW  Elec       q    Type
                         _______ _______ _______ _____ _____    ______ ____

>  <TORSDO>
F 0

$$$$
=
 OpenBabel11122414063D

 28 32  0  0  1  0  0  0  0  0999 V2000
  160.9370  208.6410  155.0670 C   0  0  0  0  0  0  0  0  0  0  0  0
  158.9840  210.6430  153.6220 O   0  0  0  0  0  0  0  0  0  0  0  0
  163.0730  207.8390  149.5040 O   0  0  0  0  0  0  0  0  0  0  0  0
  162.7170  210.0600  156.7080 C   0  0  0  0  0  3  0  0  0  0  0  0
  161.5940  209.6340  149.8180 N   0  0  0  0  0  0  0  0  0  0  0  0
  160.0200  207.7790  154.2610 C   0  0  0  0  0  2  0  0  0  0  0  0
  160.0810  212.4060  154.9270 O   0  0  0  0  0  0  0  0  0  0  0  0
  159.8700  211.8550  153.5450 S   0  0  0  0  0  0  0  0  0  0  0  0
  159.2290  212.6550  151.1130 C   0  0  1  0  0  3  0  0  0  0  0  0
  161.4260  211.4730  152.8200 N   0  0  2  0  0  0  0  0  0  0  0  0
  162.0560  205.0610  152.9200 O   0  0  0  0  0  0  0  0  0  0  0  0
  161.0490  209.2250  152.0840 N   0  0  1  0  0  0  0  0  0  0  0  0
  160.6500  212.6460  150.7850 N   0  0  0  0  0  2  0  0  0  0  0  0
  159.0540  213.0700  152.5540 C   0  0  0  0  0  2  0  0  0  0  0  0
  161.3230  206.0820  152.8990 C   0  0  0  0  0  0  0  0  0  0  0  0
  161.7760  209.6360  154.5000 C   0  0  0  0  0  0  0  0  0  0  0  0
  162.2780  208.4850  150.2360 C   0  0  0  0  0  0  0  0  0  0  0  0
  158.5120  213.6410  150.2160 C   0  0  0  0  0  1  0  0  0  0  0  0
  161.1640  206.8330  151.6180 C   0  0  0  0  0  2  0  0  0  0  0  0
  162.6620  210.3270  155.3400 C   0  0  0  0  0  3  0  0  0  0  0  0
  161.0020  208.3830  156.4430 C   0  0  0  0  0  3  0  0  0  0  0  0
  161.8830  209.0900  157.2610 C   0  0  0  0  0  3  0  0  0  0  0  0
  160.6280  206.4690  154.0850 N   0  0  0  0  0  2  0  0  0  0  0  0
  160.8090  210.1250  150.9310 C   0  0  1  0  0  3  0  0  0  0  0  0
  161.9410  208.1410  151.6280 C   0  0  2  0  0  3  0  0  0  0  0  0
  161.3380  211.4810  151.3620 C   0  0  2  0  0  3  0  0  0  0  0  0
  161.5410  210.1420  148.4580 C   0  0  0  0  0  1  0  0  0  0  0  0
  161.7790  210.0640  153.0420 C   0  0  2  0  0  3  0  0  0  0  0  0
  1 21  1  0  0  0  0
  3 17  2  0  0  0  0
  4 22  1  0  0  0  0
  5 17  1  0  0  0  0
  5 24  1  0  0  0  0
  6  1  1  0  0  0  0
  8  2  2  0  0  0  0
  8  7  2  0  0  0  0
  9 18  1  6  0  0  0
  9 14  1  0  0  0  0
 10 28  1  0  0  0  0
 10  8  1  1  0  0  0
 12 28  1  0  0  0  0
 13  9  1  0  0  0  0
 13 26  1  0  0  0  0
 14  8  1  0  0  0  0
 15 11  2  0  0  0  0
 15 23  1  0  0  0  0
 16  1  2  0  0  0  0
 16 20  1  0  0  0  0
 17 25  1  0  0  0  0
 19 25  1  0  0  0  0
 19 15  1  0  0  0  0
 20  4  2  0  0  0  0
 21 22  2  0  0  0  0
 23  6  1  0  0  0  0
 24 26  1  0  0  0  0
 24 12  1  0  0  0  0
 25 12  1  0  0  0  0
 26 10  1  0  0  0  0
 27  5  1  0  0  0  0
 28 16  1  0  0  0  0
M  END
>  <MODEL>
3

>  <REMARK>
 VINA RESULT:      -2.4      1.851      2.452
  Name = 
  0 active torsions:
  status: ('A' for Active; 'I' for Inactive)
                            x       y       z     vdW  Elec       q    Type
                         _______ _______ _______ _____ _____    ______ ____

>  <TORSDO>
F 0

$$$$
=
 OpenBabel11122414063D

 28 32  0  0  1  0  0  0  0  0999 V2000
  159.2740  213.6200  149.9520 C   0  0  0  0  0  0  0  0  0  0  0  0
  159.5780  214.2890  153.0120 O   0  0  0  0  0  0  0  0  0  0  0  0
  161.5360  208.3070  151.6270 O   0  0  0  0  0  0  0  0  0  0  0  0
  156.5550  213.4650  149.2740 C   0  0  0  0  0  3  0  0  0  0  0  0
  160.8670  209.7590  153.3460 N   0  0  0  0  0  0  0  0  0  0  0  0
  160.7460  213.7150  150.1850 C   0  0  0  0  0  2  0  0  0  0  0  0
  157.1320  214.4530  153.0580 O   0  0  0  0  0  0  0  0  0  0  0  0
  158.3170  213.6640  153.5390 S   0  0  0  0  0  0  0  0  0  0  0  0
  159.2960  212.6110  155.7520 C   0  0  1  0  0  3  0  0  0  0  0  0
  158.1600  211.9920  153.0200 N   0  0  2  0  0  0  0  0  0  0  0  0
  162.2950  211.1020  148.1590 O   0  0  0  0  0  0  0  0  0  0  0  0
  160.2980  211.6230  152.0060 N   0  0  1  0  0  0  0  0  0  0  0  0
  158.7460  211.3280  155.3300 N   0  0  0  0  0  2  0  0  0  0  0  0
  158.3720  213.7190  155.3050 C   0  0  0  0  0  2  0  0  0  0  0  0
  161.9600  211.7160  149.2040 C   0  0  0  0  0  0  0  0  0  0  0  0
  158.4330  212.6920  150.6220 C   0  0  0  0  0  0  0  0  0  0  0  0
  161.1180  209.4330  152.0070 C   0  0  0  0  0  0  0  0  0  0  0  0
  159.4140  212.6360  157.2610 C   0  0  0  0  0  1  0  0  0  0  0  0
  162.1530  211.0520  150.5280 C   0  0  0  0  0  2  0  0  0  0  0  0
  157.0790  212.6290  150.2610 C   0  0  0  0  0  3  0  0  0  0  0  0
  158.7340  214.4530  148.9630 C   0  0  0  0  0  3  0  0  0  0  0  0
  157.3820  214.3810  148.6280 C   0  0  0  0  0  3  0  0  0  0  0  0
  161.4460  213.0450  149.1010 N   0  0  0  0  0  2  0  0  0  0  0  0
  160.3630  211.1150  153.3970 C   0  0  1  0  0  3  0  0  0  0  0  0
  160.8350  210.5720  151.1190 C   0  0  2  0  0  3  0  0  0  0  0  0
  158.9280  211.1020  153.8880 C   0  0  2  0  0  3  0  0  0  0  0  0
  161.2170  208.9450  154.4980 C   0  0  0  0  0  1  0  0  0  0  0  0
  158.8590  211.7660  151.7480 C   0  0  2  0  0  3  0  0  0  0  0  0
  1  6  1  0  0  0  0
  1 16  1  0  0  0  0
  2  8  2  0  0  0  0
  3 17  2  0  0  0  0
  4 20  1  0  0  0  0
  5 24  1  0  0  0  0
  5 27  1  0  0  0  0
  7  8  2  0  0  0  0
  8 14  1  0  0  0  0
  9 18  1  1  0  0  0
 10  8  1  1  0  0  0
 10 26  1  0  0  0  0
 11 15  2  0  0  0  0
 12 24  1  0  0  0  0
 13  9  1  0  0  0  0
 14  9  1  0  0  0  0
 15 19  1  0  0  0  0
 16 28  1  0  0  0  0
 17  5  1  0  0  0  0
 19 25  1  0  0  0  0
 20 16  2  0  0  0  0
 21  1  2  0  0  0  0
 22 21  1  0  0  0  0
 22  4  2  0  0  0  0
 23 15  1  0  0  0  0
 23  6  1  0  0  0  0
 24 26  1  0  0  0  0
 25 12  1  0  0  0  0
 25 17  1  0  0  0  0
 26 13  1  0  0  0  0
 28 12  1  0  0  0  0
 28 10  1  0  0  0  0
M  END
>  <MODEL>
4

>  <REMARK>
 VINA RESULT:      -2.2      2.186      5.539
  Name = 
  0 active torsions:
  status: ('A' for Active; 'I' for Inactive)
                            x       y       z     vdW  Elec       q    Type
                         _______ _______ _______ _____ _____    ______ ____

>  <TORSDO>
F 0

$$$$
