=
 OpenBabel11122414233D

 34 42  0  0  1  0  0  0  0  0999 V2000
  160.9600  207.9510  154.1390 C   0  0  0  0  0  0  0  0  0  0  0  0
  162.2390  206.1960  152.8660 C   0  0  0  0  0  2  0  0  0  0  0  0
  159.6210  213.3010  155.9060 C   0  0  2  0  0  0  0  0  0  0  0  0
  159.1150  209.4100  154.7980 C   0  0  0  0  0  0  0  0  0  0  0  0
  158.9900  211.7900  153.8510 C   0  0  1  0  0  3  0  0  0  0  0  0
  160.4250  212.0080  156.0090 C   0  0  2  0  0  3  0  0  0  0  0  0
  160.6410  213.1250  157.0100 C   0  0  0  0  0  2  0  0  0  0  0  0
  157.7430  211.7070  156.7800 C   0  0  0  0  0  2  0  0  0  0  0  0
  162.3900  208.5010  152.0460 C   0  0  2  0  0  3  0  0  0  0  0  0
  161.6020  208.6120  148.8680 C   0  0  0  0  0  2  0  0  0  0  0  0
  159.6270  211.2120  152.5920 C   0  0  0  0  0  2  0  0  0  0  0  0
  157.1870  210.9910  155.5660 C   0  0  0  0  0  2  0  0  0  0  0  0
  161.2360  209.4650  151.6940 C   0  0  1  0  0  3  0  0  0  0  0  0
  163.0340  206.1850  151.5800 C   0  0  0  0  0  2  0  0  0  0  0  0
  158.2600  210.6260  154.5390 C   0  0  2  0  0  3  0  0  0  0  0  0
  158.1690  213.1210  156.3970 C   0  0  0  0  0  2  0  0  0  0  0  0
  161.7190  207.3760  149.7780 C   0  0  1  0  0  3  0  0  0  0  0  0
  160.2250  209.1420  153.9590 C   0  0  0  0  0  0  0  0  0  0  0  0
  160.0710  212.5740  154.6420 C   0  0  2  0  0  3  0  0  0  0  0  0
  160.7040  210.1660  152.9440 C   0  0  2  0  0  3  0  0  0  0  0  0
  159.4900  207.3210  155.9700 C   0  0  0  0  0  3  0  0  0  0  0  0
  162.3260  209.8570  149.3890 C   0  0  0  0  0  2  0  0  0  0  0  0
  158.7480  208.4840  155.7810 C   0  0  0  0  0  3  0  0  0  0  0  0
  161.6540  210.4790  150.6170 C   0  0  0  0  0  2  0  0  0  0  0  0
  162.7610  207.5200  150.9160 C   0  0  1  0  0  3  0  0  0  0  0  0
  160.5930  207.0610  155.1600 C   0  0  0  0  0  3  0  0  0  0  0  0
  162.1890  207.6490  153.3110 C   0  0  1  0  0  3  0  0  0  0  0  0
  160.4040  207.0160  150.2920 N   0  0  0  0  0  2  0  0  0  0  0  0
  159.8210  206.0510  149.3770 C   0  0  0  0  0  2  0  0  0  0  0  0
  161.4300  202.7110  149.2350 N   0  0  0  0  0  0  0  0  0  0  0  0
  160.3100  204.0860  150.7400 N   0  0  0  0  0  0  0  0  0  0  0  0
  160.4200  204.7130  149.6290 C   0  0  0  0  0  0  0  0  0  0  0  0
  160.9290  202.8490  150.5430 N   0  0  0  0  0  0  0  0  0  0  0  0
  161.0780  203.9380  148.6460 N   0  0  0  0  0  2  0  0  0  0  0  0
  1 26  1  0  0  0  0
  2 27  1  0  0  0  0
  3  6  1  0  0  0  0
  3 16  1  1  0  0  0
  3  7  1  0  0  0  0
  4 23  2  0  0  0  0
  5 11  1  6  0  0  0
  5 15  1  0  0  0  0
  5 19  1  0  0  0  0
  6  7  1  6  0  0  0
  9 27  1  0  0  0  0
 10 22  1  0  0  0  0
 10 17  1  0  0  0  0
 11 20  1  0  0  0  0
 12  8  1  0  0  0  0
 13  9  1  0  0  0  0
 13 20  1  0  0  0  0
 14  2  1  0  0  0  0
 15  4  1  0  0  0  0
 15 12  1  0  0  0  0
 16  8  1  0  0  0  0
 17 28  1  0  0  0  0
 17 25  1  0  0  0  0
 18  1  2  0  0  0  0
 18  4  1  0  0  0  0
 19  3  1  0  0  0  0
 19  6  1  0  0  0  0
 20 18  1  0  0  0  0
 22 24  1  0  0  0  0
 23 21  1  0  0  0  0
 24 13  1  0  0  0  0
 25 14  1  0  0  0  0
 25  9  1  0  0  0  0
 26 21  2  0  0  0  0
 27  1  1  0  0  0  0
 29 32  1  0  0  0  0
 29 28  1  0  0  0  0
 30 33  2  0  0  0  0
 32 31  2  0  0  0  0
 33 31  1  0  0  0  0
 34 30  1  0  0  0  0
 34 32  1  0  0  0  0
M  END
>  <MODEL>
1

>  <REMARK>
 VINA RESULT:      -3.9      0.000      0.000
  Name = 
  3 active torsions:
  status: ('A' for Active; 'I' for Inactive)
    1  A    between atoms: C_17  and  N_28
    2  A    between atoms: N_28  and  C_29
    3  A    between atoms: C_29  and  C_32
                            x       y       z     vdW  Elec       q    Type
                         _______ _______ _______ _____ _____    ______ ____

>  <TORSDO>
F 3

$$$$
=
 OpenBabel11122414233D

 34 42  0  0  1  0  0  0  0  0999 V2000
  160.9470  207.9410  154.0910 C   0  0  0  0  0  0  0  0  0  0  0  0
  162.1910  206.1960  152.7700 C   0  0  0  0  0  2  0  0  0  0  0  0
  159.7160  213.2670  156.0020 C   0  0  2  0  0  0  0  0  0  0  0  0
  159.1320  209.4180  154.7890 C   0  0  0  0  0  0  0  0  0  0  0  0
  159.0550  211.8250  153.9070 C   0  0  1  0  0  3  0  0  0  0  0  0
  160.4940  211.9560  156.0690 C   0  0  2  0  0  3  0  0  0  0  0  0
  160.7320  213.0410  157.1000 C   0  0  0  0  0  2  0  0  0  0  0  0
  157.8060  211.6880  156.8340 C   0  0  0  0  0  2  0  0  0  0  0  0
  162.3880  208.5190  152.0130 C   0  0  2  0  0  3  0  0  0  0  0  0
  161.6030  208.7300  148.8390 C   0  0  0  0  0  2  0  0  0  0  0  0
  159.6800  211.2680  152.6330 C   0  0  0  0  0  2  0  0  0  0  0  0
  157.2360  211.0160  155.6010 C   0  0  0  0  0  2  0  0  0  0  0  0
  161.2540  209.5150  151.6870 C   0  0  1  0  0  3  0  0  0  0  0  0
  162.9860  206.2040  151.4840 C   0  0  0  0  0  2  0  0  0  0  0  0
  158.3020  210.6580  154.5640 C   0  0  2  0  0  3  0  0  0  0  0  0
  158.2610  213.1040  156.4890 C   0  0  0  0  0  2  0  0  0  0  0  0
  161.6950  207.4690  149.7150 C   0  0  1  0  0  3  0  0  0  0  0  0
  160.2360  209.1510  153.9430 C   0  0  0  0  0  0  0  0  0  0  0  0
  160.1520  212.5650  154.7180 C   0  0  2  0  0  3  0  0  0  0  0  0
  160.7360  210.1920  152.9560 C   0  0  2  0  0  3  0  0  0  0  0  0
  159.4660  207.2920  155.9050 C   0  0  0  0  0  3  0  0  0  0  0  0
  162.3520  209.9470  149.3930 C   0  0  0  0  0  2  0  0  0  0  0  0
  158.7460  208.4730  155.7480 C   0  0  0  0  0  3  0  0  0  0  0  0
  161.6920  210.5480  150.6370 C   0  0  0  0  0  2  0  0  0  0  0  0
  162.7400  207.5610  150.8560 C   0  0  1  0  0  3  0  0  0  0  0  0
  160.5630  207.0320  155.0870 C   0  0  0  0  0  3  0  0  0  0  0  0
  162.1700  207.6370  153.2550 C   0  0  1  0  0  3  0  0  0  0  0  0
  160.3730  207.1210  150.2200 N   0  0  0  0  0  2  0  0  0  0  0  0
  160.1290  205.7270  149.8950 C   0  0  0  0  0  2  0  0  0  0  0  0
  161.1430  205.4510  146.3370 N   0  0  0  0  0  0  0  0  0  0  0  0
  161.5710  204.4520  148.3940 N   0  0  0  0  0  0  0  0  0  0  0  0
  160.7480  205.4160  148.5790 C   0  0  0  0  0  0  0  0  0  0  0  0
  161.8480  204.4450  147.0240 N   0  0  0  0  0  0  0  0  0  0  0  0
  160.4180  206.0700  147.3700 N   0  0  0  0  0  2  0  0  0  0  0  0
  1 26  1  0  0  0  0
  2 27  1  0  0  0  0
  3  6  1  0  0  0  0
  3 16  1  1  0  0  0
  3  7  1  0  0  0  0
  4 23  2  0  0  0  0
  5 11  1  6  0  0  0
  5 15  1  0  0  0  0
  5 19  1  0  0  0  0
  6  7  1  1  0  0  0
  9 27  1  0  0  0  0
 10 22  1  0  0  0  0
 10 17  1  0  0  0  0
 11 20  1  0  0  0  0
 12  8  1  0  0  0  0
 13  9  1  0  0  0  0
 13 20  1  0  0  0  0
 14  2  1  0  0  0  0
 15  4  1  0  0  0  0
 15 12  1  0  0  0  0
 16  8  1  0  0  0  0
 17 28  1  0  0  0  0
 17 25  1  0  0  0  0
 18  1  2  0  0  0  0
 18  4  1  0  0  0  0
 19  3  1  0  0  0  0
 19  6  1  0  0  0  0
 20 18  1  0  0  0  0
 22 24  1  0  0  0  0
 23 21  1  0  0  0  0
 24 13  1  0  0  0  0
 25 14  1  0  0  0  0
 25  9  1  0  0  0  0
 26 21  2  0  0  0  0
 27  1  1  0  0  0  0
 29 28  1  0  0  0  0
 30 33  2  0  0  0  0
 30 34  1  0  0  0  0
 31 32  2  0  0  0  0
 32 29  1  0  0  0  0
 33 31  1  0  0  0  0
 34 32  1  0  0  0  0
M  END
>  <MODEL>
2

>  <REMARK>
 VINA RESULT:      -3.8      0.787      1.188
  Name = 
  3 active torsions:
  status: ('A' for Active; 'I' for Inactive)
    1  A    between atoms: C_17  and  N_28
    2  A    between atoms: N_28  and  C_29
    3  A    between atoms: C_29  and  C_32
                            x       y       z     vdW  Elec       q    Type
                         _______ _______ _______ _____ _____    ______ ____

>  <TORSDO>
F 3

$$$$
=
 OpenBabel11122414233D

 34 42  0  0  1  0  0  0  0  0999 V2000
  159.8280  210.8050  152.4560 C   0  0  0  0  0  0  0  0  0  0  0  0
  159.5970  209.6580  154.6850 C   0  0  0  0  0  2  0  0  0  0  0  0
  158.0960  213.9070  147.8840 C   0  0  2  0  0  0  0  0  0  0  0  0
  160.5520  212.4320  150.7850 C   0  0  0  0  0  0  0  0  0  0  0  0
  159.0610  214.4530  150.2660 C   0  0  1  0  0  3  0  0  0  0  0  0
  158.2460  212.5920  148.6430 C   0  0  2  0  0  3  0  0  0  0  0  0
  157.6240  212.6110  147.2610 C   0  0  0  0  0  2  0  0  0  0  0  0
  160.6810  213.5870  147.6640 C   0  0  0  0  0  2  0  0  0  0  0  0
  157.9600  211.4020  154.1530 C   0  0  2  0  0  3  0  0  0  0  0  0
  157.8690  213.6220  156.5620 C   0  0  0  0  0  2  0  0  0  0  0  0
  158.6460  214.3930  151.7320 C   0  0  0  0  0  2  0  0  0  0  0  0
  161.2910  214.1250  148.9430 C   0  0  0  0  0  2  0  0  0  0  0  0
  158.2280  212.8570  153.7100 C   0  0  1  0  0  3  0  0  0  0  0  0
  158.7200  209.8630  155.8990 C   0  0  0  0  0  2  0  0  0  0  0  0
  160.4560  213.8130  150.1860 C   0  0  2  0  0  3  0  0  0  0  0  0
  159.4390  214.3960  147.3020 C   0  0  0  0  0  2  0  0  0  0  0  0
  158.6860  212.3200  156.4970 C   0  0  1  0  0  3  0  0  0  0  0  0
  159.6690  212.0580  151.8280 C   0  0  0  0  0  0  0  0  0  0  0  0
  157.9140  213.8700  149.3980 C   0  0  2  0  0  3  0  0  0  0  0  0
  158.4870  212.9340  152.2050 C   0  0  2  0  0  3  0  0  0  0  0  0
  161.7210  210.3200  151.0100 C   0  0  0  0  0  3  0  0  0  0  0  0
  156.6760  213.6730  155.6020 C   0  0  0  0  0  2  0  0  0  0  0  0
  161.5830  211.5660  150.4030 C   0  0  0  0  0  3  0  0  0  0  0  0
  157.0860  213.7960  154.1320 C   0  0  0  0  0  2  0  0  0  0  0  0
  158.0150  211.1870  155.6790 C   0  0  1  0  0  3  0  0  0  0  0  0
  160.8450  209.9400  152.0240 C   0  0  0  0  0  3  0  0  0  0  0  0
  158.8740  210.3330  153.5310 C   0  0  1  0  0  3  0  0  0  0  0  0
  160.0330  212.6060  156.0190 N   0  0  0  0  0  2  0  0  0  0  0  0
  160.8850  212.7830  157.1810 C   0  0  0  0  0  2  0  0  0  0  0  0
  163.8170  210.5100  157.2500 N   0  0  0  0  0  0  0  0  0  0  0  0
  161.4930  210.4190  157.2530 N   0  0  0  0  0  0  0  0  0  0  0  0
  161.8460  211.6500  157.2610 C   0  0  0  0  0  0  0  0  0  0  0  0
  162.6800  209.6810  157.2560 N   0  0  0  0  0  0  0  0  0  0  0  0
  163.2530  211.7980  157.2420 N   0  0  0  0  0  2  0  0  0  0  0  0
  1 27  1  0  0  0  0
  2 14  1  0  0  0  0
  3  7  1  6  0  0  0
  3  6  1  0  0  0  0
  3 19  1  0  0  0  0
  4 18  1  0  0  0  0
  5 11  1  1  0  0  0
  6  7  1  6  0  0  0
  6 19  1  0  0  0  0
  8 12  1  0  0  0  0
  9 25  1  0  0  0  0
 11 20  1  0  0  0  0
 12 15  1  0  0  0  0
 13 24  1  0  0  0  0
 13  9  1  0  0  0  0
 15  5  1  0  0  0  0
 15  4  1  0  0  0  0
 16  8  1  0  0  0  0
 16  3  1  0  0  0  0
 17 10  1  0  0  0  0
 18 20  1  0  0  0  0
 18  1  2  0  0  0  0
 19  5  1  0  0  0  0
 20 13  1  0  0  0  0
 21 26  2  0  0  0  0
 22 10  1  0  0  0  0
 23  4  2  0  0  0  0
 23 21  1  0  0  0  0
 24 22  1  0  0  0  0
 25 14  1  0  0  0  0
 25 17  1  0  0  0  0
 26  1  1  0  0  0  0
 27  9  1  0  0  0  0
 27  2  1  0  0  0  0
 28 17  1  0  0  0  0
 28 29  1  0  0  0  0
 29 32  1  0  0  0  0
 30 33  2  0  0  0  0
 31 33  1  0  0  0  0
 31 32  2  0  0  0  0
 34 30  1  0  0  0  0
 34 32  1  0  0  0  0
M  END
>  <MODEL>
3

>  <REMARK>
 VINA RESULT:      -2.6      4.315      7.659
  Name = 
  3 active torsions:
  status: ('A' for Active; 'I' for Inactive)
    1  A    between atoms: C_17  and  N_28
    2  A    between atoms: N_28  and  C_29
    3  A    between atoms: C_29  and  C_32
                            x       y       z     vdW  Elec       q    Type
                         _______ _______ _______ _____ _____    ______ ____

>  <TORSDO>
F 3

$$$$
=
 OpenBabel11122414233D

 34 42  0  0  1  0  0  0  0  0999 V2000
  160.8010  210.0890  151.6070 C   0  0  0  0  0  0  0  0  0  0  0  0
  160.9570  208.6470  153.6650 C   0  0  0  0  0  2  0  0  0  0  0  0
  158.4850  214.0410  148.0640 C   0  0  2  0  0  0  0  0  0  0  0  0
  161.3280  211.8580  150.0080 C   0  0  0  0  0  0  0  0  0  0  0  0
  160.0840  214.0960  150.1490 C   0  0  1  0  0  3  0  0  0  0  0  0
  158.6150  212.6160  148.5950 C   0  0  2  0  0  3  0  0  0  0  0  0
  157.6800  212.9210  147.4420 C   0  0  0  0  0  2  0  0  0  0  0  0
  160.8540  213.4560  147.1250 C   0  0  0  0  0  2  0  0  0  0  0  0
  159.5270  210.6340  153.8000 C   0  0  2  0  0  3  0  0  0  0  0  0
  160.3800  212.4510  156.3900 C   0  0  0  0  0  2  0  0  0  0  0  0
  160.0420  213.8600  151.6540 C   0  0  0  0  0  2  0  0  0  0  0  0
  161.8370  213.7150  148.2480 C   0  0  0  0  0  2  0  0  0  0  0  0
  159.8970  212.0980  153.4760 C   0  0  1  0  0  3  0  0  0  0  0  0
  160.4510  208.7650  155.0850 C   0  0  0  0  0  2  0  0  0  0  0  0
  161.3000  213.3160  149.6230 C   0  0  2  0  0  3  0  0  0  0  0  0
  159.7010  214.4520  147.2060 C   0  0  0  0  0  2  0  0  0  0  0  0
  160.9450  211.0870  155.9560 C   0  0  1  0  0  3  0  0  0  0  0  0
  160.6850  211.4340  151.1970 C   0  0  0  0  0  0  0  0  0  0  0  0
  158.6810  213.7920  149.5570 C   0  0  2  0  0  3  0  0  0  0  0  0
  159.7830  212.3750  151.9770 C   0  0  2  0  0  3  0  0  0  0  0  0
  162.1770  209.6140  149.6610 C   0  0  0  0  0  3  0  0  0  0  0  0
  159.0080  212.7890  155.7970 C   0  0  0  0  0  2  0  0  0  0  0  0
  162.0850  210.9450  149.2640 C   0  0  0  0  0  3  0  0  0  0  0  0
  159.0550  213.0890  154.2960 C   0  0  0  0  0  2  0  0  0  0  0  0
  159.9270  210.1810  155.2190 C   0  0  1  0  0  3  0  0  0  0  0  0
  161.5330  209.1880  150.8200 C   0  0  0  0  0  3  0  0  0  0  0  0
  160.0830  209.5730  152.8340 C   0  0  1  0  0  3  0  0  0  0  0  0
  162.1590  211.2840  155.1720 N   0  0  0  0  0  2  0  0  0  0  0  0
  163.2080  210.4830  155.7760 C   0  0  0  0  0  2  0  0  0  0  0  0
  166.3460  212.4630  155.7860 N   0  0  0  0  0  0  0  0  0  0  0  0
  164.6670  211.7790  157.2430 N   0  0  0  0  0  0  0  0  0  0  0  0
  164.3800  211.3510  156.0710 C   0  0  0  0  0  0  0  0  0  0  0  0
  165.8690  212.4790  157.1100 N   0  0  0  0  0  0  0  0  0  0  0  0
  165.3630  211.7100  155.1200 N   0  0  0  0  0  2  0  0  0  0  0  0
  1 27  1  0  0  0  0
  2 14  1  0  0  0  0
  3 16  1  6  0  0  0
  3  6  1  0  0  0  0
  3 19  1  0  0  0  0
  4 18  2  0  0  0  0
  5 11  1  1  0  0  0
  6  7  1  1  0  0  0
  6 19  1  0  0  0  0
  7  3  1  0  0  0  0
  8 16  1  0  0  0  0
  8 12  1  0  0  0  0
  9 25  1  0  0  0  0
 11 20  1  0  0  0  0
 12 15  1  0  0  0  0
 13  9  1  0  0  0  0
 13 24  1  0  0  0  0
 14 25  1  0  0  0  0
 15  4  1  0  0  0  0
 15  5  1  0  0  0  0
 17 10  1  0  0  0  0
 18  1  1  0  0  0  0
 18 20  1  0  0  0  0
 19  5  1  0  0  0  0
 20 13  1  0  0  0  0
 21 26  1  0  0  0  0
 22 10  1  0  0  0  0
 23 21  2  0  0  0  0
 23  4  1  0  0  0  0
 24 22  1  0  0  0  0
 25 17  1  0  0  0  0
 26  1  2  0  0  0  0
 27  2  1  0  0  0  0
 27  9  1  0  0  0  0
 28 29  1  0  0  0  0
 28 17  1  0  0  0  0
 29 32  1  0  0  0  0
 30 33  2  0  0  0  0
 32 31  2  0  0  0  0
 33 31  1  0  0  0  0
 34 30  1  0  0  0  0
 34 32  1  0  0  0  0
M  END
>  <MODEL>
4

>  <REMARK>
 VINA RESULT:      -2.5      4.361      7.470
  Name = 
  3 active torsions:
  status: ('A' for Active; 'I' for Inactive)
    1  A    between atoms: C_17  and  N_28
    2  A    between atoms: N_28  and  C_29
    3  A    between atoms: C_29  and  C_32
                            x       y       z     vdW  Elec       q    Type
                         _______ _______ _______ _____ _____    ______ ____

>  <TORSDO>
F 3

$$$$
=
 OpenBabel11122414233D

 34 42  0  0  1  0  0  0  0  0999 V2000
  162.1670  209.0800  150.1390 C   0  0  0  0  0  0  0  0  0  0  0  0
  162.4490  210.5560  152.1590 C   0  0  0  0  0  2  0  0  0  0  0  0
  162.3550  204.1500  147.1060 C   0  0  2  0  0  0  0  0  0  0  0  0
  161.0610  207.8020  148.3760 C   0  0  0  0  0  0  0  0  0  0  0  0
  160.6250  205.2990  148.7170 C   0  0  1  0  0  3  0  0  0  0  0  0
  162.9960  205.4210  147.6550 C   0  0  2  0  0  3  0  0  0  0  0  0
  163.7890  204.4900  146.7610 C   0  0  0  0  0  2  0  0  0  0  0  0
  161.1150  205.9170  145.6310 C   0  0  0  0  0  2  0  0  0  0  0  0
  162.3080  208.1410  152.5530 C   0  0  2  0  0  3  0  0  0  0  0  0
  159.9680  207.5030  154.7550 C   0  0  0  0  0  2  0  0  0  0  0  0
  160.4560  205.6340  150.1940 C   0  0  0  0  0  2  0  0  0  0  0  0
  159.9520  206.4250  146.4570 C   0  0  0  0  0  2  0  0  0  0  0  0
  161.2150  207.1600  152.0770 C   0  0  1  0  0  3  0  0  0  0  0  0
  162.4400  210.3260  153.6530 C   0  0  0  0  0  2  0  0  0  0  0  0
  160.2890  206.5810  147.9410 C   0  0  2  0  0  3  0  0  0  0  0  0
  161.3750  204.4470  145.9520 C   0  0  0  0  0  2  0  0  0  0  0  0
  160.4600  208.8730  154.2580 C   0  0  1  0  0  3  0  0  0  0  0  0
  161.5360  207.8940  149.7070 C   0  0  0  0  0  0  0  0  0  0  0  0
  162.0150  204.6370  148.5120 C   0  0  2  0  0  3  0  0  0  0  0  0
  161.4780  206.6990  150.6430 C   0  0  2  0  0  3  0  0  0  0  0  0
  161.8480  210.0530  147.9340 C   0  0  0  0  0  3  0  0  0  0  0  0
  160.9460  206.3490  154.5100 C   0  0  0  0  0  2  0  0  0  0  0  0
  161.2040  208.8930  147.5100 C   0  0  0  0  0  3  0  0  0  0  0  0
  161.0720  205.9650  153.0330 C   0  0  0  0  0  2  0  0  0  0  0  0
  161.9530  208.9030  153.8460 C   0  0  1  0  0  3  0  0  0  0  0  0
  162.3330  210.1410  149.2370 C   0  0  0  0  0  3  0  0  0  0  0  0
  162.7470  209.2040  151.5310 C   0  0  1  0  0  3  0  0  0  0  0  0
  159.5940  209.3490  153.1870 N   0  0  0  0  0  2  0  0  0  0  0  0
  158.6850  210.3280  153.7560 C   0  0  0  0  0  2  0  0  0  0  0  0
  158.9550  213.9160  152.8490 N   0  0  0  0  0  0  0  0  0  0  0  0
  159.4250  211.8160  151.9660 N   0  0  0  0  0  0  0  0  0  0  0  0
  158.9550  211.6590  153.1480 C   0  0  0  0  0  0  0  0  0  0  0  0
  159.4510  213.1960  151.7460 N   0  0  0  0  0  0  0  0  0  0  0  0
  158.6250  212.8930  153.7550 N   0  0  0  0  0  2  0  0  0  0  0  0
  1 27  1  0  0  0  0
  2 14  1  0  0  0  0
  3 16  1  6  0  0  0
  3  6  1  0  0  0  0
  3 19  1  0  0  0  0
  4 18  2  0  0  0  0
  5 11  1  1  0  0  0
  6  7  1  1  0  0  0
  6 19  1  0  0  0  0
  7  3  1  0  0  0  0
  8 16  1  0  0  0  0
  8 12  1  0  0  0  0
  9 25  1  0  0  0  0
 11 20  1  0  0  0  0
 12 15  1  0  0  0  0
 13  9  1  0  0  0  0
 13 24  1  0  0  0  0
 14 25  1  0  0  0  0
 15  4  1  0  0  0  0
 15  5  1  0  0  0  0
 17 10  1  0  0  0  0
 18  1  1  0  0  0  0
 18 20  1  0  0  0  0
 19  5  1  0  0  0  0
 20 13  1  0  0  0  0
 21 26  1  0  0  0  0
 22 10  1  0  0  0  0
 23 21  2  0  0  0  0
 23  4  1  0  0  0  0
 24 22  1  0  0  0  0
 25 17  1  0  0  0  0
 26  1  2  0  0  0  0
 27  2  1  0  0  0  0
 27  9  1  0  0  0  0
 28 29  1  0  0  0  0
 28 17  1  0  0  0  0
 30 34  1  0  0  0  0
 31 32  2  0  0  0  0
 32 34  1  0  0  0  0
 32 29  1  0  0  0  0
 33 31  1  0  0  0  0
 33 30  2  0  0  0  0
M  END
>  <MODEL>
5

>  <REMARK>
 VINA RESULT:      -1.3      3.088      8.180
  Name = 
  3 active torsions:
  status: ('A' for Active; 'I' for Inactive)
    1  A    between atoms: C_17  and  N_28
    2  A    between atoms: N_28  and  C_29
    3  A    between atoms: C_29  and  C_32
                            x       y       z     vdW  Elec       q    Type
                         _______ _______ _______ _____ _____    ______ ____

>  <TORSDO>
F 3

$$$$
