=
 OpenBabel11122414383D

 34 40  0  0  1  0  0  0  0  0999 V2000
  161.1040  207.1170  154.3500 C   0  0  0  0  0  0  0  0  0  0  0  0
  160.8110  205.3270  152.6230 C   0  0  0  0  0  2  0  0  0  0  0  0
  158.7860  213.2780  154.9070 C   0  0  0  0  0  0  0  0  0  0  0  0
  160.0680  209.0720  155.3280 C   0  0  0  0  0  0  0  0  0  0  0  0
  159.9610  211.2140  153.9450 C   0  0  2  0  0  3  0  0  0  0  0  0
  159.7170  213.2540  152.7020 O   0  0  0  0  0  1  0  0  0  0  0  0
  159.2240  214.4530  155.0130 O   0  0  0  0  0  0  0  0  0  0  0  0
  157.9660  211.4610  156.4130 C   0  0  0  0  0  2  0  0  0  0  0  0
  162.1070  207.2350  152.0100 C   0  0  2  0  0  3  0  0  0  0  0  0
  162.3140  207.9900  149.0470 C   0  0  0  0  0  2  0  0  0  0  0  0
  159.8420  210.2850  152.7390 C   0  0  0  0  0  2  0  0  0  0  0  0
  158.1560  210.5120  155.4010 O   0  0  0  0  0  0  0  0  0  0  0  0
  161.1700  208.4310  151.7250 C   0  0  1  0  0  3  0  0  0  0  0  0
  161.2880  205.0570  151.2720 N   0  0  0  0  0  2  0  0  0  0  0  0
  159.5450  210.4790  155.2320 C   0  0  1  0  0  3  0  0  0  0  0  0
  157.9150  212.7890  155.8890 O   0  0  0  0  0  0  0  0  0  0  0  0
  161.6610  206.6820  149.4700 C   0  0  2  0  0  3  0  0  0  0  0  0
  160.5950  208.4130  154.2010 C   0  0  0  0  0  0  0  0  0  0  0  0
  159.1100  212.4620  153.6790 C   0  0  2  0  0  3  0  0  0  0  0  0
  160.6450  209.0810  152.9290 N   0  0  0  0  0  0  0  0  0  0  0  0
  160.5050  207.1710  156.6860 C   0  0  0  0  0  3  0  0  0  0  0  0
  161.5240  209.1540  149.6310 C   0  0  0  0  0  2  0  0  0  0  0  0
  160.0320  208.4360  156.5300 N   0  0  0  0  0  0  0  0  0  0  0  0
  161.8850  209.3690  150.9650 O   0  0  0  0  0  0  0  0  0  0  0  0
  162.1040  206.2040  150.8650 C   0  0  1  0  0  3  0  0  0  0  0  0
  161.0520  206.4920  155.5980 C   0  0  0  0  0  3  0  0  0  0  0  0
  161.7130  206.3860  153.1980 C   0  0  1  0  0  3  0  0  0  0  0  0
  161.9530  205.6950  148.5240 O   0  0  0  0  0  0  0  0  0  0  0  0
  162.3030  206.3980  147.3690 C   0  0  0  0  0  2  0  0  0  0  0  0
  161.0560  203.1830  145.2780 S   0  0  0  0  0  0  0  0  0  0  0  0
  160.8110  205.8720  145.4440 C   0  0  0  0  0  2  0  0  0  0  0  0
  162.1000  205.5200  146.1480 C   0  0  2  0  0  3  0  0  0  0  0  0
  160.5200  204.7360  144.4920 C   0  0  0  0  0  2  0  0  0  0  0  0
  161.9810  204.0740  146.5680 C   0  0  0  0  0  2  0  0  0  0  0  0
  1 26  1  0  0  0  0
  2 27  1  0  0  0  0
  3  7  2  0  0  0  0
  3 16  1  0  0  0  0
  4 23  2  0  0  0  0
  5 11  1  6  0  0  0
  5 15  1  0  0  0  0
  6 19  1  0  0  0  0
  9 27  1  0  0  0  0
 10 17  1  0  0  0  0
 10 22  1  0  0  0  0
 11 20  1  0  0  0  0
 12  8  1  0  0  0  0
 13  9  1  0  0  0  0
 13 20  1  0  0  0  0
 14  2  1  0  0  0  0
 15  4  1  0  0  0  0
 15 12  1  0  0  0  0
 16  8  1  0  0  0  0
 17 25  1  0  0  0  0
 18  1  2  0  0  0  0
 18  4  1  0  0  0  0
 19  5  1  0  0  0  0
 19  3  1  0  0  0  0
 20 18  1  0  0  0  0
 22 24  1  0  0  0  0
 23 21  1  0  0  0  0
 24 13  1  0  0  0  0
 25 14  1  0  0  0  0
 25  9  1  0  0  0  0
 26 21  2  0  0  0  0
 27  1  1  0  0  0  0
 28 17  1  0  0  0  0
 29 28  1  0  0  0  0
 30 34  1  0  0  0  0
 31 32  1  0  0  0  0
 32 34  1  0  0  0  0
 32 29  1  0  0  0  0
 33 30  1  0  0  0  0
 33 31  1  0  0  0  0
M  END
>  <MODEL>
1

>  <REMARK>
 VINA RESULT:      -8.1      0.000      0.000
  Name = 
  3 active torsions:
  status: ('A' for Active; 'I' for Inactive)
    1  A    between atoms: C_17  and  O_28
    2  A    between atoms: O_28  and  C_29
    3  A    between atoms: C_29  and  C_32
                            x       y       z     vdW  Elec       q    Type
                         _______ _______ _______ _____ _____    ______ ____

>  <TORSDO>
F 3

$$$$
=
 OpenBabel11122414383D

 34 40  0  0  1  0  0  0  0  0999 V2000
  161.7600  209.6010  151.0720 C   0  0  0  0  0  0  0  0  0  0  0  0
  160.4040  211.3490  152.2470 C   0  0  0  0  0  2  0  0  0  0  0  0
  161.1290  203.0550  150.4510 C   0  0  0  0  0  0  0  0  0  0  0  0
  161.6510  207.4200  150.0300 C   0  0  0  0  0  0  0  0  0  0  0  0
  161.3480  205.3720  151.5220 C   0  0  2  0  0  3  0  0  0  0  0  0
  160.9660  203.3860  152.8170 O   0  0  0  0  0  1  0  0  0  0  0  0
  161.7810  202.0080  150.7050 O   0  0  0  0  0  0  0  0  0  0  0  0
  160.7350  204.5690  148.5030 C   0  0  0  0  0  2  0  0  0  0  0  0
  161.6280  209.8170  153.6080 C   0  0  2  0  0  3  0  0  0  0  0  0
  160.6400  209.2570  156.4540 C   0  0  0  0  0  2  0  0  0  0  0  0
  160.5350  206.3000  152.4230 C   0  0  0  0  0  2  0  0  0  0  0  0
  160.2770  205.5780  149.3580 O   0  0  0  0  0  0  0  0  0  0  0  0
  160.9040  208.4510  153.6340 C   0  0  1  0  0  3  0  0  0  0  0  0
  160.1740  211.7780  153.6210 N   0  0  0  0  0  2  0  0  0  0  0  0
  161.4140  205.9370  150.0910 C   0  0  1  0  0  3  0  0  0  0  0  0
  160.7080  203.2880  149.1360 O   0  0  0  0  0  0  0  0  0  0  0  0
  160.0100  210.3610  155.6180 C   0  0  2  0  0  3  0  0  0  0  0  0
  161.4910  208.2300  151.1710 C   0  0  0  0  0  0  0  0  0  0  0  0
  160.7170  203.9750  151.5740 C   0  0  2  0  0  3  0  0  0  0  0  0
  161.0980  207.6470  152.4240 N   0  0  0  0  0  0  0  0  0  0  0  0
  162.2780  209.3110  148.7340 C   0  0  0  0  0  3  0  0  0  0  0  0
  160.4250  207.9190  155.7600 C   0  0  0  0  0  2  0  0  0  0  0  0
  162.0320  207.9800  148.8500 N   0  0  0  0  0  0  0  0  0  0  0  0
  161.3720  207.7360  154.7470 O   0  0  0  0  0  0  0  0  0  0  0  0
  160.9250  210.8680  154.4890 C   0  0  1  0  0  3  0  0  0  0  0  0
  162.1500  210.1440  149.8450 C   0  0  0  0  0  3  0  0  0  0  0  0
  161.6480  210.5010  152.2600 C   0  0  1  0  0  3  0  0  0  0  0  0
  159.6620  211.4280  156.4510 O   0  0  0  0  0  0  0  0  0  0  0  0
  158.3540  211.1530  156.8590 C   0  0  0  0  0  2  0  0  0  0  0  0
  157.2610  214.4530  154.8130 S   0  0  0  0  0  0  0  0  0  0  0  0
  156.7820  211.8000  155.0370 C   0  0  0  0  0  2  0  0  0  0  0  0
  157.4160  212.2280  156.3390 C   0  0  2  0  0  3  0  0  0  0  0  0
  156.1750  213.0430  154.4290 C   0  0  0  0  0  2  0  0  0  0  0  0
  158.1900  213.4920  156.0490 C   0  0  0  0  0  2  0  0  0  0  0  0
  1 18  1  0  0  0  0
  1 27  1  0  0  0  0
  2 27  1  0  0  0  0
  2 14  1  0  0  0  0
  3  7  2  0  0  0  0
  3 19  1  0  0  0  0
  4 15  1  0  0  0  0
  4 18  2  0  0  0  0
  5 19  1  0  0  0  0
  5 11  1  1  0  0  0
  8 16  1  0  0  0  0
  8 12  1  0  0  0  0
  9 13  1  0  0  0  0
  9 25  1  0  0  0  0
 11 20  1  0  0  0  0
 12 15  1  0  0  0  0
 13 24  1  0  0  0  0
 14 25  1  0  0  0  0
 15  5  1  0  0  0  0
 16  3  1  0  0  0  0
 17 28  1  0  0  0  0
 17 10  1  0  0  0  0
 18 20  1  0  0  0  0
 19  6  1  0  0  0  0
 20 13  1  0  0  0  0
 21 23  2  0  0  0  0
 21 26  1  0  0  0  0
 22 10  1  0  0  0  0
 23  4  1  0  0  0  0
 24 22  1  0  0  0  0
 25 17  1  0  0  0  0
 26  1  2  0  0  0  0
 27  9  1  0  0  0  0
 28 29  1  0  0  0  0
 30 34  1  0  0  0  0
 31 32  1  0  0  0  0
 32 29  1  0  0  0  0
 33 30  1  0  0  0  0
 33 31  1  0  0  0  0
 34 32  1  0  0  0  0
M  END
>  <MODEL>
2

>  <REMARK>
 VINA RESULT:      -7.8      3.422      8.829
  Name = 
  3 active torsions:
  status: ('A' for Active; 'I' for Inactive)
    1  A    between atoms: C_17  and  O_28
    2  A    between atoms: O_28  and  C_29
    3  A    between atoms: C_29  and  C_32
                            x       y       z     vdW  Elec       q    Type
                         _______ _______ _______ _____ _____    ______ ____

>  <TORSDO>
F 3

$$$$
=
 OpenBabel11122414383D

 34 40  0  0  1  0  0  0  0  0999 V2000
  161.1980  207.2490  154.2510 C   0  0  0  0  0  0  0  0  0  0  0  0
  161.0630  205.4530  152.5100 C   0  0  0  0  0  2  0  0  0  0  0  0
  158.4930  213.2540  154.7640 C   0  0  0  0  0  0  0  0  0  0  0  0
  160.0170  209.1320  155.2070 C   0  0  0  0  0  0  0  0  0  0  0  0
  159.8190  211.2710  153.8280 C   0  0  2  0  0  3  0  0  0  0  0  0
  159.4850  213.2980  152.5860 O   0  0  0  0  0  1  0  0  0  0  0  0
  158.8560  214.4530  154.8860 O   0  0  0  0  0  0  0  0  0  0  0  0
  157.7440  211.3830  156.2400 C   0  0  0  0  0  2  0  0  0  0  0  0
  162.2570  207.4400  151.9410 C   0  0  2  0  0  3  0  0  0  0  0  0
  162.5000  208.2210  148.9880 C   0  0  0  0  0  2  0  0  0  0  0  0
  159.7900  210.3430  152.6170 C   0  0  0  0  0  2  0  0  0  0  0  0
  158.0200  210.4530  155.2310 O   0  0  0  0  0  0  0  0  0  0  0  0
  161.2560  208.5780  151.6330 C   0  0  1  0  0  3  0  0  0  0  0  0
  161.5930  205.2200  151.1720 N   0  0  0  0  0  2  0  0  0  0  0  0
  159.4120  210.5050  155.1010 C   0  0  1  0  0  3  0  0  0  0  0  0
  157.6270  212.7080  155.7200 O   0  0  0  0  0  0  0  0  0  0  0  0
  161.9160  206.8730  149.3880 C   0  0  2  0  0  3  0  0  0  0  0  0
  160.6150  208.5120  154.0930 C   0  0  0  0  0  0  0  0  0  0  0  0
  158.9000  212.4660  153.5430 C   0  0  2  0  0  3  0  0  0  0  0  0
  160.6600  209.1880  152.8250 N   0  0  0  0  0  0  0  0  0  0  0  0
  160.5310  207.2540  156.5700 C   0  0  0  0  0  3  0  0  0  0  0  0
  161.6250  209.3330  149.5530 C   0  0  0  0  0  2  0  0  0  0  0  0
  159.9870  208.4890  156.4050 N   0  0  0  0  0  0  0  0  0  0  0  0
  161.9340  209.5610  150.8980 O   0  0  0  0  0  0  0  0  0  0  0  0
  162.3480  206.4160  150.7930 C   0  0  1  0  0  3  0  0  0  0  0  0
  161.1500  206.6150  155.4950 C   0  0  0  0  0  3  0  0  0  0  0  0
  161.8820  206.5630  153.1140 C   0  0  1  0  0  3  0  0  0  0  0  0
  162.2940  205.9120  148.4470 O   0  0  0  0  0  0  0  0  0  0  0  0
  161.1320  205.1760  148.2000 C   0  0  0  0  0  2  0  0  0  0  0  0
  160.6760  201.1690  148.2250 S   0  0  0  0  0  0  0  0  0  0  0  0
  160.9400  203.2970  146.5750 C   0  0  0  0  0  2  0  0  0  0  0  0
  161.4880  203.7290  147.9140 C   0  0  2  0  0  3  0  0  0  0  0  0
  161.0190  201.7880  146.5470 C   0  0  0  0  0  2  0  0  0  0  0  0
  160.8560  202.8290  148.9500 C   0  0  0  0  0  2  0  0  0  0  0  0
  1 26  1  0  0  0  0
  2 27  1  0  0  0  0
  3  7  2  0  0  0  0
  3 16  1  0  0  0  0
  4 23  2  0  0  0  0
  5 11  1  6  0  0  0
  5 15  1  0  0  0  0
  6 19  1  0  0  0  0
  9 27  1  0  0  0  0
 10 17  1  0  0  0  0
 10 22  1  0  0  0  0
 11 20  1  0  0  0  0
 12  8  1  0  0  0  0
 13  9  1  0  0  0  0
 13 20  1  0  0  0  0
 14  2  1  0  0  0  0
 15  4  1  0  0  0  0
 15 12  1  0  0  0  0
 16  8  1  0  0  0  0
 17 25  1  0  0  0  0
 18  1  2  0  0  0  0
 18  4  1  0  0  0  0
 19  5  1  0  0  0  0
 19  3  1  0  0  0  0
 20 18  1  0  0  0  0
 22 24  1  0  0  0  0
 23 21  1  0  0  0  0
 24 13  1  0  0  0  0
 25 14  1  0  0  0  0
 25  9  1  0  0  0  0
 26 21  2  0  0  0  0
 27  1  1  0  0  0  0
 28 17  1  0  0  0  0
 29 28  1  0  0  0  0
 30 34  1  0  0  0  0
 31 32  1  0  0  0  0
 32 29  1  0  0  0  0
 32 34  1  0  0  0  0
 33 31  1  0  0  0  0
 33 30  1  0  0  0  0
M  END
>  <MODEL>
3

>  <REMARK>
 VINA RESULT:      -7.3      1.082      1.267
  Name = 
  3 active torsions:
  status: ('A' for Active; 'I' for Inactive)
    1  A    between atoms: C_17  and  O_28
    2  A    between atoms: O_28  and  C_29
    3  A    between atoms: C_29  and  C_32
                            x       y       z     vdW  Elec       q    Type
                         _______ _______ _______ _____ _____    ______ ____

>  <TORSDO>
F 3

$$$$
=
 OpenBabel11122414383D

 34 40  0  0  1  0  0  0  0  0999 V2000
  160.8320  204.0150  151.4130 C   0  0  0  0  0  0  0  0  0  0  0  0
  162.2900  205.7490  152.4800 C   0  0  0  0  0  2  0  0  0  0  0  0
  160.7620  201.2380  145.4190 C   0  0  0  0  0  0  0  0  0  0  0  0
  160.7670  202.3010  149.7070 C   0  0  0  0  0  0  0  0  0  0  0  0
  160.7310  203.0220  147.2580 C   0  0  2  0  0  3  0  0  0  0  0  0
  160.7940  203.5790  144.9240 O   0  0  0  0  0  1  0  0  0  0  0  0
  159.9800  201.1040  144.4420 O   0  0  0  0  0  0  0  0  0  0  0  0
  161.4610  199.9280  147.4290 C   0  0  0  0  0  2  0  0  0  0  0  0
  160.8080  206.4770  150.7560 C   0  0  2  0  0  3  0  0  0  0  0  0
  161.5220  208.9940  149.1620 C   0  0  0  0  0  2  0  0  0  0  0  0
  161.5770  204.2060  147.7210 C   0  0  0  0  0  2  0  0  0  0  0  0
  161.9690  201.0860  148.0290 O   0  0  0  0  0  0  0  0  0  0  0  0
  161.3700  206.0610  149.3780 C   0  0  1  0  0  3  0  0  0  0  0  0
  162.4690  207.1930  152.3960 N   0  0  0  0  0  2  0  0  0  0  0  0
  160.8310  201.8640  148.2690 C   0  0  1  0  0  3  0  0  0  0  0  0
  161.2990  200.0910  146.0190 O   0  0  0  0  0  0  0  0  0  0  0  0
  162.3310  208.5990  150.3890 C   0  0  2  0  0  3  0  0  0  0  0  0
  160.9360  203.6520  150.0650 C   0  0  0  0  0  0  0  0  0  0  0  0
  161.1950  202.6170  145.8540 C   0  0  2  0  0  3  0  0  0  0  0  0
  161.1720  204.6460  149.0530 N   0  0  0  0  0  0  0  0  0  0  0  0
  160.4510  201.7020  151.9840 C   0  0  0  0  0  3  0  0  0  0  0  0
  161.6340  207.8950  148.1130 C   0  0  0  0  0  2  0  0  0  0  0  0
  160.5360  201.3690  150.6700 N   0  0  0  0  0  0  0  0  0  0  0  0
  160.7470  206.8530  148.4020 O   0  0  0  0  0  0  0  0  0  0  0  0
  161.5610  207.6810  151.3560 C   0  0  1  0  0  3  0  0  0  0  0  0
  160.5940  203.0330  152.3780 C   0  0  0  0  0  3  0  0  0  0  0  0
  160.9610  205.4390  151.8450 C   0  0  1  0  0  3  0  0  0  0  0  0
  162.7370  209.7520  151.0640 O   0  0  0  0  0  0  0  0  0  0  0  0
  161.6110  210.5790  151.0700 C   0  0  0  0  0  2  0  0  0  0  0  0
  161.1770  211.0780  155.0480 S   0  0  0  0  0  0  0  0  0  0  0  0
  160.0830  211.7350  152.6630 C   0  0  0  0  0  2  0  0  0  0  0  0
  160.9210  210.5020  152.4200 C   0  0  2  0  0  3  0  0  0  0  0  0
  159.7460  211.7390  154.1360 C   0  0  0  0  0  2  0  0  0  0  0  0
  161.9520  210.4570  153.5230 C   0  0  0  0  0  2  0  0  0  0  0  0
  1 27  1  0  0  0  0
  1 26  1  0  0  0  0
  3 19  1  0  0  0  0
  3 16  1  0  0  0  0
  4 18  1  0  0  0  0
  4 23  2  0  0  0  0
  5 11  1  1  0  0  0
  5 15  1  0  0  0  0
  6 19  1  0  0  0  0
  7  3  2  0  0  0  0
  8 12  1  0  0  0  0
  9 25  1  0  0  0  0
  9 27  1  0  0  0  0
 10 17  1  0  0  0  0
 11 20  1  0  0  0  0
 12 15  1  0  0  0  0
 13  9  1  0  0  0  0
 14  2  1  0  0  0  0
 15  4  1  0  0  0  0
 16  8  1  0  0  0  0
 17 28  1  0  0  0  0
 17 25  1  0  0  0  0
 18  1  2  0  0  0  0
 19  5  1  0  0  0  0
 20 13  1  0  0  0  0
 20 18  1  0  0  0  0
 21 26  2  0  0  0  0
 22 24  1  0  0  0  0
 22 10  1  0  0  0  0
 23 21  1  0  0  0  0
 24 13  1  0  0  0  0
 25 14  1  0  0  0  0
 27  2  1  0  0  0  0
 28 29  1  0  0  0  0
 29 32  1  0  0  0  0
 31 33  1  0  0  0  0
 32 31  1  0  0  0  0
 32 34  1  0  0  0  0
 33 30  1  0  0  0  0
 34 30  1  0  0  0  0
M  END
>  <MODEL>
4

>  <REMARK>
 VINA RESULT:      -7.2      3.739      9.052
  Name = 
  3 active torsions:
  status: ('A' for Active; 'I' for Inactive)
    1  A    between atoms: C_17  and  O_28
    2  A    between atoms: O_28  and  C_29
    3  A    between atoms: C_29  and  C_32
                            x       y       z     vdW  Elec       q    Type
                         _______ _______ _______ _____ _____    ______ ____

>  <TORSDO>
F 3

$$$$
=
 OpenBabel11122414383D

 34 40  0  0  1  0  0  0  0  0999 V2000
  161.5810  208.5940  149.3780 C   0  0  0  0  0  0  0  0  0  0  0  0
  162.7250  206.9390  147.8860 C   0  0  0  0  0  2  0  0  0  0  0  0
  160.9810  209.1010  155.9370 C   0  0  0  0  0  0  0  0  0  0  0  0
  161.6100  209.5720  151.5910 C   0  0  0  0  0  0  0  0  0  0  0  0
  160.8720  208.1350  153.5660 C   0  0  2  0  0  3  0  0  0  0  0  0
  160.2930  206.8480  155.5100 O   0  0  0  0  0  1  0  0  0  0  0  0
  160.0730  209.1470  156.8080 O   0  0  0  0  0  0  0  0  0  0  0  0
  162.4050  210.7040  154.6550 C   0  0  0  0  0  2  0  0  0  0  0  0
  160.7750  206.1990  149.0470 C   0  0  2  0  0  3  0  0  0  0  0  0
  160.4540  203.2080  149.6330 C   0  0  0  0  0  2  0  0  0  0  0  0
  161.4560  206.9650  152.7780 C   0  0  0  0  0  2  0  0  0  0  0  0
  162.7060  209.7110  153.7150 O   0  0  0  0  0  0  0  0  0  0  0  0
  161.1230  205.9320  150.5290 C   0  0  1  0  0  3  0  0  0  0  0  0
  162.4980  205.5720  147.4340 N   0  0  0  0  0  2  0  0  0  0  0  0
  161.4810  209.4640  153.0850 C   0  0  1  0  0  3  0  0  0  0  0  0
  161.9130  210.1450  155.8740 O   0  0  0  0  0  0  0  0  0  0  0  0
  161.5780  203.7050  148.7350 C   0  0  2  0  0  3  0  0  0  0  0  0
  161.4910  208.4370  150.7670 C   0  0  0  0  0  0  0  0  0  0  0  0
  161.1190  207.8810  155.0590 C   0  0  2  0  0  3  0  0  0  0  0  0
  161.2390  207.1450  151.3440 N   0  0  0  0  0  0  0  0  0  0  0  0
  161.9480  210.9580  149.6900 C   0  0  0  0  0  3  0  0  0  0  0  0
  160.6260  203.8010  151.0250 C   0  0  0  0  0  2  0  0  0  0  0  0
  161.8390  210.7920  151.0340 N   0  0  0  0  0  0  0  0  0  0  0  0
  160.1240  205.1060  151.0650 O   0  0  0  0  0  0  0  0  0  0  0  0
  161.2960  205.0860  148.1160 C   0  0  1  0  0  3  0  0  0  0  0  0
  161.8170  209.8610  148.8380 C   0  0  0  0  0  3  0  0  0  0  0  0
  161.4200  207.4310  148.4540 C   0  0  1  0  0  3  0  0  0  0  0  0
  161.8000  202.7740  147.7180 O   0  0  0  0  0  0  0  0  0  0  0  0
  161.4530  201.5420  148.2770 C   0  0  0  0  0  2  0  0  0  0  0  0
  160.0810  200.4770  144.6370 S   0  0  0  0  0  0  0  0  0  0  0  0
  161.5810  199.6070  146.7130 C   0  0  0  0  0  2  0  0  0  0  0  0
  160.7000  200.7050  147.2580 C   0  0  2  0  0  3  0  0  0  0  0  0
  160.8910  199.0790  145.4760 C   0  0  0  0  0  2  0  0  0  0  0  0
  160.3020  201.5640  146.0800 C   0  0  0  0  0  2  0  0  0  0  0  0
  1 18  1  0  0  0  0
  2 27  1  0  0  0  0
  3  7  2  0  0  0  0
  4 15  1  0  0  0  0
  5 11  1  6  0  0  0
  5 19  1  0  0  0  0
  8 16  1  0  0  0  0
  9 13  1  0  0  0  0
 10 22  1  0  0  0  0
 12  8  1  0  0  0  0
 13 24  1  0  0  0  0
 13 20  1  0  0  0  0
 14  2  1  0  0  0  0
 14 25  1  0  0  0  0
 15  5  1  0  0  0  0
 15 12  1  0  0  0  0
 16  3  1  0  0  0  0
 17 10  1  0  0  0  0
 18 20  1  0  0  0  0
 18  4  2  0  0  0  0
 19  6  1  0  0  0  0
 19  3  1  0  0  0  0
 20 11  1  0  0  0  0
 21 23  2  0  0  0  0
 22 24  1  0  0  0  0
 23  4  1  0  0  0  0
 25 17  1  0  0  0  0
 25  9  1  0  0  0  0
 26  1  2  0  0  0  0
 26 21  1  0  0  0  0
 27  9  1  0  0  0  0
 27  1  1  0  0  0  0
 28 29  1  0  0  0  0
 28 17  1  0  0  0  0
 30 33  1  0  0  0  0
 30 34  1  0  0  0  0
 31 32  1  0  0  0  0
 32 29  1  0  0  0  0
 33 31  1  0  0  0  0
 34 32  1  0  0  0  0
M  END
>  <MODEL>
5

>  <REMARK>
 VINA RESULT:      -7.0      2.735      4.851
  Name = 
  3 active torsions:
  status: ('A' for Active; 'I' for Inactive)
    1  A    between atoms: C_17  and  O_28
    2  A    between atoms: O_28  and  C_29
    3  A    between atoms: C_29  and  C_32
                            x       y       z     vdW  Elec       q    Type
                         _______ _______ _______ _____ _____    ______ ____

>  <TORSDO>
F 3

$$$$
=
 OpenBabel11122414383D

 34 40  0  0  1  0  0  0  0  0999 V2000
  160.9420  204.4800  151.2400 C   0  0  0  0  0  0  0  0  0  0  0  0
  162.3820  206.3800  152.0070 C   0  0  0  0  0  2  0  0  0  0  0  0
  160.7970  200.8670  145.7110 C   0  0  0  0  0  0  0  0  0  0  0  0
  160.8780  202.5370  149.7990 C   0  0  0  0  0  0  0  0  0  0  0  0
  160.7670  202.8970  147.2750 C   0  0  2  0  0  3  0  0  0  0  0  0
  160.7600  203.1130  144.8830 O   0  0  0  0  0  1  0  0  0  0  0  0
  159.9950  200.5780  144.7840 O   0  0  0  0  0  0  0  0  0  0  0  0
  161.5760  199.8750  147.8680 C   0  0  0  0  0  2  0  0  0  0  0  0
  160.8420  206.8210  150.2370 C   0  0  2  0  0  3  0  0  0  0  0  0
  161.4560  209.0970  148.2790 C   0  0  0  0  0  2  0  0  0  0  0  0
  161.5940  204.1520  147.5390 C   0  0  0  0  0  2  0  0  0  0  0  0
  162.0690  201.1180  148.2810 O   0  0  0  0  0  0  0  0  0  0  0  0
  161.3810  206.2230  148.9180 C   0  0  1  0  0  3  0  0  0  0  0  0
  162.5240  207.8010  151.7110 N   0  0  0  0  0  2  0  0  0  0  0  0
  160.9190  201.8990  148.4380 C   0  0  1  0  0  3  0  0  0  0  0  0
  161.3760  199.8300  146.4540 O   0  0  0  0  0  0  0  0  0  0  0  0
  162.3040  208.8990  149.5270 C   0  0  2  0  0  3  0  0  0  0  0  0
  161.0230  203.9290  149.9550 C   0  0  0  0  0  0  0  0  0  0  0  0
  161.2060  202.3030  145.9310 C   0  0  2  0  0  3  0  0  0  0  0  0
  161.2100  204.7720  148.8050 N   0  0  0  0  0  0  0  0  0  0  0  0
  160.6310  202.2660  152.1470 C   0  0  0  0  0  3  0  0  0  0  0  0
  161.5700  207.8600  147.3960 C   0  0  0  0  0  2  0  0  0  0  0  0
  160.6930  201.7490  150.8920 N   0  0  0  0  0  0  0  0  0  0  0  0
  160.7150  206.8520  147.8550 O   0  0  0  0  0  0  0  0  0  0  0  0
  161.5790  208.1140  150.6370 C   0  0  1  0  0  3  0  0  0  0  0  0
  160.7510  203.6430  152.3410 C   0  0  0  0  0  3  0  0  0  0  0  0
  161.0460  205.9540  151.4590 C   0  0  1  0  0  3  0  0  0  0  0  0
  162.6970  210.1460  150.0180 O   0  0  0  0  0  0  0  0  0  0  0  0
  161.5810  210.9680  149.8460 C   0  0  0  0  0  2  0  0  0  0  0  0
  162.5040  213.8480  147.1780 S   0  0  0  0  0  0  0  0  0  0  0  0
  160.8290  213.2590  149.2190 C   0  0  0  0  0  2  0  0  0  0  0  0
  162.0190  212.3410  149.3690 C   0  0  2  0  0  3  0  0  0  0  0  0
  161.3040  214.4440  148.4100 C   0  0  0  0  0  2  0  0  0  0  0  0
  162.6550  212.2320  148.0030 C   0  0  0  0  0  2  0  0  0  0  0  0
  1 27  1  0  0  0  0
  1 26  1  0  0  0  0
  3 19  1  0  0  0  0
  3 16  1  0  0  0  0
  4 18  1  0  0  0  0
  4 23  2  0  0  0  0
  5 11  1  1  0  0  0
  5 15  1  0  0  0  0
  6 19  1  0  0  0  0
  7  3  2  0  0  0  0
  8 12  1  0  0  0  0
  9 25  1  0  0  0  0
  9 27  1  0  0  0  0
 10 17  1  0  0  0  0
 11 20  1  0  0  0  0
 12 15  1  0  0  0  0
 13  9  1  0  0  0  0
 14  2  1  0  0  0  0
 15  4  1  0  0  0  0
 16  8  1  0  0  0  0
 17 28  1  0  0  0  0
 17 25  1  0  0  0  0
 18  1  2  0  0  0  0
 19  5  1  0  0  0  0
 20 13  1  0  0  0  0
 20 18  1  0  0  0  0
 21 26  2  0  0  0  0
 22 24  1  0  0  0  0
 22 10  1  0  0  0  0
 23 21  1  0  0  0  0
 24 13  1  0  0  0  0
 25 14  1  0  0  0  0
 27  2  1  0  0  0  0
 29 28  1  0  0  0  0
 30 34  1  0  0  0  0
 30 33  1  0  0  0  0
 31 32  1  0  0  0  0
 32 29  1  0  0  0  0
 33 31  1  0  0  0  0
 34 32  1  0  0  0  0
M  END
>  <MODEL>
6

>  <REMARK>
 VINA RESULT:      -6.7      4.403      8.863
  Name = 
  3 active torsions:
  status: ('A' for Active; 'I' for Inactive)
    1  A    between atoms: C_17  and  O_28
    2  A    between atoms: O_28  and  C_29
    3  A    between atoms: C_29  and  C_32
                            x       y       z     vdW  Elec       q    Type
                         _______ _______ _______ _____ _____    ______ ____

>  <TORSDO>
F 3

$$$$
=
 OpenBabel11122414383D

 34 40  0  0  1  0  0  0  0  0999 V2000
  160.8560  204.5760  151.5890 C   0  0  0  0  0  0  0  0  0  0  0  0
  162.2850  205.8350  153.2160 C   0  0  0  0  0  2  0  0  0  0  0  0
  160.9030  204.0480  145.0040 C   0  0  0  0  0  0  0  0  0  0  0  0
  160.8320  203.5600  149.3930 C   0  0  0  0  0  0  0  0  0  0  0  0
  160.8300  205.0840  147.3460 C   0  0  2  0  0  3  0  0  0  0  0  0
  160.9260  206.4160  145.3510 O   0  0  0  0  0  1  0  0  0  0  0  0
  160.1380  204.2600  144.0270 O   0  0  0  0  0  0  0  0  0  0  0  0
  161.5790  202.1230  146.4470 C   0  0  0  0  0  2  0  0  0  0  0  0
  160.8250  207.1130  151.8250 C   0  0  2  0  0  3  0  0  0  0  0  0
  161.5480  210.0280  151.2140 C   0  0  0  0  0  2  0  0  0  0  0  0
  161.6600  206.0350  148.2050 C   0  0  0  0  0  2  0  0  0  0  0  0
  162.0690  203.0030  147.4200 O   0  0  0  0  0  0  0  0  0  0  0  0
  161.4120  207.2020  150.3980 C   0  0  1  0  0  3  0  0  0  0  0  0
  162.4550  207.2190  153.6410 N   0  0  0  0  0  2  0  0  0  0  0  0
  160.9220  203.6480  147.8950 C   0  0  1  0  0  3  0  0  0  0  0  0
  161.4380  202.7650  145.1780 O   0  0  0  0  0  0  0  0  0  0  0  0
  162.3390  209.2330  152.2420 C   0  0  2  0  0  3  0  0  0  0  0  0
  160.9850  204.7030  150.2000 C   0  0  0  0  0  0  0  0  0  0  0  0
  161.3190  205.1920  145.8960 C   0  0  2  0  0  3  0  0  0  0  0  0
  161.2300  205.9860  149.6000 N   0  0  0  0  0  0  0  0  0  0  0  0
  160.4830  202.2080  151.3160 C   0  0  0  0  0  3  0  0  0  0  0  0
  161.6840  209.3610  149.8520 C   0  0  0  0  0  2  0  0  0  0  0  0
  160.5920  202.3510  149.9700 N   0  0  0  0  0  0  0  0  0  0  0  0
  160.8000  208.2820  149.7460 O   0  0  0  0  0  0  0  0  0  0  0  0
  161.5600  208.0360  152.8170 C   0  0  1  0  0  3  0  0  0  0  0  0
  160.6100  203.3200  152.1490 C   0  0  0  0  0  3  0  0  0  0  0  0
  160.9680  205.7630  152.4900 C   0  0  1  0  0  3  0  0  0  0  0  0
  162.7260  210.0820  153.2820 O   0  0  0  0  0  0  0  0  0  0  0  0
  161.5600  210.7610  153.6430 C   0  0  0  0  0  2  0  0  0  0  0  0
  160.7510  209.1700  157.2600 S   0  0  0  0  0  0  0  0  0  0  0  0
  162.6970  210.3870  155.8280 C   0  0  0  0  0  2  0  0  0  0  0  0
  161.3930  210.7350  155.1520 C   0  0  2  0  0  3  0  0  0  0  0  0
  162.3560  210.0300  157.2570 C   0  0  0  0  0  2  0  0  0  0  0  0
  160.4040  209.6630  155.5420 C   0  0  0  0  0  2  0  0  0  0  0  0
  1 26  1  0  0  0  0
  1 27  1  0  0  0  0
  2 14  1  0  0  0  0
  3 16  1  0  0  0  0
  3 19  1  0  0  0  0
  4 23  2  0  0  0  0
  4 18  1  0  0  0  0
  5 15  1  0  0  0  0
  5 11  1  1  0  0  0
  6 19  1  0  0  0  0
  7  3  2  0  0  0  0
  8 12  1  0  0  0  0
  9 27  1  0  0  0  0
  9 25  1  0  0  0  0
 10 17  1  0  0  0  0
 11 20  1  0  0  0  0
 12 15  1  0  0  0  0
 13  9  1  0  0  0  0
 15  4  1  0  0  0  0
 16  8  1  0  0  0  0
 17 25  1  0  0  0  0
 17 28  1  0  0  0  0
 18  1  2  0  0  0  0
 19  5  1  0  0  0  0
 20 18  1  0  0  0  0
 20 13  1  0  0  0  0
 21 26  2  0  0  0  0
 22 10  1  0  0  0  0
 23 21  1  0  0  0  0
 24 22  1  0  0  0  0
 24 13  1  0  0  0  0
 25 14  1  0  0  0  0
 27  2  1  0  0  0  0
 28 29  1  0  0  0  0
 29 32  1  0  0  0  0
 31 33  1  0  0  0  0
 32 34  1  0  0  0  0
 32 31  1  0  0  0  0
 33 30  1  0  0  0  0
 34 30  1  0  0  0  0
M  END
>  <MODEL>
7

>  <REMARK>
 VINA RESULT:      -6.1      3.487      8.739
  Name = 
  3 active torsions:
  status: ('A' for Active; 'I' for Inactive)
    1  A    between atoms: C_17  and  O_28
    2  A    between atoms: O_28  and  C_29
    3  A    between atoms: C_29  and  C_32
                            x       y       z     vdW  Elec       q    Type
                         _______ _______ _______ _____ _____    ______ ____

>  <TORSDO>
F 3

$$$$
=
 OpenBabel11122414383D

 34 40  0  0  1  0  0  0  0  0999 V2000
  162.2110  207.4060  149.4160 C   0  0  0  0  0  0  0  0  0  0  0  0
  160.9990  209.1200  150.7810 C   0  0  0  0  0  2  0  0  0  0  0  0
  161.0710  201.0280  148.1260 C   0  0  0  0  0  0  0  0  0  0  0  0
  161.9290  205.3610  148.1540 C   0  0  0  0  0  0  0  0  0  0  0  0
  161.4730  203.1980  149.4290 C   0  0  2  0  0  3  0  0  0  0  0  0
  160.9430  201.1220  150.5150 O   0  0  0  0  0  1  0  0  0  0  0  0
  161.6410  199.9140  148.2620 O   0  0  0  0  0  0  0  0  0  0  0  0
  160.7890  202.7630  146.3510 C   0  0  0  0  0  2  0  0  0  0  0  0
  162.1060  207.3650  151.9620 C   0  0  2  0  0  3  0  0  0  0  0  0
  161.0880  206.5900  154.7460 C   0  0  0  0  0  2  0  0  0  0  0  0
  160.7390  204.0860  150.4310 C   0  0  0  0  0  2  0  0  0  0  0  0
  160.4140  203.7100  147.3110 O   0  0  0  0  0  0  0  0  0  0  0  0
  161.2770  206.0640  151.8550 C   0  0  1  0  0  3  0  0  0  0  0  0
  160.8090  209.4210  152.1950 N   0  0  0  0  0  2  0  0  0  0  0  0
  161.5770  203.9020  148.0640 C   0  0  1  0  0  3  0  0  0  0  0  0
  160.6650  201.4290  146.8470 O   0  0  0  0  0  0  0  0  0  0  0  0
  160.5420  207.8200  154.0360 C   0  0  2  0  0  3  0  0  0  0  0  0
  161.8370  206.0570  149.3750 C   0  0  0  0  0  0  0  0  0  0  0  0
  160.7370  201.8550  149.3440 C   0  0  2  0  0  3  0  0  0  0  0  0
  161.4050  205.3790  150.5660 N   0  0  0  0  0  0  0  0  0  0  0  0
  162.6960  207.3230  147.0540 C   0  0  0  0  0  3  0  0  0  0  0  0
  160.7670  205.3510  153.9190 C   0  0  0  0  0  2  0  0  0  0  0  0
  162.3480  206.0090  147.0340 N   0  0  0  0  0  0  0  0  0  0  0  0
  161.6930  205.2030  152.8810 O   0  0  0  0  0  0  0  0  0  0  0  0
  161.4890  208.3700  152.9550 C   0  0  1  0  0  3  0  0  0  0  0  0
  162.6370  208.0430  148.2470 C   0  0  0  0  0  3  0  0  0  0  0  0
  162.1730  208.1830  150.6910 C   0  0  1  0  0  3  0  0  0  0  0  0
  160.2810  208.8170  154.9800 O   0  0  0  0  0  0  0  0  0  0  0  0
  161.5310  209.3670  155.2740 C   0  0  0  0  0  2  0  0  0  0  0  0
  159.6970  212.9410  155.6410 S   0  0  0  0  0  0  0  0  0  0  0  0
  160.7820  210.9190  157.0750 C   0  0  0  0  0  2  0  0  0  0  0  0
  161.3710  210.8190  155.6880 C   0  0  2  0  0  3  0  0  0  0  0  0
  160.3280  212.3510  157.2440 C   0  0  0  0  0  2  0  0  0  0  0  0
  160.4070  211.5170  154.7570 C   0  0  0  0  0  2  0  0  0  0  0  0
  1 27  1  0  0  0  0
  2 14  1  0  0  0  0
  3  7  2  0  0  0  0
  3 19  1  0  0  0  0
  4 18  2  0  0  0  0
  5 11  1  1  0  0  0
  8 16  1  0  0  0  0
  8 12  1  0  0  0  0
  9 25  1  0  0  0  0
 11 20  1  0  0  0  0
 12 15  1  0  0  0  0
 13  9  1  0  0  0  0
 13 24  1  0  0  0  0
 14 25  1  0  0  0  0
 15  4  1  0  0  0  0
 15  5  1  0  0  0  0
 16  3  1  0  0  0  0
 17 10  1  0  0  0  0
 17 28  1  0  0  0  0
 18  1  1  0  0  0  0
 18 20  1  0  0  0  0
 19  5  1  0  0  0  0
 19  6  1  0  0  0  0
 20 13  1  0  0  0  0
 21 26  1  0  0  0  0
 22 10  1  0  0  0  0
 23 21  2  0  0  0  0
 23  4  1  0  0  0  0
 24 22  1  0  0  0  0
 25 17  1  0  0  0  0
 26  1  2  0  0  0  0
 27  2  1  0  0  0  0
 27  9  1  0  0  0  0
 28 29  1  0  0  0  0
 29 32  1  0  0  0  0
 30 33  1  0  0  0  0
 31 33  1  0  0  0  0
 32 31  1  0  0  0  0
 34 30  1  0  0  0  0
 34 32  1  0  0  0  0
M  END
>  <MODEL>
8

>  <REMARK>
 VINA RESULT:      -5.9      3.528      9.452
  Name = 
  3 active torsions:
  status: ('A' for Active; 'I' for Inactive)
    1  A    between atoms: C_17  and  O_28
    2  A    between atoms: O_28  and  C_29
    3  A    between atoms: C_29  and  C_32
                            x       y       z     vdW  Elec       q    Type
                         _______ _______ _______ _____ _____    ______ ____

>  <TORSDO>
F 3

$$$$
