=
 OpenBabel11122412303D

 30 35  0  0  1  0  0  0  0  0999 V2000
  161.6460  209.9940  149.8830 C   0  0  0  0  0  0  0  0  0  0  0  0
  162.2420  207.5890  149.5550 C   0  0  0  0  0  0  0  0  0  0  0  0
  160.2410  209.2470  153.7300 O   0  0  0  0  0  0  0  0  0  0  0  0
  161.1480  211.0150  150.7320 C   0  0  0  0  0  0  0  0  0  0  0  0
  162.0490  210.3390  148.5520 N   0  0  0  0  0  2  0  0  0  0  0  0
  162.0740  213.8080  148.5750 O   0  0  0  0  0  0  0  0  0  0  0  0
  158.6930  212.5940  151.0510 C   0  0  1  0  0  3  0  0  0  0  0  0
  161.6780  212.7040  148.9140 C   0  0  0  0  0  0  0  0  0  0  0  0
  158.6760  212.0030  152.4620 C   0  0  2  0  0  3  0  0  0  0  0  0
  159.8160  210.5190  154.0940 C   0  0  0  0  0  0  0  0  0  0  0  0
  161.6520  211.5910  147.9140 C   0  0  2  0  0  3  0  0  0  0  0  0
  161.2060  212.4790  150.3270 C   0  0  1  0  0  3  0  0  0  0  0  0
  162.2930  206.2880  150.0630 C   0  0  0  0  0  3  0  0  0  0  0  0
  158.0730  212.9370  153.3150 O   0  0  0  0  0  0  0  0  0  0  0  0
  157.5230  213.5350  151.0770 C   0  0  0  0  0  2  0  0  0  0  0  0
  162.7060  207.8040  148.2620 O   0  0  0  0  0  1  0  0  0  0  0  0
  160.7610  209.3620  152.4550 C   0  0  0  0  0  0  0  0  0  0  0  0
  161.8430  206.0080  151.3530 C   0  0  0  0  0  3  0  0  0  0  0  0
  161.7320  208.6470  150.3500 C   0  0  0  0  0  0  0  0  0  0  0  0
  160.7030  210.6590  152.0050 C   0  0  0  0  0  0  0  0  0  0  0  0
  159.3130  210.7760  155.2200 O   0  0  0  0  0  0  0  0  0  0  0  0
  160.0300  211.5370  153.0110 C   0  0  1  0  0  3  0  0  0  0  0  0
  157.0820  213.5500  152.5290 C   0  0  0  0  0  2  0  0  0  0  0  0
  160.3690  214.4530  151.6380 C   0  0  0  0  0  1  0  0  0  0  0  0
  161.3350  207.0300  152.1530 C   0  0  0  0  0  3  0  0  0  0  0  0
  161.2780  208.3380  151.6650 C   0  0  0  0  0  0  0  0  0  0  0  0
  159.9810  213.3520  150.6580 C   0  0  2  0  0  3  0  0  0  0  0  0
  160.2520  211.4630  147.3260 C   0  0  0  0  0  2  0  0  0  0  0  0
  161.0380  212.6930  145.4720 O   0  0  0  0  0  0  0  0  0  0  0  0
  160.0780  212.3730  146.1530 C   0  0  0  0  0  3  0  0  0  0  0  0
  1 19  2  0  0  0  0
  1  4  1  0  0  0  0
  2 13  2  0  0  0  0
  2 19  1  0  0  0  0
  3 10  1  0  0  0  0
  4 20  2  0  0  0  0
  5  1  1  0  0  0  0
  6  8  2  0  0  0  0
  7 15  1  1  0  0  0
  7  9  1  0  0  0  0
  9 22  1  0  0  0  0
  9 14  1  1  0  0  0
 10 21  2  0  0  0  0
 11 28  1  1  0  0  0
 11  5  1  0  0  0  0
 11  8  1  0  0  0  0
 12  8  1  6  0  0  0
 12 27  1  0  0  0  0
 12  4  1  0  0  0  0
 13 18  1  0  0  0  0
 15 23  1  0  0  0  0
 16  2  1  0  0  0  0
 17  3  1  0  0  0  0
 18 25  2  0  0  0  0
 19 26  1  0  0  0  0
 20 17  1  0  0  0  0
 22 20  1  6  0  0  0
 22 10  1  0  0  0  0
 23 14  1  0  0  0  0
 26 25  1  0  0  0  0
 26 17  2  0  0  0  0
 27  7  1  0  0  0  0
 27 24  1  1  0  0  0
 29 30  2  0  0  0  0
 30 28  1  0  0  0  0
M  END
>  <MODEL>
1

>  <REMARK>
 VINA RESULT:      -4.1      0.000      0.000
  Name = 
  2 active torsions:
  status: ('A' for Active; 'I' for Inactive)
    1  A    between atoms: C_11  and  C_28
    2  A    between atoms: C_28  and  C_30
                            x       y       z     vdW  Elec       q    Type
                         _______ _______ _______ _____ _____    ______ ____

>  <TORSDO>
F 2

$$$$
=
 OpenBabel11122412303D

 30 35  0  0  1  0  0  0  0  0999 V2000
  158.8030  211.5310  155.4130 C   0  0  0  0  0  0  0  0  0  0  0  0
  156.5530  212.4450  156.0020 C   0  0  0  0  0  0  0  0  0  0  0  0
  158.6920  213.3400  151.6650 O   0  0  0  0  0  0  0  0  0  0  0  0
  159.8730  211.4450  154.4860 C   0  0  0  0  0  0  0  0  0  0  0  0
  158.9080  210.8220  156.6540 N   0  0  0  0  0  2  0  0  0  0  0  0
  162.2250  209.8130  156.7460 O   0  0  0  0  0  0  0  0  0  0  0  0
  160.9670  209.4980  152.5800 C   0  0  1  0  0  3  0  0  0  0  0  0
  161.1720  210.0980  156.1970 C   0  0  0  0  0  0  0  0  0  0  0  0
  160.7220  210.5980  151.5460 C   0  0  2  0  0  3  0  0  0  0  0  0
  159.9040  212.9070  151.1410 C   0  0  0  0  0  0  0  0  0  0  0  0
  159.8780  209.7510  156.8640 C   0  0  2  0  0  3  0  0  0  0  0  0
  161.1870  210.7770  154.8540 C   0  0  1  0  0  3  0  0  0  0  0  0
  155.4380  213.2070  155.6410 C   0  0  0  0  0  3  0  0  0  0  0  0
  161.6880  210.4700  150.5390 O   0  0  0  0  0  0  0  0  0  0  0  0
  161.6400  208.4290  151.7670 C   0  0  0  0  0  2  0  0  0  0  0  0
  156.5540  211.8420  157.2550 O   0  0  0  0  0  1  0  0  0  0  0  0
  158.6130  212.8170  152.9420 C   0  0  0  0  0  0  0  0  0  0  0  0
  155.3770  213.8360  154.3980 C   0  0  0  0  0  3  0  0  0  0  0  0
  157.6420  212.3040  155.1050 C   0  0  0  0  0  0  0  0  0  0  0  0
  159.7350  212.0900  153.2570 C   0  0  0  0  0  0  0  0  0  0  0  0
  160.3070  213.2310  149.9930 O   0  0  0  0  0  0  0  0  0  0  0  0
  160.6700  212.0310  152.0900 C   0  0  1  0  0  3  0  0  0  0  0  0
  161.8990  209.0850  150.4230 C   0  0  0  0  0  2  0  0  0  0  0  0
  163.2040  210.4790  153.3830 C   0  0  0  0  0  1  0  0  0  0  0  0
  156.4340  213.7110  153.4990 C   0  0  0  0  0  3  0  0  0  0  0  0
  157.5590  212.9570  153.8410 C   0  0  0  0  0  0  0  0  0  0  0  0
  161.8540  209.8940  153.7820 C   0  0  2  0  0  3  0  0  0  0  0  0
  159.3460  208.4390  156.3000 C   0  0  0  0  0  2  0  0  0  0  0  0
  160.6250  206.8120  155.1670 O   0  0  0  0  0  0  0  0  0  0  0  0
  160.4310  207.4160  156.2090 C   0  0  0  0  0  3  0  0  0  0  0  0
  1  5  1  0  0  0  0
  2 16  1  0  0  0  0
  3 17  1  0  0  0  0
  4  1  2  0  0  0  0
  5 11  1  0  0  0  0
  7 15  1  6  0  0  0
  7 27  1  0  0  0  0
  8  6  2  0  0  0  0
  8 11  1  0  0  0  0
  9 14  1  6  0  0  0
  9 22  1  0  0  0  0
  9  7  1  0  0  0  0
 10  3  1  0  0  0  0
 11 28  1  6  0  0  0
 12  4  1  6  0  0  0
 12  8  1  0  0  0  0
 13  2  1  0  0  0  0
 17 20  2  0  0  0  0
 17 26  1  0  0  0  0
 18 13  2  0  0  0  0
 19  1  1  0  0  0  0
 19  2  2  0  0  0  0
 20  4  1  0  0  0  0
 21 10  2  0  0  0  0
 22 10  1  6  0  0  0
 22 20  1  0  0  0  0
 23 14  1  0  0  0  0
 23 15  1  0  0  0  0
 25 26  2  0  0  0  0
 25 18  1  0  0  0  0
 26 19  1  0  0  0  0
 27 24  1  6  0  0  0
 27 12  1  0  0  0  0
 29 30  2  0  0  0  0
 30 28  1  0  0  0  0
M  END
>  <MODEL>
2

>  <REMARK>
 VINA RESULT:      -4.1      2.829      7.425
  Name = 
  2 active torsions:
  status: ('A' for Active; 'I' for Inactive)
    1  A    between atoms: C_11  and  C_28
    2  A    between atoms: C_28  and  C_30
                            x       y       z     vdW  Elec       q    Type
                         _______ _______ _______ _____ _____    ______ ____

>  <TORSDO>
F 2

$$$$
=
 OpenBabel11122412303D

 30 35  0  0  1  0  0  0  0  0999 V2000
  161.9170  207.7740  149.5940 C   0  0  0  0  0  0  0  0  0  0  0  0
  161.6300  205.8060  148.0810 C   0  0  0  0  0  0  0  0  0  0  0  0
  160.7690  205.5430  152.9160 O   0  0  0  0  0  0  0  0  0  0  0  0
  161.8870  208.3090  150.9070 C   0  0  0  0  0  0  0  0  0  0  0  0
  162.2650  208.6380  148.5050 N   0  0  0  0  0  2  0  0  0  0  0  0
  163.4580  211.4940  150.0700 O   0  0  0  0  0  0  0  0  0  0  0  0
  160.1570  210.0430  152.5260 C   0  0  1  0  0  3  0  0  0  0  0  0
  162.7530  210.5020  149.9700 C   0  0  0  0  0  0  0  0  0  0  0  0
  160.0950  208.8430  153.4730 C   0  0  2  0  0  3  0  0  0  0  0  0
  160.8380  206.5140  153.9080 C   0  0  0  0  0  0  0  0  0  0  0  0
  162.2460  210.0930  148.6230 C   0  0  2  0  0  3  0  0  0  0  0  0
  162.3900  209.7130  151.2000 C   0  0  1  0  0  3  0  0  0  0  0  0
  161.2940  204.4580  147.9210 C   0  0  0  0  0  3  0  0  0  0  0  0
  159.9380  209.3290  154.7780 O   0  0  0  0  0  0  0  0  0  0  0  0
  159.3810  211.0900  153.2740 C   0  0  0  0  0  2  0  0  0  0  0  0
  161.9950  206.5270  146.9510 O   0  0  0  0  0  1  0  0  0  0  0  0
  161.1550  206.1600  151.7420 C   0  0  0  0  0  0  0  0  0  0  0  0
  160.9190  203.6810  149.0160 C   0  0  0  0  0  3  0  0  0  0  0  0
  161.5940  206.4010  149.3680 C   0  0  0  0  0  0  0  0  0  0  0  0
  161.4890  207.4760  151.9520 C   0  0  0  0  0  0  0  0  0  0  0  0
  160.5770  206.2780  155.1160 O   0  0  0  0  0  0  0  0  0  0  0  0
  161.2640  207.8550  153.3810 C   0  0  1  0  0  3  0  0  0  0  0  0
  159.1320  210.4720  154.6380 C   0  0  0  0  0  2  0  0  0  0  0  0
  162.4140  210.8850  153.4240 C   0  0  0  0  0  1  0  0  0  0  0  0
  160.8750  204.2440  150.2900 C   0  0  0  0  0  3  0  0  0  0  0  0
  161.2090  205.5880  150.4730 C   0  0  0  0  0  0  0  0  0  0  0  0
  161.5730  210.5620  152.1940 C   0  0  2  0  0  3  0  0  0  0  0  0
  160.8290  210.6200  148.4270 C   0  0  0  0  0  2  0  0  0  0  0  0
  161.8780  212.3660  147.2350 O   0  0  0  0  0  0  0  0  0  0  0  0
  160.8270  211.8460  147.5730 C   0  0  0  0  0  3  0  0  0  0  0  0
  1  4  1  0  0  0  0
  2 19  1  0  0  0  0
  3 10  1  0  0  0  0
  4 12  1  0  0  0  0
  4 20  2  0  0  0  0
  5 11  1  0  0  0  0
  5  1  1  0  0  0  0
  7 15  1  1  0  0  0
  7  9  1  0  0  0  0
  8  6  2  0  0  0  0
  9 14  1  1  0  0  0
 10 21  2  0  0  0  0
 11 28  1  1  0  0  0
 11  8  1  0  0  0  0
 12  8  1  6  0  0  0
 12 27  1  0  0  0  0
 13  2  2  0  0  0  0
 13 18  1  0  0  0  0
 15 23  1  0  0  0  0
 16  2  1  0  0  0  0
 17 20  1  0  0  0  0
 17  3  1  0  0  0  0
 18 25  2  0  0  0  0
 19  1  2  0  0  0  0
 19 26  1  0  0  0  0
 22 20  1  6  0  0  0
 22  9  1  0  0  0  0
 22 10  1  0  0  0  0
 23 14  1  0  0  0  0
 25 26  1  0  0  0  0
 26 17  2  0  0  0  0
 27  7  1  0  0  0  0
 27 24  1  1  0  0  0
 29 30  2  0  0  0  0
 30 28  1  0  0  0  0
M  END
>  <MODEL>
3

>  <REMARK>
 VINA RESULT:      -3.9      2.038      3.211
  Name = 
  2 active torsions:
  status: ('A' for Active; 'I' for Inactive)
    1  A    between atoms: C_11  and  C_28
    2  A    between atoms: C_28  and  C_30
                            x       y       z     vdW  Elec       q    Type
                         _______ _______ _______ _____ _____    ______ ____

>  <TORSDO>
F 2

$$$$
=
 OpenBabel11122412303D

 30 35  0  0  1  0  0  0  0  0999 V2000
  160.4540  210.8100  152.8060 C   0  0  0  0  0  0  0  0  0  0  0  0
  161.8010  211.0220  150.7110 C   0  0  0  0  0  0  0  0  0  0  0  0
  157.7200  213.6570  151.4830 O   0  0  0  0  0  0  0  0  0  0  0  0
  159.3110  211.1830  153.5560 C   0  0  0  0  0  0  0  0  0  0  0  0
  161.3720  209.8660  153.3730 N   0  0  0  0  0  2  0  0  0  0  0  0
  159.6790  208.6330  156.1380 O   0  0  0  0  0  0  0  0  0  0  0  0
  158.6650  212.8680  155.8720 C   0  0  1  0  0  3  0  0  0  0  0  0
  159.9810  209.4850  155.3160 C   0  0  0  0  0  0  0  0  0  0  0  0
  157.7350  213.5930  154.8970 C   0  0  2  0  0  3  0  0  0  0  0  0
  156.8620  213.7080  152.5750 C   0  0  0  0  0  0  0  0  0  0  0  0
  161.3830  209.5430  154.7970 C   0  0  2  0  0  3  0  0  0  0  0  0
  158.9460  210.4750  154.8500 C   0  0  1  0  0  3  0  0  0  0  0  0
  161.9810  211.6170  149.4590 C   0  0  0  0  0  3  0  0  0  0  0  0
  156.6460  214.0900  155.6240 O   0  0  0  0  0  0  0  0  0  0  0  0
  158.3750  213.5600  157.1740 C   0  0  0  0  0  2  0  0  0  0  0  0
  162.7380  210.0860  151.1300 O   0  0  0  0  0  1  0  0  0  0  0  0
  158.6820  212.7140  151.7900 C   0  0  0  0  0  0  0  0  0  0  0  0
  161.0750  212.5640  148.9820 C   0  0  0  0  0  3  0  0  0  0  0  0
  160.6870  211.3760  151.5150 C   0  0  0  0  0  0  0  0  0  0  0  0
  158.4550  212.1470  153.0210 C   0  0  0  0  0  0  0  0  0  0  0  0
  155.8480  214.4530  152.6130 O   0  0  0  0  0  0  0  0  0  0  0  0
  157.2710  212.7790  153.6820 C   0  0  1  0  0  3  0  0  0  0  0  0
  157.1850  214.4520  156.8700 C   0  0  0  0  0  2  0  0  0  0  0  0
  156.9980  210.9710  156.3580 C   0  0  0  0  0  1  0  0  0  0  0  0
  159.9740  212.9290  149.7540 C   0  0  0  0  0  3  0  0  0  0  0  0
  159.7730  212.3440  151.0080 C   0  0  0  0  0  0  0  0  0  0  0  0
  158.4340  211.3470  156.0120 C   0  0  2  0  0  3  0  0  0  0  0  0
  162.1730  210.5910  155.5700 C   0  0  0  0  0  2  0  0  0  0  0  0
  162.7030  208.9210  157.1500 O   0  0  0  0  0  0  0  0  0  0  0  0
  162.5040  210.1070  156.9440 C   0  0  0  0  0  3  0  0  0  0  0  0
  1  5  1  0  0  0  0
  1  4  1  0  0  0  0
  2 16  1  0  0  0  0
  2 19  1  0  0  0  0
  3 17  1  0  0  0  0
  3 10  1  0  0  0  0
  5 11  1  0  0  0  0
  7 27  1  0  0  0  0
  7 15  1  1  0  0  0
  8  6  2  0  0  0  0
  9 14  1  1  0  0  0
  9  7  1  0  0  0  0
 10 21  2  0  0  0  0
 11  8  1  0  0  0  0
 11 28  1  1  0  0  0
 12  4  1  6  0  0  0
 12  8  1  0  0  0  0
 12 27  1  0  0  0  0
 13  2  2  0  0  0  0
 14 23  1  0  0  0  0
 17 20  1  0  0  0  0
 18 13  1  0  0  0  0
 18 25  2  0  0  0  0
 19  1  2  0  0  0  0
 20  4  2  0  0  0  0
 20 22  1  0  0  0  0
 22 10  1  6  0  0  0
 22  9  1  0  0  0  0
 23 15  1  0  0  0  0
 25 26  1  0  0  0  0
 26 19  1  0  0  0  0
 26 17  2  0  0  0  0
 27 24  1  6  0  0  0
 28 30  1  0  0  0  0
 30 29  2  0  0  0  0
M  END
>  <MODEL>
4

>  <REMARK>
 VINA RESULT:      -3.9      2.823      6.051
  Name = 
  2 active torsions:
  status: ('A' for Active; 'I' for Inactive)
    1  A    between atoms: C_11  and  C_28
    2  A    between atoms: C_28  and  C_30
                            x       y       z     vdW  Elec       q    Type
                         _______ _______ _______ _____ _____    ______ ____

>  <TORSDO>
F 2

$$$$
=
 OpenBabel11122412303D

 30 35  0  0  1  0  0  0  0  0999 V2000
  158.4380  212.4920  153.5890 C   0  0  0  0  0  0  0  0  0  0  0  0
  156.8560  213.9070  152.2690 C   0  0  0  0  0  0  0  0  0  0  0  0
  160.7030  211.6480  150.1990 O   0  0  0  0  0  0  0  0  0  0  0  0
  159.6120  211.6990  153.6270 C   0  0  0  0  0  0  0  0  0  0  0  0
  157.6900  212.6750  154.7970 N   0  0  0  0  0  2  0  0  0  0  0  0
  159.7930  211.4360  157.2610 O   0  0  0  0  0  0  0  0  0  0  0  0
  160.3310  208.8570  153.7830 C   0  0  1  0  0  3  0  0  0  0  0  0
  159.3180  211.4860  156.1370 C   0  0  0  0  0  0  0  0  0  0  0  0
  161.0690  209.1250  152.4700 C   0  0  2  0  0  3  0  0  0  0  0  0
  161.6660  210.8060  150.7430 C   0  0  0  0  0  0  0  0  0  0  0  0
  157.8690  211.8180  155.9660 C   0  0  2  0  0  3  0  0  0  0  0  0
  160.1870  211.1990  154.9420 C   0  0  1  0  0  3  0  0  0  0  0  0
  156.4800  214.4530  151.0380 C   0  0  0  0  0  3  0  0  0  0  0  0
  162.1740  208.2660  152.4110 O   0  0  0  0  0  0  0  0  0  0  0  0
  160.6890  207.4260  154.0720 C   0  0  0  0  0  2  0  0  0  0  0  0
  156.0710  214.1960  153.3790 O   0  0  0  0  0  1  0  0  0  0  0  0
  159.8830  212.0260  151.2450 C   0  0  0  0  0  0  0  0  0  0  0  0
  157.2250  214.2000  149.8870 C   0  0  0  0  0  3  0  0  0  0  0  0
  158.0090  213.0860  152.3620 C   0  0  0  0  0  0  0  0  0  0  0  0
  160.3010  211.4780  152.4340 C   0  0  0  0  0  0  0  0  0  0  0  0
  162.5960  210.3010  150.0620 O   0  0  0  0  0  0  0  0  0  0  0  0
  161.4780  210.5810  152.2160 C   0  0  1  0  0  3  0  0  0  0  0  0
  161.7400  207.0830  153.0320 C   0  0  0  0  0  2  0  0  0  0  0  0
  162.2270  209.7660  155.2620 C   0  0  0  0  0  1  0  0  0  0  0  0
  158.3610  213.3950  149.9540 C   0  0  0  0  0  3  0  0  0  0  0  0
  158.7560  212.8410  151.1740 C   0  0  0  0  0  0  0  0  0  0  0  0
  160.7310  209.7580  154.9730 C   0  0  2  0  0  3  0  0  0  0  0  0
  157.0640  210.5340  155.8070 C   0  0  0  0  0  2  0  0  0  0  0  0
  154.8280  209.9850  155.2890 O   0  0  0  0  0  0  0  0  0  0  0  0
  155.7210  210.8140  155.2150 C   0  0  0  0  0  3  0  0  0  0  0  0
  1  4  1  0  0  0  0
  1  5  1  0  0  0  0
  2 19  1  0  0  0  0
  2 16  1  0  0  0  0
  3 10  1  0  0  0  0
  3 17  1  0  0  0  0
  5 11  1  0  0  0  0
  7 15  1  1  0  0  0
  7 27  1  0  0  0  0
  8  6  2  0  0  0  0
  9 14  1  1  0  0  0
  9  7  1  0  0  0  0
 11 28  1  6  0  0  0
 11  8  1  0  0  0  0
 12  4  1  6  0  0  0
 12 27  1  0  0  0  0
 12  8  1  0  0  0  0
 13  2  2  0  0  0  0
 14 23  1  0  0  0  0
 17 20  1  0  0  0  0
 18 25  2  0  0  0  0
 18 13  1  0  0  0  0
 19  1  2  0  0  0  0
 20  4  2  0  0  0  0
 21 10  2  0  0  0  0
 22 10  1  6  0  0  0
 22 20  1  0  0  0  0
 22  9  1  0  0  0  0
 23 15  1  0  0  0  0
 25 26  1  0  0  0  0
 26 17  2  0  0  0  0
 26 19  1  0  0  0  0
 27 24  1  6  0  0  0
 30 29  2  0  0  0  0
 30 28  1  0  0  0  0
M  END
>  <MODEL>
5

>  <REMARK>
 VINA RESULT:      -3.8      2.720      7.149
  Name = 
  2 active torsions:
  status: ('A' for Active; 'I' for Inactive)
    1  A    between atoms: C_11  and  C_28
    2  A    between atoms: C_28  and  C_30
                            x       y       z     vdW  Elec       q    Type
                         _______ _______ _______ _____ _____    ______ ____

>  <TORSDO>
F 2

$$$$
=
 OpenBabel11122412303D

 30 35  0  0  1  0  0  0  0  0999 V2000
  161.7290  205.4370  149.8520 C   0  0  0  0  0  0  0  0  0  0  0  0
  161.1650  203.0210  149.5530 C   0  0  0  0  0  0  0  0  0  0  0  0
  160.9670  205.2360  153.9400 O   0  0  0  0  0  0  0  0  0  0  0  0
  161.8990  206.5450  150.7210 C   0  0  0  0  0  0  0  0  0  0  0  0
  161.9560  205.6210  148.4490 N   0  0  0  0  0  2  0  0  0  0  0  0
  163.4560  208.7430  148.2610 O   0  0  0  0  0  0  0  0  0  0  0  0
  160.4720  209.0100  151.4320 C   0  0  1  0  0  3  0  0  0  0  0  0
  162.7080  207.9040  148.7380 C   0  0  0  0  0  0  0  0  0  0  0  0
  160.4960  208.4370  152.8500 C   0  0  2  0  0  3  0  0  0  0  0  0
  161.2070  206.5550  154.3060 C   0  0  0  0  0  0  0  0  0  0  0  0
  162.0060  206.9430  147.8310 C   0  0  2  0  0  3  0  0  0  0  0  0
  162.4880  207.8560  150.2270 C   0  0  1  0  0  3  0  0  0  0  0  0
  160.7620  201.8070  150.1170 C   0  0  0  0  0  3  0  0  0  0  0  0
  160.5370  209.5100  153.7500 O   0  0  0  0  0  0  0  0  0  0  0  0
  159.8450  210.3600  151.6360 C   0  0  0  0  0  2  0  0  0  0  0  0
  161.3980  203.0590  148.1840 O   0  0  0  0  0  1  0  0  0  0  0  0
  161.2100  205.1600  152.5820 C   0  0  0  0  0  0  0  0  0  0  0  0
  160.5120  201.7040  151.4850 C   0  0  0  0  0  3  0  0  0  0  0  0
  161.3290  204.1680  150.3710 C   0  0  0  0  0  0  0  0  0  0  0  0
  161.6180  206.3710  152.0770 C   0  0  0  0  0  0  0  0  0  0  0  0
  161.1050  206.9650  155.4920 O   0  0  0  0  0  0  0  0  0  0  0  0
  161.6050  207.4190  153.1440 C   0  0  1  0  0  3  0  0  0  0  0  0
  159.7630  210.5140  153.1440 C   0  0  0  0  0  2  0  0  0  0  0  0
  162.8600  209.9530  151.5600 C   0  0  0  0  0  1  0  0  0  0  0  0
  160.6640  202.8180  152.3090 C   0  0  0  0  0  3  0  0  0  0  0  0
  161.0690  204.0400  151.7660 C   0  0  0  0  0  0  0  0  0  0  0  0
  161.8480  209.1570  150.7450 C   0  0  2  0  0  3  0  0  0  0  0  0
  160.5970  207.4450  147.5430 C   0  0  0  0  0  2  0  0  0  0  0  0
  160.4530  206.3260  145.4710 O   0  0  0  0  0  0  0  0  0  0  0  0
  159.9140  206.5780  146.5360 C   0  0  0  0  0  3  0  0  0  0  0  0
  1 19  2  0  0  0  0
  1  4  1  0  0  0  0
  2 13  2  0  0  0  0
  2 19  1  0  0  0  0
  3 10  1  0  0  0  0
  4 20  2  0  0  0  0
  5  1  1  0  0  0  0
  6  8  2  0  0  0  0
  7 15  1  1  0  0  0
  7  9  1  0  0  0  0
  9 22  1  0  0  0  0
  9 14  1  1  0  0  0
 10 21  2  0  0  0  0
 11 28  1  1  0  0  0
 11  5  1  0  0  0  0
 11  8  1  0  0  0  0
 12  8  1  6  0  0  0
 12  4  1  0  0  0  0
 12 27  1  0  0  0  0
 13 18  1  0  0  0  0
 15 23  1  0  0  0  0
 16  2  1  0  0  0  0
 17  3  1  0  0  0  0
 18 25  2  0  0  0  0
 19 26  1  0  0  0  0
 20 17  1  0  0  0  0
 22 20  1  6  0  0  0
 22 10  1  0  0  0  0
 23 14  1  0  0  0  0
 26 25  1  0  0  0  0
 26 17  2  0  0  0  0
 27  7  1  0  0  0  0
 27 24  1  1  0  0  0
 29 30  2  0  0  0  0
 30 28  1  0  0  0  0
M  END
>  <MODEL>
6

>  <REMARK>
 VINA RESULT:      -3.5      2.986      4.605
  Name = 
  2 active torsions:
  status: ('A' for Active; 'I' for Inactive)
    1  A    between atoms: C_11  and  C_28
    2  A    between atoms: C_28  and  C_30
                            x       y       z     vdW  Elec       q    Type
                         _______ _______ _______ _____ _____    ______ ____

>  <TORSDO>
F 2

$$$$
=
 OpenBabel11122412303D

 30 35  0  0  1  0  0  0  0  0999 V2000
  160.9230  210.0790  152.9590 C   0  0  0  0  0  0  0  0  0  0  0  0
  160.0810  212.3990  152.5710 C   0  0  0  0  0  0  0  0  0  0  0  0
  161.8520  209.6100  148.9280 O   0  0  0  0  0  0  0  0  0  0  0  0
  161.5220  208.9030  152.4400 C   0  0  0  0  0  0  0  0  0  0  0  0
  160.5820  210.1220  154.3510 N   0  0  0  0  0  2  0  0  0  0  0  0
  162.1440  207.3180  155.6660 O   0  0  0  0  0  0  0  0  0  0  0  0
  160.7180  206.1770  151.7040 C   0  0  1  0  0  3  0  0  0  0  0  0
  161.5810  207.9620  154.7950 C   0  0  0  0  0  0  0  0  0  0  0  0
  161.2610  206.5500  150.3230 C   0  0  2  0  0  3  0  0  0  0  0  0
  162.3310  208.3060  148.9300 C   0  0  0  0  0  0  0  0  0  0  0  0
  160.4940  208.9180  155.1730 C   0  0  2  0  0  3  0  0  0  0  0  0
  161.9740  207.7750  153.3530 C   0  0  1  0  0  3  0  0  0  0  0  0
  159.8350  213.4510  151.6840 C   0  0  0  0  0  3  0  0  0  0  0  0
  161.7520  205.3850  149.7200 O   0  0  0  0  0  0  0  0  0  0  0  0
  160.3450  204.7320  151.5280 C   0  0  0  0  0  2  0  0  0  0  0  0
  159.7470  212.5810  153.9080 O   0  0  0  0  0  1  0  0  0  0  0  0
  161.5220  209.9040  150.2370 C   0  0  0  0  0  0  0  0  0  0  0  0
  160.1470  213.3300  150.3300 C   0  0  0  0  0  3  0  0  0  0  0  0
  160.6570  211.1900  152.1030 C   0  0  0  0  0  0  0  0  0  0  0  0
  161.7950  208.8480  151.0730 C   0  0  0  0  0  0  0  0  0  0  0  0
  162.7500  207.7290  147.8920 O   0  0  0  0  0  0  0  0  0  0  0  0
  162.3020  207.6770  150.2940 C   0  0  1  0  0  3  0  0  0  0  0  0
  160.8890  204.3660  150.1590 C   0  0  0  0  0  2  0  0  0  0  0  0
  163.0290  205.5980  152.6720 C   0  0  0  0  0  1  0  0  0  0  0  0
  160.7130  212.1510  149.8460 C   0  0  0  0  0  3  0  0  0  0  0  0
  160.9690  211.0890  150.7170 C   0  0  0  0  0  0  0  0  0  0  0  0
  161.7100  206.3340  152.8780 C   0  0  2  0  0  3  0  0  0  0  0  0
  159.1360  208.2510  154.9870 C   0  0  0  0  0  2  0  0  0  0  0  0
  159.4540  206.9530  156.9320 O   0  0  0  0  0  0  0  0  0  0  0  0
  159.0460  206.9900  155.7830 C   0  0  0  0  0  3  0  0  0  0  0  0
  1  5  1  0  0  0  0
  2 16  1  0  0  0  0
  3 10  1  0  0  0  0
  3 17  1  0  0  0  0
  4  1  1  0  0  0  0
  5 11  1  0  0  0  0
  7 15  1  6  0  0  0
  7 27  1  0  0  0  0
  8 11  1  0  0  0  0
  8  6  2  0  0  0  0
  9 14  1  1  0  0  0
  9  7  1  0  0  0  0
 11 28  1  6  0  0  0
 12  4  1  6  0  0  0
 12  8  1  0  0  0  0
 13  2  2  0  0  0  0
 14 23  1  0  0  0  0
 17 26  2  0  0  0  0
 17 20  1  0  0  0  0
 18 13  1  0  0  0  0
 19  2  1  0  0  0  0
 19  1  2  0  0  0  0
 20  4  2  0  0  0  0
 21 10  2  0  0  0  0
 22 10  1  6  0  0  0
 22  9  1  0  0  0  0
 22 20  1  0  0  0  0
 23 15  1  0  0  0  0
 25 18  2  0  0  0  0
 25 26  1  0  0  0  0
 26 19  1  0  0  0  0
 27 24  1  6  0  0  0
 27 12  1  0  0  0  0
 28 30  1  0  0  0  0
 30 29  2  0  0  0  0
M  END
>  <MODEL>
7

>  <REMARK>
 VINA RESULT:      -2.5      2.272      7.316
  Name = 
  2 active torsions:
  status: ('A' for Active; 'I' for Inactive)
    1  A    between atoms: C_11  and  C_28
    2  A    between atoms: C_28  and  C_30
                            x       y       z     vdW  Elec       q    Type
                         _______ _______ _______ _____ _____    ______ ____

>  <TORSDO>
F 2

$$$$
=
 OpenBabel11122412303D

 30 35  0  0  1  0  0  0  0  0999 V2000
  161.2680  210.7040  151.3840 C   0  0  0  0  0  0  0  0  0  0  0  0
  160.7960  212.8120  150.1280 C   0  0  0  0  0  0  0  0  0  0  0  0
  162.3330  208.7140  147.8860 O   0  0  0  0  0  0  0  0  0  0  0  0
  161.7150  209.3590  151.3710 C   0  0  0  0  0  0  0  0  0  0  0  0
  160.8630  211.2840  152.6300 N   0  0  0  0  0  2  0  0  0  0  0  0
  161.9240  208.9760  154.9920 O   0  0  0  0  0  0  0  0  0  0  0  0
  160.5620  206.6650  151.5520 C   0  0  1  0  0  3  0  0  0  0  0  0
  161.5090  209.3260  153.8990 C   0  0  0  0  0  0  0  0  0  0  0  0
  161.2270  206.4510  150.1910 C   0  0  2  0  0  3  0  0  0  0  0  0
  162.6160  207.4500  148.3910 C   0  0  0  0  0  0  0  0  0  0  0  0
  160.5550  210.4750  153.8070 C   0  0  2  0  0  3  0  0  0  0  0  0
  161.9480  208.5890  152.6610 C   0  0  1  0  0  3  0  0  0  0  0  0
  160.7540  213.4960  148.9090 C   0  0  0  0  0  3  0  0  0  0  0  0
  161.5740  205.0980  150.0850 O   0  0  0  0  0  0  0  0  0  0  0  0
  159.9920  205.3080  151.8530 C   0  0  0  0  0  2  0  0  0  0  0  0
  160.4200  213.5000  151.2760 O   0  0  0  0  0  1  0  0  0  0  0  0
  161.9800  209.4950  148.9700 C   0  0  0  0  0  0  0  0  0  0  0  0
  161.1180  212.8620  147.7220 C   0  0  0  0  0  3  0  0  0  0  0  0
  161.2130  211.4570  150.1720 C   0  0  0  0  0  0  0  0  0  0  0  0
  162.0500  208.7850  150.1440 C   0  0  0  0  0  0  0  0  0  0  0  0
  163.0010  206.4950  147.6670 O   0  0  0  0  0  0  0  0  0  0  0  0
  162.4220  207.3610  149.8780 C   0  0  1  0  0  3  0  0  0  0  0  0
  160.5490  204.4140  150.7600 C   0  0  0  0  0  2  0  0  0  0  0  0
  162.7080  206.2050  152.8920 C   0  0  0  0  0  1  0  0  0  0  0  0
  161.5300  211.5300  147.7400 C   0  0  0  0  0  3  0  0  0  0  0  0
  161.5810  210.8290  148.9470 C   0  0  0  0  0  0  0  0  0  0  0  0
  161.5020  207.1150  152.6930 C   0  0  2  0  0  3  0  0  0  0  0  0
  159.1260  209.9500  153.7270 C   0  0  0  0  0  2  0  0  0  0  0  0
  157.7250  211.6980  154.4690 O   0  0  0  0  0  0  0  0  0  0  0  0
  158.1570  211.0670  153.5180 C   0  0  0  0  0  3  0  0  0  0  0  0
  1  5  1  0  0  0  0
  2 19  1  0  0  0  0
  2 16  1  0  0  0  0
  3 10  1  0  0  0  0
  3 17  1  0  0  0  0
  4  1  1  0  0  0  0
  5 11  1  0  0  0  0
  7 15  1  1  0  0  0
  7 27  1  0  0  0  0
  8  6  2  0  0  0  0
  9 14  1  1  0  0  0
  9  7  1  0  0  0  0
 11 28  1  6  0  0  0
 11  8  1  0  0  0  0
 12  4  1  6  0  0  0
 12 27  1  0  0  0  0
 12  8  1  0  0  0  0
 13  2  2  0  0  0  0
 14 23  1  0  0  0  0
 17 20  1  0  0  0  0
 18 25  2  0  0  0  0
 18 13  1  0  0  0  0
 19  1  2  0  0  0  0
 20  4  2  0  0  0  0
 21 10  2  0  0  0  0
 22 10  1  6  0  0  0
 22 20  1  0  0  0  0
 22  9  1  0  0  0  0
 23 15  1  0  0  0  0
 25 26  1  0  0  0  0
 26 17  2  0  0  0  0
 26 19  1  0  0  0  0
 27 24  1  6  0  0  0
 30 28  1  0  0  0  0
 30 29  2  0  0  0  0
M  END
>  <MODEL>
8

>  <REMARK>
 VINA RESULT:      -2.5      1.992      6.653
  Name = 
  2 active torsions:
  status: ('A' for Active; 'I' for Inactive)
    1  A    between atoms: C_11  and  C_28
    2  A    between atoms: C_28  and  C_30
                            x       y       z     vdW  Elec       q    Type
                         _______ _______ _______ _____ _____    ______ ____

>  <TORSDO>
F 2

$$$$
=
 OpenBabel11122412303D

 30 35  0  0  1  0  0  0  0  0999 V2000
  161.8290  207.4570  151.0680 C   0  0  0  0  0  0  0  0  0  0  0  0
  161.4690  205.3840  149.7190 C   0  0  0  0  0  0  0  0  0  0  0  0
  160.3290  205.6330  154.4960 O   0  0  0  0  0  0  0  0  0  0  0  0
  161.7710  208.1120  152.3240 C   0  0  0  0  0  0  0  0  0  0  0  0
  162.3040  208.1880  149.9310 N   0  0  0  0  0  2  0  0  0  0  0  0
  163.6330  211.0800  151.3110 O   0  0  0  0  0  0  0  0  0  0  0  0
  160.0980  210.1100  153.6760 C   0  0  1  0  0  3  0  0  0  0  0  0
  162.8580  210.1380  151.2550 C   0  0  0  0  0  0  0  0  0  0  0  0
  159.8900  209.0110  154.7200 C   0  0  2  0  0  3  0  0  0  0  0  0
  160.4210  206.6830  155.4020 C   0  0  0  0  0  0  0  0  0  0  0  0
  162.3940  209.6460  149.9200 C   0  0  2  0  0  3  0  0  0  0  0  0
  162.3670  209.4950  152.5240 C   0  0  1  0  0  3  0  0  0  0  0  0
  161.0360  204.0570  149.6560 C   0  0  0  0  0  3  0  0  0  0  0  0
  159.7010  209.6250  155.9650 O   0  0  0  0  0  0  0  0  0  0  0  0
  159.3690  211.2770  154.2810 C   0  0  0  0  0  2  0  0  0  0  0  0
  161.9510  205.9700  148.5540 O   0  0  0  0  0  1  0  0  0  0  0  0
  160.8260  206.1080  153.2980 C   0  0  0  0  0  0  0  0  0  0  0  0
  160.5410  203.4130  150.7900 C   0  0  0  0  0  3  0  0  0  0  0  0
  161.4110  206.0970  150.9440 C   0  0  0  0  0  0  0  0  0  0  0  0
  161.2510  207.4090  153.4130 C   0  0  0  0  0  0  0  0  0  0  0  0
  160.0760  206.5790  156.6080 O   0  0  0  0  0  0  0  0  0  0  0  0
  160.9800  207.9340  154.7870 C   0  0  1  0  0  3  0  0  0  0  0  0
  158.9980  210.8070  155.6760 C   0  0  0  0  0  2  0  0  0  0  0  0
  162.3630  210.8610  154.6340 C   0  0  0  0  0  1  0  0  0  0  0  0
  160.4730  204.0930  152.0050 C   0  0  0  0  0  3  0  0  0  0  0  0
  160.9030  205.4200  152.0900 C   0  0  0  0  0  0  0  0  0  0  0  0
  161.5680  210.4900  153.3880 C   0  0  2  0  0  3  0  0  0  0  0  0
  161.0370  210.2560  149.5920 C   0  0  0  0  0  2  0  0  0  0  0  0
  162.2150  211.7310  148.1760 O   0  0  0  0  0  0  0  0  0  0  0  0
  161.1920  211.5170  148.8050 C   0  0  0  0  0  3  0  0  0  0  0  0
  1  4  1  0  0  0  0
  2 19  1  0  0  0  0
  3 10  1  0  0  0  0
  4 12  1  0  0  0  0
  4 20  2  0  0  0  0
  5  1  1  0  0  0  0
  7 15  1  1  0  0  0
  7  9  1  0  0  0  0
  8  6  2  0  0  0  0
  9 22  1  0  0  0  0
  9 14  1  1  0  0  0
 10 21  2  0  0  0  0
 11 28  1  1  0  0  0
 11  5  1  0  0  0  0
 11  8  1  0  0  0  0
 12  8  1  6  0  0  0
 12 27  1  0  0  0  0
 13  2  2  0  0  0  0
 13 18  1  0  0  0  0
 15 23  1  0  0  0  0
 16  2  1  0  0  0  0
 17 20  1  0  0  0  0
 17  3  1  0  0  0  0
 18 25  2  0  0  0  0
 19  1  2  0  0  0  0
 19 26  1  0  0  0  0
 22 20  1  6  0  0  0
 22 10  1  0  0  0  0
 23 14  1  0  0  0  0
 25 26  1  0  0  0  0
 26 17  2  0  0  0  0
 27  7  1  0  0  0  0
 27 24  1  1  0  0  0
 29 30  2  0  0  0  0
 30 28  1  0  0  0  0
M  END
>  <MODEL>
9

>  <REMARK>
 VINA RESULT:      -2.4      2.336      3.573
  Name = 
  2 active torsions:
  status: ('A' for Active; 'I' for Inactive)
    1  A    between atoms: C_11  and  C_28
    2  A    between atoms: C_28  and  C_30
                            x       y       z     vdW  Elec       q    Type
                         _______ _______ _______ _____ _____    ______ ____

>  <TORSDO>
F 2

$$$$
