=
 OpenBabel11122414183D

 34 40  0  0  1  0  0  0  0  0999 V2000
  161.0440  207.1430  154.3450 C   0  0  0  0  0  0  0  0  0  0  0  0
  161.1570  204.9380  153.1790 C   0  0  0  0  0  2  0  0  0  0  0  0
  157.9970  212.8790  153.7810 C   0  0  1  0  0  3  0  0  0  0  0  0
  160.0160  209.2250  155.0140 C   0  0  0  0  0  0  0  0  0  0  0  0
  160.0180  211.2210  153.3970 C   0  0  2  0  0  3  0  0  0  0  0  0
  160.0590  213.5690  152.4960 C   0  0  0  0  0  1  0  0  0  0  0  0
  156.8530  211.8830  153.7690 C   0  0  0  0  0  1  0  0  0  0  0  0
  159.7470  213.0360  155.6750 C   0  0  0  0  0  2  0  0  0  0  0  0
  162.0610  206.8520  151.9790 C   0  0  2  0  0  3  0  0  0  0  0  0
  161.5910  206.6050  148.9220 C   0  0  0  0  0  2  0  0  0  0  0  0
  160.0390  210.1490  152.3200 C   0  0  0  0  0  2  0  0  0  0  0  0
  159.9930  211.5490  155.9210 C   0  0  0  0  0  2  0  0  0  0  0  0
  161.1200  208.0120  151.5890 C   0  0  1  0  0  3  0  0  0  0  0  0
  161.7710  204.4120  151.9060 C   0  0  0  0  0  2  0  0  0  0  0  0
  159.5650  210.6460  154.7570 C   0  0  2  0  0  3  0  0  0  0  0  0
  158.3200  213.3240  155.2190 C   0  0  0  0  0  2  0  0  0  0  0  0
  161.0270  205.7470  149.9550 N   0  0  0  0  0  0  0  0  0  0  0  0
  160.6700  208.4580  154.0250 C   0  0  0  0  0  0  0  0  0  0  0  0
  159.1690  212.4060  152.8960 C   0  0  2  0  0  3  0  0  0  0  0  0
  161.0440  209.0660  152.6980 C   0  0  2  0  0  3  0  0  0  0  0  0
  160.0800  207.3780  156.4950 C   0  0  0  0  0  3  0  0  0  0  0  0
  161.0620  208.0190  149.0760 C   0  0  0  0  0  2  0  0  0  0  0  0
  159.7180  208.6530  156.2120 N   0  0  0  0  0  0  0  0  0  0  0  0
  161.6440  208.6750  150.3160 C   0  0  0  0  0  2  0  0  0  0  0  0
  162.0360  205.6300  151.0220 C   0  0  1  0  0  3  0  0  0  0  0  0
  160.7450  206.6390  155.5730 N   0  0  0  0  0  0  0  0  0  0  0  0
  161.8150  206.2820  153.3820 C   0  0  1  0  0  3  0  0  0  0  0  0
  160.8660  204.5310  149.3750 O   0  0  0  0  0  0  0  0  0  0  0  0
  161.1400  204.7400  148.0200 C   0  0  0  0  0  2  0  0  0  0  0  0
  160.3650  201.6680  147.1120 O   0  0  0  0  0  0  0  0  0  0  0  0
  161.4650  203.4120  146.0170 N   0  0  0  0  0  2  0  0  0  0  0  0
  161.7860  203.5020  147.4240 C   0  0  2  0  0  3  0  0  0  0  0  0
  160.8610  202.0970  145.8720 C   0  0  0  0  0  2  0  0  0  0  0  0
  161.1950  202.2730  148.0580 C   0  0  0  0  0  2  0  0  0  0  0  0
  1 26  1  0  0  0  0
  2 27  1  0  0  0  0
  3  7  1  1  0  0  0
  3 16  1  0  0  0  0
  4 23  2  0  0  0  0
  5 11  1  6  0  0  0
  5 15  1  0  0  0  0
  6 19  1  0  0  0  0
  8 12  1  0  0  0  0
  9 27  1  0  0  0  0
 10 22  1  0  0  0  0
 10 17  1  0  0  0  0
 11 20  1  0  0  0  0
 13  9  1  0  0  0  0
 13 20  1  0  0  0  0
 14  2  1  0  0  0  0
 15  4  1  0  0  0  0
 15 12  1  0  0  0  0
 16  8  1  0  0  0  0
 17 25  1  0  0  0  0
 18  1  2  0  0  0  0
 18  4  1  0  0  0  0
 19  5  1  0  0  0  0
 19  3  1  0  0  0  0
 20 18  1  0  0  0  0
 22 24  1  0  0  0  0
 23 21  1  0  0  0  0
 24 13  1  0  0  0  0
 25 14  1  0  0  0  0
 25  9  1  0  0  0  0
 26 21  2  0  0  0  0
 27  1  1  0  0  0  0
 28 17  1  0  0  0  0
 29 28  1  0  0  0  0
 30 34  1  0  0  0  0
 31 32  1  0  0  0  0
 32 29  1  0  0  0  0
 32 34  1  0  0  0  0
 33 31  1  0  0  0  0
 33 30  1  0  0  0  0
M  END
>  <MODEL>
1

>  <REMARK>
 VINA RESULT:      -8.6      0.000      0.000
  Name = 
  3 active torsions:
  status: ('A' for Active; 'I' for Inactive)
    1  A    between atoms: N_17  and  O_28
    2  A    between atoms: O_28  and  C_29
    3  A    between atoms: C_29  and  C_32
                            x       y       z     vdW  Elec       q    Type
                         _______ _______ _______ _____ _____    ______ ____

>  <TORSDO>
F 3

$$$$
=
 OpenBabel11122414183D

 34 40  0  0  1  0  0  0  0  0999 V2000
  160.9520  207.3550  154.4700 C   0  0  0  0  0  0  0  0  0  0  0  0
  161.3370  205.3600  153.0190 C   0  0  0  0  0  2  0  0  0  0  0  0
  157.5000  212.8870  154.4510 C   0  0  1  0  0  3  0  0  0  0  0  0
  159.7070  209.2390  155.3320 C   0  0  0  0  0  0  0  0  0  0  0  0
  159.6740  211.4480  154.0200 C   0  0  2  0  0  3  0  0  0  0  0  0
  159.5950  213.9000  153.4670 C   0  0  0  0  0  1  0  0  0  0  0  0
  156.4460  211.8260  154.1950 C   0  0  0  0  0  1  0  0  0  0  0  0
  159.0770  212.8830  156.4980 C   0  0  0  0  0  2  0  0  0  0  0  0
  162.1730  207.4890  152.1880 C   0  0  2  0  0  3  0  0  0  0  0  0
  161.9680  207.6650  149.0970 C   0  0  0  0  0  2  0  0  0  0  0  0
  159.8680  210.5500  152.8090 C   0  0  0  0  0  2  0  0  0  0  0  0
  159.4240  211.3960  156.5530 C   0  0  0  0  0  2  0  0  0  0  0  0
  161.1750  208.6250  151.8820 C   0  0  1  0  0  3  0  0  0  0  0  0
  162.0900  205.0720  151.7450 C   0  0  0  0  0  2  0  0  0  0  0  0
  159.1640  210.6480  155.2390 C   0  0  2  0  0  3  0  0  0  0  0  0
  157.6720  213.1350  155.9610 C   0  0  0  0  0  2  0  0  0  0  0  0
  161.3960  206.6260  149.9440 N   0  0  0  0  0  0  0  0  0  0  0  0
  160.4980  208.6740  154.3070 C   0  0  0  0  0  0  0  0  0  0  0  0
  158.7740  212.6320  153.6170 C   0  0  2  0  0  3  0  0  0  0  0  0
  160.9250  209.4960  153.1180 C   0  0  2  0  0  3  0  0  0  0  0  0
  159.8050  207.2020  156.5360 C   0  0  0  0  0  3  0  0  0  0  0  0
  161.3140  208.9990  149.4010 C   0  0  0  0  0  2  0  0  0  0  0  0
  159.3630  208.4770  156.4050 N   0  0  0  0  0  0  0  0  0  0  0  0
  161.7420  209.5040  150.7690 C   0  0  0  0  0  2  0  0  0  0  0  0
  162.3240  206.4230  151.0700 C   0  0  1  0  0  3  0  0  0  0  0  0
  160.5990  206.6560  155.5820 N   0  0  0  0  0  0  0  0  0  0  0  0
  161.8640  206.7010  153.4680 C   0  0  1  0  0  3  0  0  0  0  0  0
  161.3810  205.5000  149.1850 O   0  0  0  0  0  0  0  0  0  0  0  0
  160.6770  205.8550  148.0300 C   0  0  0  0  0  2  0  0  0  0  0  0
  162.5330  205.8610  145.3070 O   0  0  0  0  0  0  0  0  0  0  0  0
  162.3860  204.3960  147.1190 N   0  0  0  0  0  2  0  0  0  0  0  0
  161.0680  204.9400  146.8830 C   0  0  2  0  0  3  0  0  0  0  0  0
  163.1410  204.7610  145.9300 C   0  0  0  0  0  2  0  0  0  0  0  0
  161.1760  205.7420  145.6160 C   0  0  0  0  0  2  0  0  0  0  0  0
  1 26  1  0  0  0  0
  2 27  1  0  0  0  0
  3  7  1  1  0  0  0
  3 16  1  0  0  0  0
  4 23  2  0  0  0  0
  5 11  1  6  0  0  0
  5 15  1  0  0  0  0
  6 19  1  0  0  0  0
  8 12  1  0  0  0  0
  9 27  1  0  0  0  0
 10 22  1  0  0  0  0
 10 17  1  0  0  0  0
 11 20  1  0  0  0  0
 13  9  1  0  0  0  0
 13 20  1  0  0  0  0
 14  2  1  0  0  0  0
 15  4  1  0  0  0  0
 15 12  1  0  0  0  0
 16  8  1  0  0  0  0
 17 25  1  0  0  0  0
 18  1  2  0  0  0  0
 18  4  1  0  0  0  0
 19  5  1  0  0  0  0
 19  3  1  0  0  0  0
 20 18  1  0  0  0  0
 22 24  1  0  0  0  0
 23 21  1  0  0  0  0
 24 13  1  0  0  0  0
 25 14  1  0  0  0  0
 25  9  1  0  0  0  0
 26 21  2  0  0  0  0
 27  1  1  0  0  0  0
 28 17  1  0  0  0  0
 29 28  1  0  0  0  0
 30 34  1  0  0  0  0
 30 33  1  0  0  0  0
 32 31  1  0  0  0  0
 32 29  1  0  0  0  0
 33 31  1  0  0  0  0
 34 32  1  0  0  0  0
M  END
>  <MODEL>
2

>  <REMARK>
 VINA RESULT:      -7.7      1.343      1.532
  Name = 
  3 active torsions:
  status: ('A' for Active; 'I' for Inactive)
    1  A    between atoms: N_17  and  O_28
    2  A    between atoms: O_28  and  C_29
    3  A    between atoms: C_29  and  C_32
                            x       y       z     vdW  Elec       q    Type
                         _______ _______ _______ _____ _____    ______ ____

>  <TORSDO>
F 3

$$$$
=
 OpenBabel11122414183D

 34 40  0  0  1  0  0  0  0  0999 V2000
  160.8810  204.7680  151.7990 C   0  0  0  0  0  0  0  0  0  0  0  0
  161.5090  205.9610  153.9010 C   0  0  0  0  0  2  0  0  0  0  0  0
  162.6730  204.5210  145.5350 C   0  0  1  0  0  3  0  0  0  0  0  0
  161.2620  203.8460  149.5980 C   0  0  0  0  0  0  0  0  0  0  0  0
  161.1940  205.3900  147.5450 C   0  0  2  0  0  3  0  0  0  0  0  0
  160.8530  206.2400  145.2030 C   0  0  0  0  0  1  0  0  0  0  0  0
  163.9770  204.2810  146.2730 C   0  0  0  0  0  1  0  0  0  0  0  0
  160.5500  203.0850  145.8630 C   0  0  0  0  0  2  0  0  0  0  0  0
  160.5080  207.3090  152.1400 C   0  0  2  0  0  3  0  0  0  0  0  0
  161.6940  210.1770  152.0880 C   0  0  0  0  0  2  0  0  0  0  0  0
  161.6460  206.4580  148.5270 C   0  0  0  0  0  2  0  0  0  0  0  0
  160.5810  202.9240  147.3820 C   0  0  0  0  0  2  0  0  0  0  0  0
  161.2410  207.4530  150.7890 C   0  0  1  0  0  3  0  0  0  0  0  0
  161.3240  207.3490  154.4590 C   0  0  0  0  0  2  0  0  0  0  0  0
  161.4430  203.9700  148.1010 C   0  0  2  0  0  3  0  0  0  0  0  0
  161.9480  203.1910  145.2590 C   0  0  0  0  0  2  0  0  0  0  0  0
  162.1820  209.0530  152.8770 N   0  0  0  0  0  0  0  0  0  0  0  0
  161.0270  204.9720  150.4180 C   0  0  0  0  0  0  0  0  0  0  0  0
  161.8590  205.6620  146.1810 C   0  0  2  0  0  3  0  0  0  0  0  0
  160.8380  206.3410  149.8160 C   0  0  2  0  0  3  0  0  0  0  0  0
  161.2650  202.4490  151.5100 C   0  0  0  0  0  3  0  0  0  0  0  0
  161.8590  209.8820  150.6100 C   0  0  0  0  0  2  0  0  0  0  0  0
  161.3990  202.6210  150.1720 N   0  0  0  0  0  0  0  0  0  0  0  0
  160.8860  208.8030  150.1670 C   0  0  0  0  0  2  0  0  0  0  0  0
  161.0090  208.2520  153.2670 C   0  0  1  0  0  3  0  0  0  0  0  0
  160.9990  203.5120  152.3080 N   0  0  0  0  0  0  0  0  0  0  0  0
  160.5500  205.8970  152.7370 C   0  0  1  0  0  3  0  0  0  0  0  0
  162.7270  209.5980  153.9950 O   0  0  0  0  0  0  0  0  0  0  0  0
  162.0010  210.7730  154.2120 C   0  0  0  0  0  2  0  0  0  0  0  0
  160.0970  209.7280  156.6900 O   0  0  0  0  0  0  0  0  0  0  0  0
  162.4110  209.9080  156.4400 N   0  0  0  0  0  2  0  0  0  0  0  0
  161.8010  210.9910  155.7020 C   0  0  2  0  0  3  0  0  0  0  0  0
  161.3310  209.3840  157.2610 C   0  0  0  0  0  2  0  0  0  0  0  0
  160.3340  210.9330  156.0240 C   0  0  0  0  0  2  0  0  0  0  0  0
  1 26  1  0  0  0  0
  1 27  1  0  0  0  0
  2 14  1  0  0  0  0
  3 19  1  0  0  0  0
  3  7  1  1  0  0  0
  4 23  2  0  0  0  0
  4 18  1  0  0  0  0
  5 15  1  0  0  0  0
  5 11  1  1  0  0  0
  6 19  1  0  0  0  0
  8 12  1  0  0  0  0
  9 27  1  0  0  0  0
  9 25  1  0  0  0  0
 10 17  1  0  0  0  0
 11 20  1  0  0  0  0
 12 15  1  0  0  0  0
 13  9  1  0  0  0  0
 15  4  1  0  0  0  0
 16  3  1  0  0  0  0
 16  8  1  0  0  0  0
 17 25  1  0  0  0  0
 17 28  1  0  0  0  0
 18  1  2  0  0  0  0
 19  5  1  0  0  0  0
 20 18  1  0  0  0  0
 20 13  1  0  0  0  0
 21 26  2  0  0  0  0
 22 10  1  0  0  0  0
 23 21  1  0  0  0  0
 24 22  1  0  0  0  0
 24 13  1  0  0  0  0
 25 14  1  0  0  0  0
 27  2  1  0  0  0  0
 28 29  1  0  0  0  0
 29 32  1  0  0  0  0
 30 33  1  0  0  0  0
 31 33  1  0  0  0  0
 32 34  1  0  0  0  0
 32 31  1  0  0  0  0
 34 30  1  0  0  0  0
M  END
>  <MODEL>
3

>  <REMARK>
 VINA RESULT:      -7.0      3.105      8.590
  Name = 
  3 active torsions:
  status: ('A' for Active; 'I' for Inactive)
    1  A    between atoms: N_17  and  O_28
    2  A    between atoms: O_28  and  C_29
    3  A    between atoms: C_29  and  C_32
                            x       y       z     vdW  Elec       q    Type
                         _______ _______ _______ _____ _____    ______ ____

>  <TORSDO>
F 3

$$$$
=
 OpenBabel11122414183D

 34 40  0  0  1  0  0  0  0  0999 V2000
  161.6500  207.5550  149.4630 C   0  0  0  0  0  0  0  0  0  0  0  0
  161.0870  209.7120  150.5880 C   0  0  0  0  0  2  0  0  0  0  0  0
  159.7310  201.3240  149.4880 C   0  0  1  0  0  3  0  0  0  0  0  0
  161.2070  205.3290  148.6330 C   0  0  0  0  0  0  0  0  0  0  0  0
  161.2660  203.3350  150.2520 C   0  0  2  0  0  3  0  0  0  0  0  0
  161.5780  201.0200  151.1840 C   0  0  0  0  0  1  0  0  0  0  0  0
  158.4370  202.0780  149.2460 C   0  0  0  0  0  1  0  0  0  0  0  0
  161.8300  201.5550  148.0000 C   0  0  0  0  0  2  0  0  0  0  0  0
  162.0800  207.9840  151.9830 C   0  0  2  0  0  3  0  0  0  0  0  0
  160.9510  208.0630  154.8720 C   0  0  0  0  0  2  0  0  0  0  0  0
  160.8550  204.3650  151.2900 C   0  0  0  0  0  2  0  0  0  0  0  0
  161.8270  203.0670  147.7830 C   0  0  0  0  0  2  0  0  0  0  0  0
  161.3240  206.6540  152.1910 C   0  0  1  0  0  3  0  0  0  0  0  0
  161.3110  210.3180  151.9500 C   0  0  0  0  0  2  0  0  0  0  0  0
  161.0000  203.8420  148.8170 C   0  0  2  0  0  3  0  0  0  0  0  0
  160.4240  200.9840  148.1560 C   0  0  0  0  0  2  0  0  0  0  0  0
  160.4560  208.8190  153.7290 N   0  0  0  0  0  0  0  0  0  0  0  0
  161.4810  206.1860  149.7220 C   0  0  0  0  0  0  0  0  0  0  0  0
  160.5810  201.9960  150.5880 C   0  0  2  0  0  3  0  0  0  0  0  0
  161.6850  205.6320  151.1090 C   0  0  2  0  0  3  0  0  0  0  0  0
  161.2140  207.1870  147.1650 C   0  0  0  0  0  3  0  0  0  0  0  0
  160.7510  206.5780  154.6370 C   0  0  0  0  0  2  0  0  0  0  0  0
  161.0570  205.8590  147.3900 N   0  0  0  0  0  0  0  0  0  0  0  0
  161.6940  206.0760  153.5560 C   0  0  0  0  0  2  0  0  0  0  0  0
  161.6200  209.1550  152.8920 C   0  0  1  0  0  3  0  0  0  0  0  0
  161.5170  208.0190  148.1910 N   0  0  0  0  0  0  0  0  0  0  0  0
  162.0220  208.5280  150.5490 C   0  0  1  0  0  3  0  0  0  0  0  0
  159.9440  209.9670  154.2420 O   0  0  0  0  0  0  0  0  0  0  0  0
  160.5840  210.1270  155.4750 C   0  0  0  0  0  2  0  0  0  0  0  0
  158.3130  212.4880  155.1190 O   0  0  0  0  0  0  0  0  0  0  0  0
  158.9670  211.1830  156.9410 N   0  0  0  0  0  2  0  0  0  0  0  0
  160.1370  211.4230  156.1270 C   0  0  2  0  0  3  0  0  0  0  0  0
  157.9790  212.1200  156.4300 C   0  0  0  0  0  2  0  0  0  0  0  0
  159.7060  212.3960  155.0650 C   0  0  0  0  0  2  0  0  0  0  0  0
  1 18  1  0  0  0  0
  1 27  1  0  0  0  0
  2 14  1  0  0  0  0
  3  7  1  6  0  0  0
  3 19  1  0  0  0  0
  4 15  1  0  0  0  0
  4 18  2  0  0  0  0
  5 19  1  0  0  0  0
  5 11  1  1  0  0  0
  8 16  1  0  0  0  0
  9 13  1  0  0  0  0
  9 25  1  0  0  0  0
 12  8  1  0  0  0  0
 12 15  1  0  0  0  0
 13 24  1  0  0  0  0
 14 25  1  0  0  0  0
 15  5  1  0  0  0  0
 16  3  1  0  0  0  0
 17 28  1  0  0  0  0
 17 10  1  0  0  0  0
 18 20  1  0  0  0  0
 19  6  1  0  0  0  0
 20 11  1  0  0  0  0
 20 13  1  0  0  0  0
 21 23  2  0  0  0  0
 21 26  1  0  0  0  0
 22 10  1  0  0  0  0
 23  4  1  0  0  0  0
 24 22  1  0  0  0  0
 25 17  1  0  0  0  0
 26  1  2  0  0  0  0
 27  2  1  0  0  0  0
 27  9  1  0  0  0  0
 28 29  1  0  0  0  0
 29 32  1  0  0  0  0
 30 33  1  0  0  0  0
 32 31  1  0  0  0  0
 33 31  1  0  0  0  0
 34 30  1  0  0  0  0
 34 32  1  0  0  0  0
M  END
>  <MODEL>
4

>  <REMARK>
 VINA RESULT:      -6.7      2.779      9.197
  Name = 
  3 active torsions:
  status: ('A' for Active; 'I' for Inactive)
    1  A    between atoms: N_17  and  O_28
    2  A    between atoms: O_28  and  C_29
    3  A    between atoms: C_29  and  C_32
                            x       y       z     vdW  Elec       q    Type
                         _______ _______ _______ _____ _____    ______ ____

>  <TORSDO>
F 3

$$$$
=
 OpenBabel11122414183D

 34 40  0  0  1  0  0  0  0  0999 V2000
  161.8480  207.1980  149.1090 C   0  0  0  0  0  0  0  0  0  0  0  0
  161.4330  209.3700  150.2660 C   0  0  0  0  0  2  0  0  0  0  0  0
  159.5020  201.1150  149.0300 C   0  0  1  0  0  3  0  0  0  0  0  0
  161.2560  205.0210  148.2420 C   0  0  0  0  0  0  0  0  0  0  0  0
  161.1700  203.0020  149.8290 C   0  0  2  0  0  3  0  0  0  0  0  0
  161.3180  200.6570  150.7250 C   0  0  0  0  0  1  0  0  0  0  0  0
  158.2640  201.9610  148.7970 C   0  0  0  0  0  1  0  0  0  0  0  0
  161.6180  201.2230  147.5500 C   0  0  0  0  0  2  0  0  0  0  0  0
  162.2990  207.5560  151.6350 C   0  0  2  0  0  3  0  0  0  0  0  0
  161.1690  207.6680  154.5240 C   0  0  0  0  0  2  0  0  0  0  0  0
  160.8280  204.0420  150.8830 C   0  0  0  0  0  2  0  0  0  0  0  0
  161.7190  202.7350  147.3580 C   0  0  0  0  0  2  0  0  0  0  0  0
  161.4520  206.2790  151.8210 C   0  0  1  0  0  3  0  0  0  0  0  0
  161.6930  209.9380  151.6390 C   0  0  0  0  0  2  0  0  0  0  0  0
  160.9450  203.5490  148.4020 C   0  0  2  0  0  3  0  0  0  0  0  0
  160.1740  200.7490  147.6950 C   0  0  0  0  0  2  0  0  0  0  0  0
  160.7310  208.4740  153.3920 N   0  0  0  0  0  0  0  0  0  0  0  0
  161.5840  205.8390  149.3460 C   0  0  0  0  0  0  0  0  0  0  0  0
  160.3930  201.7080  150.1430 C   0  0  2  0  0  3  0  0  0  0  0  0
  161.7450  205.2510  150.7240 C   0  0  2  0  0  3  0  0  0  0  0  0
  161.3950  206.8970  146.8040 C   0  0  0  0  0  3  0  0  0  0  0  0
  160.8680  206.2040  154.2640 C   0  0  0  0  0  2  0  0  0  0  0  0
  161.1460  205.5800  147.0070 N   0  0  0  0  0  0  0  0  0  0  0  0
  161.7770  205.6550  153.1780 C   0  0  0  0  0  2  0  0  0  0  0  0
  161.9190  208.7410  152.5620 C   0  0  1  0  0  3  0  0  0  0  0  0
  161.7520  207.6900  147.8440 N   0  0  0  0  0  0  0  0  0  0  0  0
  162.2830  208.1250  150.2110 C   0  0  1  0  0  3  0  0  0  0  0  0
  160.2980  209.6460  153.9220 O   0  0  0  0  0  0  0  0  0  0  0  0
  159.9600  209.3400  155.2430 C   0  0  0  0  0  2  0  0  0  0  0  0
  162.7060  209.8350  156.9970 O   0  0  0  0  0  0  0  0  0  0  0  0
  161.5410  211.1640  155.4720 N   0  0  0  0  0  2  0  0  0  0  0  0
  160.5740  210.3600  156.1850 C   0  0  2  0  0  3  0  0  0  0  0  0
  162.7660  211.0140  156.2410 C   0  0  0  0  0  2  0  0  0  0  0  0
  161.3470  209.6480  157.2610 C   0  0  0  0  0  2  0  0  0  0  0  0
  1 18  1  0  0  0  0
  1 27  1  0  0  0  0
  2 14  1  0  0  0  0
  3  7  1  6  0  0  0
  3 19  1  0  0  0  0
  4 15  1  0  0  0  0
  4 18  2  0  0  0  0
  5 19  1  0  0  0  0
  5 11  1  1  0  0  0
  8 16  1  0  0  0  0
  9 13  1  0  0  0  0
  9 25  1  0  0  0  0
 12  8  1  0  0  0  0
 12 15  1  0  0  0  0
 13 24  1  0  0  0  0
 14 25  1  0  0  0  0
 15  5  1  0  0  0  0
 16  3  1  0  0  0  0
 17 28  1  0  0  0  0
 17 10  1  0  0  0  0
 18 20  1  0  0  0  0
 19  6  1  0  0  0  0
 20 11  1  0  0  0  0
 20 13  1  0  0  0  0
 21 23  2  0  0  0  0
 21 26  1  0  0  0  0
 22 10  1  0  0  0  0
 23  4  1  0  0  0  0
 24 22  1  0  0  0  0
 25 17  1  0  0  0  0
 26  1  2  0  0  0  0
 27  2  1  0  0  0  0
 27  9  1  0  0  0  0
 28 29  1  0  0  0  0
 29 32  1  0  0  0  0
 30 34  1  0  0  0  0
 31 32  1  0  0  0  0
 31 33  1  0  0  0  0
 32 34  1  0  0  0  0
 33 30  1  0  0  0  0
M  END
>  <MODEL>
5

>  <REMARK>
 VINA RESULT:      -6.0      3.040      9.170
  Name = 
  3 active torsions:
  status: ('A' for Active; 'I' for Inactive)
    1  A    between atoms: N_17  and  O_28
    2  A    between atoms: O_28  and  C_29
    3  A    between atoms: C_29  and  C_32
                            x       y       z     vdW  Elec       q    Type
                         _______ _______ _______ _____ _____    ______ ____

>  <TORSDO>
F 3

$$$$
