=
 OpenBabel11122414063D

 28 31  0  0  1  0  0  0  0  0999 V2000
  161.1080  208.0700  155.2580 C   0  0  0  0  0  0  0  0  0  0  0  0
  158.4980  210.9110  155.6160 O   0  0  0  0  0  0  0  0  0  0  0  0
  162.4230  210.0370  156.7530 C   0  0  0  0  0  3  0  0  0  0  0  0
  160.5420  207.0660  154.4730 O   0  0  0  0  0  0  0  0  0  0  0  0
  160.2000  212.5700  154.9390 O   0  0  0  0  0  0  0  0  0  0  0  0
  159.0700  211.6970  154.4700 S   0  0  0  0  0  0  0  0  0  0  0  0
  158.3170  213.2630  152.3640 C   0  0  2  0  0  3  0  0  0  0  0  0
  159.5620  210.6440  153.1840 N   0  0  1  0  0  0  0  0  0  0  0  0
  161.6490  205.3540  151.2980 C   0  0  0  0  0  1  0  0  0  0  0  0
  161.6220  209.7210  152.2560 C   0  0  2  0  0  3  0  0  0  0  0  0
  158.8860  212.1820  151.4290 C   0  0  0  0  0  2  0  0  0  0  0  0
  157.8160  212.7150  153.7110 C   0  0  0  0  0  2  0  0  0  0  0  0
  160.8440  206.2940  152.1810 C   0  0  2  0  0  3  0  0  0  0  0  0
  161.1760  209.3870  154.7760 C   0  0  0  0  0  0  0  0  0  0  0  0
  157.2800  213.9360  151.7210 O   0  0  0  0  0  1  0  0  0  0  0  0
  160.6950  207.5750  151.5910 O   0  0  0  0  0  0  0  0  0  0  0  0
  161.8740  210.3550  155.5080 C   0  0  0  0  0  3  0  0  0  0  0  0
  161.6510  207.7550  156.5090 C   0  0  0  0  0  3  0  0  0  0  0  0
  162.3010  208.7400  157.2600 C   0  0  0  0  0  3  0  0  0  0  0  0
  161.3730  206.2880  153.6220 C   0  0  0  0  0  2  0  0  0  0  0  0
  160.9410  210.6320  151.2410 C   0  0  1  0  0  3  0  0  0  0  0  0
  161.8960  208.3070  151.7170 C   0  0  1  0  0  3  0  0  0  0  0  0
  160.0580  211.4970  152.1220 C   0  0  2  0  0  3  0  0  0  0  0  0
  160.6310  209.6650  153.4050 C   0  0  1  0  0  3  0  0  0  0  0  0
  161.6010  207.9810  149.5460 C   0  0  0  0  0  1  0  0  0  0  0  0
  162.5590  208.3600  150.4870 O   0  0  0  0  0  0  0  0  0  0  0  0
  161.9870  211.4790  150.5330 C   0  0  0  0  0  2  0  0  0  0  0  0
  161.7040  211.5350  149.0440 C   0  0  0  0  0  1  0  0  0  0  0  0
  1 18  1  0  0  0  0
  3 19  1  0  0  0  0
  4  1  1  0  0  0  0
  6  5  2  0  0  0  0
  6  2  2  0  0  0  0
  7 15  1  6  0  0  0
  7 12  1  0  0  0  0
  8 24  1  0  0  0  0
  8  6  1  1  0  0  0
  9 13  1  0  0  0  0
 10 24  1  0  0  0  0
 11 23  1  0  0  0  0
 11  7  1  0  0  0  0
 12  6  1  0  0  0  0
 13 20  1  0  0  0  0
 14  1  2  0  0  0  0
 14 17  1  0  0  0  0
 16 22  1  0  0  0  0
 16 13  1  0  0  0  0
 17  3  2  0  0  0  0
 18 19  2  0  0  0  0
 20  4  1  0  0  0  0
 21 23  1  0  0  0  0
 21 10  1  0  0  0  0
 22 10  1  0  0  0  0
 23  8  1  0  0  0  0
 24 14  1  0  0  0  0
 25 26  1  0  0  0  0
 26 22  1  0  0  0  0
 27 21  1  0  0  0  0
 28 27  1  0  0  0  0
M  END
>  <MODEL>
1

>  <REMARK>
 VINA RESULT:      -5.7      0.000      0.000
  Name = 
  2 active torsions:
  status: ('A' for Active; 'I' for Inactive)
    1  A    between atoms: C_5  and  C_24
    2  A    between atoms: O_17  and  C_25
                            x       y       z     vdW  Elec       q    Type
                         _______ _______ _______ _____ _____    ______ ____

>  <TORSDO>
F 2

$$$$
=
 OpenBabel11122414063D

 28 31  0  0  1  0  0  0  0  0999 V2000
  161.7610  210.6520  137.9070 C   0  0  0  0  0  0  0  0  0  0  0  0
  157.9950  210.8280  137.0110 O   0  0  0  0  0  0  0  0  0  0  0  0
  160.7340  208.1830  138.7330 C   0  0  0  0  0  3  0  0  0  0  0  0
  162.3370  211.8770  137.5730 O   0  0  0  0  0  0  0  0  0  0  0  0
  157.4130  210.0060  139.2680 O   0  0  0  0  0  0  0  0  0  0  0  0
  157.5950  211.2230  138.4050 S   0  0  0  0  0  0  0  0  0  0  0  0
  155.8450  212.8300  139.7520 C   0  0  2  0  0  3  0  0  0  0  0  0
  158.7420  212.3290  139.0860 N   0  0  1  0  0  0  0  0  0  0  0  0
  164.3480  214.3950  139.5360 C   0  0  0  0  0  1  0  0  0  0  0  0
  160.5680  212.3120  140.7050 C   0  0  2  0  0  3  0  0  0  0  0  0
  157.0580  213.6220  140.2690 C   0  0  0  0  0  2  0  0  0  0  0  0
  156.0780  212.1640  138.3850 C   0  0  0  0  0  2  0  0  0  0  0  0
  163.1380  213.8060  138.8290 C   0  0  2  0  0  3  0  0  0  0  0  0
  160.6530  210.6080  138.7690 C   0  0  0  0  0  0  0  0  0  0  0  0
  154.7370  213.6710  139.6770 O   0  0  0  0  0  1  0  0  0  0  0  0
  161.9520  213.9690  139.5880 O   0  0  0  0  0  0  0  0  0  0  0  0
  160.1740  209.3690  139.2130 C   0  0  0  0  0  3  0  0  0  0  0  0
  162.3160  209.4620  137.4210 C   0  0  0  0  0  3  0  0  0  0  0  0
  161.7980  208.2290  137.8270 C   0  0  0  0  0  3  0  0  0  0  0  0
  163.4200  212.3770  138.3440 C   0  0  0  0  0  2  0  0  0  0  0  0
  159.4300  213.1990  141.1950 C   0  0  1  0  0  3  0  0  0  0  0  0
  161.9240  213.0360  140.6470 C   0  0  1  0  0  3  0  0  0  0  0  0
  158.2460  212.6760  140.4040 C   0  0  2  0  0  3  0  0  0  0  0  0
  160.1280  211.9050  139.3100 C   0  0  1  0  0  3  0  0  0  0  0  0
  162.6990  212.6690  142.6890 C   0  0  0  0  0  1  0  0  0  0  0  0
  162.2020  213.6750  141.8590 O   0  0  0  0  0  0  0  0  0  0  0  0
  159.2190  212.9830  142.6850 C   0  0  0  0  0  2  0  0  0  0  0  0
  159.1230  214.3150  143.4050 C   0  0  0  0  0  1  0  0  0  0  0  0
  1 14  1  0  0  0  0
  2  6  2  0  0  0  0
  3 17  1  0  0  0  0
  4  1  1  0  0  0  0
  4 20  1  0  0  0  0
  6  5  2  0  0  0  0
  7 15  1  6  0  0  0
  7 11  1  0  0  0  0
  8  6  1  1  0  0  0
  8 24  1  0  0  0  0
  8 23  1  0  0  0  0
 10 21  1  0  0  0  0
 11 23  1  0  0  0  0
 12  6  1  0  0  0  0
 12  7  1  0  0  0  0
 13  9  1  0  0  0  0
 13 16  1  0  0  0  0
 14 17  2  0  0  0  0
 14 24  1  0  0  0  0
 16 22  1  0  0  0  0
 18 19  1  0  0  0  0
 18  1  2  0  0  0  0
 19  3  2  0  0  0  0
 20 13  1  0  0  0  0
 21 27  1  0  0  0  0
 22 10  1  0  0  0  0
 22 26  1  0  0  0  0
 23 21  1  0  0  0  0
 24 10  1  0  0  0  0
 26 25  1  0  0  0  0
 27 28  1  0  0  0  0
M  END
>  <MODEL>
2

>  <REMARK>
 VINA RESULT:      -5.1     11.838     14.565
  Name = 
  2 active torsions:
  status: ('A' for Active; 'I' for Inactive)
    1  A    between atoms: C_5  and  C_24
    2  A    between atoms: O_17  and  C_25
                            x       y       z     vdW  Elec       q    Type
                         _______ _______ _______ _____ _____    ______ ____

>  <TORSDO>
F 2

$$$$
=
 OpenBabel11122414063D

 28 31  0  0  1  0  0  0  0  0999 V2000
  161.1280  209.8340  155.1180 C   0  0  0  0  0  0  0  0  0  0  0  0
  163.0880  209.9880  151.7790 O   0  0  0  0  0  0  0  0  0  0  0  0
  160.4560  207.4540  153.8080 C   0  0  0  0  0  3  0  0  0  0  0  0
  161.3700  211.0200  155.8110 O   0  0  0  0  0  0  0  0  0  0  0  0
  161.0420  209.3600  150.5420 O   0  0  0  0  0  0  0  0  0  0  0  0
  161.9030  210.5000  151.0090 S   0  0  0  0  0  0  0  0  0  0  0  0
  161.2420  212.2340  149.0050 C   0  0  2  0  0  3  0  0  0  0  0  0
  161.0010  211.6420  151.9510 N   0  0  1  0  0  0  0  0  0  0  0  0
  159.0980  213.6610  157.2610 C   0  0  0  0  0  1  0  0  0  0  0  0
  158.9260  211.7310  153.2310 C   0  0  2  0  0  3  0  0  0  0  0  0
  160.4560  213.0490  150.0460 C   0  0  0  0  0  2  0  0  0  0  0  0
  162.4310  211.4570  149.5970 C   0  0  0  0  0  2  0  0  0  0  0  0
  160.0810  213.0340  156.2860 C   0  0  2  0  0  3  0  0  0  0  0  0
  160.6240  209.8750  153.8090 C   0  0  0  0  0  0  0  0  0  0  0  0
  161.6970  213.0810  147.9960 O   0  0  0  0  0  1  0  0  0  0  0  0
  159.7120  213.2740  154.9370 O   0  0  0  0  0  0  0  0  0  0  0  0
  160.2470  208.6830  153.1770 C   0  0  0  0  0  3  0  0  0  0  0  0
  161.3430  208.6020  155.7460 C   0  0  0  0  0  3  0  0  0  0  0  0
  161.0160  207.4130  155.0890 C   0  0  0  0  0  3  0  0  0  0  0  0
  160.3570  211.5670  156.6430 C   0  0  0  0  0  2  0  0  0  0  0  0
  158.8540  212.6710  152.0340 C   0  0  1  0  0  3  0  0  0  0  0  0
  158.6410  212.4300  154.5720 C   0  0  1  0  0  3  0  0  0  0  0  0
  159.9130  212.1010  151.1090 C   0  0  2  0  0  3  0  0  0  0  0  0
  160.3550  211.2190  153.1970 C   0  0  1  0  0  3  0  0  0  0  0  0
  156.4640  212.2750  154.9430 C   0  0  0  0  0  1  0  0  0  0  0  0
  157.4510  213.1610  154.5120 O   0  0  0  0  0  0  0  0  0  0  0  0
  157.4770  212.5780  151.3950 C   0  0  0  0  0  2  0  0  0  0  0  0
  156.9580  213.9620  151.0510 C   0  0  0  0  0  1  0  0  0  0  0  0
  1 18  1  0  0  0  0
  1  4  1  0  0  0  0
  3 19  1  0  0  0  0
  4 20  1  0  0  0  0
  5  6  2  0  0  0  0
  6  2  2  0  0  0  0
  7 15  1  6  0  0  0
  7 12  1  0  0  0  0
  7 11  1  0  0  0  0
  8  6  1  6  0  0  0
  8 24  1  0  0  0  0
 10 22  1  0  0  0  0
 11 23  1  0  0  0  0
 12  6  1  0  0  0  0
 13 20  1  0  0  0  0
 13  9  1  0  0  0  0
 14  1  2  0  0  0  0
 16 13  1  0  0  0  0
 17  3  2  0  0  0  0
 17 14  1  0  0  0  0
 19 18  2  0  0  0  0
 21 10  1  0  0  0  0
 22 16  1  0  0  0  0
 23  8  1  0  0  0  0
 23 21  1  0  0  0  0
 24 10  1  0  0  0  0
 24 14  1  0  0  0  0
 26 22  1  0  0  0  0
 26 25  1  0  0  0  0
 27 21  1  0  0  0  0
 28 27  1  0  0  0  0
M  END
>  <MODEL>
3

>  <REMARK>
 VINA RESULT:      -3.5      2.197      5.234
  Name = 
  2 active torsions:
  status: ('A' for Active; 'I' for Inactive)
    1  A    between atoms: C_5  and  C_24
    2  A    between atoms: O_17  and  C_25
                            x       y       z     vdW  Elec       q    Type
                         _______ _______ _______ _____ _____    ______ ____

>  <TORSDO>
F 2

$$$$
=
 OpenBabel11122414063D

 28 31  0  0  1  0  0  0  0  0999 V2000
  157.6820  213.5300  153.2960 C   0  0  0  0  0  0  0  0  0  0  0  0
  159.3670  213.0160  156.7470 O   0  0  0  0  0  0  0  0  0  0  0  0
  156.0350  211.6840  154.6050 C   0  0  0  0  0  3  0  0  0  0  0  0
  158.4790  214.4030  152.5570 O   0  0  0  0  0  0  0  0  0  0  0  0
  159.1760  210.5650  156.4820 O   0  0  0  0  0  0  0  0  0  0  0  0
  160.0710  211.7610  156.3110 S   0  0  0  0  0  0  0  0  0  0  0  0
  162.4370  210.4270  156.5980 C   0  0  2  0  0  3  0  0  0  0  0  0
  160.6430  211.9080  154.6810 N   0  0  1  0  0  0  0  0  0  0  0  0
  160.0940  214.1580  149.1560 C   0  0  0  0  0  1  0  0  0  0  0  0
  160.0360  211.1330  152.4480 C   0  0  2  0  0  3  0  0  0  0  0  0
  162.6790  210.6490  155.0950 C   0  0  0  0  0  2  0  0  0  0  0  0
  161.5680  211.5160  157.2520 C   0  0  0  0  0  2  0  0  0  0  0  0
  160.0080  214.1680  150.6730 C   0  0  2  0  0  3  0  0  0  0  0  0
  158.2350  212.3570  153.8330 C   0  0  0  0  0  0  0  0  0  0  0  0
  163.6600  210.3480  157.2610 O   0  0  0  0  0  1  0  0  0  0  0  0
  160.7670  213.1190  151.2520 O   0  0  0  0  0  0  0  0  0  0  0  0
  157.3970  211.4170  154.4470 C   0  0  0  0  0  3  0  0  0  0  0  0
  156.3180  213.7990  153.4610 C   0  0  0  0  0  3  0  0  0  0  0  0
  155.4970  212.8810  154.1230 C   0  0  0  0  0  3  0  0  0  0  0  0
  158.5500  214.2650  151.1450 C   0  0  0  0  0  2  0  0  0  0  0  0
  161.3860  210.5600  152.8630 C   0  0  1  0  0  3  0  0  0  0  0  0
  160.0830  211.8930  151.1110 C   0  0  1  0  0  3  0  0  0  0  0  0
  161.3350  210.6720  154.3760 C   0  0  2  0  0  3  0  0  0  0  0  0
  159.6890  212.0820  153.5810 C   0  0  1  0  0  3  0  0  0  0  0  0
  161.9500  211.6790  149.9390 C   0  0  0  0  0  1  0  0  0  0  0  0
  160.6850  211.1170  150.1160 O   0  0  0  0  0  0  0  0  0  0  0  0
  161.4740  209.1030  152.4350 C   0  0  0  0  0  2  0  0  0  0  0  0
  160.8130  208.2070  153.4650 C   0  0  0  0  0  1  0  0  0  0  0  0
  1 18  2  0  0  0  0
  1 14  1  0  0  0  0
  4  1  1  0  0  0  0
  6  5  2  0  0  0  0
  6  2  2  0  0  0  0
  6 12  1  0  0  0  0
  7 12  1  0  0  0  0
  7 15  1  1  0  0  0
  8  6  1  1  0  0  0
  9 13  1  0  0  0  0
 10 21  1  0  0  0  0
 10 24  1  0  0  0  0
 11  7  1  0  0  0  0
 13 20  1  0  0  0  0
 13 16  1  0  0  0  0
 14 17  2  0  0  0  0
 17  3  1  0  0  0  0
 18 19  1  0  0  0  0
 19  3  2  0  0  0  0
 20  4  1  0  0  0  0
 21 23  1  0  0  0  0
 22 16  1  0  0  0  0
 22 10  1  0  0  0  0
 23  8  1  0  0  0  0
 23 11  1  0  0  0  0
 24 14  1  0  0  0  0
 24  8  1  0  0  0  0
 25 26  1  0  0  0  0
 26 22  1  0  0  0  0
 27 21  1  0  0  0  0
 27 28  1  0  0  0  0
M  END
>  <MODEL>
4

>  <REMARK>
 VINA RESULT:      -3.0      2.085      5.715
  Name = 
  2 active torsions:
  status: ('A' for Active; 'I' for Inactive)
    1  A    between atoms: C_5  and  C_24
    2  A    between atoms: O_17  and  C_25
                            x       y       z     vdW  Elec       q    Type
                         _______ _______ _______ _____ _____    ______ ____

>  <TORSDO>
F 2

$$$$
=
 OpenBabel11122414063D

 28 31  0  0  1  0  0  0  0  0999 V2000
  160.0240  209.0540  138.0920 C   0  0  0  0  0  0  0  0  0  0  0  0
  161.5140  210.3830  141.4120 O   0  0  0  0  0  0  0  0  0  0  0  0
  162.4150  210.2950  137.3330 C   0  0  0  0  0  3  0  0  0  0  0  0
  158.7940  208.4630  138.3810 O   0  0  0  0  0  0  0  0  0  0  0  0
  161.9150  212.5830  140.3590 O   0  0  0  0  0  0  0  0  0  0  0  0
  160.9710  211.7690  141.2000 S   0  0  0  0  0  0  0  0  0  0  0  0
  159.8710  213.8660  142.5590 C   0  0  2  0  0  3  0  0  0  0  0  0
  159.3830  211.7110  140.5090 N   0  0  1  0  0  0  0  0  0  0  0  0
  155.3050  209.0070  137.0520 C   0  0  0  0  0  1  0  0  0  0  0  0
  158.3100  212.0540  138.3440 C   0  0  2  0  0  3  0  0  0  0  0  0
  158.5780  213.6330  141.7590 C   0  0  0  0  0  2  0  0  0  0  0  0
  160.7120  212.5940  142.7610 C   0  0  0  0  0  2  0  0  0  0  0  0
  156.4610  209.0800  138.0360 C   0  0  2  0  0  3  0  0  0  0  0  0
  160.2730  210.3830  138.4690 C   0  0  0  0  0  0  0  0  0  0  0  0
  159.5590  214.4200  143.7990 O   0  0  0  0  0  1  0  0  0  0  0  0
  156.5800  210.3690  138.6160 O   0  0  0  0  0  0  0  0  0  0  0  0
  161.4510  211.0110  138.0470 C   0  0  0  0  0  3  0  0  0  0  0  0
  160.9940  208.3350  137.3830 C   0  0  0  0  0  3  0  0  0  0  0  0
  162.1920  208.9530  137.0110 C   0  0  0  0  0  3  0  0  0  0  0  0
  157.7480  208.5120  137.4210 C   0  0  0  0  0  2  0  0  0  0  0  0
  157.8290  213.0950  139.3490 C   0  0  1  0  0  3  0  0  0  0  0  0
  157.1640  211.2630  137.6920 C   0  0  1  0  0  3  0  0  0  0  0  0
  158.9390  213.0850  140.3830 C   0  0  2  0  0  3  0  0  0  0  0  0
  159.1810  211.1310  139.1780 C   0  0  1  0  0  3  0  0  0  0  0  0
  155.1840  212.1490  138.1400 C   0  0  0  0  0  1  0  0  0  0  0  0
  156.1920  212.1240  137.1750 O   0  0  0  0  0  0  0  0  0  0  0  0
  157.7380  214.4530  138.6710 C   0  0  0  0  0  2  0  0  0  0  0  0
  158.5050  214.4460  137.3630 C   0  0  0  0  0  1  0  0  0  0  0  0
  1  4  1  0  0  0  0
  1 14  1  0  0  0  0
  3 17  1  0  0  0  0
  5  6  2  0  0  0  0
  6  2  2  0  0  0  0
  6 12  1  0  0  0  0
  7 12  1  0  0  0  0
  7 15  1  1  0  0  0
  8  6  1  6  0  0  0
  9 13  1  0  0  0  0
 10 24  1  0  0  0  0
 10 21  1  0  0  0  0
 11  7  1  0  0  0  0
 13 16  1  0  0  0  0
 14 24  1  0  0  0  0
 17 14  2  0  0  0  0
 18  1  2  0  0  0  0
 19  3  2  0  0  0  0
 19 18  1  0  0  0  0
 20 13  1  0  0  0  0
 20  4  1  0  0  0  0
 21 23  1  0  0  0  0
 22 10  1  0  0  0  0
 22 16  1  0  0  0  0
 23  8  1  0  0  0  0
 23 11  1  0  0  0  0
 24  8  1  0  0  0  0
 26 22  1  0  0  0  0
 26 25  1  0  0  0  0
 27 21  1  0  0  0  0
 28 27  1  0  0  0  0
M  END
>  <MODEL>
5

>  <REMARK>
 VINA RESULT:      -2.9     11.447     14.749
  Name = 
  2 active torsions:
  status: ('A' for Active; 'I' for Inactive)
    1  A    between atoms: C_5  and  C_24
    2  A    between atoms: O_17  and  C_25
                            x       y       z     vdW  Elec       q    Type
                         _______ _______ _______ _____ _____    ______ ____

>  <TORSDO>
F 2

$$$$
