=
 OpenBabel11122413243D

 31 35  0  0  1  0  0  0  0  0999 V2000
  161.1960  203.8210  145.5790 C   0  0  0  0  0  0  0  0  0  0  0  0
  160.5430  205.7060  148.8200 C   0  0  2  0  0  3  0  0  0  0  0  0
  160.8740  204.7390  149.9540 C   0  0  0  0  0  0  0  0  0  0  0  0
  161.2830  202.3830  150.7800 C   0  0  0  0  0  0  0  0  0  0  0  0
  161.1640  205.3110  147.4970 C   0  0  0  0  0  0  0  0  0  0  0  0
  162.3180  204.4820  145.0770 C   0  0  0  0  0  3  0  0  0  0  0  0
  160.8080  203.2530  149.6550 C   0  0  0  0  0  2  0  0  0  0  0  0
  162.3480  207.4580  149.0410 C   0  0  2  0  0  3  0  0  0  0  0  0
  160.6670  202.7740  144.9000 F   0  0  0  0  0  0  0  0  0  0  0  0
  160.9920  206.6330  151.5970 C   0  0  0  0  0  2  0  0  0  0  0  0
  161.5120  201.1640  150.5720 O   0  0  0  0  0  0  0  0  0  0  0  0
  162.8170  207.2480  147.6020 C   0  0  0  0  0  2  0  0  0  0  0  0
  160.8430  207.1760  149.1580 C   0  0  2  0  0  3  0  0  0  0  0  0
  160.6200  204.2370  146.7810 C   0  0  0  0  0  3  0  0  0  0  0  0
  161.4250  202.9300  152.1300 C   0  0  0  0  0  3  0  0  0  0  0  0
  162.2930  205.9860  146.9800 C   0  0  0  0  0  0  0  0  0  0  0  0
  162.8570  205.5670  145.7710 C   0  0  0  0  0  3  0  0  0  0  0  0
  160.2990  207.4950  150.5480 C   0  0  0  0  0  2  0  0  0  0  0  0
  160.9990  205.1740  151.2360 C   0  0  0  0  0  0  0  0  0  0  0  0
  161.2800  204.2350  152.3370 C   0  0  0  0  0  3  0  0  0  0  0  0
  161.3510  209.8110  147.7770 O   0  0  0  0  0  0  0  0  0  0  0  0
  162.1040  209.9610  148.7780 C   0  0  0  0  0  0  0  0  0  0  0  0
  162.6450  208.8240  149.4500 N   0  0  0  0  0  2  0  0  0  0  0  0
  161.0900  213.5180  147.9160 N   0  0  0  0  0  0  0  0  0  0  0  0
  161.2440  212.0500  149.8750 C   0  0  0  0  0  2  0  0  0  0  0  0
  164.1210  211.4980  147.5330 F   0  0  0  0  0  0  0  0  0  0  0  0
  160.1630  214.0080  146.9130 C   0  0  0  0  0  1  0  0  0  0  0  0
  160.3370  212.6090  148.7760 C   0  0  0  0  0  2  0  0  0  0  0  0
  163.1340  212.2030  148.1990 C   0  0  2  0  0  3  0  0  0  0  0  0
  162.4560  211.3340  149.2690 C   0  0  2  0  0  3  0  0  0  0  0  0
  162.1080  212.7480  147.2060 C   0  0  0  0  0  2  0  0  0  0  0  0
  1 14  1  0  0  0  0
  2  5  1  6  0  0  0
  2 13  1  0  0  0  0
  2  3  1  0  0  0  0
  3 19  2  0  0  0  0
  4 15  1  0  0  0  0
  6  1  2  0  0  0  0
  6 17  1  0  0  0  0
  7  3  1  0  0  0  0
  7  4  1  0  0  0  0
  8 13  1  0  0  0  0
  8 23  1  6  0  0  0
  9  1  1  0  0  0  0
 11  4  2  0  0  0  0
 12  8  1  0  0  0  0
 13 18  1  1  0  0  0
 14  5  2  0  0  0  0
 15 20  2  0  0  0  0
 16  5  1  0  0  0  0
 16 12  1  0  0  0  0
 17 16  2  0  0  0  0
 18 10  1  0  0  0  0
 19 10  1  0  0  0  0
 19 20  1  0  0  0  0
 21 22  2  0  0  0  0
 22 23  1  0  0  0  0
 24 28  1  0  0  0  0
 27 24  1  0  0  0  0
 28 25  1  0  0  0  0
 29 26  1  6  0  0  0
 29 30  1  0  0  0  0
 30 22  1  6  0  0  0
 30 25  1  0  0  0  0
 31 24  1  0  0  0  0
 31 29  1  0  0  0  0
M  END
>  <MODEL>
1

>  <REMARK>
 VINA RESULT:      -7.4      0.000      0.000
  Name = 
  2 active torsions:
  status: ('A' for Active; 'I' for Inactive)
    1  A    between atoms: C_5  and  C_30
    2  A    between atoms: C_10  and  N_16
                            x       y       z     vdW  Elec       q    Type
                         _______ _______ _______ _____ _____    ______ ____

>  <TORSDO>
F 2

$$$$
=
 OpenBabel11122413243D

 31 35  0  0  1  0  0  0  0  0999 V2000
  160.9940  204.6070  144.9230 C   0  0  0  0  0  0  0  0  0  0  0  0
  160.4480  205.0970  148.6580 C   0  0  2  0  0  3  0  0  0  0  0  0
  160.8250  203.7760  149.3240 C   0  0  0  0  0  0  0  0  0  0  0  0
  161.2770  201.2920  149.1720 C   0  0  0  0  0  0  0  0  0  0  0  0
  161.0220  205.2500  147.2660 C   0  0  0  0  0  0  0  0  0  0  0  0
  162.0930  205.4320  144.6780 C   0  0  0  0  0  3  0  0  0  0  0  0
  160.7570  202.5170  148.4820 C   0  0  0  0  0  2  0  0  0  0  0  0
  162.2490  206.6650  149.4760 C   0  0  2  0  0  3  0  0  0  0  0  0
  160.4470  203.8900  143.9120 F   0  0  0  0  0  0  0  0  0  0  0  0
  160.9910  204.9000  151.5630 C   0  0  0  0  0  2  0  0  0  0  0  0
  161.5050  200.2500  148.5060 O   0  0  0  0  0  0  0  0  0  0  0  0
  162.6680  207.0300  148.0530 C   0  0  0  0  0  2  0  0  0  0  0  0
  160.7510  206.3320  149.5240 C   0  0  2  0  0  3  0  0  0  0  0  0
  160.4590  204.5210  146.2100 C   0  0  0  0  0  3  0  0  0  0  0  0
  161.4640  201.2830  150.6240 C   0  0  0  0  0  3  0  0  0  0  0  0
  162.1280  206.0930  147.0120 C   0  0  0  0  0  0  0  0  0  0  0  0
  162.6500  206.1790  145.7180 C   0  0  0  0  0  3  0  0  0  0  0  0
  160.2560  206.0840  150.9460 C   0  0  0  0  0  2  0  0  0  0  0  0
  160.9930  203.6900  150.6700 C   0  0  0  0  0  0  0  0  0  0  0  0
  161.3190  202.4070  151.3190 C   0  0  0  0  0  3  0  0  0  0  0  0
  161.5150  209.3840  149.0320 O   0  0  0  0  0  0  0  0  0  0  0  0
  162.1470  209.1160  150.0910 C   0  0  0  0  0  0  0  0  0  0  0  0
  162.5530  207.7760  150.3680 N   0  0  0  0  0  2  0  0  0  0  0  0
  160.2470  211.2960  152.5530 N   0  0  0  0  0  0  0  0  0  0  0  0
  162.1840  209.7910  152.5090 C   0  0  0  0  0  2  0  0  0  0  0  0
  161.9880  211.8450  149.3770 F   0  0  0  0  0  0  0  0  0  0  0  0
  158.8300  211.3410  152.8600 C   0  0  0  0  0  1  0  0  0  0  0  0
  160.6870  209.9250  152.8010 C   0  0  0  0  0  2  0  0  0  0  0  0
  161.8510  211.5520  150.7230 C   0  0  2  0  0  3  0  0  0  0  0  0
  162.4960  210.2010  151.0660 C   0  0  2  0  0  3  0  0  0  0  0  0
  160.3770  211.5730  151.1240 C   0  0  0  0  0  2  0  0  0  0  0  0
  1 14  1  0  0  0  0
  2  5  1  6  0  0  0
  2  3  1  0  0  0  0
  2 13  1  0  0  0  0
  3 19  2  0  0  0  0
  4 15  1  0  0  0  0
  6  1  2  0  0  0  0
  6 17  1  0  0  0  0
  7  4  1  0  0  0  0
  7  3  1  0  0  0  0
  8 13  1  0  0  0  0
  8 23  1  1  0  0  0
  9  1  1  0  0  0  0
 11  4  2  0  0  0  0
 12  8  1  0  0  0  0
 13 18  1  1  0  0  0
 14  5  2  0  0  0  0
 15 20  2  0  0  0  0
 16  5  1  0  0  0  0
 16 12  1  0  0  0  0
 17 16  2  0  0  0  0
 18 10  1  0  0  0  0
 19 20  1  0  0  0  0
 19 10  1  0  0  0  0
 21 22  2  0  0  0  0
 22 23  1  0  0  0  0
 24 28  1  0  0  0  0
 24 27  1  0  0  0  0
 25 28  1  0  0  0  0
 29 26  1  6  0  0  0
 29 30  1  0  0  0  0
 29 31  1  0  0  0  0
 30 22  1  6  0  0  0
 30 25  1  0  0  0  0
 31 24  1  0  0  0  0
M  END
>  <MODEL>
2

>  <REMARK>
 VINA RESULT:      -7.3      1.952      2.487
  Name = 
  2 active torsions:
  status: ('A' for Active; 'I' for Inactive)
    1  A    between atoms: C_5  and  C_30
    2  A    between atoms: C_10  and  N_16
                            x       y       z     vdW  Elec       q    Type
                         _______ _______ _______ _____ _____    ______ ____

>  <TORSDO>
F 2

$$$$
=
 OpenBabel11122413243D

 31 35  0  0  1  0  0  0  0  0999 V2000
  160.8930  206.2450  146.3850 C   0  0  0  0  0  0  0  0  0  0  0  0
  160.2870  205.0150  149.9360 C   0  0  2  0  0  3  0  0  0  0  0  0
  160.7240  203.5520  149.9640 C   0  0  0  0  0  0  0  0  0  0  0  0
  161.3040  201.4110  148.7490 C   0  0  0  0  0  0  0  0  0  0  0  0
  160.8660  205.7890  148.7720 C   0  0  0  0  0  0  0  0  0  0  0  0
  161.9510  207.1380  146.5620 C   0  0  0  0  0  3  0  0  0  0  0  0
  160.7280  202.7920  148.6520 C   0  0  0  0  0  2  0  0  0  0  0  0
  161.9990  206.1340  151.4160 C   0  0  2  0  0  3  0  0  0  0  0  0
  160.3930  206.0240  145.1460 F   0  0  0  0  0  0  0  0  0  0  0  0
  160.8120  203.5800  152.4730 C   0  0  0  0  0  2  0  0  0  0  0  0
  161.5910  200.7800  147.7000 O   0  0  0  0  0  0  0  0  0  0  0  0
  162.4120  207.1060  150.3120 C   0  0  0  0  0  2  0  0  0  0  0  0
  160.5190  205.7520  151.2660 C   0  0  2  0  0  3  0  0  0  0  0  0
  160.3510  205.5780  147.4860 C   0  0  0  0  0  3  0  0  0  0  0  0
  161.4770  200.7700  150.0540 C   0  0  0  0  0  3  0  0  0  0  0  0
  161.9300  206.7020  148.9490 C   0  0  0  0  0  0  0  0  0  0  0  0
  162.4600  207.3720  147.8410 C   0  0  0  0  0  3  0  0  0  0  0  0
  160.0240  204.8830  152.4180 C   0  0  0  0  0  2  0  0  0  0  0  0
  160.8840  202.8890  151.1400 C   0  0  0  0  0  0  0  0  0  0  0  0
  161.2690  201.4660  151.1690 C   0  0  0  0  0  3  0  0  0  0  0  0
  160.6230  208.4140  152.4370 O   0  0  0  0  0  0  0  0  0  0  0  0
  161.5050  207.8880  153.1710 C   0  0  0  0  0  0  0  0  0  0  0  0
  162.2370  206.7500  152.7150 N   0  0  0  0  0  2  0  0  0  0  0  0
  159.6780  210.0460  155.7060 N   0  0  0  0  0  0  0  0  0  0  0  0
  160.8670  207.9030  155.5990 C   0  0  0  0  0  2  0  0  0  0  0  0
  162.5460  210.4960  153.4720 F   0  0  0  0  0  0  0  0  0  0  0  0
  158.3520  210.6310  155.6500 C   0  0  0  0  0  1  0  0  0  0  0  0
  159.5080  208.6040  155.5440 C   0  0  0  0  0  2  0  0  0  0  0  0
  161.8310  209.9920  154.5440 C   0  0  2  0  0  3  0  0  0  0  0  0
  161.8100  208.4560  154.5250 C   0  0  2  0  0  3  0  0  0  0  0  0
  160.4120  210.5590  154.5510 C   0  0  0  0  0  2  0  0  0  0  0  0
  1  6  2  0  0  0  0
  1 14  1  0  0  0  0
  2  5  1  6  0  0  0
  2  3  1  0  0  0  0
  2 13  1  0  0  0  0
  3 19  2  0  0  0  0
  4 15  1  0  0  0  0
  5 16  1  0  0  0  0
  6 17  1  0  0  0  0
  7  4  1  0  0  0  0
  7  3  1  0  0  0  0
  8 23  1  1  0  0  0
  9  1  1  0  0  0  0
 11  4  2  0  0  0  0
 12  8  1  0  0  0  0
 13  8  1  0  0  0  0
 13 18  1  1  0  0  0
 14  5  2  0  0  0  0
 15 20  2  0  0  0  0
 16 12  1  0  0  0  0
 17 16  2  0  0  0  0
 18 10  1  0  0  0  0
 19 20  1  0  0  0  0
 19 10  1  0  0  0  0
 21 22  2  0  0  0  0
 23 22  1  0  0  0  0
 27 24  1  0  0  0  0
 28 25  1  0  0  0  0
 28 24  1  0  0  0  0
 29 26  1  6  0  0  0
 29 31  1  0  0  0  0
 30 22  1  6  0  0  0
 30 29  1  0  0  0  0
 30 25  1  0  0  0  0
 31 24  1  0  0  0  0
M  END
>  <MODEL>
3

>  <REMARK>
 VINA RESULT:      -6.9      3.531      4.585
  Name = 
  2 active torsions:
  status: ('A' for Active; 'I' for Inactive)
    1  A    between atoms: C_5  and  C_30
    2  A    between atoms: C_10  and  N_16
                            x       y       z     vdW  Elec       q    Type
                         _______ _______ _______ _____ _____    ______ ____

>  <TORSDO>
F 2

$$$$
=
 OpenBabel11122413243D

 31 35  0  0  1  0  0  0  0  0999 V2000
  160.8590  207.8040  156.3550 C   0  0  0  0  0  0  0  0  0  0  0  0
  161.8480  208.9080  152.8490 C   0  0  2  0  0  3  0  0  0  0  0  0
  161.4570  207.7660  151.9140 C   0  0  0  0  0  0  0  0  0  0  0  0
  160.8220  205.3440  151.5520 C   0  0  0  0  0  0  0  0  0  0  0  0
  161.1350  208.8580  154.1830 C   0  0  0  0  0  0  0  0  0  0  0  0
  159.7980  208.6640  156.6440 C   0  0  0  0  0  3  0  0  0  0  0  0
  161.3450  206.3750  152.5070 C   0  0  0  0  0  2  0  0  0  0  0  0
  160.2600  210.7490  152.1710 C   0  0  2  0  0  3  0  0  0  0  0  0
  161.2410  206.8710  157.2610 F   0  0  0  0  0  0  0  0  0  0  0  0
  161.6180  209.2850  149.9210 C   0  0  0  0  0  2  0  0  0  0  0  0
  160.4510  204.2240  151.9850 O   0  0  0  0  0  0  0  0  0  0  0  0
  159.7120  210.8880  153.5900 C   0  0  0  0  0  2  0  0  0  0  0  0
  161.7280  210.3000  152.2050 C   0  0  2  0  0  3  0  0  0  0  0  0
  161.5260  207.9040  155.1320 C   0  0  0  0  0  3  0  0  0  0  0  0
  160.7970  205.6130  150.1130 C   0  0  0  0  0  3  0  0  0  0  0  0
  160.0680  209.7340  154.4830 C   0  0  0  0  0  0  0  0  0  0  0  0
  159.4120  209.6320  155.7140 C   0  0  0  0  0  3  0  0  0  0  0  0
  162.3590  210.2690  150.8170 C   0  0  0  0  0  2  0  0  0  0  0  0
  161.4340  207.9390  150.5650 C   0  0  0  0  0  0  0  0  0  0  0  0
  161.0940  206.8270  149.6580 C   0  0  0  0  0  3  0  0  0  0  0  0
  157.8720  212.2960  151.9870 O   0  0  0  0  0  0  0  0  0  0  0  0
  158.9080  212.7550  151.4320 C   0  0  0  0  0  0  0  0  0  0  0  0
  160.1340  212.0250  151.4790 N   0  0  0  0  0  2  0  0  0  0  0  0
  157.8990  213.9230  147.9620 N   0  0  0  0  0  0  0  0  0  0  0  0
  157.4360  214.4530  150.3120 C   0  0  0  0  0  2  0  0  0  0  0  0
  161.0520  213.5990  149.7980 F   0  0  0  0  0  0  0  0  0  0  0  0
  157.3960  213.1650  146.8310 C   0  0  0  0  0  1  0  0  0  0  0  0
  156.9810  213.6790  149.0720 C   0  0  0  0  0  2  0  0  0  0  0  0
  159.8040  214.1090  149.4860 C   0  0  2  0  0  3  0  0  0  0  0  0
  158.8660  214.0650  150.7020 C   0  0  2  0  0  3  0  0  0  0  0  0
  159.2000  213.3540  148.3020 C   0  0  0  0  0  2  0  0  0  0  0  0
  1  6  1  0  0  0  0
  1  9  1  0  0  0  0
  2  3  1  6  0  0  0
  2  5  1  0  0  0  0
  3  7  1  0  0  0  0
  4 11  2  0  0  0  0
  4  7  1  0  0  0  0
  5 16  2  0  0  0  0
  5 14  1  0  0  0  0
  8 23  1  1  0  0  0
  8 13  1  0  0  0  0
  8 12  1  0  0  0  0
 10 19  1  0  0  0  0
 10 18  1  0  0  0  0
 12 16  1  0  0  0  0
 13 18  1  6  0  0  0
 13  2  1  0  0  0  0
 14  1  2  0  0  0  0
 15  4  1  0  0  0  0
 16 17  1  0  0  0  0
 17  6  2  0  0  0  0
 19  3  2  0  0  0  0
 20 15  2  0  0  0  0
 20 19  1  0  0  0  0
 22 23  1  0  0  0  0
 22 21  2  0  0  0  0
 24 31  1  0  0  0  0
 24 28  1  0  0  0  0
 25 30  1  0  0  0  0
 27 24  1  0  0  0  0
 28 25  1  0  0  0  0
 29 26  1  1  0  0  0
 29 30  1  0  0  0  0
 30 22  1  6  0  0  0
 31 29  1  0  0  0  0
M  END
>  <MODEL>
4

>  <REMARK>
 VINA RESULT:      -6.9      3.833      6.340
  Name = 
  2 active torsions:
  status: ('A' for Active; 'I' for Inactive)
    1  A    between atoms: C_5  and  C_30
    2  A    between atoms: C_10  and  N_16
                            x       y       z     vdW  Elec       q    Type
                         _______ _______ _______ _____ _____    ______ ____

>  <TORSDO>
F 2

$$$$
=
 OpenBabel11122413243D

 31 35  0  0  1  0  0  0  0  0999 V2000
  161.5930  206.1480  152.3880 C   0  0  0  0  0  0  0  0  0  0  0  0
  160.0580  209.5520  153.1270 C   0  0  2  0  0  3  0  0  0  0  0  0
  160.6950  210.0370  154.4270 C   0  0  0  0  0  0  0  0  0  0  0  0
  161.9880  209.5620  156.5490 C   0  0  0  0  0  0  0  0  0  0  0  0
  160.8540  208.4620  152.4420 C   0  0  0  0  0  0  0  0  0  0  0  0
  162.3710  206.4170  151.2610 C   0  0  0  0  0  3  0  0  0  0  0  0
  161.2580  208.9910  155.3710 C   0  0  0  0  0  2  0  0  0  0  0  0
  160.9750  211.1710  151.4220 C   0  0  2  0  0  3  0  0  0  0  0  0
  161.5750  204.9000  152.9160 F   0  0  0  0  0  0  0  0  0  0  0  0
  159.9420  212.3880  153.9720 C   0  0  0  0  0  2  0  0  0  0  0  0
  162.7050  208.8140  157.2610 O   0  0  0  0  0  0  0  0  0  0  0  0
  161.5640  210.0440  150.5740 C   0  0  0  0  0  2  0  0  0  0  0  0
  159.7120  210.6870  152.1500 C   0  0  2  0  0  3  0  0  0  0  0  0
  160.8350  207.1650  152.9720 C   0  0  0  0  0  3  0  0  0  0  0  0
  161.8220  210.9710  156.9120 C   0  0  0  0  0  3  0  0  0  0  0  0
  161.6340  208.7280  151.2940 C   0  0  0  0  0  0  0  0  0  0  0  0
  162.3820  207.7010  150.7110 C   0  0  0  0  0  3  0  0  0  0  0  0
  159.0130  211.8110  152.9100 C   0  0  0  0  0  2  0  0  0  0  0  0
  160.5640  211.3270  154.8360 C   0  0  0  0  0  0  0  0  0  0  0  0
  161.1460  211.7880  156.1100 C   0  0  0  0  0  3  0  0  0  0  0  0
  162.3320  211.8290  149.0020 O   0  0  0  0  0  0  0  0  0  0  0  0
  161.3800  212.5760  149.3580 C   0  0  0  0  0  0  0  0  0  0  0  0
  160.6650  212.3070  150.5640 N   0  0  0  0  0  2  0  0  0  0  0  0
  160.2630  213.1700  145.7770 N   0  0  0  0  0  0  0  0  0  0  0  0
  159.5350  213.6820  148.0630 C   0  0  0  0  0  2  0  0  0  0  0  0
  163.2640  213.9200  147.7380 F   0  0  0  0  0  0  0  0  0  0  0  0
  160.0700  212.2270  144.6910 C   0  0  0  0  0  1  0  0  0  0  0  0
  159.3990  212.7320  146.8710 C   0  0  0  0  0  2  0  0  0  0  0  0
  161.9400  214.0120  147.3470 C   0  0  2  0  0  3  0  0  0  0  0  0
  160.9920  213.7650  148.5300 C   0  0  2  0  0  3  0  0  0  0  0  0
  161.6540  213.0390  146.2040 C   0  0  0  0  0  2  0  0  0  0  0  0
  1  9  1  0  0  0  0
  1 14  1  0  0  0  0
  2  5  1  6  0  0  0
  2  3  1  0  0  0  0
  3 19  2  0  0  0  0
  3  7  1  0  0  0  0
  4 15  1  0  0  0  0
  4 11  2  0  0  0  0
  5 14  2  0  0  0  0
  6  1  2  0  0  0  0
  7  4  1  0  0  0  0
  8 23  1  6  0  0  0
  8 13  1  0  0  0  0
 10 19  1  0  0  0  0
 12 16  1  0  0  0  0
 12  8  1  0  0  0  0
 13 18  1  1  0  0  0
 13  2  1  0  0  0  0
 16  5  1  0  0  0  0
 17  6  1  0  0  0  0
 17 16  2  0  0  0  0
 18 10  1  0  0  0  0
 19 20  1  0  0  0  0
 20 15  2  0  0  0  0
 21 22  2  0  0  0  0
 22 23  1  0  0  0  0
 24 31  1  0  0  0  0
 24 28  1  0  0  0  0
 25 30  1  0  0  0  0
 27 24  1  0  0  0  0
 28 25  1  0  0  0  0
 29 26  1  1  0  0  0
 29 30  1  0  0  0  0
 30 22  1  6  0  0  0
 31 29  1  0  0  0  0
M  END
>  <MODEL>
5

>  <REMARK>
 VINA RESULT:      -6.6      3.966      5.838
  Name = 
  2 active torsions:
  status: ('A' for Active; 'I' for Inactive)
    1  A    between atoms: C_5  and  C_30
    2  A    between atoms: C_10  and  N_16
                            x       y       z     vdW  Elec       q    Type
                         _______ _______ _______ _____ _____    ______ ____

>  <TORSDO>
F 2

$$$$
=
 OpenBabel11122413243D

 31 35  0  0  1  0  0  0  0  0999 V2000
  158.1120  213.4460  152.8580 C   0  0  0  0  0  0  0  0  0  0  0  0
  160.8600  213.1030  150.2460 C   0  0  2  0  0  3  0  0  0  0  0  0
  161.2060  211.6180  150.1800 C   0  0  0  0  0  0  0  0  0  0  0  0
  161.1430  209.3020  151.1960 C   0  0  0  0  0  0  0  0  0  0  0  0
  159.5080  213.3740  150.8710 C   0  0  0  0  0  0  0  0  0  0  0  0
  157.0070  213.7870  152.0770 C   0  0  0  0  0  3  0  0  0  0  0  0
  160.9030  210.7670  151.3990 C   0  0  0  0  0  2  0  0  0  0  0  0
  159.8050  213.5280  147.9930 C   0  0  2  0  0  3  0  0  0  0  0  0
  157.9770  213.3080  154.2000 F   0  0  0  0  0  0  0  0  0  0  0  0
  162.3590  211.9390  147.9730 C   0  0  0  0  0  2  0  0  0  0  0  0
  160.6990  208.4750  152.0320 O   0  0  0  0  0  0  0  0  0  0  0  0
  158.5170  214.0560  148.6240 C   0  0  0  0  0  2  0  0  0  0  0  0
  161.0070  213.8300  148.8990 C   0  0  2  0  0  3  0  0  0  0  0  0
  159.3570  213.2450  152.2580 C   0  0  0  0  0  3  0  0  0  0  0  0
  161.9420  208.8320  150.0620 C   0  0  0  0  0  3  0  0  0  0  0  0
  158.3900  213.7310  150.0840 C   0  0  0  0  0  0  0  0  0  0  0  0
  157.1500  213.9390  150.6960 C   0  0  0  0  0  3  0  0  0  0  0  0
  162.3340  213.4360  148.2560 C   0  0  0  0  0  2  0  0  0  0  0  0
  161.9630  211.1170  149.1680 C   0  0  0  0  0  0  0  0  0  0  0  0
  162.3310  209.6900  149.1230 C   0  0  0  0  0  3  0  0  0  0  0  0
  159.8680  212.1250  145.5120 O   0  0  0  0  0  0  0  0  0  0  0  0
  159.9990  213.3790  145.4750 C   0  0  0  0  0  0  0  0  0  0  0  0
  159.9870  214.1400  146.6840 N   0  0  0  0  0  2  0  0  0  0  0  0
  160.9030  212.3820  141.9240 N   0  0  0  0  0  0  0  0  0  0  0  0
  159.1650  213.6330  143.1210 C   0  0  0  0  0  2  0  0  0  0  0  0
  162.5500  214.2380  144.6180 F   0  0  0  0  0  0  0  0  0  0  0  0
  161.2070  211.0760  141.3700 C   0  0  0  0  0  1  0  0  0  0  0  0
  159.5710  212.2860  142.5170 C   0  0  0  0  0  2  0  0  0  0  0  0
  161.6190  213.9890  143.6250 C   0  0  2  0  0  3  0  0  0  0  0  0
  160.1860  214.0900  144.1680 C   0  0  2  0  0  3  0  0  0  0  0  0
  161.8690  212.6200  142.9930 C   0  0  0  0  0  2  0  0  0  0  0  0
  1  9  1  0  0  0  0
  2  3  1  6  0  0  0
  2  5  1  0  0  0  0
  3  7  1  0  0  0  0
  4  7  1  0  0  0  0
  4 11  2  0  0  0  0
  5 14  2  0  0  0  0
  6  1  2  0  0  0  0
  8 23  1  6  0  0  0
  8 12  1  0  0  0  0
  8 13  1  0  0  0  0
 10 18  1  0  0  0  0
 10 19  1  0  0  0  0
 12 16  1  0  0  0  0
 13 18  1  6  0  0  0
 13  2  1  0  0  0  0
 14  1  1  0  0  0  0
 15  4  1  0  0  0  0
 16 17  2  0  0  0  0
 16  5  1  0  0  0  0
 17  6  1  0  0  0  0
 19  3  2  0  0  0  0
 20 19  1  0  0  0  0
 20 15  2  0  0  0  0
 22 21  2  0  0  0  0
 22 23  1  0  0  0  0
 24 28  1  0  0  0  0
 24 31  1  0  0  0  0
 25 30  1  0  0  0  0
 27 24  1  0  0  0  0
 28 25  1  0  0  0  0
 29 30  1  0  0  0  0
 29 26  1  1  0  0  0
 30 22  1  1  0  0  0
 31 29  1  0  0  0  0
M  END
>  <MODEL>
6

>  <REMARK>
 VINA RESULT:      -5.8      4.682      7.856
  Name = 
  2 active torsions:
  status: ('A' for Active; 'I' for Inactive)
    1  A    between atoms: C_5  and  C_30
    2  A    between atoms: C_10  and  N_16
                            x       y       z     vdW  Elec       q    Type
                         _______ _______ _______ _____ _____    ______ ____

>  <TORSDO>
F 2

$$$$
=
 OpenBabel11122413243D

 31 35  0  0  1  0  0  0  0  0999 V2000
  160.7230  201.4780  148.7350 C   0  0  0  0  0  0  0  0  0  0  0  0
  162.2430  204.7640  149.9090 C   0  0  2  0  0  3  0  0  0  0  0  0
  161.7390  205.8380  148.9470 C   0  0  0  0  0  0  0  0  0  0  0  0
  160.6980  206.4910  146.7360 C   0  0  0  0  0  0  0  0  0  0  0  0
  161.4050  203.5040  149.8900 C   0  0  0  0  0  0  0  0  0  0  0  0
  159.8200  201.1910  149.7610 C   0  0  0  0  0  3  0  0  0  0  0  0
  161.3090  205.3980  147.5610 C   0  0  0  0  0  2  0  0  0  0  0  0
  161.1050  205.3810  152.0760 C   0  0  2  0  0  3  0  0  0  0  0  0
  160.8310  200.6420  147.6740 F   0  0  0  0  0  0  0  0  0  0  0  0
  162.3780  207.6490  150.5640 C   0  0  0  0  0  2  0  0  0  0  0  0
  160.0810  206.2030  145.6790 O   0  0  0  0  0  0  0  0  0  0  0  0
  160.4560  204.0040  152.2010 C   0  0  0  0  0  2  0  0  0  0  0  0
  162.4510  205.2730  151.3450 C   0  0  2  0  0  3  0  0  0  0  0  0
  161.5140  202.6270  148.8030 C   0  0  0  0  0  3  0  0  0  0  0  0
  160.8660  207.8930  147.1220 C   0  0  0  0  0  3  0  0  0  0  0  0
  160.4980  203.2050  150.9310 C   0  0  0  0  0  0  0  0  0  0  0  0
  159.7170  202.0470  150.8580 C   0  0  0  0  0  3  0  0  0  0  0  0
  163.2000  206.6020  151.3050 C   0  0  0  0  0  2  0  0  0  0  0  0
  161.8820  207.1600  149.2320 C   0  0  0  0  0  0  0  0  0  0  0  0
  161.4300  208.1980  148.2870 C   0  0  0  0  0  3  0  0  0  0  0  0
  160.4560  208.0530  152.8300 O   0  0  0  0  0  0  0  0  0  0  0  0
  160.9350  207.2970  153.7190 C   0  0  0  0  0  0  0  0  0  0  0  0
  161.2900  205.9500  153.4040 N   0  0  0  0  0  2  0  0  0  0  0  0
  159.3190  209.8900  155.9750 N   0  0  0  0  0  0  0  0  0  0  0  0
  159.9480  207.5190  156.0170 C   0  0  0  0  0  2  0  0  0  0  0  0
  162.5240  209.5760  154.2290 F   0  0  0  0  0  0  0  0  0  0  0  0
  158.2030  210.7820  155.7220 C   0  0  0  0  0  1  0  0  0  0  0  0
  158.8280  208.5310  155.7610 C   0  0  0  0  0  2  0  0  0  0  0  0
  161.5480  209.2850  155.1650 C   0  0  2  0  0  3  0  0  0  0  0  0
  161.1530  207.8010  155.1140 C   0  0  2  0  0  3  0  0  0  0  0  0
  160.3290  210.1830  154.9600 C   0  0  0  0  0  2  0  0  0  0  0  0
  1 14  2  0  0  0  0
  1  6  1  0  0  0  0
  2  3  1  6  0  0  0
  2 13  1  0  0  0  0
  3 19  2  0  0  0  0
  4 15  1  0  0  0  0
  4  7  1  0  0  0  0
  5  2  1  0  0  0  0
  5 16  2  0  0  0  0
  6 17  2  0  0  0  0
  7  3  1  0  0  0  0
  8 12  1  0  0  0  0
  8 23  1  1  0  0  0
  9  1  1  0  0  0  0
 10 18  1  0  0  0  0
 11  4  2  0  0  0  0
 13 18  1  6  0  0  0
 13  8  1  0  0  0  0
 14  5  1  0  0  0  0
 15 20  2  0  0  0  0
 16 12  1  0  0  0  0
 17 16  1  0  0  0  0
 19 10  1  0  0  0  0
 20 19  1  0  0  0  0
 21 22  2  0  0  0  0
 23 22  1  0  0  0  0
 27 24  1  0  0  0  0
 28 24  1  0  0  0  0
 28 25  1  0  0  0  0
 29 26  1  6  0  0  0
 30 22  1  6  0  0  0
 30 29  1  0  0  0  0
 30 25  1  0  0  0  0
 31 29  1  0  0  0  0
 31 24  1  0  0  0  0
M  END
>  <MODEL>
7

>  <REMARK>
 VINA RESULT:      -5.2      3.667      5.808
  Name = 
  2 active torsions:
  status: ('A' for Active; 'I' for Inactive)
    1  A    between atoms: C_5  and  C_30
    2  A    between atoms: C_10  and  N_16
                            x       y       z     vdW  Elec       q    Type
                         _______ _______ _______ _____ _____    ______ ____

>  <TORSDO>
F 2

$$$$
=
 OpenBabel11122413243D

 31 35  0  0  1  0  0  0  0  0999 V2000
  162.0180  213.3240  147.8700 C   0  0  0  0  0  0  0  0  0  0  0  0
  159.5810  214.1550  150.6720 C   0  0  2  0  0  3  0  0  0  0  0  0
  158.1920  214.1820  150.0390 C   0  0  0  0  0  0  0  0  0  0  0  0
  156.7160  214.3210  147.9890 C   0  0  0  0  0  0  0  0  0  0  0  0
  160.6020  213.4080  149.8420 C   0  0  0  0  0  0  0  0  0  0  0  0
  162.4380  212.0390  148.2190 C   0  0  0  0  0  3  0  0  0  0  0  0
  158.1000  214.4530  148.5490 C   0  0  0  0  0  2  0  0  0  0  0  0
  159.4630  212.1360  152.1820 C   0  0  2  0  0  3  0  0  0  0  0  0
  162.4940  213.9090  146.7430 F   0  0  0  0  0  0  0  0  0  0  0  0
  157.1100  214.0060  152.2970 C   0  0  0  0  0  2  0  0  0  0  0  0
  156.5490  214.2750  146.7430 O   0  0  0  0  0  0  0  0  0  0  0  0
  160.6720  211.4850  151.5120 C   0  0  0  0  0  2  0  0  0  0  0  0
  159.5830  213.6660  152.1300 C   0  0  2  0  0  3  0  0  0  0  0  0
  161.1080  214.0050  148.6800 C   0  0  0  0  0  3  0  0  0  0  0  0
  155.5540  214.3070  148.8800 C   0  0  0  0  0  3  0  0  0  0  0  0
  161.0370  212.1110  150.1980 C   0  0  0  0  0  0  0  0  0  0  0  0
  161.9560  211.4410  149.3840 C   0  0  0  0  0  3  0  0  0  0  0  0
  158.4640  214.3630  152.8980 C   0  0  0  0  0  2  0  0  0  0  0  0
  157.0690  214.1920  150.8060 C   0  0  0  0  0  0  0  0  0  0  0  0
  155.7280  214.2570  150.1970 C   0  0  0  0  0  3  0  0  0  0  0  0
  160.0880  209.5070  153.0920 O   0  0  0  0  0  0  0  0  0  0  0  0
  159.7100  210.3480  153.9540 C   0  0  0  0  0  0  0  0  0  0  0  0
  159.3720  211.6780  153.5630 N   0  0  0  0  0  2  0  0  0  0  0  0
  162.0160  210.3140  156.9720 N   0  0  0  0  0  0  0  0  0  0  0  0
  159.8050  211.1600  156.3280 C   0  0  0  0  0  2  0  0  0  0  0  0
  160.4450  207.7720  154.8520 F   0  0  0  0  0  0  0  0  0  0  0  0
  163.4090  210.7010  157.0860 C   0  0  0  0  0  1  0  0  0  0  0  0
  161.2950  211.4820  156.4710 C   0  0  0  0  0  2  0  0  0  0  0  0
  160.5110  208.7910  155.7860 C   0  0  2  0  0  3  0  0  0  0  0  0
  159.5930  209.9610  155.3980 C   0  0  2  0  0  3  0  0  0  0  0  0
  161.9540  209.2620  155.9590 C   0  0  0  0  0  2  0  0  0  0  0  0
  1  6  2  0  0  0  0
  1 14  1  0  0  0  0
  2  5  1  6  0  0  0
  2 13  1  0  0  0  0
  3  2  1  0  0  0  0
  3 19  2  0  0  0  0
  4  7  1  0  0  0  0
  4 15  1  0  0  0  0
  5 16  1  0  0  0  0
  6 17  1  0  0  0  0
  7  3  1  0  0  0  0
  8 23  1  1  0  0  0
  9  1  1  0  0  0  0
 10 18  1  0  0  0  0
 11  4  2  0  0  0  0
 12  8  1  0  0  0  0
 13  8  1  0  0  0  0
 13 18  1  1  0  0  0
 14  5  2  0  0  0  0
 15 20  2  0  0  0  0
 16 12  1  0  0  0  0
 17 16  2  0  0  0  0
 19 10  1  0  0  0  0
 20 19  1  0  0  0  0
 21 22  2  0  0  0  0
 23 22  1  0  0  0  0
 24 27  1  0  0  0  0
 25 28  1  0  0  0  0
 28 24  1  0  0  0  0
 29 26  1  6  0  0  0
 29 31  1  0  0  0  0
 30 22  1  6  0  0  0
 30 29  1  0  0  0  0
 30 25  1  0  0  0  0
 31 24  1  0  0  0  0
M  END
>  <MODEL>
8

>  <REMARK>
 VINA RESULT:      -5.1      5.899      9.212
  Name = 
  2 active torsions:
  status: ('A' for Active; 'I' for Inactive)
    1  A    between atoms: C_5  and  C_30
    2  A    between atoms: C_10  and  N_16
                            x       y       z     vdW  Elec       q    Type
                         _______ _______ _______ _____ _____    ______ ____

>  <TORSDO>
F 2

$$$$
=
 OpenBabel11122413243D

 31 35  0  0  1  0  0  0  0  0999 V2000
  161.7240  202.8040  151.7940 C   0  0  0  0  0  0  0  0  0  0  0  0
  162.3740  206.2520  150.3190 C   0  0  2  0  0  3  0  0  0  0  0  0
  161.8150  206.2240  148.8990 C   0  0  0  0  0  0  0  0  0  0  0  0
  161.0010  204.9270  146.8850 C   0  0  0  0  0  0  0  0  0  0  0  0
  161.8140  205.1590  151.2040 C   0  0  0  0  0  0  0  0  0  0  0  0
  160.7550  203.0780  152.7610 C   0  0  0  0  0  3  0  0  0  0  0  0
  161.6890  204.8750  148.2160 C   0  0  0  0  0  2  0  0  0  0  0  0
  160.8310  207.8690  151.4920 C   0  0  2  0  0  3  0  0  0  0  0  0
  162.1490  201.5320  151.6030 F   0  0  0  0  0  0  0  0  0  0  0  0
  161.8390  208.7320  148.7920 C   0  0  0  0  0  2  0  0  0  0  0  0
  160.6160  203.8610  146.3410 O   0  0  0  0  0  0  0  0  0  0  0  0
  160.4560  206.8390  152.5560 C   0  0  0  0  0  2  0  0  0  0  0  0
  162.2650  207.6280  150.9970 C   0  0  2  0  0  3  0  0  0  0  0  0
  162.2530  203.8410  151.0230 C   0  0  0  0  0  3  0  0  0  0  0  0
  160.8300  206.2030  146.1890 C   0  0  0  0  0  3  0  0  0  0  0  0
  160.8410  205.4340  152.1910 C   0  0  0  0  0  0  0  0  0  0  0  0
  160.3240  204.3900  152.9640 C   0  0  0  0  0  3  0  0  0  0  0  0
  162.7330  208.7080  150.0250 C   0  0  0  0  0  2  0  0  0  0  0  0
  161.6490  207.3700  148.1850 C   0  0  0  0  0  0  0  0  0  0  0  0
  161.1450  207.3410  146.8000 C   0  0  0  0  0  3  0  0  0  0  0  0
  161.5420  208.6210  154.1490 O   0  0  0  0  0  0  0  0  0  0  0  0
  161.0870  209.5210  153.3900 C   0  0  0  0  0  0  0  0  0  0  0  0
  160.7030  209.2080  152.0510 N   0  0  0  0  0  2  0  0  0  0  0  0
  158.2010  211.7060  154.5400 N   0  0  0  0  0  0  0  0  0  0  0  0
  160.4050  210.9690  155.3250 C   0  0  0  0  0  2  0  0  0  0  0  0
  160.4310  211.6340  151.6340 F   0  0  0  0  0  0  0  0  0  0  0  0
  156.7850  211.4070  154.6360 C   0  0  0  0  0  1  0  0  0  0  0  0
  158.8960  210.7190  155.3630 C   0  0  0  0  0  2  0  0  0  0  0  0
  160.0670  211.8000  152.9590 C   0  0  2  0  0  3  0  0  0  0  0  0
  160.9280  210.9280  153.8850 C   0  0  2  0  0  3  0  0  0  0  0  0
  158.5810  211.4950  153.1450 C   0  0  0  0  0  2  0  0  0  0  0  0
  1  6  1  0  0  0  0
  2  3  1  6  0  0  0
  2 13  1  0  0  0  0
  2  5  1  0  0  0  0
  4  7  1  0  0  0  0
  5 16  2  0  0  0  0
  6 17  2  0  0  0  0
  7  3  1  0  0  0  0
  8 23  1  1  0  0  0
  8 12  1  0  0  0  0
  9  1  1  0  0  0  0
 10 18  1  0  0  0  0
 11  4  2  0  0  0  0
 13 18  1  6  0  0  0
 13  8  1  0  0  0  0
 14  5  1  0  0  0  0
 14  1  2  0  0  0  0
 15 20  2  0  0  0  0
 15  4  1  0  0  0  0
 16 12  1  0  0  0  0
 16 17  1  0  0  0  0
 19 10  1  0  0  0  0
 19  3  2  0  0  0  0
 20 19  1  0  0  0  0
 22 21  2  0  0  0  0
 23 22  1  0  0  0  0
 24 27  1  0  0  0  0
 24 28  1  0  0  0  0
 25 28  1  0  0  0  0
 29 26  1  6  0  0  0
 29 31  1  0  0  0  0
 29 30  1  0  0  0  0
 30 22  1  6  0  0  0
 30 25  1  0  0  0  0
 31 24  1  0  0  0  0
M  END
>  <MODEL>
9

>  <REMARK>
 VINA RESULT:      -4.5      3.636      5.479
  Name = 
  2 active torsions:
  status: ('A' for Active; 'I' for Inactive)
    1  A    between atoms: C_5  and  C_30
    2  A    between atoms: C_10  and  N_16
                            x       y       z     vdW  Elec       q    Type
                         _______ _______ _______ _____ _____    ______ ____

>  <TORSDO>
F 2

$$$$
