=
 OpenBabel11122413013D

 32 37  0  0  1  0  0  0  0  0999 V2000
  160.5770  210.0830  153.5850 C   0  0  0  0  0  2  0  0  0  0  0  0
  161.2550  206.1840  149.9250 C   0  0  0  0  0  0  0  0  0  0  0  0
  161.2450  201.5290  151.5630 C   0  0  0  0  0  2  0  0  0  0  0  0
  160.4650  201.2750  150.4230 O   0  0  0  0  0  0  0  0  0  0  0  0
  161.3130  206.5180  147.4100 C   0  0  0  0  0  0  0  0  0  0  0  0
  161.7070  205.8910  146.1040 C   0  0  2  0  0  3  0  0  0  0  0  0
  161.2060  208.1660  151.4180 C   0  0  1  0  0  3  0  0  0  0  0  0
  161.1840  205.8860  152.4270 C   0  0  0  0  0  2  0  0  0  0  0  0
  161.0600  203.9660  144.6640 C   0  0  2  0  0  3  0  0  0  0  0  0
  161.7010  207.7990  153.9290 C   0  0  0  0  0  2  0  0  0  0  0  0
  161.0490  202.9800  152.0090 C   0  0  0  0  0  2  0  0  0  0  0  0
  161.2200  205.3140  151.0340 C   0  0  0  0  0  0  0  0  0  0  0  0
  161.1600  203.9240  150.8360 C   0  0  0  0  0  0  0  0  0  0  0  0
  161.1960  204.2630  148.4230 C   0  0  0  0  0  0  0  0  0  0  0  0
  161.2390  205.4310  143.5960 S   0  0  0  0  0  0  0  0  0  0  0  0
  161.8180  210.3140  152.7160 C   0  0  0  0  0  2  0  0  0  0  0  0
  161.8370  207.2630  152.4970 C   0  0  2  0  0  3  0  0  0  0  0  0
  161.1060  206.5610  144.9620 N   0  0  0  0  0  2  0  0  0  0  0  0
  161.7680  209.5910  151.3670 C   0  0  0  0  0  2  0  0  0  0  0  0
  160.4420  208.6490  154.1340 C   0  0  1  0  0  3  0  0  0  0  0  0
  161.1140  201.9080  149.3460 C   0  0  0  0  0  2  0  0  0  0  0  0
  161.1290  203.4040  149.5290 C   0  0  0  0  0  0  0  0  0  0  0  0
  161.1240  203.7270  147.0910 N   0  0  0  0  0  0  0  0  0  0  0  0
  161.3340  207.5690  150.1300 O   0  0  0  0  0  0  0  0  0  0  0  0
  161.1230  207.7630  147.4810 O   0  0  0  0  0  0  0  0  0  0  0  0
  159.6440  203.4360  144.5350 C   0  0  0  0  0  1  0  0  0  0  0  0
  161.2510  205.6590  148.6170 C   0  0  0  0  0  0  0  0  0  0  0  0
  161.3010  204.4630  146.0330 C   0  0  0  0  0  0  0  0  0  0  0  0
  160.0970  208.6910  155.6140 C   0  0  0  0  0  2  0  0  0  0  0  0
  161.1270  208.0220  156.3940 N   0  0  0  0  0  0  0  0  0  0  0  0
  160.4450  207.0790  157.2600 C   0  0  0  0  0  1  0  0  0  0  0  0
  161.7220  209.0250  157.2610 C   0  0  0  0  0  1  0  0  0  0  0  0
  1 20  1  0  0  0  0
  2 24  1  0  0  0  0
  2 12  1  0  0  0  0
  3 11  1  0  0  0  0
  4  3  1  0  0  0  0
  5 25  2  0  0  0  0
  5 27  1  0  0  0  0
  6 18  1  6  0  0  0
  6  5  1  0  0  0  0
  7 19  1  6  0  0  0
  7 17  1  0  0  0  0
  9 26  1  1  0  0  0
  9 28  1  0  0  0  0
 10 20  1  0  0  0  0
 12  8  1  0  0  0  0
 13 12  2  0  0  0  0
 13 11  1  0  0  0  0
 14 27  1  0  0  0  0
 14 22  2  0  0  0  0
 15  9  1  0  0  0  0
 15 18  1  0  0  0  0
 16  1  1  0  0  0  0
 17  8  1  1  0  0  0
 17 10  1  0  0  0  0
 19 16  1  0  0  0  0
 20 29  1  1  0  0  0
 21 22  1  0  0  0  0
 21  4  1  0  0  0  0
 22 13  1  0  0  0  0
 23 14  1  0  0  0  0
 24  7  1  0  0  0  0
 27  2  2  0  0  0  0
 28  6  1  0  0  0  0
 28 23  2  0  0  0  0
 29 30  1  0  0  0  0
 30 31  1  0  0  0  0
 30 32  1  0  0  0  0
M  END
>  <MODEL>
1

>  <REMARK>
 VINA RESULT:      -9.0      0.000      0.000
  Name = 
  2 active torsions:
  status: ('A' for Active; 'I' for Inactive)
    1  A    between atoms: C_20  and  C_29
    2  A    between atoms: C_29  and  N_30
                            x       y       z     vdW  Elec       q    Type
                         _______ _______ _______ _____ _____    ______ ____

>  <TORSDO>
F 2

$$$$
=
 OpenBabel11122413013D

 32 37  0  0  1  0  0  0  0  0999 V2000
  159.9590  201.6380  150.0290 C   0  0  0  0  0  2  0  0  0  0  0  0
  161.1690  206.5630  151.8570 C   0  0  0  0  0  0  0  0  0  0  0  0
  162.2370  210.0150  148.4970 C   0  0  0  0  0  2  0  0  0  0  0  0
  161.4470  210.8500  149.3050 O   0  0  0  0  0  0  0  0  0  0  0  0
  160.9790  207.3260  154.2700 C   0  0  0  0  0  0  0  0  0  0  0  0
  161.4010  208.3780  155.2550 C   0  0  2  0  0  3  0  0  0  0  0  0
  160.8160  204.1690  151.3040 C   0  0  1  0  0  3  0  0  0  0  0  0
  161.3370  205.7750  149.4680 C   0  0  0  0  0  2  0  0  0  0  0  0
  161.0660  210.8090  155.6780 C   0  0  2  0  0  3  0  0  0  0  0  0
  161.5520  203.3490  148.9650 C   0  0  0  0  0  2  0  0  0  0  0  0
  161.7760  208.5630  148.6510 C   0  0  0  0  0  2  0  0  0  0  0  0
  161.3920  206.8710  150.5000 C   0  0  0  0  0  0  0  0  0  0  0  0
  161.6070  208.2040  150.1080 C   0  0  0  0  0  0  0  0  0  0  0  0
  161.4020  208.9230  152.4270 C   0  0  0  0  0  0  0  0  0  0  0  0
  160.8620  209.9290  157.2610 S   0  0  0  0  0  0  0  0  0  0  0  0
  161.0610  201.6060  151.0930 C   0  0  0  0  0  2  0  0  0  0  0  0
  161.6950  204.4160  150.0610 C   0  0  2  0  0  3  0  0  0  0  0  0
  160.5950  208.3620  156.4650 N   0  0  0  0  0  2  0  0  0  0  0  0
  161.0660  202.8320  152.0100 C   0  0  0  0  0  2  0  0  0  0  0  0
  160.1620  202.7040  148.9330 C   0  0  1  0  0  3  0  0  0  0  0  0
  161.8740  210.6420  150.6300 C   0  0  0  0  0  2  0  0  0  0  0  0
  161.5920  209.2280  151.0720 C   0  0  0  0  0  0  0  0  0  0  0  0
  161.3490  209.9790  153.4010 N   0  0  0  0  0  0  0  0  0  0  0  0
  160.9740  205.2290  152.2440 O   0  0  0  0  0  0  0  0  0  0  0  0
  160.5410  206.2170  154.6800 O   0  0  0  0  0  0  0  0  0  0  0  0
  159.7840  211.5600  155.3660 C   0  0  0  0  0  1  0  0  0  0  0  0
  161.1800  207.5880  152.8240 C   0  0  0  0  0  0  0  0  0  0  0  0
  161.2940  209.7450  154.6800 C   0  0  0  0  0  0  0  0  0  0  0  0
  159.9220  202.0910  147.5630 C   0  0  0  0  0  2  0  0  0  0  0  0
  161.1870  201.8060  146.9050 N   0  0  0  0  0  0  0  0  0  0  0  0
  161.1570  202.4980  145.6300 C   0  0  0  0  0  1  0  0  0  0  0  0
  161.2000  200.3850  146.6050 C   0  0  0  0  0  1  0  0  0  0  0  0
  1 16  1  0  0  0  0
  2 24  1  0  0  0  0
  2 27  1  0  0  0  0
  3 11  1  0  0  0  0
  3  4  1  0  0  0  0
  4 21  1  0  0  0  0
  5 25  2  0  0  0  0
  6  5  1  6  0  0  0
  6 18  1  0  0  0  0
  7 19  1  1  0  0  0
  7 24  1  0  0  0  0
  8 17  1  0  0  0  0
  8 12  1  0  0  0  0
  9 26  1  6  0  0  0
  9 15  1  0  0  0  0
 11 13  1  0  0  0  0
 12  2  2  0  0  0  0
 13 12  1  0  0  0  0
 13 22  2  0  0  0  0
 14 27  2  0  0  0  0
 14 23  1  0  0  0  0
 16 19  1  0  0  0  0
 17 10  1  6  0  0  0
 17  7  1  0  0  0  0
 18 15  1  0  0  0  0
 20 29  1  6  0  0  0
 20 10  1  0  0  0  0
 20  1  1  0  0  0  0
 21 22  1  0  0  0  0
 22 14  1  0  0  0  0
 23 28  2  0  0  0  0
 27  5  1  0  0  0  0
 28  6  1  0  0  0  0
 28  9  1  0  0  0  0
 30 29  1  0  0  0  0
 31 30  1  0  0  0  0
 32 30  1  0  0  0  0
M  END
>  <MODEL>
2

>  <REMARK>
 VINA RESULT:      -8.2      3.248      8.725
  Name = 
  2 active torsions:
  status: ('A' for Active; 'I' for Inactive)
    1  A    between atoms: C_20  and  C_29
    2  A    between atoms: C_29  and  N_30
                            x       y       z     vdW  Elec       q    Type
                         _______ _______ _______ _____ _____    ______ ____

>  <TORSDO>
F 2

$$$$
=
 OpenBabel11122413013D

 32 37  0  0  1  0  0  0  0  0999 V2000
  161.3100  207.6250  156.9760 C   0  0  0  0  0  2  0  0  0  0  0  0
  161.2230  207.3190  151.5960 C   0  0  0  0  0  0  0  0  0  0  0  0
  162.0160  211.4940  149.0870 C   0  0  0  0  0  2  0  0  0  0  0  0
  162.8110  210.6830  148.2590 O   0  0  0  0  0  0  0  0  0  0  0  0
  161.0750  205.1760  150.2440 C   0  0  0  0  0  0  0  0  0  0  0  0
  160.7700  204.6050  148.8890 C   0  0  2  0  0  3  0  0  0  0  0  0
  160.9700  207.2250  154.0630 C   0  0  1  0  0  3  0  0  0  0  0  0
  161.3790  209.4270  152.9670 C   0  0  0  0  0  2  0  0  0  0  0  0
  161.7010  204.6240  146.5800 C   0  0  2  0  0  3  0  0  0  0  0  0
  160.5790  209.4480  155.3220 C   0  0  0  0  0  2  0  0  0  0  0  0
  161.9800  210.9070  150.5010 C   0  0  0  0  0  2  0  0  0  0  0  0
  161.4160  208.7140  151.6410 C   0  0  0  0  0  0  0  0  0  0  0  0
  161.6990  209.4240  150.4610 C   0  0  0  0  0  0  0  0  0  0  0  0
  161.5730  207.3550  149.1820 C   0  0  0  0  0  0  0  0  0  0  0  0
  161.2700  202.9040  146.9980 S   0  0  0  0  0  0  0  0  0  0  0  0
  160.0350  206.9530  156.4550 C   0  0  0  0  0  2  0  0  0  0  0  0
  160.5110  208.6940  153.9850 C   0  0  2  0  0  3  0  0  0  0  0  0
  161.2370  203.2360  148.7440 N   0  0  0  0  0  2  0  0  0  0  0  0
  160.1830  206.3580  155.0520 C   0  0  0  0  0  2  0  0  0  0  0  0
  161.6850  208.9310  156.2470 C   0  0  1  0  0  3  0  0  0  0  0  0
  162.0520  209.5310  147.9810 C   0  0  0  0  0  2  0  0  0  0  0  0
  161.7960  208.7380  149.2370 C   0  0  0  0  0  0  0  0  0  0  0  0
  161.7120  206.6540  147.9340 N   0  0  0  0  0  0  0  0  0  0  0  0
  160.9230  206.6190  152.7730 O   0  0  0  0  0  0  0  0  0  0  0  0
  161.0610  204.4300  151.2610 O   0  0  0  0  0  0  0  0  0  0  0  0
  163.1830  204.6940  146.2590 C   0  0  0  0  0  1  0  0  0  0  0  0
  161.2950  206.6370  150.3630 C   0  0  0  0  0  0  0  0  0  0  0  0
  161.4030  205.3970  147.8030 C   0  0  0  0  0  0  0  0  0  0  0  0
  162.0400  210.0070  157.2600 C   0  0  0  0  0  2  0  0  0  0  0  0
  162.4090  211.2400  156.5840 N   0  0  0  0  0  0  0  0  0  0  0  0
  163.8200  211.4520  156.8480 C   0  0  0  0  0  1  0  0  0  0  0  0
  161.6970  212.3190  157.2460 C   0  0  0  0  0  1  0  0  0  0  0  0
  2 12  1  0  0  0  0
  2 24  1  0  0  0  0
  3 11  1  0  0  0  0
  4  3  1  0  0  0  0
  5 27  1  0  0  0  0
  5 25  2  0  0  0  0
  6 28  1  6  0  0  0
  6  5  1  0  0  0  0
  7 19  1  1  0  0  0
  9 26  1  1  0  0  0
  9 15  1  0  0  0  0
  9 28  1  0  0  0  0
 10 20  1  0  0  0  0
 12  8  1  0  0  0  0
 13 11  1  0  0  0  0
 13 12  2  0  0  0  0
 14 22  2  0  0  0  0
 14 27  1  0  0  0  0
 15 18  1  0  0  0  0
 16  1  1  0  0  0  0
 17  8  1  6  0  0  0
 17  7  1  0  0  0  0
 17 10  1  0  0  0  0
 18  6  1  0  0  0  0
 19 16  1  0  0  0  0
 20  1  1  0  0  0  0
 20 29  1  1  0  0  0
 21  4  1  0  0  0  0
 21 22  1  0  0  0  0
 22 13  1  0  0  0  0
 23 14  1  0  0  0  0
 24  7  1  0  0  0  0
 27  2  2  0  0  0  0
 28 23  2  0  0  0  0
 30 31  1  0  0  0  0
 30 32  1  0  0  0  0
 30 29  1  0  0  0  0
M  END
>  <MODEL>
3

>  <REMARK>
 VINA RESULT:      -8.1      2.122      4.768
  Name = 
  2 active torsions:
  status: ('A' for Active; 'I' for Inactive)
    1  A    between atoms: C_20  and  C_29
    2  A    between atoms: C_29  and  N_30
                            x       y       z     vdW  Elec       q    Type
                         _______ _______ _______ _____ _____    ______ ____

>  <TORSDO>
F 2

$$$$
=
 OpenBabel11122413013D

 32 37  0  0  1  0  0  0  0  0999 V2000
  160.6070  202.4760  147.3080 C   0  0  0  0  0  2  0  0  0  0  0  0
  161.3880  206.6280  150.6560 C   0  0  0  0  0  0  0  0  0  0  0  0
  162.6850  210.9390  148.6360 C   0  0  0  0  0  2  0  0  0  0  0  0
  161.7730  211.4870  149.5540 O   0  0  0  0  0  0  0  0  0  0  0  0
  160.8900  206.6270  153.1440 C   0  0  0  0  0  0  0  0  0  0  0  0
  161.1510  207.3360  154.4420 C   0  0  2  0  0  3  0  0  0  0  0  0
  161.2040  204.5100  149.3750 C   0  0  1  0  0  3  0  0  0  0  0  0
  161.8620  206.5980  148.1800 C   0  0  0  0  0  2  0  0  0  0  0  0
  160.6660  209.5240  155.5280 C   0  0  2  0  0  3  0  0  0  0  0  0
  162.2370  204.4380  147.0070 C   0  0  0  0  0  2  0  0  0  0  0  0
  162.2730  209.5050  148.2930 C   0  0  0  0  0  2  0  0  0  0  0  0
  161.7520  207.3330  149.4900 C   0  0  0  0  0  0  0  0  0  0  0  0
  161.9540  208.7230  149.5440 C   0  0  0  0  0  0  0  0  0  0  0  0
  161.4530  208.7080  151.9280 C   0  0  0  0  0  0  0  0  0  0  0  0
  160.3200  208.2070  156.7380 S   0  0  0  0  0  0  0  0  0  0  0  0
  161.5810  202.1310  148.4400 C   0  0  0  0  0  2  0  0  0  0  0  0
  162.2080  205.1250  148.3790 C   0  0  2  0  0  3  0  0  0  0  0  0
  160.2130  206.9510  155.4840 N   0  0  0  0  0  2  0  0  0  0  0  0
  161.4280  203.0240  149.6750 C   0  0  0  0  0  2  0  0  0  0  0  0
  160.8890  203.8240  146.6140 C   0  0  1  0  0  3  0  0  0  0  0  0
  162.0540  210.8910  150.7990 C   0  0  0  0  0  2  0  0  0  0  0  0
  161.7840  209.4090  150.7600 C   0  0  0  0  0  0  0  0  0  0  0  0
  161.2430  209.4210  153.1590 N   0  0  0  0  0  0  0  0  0  0  0  0
  161.2070  205.2390  150.6010 O   0  0  0  0  0  0  0  0  0  0  0  0
  160.4560  205.4430  153.1480 O   0  0  0  0  0  0  0  0  0  0  0  0
  159.3970  210.3260  155.3000 C   0  0  0  0  0  1  0  0  0  0  0  0
  161.2450  207.3140  151.8790 C   0  0  0  0  0  0  0  0  0  0  0  0
  161.0530  208.8120  154.2930 C   0  0  0  0  0  0  0  0  0  0  0  0
  160.8340  203.6510  145.1050 C   0  0  0  0  0  2  0  0  0  0  0  0
  160.4070  204.8860  144.4670 N   0  0  0  0  0  0  0  0  0  0  0  0
  161.5810  205.4530  143.8310 C   0  0  0  0  0  1  0  0  0  0  0  0
  160.0280  205.8030  145.5290 C   0  0  0  0  0  1  0  0  0  0  0  0
  1 16  1  0  0  0  0
  2 27  1  0  0  0  0
  3  4  1  0  0  0  0
  4 21  1  0  0  0  0
  5 25  2  0  0  0  0
  6  5  1  6  0  0  0
  6 18  1  0  0  0  0
  7 19  1  1  0  0  0
  7 24  1  0  0  0  0
  8 17  1  0  0  0  0
  8 12  1  0  0  0  0
  9 26  1  6  0  0  0
  9 15  1  0  0  0  0
 11  3  1  0  0  0  0
 11 13  1  0  0  0  0
 12 13  1  0  0  0  0
 12  2  2  0  0  0  0
 13 22  2  0  0  0  0
 14 23  1  0  0  0  0
 16 19  1  0  0  0  0
 17 10  1  6  0  0  0
 17  7  1  0  0  0  0
 18 15  1  0  0  0  0
 20 29  1  6  0  0  0
 20 10  1  0  0  0  0
 20  1  1  0  0  0  0
 22 21  1  0  0  0  0
 22 14  1  0  0  0  0
 23 28  2  0  0  0  0
 24  2  1  0  0  0  0
 27 14  2  0  0  0  0
 27  5  1  0  0  0  0
 28  6  1  0  0  0  0
 28  9  1  0  0  0  0
 30 29  1  0  0  0  0
 30 32  1  0  0  0  0
 31 30  1  0  0  0  0
M  END
>  <MODEL>
4

>  <REMARK>
 VINA RESULT:      -7.4      3.019      8.705
  Name = 
  2 active torsions:
  status: ('A' for Active; 'I' for Inactive)
    1  A    between atoms: C_20  and  C_29
    2  A    between atoms: C_29  and  N_30
                            x       y       z     vdW  Elec       q    Type
                         _______ _______ _______ _____ _____    ______ ____

>  <TORSDO>
F 2

$$$$
