=
 OpenBabel11122413333D

 37 43  0  0  1  0  0  0  0  0999 V2000
  161.9520  209.8340  155.2890 C   0  0  0  0  0  2  0  0  0  0  0  0
  161.8590  205.8880  151.5900 C   0  0  0  0  0  0  0  0  0  0  0  0
  161.2070  210.0250  151.4780 C   0  0  0  0  0  0  0  0  0  0  0  0
  161.9760  210.0870  156.7970 C   0  0  2  0  0  3  0  0  0  0  0  0
  158.1940  210.4960  153.4990 N   0  0  0  0  0  2  0  0  0  0  0  0
  162.0550  208.1050  150.2920 C   0  0  0  0  0  0  0  0  0  0  0  0
  160.6110  210.2880  152.8210 C   0  0  1  0  0  3  0  0  0  0  0  0
  159.9400  211.6560  156.2690 C   0  0  2  0  0  3  0  0  0  0  0  0
  161.6500  208.7390  151.4600 C   0  0  0  0  0  0  0  0  0  0  0  0
  159.2960  211.0250  152.7560 C   0  0  0  0  0  0  0  0  0  0  0  0
  162.1380  208.8720  149.1210 C   0  0  0  0  0  3  0  0  0  0  0  0
  161.0450  211.2280  157.2490 C   0  0  0  0  0  2  0  0  0  0  0  0
  161.4190  208.0810  152.7490 C   0  0  2  0  0  3  0  0  0  0  0  0
  163.1450  205.6180  152.3540 C   0  0  0  0  0  1  0  0  0  0  0  0
  160.7870  212.2470  150.2520 C   0  0  0  0  0  2  0  0  0  0  0  0
  161.7730  210.2330  149.1440 C   0  0  0  0  0  3  0  0  0  0  0  0
  160.8770  206.6800  152.4820 C   0  0  0  0  0  2  0  0  0  0  0  0
  158.9540  210.5430  155.8670 C   0  0  1  0  0  3  0  0  0  0  0  0
  157.8860  210.9580  154.8470 C   0  0  0  0  0  2  0  0  0  0  0  0
  161.2870  210.8300  150.3240 C   0  0  0  0  0  0  0  0  0  0  0  0
  160.4550  208.9480  153.4390 N   0  0  1  0  0  0  0  0  0  0  0  0
  162.2030  206.6060  150.2600 C   0  0  0  0  0  2  0  0  0  0  0  0
  159.2260  212.2530  152.1920 C   0  0  0  0  0  0  0  0  0  0  0  0
  161.2260  204.5540  151.2570 C   0  0  0  0  0  1  0  0  0  0  0  0
  159.4860  209.1090  155.7250 C   0  0  0  0  0  2  0  0  0  0  0  0
  160.4850  212.3130  155.1650 O   0  0  0  0  0  1  0  0  0  0  0  0
  160.7570  208.9520  154.8780 C   0  0  2  0  0  3  0  0  0  0  0  0
  160.4690  212.8670  151.6070 C   0  0  0  0  0  2  0  0  0  0  0  0
  157.4860  213.4440  150.8460 C   0  0  0  0  0  3  0  0  0  0  0  0
  157.9640  213.0330  152.1010 C   0  0  0  0  0  0  0  0  0  0  0  0
  157.2030  213.3290  153.2450 C   0  0  0  0  0  3  0  0  0  0  0  0
  155.2860  214.3250  154.2500 F   0  0  0  0  0  0  0  0  0  0  0  0
  155.5470  214.4530  151.8860 C   0  0  0  0  0  3  0  0  0  0  0  0
  156.0040  214.0400  153.1390 C   0  0  0  0  0  0  0  0  0  0  0  0
  156.2870  214.1540  150.7390 C   0  0  0  0  0  3  0  0  0  0  0  0
  164.0390  211.4150  156.3510 C   0  0  0  0  0  1  0  0  0  0  0  0
  163.3890  210.3890  157.2600 C   0  0  0  0  0  2  0  0  0  0  0  0
  1  4  1  0  0  0  0
  2 14  1  0  0  0  0
  2 17  1  0  0  0  0
  4 12  1  0  0  0  0
  4 37  1  6  0  0  0
  5 19  1  0  0  0  0
  6  9  2  0  0  0  0
  7  3  1  6  0  0  0
  7 21  1  0  0  0  0
  8 26  1  6  0  0  0
  8 12  1  0  0  0  0
  9  3  1  0  0  0  0
  9 13  1  0  0  0  0
 10  7  1  0  0  0  0
 10  5  1  0  0  0  0
 11 16  2  0  0  0  0
 11  6  1  0  0  0  0
 13 17  1  6  0  0  0
 13 21  1  0  0  0  0
 15 20  1  0  0  0  0
 15 28  1  0  0  0  0
 16 20  1  0  0  0  0
 18 19  1  6  0  0  0
 18  8  1  0  0  0  0
 20  3  2  0  0  0  0
 21 27  1  0  0  0  0
 22  6  1  0  0  0  0
 22  2  1  0  0  0  0
 23 10  2  0  0  0  0
 24  2  1  0  0  0  0
 25 18  1  0  0  0  0
 27  1  1  0  0  0  0
 27 25  1  0  0  0  0
 28 23  1  0  0  0  0
 29 30  1  0  0  0  0
 30 23  1  0  0  0  0
 30 31  2  0  0  0  0
 33 34  2  0  0  0  0
 34 31  1  0  0  0  0
 34 32  1  0  0  0  0
 35 29  2  0  0  0  0
 35 33  1  0  0  0  0
 36 37  1  0  0  0  0
M  END
>  <MODEL>
1

>  <REMARK>
 VINA RESULT:      -5.5      0.000      0.000
  Name = 
  2 active torsions:
  status: ('A' for Active; 'I' for Inactive)
    1  A    between atoms: C_4  and  C_37
    2  A    between atoms: C_23  and  C_30
                            x       y       z     vdW  Elec       q    Type
                         _______ _______ _______ _____ _____    ______ ____

>  <TORSDO>
F 2

$$$$
