=
 OpenBabel11122412343D

 30 35  0  0  1  0  0  0  0  0999 V2000
  161.1210  204.9870  148.5790 C   0  0  1  0  0  3  0  0  0  0  0  0
  161.1670  202.5390  147.8730 C   0  0  0  0  0  0  0  0  0  0  0  0
  161.3240  203.8340  152.5140 C   0  0  0  0  0  2  0  0  0  0  0  0
  161.4140  205.8690  149.8060 C   0  0  1  0  0  3  0  0  0  0  0  0
  162.0910  205.2320  147.5790 O   0  0  0  0  0  0  0  0  0  0  0  0
  161.8280  208.8730  147.5760 O   0  0  0  0  0  1  0  0  0  0  0  0
  160.4750  208.5440  151.4570 C   0  0  1  0  0  3  0  0  0  0  0  0
  162.1100  207.6080  148.0980 C   0  0  2  0  0  3  0  0  0  0  0  0
  160.4510  207.5190  152.5960 C   0  0  2  0  0  3  0  0  0  0  0  0
  161.4250  205.1940  153.0630 C   0  0  0  0  0  0  0  0  0  0  0  0
  161.8830  206.5240  147.0380 C   0  0  2  0  0  3  0  0  0  0  0  0
  161.2750  207.3410  149.3560 C   0  0  2  0  0  3  0  0  0  0  0  0
  161.0220  201.1820  148.1660 C   0  0  0  0  0  3  0  0  0  0  0  0
  161.2490  208.1200  153.7350 C   0  0  0  0  0  2  0  0  0  0  0  0
  160.5410  210.2140  152.1840 S   0  0  0  0  0  0  0  0  0  0  0  0
  161.4260  202.9050  146.5580 O   0  0  0  0  0  1  0  0  0  0  0  0
  160.4120  204.0500  151.3120 C   0  0  1  0  0  3  0  0  0  0  0  0
  160.7110  200.7680  149.4580 C   0  0  0  0  0  3  0  0  0  0  0  0
  161.0370  203.5090  148.8960 C   0  0  0  0  0  0  0  0  0  0  0  0
  160.4580  205.5540  150.9640 C   0  0  1  0  0  3  0  0  0  0  0  0
  161.8950  205.4360  154.2050 O   0  0  0  0  0  0  0  0  0  0  0  0
  160.9450  206.2010  152.1770 N   0  0  0  0  0  0  0  0  0  0  0  0
  160.7990  209.5570  153.8600 C   0  0  0  0  0  2  0  0  0  0  0  0
  163.0020  208.2010  151.0470 C   0  0  0  0  0  1  0  0  0  0  0  0
  160.5320  201.7150  150.4630 C   0  0  0  0  0  3  0  0  0  0  0  0
  160.6860  203.0820  150.1950 C   0  0  0  0  0  0  0  0  0  0  0  0
  161.6120  208.3750  150.4380 C   0  0  2  0  0  3  0  0  0  0  0  0
  160.5420  206.6530  146.3060 C   0  0  0  0  0  2  0  0  0  0  0  0
  161.8900  205.7710  144.5730 F   0  0  0  0  0  0  0  0  0  0  0  0
  160.5810  205.8850  145.0010 C   0  0  0  0  0  2  0  0  0  0  0  0
  1  5  1  6  0  0  0
  1 19  1  0  0  0  0
  1  4  1  0  0  0  0
  2 13  2  0  0  0  0
  2 19  1  0  0  0  0
  3 10  1  0  0  0  0
  4 20  1  0  0  0  0
  6  8  1  0  0  0  0
  7 15  1  0  0  0  0
  7  9  1  0  0  0  0
  8 12  1  0  0  0  0
  9 14  1  0  0  0  0
 10 21  2  0  0  0  0
 11  5  1  0  0  0  0
 11  8  1  0  0  0  0
 12  4  1  0  0  0  0
 12 27  1  0  0  0  0
 13 18  1  0  0  0  0
 14 23  1  0  0  0  0
 15 23  1  0  0  0  0
 16  2  1  0  0  0  0
 17  3  1  0  0  0  0
 18 25  2  0  0  0  0
 19 26  2  0  0  0  0
 20 17  1  0  0  0  0
 20 22  1  0  0  0  0
 22  9  1  0  0  0  0
 22 10  1  0  0  0  0
 26 25  1  0  0  0  0
 26 17  1  0  0  0  0
 27 24  1  0  0  0  0
 27  7  1  0  0  0  0
 28 11  1  0  0  0  0
 29 30  1  0  0  0  0
 30 28  1  0  0  0  0
M  END
>  <MODEL>
1

>  <REMARK>
 VINA RESULT:      -7.6      0.000      0.000
  Name = 
  2 active torsions:
  status: ('A' for Active; 'I' for Inactive)
    1  A    between atoms: C_11  and  C_28
    2  A    between atoms: C_28  and  C_30
                            x       y       z     vdW  Elec       q    Type
                         _______ _______ _______ _____ _____    ______ ____

>  <TORSDO>
F 2

$$$$
=
 OpenBabel11122412343D

 30 35  0  0  1  0  0  0  0  0999 V2000
  161.3140  206.1680  149.9440 C   0  0  1  0  0  3  0  0  0  0  0  0
  161.5130  203.6380  149.7070 C   0  0  0  0  0  0  0  0  0  0  0  0
  161.3870  205.7680  154.0300 C   0  0  0  0  0  2  0  0  0  0  0  0
  161.5050  207.2750  150.9960 C   0  0  1  0  0  3  0  0  0  0  0  0
  162.3160  206.2810  148.9530 O   0  0  0  0  0  0  0  0  0  0  0  0
  161.8750  209.8380  148.2660 O   0  0  0  0  0  1  0  0  0  0  0  0
  160.3590  210.1490  152.0870 C   0  0  1  0  0  3  0  0  0  0  0  0
  162.1950  208.7090  149.0240 C   0  0  2  0  0  3  0  0  0  0  0  0
  160.3310  209.3500  153.3940 C   0  0  2  0  0  3  0  0  0  0  0  0
  161.3950  207.2090  154.3200 C   0  0  0  0  0  0  0  0  0  0  0  0
  162.0710  207.4370  148.1750 C   0  0  2  0  0  3  0  0  0  0  0  0
  161.3150  208.6290  150.2770 C   0  0  2  0  0  3  0  0  0  0  0  0
  161.4210  202.3520  150.2400 C   0  0  0  0  0  3  0  0  0  0  0  0
  161.0440  210.1940  154.4320 C   0  0  0  0  0  2  0  0  0  0  0  0
  160.3080  211.9250  152.4940 S   0  0  0  0  0  0  0  0  0  0  0  0
  161.8160  203.7720  148.3570 O   0  0  0  0  0  1  0  0  0  0  0  0
  160.5230  205.7080  152.7750 C   0  0  1  0  0  3  0  0  0  0  0  0
  161.0700  202.1650  151.5740 C   0  0  0  0  0  3  0  0  0  0  0  0
  161.2870  204.7700  150.5270 C   0  0  0  0  0  0  0  0  0  0  0  0
  160.5110  207.1240  152.1560 C   0  0  1  0  0  3  0  0  0  0  0  0
  161.7980  207.6830  155.4150 O   0  0  0  0  0  0  0  0  0  0  0  0
  160.9090  208.0080  153.2460 N   0  0  0  0  0  0  0  0  0  0  0  0
  160.5190  211.6010  154.2710 C   0  0  0  0  0  2  0  0  0  0  0  0
  162.9160  209.8810  151.8420 C   0  0  0  0  0  1  0  0  0  0  0  0
  160.7970  203.2680  152.3790 C   0  0  0  0  0  3  0  0  0  0  0  0
  160.8970  204.5690  151.8680 C   0  0  0  0  0  0  0  0  0  0  0  0
  161.5490  209.8620  151.1600 C   0  0  2  0  0  3  0  0  0  0  0  0
  160.7620  207.3540  147.3820 C   0  0  0  0  0  2  0  0  0  0  0  0
  159.9700  206.5580  145.2990 F   0  0  0  0  0  0  0  0  0  0  0  0
  160.8610  206.2790  146.3180 C   0  0  0  0  0  2  0  0  0  0  0  0
  1  5  1  6  0  0  0
  1 19  1  0  0  0  0
  1  4  1  0  0  0  0
  2 13  2  0  0  0  0
  2 19  1  0  0  0  0
  3 10  1  0  0  0  0
  4 20  1  0  0  0  0
  6  8  1  0  0  0  0
  7 15  1  0  0  0  0
  7  9  1  0  0  0  0
  8 12  1  0  0  0  0
  9 14  1  0  0  0  0
 10 21  2  0  0  0  0
 11  5  1  0  0  0  0
 11  8  1  0  0  0  0
 12  4  1  0  0  0  0
 12 27  1  0  0  0  0
 13 18  1  0  0  0  0
 15 23  1  0  0  0  0
 16  2  1  0  0  0  0
 17  3  1  0  0  0  0
 18 25  2  0  0  0  0
 19 26  2  0  0  0  0
 20 17  1  0  0  0  0
 20 22  1  0  0  0  0
 22  9  1  0  0  0  0
 22 10  1  0  0  0  0
 23 14  1  0  0  0  0
 26 25  1  0  0  0  0
 26 17  1  0  0  0  0
 27 24  1  0  0  0  0
 27  7  1  0  0  0  0
 28 11  1  0  0  0  0
 29 30  1  0  0  0  0
 30 28  1  0  0  0  0
M  END
>  <MODEL>
2

>  <REMARK>
 VINA RESULT:      -7.0      1.472      2.000
  Name = 
  2 active torsions:
  status: ('A' for Active; 'I' for Inactive)
    1  A    between atoms: C_11  and  C_28
    2  A    between atoms: C_28  and  C_30
                            x       y       z     vdW  Elec       q    Type
                         _______ _______ _______ _____ _____    ______ ____

>  <TORSDO>
F 2

$$$$
=
 OpenBabel11122412343D

 30 35  0  0  1  0  0  0  0  0999 V2000
  161.3840  207.5990  151.4130 C   0  0  1  0  0  3  0  0  0  0  0  0
  161.9900  210.0400  151.0020 C   0  0  0  0  0  0  0  0  0  0  0  0
  162.3050  206.7360  147.5060 C   0  0  0  0  0  2  0  0  0  0  0  0
  161.5680  206.2110  150.7720 C   0  0  1  0  0  3  0  0  0  0  0  0
  162.1420  207.6720  152.6040 O   0  0  0  0  0  0  0  0  0  0  0  0
  160.9410  204.5660  154.0990 O   0  0  0  0  0  1  0  0  0  0  0  0
  160.1490  203.2990  150.2560 C   0  0  1  0  0  3  0  0  0  0  0  0
  161.5980  205.3680  153.1620 C   0  0  2  0  0  3  0  0  0  0  0  0
  160.5150  203.6630  148.8140 C   0  0  2  0  0  3  0  0  0  0  0  0
  162.1060  205.2840  147.6230 C   0  0  0  0  0  0  0  0  0  0  0  0
  161.5480  206.8420  153.5840 C   0  0  2  0  0  3  0  0  0  0  0  0
  161.0030  205.1700  151.7640 C   0  0  2  0  0  3  0  0  0  0  0  0
  162.2360  211.1070  150.1370 C   0  0  0  0  0  3  0  0  0  0  0  0
  161.2480  202.4680  148.2390 C   0  0  0  0  0  2  0  0  0  0  0  0
  159.8550  201.5020  150.3410 S   0  0  0  0  0  0  0  0  0  0  0  0
  162.0010  210.2850  152.3700 O   0  0  0  0  0  1  0  0  0  0  0  0
  161.2430  207.2730  148.4590 C   0  0  1  0  0  3  0  0  0  0  0  0
  162.1850  210.9230  148.7580 C   0  0  0  0  0  3  0  0  0  0  0  0
  161.7230  208.7480  150.4880 C   0  0  0  0  0  0  0  0  0  0  0  0
  160.8570  206.1220  149.4150 C   0  0  1  0  0  3  0  0  0  0  0  0
  162.6180  204.4570  146.8230 O   0  0  0  0  0  0  0  0  0  0  0  0
  161.2880  204.9100  148.7280 N   0  0  0  0  0  0  0  0  0  0  0  0
  160.4550  201.2470  148.6440 C   0  0  0  0  0  2  0  0  0  0  0  0
  162.6180  203.3240  151.0130 C   0  0  0  0  0  1  0  0  0  0  0  0
  161.8750  209.6690  148.2380 C   0  0  0  0  0  3  0  0  0  0  0  0
  161.6380  208.5800  149.0890 C   0  0  0  0  0  0  0  0  0  0  0  0
  161.1730  203.7100  151.3240 C   0  0  2  0  0  3  0  0  0  0  0  0
  160.1490  207.3150  153.9950 C   0  0  0  0  0  2  0  0  0  0  0  0
  159.2080  206.9740  156.1400 F   0  0  0  0  0  0  0  0  0  0  0  0
  160.1420  207.7260  155.4540 C   0  0  0  0  0  2  0  0  0  0  0  0
  1 19  1  6  0  0  0
  1  5  1  0  0  0  0
  2 16  1  0  0  0  0
  3 10  1  0  0  0  0
  3 17  1  0  0  0  0
  4  1  1  0  0  0  0
  4 12  1  0  0  0  0
  5 11  1  0  0  0  0
  7 15  1  0  0  0  0
  7 27  1  0  0  0  0
  8 11  1  0  0  0  0
  8  6  1  0  0  0  0
  9  7  1  0  0  0  0
 10 22  1  0  0  0  0
 11 28  1  0  0  0  0
 12  8  1  0  0  0  0
 13  2  2  0  0  0  0
 14 23  1  0  0  0  0
 14  9  1  0  0  0  0
 17 26  1  0  0  0  0
 17 20  1  0  0  0  0
 18 13  1  0  0  0  0
 19  2  1  0  0  0  0
 20  4  1  0  0  0  0
 21 10  2  0  0  0  0
 22  9  1  0  0  0  0
 22 20  1  0  0  0  0
 23 15  1  0  0  0  0
 24 27  1  0  0  0  0
 25 18  2  0  0  0  0
 25 26  1  0  0  0  0
 26 19  2  0  0  0  0
 27 12  1  0  0  0  0
 28 30  1  0  0  0  0
 30 29  1  0  0  0  0
M  END
>  <MODEL>
3

>  <REMARK>
 VINA RESULT:      -5.6      3.268      7.085
  Name = 
  2 active torsions:
  status: ('A' for Active; 'I' for Inactive)
    1  A    between atoms: C_11  and  C_28
    2  A    between atoms: C_28  and  C_30
                            x       y       z     vdW  Elec       q    Type
                         _______ _______ _______ _____ _____    ______ ____

>  <TORSDO>
F 2

$$$$
=
 OpenBabel11122412343D

 30 35  0  0  1  0  0  0  0  0999 V2000
  161.5010  208.0900  149.2470 C   0  0  1  0  0  3  0  0  0  0  0  0
  161.8340  206.1160  147.6700 C   0  0  0  0  0  0  0  0  0  0  0  0
  161.4990  205.5080  152.4410 C   0  0  0  0  0  2  0  0  0  0  0  0
  161.6110  208.4400  150.7420 C   0  0  1  0  0  3  0  0  0  0  0  0
  162.5190  208.7590  148.5300 O   0  0  0  0  0  0  0  0  0  0  0  0
  161.9140  212.0920  149.8890 O   0  0  0  0  0  1  0  0  0  0  0  0
  160.2960  210.2030  153.1760 C   0  0  1  0  0  3  0  0  0  0  0  0
  162.2730  210.7420  149.9160 C   0  0  2  0  0  3  0  0  0  0  0  0
  160.2780  208.8160  153.8270 C   0  0  2  0  0  3  0  0  0  0  0  0
  161.4270  206.5510  153.4750 C   0  0  0  0  0  0  0  0  0  0  0  0
  162.2340  210.1450  148.5040 C   0  0  2  0  0  3  0  0  0  0  0  0
  161.3700  209.9600  150.8760 C   0  0  2  0  0  3  0  0  0  0  0  0
  161.7960  204.7460  147.4040 C   0  0  0  0  0  3  0  0  0  0  0  0
  160.9230  208.9700  155.1900 C   0  0  0  0  0  2  0  0  0  0  0  0
  160.1460  211.4590  154.4880 S   0  0  0  0  0  0  0  0  0  0  0  0
  162.1610  206.9800  146.6310 O   0  0  0  0  0  1  0  0  0  0  0  0
  160.6690  206.1240  151.3200 C   0  0  1  0  0  3  0  0  0  0  0  0
  161.4230  203.8460  148.3980 C   0  0  0  0  0  3  0  0  0  0  0  0
  161.5320  206.6020  148.9650 C   0  0  0  0  0  0  0  0  0  0  0  0
  160.6000  207.6450  151.5800 C   0  0  1  0  0  3  0  0  0  0  0  0
  161.7810  206.3560  154.6670 O   0  0  0  0  0  0  0  0  0  0  0  0
  160.9260  207.7950  152.9940 N   0  0  0  0  0  0  0  0  0  0  0  0
  160.3310  210.2170  155.8030 C   0  0  0  0  0  2  0  0  0  0  0  0
  162.8680  210.1900  152.9460 C   0  0  0  0  0  1  0  0  0  0  0  0
  161.0760  204.3150  149.6620 C   0  0  0  0  0  3  0  0  0  0  0  0
  161.1210  205.6850  149.9550 C   0  0  0  0  0  0  0  0  0  0  0  0
  161.5200  210.5090  152.3010 C   0  0  2  0  0  3  0  0  0  0  0  0
  160.9490  210.4730  147.7350 C   0  0  0  0  0  2  0  0  0  0  0  0
  159.8490  212.5600  147.5500 F   0  0  0  0  0  0  0  0  0  0  0  0
  161.0050  211.8900  147.2000 C   0  0  0  0  0  2  0  0  0  0  0  0
  1  5  1  6  0  0  0
  1  4  1  0  0  0  0
  2 19  1  0  0  0  0
  3 10  1  0  0  0  0
  4 12  1  0  0  0  0
  4 20  1  0  0  0  0
  6  8  1  0  0  0  0
  7  9  1  0  0  0  0
  7 15  1  0  0  0  0
  8 12  1  0  0  0  0
  9 14  1  0  0  0  0
 10 21  2  0  0  0  0
 11  5  1  0  0  0  0
 11  8  1  0  0  0  0
 12 27  1  0  0  0  0
 13  2  2  0  0  0  0
 13 18  1  0  0  0  0
 14 23  1  0  0  0  0
 15 23  1  0  0  0  0
 16  2  1  0  0  0  0
 17 20  1  0  0  0  0
 17  3  1  0  0  0  0
 18 25  2  0  0  0  0
 19  1  1  0  0  0  0
 19 26  2  0  0  0  0
 20 22  1  0  0  0  0
 22 10  1  0  0  0  0
 22  9  1  0  0  0  0
 25 26  1  0  0  0  0
 26 17  1  0  0  0  0
 27 24  1  0  0  0  0
 27  7  1  0  0  0  0
 28 11  1  0  0  0  0
 30 29  1  0  0  0  0
 30 28  1  0  0  0  0
M  END
>  <MODEL>
4

>  <REMARK>
 VINA RESULT:      -5.3      2.344      3.361
  Name = 
  2 active torsions:
  status: ('A' for Active; 'I' for Inactive)
    1  A    between atoms: C_11  and  C_28
    2  A    between atoms: C_28  and  C_30
                            x       y       z     vdW  Elec       q    Type
                         _______ _______ _______ _____ _____    ______ ____

>  <TORSDO>
F 2

$$$$
=
 OpenBabel11122412343D

 30 35  0  0  1  0  0  0  0  0999 V2000
  161.2060  203.7820  148.0120 C   0  0  1  0  0  3  0  0  0  0  0  0
  160.8650  201.3220  148.5820 C   0  0  0  0  0  0  0  0  0  0  0  0
  161.5980  204.6310  152.0100 C   0  0  0  0  0  2  0  0  0  0  0  0
  161.7200  205.0840  148.6530 C   0  0  1  0  0  3  0  0  0  0  0  0
  162.1090  203.3630  147.0070 O   0  0  0  0  0  0  0  0  0  0  0  0
  162.3310  206.5500  145.2410 O   0  0  0  0  0  1  0  0  0  0  0  0
  161.2920  208.3320  148.8110 C   0  0  1  0  0  3  0  0  0  0  0  0
  162.4880  205.6610  146.3080 C   0  0  2  0  0  3  0  0  0  0  0  0
  161.2320  207.9940  150.3040 C   0  0  2  0  0  3  0  0  0  0  0  0
  161.9250  206.0530  151.8280 C   0  0  0  0  0  0  0  0  0  0  0  0
  162.0270  204.2540  145.9100 C   0  0  2  0  0  3  0  0  0  0  0  0
  161.7390  206.1630  147.5470 C   0  0  2  0  0  3  0  0  0  0  0  0
  160.5680  200.3110  149.4980 C   0  0  0  0  0  3  0  0  0  0  0  0
  162.1990  208.9300  150.9990 C   0  0  0  0  0  2  0  0  0  0  0  0
  161.6420  210.1120  148.6360 S   0  0  0  0  0  0  0  0  0  0  0  0
  161.0540  200.9690  147.2510 O   0  0  0  0  0  1  0  0  0  0  0  0
  160.6200  204.3890  150.8650 C   0  0  1  0  0  3  0  0  0  0  0  0
  160.3190  200.6200  150.8320 C   0  0  0  0  0  3  0  0  0  0  0  0
  160.9550  202.6690  149.0070 C   0  0  0  0  0  0  0  0  0  0  0  0
  160.8350  205.5160  149.8300 C   0  0  1  0  0  3  0  0  0  0  0  0
  162.5220  206.7330  152.7040 O   0  0  0  0  0  0  0  0  0  0  0  0
  161.5080  206.5760  150.5710 N   0  0  0  0  0  0  0  0  0  0  0  0
  161.9560  210.3030  150.4170 C   0  0  0  0  0  2  0  0  0  0  0  0
  163.7050  207.4400  148.5870 C   0  0  0  0  0  1  0  0  0  0  0  0
  160.3550  201.9460  151.2540 C   0  0  0  0  0  3  0  0  0  0  0  0
  160.6660  202.9760  150.3540 C   0  0  0  0  0  0  0  0  0  0  0  0
  162.3030  207.5200  147.9880 C   0  0  2  0  0  3  0  0  0  0  0  0
  160.6570  204.2290  145.2240 C   0  0  0  0  0  2  0  0  0  0  0  0
  159.1050  202.8120  144.1360 F   0  0  0  0  0  0  0  0  0  0  0  0
  160.2670  202.8050  144.8840 C   0  0  0  0  0  2  0  0  0  0  0  0
  1  5  1  6  0  0  0
  1  4  1  0  0  0  0
  1 19  1  0  0  0  0
  2 19  2  0  0  0  0
  2 13  1  0  0  0  0
  4 20  1  0  0  0  0
  6  8  1  0  0  0  0
  7  9  1  0  0  0  0
  8 12  1  0  0  0  0
  9 22  1  0  0  0  0
  9 14  1  0  0  0  0
 10  3  1  0  0  0  0
 10 21  2  0  0  0  0
 11  8  1  0  0  0  0
 11  5  1  0  0  0  0
 12 27  1  0  0  0  0
 12  4  1  0  0  0  0
 13 18  2  0  0  0  0
 15  7  1  0  0  0  0
 15 23  1  0  0  0  0
 16  2  1  0  0  0  0
 17  3  1  0  0  0  0
 18 25  1  0  0  0  0
 19 26  1  0  0  0  0
 20 22  1  0  0  0  0
 20 17  1  0  0  0  0
 22 10  1  0  0  0  0
 23 14  1  0  0  0  0
 26 17  1  0  0  0  0
 26 25  2  0  0  0  0
 27 24  1  0  0  0  0
 27  7  1  0  0  0  0
 28 11  1  0  0  0  0
 29 30  1  0  0  0  0
 30 28  1  0  0  0  0
M  END
>  <MODEL>
5

>  <REMARK>
 VINA RESULT:      -5.1      1.800      2.314
  Name = 
  2 active torsions:
  status: ('A' for Active; 'I' for Inactive)
    1  A    between atoms: C_11  and  C_28
    2  A    between atoms: C_28  and  C_30
                            x       y       z     vdW  Elec       q    Type
                         _______ _______ _______ _____ _____    ______ ____

>  <TORSDO>
F 2

$$$$
