=
 OpenBabel11122412463D

 32 38  0  0  1  0  0  0  0  0999 V2000
  160.3250  209.1220  156.6490 C   0  0  1  0  0  3  0  0  0  0  0  0
  161.1860  206.3130  152.2700 C   0  0  0  0  0  0  0  0  0  0  0  0
  162.0250  209.7850  148.9760 C   0  0  0  0  0  3  0  0  0  0  0  0
  162.2200  208.7700  147.9230 C   0  0  0  0  0  3  0  0  0  0  0  0
  160.8780  203.9300  151.5280 C   0  0  0  0  0  0  0  0  0  0  0  0
  160.7920  203.0840  150.3470 C   0  0  0  0  0  0  0  0  0  0  0  0
  161.0630  206.9410  154.7020 C   0  0  1  0  0  3  0  0  0  0  0  0
  161.7240  208.6610  153.0590 C   0  0  0  0  0  2  0  0  0  0  0  0
  160.8820  202.4630  148.1850 C   0  0  0  0  0  0  0  0  0  0  0  0
  160.9900  209.4650  155.3150 C   0  0  2  0  0  3  0  0  0  0  0  0
  161.9750  209.4380  150.2660 C   0  0  0  0  0  3  0  0  0  0  0  0
  161.5470  207.6890  151.9710 N   0  0  0  0  0  0  0  0  0  0  0  0
  162.2250  208.0140  150.7080 C   0  0  1  0  0  3  0  0  0  0  0  0
  161.5640  205.7720  149.8800 C   0  0  0  0  0  0  0  0  0  0  0  0
  160.5540  201.4420  148.9160 N   0  0  0  0  0  0  0  0  0  0  0  0
  159.6090  207.7550  156.6560 C   0  0  0  0  0  2  0  0  0  0  0  0
  160.8080  208.3770  154.2360 C   0  0  2  0  0  3  0  0  0  0  0  0
  160.4970  201.8280  150.2730 N   0  0  0  0  0  2  0  0  0  0  0  0
  160.3910  206.5920  156.0330 C   0  0  0  0  0  2  0  0  0  0  0  0
  161.8400  209.0350  156.5050 C   0  0  1  0  0  3  0  0  0  0  0  0
  162.1620  207.4670  148.2100 C   0  0  0  0  0  3  0  0  0  0  0  0
  161.9320  207.0280  149.6030 C   0  0  2  0  0  3  0  0  0  0  0  0
  161.4250  204.8190  148.7990 N   0  0  0  0  0  0  0  0  0  0  0  0
  160.6000  205.9820  153.6220 C   0  0  0  0  0  2  0  0  0  0  0  0
  160.6900  203.4410  152.6750 O   0  0  0  0  0  0  0  0  0  0  0  0
  161.0420  202.4190  146.7070 C   0  0  0  0  0  1  0  0  0  0  0  0
  161.2300  205.3710  151.2960 C   0  0  0  0  0  0  0  0  0  0  0  0
  161.0620  203.6020  149.0500 C   0  0  0  0  0  0  0  0  0  0  0  0
  162.4360  210.1810  157.0940 O   0  0  0  0  0  0  0  0  0  0  0  0
  163.4690  210.8870  156.4720 C   0  0  0  0  0  0  0  0  0  0  0  0
  164.4360  211.7090  157.2570 C   0  0  0  0  0  1  0  0  0  0  0  0
  163.5890  210.8290  155.2210 O   0  0  0  0  0  0  0  0  0  0  0  0
  1 16  1  6  0  0  0
  2 24  1  0  0  0  0
  3 11  2  0  0  0  0
  4 21  2  0  0  0  0
  4  3  1  0  0  0  0
  5 25  2  0  0  0  0
  6  5  1  0  0  0  0
  7 24  1  6  0  0  0
  7 19  1  0  0  0  0
  8 17  1  0  0  0  0
  9 15  2  0  0  0  0
  9 28  1  0  0  0  0
 10 20  1  0  0  0  0
 10  1  1  0  0  0  0
 11 13  1  0  0  0  0
 12  2  1  0  0  0  0
 12  8  1  0  0  0  0
 13 12  1  0  0  0  0
 14 27  1  0  0  0  0
 15 18  1  0  0  0  0
 17  7  1  0  0  0  0
 17 10  1  0  0  0  0
 18  6  1  0  0  0  0
 19 16  1  0  0  0  0
 20  1  1  0  0  0  0
 20 29  1  0  0  0  0
 21 22  1  0  0  0  0
 22 14  1  0  0  0  0
 22 13  1  0  0  0  0
 23 28  1  0  0  0  0
 23 14  2  0  0  0  0
 26  9  1  0  0  0  0
 27  5  1  0  0  0  0
 27  2  2  0  0  0  0
 28  6  2  0  0  0  0
 30 29  1  0  0  0  0
 30 31  1  0  0  0  0
 32 30  2  0  0  0  0
M  END
>  <MODEL>
1

>  <REMARK>
 VINA RESULT:      -9.2      0.000      0.000
  Name = 
  2 active torsions:
  status: ('A' for Active; 'I' for Inactive)
    1  A    between atoms: C_20  and  O_29
    2  A    between atoms: O_29  and  C_30
                            x       y       z     vdW  Elec       q    Type
                         _______ _______ _______ _____ _____    ______ ____

>  <TORSDO>
F 2

$$$$
=
 OpenBabel11122412463D

 32 38  0  0  1  0  0  0  0  0999 V2000
  160.2220  208.3910  156.4400 C   0  0  1  0  0  3  0  0  0  0  0  0
  161.3630  207.3100  151.4060 C   0  0  0  0  0  0  0  0  0  0  0  0
  161.6760  211.7490  149.4530 C   0  0  0  0  0  3  0  0  0  0  0  0
  161.9830  211.1700  148.1310 C   0  0  0  0  0  3  0  0  0  0  0  0
  161.3570  205.2830  149.9180 C   0  0  0  0  0  0  0  0  0  0  0  0
  161.3620  204.8680  148.5230 C   0  0  0  0  0  0  0  0  0  0  0  0
  161.2040  207.0850  153.9060 C   0  0  1  0  0  3  0  0  0  0  0  0
  161.6020  209.3190  152.9340 C   0  0  0  0  0  2  0  0  0  0  0  0
  161.4920  205.0080  146.2800 C   0  0  0  0  0  0  0  0  0  0  0  0
  160.8110  209.2360  155.3090 C   0  0  2  0  0  3  0  0  0  0  0  0
  161.6960  210.9940  150.5560 C   0  0  0  0  0  3  0  0  0  0  0  0
  161.5340  208.7430  151.5840 N   0  0  0  0  0  0  0  0  0  0  0  0
  162.1400  209.5490  150.5140 C   0  0  1  0  0  3  0  0  0  0  0  0
  161.7640  207.6360  148.9820 C   0  0  0  0  0  0  0  0  0  0  0  0
  161.3150  203.7690  146.6270 N   0  0  0  0  0  0  0  0  0  0  0  0
  159.6920  207.0160  155.9810 C   0  0  0  0  0  2  0  0  0  0  0  0
  160.7540  208.5480  153.9290 C   0  0  2  0  0  3  0  0  0  0  0  0
  161.2330  203.6780  148.0340 N   0  0  0  0  0  2  0  0  0  0  0  0
  160.6080  206.2340  155.0320 C   0  0  0  0  0  2  0  0  0  0  0  0
  161.7320  208.5540  156.3140 C   0  0  1  0  0  3  0  0  0  0  0  0
  162.1030  209.8490  147.9740 C   0  0  0  0  0  3  0  0  0  0  0  0
  161.9580  208.9510  149.1400 C   0  0  2  0  0  3  0  0  0  0  0  0
  161.7320  207.0810  147.6440 N   0  0  0  0  0  0  0  0  0  0  0  0
  160.8510  206.4810  152.5600 C   0  0  0  0  0  2  0  0  0  0  0  0
  161.2560  204.4250  150.8360 O   0  0  0  0  0  0  0  0  0  0  0  0
  161.6290  205.4720  144.8740 C   0  0  0  0  0  1  0  0  0  0  0  0
  161.5120  206.7540  150.1790 C   0  0  0  0  0  0  0  0  0  0  0  0
  161.5370  205.8130  147.4750 C   0  0  0  0  0  0  0  0  0  0  0  0
  162.1830  209.5110  157.2610 O   0  0  0  0  0  0  0  0  0  0  0  0
  162.5170  210.8180  156.8990 C   0  0  0  0  0  0  0  0  0  0  0  0
  161.6460  211.9750  157.2590 C   0  0  0  0  0  1  0  0  0  0  0  0
  163.5770  211.0280  156.2540 O   0  0  0  0  0  0  0  0  0  0  0  0
  1 16  1  6  0  0  0
  2 12  1  0  0  0  0
  2 24  1  0  0  0  0
  3 11  2  0  0  0  0
  4  3  1  0  0  0  0
  5 27  1  0  0  0  0
  5 25  2  0  0  0  0
  6  5  1  0  0  0  0
  7 24  1  6  0  0  0
  7 17  1  0  0  0  0
  7 19  1  0  0  0  0
  8 17  1  0  0  0  0
  9 15  2  0  0  0  0
  9 28  1  0  0  0  0
 10 20  1  0  0  0  0
 10  1  1  0  0  0  0
 12  8  1  0  0  0  0
 13 11  1  0  0  0  0
 13 12  1  0  0  0  0
 14 22  1  0  0  0  0
 14 27  1  0  0  0  0
 15 18  1  0  0  0  0
 17 10  1  0  0  0  0
 18  6  1  0  0  0  0
 19 16  1  0  0  0  0
 20  1  1  0  0  0  0
 20 29  1  0  0  0  0
 21  4  2  0  0  0  0
 21 22  1  0  0  0  0
 22 13  1  0  0  0  0
 23 14  2  0  0  0  0
 26  9  1  0  0  0  0
 27  2  2  0  0  0  0
 28 23  1  0  0  0  0
 28  6  2  0  0  0  0
 30 31  1  0  0  0  0
 30 29  1  0  0  0  0
 32 30  2  0  0  0  0
M  END
>  <MODEL>
2

>  <REMARK>
 VINA RESULT:      -9.1      1.504      1.982
  Name = 
  2 active torsions:
  status: ('A' for Active; 'I' for Inactive)
    1  A    between atoms: C_20  and  O_29
    2  A    between atoms: O_29  and  C_30
                            x       y       z     vdW  Elec       q    Type
                         _______ _______ _______ _____ _____    ______ ____

>  <TORSDO>
F 2

$$$$
=
 OpenBabel11122412463D

 32 38  0  0  1  0  0  0  0  0999 V2000
  161.4940  201.7770  149.2030 C   0  0  1  0  0  3  0  0  0  0  0  0
  161.1000  206.2430  151.9800 C   0  0  0  0  0  0  0  0  0  0  0  0
  162.2410  209.6100  148.6680 C   0  0  0  0  0  3  0  0  0  0  0  0
  162.0600  210.6840  149.6640 C   0  0  0  0  0  3  0  0  0  0  0  0
  160.8990  206.8850  154.4030 C   0  0  0  0  0  0  0  0  0  0  0  0
  161.0580  208.0000  155.3250 C   0  0  0  0  0  0  0  0  0  0  0  0
  160.7240  203.8720  151.2310 C   0  0  1  0  0  3  0  0  0  0  0  0
  161.0670  205.6200  149.5230 C   0  0  0  0  0  2  0  0  0  0  0  0
  161.3920  210.1030  156.0560 C   0  0  0  0  0  0  0  0  0  0  0  0
  161.3510  203.2430  148.7890 C   0  0  2  0  0  3  0  0  0  0  0  0
  161.8310  208.3630  148.9180 C   0  0  0  0  0  3  0  0  0  0  0  0
  161.2490  206.6210  150.5840 N   0  0  0  0  0  0  0  0  0  0  0  0
  161.0680  208.0220  150.1780 C   0  0  1  0  0  3  0  0  0  0  0  0
  161.2560  208.6450  152.5710 C   0  0  0  0  0  0  0  0  0  0  0  0
  161.1970  209.3170  157.0700 N   0  0  0  0  0  0  0  0  0  0  0  0
  161.7540  201.5770  150.7110 C   0  0  0  0  0  2  0  0  0  0  0  0
  161.5000  204.2330  149.9620 C   0  0  2  0  0  3  0  0  0  0  0  0
  160.9860  207.9970  156.6150 N   0  0  0  0  0  2  0  0  0  0  0  0
  160.8720  202.4070  151.6530 C   0  0  0  0  0  2  0  0  0  0  0  0
  160.1190  202.3480  148.8740 C   0  0  1  0  0  3  0  0  0  0  0  0
  161.6570  210.4030  150.9060 C   0  0  0  0  0  3  0  0  0  0  0  0
  161.3570  209.0060  151.2870 C   0  0  0  0  0  0  0  0  0  0  0  0
  161.4050  209.6500  153.6030 N   0  0  0  0  0  2  0  0  0  0  0  0
  161.1690  204.7820  152.3590 C   0  0  0  0  0  2  0  0  0  0  0  0
  160.6140  205.7370  154.8380 O   0  0  0  0  0  0  0  0  0  0  0  0
  161.6400  211.5650  156.1640 C   0  0  0  0  0  1  0  0  0  0  0  0
  161.0560  207.1960  152.9420 C   0  0  0  0  0  0  0  0  0  0  0  0
  161.3180  209.3150  154.8500 C   0  0  0  0  0  0  0  0  0  0  0  0
  159.7420  201.9440  147.5670 O   0  0  0  0  0  0  0  0  0  0  0  0
  160.6780  201.7230  146.5550 C   0  0  0  0  0  0  0  0  0  0  0  0
  161.1200  202.8210  145.6450 C   0  0  0  0  0  1  0  0  0  0  0  0
  161.1630  200.5720  146.4050 O   0  0  0  0  0  0  0  0  0  0  0  0
  1 16  1  1  0  0  0
  2 24  1  0  0  0  0
  2 27  2  0  0  0  0
  3 11  2  0  0  0  0
  3  4  1  0  0  0  0
  4 21  2  0  0  0  0
  5 25  2  0  0  0  0
  5  6  1  0  0  0  0
  6 18  1  0  0  0  0
  7 19  1  1  0  0  0
  7 24  1  0  0  0  0
  8 17  1  0  0  0  0
  8 12  1  0  0  0  0
  9 26  1  0  0  0  0
  9 15  2  0  0  0  0
 10 20  1  0  0  0  0
 10  1  1  0  0  0  0
 10 17  1  0  0  0  0
 11 13  1  0  0  0  0
 12  2  1  0  0  0  0
 13 12  1  0  0  0  0
 13 22  1  0  0  0  0
 14 27  1  0  0  0  0
 14 23  1  0  0  0  0
 16 19  1  0  0  0  0
 17  7  1  0  0  0  0
 18 15  1  0  0  0  0
 20  1  1  0  0  0  0
 21 22  1  0  0  0  0
 22 14  2  0  0  0  0
 23 28  1  0  0  0  0
 27  5  1  0  0  0  0
 28  6  2  0  0  0  0
 28  9  1  0  0  0  0
 29 20  1  0  0  0  0
 30 29  1  0  0  0  0
 31 30  1  0  0  0  0
 32 30  2  0  0  0  0
M  END
>  <MODEL>
3

>  <REMARK>
 VINA RESULT:      -8.6      2.356      7.937
  Name = 
  2 active torsions:
  status: ('A' for Active; 'I' for Inactive)
    1  A    between atoms: C_20  and  O_29
    2  A    between atoms: O_29  and  C_30
                            x       y       z     vdW  Elec       q    Type
                         _______ _______ _______ _____ _____    ______ ____

>  <TORSDO>
F 2

$$$$
=
 OpenBabel11122412463D

 32 38  0  0  1  0  0  0  0  0999 V2000
  161.6470  210.0720  154.5850 C   0  0  1  0  0  3  0  0  0  0  0  0
  161.0910  206.8450  150.4510 C   0  0  0  0  0  0  0  0  0  0  0  0
  161.0980  202.4680  152.5610 C   0  0  0  0  0  3  0  0  0  0  0  0
  160.9400  201.8110  151.2500 C   0  0  0  0  0  3  0  0  0  0  0  0
  161.2340  207.0300  147.9470 C   0  0  0  0  0  0  0  0  0  0  0  0
  161.3870  206.2430  146.7320 C   0  0  0  0  0  0  0  0  0  0  0  0
  160.9480  208.8980  151.8970 C   0  0  1  0  0  3  0  0  0  0  0  0
  160.7110  206.6790  152.9520 C   0  0  0  0  0  2  0  0  0  0  0  0
  161.5270  204.4430  145.3870 C   0  0  0  0  0  0  0  0  0  0  0  0
  161.2130  208.6100  154.4650 C   0  0  2  0  0  3  0  0  0  0  0  0
  160.9330  203.7880  152.6940 C   0  0  0  0  0  3  0  0  0  0  0  0
  160.9280  206.0360  151.6480 N   0  0  0  0  0  0  0  0  0  0  0  0
  160.4690  204.6440  151.5370 C   0  0  1  0  0  3  0  0  0  0  0  0
  160.9870  204.7600  149.1150 C   0  0  0  0  0  0  0  0  0  0  0  0
  161.6380  205.5240  144.6780 N   0  0  0  0  0  0  0  0  0  0  0  0
  162.2000  210.6670  153.2740 C   0  0  0  0  0  2  0  0  0  0  0  0
  161.4200  208.0170  153.0560 C   0  0  2  0  0  3  0  0  0  0  0  0
  161.5500  206.6550  145.5180 N   0  0  0  0  0  0  0  0  0  0  0  0
  161.3880  210.3610  152.0090 C   0  0  0  0  0  2  0  0  0  0  0  0
  160.1660  209.7150  154.5350 C   0  0  1  0  0  3  0  0  0  0  0  0
  160.8140  202.5340  150.1340 C   0  0  0  0  0  3  0  0  0  0  0  0
  160.8010  204.0100  150.2080 C   0  0  0  0  0  0  0  0  0  0  0  0
  161.1670  204.1110  147.8330 N   0  0  0  0  0  0  0  0  0  0  0  0
  161.4460  208.3070  150.5930 C   0  0  0  0  0  2  0  0  0  0  0  0
  161.2090  208.2890  147.8890 O   0  0  0  0  0  0  0  0  0  0  0  0
  161.5670  203.0660  144.8290 C   0  0  0  0  0  1  0  0  0  0  0  0
  161.0780  206.2620  149.2270 C   0  0  0  0  0  0  0  0  0  0  0  0
  161.3560  204.8220  146.7680 C   0  0  0  0  0  0  0  0  0  0  0  0
  159.6240  209.7660  155.8460 O   0  0  0  0  0  0  0  0  0  0  0  0
  158.8100  210.8170  156.2760 C   0  0  0  0  0  0  0  0  0  0  0  0
  157.5200  211.1350  155.5970 C   0  0  0  0  0  1  0  0  0  0  0  0
  159.1710  211.5120  157.2610 O   0  0  0  0  0  0  0  0  0  0  0  0
  1 16  1  6  0  0  0
  2 24  1  0  0  0  0
  2 12  1  0  0  0  0
  3 11  2  0  0  0  0
  4  3  1  0  0  0  0
  5 27  1  0  0  0  0
  6 28  1  0  0  0  0
  6  5  1  0  0  0  0
  7 24  1  6  0  0  0
  7 19  1  0  0  0  0
  7 17  1  0  0  0  0
  8 17  1  0  0  0  0
  9 28  1  0  0  0  0
 10 20  1  0  0  0  0
 10  1  1  0  0  0  0
 12  8  1  0  0  0  0
 13 12  1  0  0  0  0
 13 11  1  0  0  0  0
 14 27  1  0  0  0  0
 14 22  2  0  0  0  0
 15  9  2  0  0  0  0
 15 18  1  0  0  0  0
 17 10  1  0  0  0  0
 18  6  2  0  0  0  0
 19 16  1  0  0  0  0
 20  1  1  0  0  0  0
 20 29  1  0  0  0  0
 21 22  1  0  0  0  0
 21  4  2  0  0  0  0
 22 13  1  0  0  0  0
 23 14  1  0  0  0  0
 25  5  2  0  0  0  0
 26  9  1  0  0  0  0
 27  2  2  0  0  0  0
 28 23  2  0  0  0  0
 29 30  1  0  0  0  0
 30 32  2  0  0  0  0
 31 30  1  0  0  0  0
M  END
>  <MODEL>
4

>  <REMARK>
 VINA RESULT:      -7.1      2.384      4.510
  Name = 
  2 active torsions:
  status: ('A' for Active; 'I' for Inactive)
    1  A    between atoms: C_20  and  O_29
    2  A    between atoms: O_29  and  C_30
                            x       y       z     vdW  Elec       q    Type
                         _______ _______ _______ _____ _____    ______ ____

>  <TORSDO>
F 2

$$$$
=
 OpenBabel11122412463D

 32 38  0  0  1  0  0  0  0  0999 V2000
  162.3490  212.8150  149.2150 C   0  0  1  0  0  3  0  0  0  0  0  0
  161.3580  207.6360  149.1600 C   0  0  0  0  0  0  0  0  0  0  0  0
  161.5180  206.5130  153.8840 C   0  0  0  0  0  3  0  0  0  0  0  0
  161.2250  205.0990  153.5810 C   0  0  0  0  0  3  0  0  0  0  0  0
  161.2600  205.8050  147.4380 C   0  0  0  0  0  0  0  0  0  0  0  0
  161.2850  204.3590  147.2810 C   0  0  0  0  0  0  0  0  0  0  0  0
  161.3800  210.0570  148.4780 C   0  0  1  0  0  3  0  0  0  0  0  0
  161.2210  209.4960  150.8770 C   0  0  0  0  0  2  0  0  0  0  0  0
  161.2720  202.1750  147.8290 C   0  0  0  0  0  0  0  0  0  0  0  0
  161.8890  211.8390  150.2990 C   0  0  2  0  0  3  0  0  0  0  0  0
  161.3820  207.4600  152.9500 C   0  0  0  0  0  3  0  0  0  0  0  0
  161.3020  208.0660  150.5470 N   0  0  0  0  0  0  0  0  0  0  0  0
  160.8180  207.1430  151.5830 C   0  0  1  0  0  3  0  0  0  0  0  0
  161.1000  205.3000  149.9480 C   0  0  0  0  0  0  0  0  0  0  0  0
  161.3260  202.2980  146.5370 N   0  0  0  0  0  0  0  0  0  0  0  0
  162.7800  212.1310  147.9020 C   0  0  0  0  0  2  0  0  0  0  0  0
  161.9510  210.3600  149.8650 C   0  0  2  0  0  3  0  0  0  0  0  0
  161.3330  203.6660  146.1900 N   0  0  0  0  0  0  0  0  0  0  0  0
  161.8460  211.0270  147.3890 C   0  0  0  0  0  2  0  0  0  0  0  0
  160.8670  212.6750  149.5380 C   0  0  1  0  0  3  0  0  0  0  0  0
  161.0000  204.7020  152.3260 C   0  0  0  0  0  3  0  0  0  0  0  0
  161.0120  205.6890  151.2250 C   0  0  0  0  0  0  0  0  0  0  0  0
  161.1470  203.8860  149.6390 N   0  0  0  0  0  0  0  0  0  0  0  0
  161.7420  208.6360  148.0940 C   0  0  0  0  0  2  0  0  0  0  0  0
  161.2430  206.5550  146.4250 O   0  0  0  0  0  0  0  0  0  0  0  0
  161.2420  200.8740  148.5460 C   0  0  0  0  0  1  0  0  0  0  0  0
  161.2190  206.3240  148.8470 C   0  0  0  0  0  0  0  0  0  0  0  0
  161.2410  203.4950  148.4090 C   0  0  0  0  0  0  0  0  0  0  0  0
  160.4550  213.7650  150.3490 O   0  0  0  0  0  0  0  0  0  0  0  0
  159.2660  213.7440  151.0800 C   0  0  0  0  0  0  0  0  0  0  0  0
  159.1830  213.0880  152.4180 C   0  0  0  0  0  1  0  0  0  0  0  0
  158.2380  214.2900  150.6020 O   0  0  0  0  0  0  0  0  0  0  0  0
  1 16  1  6  0  0  0
  1 20  1  0  0  0  0
  1 10  1  0  0  0  0
  2 12  1  0  0  0  0
  4  3  1  0  0  0  0
  5 27  1  0  0  0  0
  6  5  1  0  0  0  0
  6 28  1  0  0  0  0
  7 19  1  6  0  0  0
  7 17  1  0  0  0  0
  9 28  1  0  0  0  0
  9 26  1  0  0  0  0
 11  3  2  0  0  0  0
 12  8  1  0  0  0  0
 12 13  1  0  0  0  0
 13 11  1  0  0  0  0
 14 22  2  0  0  0  0
 15  9  2  0  0  0  0
 17 10  1  0  0  0  0
 17  8  1  0  0  0  0
 18 15  1  0  0  0  0
 18  6  2  0  0  0  0
 19 16  1  0  0  0  0
 20 10  1  0  0  0  0
 20 29  1  0  0  0  0
 21  4  2  0  0  0  0
 22 13  1  0  0  0  0
 22 21  1  0  0  0  0
 23 14  1  0  0  0  0
 24  7  1  0  0  0  0
 24  2  1  0  0  0  0
 25  5  2  0  0  0  0
 27  2  2  0  0  0  0
 27 14  1  0  0  0  0
 28 23  2  0  0  0  0
 29 30  1  0  0  0  0
 30 31  1  0  0  0  0
 32 30  2  0  0  0  0
M  END
>  <MODEL>
5

>  <REMARK>
 VINA RESULT:      -6.6      3.188      5.547
  Name = 
  2 active torsions:
  status: ('A' for Active; 'I' for Inactive)
    1  A    between atoms: C_20  and  O_29
    2  A    between atoms: O_29  and  C_30
                            x       y       z     vdW  Elec       q    Type
                         _______ _______ _______ _____ _____    ______ ____

>  <TORSDO>
F 2

$$$$
