=
 OpenBabel11122414153D

 34 42  0  0  1  0  0  0  0  0999 V2000
  160.9770  204.5010  151.5690 C   0  0  0  0  0  0  0  0  0  0  0  0
  160.7570  206.1640  153.4900 C   0  0  0  0  0  2  0  0  0  0  0  0
  160.5830  203.2580  145.1100 C   0  0  1  0  0  0  0  0  0  0  0  0
  160.9640  203.0800  149.6060 C   0  0  0  0  0  0  0  0  0  0  0  0
  161.4430  204.1650  147.3530 C   0  0  0  0  0  0  0  0  0  0  0  0
  160.8470  205.1920  145.0390 C   0  0  1  0  0  3  0  0  0  0  0  0
  160.2120  204.2850  144.1910 O   0  0  0  0  0  0  0  0  0  0  0  0
  161.2580  201.2420  146.1850 C   0  0  0  0  0  2  0  0  0  0  0  0
  161.5880  206.9320  151.3490 C   0  0  1  0  0  3  0  0  0  0  0  0
  162.3680  209.7550  150.7310 C   0  0  0  0  0  3  0  0  0  0  0  0
  161.8190  205.4180  148.0890 C   0  0  0  0  0  2  0  0  0  0  0  0
  160.9840  201.6930  147.6020 C   0  0  0  0  0  3  0  0  0  0  0  0
  160.8920  206.9590  149.9960 C   0  0  2  0  0  3  0  0  0  0  0  0
  161.0210  207.6580  153.5840 C   0  0  0  0  0  2  0  0  0  0  0  0
  161.1410  202.9250  148.1390 C   0  0  0  0  0  0  0  0  0  0  0  0
  160.5320  201.9700  145.1440 N   0  0  0  0  0  2  0  0  0  0  0  0
  162.0800  209.2840  151.9540 C   0  0  0  0  0  0  0  0  0  0  0  0
  160.9450  204.3690  150.1760 C   0  0  0  0  0  0  0  0  0  0  0  0
  161.0910  204.2440  146.0790 C   0  0  0  0  0  0  0  0  0  0  0  0
  160.8690  205.5850  149.2750 C   0  0  2  0  0  3  0  0  0  0  0  0
  160.8630  202.1020  151.7760 C   0  0  0  0  0  3  0  0  0  0  0  0
  161.9320  209.2400  149.4110 C   0  0  0  0  0  3  0  0  0  0  0  0
  160.9080  201.9870  150.4200 N   0  0  0  0  0  0  0  0  0  0  0  0
  161.3270  208.0860  149.0910 C   0  0  0  0  0  3  0  0  0  0  0  0
  161.1390  208.1360  152.1400 C   0  0  1  0  0  3  0  0  0  0  0  0
  160.9130  203.3610  152.3760 C   0  0  0  0  0  3  0  0  0  0  0  0
  161.1360  205.8020  152.1390 N   0  0  0  0  0  0  0  0  0  0  0  0
  162.6220  209.9000  153.0940 O   0  0  0  0  0  0  0  0  0  0  0  0
  161.8730  210.7270  153.9800 C   0  0  0  0  0  2  0  0  0  0  0  0
  162.1390  211.6210  157.1100 O   0  0  0  0  0  0  0  0  0  0  0  0
  160.4460  210.4300  155.9790 C   0  0  0  0  0  2  0  0  0  0  0  0
  161.7630  210.0790  155.3510 C   0  0  2  0  0  3  0  0  0  0  0  0
  160.8310  211.1390  157.2550 C   0  0  0  0  0  2  0  0  0  0  0  0
  162.7850  210.6890  156.2830 C   0  0  0  0  0  2  0  0  0  0  0  0
  1 27  1  0  0  0  0
  1 26  1  0  0  0  0
  2 14  1  0  0  0  0
  3  7  1  1  0  0  0
  3 16  1  0  0  0  0
  3 19  1  0  0  0  0
  4 18  1  0  0  0  0
  4 23  2  0  0  0  0
  5 11  1  0  0  0  0
  5 15  1  0  0  0  0
  6  7  1  1  0  0  0
  6  3  1  0  0  0  0
  6 19  1  0  0  0  0
  8 12  1  0  0  0  0
  9 27  1  1  0  0  0
  9 25  1  0  0  0  0
 10 17  2  0  0  0  0
 12 15  2  0  0  0  0
 13 24  1  6  0  0  0
 13  9  1  0  0  0  0
 15  4  1  0  0  0  0
 16  8  1  0  0  0  0
 17 25  1  0  0  0  0
 17 28  1  0  0  0  0
 18  1  2  0  0  0  0
 19  5  2  0  0  0  0
 20 11  1  6  0  0  0
 20 13  1  0  0  0  0
 20 18  1  0  0  0  0
 21 26  2  0  0  0  0
 22 10  1  0  0  0  0
 23 21  1  0  0  0  0
 24 22  2  0  0  0  0
 25 14  1  1  0  0  0
 27  2  1  0  0  0  0
 28 29  1  0  0  0  0
 30 33  1  0  0  0  0
 31 33  1  0  0  0  0
 32 29  1  6  0  0  0
 32 31  1  0  0  0  0
 32 34  1  0  0  0  0
 34 30  1  0  0  0  0
M  END
>  <MODEL>
1

>  <REMARK>
 VINA RESULT:     -10.8      0.000      0.000
  Name = 
  3 active torsions:
  status: ('A' for Active; 'I' for Inactive)
    1  A    between atoms: C_17  and  O_28
    2  A    between atoms: O_28  and  C_29
    3  A    between atoms: C_29  and  C_32
                            x       y       z     vdW  Elec       q    Type
                         _______ _______ _______ _____ _____    ______ ____

>  <TORSDO>
F 3

$$$$
=
 OpenBabel11122414153D

 34 42  0  0  1  0  0  0  0  0999 V2000
  161.0120  204.3890  151.4780 C   0  0  0  0  0  0  0  0  0  0  0  0
  160.7840  206.1820  153.2770 C   0  0  0  0  0  2  0  0  0  0  0  0
  160.5160  202.6640  145.1380 C   0  0  1  0  0  0  0  0  0  0  0  0
  160.9980  202.8280  149.6240 C   0  0  0  0  0  0  0  0  0  0  0  0
  161.3970  203.7570  147.2880 C   0  0  0  0  0  0  0  0  0  0  0  0
  160.7220  204.5940  144.9200 C   0  0  1  0  0  3  0  0  0  0  0  0
  160.0960  203.6100  144.1550 O   0  0  0  0  0  0  0  0  0  0  0  0
  161.2720  200.7520  146.3400 C   0  0  0  0  0  2  0  0  0  0  0  0
  161.5470  206.8130  151.0680 C   0  0  1  0  0  3  0  0  0  0  0  0
  162.2310  209.6030  150.2270 C   0  0  0  0  0  3  0  0  0  0  0  0
  161.7520  205.0710  147.9220 C   0  0  0  0  0  2  0  0  0  0  0  0
  161.0150  201.2990  147.7280 C   0  0  0  0  0  3  0  0  0  0  0  0
  160.8210  206.7210  149.7320 C   0  0  2  0  0  3  0  0  0  0  0  0
  161.0070  207.6850  153.2570 C   0  0  0  0  0  2  0  0  0  0  0  0
  161.1480  202.5700  148.1690 C   0  0  0  0  0  0  0  0  0  0  0  0
  160.5030  201.3820  145.2670 N   0  0  0  0  0  2  0  0  0  0  0  0
  161.9830  209.2160  151.4880 C   0  0  0  0  0  0  0  0  0  0  0  0
  160.9530  204.1540  150.1000 C   0  0  0  0  0  0  0  0  0  0  0  0
  161.0150  203.7330  146.0210 C   0  0  0  0  0  0  0  0  0  0  0  0
  160.8230  205.2980  149.1150 C   0  0  2  0  0  3  0  0  0  0  0  0
  160.9720  202.0090  151.8620 C   0  0  0  0  0  3  0  0  0  0  0  0
  161.7820  208.9810  148.9590 C   0  0  0  0  0  3  0  0  0  0  0  0
  160.9910  201.7970  150.5180 N   0  0  0  0  0  0  0  0  0  0  0  0
  161.2040  207.7900  148.7380 C   0  0  0  0  0  3  0  0  0  0  0  0
  161.0800  208.0590  151.7790 C   0  0  1  0  0  3  0  0  0  0  0  0
  160.9980  203.3100  152.3670 C   0  0  0  0  0  3  0  0  0  0  0  0
  161.1450  205.7320  151.9470 N   0  0  0  0  0  0  0  0  0  0  0  0
  162.5310  209.9290  152.5660 O   0  0  0  0  0  0  0  0  0  0  0  0
  161.7610  210.7200  153.4670 C   0  0  0  0  0  2  0  0  0  0  0  0
  159.0710  212.3800  154.2920 O   0  0  0  0  0  0  0  0  0  0  0  0
  160.2670  212.2810  152.2610 C   0  0  0  0  0  2  0  0  0  0  0  0
  160.3580  210.9370  152.9220 C   0  0  2  0  0  3  0  0  0  0  0  0
  159.1870  212.9940  153.0370 C   0  0  0  0  0  2  0  0  0  0  0  0
  159.3770  211.0280  154.0690 C   0  0  0  0  0  2  0  0  0  0  0  0
  1 27  1  0  0  0  0
  1 26  1  0  0  0  0
  3  7  1  1  0  0  0
  3 16  1  0  0  0  0
  3 19  1  0  0  0  0
  4 18  1  0  0  0  0
  4 23  2  0  0  0  0
  5 11  1  0  0  0  0
  5 15  1  0  0  0  0
  6  7  1  1  0  0  0
  6  3  1  0  0  0  0
  6 19  1  0  0  0  0
  8 12  1  0  0  0  0
  9 25  1  0  0  0  0
  9 27  1  1  0  0  0
 10 17  2  0  0  0  0
 12 15  2  0  0  0  0
 13 24  1  6  0  0  0
 13  9  1  0  0  0  0
 14  2  1  0  0  0  0
 15  4  1  0  0  0  0
 16  8  1  0  0  0  0
 17 25  1  0  0  0  0
 17 28  1  0  0  0  0
 18  1  2  0  0  0  0
 19  5  2  0  0  0  0
 20 11  1  6  0  0  0
 20 13  1  0  0  0  0
 20 18  1  0  0  0  0
 21 26  2  0  0  0  0
 22 10  1  0  0  0  0
 23 21  1  0  0  0  0
 24 22  2  0  0  0  0
 25 14  1  1  0  0  0
 27  2  1  0  0  0  0
 28 29  1  0  0  0  0
 31 32  1  0  0  0  0
 31 33  1  0  0  0  0
 32 29  1  1  0  0  0
 32 34  1  0  0  0  0
 33 30  1  0  0  0  0
 34 30  1  0  0  0  0
M  END
>  <MODEL>
2

>  <REMARK>
 VINA RESULT:     -10.8      1.255      1.624
  Name = 
  3 active torsions:
  status: ('A' for Active; 'I' for Inactive)
    1  A    between atoms: C_17  and  O_28
    2  A    between atoms: O_28  and  C_29
    3  A    between atoms: C_29  and  C_32
                            x       y       z     vdW  Elec       q    Type
                         _______ _______ _______ _____ _____    ______ ____

>  <TORSDO>
F 3

$$$$
=
 OpenBabel11122414153D

 34 42  0  0  1  0  0  0  0  0999 V2000
  161.7820  207.9890  149.9150 C   0  0  0  0  0  0  0  0  0  0  0  0
  162.2620  209.9560  151.4650 C   0  0  0  0  0  2  0  0  0  0  0  0
  161.2330  201.4770  149.0670 C   0  0  1  0  0  0  0  0  0  0  0  0
  161.5230  205.9600  148.6140 C   0  0  0  0  0  0  0  0  0  0  0  0
  160.7020  203.8740  149.8200 C   0  0  0  0  0  0  0  0  0  0  0  0
  160.9350  201.5650  150.9960 C   0  0  1  0  0  3  0  0  0  0  0  0
  161.4500  200.5780  150.1550 O   0  0  0  0  0  0  0  0  0  0  0  0
  160.7500  202.5110  146.9770 C   0  0  0  0  0  2  0  0  0  0  0  0
  161.1130  208.0120  152.3400 C   0  0  1  0  0  3  0  0  0  0  0  0
  160.2130  207.6920  155.1770 C   0  0  0  0  0  3  0  0  0  0  0  0
  160.4220  204.7330  151.0190 C   0  0  0  0  0  2  0  0  0  0  0  0
  161.2250  203.8990  147.3490 C   0  0  0  0  0  3  0  0  0  0  0  0
  161.6010  206.5750  152.4630 C   0  0  2  0  0  3  0  0  0  0  0  0
  161.9950  210.1810  152.9440 C   0  0  0  0  0  2  0  0  0  0  0  0
  161.1330  204.5280  148.5420 C   0  0  0  0  0  0  0  0  0  0  0  0
  161.3050  201.4230  147.7810 N   0  0  0  0  0  2  0  0  0  0  0  0
  160.6850  208.8280  154.6410 C   0  0  0  0  0  0  0  0  0  0  0  0
  161.6090  206.6000  149.8660 C   0  0  0  0  0  0  0  0  0  0  0  0
  160.8610  202.5700  149.9830 C   0  0  0  0  0  0  0  0  0  0  0  0
  161.5350  205.7750  151.1350 C   0  0  2  0  0  3  0  0  0  0  0  0
  161.9560  208.0260  147.5100 C   0  0  0  0  0  3  0  0  0  0  0  0
  160.4560  206.2930  154.7520 C   0  0  0  0  0  3  0  0  0  0  0  0
  161.7130  206.6880  147.4760 N   0  0  0  0  0  0  0  0  0  0  0  0
  161.0220  205.8160  153.6320 C   0  0  0  0  0  3  0  0  0  0  0  0
  161.6580  208.8020  153.5050 C   0  0  1  0  0  3  0  0  0  0  0  0
  161.9800  208.7050  148.7300 C   0  0  0  0  0  3  0  0  0  0  0  0
  161.6910  208.6550  151.1760 N   0  0  0  0  0  0  0  0  0  0  0  0
  160.3090  210.0700  155.1750 O   0  0  0  0  0  0  0  0  0  0  0  0
  159.0360  210.3280  155.7610 C   0  0  0  0  0  2  0  0  0  0  0  0
  159.5850  212.5570  153.4370 O   0  0  0  0  0  0  0  0  0  0  0  0
  157.5710  211.6570  154.2740 C   0  0  0  0  0  2  0  0  0  0  0  0
  158.5560  211.7270  155.4030 C   0  0  2  0  0  3  0  0  0  0  0  0
  158.2070  212.4890  153.1870 C   0  0  0  0  0  2  0  0  0  0  0  0
  159.7060  212.5260  154.8350 C   0  0  0  0  0  2  0  0  0  0  0  0
  1 27  1  0  0  0  0
  2 14  1  0  0  0  0
  3 16  1  6  0  0  0
  3 19  1  0  0  0  0
  3  7  1  0  0  0  0
  3  6  1  0  0  0  0
  4 18  2  0  0  0  0
  5 19  2  0  0  0  0
  5 11  1  0  0  0  0
  6 19  1  1  0  0  0
  7  6  1  0  0  0  0
  8 12  1  0  0  0  0
  8 16  1  0  0  0  0
  9 27  1  6  0  0  0
  9 13  1  0  0  0  0
  9 25  1  0  0  0  0
 12 15  2  0  0  0  0
 13 24  1  1  0  0  0
 15  4  1  0  0  0  0
 15  5  1  0  0  0  0
 17 28  1  0  0  0  0
 17 10  2  0  0  0  0
 18  1  1  0  0  0  0
 18 20  1  0  0  0  0
 20 11  1  6  0  0  0
 20 13  1  0  0  0  0
 21 26  1  0  0  0  0
 22 10  1  0  0  0  0
 23 21  2  0  0  0  0
 23  4  1  0  0  0  0
 24 22  2  0  0  0  0
 25 14  1  6  0  0  0
 25 17  1  0  0  0  0
 26  1  2  0  0  0  0
 27  2  1  0  0  0  0
 28 29  1  0  0  0  0
 30 34  1  0  0  0  0
 31 32  1  0  0  0  0
 32 29  1  6  0  0  0
 33 30  1  0  0  0  0
 33 31  1  0  0  0  0
 34 32  1  0  0  0  0
M  END
>  <MODEL>
3

>  <REMARK>
 VINA RESULT:     -10.6      2.348      4.190
  Name = 
  3 active torsions:
  status: ('A' for Active; 'I' for Inactive)
    1  A    between atoms: C_17  and  O_28
    2  A    between atoms: O_28  and  C_29
    3  A    between atoms: C_29  and  C_32
                            x       y       z     vdW  Elec       q    Type
                         _______ _______ _______ _____ _____    ______ ____

>  <TORSDO>
F 3

$$$$
=
 OpenBabel11122414153D

 34 42  0  0  1  0  0  0  0  0999 V2000
  161.5600  208.0200  150.0120 C   0  0  0  0  0  0  0  0  0  0  0  0
  161.0800  206.6530  147.9130 C   0  0  0  0  0  2  0  0  0  0  0  0
  160.7550  208.8710  156.4970 C   0  0  1  0  0  0  0  0  0  0  0  0
  161.7390  209.2290  152.1040 C   0  0  0  0  0  0  0  0  0  0  0  0
  161.5690  207.8940  154.2650 C   0  0  0  0  0  0  0  0  0  0  0  0
  160.3960  206.9540  156.3880 C   0  0  1  0  0  3  0  0  0  0  0  0
  159.9710  207.9550  157.2610 O   0  0  0  0  0  0  0  0  0  0  0  0
  162.1540  210.6330  155.7140 C   0  0  0  0  0  2  0  0  0  0  0  0
  161.3540  205.5130  150.0310 C   0  0  1  0  0  3  0  0  0  0  0  0
  161.1340  202.5530  150.4190 C   0  0  0  0  0  3  0  0  0  0  0  0
  161.6280  206.6410  153.4410 C   0  0  0  0  0  2  0  0  0  0  0  0
  161.9350  210.3940  154.2360 C   0  0  0  0  0  3  0  0  0  0  0  0
  160.5170  205.6160  151.2990 C   0  0  2  0  0  3  0  0  0  0  0  0
  160.8780  205.1640  147.6870 C   0  0  0  0  0  2  0  0  0  0  0  0
  161.7690  209.2180  153.5900 C   0  0  0  0  0  0  0  0  0  0  0  0
  161.1110  210.1060  156.5950 N   0  0  0  0  0  2  0  0  0  0  0  0
  161.1640  203.1750  149.2310 C   0  0  0  0  0  0  0  0  0  0  0  0
  161.3940  208.0580  151.4010 C   0  0  0  0  0  0  0  0  0  0  0  0
  161.0510  207.8440  155.4820 C   0  0  0  0  0  0  0  0  0  0  0  0
  160.8310  206.8710  152.1560 C   0  0  2  0  0  3  0  0  0  0  0  0
  162.2240  210.3380  150.0510 C   0  0  0  0  0  3  0  0  0  0  0  0
  160.7160  203.0870  151.7370 C   0  0  0  0  0  3  0  0  0  0  0  0
  162.1290  210.3370  151.4090 N   0  0  0  0  0  0  0  0  0  0  0  0
  160.4630  204.3490  152.1180 C   0  0  0  0  0  3  0  0  0  0  0  0
  160.6570  204.5740  149.0770 C   0  0  1  0  0  3  0  0  0  0  0  0
  161.9550  209.1740  149.3280 C   0  0  0  0  0  3  0  0  0  0  0  0
  161.3790  206.7800  149.3260 N   0  0  0  0  0  0  0  0  0  0  0  0
  161.6280  202.4990  148.0910 O   0  0  0  0  0  0  0  0  0  0  0  0
  160.8340  201.5950  147.3280 C   0  0  0  0  0  2  0  0  0  0  0  0
  159.1620  202.4600  144.6580 O   0  0  0  0  0  0  0  0  0  0  0  0
  161.2180  203.2360  145.5160 C   0  0  0  0  0  2  0  0  0  0  0  0
  161.0980  201.7760  145.8410 C   0  0  2  0  0  3  0  0  0  0  0  0
  160.1180  203.4750  144.5110 C   0  0  0  0  0  2  0  0  0  0  0  0
  159.8880  201.3260  145.0530 C   0  0  0  0  0  2  0  0  0  0  0  0
  1 18  1  0  0  0  0
  2 27  1  0  0  0  0
  3 19  1  6  0  0  0
  3 16  1  0  0  0  0
  3  7  1  0  0  0  0
  4 15  1  0  0  0  0
  5 19  2  0  0  0  0
  6 19  1  6  0  0  0
  6  3  1  0  0  0  0
  6  7  1  0  0  0  0
  8 16  1  0  0  0  0
  9 27  1  6  0  0  0
  9 13  1  0  0  0  0
 10 22  1  0  0  0  0
 11  5  1  0  0  0  0
 12  8  1  0  0  0  0
 13 24  1  1  0  0  0
 13 20  1  0  0  0  0
 14  2  1  0  0  0  0
 15 12  2  0  0  0  0
 15  5  1  0  0  0  0
 17 10  2  0  0  0  0
 18  4  2  0  0  0  0
 18 20  1  0  0  0  0
 20 11  1  1  0  0  0
 21 23  2  0  0  0  0
 22 24  2  0  0  0  0
 23  4  1  0  0  0  0
 25 14  1  6  0  0  0
 25 17  1  0  0  0  0
 25  9  1  0  0  0  0
 26  1  2  0  0  0  0
 26 21  1  0  0  0  0
 27  1  1  0  0  0  0
 28 17  1  0  0  0  0
 29 28  1  0  0  0  0
 30 34  1  0  0  0  0
 31 32  1  0  0  0  0
 32 29  1  1  0  0  0
 33 30  1  0  0  0  0
 33 31  1  0  0  0  0
 34 32  1  0  0  0  0
M  END
>  <MODEL>
4

>  <REMARK>
 VINA RESULT:     -10.1      2.141      9.416
  Name = 
  3 active torsions:
  status: ('A' for Active; 'I' for Inactive)
    1  A    between atoms: C_17  and  O_28
    2  A    between atoms: O_28  and  C_29
    3  A    between atoms: C_29  and  C_32
                            x       y       z     vdW  Elec       q    Type
                         _______ _______ _______ _____ _____    ______ ____

>  <TORSDO>
F 3

$$$$
=
 OpenBabel11122414153D

 34 42  0  0  1  0  0  0  0  0999 V2000
  161.7760  207.4490  149.2200 C   0  0  0  0  0  0  0  0  0  0  0  0
  162.3240  209.4770  150.6650 C   0  0  0  0  0  2  0  0  0  0  0  0
  161.2080  200.9080  148.6620 C   0  0  1  0  0  0  0  0  0  0  0  0
  161.4620  205.3690  148.0160 C   0  0  0  0  0  0  0  0  0  0  0  0
  160.7060  203.3320  149.3420 C   0  0  0  0  0  0  0  0  0  0  0  0
  161.0030  201.0730  150.5970 C   0  0  1  0  0  3  0  0  0  0  0  0
  161.4800  200.0540  149.7730 O   0  0  0  0  0  0  0  0  0  0  0  0
  160.6230  201.8570  146.5570 C   0  0  0  0  0  2  0  0  0  0  0  0
  161.2250  207.5690  151.6720 C   0  0  1  0  0  3  0  0  0  0  0  0
  160.4620  207.3620  154.5590 C   0  0  0  0  0  3  0  0  0  0  0  0
  160.4810  204.2390  150.5180 C   0  0  0  0  0  2  0  0  0  0  0  0
  161.1110  203.2590  146.8500 C   0  0  0  0  0  3  0  0  0  0  0  0
  161.7230  206.1390  151.8290 C   0  0  2  0  0  3  0  0  0  0  0  0
  162.1270  209.7610  152.1460 C   0  0  0  0  0  2  0  0  0  0  0  0
  161.0730  203.9350  148.0200 C   0  0  0  0  0  0  0  0  0  0  0  0
  161.2190  200.8020  147.3770 N   0  0  0  0  0  2  0  0  0  0  0  0
  160.9050  208.4760  153.9560 C   0  0  0  0  0  0  0  0  0  0  0  0
  161.6060  206.0590  149.2360 C   0  0  0  0  0  0  0  0  0  0  0  0
  160.8770  202.0360  149.5490 C   0  0  0  0  0  0  0  0  0  0  0  0
  161.5950  205.2860  150.5390 C   0  0  2  0  0  3  0  0  0  0  0  0
  161.8360  207.3900  146.8100 C   0  0  0  0  0  3  0  0  0  0  0  0
  160.6890  205.9470  154.1790 C   0  0  0  0  0  3  0  0  0  0  0  0
  161.5960  206.0510  146.8410 N   0  0  0  0  0  0  0  0  0  0  0  0
  161.2020  205.4260  153.0540 C   0  0  0  0  0  3  0  0  0  0  0  0
  161.8220  208.4050  152.7770 C   0  0  1  0  0  3  0  0  0  0  0  0
  161.9150  208.1170  148.0000 C   0  0  0  0  0  3  0  0  0  0  0  0
  161.7450  208.1650  150.4560 N   0  0  0  0  0  0  0  0  0  0  0  0
  160.5510  209.7390  154.4580 O   0  0  0  0  0  0  0  0  0  0  0  0
  159.7060  209.9330  155.5890 C   0  0  0  0  0  2  0  0  0  0  0  0
  162.7150  209.5110  156.7870 O   0  0  0  0  0  0  0  0  0  0  0  0
  161.4740  211.4740  156.3740 C   0  0  0  0  0  2  0  0  0  0  0  0
  160.5170  210.3960  156.7890 C   0  0  2  0  0  3  0  0  0  0  0  0
  162.8300  210.9060  156.7170 C   0  0  0  0  0  2  0  0  0  0  0  0
  161.4140  209.2730  157.2570 C   0  0  0  0  0  2  0  0  0  0  0  0
  1 18  1  0  0  0  0
  1 27  1  0  0  0  0
  2 14  1  0  0  0  0
  3 16  1  6  0  0  0
  3 19  1  0  0  0  0
  3  7  1  0  0  0  0
  3  6  1  0  0  0  0
  4 15  1  0  0  0  0
  4 18  2  0  0  0  0
  5 19  2  0  0  0  0
  5 11  1  0  0  0  0
  6 19  1  1  0  0  0
  7  6  1  0  0  0  0
  8 12  1  0  0  0  0
  8 16  1  0  0  0  0
  9 27  1  6  0  0  0
  9 13  1  0  0  0  0
  9 25  1  0  0  0  0
 12 15  2  0  0  0  0
 13 24  1  1  0  0  0
 15  5  1  0  0  0  0
 17 28  1  0  0  0  0
 17 10  2  0  0  0  0
 18 20  1  0  0  0  0
 20 11  1  1  0  0  0
 20 13  1  0  0  0  0
 21 23  2  0  0  0  0
 21 26  1  0  0  0  0
 22 10  1  0  0  0  0
 23  4  1  0  0  0  0
 24 22  2  0  0  0  0
 25 14  1  6  0  0  0
 25 17  1  0  0  0  0
 26  1  2  0  0  0  0
 27  2  1  0  0  0  0
 28 29  1  0  0  0  0
 30 34  1  0  0  0  0
 31 33  1  0  0  0  0
 31 32  1  0  0  0  0
 32 29  1  6  0  0  0
 32 34  1  0  0  0  0
 33 30  1  0  0  0  0
M  END
>  <MODEL>
5

>  <REMARK>
 VINA RESULT:      -9.8      1.955      3.765
  Name = 
  3 active torsions:
  status: ('A' for Active; 'I' for Inactive)
    1  A    between atoms: C_17  and  O_28
    2  A    between atoms: O_28  and  C_29
    3  A    between atoms: C_29  and  C_32
                            x       y       z     vdW  Elec       q    Type
                         _______ _______ _______ _____ _____    ______ ____

>  <TORSDO>
F 3

$$$$
