=
 OpenBabel11122414113D

 28 32  0  0  1  0  0  0  0  0999 V2000
  159.0060  213.2020  141.4300 C   0  0  0  0  0  0  0  0  0  0  0  0
  161.5440  214.4530  139.8130 O   0  0  0  0  0  0  0  0  0  0  0  0
  159.3390  209.1190  137.0110 O   0  0  0  0  0  0  0  0  0  0  0  0
  159.9280  212.3020  143.9220 C   0  0  0  0  0  3  0  0  0  0  0  0
  161.3600  210.4250  137.1470 C   0  0  1  0  0  3  0  0  0  0  0  0
  158.3400  213.6110  140.1630 C   0  0  0  0  0  2  0  0  0  0  0  0
  162.7670  214.0370  141.9030 O   0  0  0  0  0  0  0  0  0  0  0  0
  162.6190  213.6270  140.4650 S   0  0  0  0  0  0  0  0  0  0  0  0
  164.6990  212.8390  138.9050 C   0  0  0  0  0  0  0  0  0  0  0  0
  162.2590  211.9120  140.3890 N   0  0  2  0  0  0  0  0  0  0  0  0
  156.2780  210.7420  139.3560 O   0  0  0  0  0  0  0  0  0  0  0  0
  160.3880  211.9570  138.8420 C   0  0  1  0  0  3  0  0  0  0  0  0
  164.0880  211.7080  138.7200 N   0  0  0  0  0  0  0  0  0  0  0  0
  164.1020  213.8970  139.6450 N   0  0  0  0  0  2  0  0  0  0  0  0
  157.1300  211.6450  139.1520 C   0  0  0  0  0  0  0  0  0  0  0  0
  160.0470  212.2420  141.4860 C   0  0  0  0  0  0  0  0  0  0  0  0
  159.9720  210.0870  137.5140 C   0  0  0  0  0  0  0  0  0  0  0  0
  166.0740  213.0150  138.3730 C   0  0  0  0  0  1  0  0  0  0  0  0
  158.0570  211.5270  137.9920 C   0  0  0  0  0  2  0  0  0  0  0  0
  160.4840  211.8010  142.7460 C   0  0  0  0  0  3  0  0  0  0  0  0
  158.4540  213.6970  142.6190 C   0  0  0  0  0  3  0  0  0  0  0  0
  158.9160  213.2580  143.8590 C   0  0  0  0  0  3  0  0  0  0  0  0
  157.1500  212.7960  139.9930 N   0  0  0  0  0  2  0  0  0  0  0  0
  161.6690  211.6480  138.0420 C   0  0  1  0  0  3  0  0  0  0  0  0
  159.3660  211.0240  138.3840 N   0  0  0  0  0  0  0  0  0  0  0  0
  162.7160  211.3590  139.1150 C   0  0  2  0  0  3  0  0  0  0  0  0
  162.2810  209.2210  137.3280 C   0  0  0  0  0  1  0  0  0  0  0  0
  160.8120  211.6870  140.2950 C   0  0  2  0  0  3  0  0  0  0  0  0
  1 16  2  0  0  0  0
  1 21  1  0  0  0  0
  2  8  2  0  0  0  0
  3 17  2  0  0  0  0
  5 27  1  1  0  0  0
  5 17  1  0  0  0  0
  5 24  1  0  0  0  0
  6  1  1  0  0  0  0
  8  7  2  0  0  0  0
  9 14  1  0  0  0  0
 10  8  1  6  0  0  0
 12 25  1  6  0  0  0
 12 28  1  0  0  0  0
 13  9  2  0  0  0  0
 13 26  1  0  0  0  0
 14  8  1  0  0  0  0
 15 11  2  0  0  0  0
 15 23  1  0  0  0  0
 16 20  1  0  0  0  0
 17 25  1  0  0  0  0
 18  9  1  0  0  0  0
 19 25  1  0  0  0  0
 19 15  1  0  0  0  0
 20  4  2  0  0  0  0
 21 22  2  0  0  0  0
 22  4  1  0  0  0  0
 23  6  1  0  0  0  0
 24 12  1  0  0  0  0
 24 26  1  0  0  0  0
 26 10  1  0  0  0  0
 28 10  1  0  0  0  0
 28 16  1  0  0  0  0
M  END
>  <MODEL>
1

>  <REMARK>
 VINA RESULT:      -5.0      0.000      0.000
  Name = 
  0 active torsions:
  status: ('A' for Active; 'I' for Inactive)
                            x       y       z     vdW  Elec       q    Type
                         _______ _______ _______ _____ _____    ______ ____

>  <TORSDO>
F 0

$$$$
=
 OpenBabel11122414113D

 28 32  0  0  1  0  0  0  0  0999 V2000
  161.0230  209.2120  155.0910 C   0  0  0  0  0  0  0  0  0  0  0  0
  157.9010  210.1450  155.1540 O   0  0  0  0  0  0  0  0  0  0  0  0
  160.9690  212.4700  150.0220 O   0  0  0  0  0  0  0  0  0  0  0  0
  162.3350  210.4320  157.2490 C   0  0  0  0  0  3  0  0  0  0  0  0
  159.0470  212.9550  151.3920 C   0  0  1  0  0  3  0  0  0  0  0  0
  160.5020  208.4870  153.8990 C   0  0  0  0  0  2  0  0  0  0  0  0
  158.5280  211.2440  157.2610 O   0  0  0  0  0  0  0  0  0  0  0  0
  158.1060  211.4700  155.8370 S   0  0  0  0  0  0  0  0  0  0  0  0
  156.5230  213.5320  155.0480 C   0  0  0  0  0  0  0  0  0  0  0  0
  159.3200  212.4400  155.0240 N   0  0  2  0  0  0  0  0  0  0  0  0
  163.0440  209.1040  151.3890 O   0  0  0  0  0  0  0  0  0  0  0  0
  159.5900  211.1370  152.9940 C   0  0  1  0  0  3  0  0  0  0  0  0
  157.4750  213.9130  154.2510 N   0  0  0  0  0  0  0  0  0  0  0  0
  156.6270  212.3400  155.8170 N   0  0  0  0  0  2  0  0  0  0  0  0
  161.8820  209.0640  151.8690 C   0  0  0  0  0  0  0  0  0  0  0  0
  161.0150  210.6240  155.2060 C   0  0  0  0  0  0  0  0  0  0  0  0
  160.2710  212.2120  151.0400 C   0  0  0  0  0  0  0  0  0  0  0  0
  155.3170  214.3860  155.1970 C   0  0  0  0  0  1  0  0  0  0  0  0
  160.7900  209.8300  151.2060 C   0  0  0  0  0  2  0  0  0  0  0  0
  161.6860  211.2110  156.2910 C   0  0  0  0  0  3  0  0  0  0  0  0
  161.6780  208.4400  156.0590 C   0  0  0  0  0  3  0  0  0  0  0  0
  162.3230  209.0440  157.1370 C   0  0  0  0  0  3  0  0  0  0  0  0
  161.6160  208.2360  152.9990 N   0  0  0  0  0  2  0  0  0  0  0  0
  158.5930  212.2770  152.7060 C   0  0  1  0  0  3  0  0  0  0  0  0
  160.5220  211.0960  151.8730 N   0  0  0  0  0  0  0  0  0  0  0  0
  158.7110  213.1880  153.9250 C   0  0  2  0  0  3  0  0  0  0  0  0
  159.3240  214.4530  151.4800 C   0  0  0  0  0  1  0  0  0  0  0  0
  160.2680  211.5870  154.2980 C   0  0  2  0  0  3  0  0  0  0  0  0
  1 16  2  0  0  0  0
  1 21  1  0  0  0  0
  2  8  2  0  0  0  0
  3 17  2  0  0  0  0
  5 27  1  1  0  0  0
  5 24  1  0  0  0  0
  6  1  1  0  0  0  0
  8  7  2  0  0  0  0
  9 18  1  0  0  0  0
  9 14  1  0  0  0  0
 10  8  1  6  0  0  0
 11 15  2  0  0  0  0
 12 25  1  6  0  0  0
 12 28  1  0  0  0  0
 13  9  2  0  0  0  0
 14  8  1  0  0  0  0
 15 23  1  0  0  0  0
 16 20  1  0  0  0  0
 17  5  1  0  0  0  0
 17 25  1  0  0  0  0
 19 15  1  0  0  0  0
 19 25  1  0  0  0  0
 20  4  2  0  0  0  0
 21 22  2  0  0  0  0
 22  4  1  0  0  0  0
 23  6  1  0  0  0  0
 24 12  1  0  0  0  0
 24 26  1  0  0  0  0
 26 13  1  0  0  0  0
 26 10  1  0  0  0  0
 28 10  1  0  0  0  0
 28 16  1  0  0  0  0
M  END
>  <MODEL>
2

>  <REMARK>
 VINA RESULT:      -3.8     11.966     15.132
  Name = 
  0 active torsions:
  status: ('A' for Active; 'I' for Inactive)
                            x       y       z     vdW  Elec       q    Type
                         _______ _______ _______ _____ _____    ______ ____

>  <TORSDO>
F 0

$$$$
=
 OpenBabel11122414113D

 28 32  0  0  1  0  0  0  0  0999 V2000
  157.8770  213.4380  153.3700 C   0  0  0  0  0  0  0  0  0  0  0  0
  160.2830  212.7350  155.4540 O   0  0  0  0  0  0  0  0  0  0  0  0
  161.4250  210.3360  149.6140 O   0  0  0  0  0  0  0  0  0  0  0  0
  155.5800  212.0640  154.2060 C   0  0  0  0  0  3  0  0  0  0  0  0
  162.0420  209.9550  151.9120 C   0  0  1  0  0  3  0  0  0  0  0  0
  158.9880  214.2320  152.7760 C   0  0  0  0  0  2  0  0  0  0  0  0
  158.5300  211.5340  156.6890 O   0  0  0  0  0  0  0  0  0  0  0  0
  159.7850  211.3790  155.8770 S   0  0  0  0  0  0  0  0  0  0  0  0
  161.6520  209.4620  156.3470 C   0  0  0  0  0  0  0  0  0  0  0  0
  159.4570  210.3460  154.4990 N   0  0  2  0  0  0  0  0  0  0  0  0
  158.7150  213.5010  149.2360 O   0  0  0  0  0  0  0  0  0  0  0  0
  160.4620  211.6830  152.7400 C   0  0  1  0  0  3  0  0  0  0  0  0
  161.4680  209.0350  155.1350 N   0  0  0  0  0  0  0  0  0  0  0  0
  160.9880  210.6210  156.8380 N   0  0  0  0  0  2  0  0  0  0  0  0
  159.2870  213.6120  150.3500 C   0  0  0  0  0  0  0  0  0  0  0  0
  157.9140  212.0270  153.5000 C   0  0  0  0  0  0  0  0  0  0  0  0
  161.2820  210.6160  150.8360 C   0  0  0  0  0  0  0  0  0  0  0  0
  162.5370  208.6950  157.2600 C   0  0  0  0  0  1  0  0  0  0  0  0
  160.6030  212.9480  150.5660 C   0  0  0  0  0  2  0  0  0  0  0  0
  156.7480  211.3620  153.9110 C   0  0  0  0  0  3  0  0  0  0  0  0
  156.6980  214.1310  153.6680 C   0  0  0  0  0  3  0  0  0  0  0  0
  155.5560  213.4520  154.0920 C   0  0  0  0  0  3  0  0  0  0  0  0
  158.7010  214.4250  151.3640 N   0  0  0  0  0  2  0  0  0  0  0  0
  161.4910  210.6270  153.1920 C   0  0  1  0  0  3  0  0  0  0  0  0
  160.4710  211.6870  151.2820 N   0  0  0  0  0  0  0  0  0  0  0  0
  160.6830  209.6750  154.0710 C   0  0  2  0  0  3  0  0  0  0  0  0
  161.8860  208.4390  151.8400 C   0  0  0  0  0  1  0  0  0  0  0  0
  159.1390  211.1470  153.3110 C   0  0  2  0  0  3  0  0  0  0  0  0
  1 16  2  0  0  0  0
  1 21  1  0  0  0  0
  2  8  2  0  0  0  0
  3 17  2  0  0  0  0
  5 27  1  1  0  0  0
  5 24  1  0  0  0  0
  6  1  1  0  0  0  0
  8  7  2  0  0  0  0
  8 14  1  0  0  0  0
  9 14  1  0  0  0  0
  9 18  1  0  0  0  0
 10  8  1  1  0  0  0
 11 15  2  0  0  0  0
 12 25  1  6  0  0  0
 12 24  1  0  0  0  0
 12 28  1  0  0  0  0
 13  9  2  0  0  0  0
 15 19  1  0  0  0  0
 15 23  1  0  0  0  0
 16 20  1  0  0  0  0
 17 25  1  0  0  0  0
 17  5  1  0  0  0  0
 19 25  1  0  0  0  0
 20  4  2  0  0  0  0
 21 22  2  0  0  0  0
 22  4  1  0  0  0  0
 23  6  1  0  0  0  0
 24 26  1  0  0  0  0
 26 10  1  0  0  0  0
 26 13  1  0  0  0  0
 28 16  1  0  0  0  0
 28 10  1  0  0  0  0
M  END
>  <MODEL>
3

>  <REMARK>
 VINA RESULT:      -3.4     11.391     14.063
  Name = 
  0 active torsions:
  status: ('A' for Active; 'I' for Inactive)
                            x       y       z     vdW  Elec       q    Type
                         _______ _______ _______ _____ _____    ______ ____

>  <TORSDO>
F 0

$$$$
=
 OpenBabel11122414113D

 28 32  0  0  1  0  0  0  0  0999 V2000
  162.7440  211.2690  139.3660 C   0  0  0  0  0  0  0  0  0  0  0  0
  160.4340  212.1940  141.4720 O   0  0  0  0  0  0  0  0  0  0  0  0
  158.1270  208.1820  137.0280 O   0  0  0  0  0  0  0  0  0  0  0  0
  163.5130  213.5210  137.8820 C   0  0  0  0  0  3  0  0  0  0  0  0
  157.3560  209.8960  138.5370 C   0  0  1  0  0  3  0  0  0  0  0  0
  162.4640  209.9730  140.0440 C   0  0  0  0  0  2  0  0  0  0  0  0
  160.9040  214.4490  140.6160 O   0  0  0  0  0  0  0  0  0  0  0  0
  159.8870  213.3440  140.6700 S   0  0  0  0  0  0  0  0  0  0  0  0
  157.2070  213.7710  140.7790 C   0  0  0  0  0  0  0  0  0  0  0  0
  159.4750  212.8610  139.0350 N   0  0  2  0  0  0  0  0  0  0  0  0
  162.2660  207.6310  137.2850 O   0  0  0  0  0  0  0  0  0  0  0  0
  159.6650  210.4520  139.2630 C   0  0  1  0  0  3  0  0  0  0  0  0
  157.0880  213.0860  139.6820 N   0  0  0  0  0  0  0  0  0  0  0  0
  158.4620  213.9240  141.4300 N   0  0  0  0  0  2  0  0  0  0  0  0
  161.8880  208.2140  138.3330 C   0  0  0  0  0  0  0  0  0  0  0  0
  161.7710  211.9840  138.6250 C   0  0  0  0  0  0  0  0  0  0  0  0
  158.3910  209.0790  137.8740 C   0  0  0  0  0  0  0  0  0  0  0  0
  156.0130  214.4530  141.3410 C   0  0  0  0  0  1  0  0  0  0  0  0
  160.4600  208.1180  138.7470 C   0  0  0  0  0  2  0  0  0  0  0  0
  162.1830  213.1030  137.8830 C   0  0  0  0  0  3  0  0  0  0  0  0
  164.0770  211.6980  139.3560 C   0  0  0  0  0  3  0  0  0  0  0  0
  164.4610  212.8220  138.6260 C   0  0  0  0  0  3  0  0  0  0  0  0
  162.8420  208.8990  139.1410 N   0  0  0  0  0  2  0  0  0  0  0  0
  158.1840  210.8380  139.4430 C   0  0  1  0  0  3  0  0  0  0  0  0
  159.6980  209.2990  138.3700 N   0  0  0  0  0  0  0  0  0  0  0  0
  158.1260  212.2990  139.0030 C   0  0  2  0  0  3  0  0  0  0  0  0
  156.4610  210.5820  137.5090 C   0  0  0  0  0  1  0  0  0  0  0  0
  160.2760  211.7050  138.6160 C   0  0  2  0  0  3  0  0  0  0  0  0
  1  6  1  0  0  0  0
  3 17  2  0  0  0  0
  4 20  2  0  0  0  0
  4 22  1  0  0  0  0
  5 27  1  6  0  0  0
  5 24  1  0  0  0  0
  7  8  2  0  0  0  0
  8 14  1  0  0  0  0
  8  2  2  0  0  0  0
  9 18  1  0  0  0  0
  9 14  1  0  0  0  0
 10  8  1  1  0  0  0
 11 15  2  0  0  0  0
 12 25  1  6  0  0  0
 12 24  1  0  0  0  0
 13  9  2  0  0  0  0
 15 19  1  0  0  0  0
 15 23  1  0  0  0  0
 16  1  2  0  0  0  0
 17 25  1  0  0  0  0
 17  5  1  0  0  0  0
 20 16  1  0  0  0  0
 21  1  1  0  0  0  0
 22 21  2  0  0  0  0
 23  6  1  0  0  0  0
 25 19  1  0  0  0  0
 26 10  1  0  0  0  0
 26 24  1  0  0  0  0
 26 13  1  0  0  0  0
 28 16  1  0  0  0  0
 28 10  1  0  0  0  0
 28 12  1  0  0  0  0
M  END
>  <MODEL>
4

>  <REMARK>
 VINA RESULT:      -3.3      2.416      5.332
  Name = 
  0 active torsions:
  status: ('A' for Active; 'I' for Inactive)
                            x       y       z     vdW  Elec       q    Type
                         _______ _______ _______ _____ _____    ______ ____

>  <TORSDO>
F 0

$$$$
=
 OpenBabel11122414113D

 28 32  0  0  1  0  0  0  0  0999 V2000
  161.1070  208.3800  155.0880 C   0  0  0  0  0  0  0  0  0  0  0  0
  158.7300  210.2380  153.8560 O   0  0  0  0  0  0  0  0  0  0  0  0
  162.7900  208.2500  149.3030 O   0  0  0  0  0  0  0  0  0  0  0  0
  162.7040  209.9960  156.7320 C   0  0  0  0  0  3  0  0  0  0  0  0
  161.2130  210.0260  149.7140 C   0  0  1  0  0  3  0  0  0  0  0  0
  160.3850  207.3760  154.2590 C   0  0  0  0  0  2  0  0  0  0  0  0
  159.6640  211.9750  155.3210 O   0  0  0  0  0  0  0  0  0  0  0  0
  159.4670  211.5500  153.8940 S   0  0  0  0  0  0  0  0  0  0  0  0
  159.0140  213.2880  151.8560 C   0  0  0  0  0  0  0  0  0  0  0  0
  161.0280  211.4440  153.1030 N   0  0  2  0  0  0  0  0  0  0  0  0
  163.0680  205.6340  152.5560 O   0  0  0  0  0  0  0  0  0  0  0  0
  160.8000  209.2710  152.0430 C   0  0  1  0  0  3  0  0  0  0  0  0
  160.0790  212.8270  151.2720 N   0  0  0  0  0  0  0  0  0  0  0  0
  158.5340  212.7350  153.0750 N   0  0  0  0  0  2  0  0  0  0  0  0
  161.9870  206.2670  152.6590 C   0  0  0  0  0  0  0  0  0  0  0  0
  161.7230  209.5360  154.5470 C   0  0  0  0  0  0  0  0  0  0  0  0
  161.9960  208.8340  150.0900 C   0  0  0  0  0  0  0  0  0  0  0  0
  158.3090  214.4530  151.2630 C   0  0  0  0  0  1  0  0  0  0  0  0
  161.3890  206.8950  151.4480 C   0  0  0  0  0  2  0  0  0  0  0  0
  162.5250  210.3230  155.3880 C   0  0  0  0  0  3  0  0  0  0  0  0
  161.2960  208.0610  156.4390 C   0  0  0  0  0  3  0  0  0  0  0  0
  162.0820  208.8680  157.2610 C   0  0  0  0  0  3  0  0  0  0  0  0
  161.3170  206.3150  153.9170 N   0  0  0  0  0  2  0  0  0  0  0  0
  160.4340  210.3540  151.0090 C   0  0  1  0  0  3  0  0  0  0  0  0
  161.6770  208.3200  151.3690 N   0  0  0  0  0  0  0  0  0  0  0  0
  160.8780  211.6580  151.6650 C   0  0  2  0  0  3  0  0  0  0  0  0
  162.1240  211.1330  149.1900 C   0  0  0  0  0  1  0  0  0  0  0  0
  161.5350  210.0670  153.1350 C   0  0  2  0  0  3  0  0  0  0  0  0
  1 21  1  0  0  0  0
  2  8  2  0  0  0  0
  3 17  2  0  0  0  0
  4 22  1  0  0  0  0
  5 27  1  1  0  0  0
  5 17  1  0  0  0  0
  5 24  1  0  0  0  0
  6  1  1  0  0  0  0
  8  7  2  0  0  0  0
  9 14  1  0  0  0  0
 10 28  1  0  0  0  0
 10  8  1  1  0  0  0
 11 15  2  0  0  0  0
 12 25  1  6  0  0  0
 12 28  1  0  0  0  0
 13 26  1  0  0  0  0
 13  9  2  0  0  0  0
 14  8  1  0  0  0  0
 15 23  1  0  0  0  0
 16  1  2  0  0  0  0
 16 20  1  0  0  0  0
 17 25  1  0  0  0  0
 18  9  1  0  0  0  0
 19 15  1  0  0  0  0
 20  4  2  0  0  0  0
 21 22  2  0  0  0  0
 23  6  1  0  0  0  0
 24 26  1  0  0  0  0
 24 12  1  0  0  0  0
 25 19  1  0  0  0  0
 26 10  1  0  0  0  0
 28 16  1  0  0  0  0
M  END
>  <MODEL>
5

>  <REMARK>
 VINA RESULT:      -2.5     11.131     13.954
  Name = 
  0 active torsions:
  status: ('A' for Active; 'I' for Inactive)
                            x       y       z     vdW  Elec       q    Type
                         _______ _______ _______ _____ _____    ______ ____

>  <TORSDO>
F 0

$$$$
=
 OpenBabel11122414113D

 28 32  0  0  1  0  0  0  0  0999 V2000
  159.3390  213.6430  149.7620 C   0  0  0  0  0  0  0  0  0  0  0  0
  159.5740  214.3390  152.9370 O   0  0  0  0  0  0  0  0  0  0  0  0
  161.9500  208.5320  151.5980 O   0  0  0  0  0  0  0  0  0  0  0  0
  156.6180  213.4010  149.1280 C   0  0  0  0  0  3  0  0  0  0  0  0
  161.0310  209.7590  153.4570 C   0  0  1  0  0  3  0  0  0  0  0  0
  160.8190  213.7260  149.9090 C   0  0  0  0  0  2  0  0  0  0  0  0
  157.1210  214.4470  152.8440 O   0  0  0  0  0  0  0  0  0  0  0  0
  158.2960  213.6780  153.3780 S   0  0  0  0  0  0  0  0  0  0  0  0
  158.3080  212.4390  155.7950 C   0  0  0  0  0  0  0  0  0  0  0  0
  158.1970  212.0170  152.8250 N   0  0  2  0  0  0  0  0  0  0  0  0
  161.9880  210.8160  148.0930 O   0  0  0  0  0  0  0  0  0  0  0  0
  160.4730  211.7160  152.0330 C   0  0  1  0  0  3  0  0  0  0  0  0
  158.5520  211.3210  155.1820 N   0  0  0  0  0  0  0  0  0  0  0  0
  158.2360  213.6740  155.0930 N   0  0  0  0  0  2  0  0  0  0  0  0
  161.8880  211.6040  149.0670 C   0  0  0  0  0  0  0  0  0  0  0  0
  158.5410  212.6970  150.4530 C   0  0  0  0  0  0  0  0  0  0  0  0
  161.3990  209.5760  152.0400 C   0  0  0  0  0  0  0  0  0  0  0  0
  158.0490  212.4230  157.2580 C   0  0  0  0  0  1  0  0  0  0  0  0
  162.3230  211.1540  150.4190 C   0  0  0  0  0  2  0  0  0  0  0  0
  157.1840  212.5900  150.1110 C   0  0  0  0  0  3  0  0  0  0  0  0
  158.7590  214.4510  148.7760 C   0  0  0  0  0  3  0  0  0  0  0  0
  157.4050  214.3390  148.4650 C   0  0  0  0  0  3  0  0  0  0  0  0
  161.4240  212.9340  148.8510 N   0  0  0  0  0  2  0  0  0  0  0  0
  160.3840  211.1640  153.4700 C   0  0  1  0  0  3  0  0  0  0  0  0
  161.2010  210.7290  151.2440 N   0  0  0  0  0  0  0  0  0  0  0  0
  158.8860  211.1330  153.7640 C   0  0  2  0  0  3  0  0  0  0  0  0
  160.1450  208.6160  153.9430 C   0  0  0  0  0  1  0  0  0  0  0  0
  158.9980  211.8240  151.6100 C   0  0  2  0  0  3  0  0  0  0  0  0
  1  6  1  0  0  0  0
  1 16  1  0  0  0  0
  2  8  2  0  0  0  0
  3 17  2  0  0  0  0
  4 20  1  0  0  0  0
  5 24  1  0  0  0  0
  5 27  1  6  0  0  0
  7  8  2  0  0  0  0
  8 14  1  0  0  0  0
  9 18  1  0  0  0  0
 10  8  1  1  0  0  0
 10 26  1  0  0  0  0
 11 15  2  0  0  0  0
 12 25  1  6  0  0  0
 12 24  1  0  0  0  0
 13  9  2  0  0  0  0
 14  9  1  0  0  0  0
 15 19  1  0  0  0  0
 16 28  1  0  0  0  0
 17  5  1  0  0  0  0
 19 25  1  0  0  0  0
 20 16  2  0  0  0  0
 21  1  2  0  0  0  0
 22 21  1  0  0  0  0
 22  4  2  0  0  0  0
 23 15  1  0  0  0  0
 23  6  1  0  0  0  0
 24 26  1  0  0  0  0
 25 17  1  0  0  0  0
 26 13  1  0  0  0  0
 28 12  1  0  0  0  0
 28 10  1  0  0  0  0
M  END
>  <MODEL>
6

>  <REMARK>
 VINA RESULT:      -2.2      9.859     13.165
  Name = 
  0 active torsions:
  status: ('A' for Active; 'I' for Inactive)
                            x       y       z     vdW  Elec       q    Type
                         _______ _______ _______ _____ _____    ______ ____

>  <TORSDO>
F 0

$$$$
