=
 OpenBabel11122413383D

 37 42  0  0  1  0  0  0  0  0999 V2000
  159.2100  211.7670  155.7340 C   0  0  0  0  0  0  0  0  0  0  0  0
  158.5870  212.3590  151.6500 C   0  0  0  0  0  0  0  0  0  0  0  0
  160.7510  214.4530  151.0870 C   0  0  0  0  0  1  0  0  0  0  0  0
  157.6020  212.4260  153.8320 C   0  0  0  0  0  0  0  0  0  0  0  0
  159.9190  212.0460  151.0630 C   0  0  1  0  0  3  0  0  0  0  0  0
  158.5850  211.9970  152.9520 C   0  0  0  0  0  0  0  0  0  0  0  0
  160.5050  213.2100  150.2430 C   0  0  1  0  0  3  0  0  0  0  0  0
  156.5200  213.1410  153.2940 C   0  0  0  0  0  3  0  0  0  0  0  0
  159.8610  211.3820  153.3280 C   0  0  2  0  0  3  0  0  0  0  0  0
  159.0820  210.2870  156.0530 C   0  0  0  0  0  1  0  0  0  0  0  0
  157.5400  213.6060  149.7110 C   0  0  0  0  0  2  0  0  0  0  0  0
  156.4920  213.4370  151.9570 N   0  0  0  0  0  0  0  0  0  0  0  0
  160.3040  211.9790  154.6630 C   0  0  0  0  0  2  0  0  0  0  0  0
  157.5110  213.0800  151.1170 C   0  0  0  0  0  0  0  0  0  0  0  0
  160.7810  211.6990  152.2220 N   0  0  1  0  0  0  0  0  0  0  0  0
  157.8190  212.3160  155.3190 C   0  0  0  0  0  2  0  0  0  0  0  0
  159.6720  213.5760  148.9970 C   0  0  2  0  0  3  0  0  0  0  0  0
  159.6400  212.4820  156.9970 C   0  0  0  0  0  1  0  0  0  0  0  0
  158.4490  212.8810  148.9250 O   0  0  0  0  0  0  0  0  0  0  0  0
  160.8380  209.1790  152.0420 C   0  0  0  0  0  2  0  0  0  0  0  0
  161.7330  207.9400  151.9300 C   0  0  2  0  0  3  0  0  0  0  0  0
  161.8570  208.5060  149.3960 C   0  0  2  0  0  3  0  0  0  0  0  0
  162.5150  207.8330  150.6100 C   0  0  0  0  0  2  0  0  0  0  0  0
  161.9010  210.0100  149.4740 C   0  0  0  0  0  0  0  0  0  0  0  0
  161.5150  210.6700  148.5240 O   0  0  0  0  0  0  0  0  0  0  0  0
  162.4480  210.7160  150.6830 C   0  0  0  0  0  2  0  0  0  0  0  0
  160.5580  208.0610  149.2280 F   0  0  0  0  0  0  0  0  0  0  0  0
  161.6110  210.5140  151.9540 C   0  0  1  0  0  3  0  0  0  0  0  0
  161.2720  206.0250  153.3640 N   0  0  0  0  0  1  0  0  0  0  0  0
  160.9000  206.6850  152.1230 C   0  0  0  0  0  2  0  0  0  0  0  0
  161.8200  213.7190  147.6860 C   0  0  0  0  0  3  0  0  0  0  0  0
  160.4720  213.3400  147.7560 C   0  0  0  0  0  0  0  0  0  0  0  0
  159.8510  212.7790  146.6350 C   0  0  0  0  0  3  0  0  0  0  0  0
  159.9720  212.0370  144.3730 F   0  0  0  0  0  0  0  0  0  0  0  0
  161.9210  212.9560  145.3910 C   0  0  0  0  0  3  0  0  0  0  0  0
  160.5750  212.5840  145.4560 C   0  0  0  0  0  0  0  0  0  0  0  0
  162.5440  213.5240  146.5060 C   0  0  0  0  0  3  0  0  0  0  0  0
  1 10  1  0  0  0  0
  1 18  1  0  0  0  0
  2  6  1  0  0  0  0
  4 16  1  0  0  0  0
  5  2  1  1  0  0  0
  5 15  1  0  0  0  0
  6  9  1  0  0  0  0
  6  4  2  0  0  0  0
  7  5  1  0  0  0  0
  7  3  1  1  0  0  0
  8  4  1  0  0  0  0
  9 13  1  1  0  0  0
 11 14  1  0  0  0  0
 12  8  2  0  0  0  0
 13  1  1  0  0  0  0
 14  2  2  0  0  0  0
 14 12  1  0  0  0  0
 15 28  1  6  0  0  0
 15  9  1  0  0  0  0
 16  1  1  0  0  0  0
 17 32  1  6  0  0  0
 17  7  1  0  0  0  0
 19 17  1  0  0  0  0
 19 11  1  0  0  0  0
 21 20  1  0  0  0  0
 21 30  1  6  0  0  0
 22 27  1  1  0  0  0
 22 24  1  0  0  0  0
 22 23  1  0  0  0  0
 23 21  1  0  0  0  0
 24 26  1  0  0  0  0
 25 24  2  0  0  0  0
 28 26  1  6  0  0  0
 28 20  1  0  0  0  0
 30 29  1  0  0  0  0
 31 32  1  0  0  0  0
 33 32  2  0  0  0  0
 34 36  1  0  0  0  0
 35 36  2  0  0  0  0
 35 37  1  0  0  0  0
 36 33  1  0  0  0  0
 37 31  2  0  0  0  0
M  END
>  <MODEL>
1

>  <REMARK>
 VINA RESULT:      -4.5      0.000      0.000
  Name = 
  3 active torsions:
  status: ('A' for Active; 'I' for Inactive)
    1  A    between atoms: C_4  and  C_37
    2  A    between atoms: N_21  and  C_27
    3  A    between atoms: C_23  and  C_30
                            x       y       z     vdW  Elec       q    Type
                         _______ _______ _______ _____ _____    ______ ____

>  <TORSDO>
F 3

$$$$
=
 OpenBabel11122413383D

 37 42  0  0  1  0  0  0  0  0999 V2000
  161.7840  210.6500  155.9010 C   0  0  0  0  0  0  0  0  0  0  0  0
  159.2280  212.3640  153.0820 C   0  0  0  0  0  0  0  0  0  0  0  0
  161.2870  213.3660  151.0470 C   0  0  0  0  0  1  0  0  0  0  0  0
  159.9300  212.3580  155.3720 C   0  0  0  0  0  0  0  0  0  0  0  0
  159.5840  211.6420  151.8300 C   0  0  1  0  0  3  0  0  0  0  0  0
  159.8310  211.7550  154.1270 C   0  0  0  0  0  0  0  0  0  0  0  0
  160.0290  212.5840  150.6960 C   0  0  1  0  0  3  0  0  0  0  0  0
  159.2560  213.5760  155.5560 C   0  0  0  0  0  3  0  0  0  0  0  0
  160.5820  210.5760  153.6850 C   0  0  2  0  0  3  0  0  0  0  0  0
  161.1830  209.3460  156.3980 C   0  0  0  0  0  1  0  0  0  0  0  0
  157.9940  214.3470  152.1050 C   0  0  0  0  0  2  0  0  0  0  0  0
  158.5810  214.1500  154.5100 N   0  0  0  0  0  0  0  0  0  0  0  0
  161.9500  210.5990  154.3650 C   0  0  0  0  0  2  0  0  0  0  0  0
  158.5630  213.5830  153.2650 C   0  0  0  0  0  0  0  0  0  0  0  0
  160.6640  210.7000  152.2200 N   0  0  1  0  0  0  0  0  0  0  0  0
  160.9050  211.8300  156.3930 C   0  0  0  0  0  2  0  0  0  0  0  0
  158.9240  213.5500  150.2190 C   0  0  2  0  0  3  0  0  0  0  0  0
  163.1580  210.7970  156.5200 C   0  0  0  0  0  1  0  0  0  0  0  0
  157.7620  213.4970  151.0130 O   0  0  0  0  0  0  0  0  0  0  0  0
  161.5400  208.9870  150.5830 C   0  0  0  0  0  2  0  0  0  0  0  0
  161.2450  207.6740  149.8470 C   0  0  2  0  0  3  0  0  0  0  0  0
  161.9820  206.5080  152.0510 C   0  0  2  0  0  3  0  0  0  0  0  0
  161.1560  206.4370  150.7580 C   0  0  0  0  0  2  0  0  0  0  0  0
  161.4050  207.4730  153.0530 C   0  0  0  0  0  0  0  0  0  0  0  0
  161.8970  207.5440  154.1670 O   0  0  0  0  0  0  0  0  0  0  0  0
  160.2090  208.3230  152.7250 C   0  0  0  0  0  2  0  0  0  0  0  0
  163.3030  206.8160  151.7770 F   0  0  0  0  0  0  0  0  0  0  0  0
  160.4690  209.3660  151.6290 C   0  0  1  0  0  3  0  0  0  0  0  0
  161.8450  206.4080  147.8550 N   0  0  0  0  0  1  0  0  0  0  0  0
  162.2960  207.4360  148.7790 C   0  0  0  0  0  2  0  0  0  0  0  0
  157.2600  213.0310  148.3980 C   0  0  0  0  0  3  0  0  0  0  0  0
  158.5840  213.2760  148.7890 C   0  0  0  0  0  0  0  0  0  0  0  0
  159.6100  213.2160  147.8400 C   0  0  0  0  0  3  0  0  0  0  0  0
  160.3090  212.8710  145.5870 F   0  0  0  0  0  0  0  0  0  0  0  0
  157.9920  212.6890  146.1160 C   0  0  0  0  0  3  0  0  0  0  0  0
  159.3140  212.9260  146.5050 C   0  0  0  0  0  0  0  0  0  0  0  0
  156.9650  212.7410  147.0620 C   0  0  0  0  0  3  0  0  0  0  0  0
  1 16  1  0  0  0  0
  1 10  1  0  0  0  0
  1 18  1  0  0  0  0
  2 14  2  0  0  0  0
  2  6  1  0  0  0  0
  4  8  1  0  0  0  0
  4 16  1  0  0  0  0
  5 15  1  0  0  0  0
  5  2  1  1  0  0  0
  6  4  2  0  0  0  0
  7  3  1  1  0  0  0
  7  5  1  0  0  0  0
  9  6  1  0  0  0  0
  9 13  1  1  0  0  0
 11 14  1  0  0  0  0
 12  8  2  0  0  0  0
 13  1  1  0  0  0  0
 14 12  1  0  0  0  0
 15 28  1  6  0  0  0
 15  9  1  0  0  0  0
 17 32  1  6  0  0  0
 17  7  1  0  0  0  0
 17 19  1  0  0  0  0
 19 11  1  0  0  0  0
 21 30  1  6  0  0  0
 21 20  1  0  0  0  0
 21 23  1  0  0  0  0
 22 27  1  6  0  0  0
 22 24  1  0  0  0  0
 23 22  1  0  0  0  0
 24 25  2  0  0  0  0
 26 24  1  0  0  0  0
 28 20  1  1  0  0  0
 28 26  1  0  0  0  0
 29 30  1  0  0  0  0
 31 32  1  0  0  0  0
 33 32  2  0  0  0  0
 34 36  1  0  0  0  0
 35 36  2  0  0  0  0
 35 37  1  0  0  0  0
 36 33  1  0  0  0  0
 37 31  2  0  0  0  0
M  END
>  <MODEL>
2

>  <REMARK>
 VINA RESULT:      -4.4      2.227      3.073
  Name = 
  3 active torsions:
  status: ('A' for Active; 'I' for Inactive)
    1  A    between atoms: C_4  and  C_37
    2  A    between atoms: N_21  and  C_27
    3  A    between atoms: C_23  and  C_30
                            x       y       z     vdW  Elec       q    Type
                         _______ _______ _______ _____ _____    ______ ____

>  <TORSDO>
F 3

$$$$
=
 OpenBabel11122413383D

 37 42  0  0  1  0  0  0  0  0999 V2000
  160.7830  208.6710  156.3550 C   0  0  0  0  0  0  0  0  0  0  0  0
  158.7720  211.1080  153.6290 C   0  0  0  0  0  0  0  0  0  0  0  0
  161.1500  212.5960  152.4000 C   0  0  0  0  0  1  0  0  0  0  0  0
  158.9990  210.4790  155.9290 C   0  0  0  0  0  0  0  0  0  0  0  0
  159.4030  210.7450  152.3310 C   0  0  1  0  0  3  0  0  0  0  0  0
  159.1790  210.2330  154.5760 C   0  0  0  0  0  0  0  0  0  0  0  0
  160.0240  211.9520  151.6040 C   0  0  1  0  0  3  0  0  0  0  0  0
  158.2480  211.6110  156.2860 C   0  0  0  0  0  3  0  0  0  0  0  0
  160.0540  209.2080  154.0010 C   0  0  2  0  0  3  0  0  0  0  0  0
  160.1530  207.2880  156.3530 C   0  0  0  0  0  1  0  0  0  0  0  0
  157.6730  213.2950  152.9810 C   0  0  0  0  0  2  0  0  0  0  0  0
  157.7730  212.4520  155.3150 N   0  0  0  0  0  0  0  0  0  0  0  0
  161.2560  209.0320  154.9280 C   0  0  0  0  0  2  0  0  0  0  0  0
  158.0300  212.2410  153.9880 C   0  0  0  0  0  0  0  0  0  0  0  0
  160.4230  209.7200  152.6690 N   0  0  1  0  0  0  0  0  0  0  0  0
  159.7720  209.6850  156.9500 C   0  0  0  0  0  2  0  0  0  0  0  0
  158.9960  213.0230  151.1840 C   0  0  2  0  0  3  0  0  0  0  0  0
  161.9970  208.6300  157.2580 C   0  0  0  0  0  1  0  0  0  0  0  0
  157.7020  212.7720  151.6790 O   0  0  0  0  0  0  0  0  0  0  0  0
  161.3880  208.7700  150.5370 C   0  0  0  0  0  2  0  0  0  0  0  0
  161.2540  207.6850  149.4620 C   0  0  2  0  0  3  0  0  0  0  0  0
  162.4800  206.1400  151.1560 C   0  0  2  0  0  3  0  0  0  0  0  0
  161.5210  206.2540  149.9620 C   0  0  0  0  0  2  0  0  0  0  0  0
  161.8660  206.6350  152.4400 C   0  0  0  0  0  0  0  0  0  0  0  0
  162.4760  206.4970  153.4870 O   0  0  0  0  0  0  0  0  0  0  0  0
  160.4980  207.2580  152.4660 C   0  0  0  0  0  2  0  0  0  0  0  0
  163.6710  206.7950  150.8990 F   0  0  0  0  0  0  0  0  0  0  0  0
  160.4100  208.5970  151.7200 C   0  0  1  0  0  3  0  0  0  0  0  0
  162.1100  206.9340  147.3090 N   0  0  0  0  0  1  0  0  0  0  0  0
  162.1840  207.9920  148.3020 C   0  0  0  0  0  2  0  0  0  0  0  0
  157.7430  213.2030  149.0030 C   0  0  0  0  0  3  0  0  0  0  0  0
  158.9630  213.1470  149.6940 C   0  0  0  0  0  0  0  0  0  0  0  0
  160.1650  213.1590  148.9790 C   0  0  0  0  0  3  0  0  0  0  0  0
  161.3180  213.2530  146.8950 F   0  0  0  0  0  0  0  0  0  0  0  0
  158.9350  213.3010  146.8980 C   0  0  0  0  0  3  0  0  0  0  0  0
  160.1510  213.2390  147.5840 C   0  0  0  0  0  0  0  0  0  0  0  0
  157.7300  213.2820  147.6080 C   0  0  0  0  0  3  0  0  0  0  0  0
  1 16  1  0  0  0  0
  1 18  1  0  0  0  0
  2 14  2  0  0  0  0
  2  6  1  0  0  0  0
  4  8  1  0  0  0  0
  4 16  1  0  0  0  0
  5 15  1  0  0  0  0
  5  2  1  1  0  0  0
  6  4  2  0  0  0  0
  7  5  1  0  0  0  0
  7  3  1  1  0  0  0
  9  6  1  0  0  0  0
  9 13  1  1  0  0  0
 10  1  1  0  0  0  0
 11 14  1  0  0  0  0
 12  8  2  0  0  0  0
 13  1  1  0  0  0  0
 14 12  1  0  0  0  0
 15 28  1  6  0  0  0
 15  9  1  0  0  0  0
 17 32  1  6  0  0  0
 17  7  1  0  0  0  0
 17 19  1  0  0  0  0
 19 11  1  0  0  0  0
 21 30  1  6  0  0  0
 21 23  1  0  0  0  0
 21 20  1  0  0  0  0
 22 27  1  6  0  0  0
 22 24  1  0  0  0  0
 23 22  1  0  0  0  0
 24 26  1  0  0  0  0
 24 25  2  0  0  0  0
 28 20  1  6  0  0  0
 28 26  1  0  0  0  0
 29 30  1  0  0  0  0
 31 32  1  0  0  0  0
 33 32  2  0  0  0  0
 34 36  1  0  0  0  0
 35 36  2  0  0  0  0
 35 37  1  0  0  0  0
 36 33  1  0  0  0  0
 37 31  2  0  0  0  0
M  END
>  <MODEL>
3

>  <REMARK>
 VINA RESULT:      -3.1      2.371      3.419
  Name = 
  3 active torsions:
  status: ('A' for Active; 'I' for Inactive)
    1  A    between atoms: C_4  and  C_37
    2  A    between atoms: N_21  and  C_27
    3  A    between atoms: C_23  and  C_30
                            x       y       z     vdW  Elec       q    Type
                         _______ _______ _______ _____ _____    ______ ____

>  <TORSDO>
F 3

$$$$
=
 OpenBabel11122413383D

 37 42  0  0  1  0  0  0  0  0999 V2000
  162.1550  205.1850  146.5920 C   0  0  0  0  0  0  0  0  0  0  0  0
  160.7870  205.1170  150.5340 C   0  0  0  0  0  0  0  0  0  0  0  0
  163.3480  205.9500  151.9940 C   0  0  0  0  0  1  0  0  0  0  0  0
  161.0870  203.8540  148.5220 C   0  0  0  0  0  0  0  0  0  0  0  0
  161.0660  206.5010  151.0060 C   0  0  1  0  0  3  0  0  0  0  0  0
  160.9820  205.0600  149.1980 C   0  0  0  0  0  0  0  0  0  0  0  0
  161.9700  206.5420  152.2530 C   0  0  1  0  0  3  0  0  0  0  0  0
  160.8410  202.6800  149.2520 C   0  0  0  0  0  3  0  0  0  0  0  0
  161.3510  206.3750  148.6660 C   0  0  2  0  0  3  0  0  0  0  0  0
  161.0820  205.7830  145.6980 C   0  0  0  0  0  1  0  0  0  0  0  0
  160.4560  203.9570  152.7610 C   0  0  0  0  0  2  0  0  0  0  0  0
  160.5670  202.7520  150.5920 N   0  0  0  0  0  0  0  0  0  0  0  0
  162.5270  206.1890  147.7070 C   0  0  0  0  0  2  0  0  0  0  0  0
  160.5510  203.9440  151.2620 C   0  0  0  0  0  0  0  0  0  0  0  0
  161.6930  207.1860  149.8470 N   0  0  1  0  0  0  0  0  0  0  0  0
  161.6590  203.8160  147.1280 C   0  0  0  0  0  2  0  0  0  0  0  0
  161.3400  205.8880  153.5000 C   0  0  2  0  0  3  0  0  0  0  0  0
  163.3860  204.9420  145.7460 C   0  0  0  0  0  1  0  0  0  0  0  0
  160.1210  205.2370  153.2290 O   0  0  0  0  0  0  0  0  0  0  0  0
  161.3890  209.4830  150.8540 C   0  0  0  0  0  2  0  0  0  0  0  0
  160.6840  210.8370  150.7210 C   0  0  2  0  0  3  0  0  0  0  0  0
  162.5530  211.4160  149.0110 C   0  0  2  0  0  3  0  0  0  0  0  0
  161.1210  211.6690  149.5030 C   0  0  0  0  0  2  0  0  0  0  0  0
  162.7060  210.0760  148.3390 C   0  0  0  0  0  0  0  0  0  0  0  0
  163.7630  209.7940  147.8000 O   0  0  0  0  0  0  0  0  0  0  0  0
  161.5690  209.0940  148.2820 C   0  0  0  0  0  2  0  0  0  0  0  0
  163.4630  211.5530  150.0440 F   0  0  0  0  0  0  0  0  0  0  0  0
  161.1550  208.5410  149.6520 C   0  0  1  0  0  3  0  0  0  0  0  0
  159.7390  211.5210  152.8600 N   0  0  0  0  0  1  0  0  0  0  0  0
  160.8930  211.6520  151.9860 C   0  0  0  0  0  2  0  0  0  0  0  0
  160.5070  206.5780  155.7770 C   0  0  0  0  0  3  0  0  0  0  0  0
  161.1520  206.9080  154.5760 C   0  0  0  0  0  0  0  0  0  0  0  0
  161.5810  208.2220  154.3590 C   0  0  0  0  0  3  0  0  0  0  0  0
  161.8010  210.4680  155.1270 F   0  0  0  0  0  0  0  0  0  0  0  0
  160.7440  208.8640  156.5390 C   0  0  0  0  0  3  0  0  0  0  0  0
  161.3810  209.1970  155.3400 C   0  0  0  0  0  0  0  0  0  0  0  0
  160.3070  207.5540  156.7580 C   0  0  0  0  0  3  0  0  0  0  0  0
  1 16  1  0  0  0  0
  1 13  1  0  0  0  0
  2 14  1  0  0  0  0
  4  6  1  0  0  0  0
  4  8  2  0  0  0  0
  5  2  1  6  0  0  0
  5  7  1  0  0  0  0
  6  2  2  0  0  0  0
  7  3  1  6  0  0  0
  7 17  1  0  0  0  0
  8 12  1  0  0  0  0
  9 13  1  6  0  0  0
  9  6  1  0  0  0  0
  9 15  1  0  0  0  0
 10  1  1  0  0  0  0
 11 19  1  0  0  0  0
 12 14  2  0  0  0  0
 14 11  1  0  0  0  0
 15 28  1  6  0  0  0
 15  5  1  0  0  0  0
 16  4  1  0  0  0  0
 17 32  1  1  0  0  0
 18  1  1  0  0  0  0
 19 17  1  0  0  0  0
 21 20  1  0  0  0  0
 21 30  1  1  0  0  0
 22 23  1  0  0  0  0
 22 27  1  1  0  0  0
 23 21  1  0  0  0  0
 24 22  1  0  0  0  0
 25 24  2  0  0  0  0
 26 24  1  0  0  0  0
 28 26  1  6  0  0  0
 28 20  1  0  0  0  0
 30 29  1  0  0  0  0
 31 37  1  0  0  0  0
 32 31  2  0  0  0  0
 33 32  1  0  0  0  0
 33 36  2  0  0  0  0
 34 36  1  0  0  0  0
 35 37  2  0  0  0  0
 36 35  1  0  0  0  0
M  END
>  <MODEL>
4

>  <REMARK>
 VINA RESULT:      -2.9      3.370      8.671
  Name = 
  3 active torsions:
  status: ('A' for Active; 'I' for Inactive)
    1  A    between atoms: C_4  and  C_37
    2  A    between atoms: N_21  and  C_27
    3  A    between atoms: C_23  and  C_30
                            x       y       z     vdW  Elec       q    Type
                         _______ _______ _______ _____ _____    ______ ____

>  <TORSDO>
F 3

$$$$
=
 OpenBabel11122413383D

 37 42  0  0  1  0  0  0  0  0999 V2000
  161.9990  207.7670  149.4390 C   0  0  0  0  0  0  0  0  0  0  0  0
  161.0100  211.3630  151.3110 C   0  0  0  0  0  0  0  0  0  0  0  0
  158.1660  210.7070  152.2410 C   0  0  0  0  0  1  0  0  0  0  0  0
  161.7170  210.3230  149.2730 C   0  0  0  0  0  0  0  0  0  0  0  0
  160.6620  210.9320  152.6940 C   0  0  1  0  0  3  0  0  0  0  0  0
  161.5620  210.3200  150.6520 C   0  0  0  0  0  0  0  0  0  0  0  0
  159.2380  211.3440  153.1130 C   0  0  1  0  0  3  0  0  0  0  0  0
  161.4100  211.5100  148.5900 C   0  0  0  0  0  3  0  0  0  0  0  0
  161.6730  209.1470  151.5240 C   0  0  2  0  0  3  0  0  0  0  0  0
  163.4390  207.4090  149.7660 C   0  0  0  0  0  1  0  0  0  0  0  0
  159.9680  213.6710  151.3010 C   0  0  0  0  0  2  0  0  0  0  0  0
  160.9230  212.5900  149.2790 N   0  0  0  0  0  0  0  0  0  0  0  0
  161.1880  207.9250  150.7460 C   0  0  0  0  0  2  0  0  0  0  0  0
  160.6960  212.5440  150.6260 C   0  0  0  0  0  0  0  0  0  0  0  0
  160.8320  209.4570  152.6940 N   0  0  1  0  0  0  0  0  0  0  0  0
  161.9860  209.0330  148.5420 C   0  0  0  0  0  2  0  0  0  0  0  0
  159.0260  212.8710  153.1790 C   0  0  2  0  0  3  0  0  0  0  0  0
  161.4010  206.6230  148.6480 C   0  0  0  0  0  1  0  0  0  0  0  0
  160.1260  213.6050  152.6940 O   0  0  0  0  0  0  0  0  0  0  0  0
  161.5710  210.0250  155.0420 C   0  0  0  0  0  2  0  0  0  0  0  0
  162.4340  209.5960  156.2340 C   0  0  2  0  0  3  0  0  0  0  0  0
  160.4680  208.0030  156.8270 C   0  0  2  0  0  3  0  0  0  0  0  0
  161.9710  208.3030  156.9260 C   0  0  0  0  0  2  0  0  0  0  0  0
  160.0520  207.5860  155.4400 C   0  0  0  0  0  0  0  0  0  0  0  0
  158.9080  207.2090  155.2470 O   0  0  0  0  0  0  0  0  0  0  0  0
  161.0270  207.5860  154.2970 C   0  0  0  0  0  2  0  0  0  0  0  0
  159.7180  209.0820  157.2610 F   0  0  0  0  0  0  0  0  0  0  0  0
  161.5240  208.9830  153.9020 C   0  0  1  0  0  3  0  0  0  0  0  0
  163.7910  211.3740  157.1980 N   0  0  0  0  0  1  0  0  0  0  0  0
  162.4950  210.7180  157.2550 C   0  0  0  0  0  2  0  0  0  0  0  0
  159.7100  213.3510  155.5570 C   0  0  0  0  0  3  0  0  0  0  0  0
  158.7070  213.2860  154.5790 C   0  0  0  0  0  0  0  0  0  0  0  0
  157.3810  213.5640  154.9280 C   0  0  0  0  0  3  0  0  0  0  0  0
  155.7750  214.1900  156.5740 F   0  0  0  0  0  0  0  0  0  0  0  0
  158.0630  213.9900  157.2120 C   0  0  0  0  0  3  0  0  0  0  0  0
  157.0600  213.9190  156.2410 C   0  0  0  0  0  0  0  0  0  0  0  0
  159.3880  213.7050  156.8710 C   0  0  0  0  0  3  0  0  0  0  0  0
  1 10  1  0  0  0  0
  1 13  1  0  0  0  0
  4  6  2  0  0  0  0
  5  2  1  6  0  0  0
  5 15  1  0  0  0  0
  5  7  1  0  0  0  0
  6  2  1  0  0  0  0
  6  9  1  0  0  0  0
  7  3  1  6  0  0  0
  7 17  1  0  0  0  0
  8  4  1  0  0  0  0
  8 12  2  0  0  0  0
  9 13  1  6  0  0  0
  9 15  1  0  0  0  0
 11 19  1  0  0  0  0
 12 14  1  0  0  0  0
 14 11  1  0  0  0  0
 14  2  2  0  0  0  0
 15 28  1  1  0  0  0
 16  4  1  0  0  0  0
 16  1  1  0  0  0  0
 17 32  1  1  0  0  0
 18  1  1  0  0  0  0
 19 17  1  0  0  0  0
 20 21  1  0  0  0  0
 21 23  1  0  0  0  0
 21 30  1  1  0  0  0
 22 23  1  0  0  0  0
 22 27  1  6  0  0  0
 24 22  1  0  0  0  0
 25 24  2  0  0  0  0
 26 24  1  0  0  0  0
 28 26  1  1  0  0  0
 28 20  1  0  0  0  0
 29 30  1  0  0  0  0
 31 37  1  0  0  0  0
 32 33  1  0  0  0  0
 32 31  2  0  0  0  0
 33 36  2  0  0  0  0
 36 34  1  0  0  0  0
 36 35  1  0  0  0  0
 37 35  2  0  0  0  0
M  END
>  <MODEL>
5

>  <REMARK>
 VINA RESULT:      -2.4      3.452      6.965
  Name = 
  3 active torsions:
  status: ('A' for Active; 'I' for Inactive)
    1  A    between atoms: C_4  and  C_37
    2  A    between atoms: N_21  and  C_27
    3  A    between atoms: C_23  and  C_30
                            x       y       z     vdW  Elec       q    Type
                         _______ _______ _______ _____ _____    ______ ____

>  <TORSDO>
F 3

$$$$
=
 OpenBabel11122413383D

 37 42  0  0  1  0  0  0  0  0999 V2000
  160.4270  209.3250  154.3770 C   0  0  0  0  0  0  0  0  0  0  0  0
  161.6430  206.5590  151.4990 C   0  0  0  0  0  0  0  0  0  0  0  0
  159.1780  206.5730  149.6810 C   0  0  0  0  0  1  0  0  0  0  0  0
  161.2360  206.9420  153.8280 C   0  0  0  0  0  0  0  0  0  0  0  0
  161.5450  207.3340  150.2320 C   0  0  1  0  0  3  0  0  0  0  0  0
  161.4860  207.4020  152.5440 C   0  0  0  0  0  0  0  0  0  0  0  0
  160.6160  206.6770  149.1940 C   0  0  1  0  0  3  0  0  0  0  0  0
  161.2910  205.5550  154.0400 C   0  0  0  0  0  3  0  0  0  0  0  0
  161.3220  208.7840  152.0820 C   0  0  2  0  0  3  0  0  0  0  0  0
  161.6020  210.2150  154.7470 C   0  0  0  0  0  1  0  0  0  0  0  0
  161.7360  204.2070  150.5640 C   0  0  0  0  0  2  0  0  0  0  0  0
  161.5280  204.7100  152.9870 N   0  0  0  0  0  0  0  0  0  0  0  0
  160.1640  209.4110  152.8560 C   0  0  0  0  0  2  0  0  0  0  0  0
  161.6890  205.1750  151.7120 C   0  0  0  0  0  0  0  0  0  0  0  0
  161.0580  208.6770  150.6360 N   0  0  1  0  0  0  0  0  0  0  0  0
  160.7090  207.8850  154.8790 C   0  0  0  0  0  2  0  0  0  0  0  0
  161.1070  205.2990  148.7020 C   0  0  2  0  0  3  0  0  0  0  0  0
  159.2020  209.8440  155.0990 C   0  0  0  0  0  1  0  0  0  0  0  0
  162.2320  204.8280  149.4070 O   0  0  0  0  0  0  0  0  0  0  0  0
  161.1220  210.2180  148.6350 C   0  0  0  0  0  2  0  0  0  0  0  0
  161.9660  211.2190  147.8380 C   0  0  2  0  0  3  0  0  0  0  0  0
  161.2370  212.9540  149.6310 C   0  0  2  0  0  3  0  0  0  0  0  0
  162.2750  212.5300  148.5820 C   0  0  0  0  0  2  0  0  0  0  0  0
  161.2620  212.0780  150.8560 C   0  0  0  0  0  0  0  0  0  0  0  0
  160.5690  212.3710  151.8160 O   0  0  0  0  0  0  0  0  0  0  0  0
  162.1550  210.8710  150.9390 C   0  0  0  0  0  2  0  0  0  0  0  0
  159.9670  212.9940  149.0830 F   0  0  0  0  0  0  0  0  0  0  0  0
  161.7870  209.7550  149.9510 C   0  0  1  0  0  3  0  0  0  0  0  0
  161.5570  212.9110  146.1340 N   0  0  0  0  0  1  0  0  0  0  0  0
  161.2770  211.5390  146.5230 C   0  0  0  0  0  2  0  0  0  0  0  0
  160.5620  206.0520  146.3590 C   0  0  0  0  0  3  0  0  0  0  0  0
  161.4020  205.3510  147.2370 C   0  0  0  0  0  0  0  0  0  0  0  0
  162.5020  204.6500  146.7330 C   0  0  0  0  0  3  0  0  0  0  0  0
  163.8400  203.9810  144.8770 F   0  0  0  0  0  0  0  0  0  0  0  0
  161.9380  205.3650  144.4890 C   0  0  0  0  0  3  0  0  0  0  0  0
  162.7710  204.6590  145.3620 C   0  0  0  0  0  0  0  0  0  0  0  0
  160.8320  206.0610  144.9870 C   0  0  0  0  0  3  0  0  0  0  0  0
  1 10  1  0  0  0  0
  1 16  1  0  0  0  0
  1 18  1  0  0  0  0
  2 14  2  0  0  0  0
  2  6  1  0  0  0  0
  4  8  1  0  0  0  0
  4 16  1  0  0  0  0
  5 15  1  0  0  0  0
  5  2  1  1  0  0  0
  6  4  2  0  0  0  0
  7  3  1  1  0  0  0
  7  5  1  0  0  0  0
  9  6  1  0  0  0  0
  9 13  1  1  0  0  0
 11 14  1  0  0  0  0
 12  8  2  0  0  0  0
 13  1  1  0  0  0  0
 14 12  1  0  0  0  0
 15 28  1  6  0  0  0
 15  9  1  0  0  0  0
 17 32  1  6  0  0  0
 17  7  1  0  0  0  0
 17 19  1  0  0  0  0
 19 11  1  0  0  0  0
 21 30  1  6  0  0  0
 21 23  1  0  0  0  0
 21 20  1  0  0  0  0
 22 27  1  6  0  0  0
 22 24  1  0  0  0  0
 23 22  1  0  0  0  0
 24 26  1  0  0  0  0
 24 25  2  0  0  0  0
 28 20  1  6  0  0  0
 28 26  1  0  0  0  0
 29 30  1  0  0  0  0
 31 32  1  0  0  0  0
 33 32  2  0  0  0  0
 34 36  1  0  0  0  0
 35 37  1  0  0  0  0
 35 36  2  0  0  0  0
 36 33  1  0  0  0  0
 37 31  2  0  0  0  0
M  END
>  <MODEL>
6

>  <REMARK>
 VINA RESULT:      -2.1      3.296      6.617
  Name = 
  3 active torsions:
  status: ('A' for Active; 'I' for Inactive)
    1  A    between atoms: C_4  and  C_37
    2  A    between atoms: N_21  and  C_27
    3  A    between atoms: C_23  and  C_30
                            x       y       z     vdW  Elec       q    Type
                         _______ _______ _______ _____ _____    ______ ____

>  <TORSDO>
F 3

$$$$
=
 OpenBabel11122413383D

 37 42  0  0  1  0  0  0  0  0999 V2000
  158.9500  213.1770  156.3670 C   0  0  0  0  0  0  0  0  0  0  0  0
  161.1010  210.1980  154.3880 C   0  0  0  0  0  0  0  0  0  0  0  0
  158.8450  208.9140  152.7610 C   0  0  0  0  0  1  0  0  0  0  0  0
  160.4780  211.1080  156.5140 C   0  0  0  0  0  0  0  0  0  0  0  0
  160.8340  210.4940  152.9530 C   0  0  1  0  0  3  0  0  0  0  0  0
  160.6390  211.2210  155.1410 C   0  0  0  0  0  0  0  0  0  0  0  0
  160.2050  209.3070  152.2000 C   0  0  1  0  0  3  0  0  0  0  0  0
  160.9450  209.9340  157.1260 C   0  0  0  0  0  3  0  0  0  0  0  0
  160.0820  212.2830  154.2980 C   0  0  2  0  0  3  0  0  0  0  0  0
  159.7750  214.4530  156.4020 C   0  0  0  0  0  1  0  0  0  0  0  0
  161.9580  207.8240  154.1900 C   0  0  0  0  0  2  0  0  0  0  0  0
  161.4840  208.9320  156.3610 N   0  0  0  0  0  0  0  0  0  0  0  0
  158.7500  212.7240  154.9020 C   0  0  0  0  0  2  0  0  0  0  0  0
  161.5590  209.0240  154.9990 C   0  0  0  0  0  0  0  0  0  0  0  0
  159.9380  211.6780  152.9630 N   0  0  1  0  0  0  0  0  0  0  0  0
  159.6350  212.1100  157.2600 C   0  0  0  0  0  2  0  0  0  0  0  0
  161.1190  208.0660  152.1180 C   0  0  2  0  0  3  0  0  0  0  0  0
  157.5900  213.4830  156.9570 C   0  0  0  0  0  1  0  0  0  0  0  0
  162.2970  208.1950  152.8800 O   0  0  0  0  0  0  0  0  0  0  0  0
  160.6050  212.0750  150.5580 C   0  0  0  0  0  2  0  0  0  0  0  0
  161.1780  213.0820  149.5560 C   0  0  2  0  0  3  0  0  0  0  0  0
  158.7640  214.0410  149.4450 C   0  0  2  0  0  3  0  0  0  0  0  0
  160.2700  214.2920  149.2740 C   0  0  0  0  0  2  0  0  0  0  0  0
  158.3640  213.8870  150.8890 C   0  0  0  0  0  0  0  0  0  0  0  0
  157.1820  213.7960  151.1760 O   0  0  0  0  0  0  0  0  0  0  0  0
  159.3880  213.8830  151.9900 C   0  0  0  0  0  2  0  0  0  0  0  0
  158.3580  212.9460  148.7040 F   0  0  0  0  0  0  0  0  0  0  0  0
  160.3340  212.6750  151.9560 C   0  0  1  0  0  3  0  0  0  0  0  0
  162.9190  212.4860  147.9600 N   0  0  0  0  0  1  0  0  0  0  0  0
  161.4980  212.3810  148.2480 C   0  0  0  0  0  2  0  0  0  0  0  0
  161.9650  208.7710  149.8500 C   0  0  0  0  0  3  0  0  0  0  0  0
  161.4570  207.7710  150.6920 C   0  0  0  0  0  0  0  0  0  0  0  0
  161.2170  206.4910  150.1810 C   0  0  0  0  0  3  0  0  0  0  0  0
  161.2620  204.9670  148.3490 F   0  0  0  0  0  0  0  0  0  0  0  0
  162.0070  207.2050  148.0050 C   0  0  0  0  0  3  0  0  0  0  0  0
  161.4940  206.2080  148.8400 C   0  0  0  0  0  0  0  0  0  0  0  0
  162.2420  208.4870  148.5100 C   0  0  0  0  0  3  0  0  0  0  0  0
  1 10  1  0  0  0  0
  1 18  1  0  0  0  0
  1 16  1  0  0  0  0
  2 14  2  0  0  0  0
  2  6  1  0  0  0  0
  4  8  1  0  0  0  0
  4 16  1  0  0  0  0
  5 15  1  0  0  0  0
  5  2  1  1  0  0  0
  6  4  2  0  0  0  0
  7  3  1  1  0  0  0
  7  5  1  0  0  0  0
  9 13  1  1  0  0  0
  9  6  1  0  0  0  0
 11 14  1  0  0  0  0
 12  8  2  0  0  0  0
 13  1  1  0  0  0  0
 14 12  1  0  0  0  0
 15 28  1  6  0  0  0
 15  9  1  0  0  0  0
 17 32  1  6  0  0  0
 17  7  1  0  0  0  0
 17 19  1  0  0  0  0
 19 11  1  0  0  0  0
 21 30  1  6  0  0  0
 21 20  1  0  0  0  0
 22 27  1  6  0  0  0
 22 24  1  0  0  0  0
 23 22  1  0  0  0  0
 23 21  1  0  0  0  0
 24 25  2  0  0  0  0
 24 26  1  0  0  0  0
 28 20  1  6  0  0  0
 28 26  1  0  0  0  0
 29 30  1  0  0  0  0
 31 32  1  0  0  0  0
 33 32  2  0  0  0  0
 34 36  1  0  0  0  0
 35 37  1  0  0  0  0
 35 36  2  0  0  0  0
 36 33  1  0  0  0  0
 37 31  2  0  0  0  0
M  END
>  <MODEL>
7

>  <REMARK>
 VINA RESULT:      -1.8      2.207      5.600
  Name = 
  3 active torsions:
  status: ('A' for Active; 'I' for Inactive)
    1  A    between atoms: C_4  and  C_37
    2  A    between atoms: N_21  and  C_27
    3  A    between atoms: C_23  and  C_30
                            x       y       z     vdW  Elec       q    Type
                         _______ _______ _______ _____ _____    ______ ____

>  <TORSDO>
F 3

$$$$
=
 OpenBabel11122413383D

 37 42  0  0  1  0  0  0  0  0999 V2000
  161.9060  206.5110  153.0930 C   0  0  0  0  0  0  0  0  0  0  0  0
  160.8340  209.9760  151.0290 C   0  0  0  0  0  0  0  0  0  0  0  0
  163.4580  210.5430  149.5540 C   0  0  0  0  0  1  0  0  0  0  0  0
  161.0380  208.9350  153.1760 C   0  0  0  0  0  0  0  0  0  0  0  0
  161.0900  209.6090  149.6090 C   0  0  1  0  0  3  0  0  0  0  0  0
  160.9330  208.8670  151.7940 C   0  0  0  0  0  0  0  0  0  0  0  0
  162.0790  210.5590  148.9090 C   0  0  1  0  0  3  0  0  0  0  0  0
  160.8950  210.1980  153.7740 C   0  0  0  0  0  3  0  0  0  0  0  0
  161.2080  207.6850  150.9720 C   0  0  2  0  0  3  0  0  0  0  0  0
  160.7470  205.5300  153.0640 C   0  0  0  0  0  1  0  0  0  0  0  0
  160.7150  212.4960  150.8110 C   0  0  0  0  0  2  0  0  0  0  0  0
  160.7170  211.3090  152.9920 N   0  0  0  0  0  0  0  0  0  0  0  0
  162.3170  206.8800  151.6490 C   0  0  0  0  0  2  0  0  0  0  0  0
  160.7000  211.2360  151.6270 C   0  0  0  0  0  0  0  0  0  0  0  0
  161.6010  208.2150  149.6560 N   0  0  1  0  0  0  0  0  0  0  0  0
  161.5080  207.7360  153.9580 C   0  0  0  0  0  2  0  0  0  0  0  0
  161.5700  212.0110  148.7890 C   0  0  2  0  0  3  0  0  0  0  0  0
  163.0810  205.8270  153.7580 C   0  0  0  0  0  1  0  0  0  0  0  0
  160.3620  212.2320  149.4780 O   0  0  0  0  0  0  0  0  0  0  0  0
  161.9760  206.9630  147.4940 C   0  0  0  0  0  2  0  0  0  0  0  0
  161.3070  206.2280  146.3270 C   0  0  2  0  0  3  0  0  0  0  0  0
  161.2010  204.1890  147.9350 C   0  0  2  0  0  3  0  0  0  0  0  0
  160.6120  204.9110  146.7150 C   0  0  0  0  0  2  0  0  0  0  0  0
  160.9020  204.9010  149.2290 C   0  0  0  0  0  0  0  0  0  0  0  0
  161.2130  204.3780  150.2860 O   0  0  0  0  0  0  0  0  0  0  0  0
  160.1920  206.2260  149.2480 C   0  0  0  0  0  2  0  0  0  0  0  0
  162.5630  203.9940  147.7860 F   0  0  0  0  0  0  0  0  0  0  0  0
  160.9950  207.3720  148.6150 C   0  0  1  0  0  3  0  0  0  0  0  0
  161.6660  205.4520  144.0460 N   0  0  0  0  0  1  0  0  0  0  0  0
  162.3290  205.9540  145.2380 C   0  0  0  0  0  2  0  0  0  0  0  0
  162.4840  212.9560  146.6370 C   0  0  0  0  0  3  0  0  0  0  0  0
  161.4190  212.3840  147.3490 C   0  0  0  0  0  0  0  0  0  0  0  0
  160.1820  212.2060  146.7200 C   0  0  0  0  0  3  0  0  0  0  0  0
  158.8140  212.4060  144.7780 F   0  0  0  0  0  0  0  0  0  0  0  0
  161.0780  213.1450  144.6760 C   0  0  0  0  0  3  0  0  0  0  0  0
  160.0130  212.5830  145.3850 C   0  0  0  0  0  0  0  0  0  0  0  0
  162.3140  213.3320  145.3020 C   0  0  0  0  0  3  0  0  0  0  0  0
  1 18  1  0  0  0  0
  1 16  1  0  0  0  0
  2 14  2  0  0  0  0
  2  6  1  0  0  0  0
  4  8  1  0  0  0  0
  4 16  1  0  0  0  0
  5 15  1  0  0  0  0
  5  2  1  1  0  0  0
  6  4  2  0  0  0  0
  7  3  1  1  0  0  0
  7  5  1  0  0  0  0
  9 13  1  1  0  0  0
  9  6  1  0  0  0  0
 10  1  1  0  0  0  0
 11 14  1  0  0  0  0
 12  8  2  0  0  0  0
 13  1  1  0  0  0  0
 14 12  1  0  0  0  0
 15 28  1  6  0  0  0
 15  9  1  0  0  0  0
 17 32  1  6  0  0  0
 17  7  1  0  0  0  0
 17 19  1  0  0  0  0
 19 11  1  0  0  0  0
 21 30  1  6  0  0  0
 21 23  1  0  0  0  0
 21 20  1  0  0  0  0
 22 27  1  6  0  0  0
 22 24  1  0  0  0  0
 23 22  1  0  0  0  0
 24 26  1  0  0  0  0
 24 25  2  0  0  0  0
 28 20  1  6  0  0  0
 28 26  1  0  0  0  0
 29 30  1  0  0  0  0
 31 32  1  0  0  0  0
 33 32  2  0  0  0  0
 34 36  1  0  0  0  0
 35 37  1  0  0  0  0
 35 36  2  0  0  0  0
 36 33  1  0  0  0  0
 37 31  2  0  0  0  0
M  END
>  <MODEL>
8

>  <REMARK>
 VINA RESULT:      -1.5      2.978      4.773
  Name = 
  3 active torsions:
  status: ('A' for Active; 'I' for Inactive)
    1  A    between atoms: C_4  and  C_37
    2  A    between atoms: N_21  and  C_27
    3  A    between atoms: C_23  and  C_30
                            x       y       z     vdW  Elec       q    Type
                         _______ _______ _______ _____ _____    ______ ____

>  <TORSDO>
F 3

$$$$
