=
 OpenBabel11122412423D

 30 35  0  0  1  0  0  0  0  0999 V2000
  160.6950  211.7350  151.7770 C   0  0  2  0  0  3  0  0  0  0  0  0
  160.7400  213.6030  150.0440 C   0  0  0  0  0  0  0  0  0  0  0  0
  162.1510  209.0810  148.8090 N   0  0  0  0  0  2  0  0  0  0  0  0
  161.2410  210.3710  152.1190 N   0  0  1  0  0  0  0  0  0  0  0  0
  159.1850  211.8570  152.0300 C   0  0  0  0  0  2  0  0  0  0  0  0
  160.8570  211.4180  154.8400 O   0  0  0  0  0  1  0  0  0  0  0  0
  161.0620  207.2810  153.1600 N   0  0  0  0  0  0  0  0  0  0  0  0
  159.8330  210.7150  154.2020 C   0  0  1  0  0  3  0  0  0  0  0  0
  160.8580  207.1410  151.7280 C   0  0  2  0  0  3  0  0  0  0  0  0
  162.0600  207.8740  149.5530 C   0  0  0  0  0  0  0  0  0  0  0  0
  158.8850  211.7030  153.5200 C   0  0  2  0  0  3  0  0  0  0  0  0
  160.4140  209.7270  153.1760 C   0  0  2  0  0  3  0  0  0  0  0  0
  160.9750  214.0530  148.7820 N   0  0  0  0  0  0  0  0  0  0  0  0
  161.1960  205.6850  151.4320 C   0  0  0  0  0  2  0  0  0  0  0  0
  161.4310  206.0480  153.8210 C   0  0  0  0  0  2  0  0  0  0  0  0
  160.2220  214.4530  150.9650 F   0  0  0  0  0  0  0  0  0  0  0  0
  162.0730  210.1080  149.8280 C   0  0  2  0  0  3  0  0  0  0  0  0
  161.5040  213.2500  147.8210 C   0  0  0  0  0  3  0  0  0  0  0  0
  161.0260  212.2690  150.3850 C   0  0  0  0  0  0  0  0  0  0  0  0
  161.2010  209.5210  150.9140 C   0  0  1  0  0  3  0  0  0  0  0  0
  162.2610  206.7470  149.0290 O   0  0  0  0  0  0  0  0  0  0  0  0
  161.8020  208.1140  151.0110 C   0  0  1  0  0  3  0  0  0  0  0  0
  161.2900  204.9670  152.7700 C   0  0  0  0  0  2  0  0  0  0  0  0
  161.6790  208.6750  154.9290 O   0  0  0  0  0  0  0  0  0  0  0  0
  161.8270  211.9270  148.1160 C   0  0  0  0  0  3  0  0  0  0  0  0
  161.5640  211.4300  149.3950 C   0  0  0  0  0  0  0  0  0  0  0  0
  161.0860  208.5500  153.8230 C   0  0  0  0  0  0  0  0  0  0  0  0
  157.5640  211.2820  153.6860 O   0  0  0  0  0  0  0  0  0  0  0  0
  155.9480  210.8560  155.3760 C   0  0  0  0  0  1  0  0  0  0  0  0
  157.3100  211.4320  155.0510 C   0  0  0  0  0  2  0  0  0  0  0  0
  1  5  1  6  0  0  0
  1  4  1  0  0  0  0
  2 19  1  0  0  0  0
  2 16  1  0  0  0  0
  3 10  1  0  0  0  0
  3 17  1  0  0  0  0
  4 12  1  0  0  0  0
  5 11  1  0  0  0  0
  7 15  1  0  0  0  0
  7 27  1  0  0  0  0
  8  6  1  0  0  0  0
  9  7  1  0  0  0  0
 10 22  1  0  0  0  0
 11 28  1  0  0  0  0
 11  8  1  0  0  0  0
 12 27  1  0  0  0  0
 12  8  1  0  0  0  0
 13  2  2  0  0  0  0
 14  9  1  0  0  0  0
 14 23  1  0  0  0  0
 17 20  1  0  0  0  0
 18 25  2  0  0  0  0
 18 13  1  0  0  0  0
 19  1  1  0  0  0  0
 20 22  1  0  0  0  0
 20  4  1  0  0  0  0
 21 10  2  0  0  0  0
 22  9  1  0  0  0  0
 23 15  1  0  0  0  0
 25 26  1  0  0  0  0
 26 17  1  0  0  0  0
 26 19  2  0  0  0  0
 27 24  2  0  0  0  0
 28 30  1  0  0  0  0
 30 29  1  0  0  0  0
M  END
>  <MODEL>
1

>  <REMARK>
 VINA RESULT:      -6.7      0.000      0.000
  Name = 
  2 active torsions:
  status: ('A' for Active; 'I' for Inactive)
    1  A    between atoms: C_11  and  O_28
    2  A    between atoms: O_28  and  C_30
                            x       y       z     vdW  Elec       q    Type
                         _______ _______ _______ _____ _____    ______ ____

>  <TORSDO>
F 2

$$$$
=
 OpenBabel11122412423D

 30 35  0  0  1  0  0  0  0  0999 V2000
  160.0890  212.4080  152.2460 C   0  0  2  0  0  3  0  0  0  0  0  0
  160.5440  213.2440  149.8820 C   0  0  0  0  0  0  0  0  0  0  0  0
  162.0270  208.7770  151.2300 N   0  0  0  0  0  2  0  0  0  0  0  0
  160.5100  211.4040  153.2910 N   0  0  1  0  0  0  0  0  0  0  0  0
  158.5640  212.5320  152.1140 C   0  0  0  0  0  2  0  0  0  0  0  0
  159.6170  213.5750  155.0610 O   0  0  0  0  0  1  0  0  0  0  0  0
  160.0230  209.1580  155.6110 N   0  0  0  0  0  0  0  0  0  0  0  0
  158.7210  212.5880  154.6470 C   0  0  1  0  0  3  0  0  0  0  0  0
  160.1080  208.3500  154.4070 C   0  0  2  0  0  3  0  0  0  0  0  0
  161.7490  208.0570  152.4220 C   0  0  0  0  0  0  0  0  0  0  0  0
  157.9630  213.0750  153.4100 C   0  0  2  0  0  3  0  0  0  0  0  0
  159.4660  211.2760  154.3430 C   0  0  2  0  0  3  0  0  0  0  0  0
  161.0450  213.0640  148.6300 N   0  0  0  0  0  0  0  0  0  0  0  0
  160.4520  206.9510  154.9050 C   0  0  0  0  0  2  0  0  0  0  0  0
  160.2100  208.4070  156.8340 C   0  0  0  0  0  2  0  0  0  0  0  0
  159.8790  214.3890  150.1720 F   0  0  0  0  0  0  0  0  0  0  0  0
  161.7790  210.1540  151.6060 C   0  0  2  0  0  3  0  0  0  0  0  0
  161.7310  211.9420  148.2850 C   0  0  0  0  0  3  0  0  0  0  0  0
  160.7120  212.2470  150.8610 C   0  0  0  0  0  0  0  0  0  0  0  0
  160.6870  210.0870  152.6490 C   0  0  1  0  0  3  0  0  0  0  0  0
  162.0140  206.8320  152.5430 O   0  0  0  0  0  0  0  0  0  0  0  0
  161.2090  208.9350  153.5130 C   0  0  1  0  0  3  0  0  0  0  0  0
  160.2490  206.9530  156.4130 C   0  0  0  0  0  2  0  0  0  0  0  0
  160.3150  211.2560  156.5930 O   0  0  0  0  0  0  0  0  0  0  0  0
  161.9440  210.9370  149.2270 C   0  0  0  0  0  3  0  0  0  0  0  0
  161.4110  211.0810  150.5100 C   0  0  0  0  0  0  0  0  0  0  0  0
  159.9530  210.5880  155.5860 C   0  0  0  0  0  0  0  0  0  0  0  0
  156.6240  212.6930  153.4960 O   0  0  0  0  0  0  0  0  0  0  0  0
  154.7640  214.1130  153.0810 C   0  0  0  0  0  1  0  0  0  0  0  0
  155.9580  213.8270  153.9660 C   0  0  0  0  0  2  0  0  0  0  0  0
  1  5  1  6  0  0  0
  1  4  1  0  0  0  0
  2 16  1  0  0  0  0
  2 19  1  0  0  0  0
  3 17  1  0  0  0  0
  3 10  1  0  0  0  0
  4 12  1  0  0  0  0
  5 11  1  0  0  0  0
  7 15  1  0  0  0  0
  8  6  1  0  0  0  0
  9 14  1  0  0  0  0
  9  7  1  0  0  0  0
 10 21  2  0  0  0  0
 10 22  1  0  0  0  0
 11 28  1  0  0  0  0
 11  8  1  0  0  0  0
 12  8  1  0  0  0  0
 12 27  1  0  0  0  0
 13  2  2  0  0  0  0
 14 23  1  0  0  0  0
 17 20  1  0  0  0  0
 18 13  1  0  0  0  0
 18 25  2  0  0  0  0
 19  1  1  0  0  0  0
 20  4  1  0  0  0  0
 20 22  1  0  0  0  0
 22  9  1  0  0  0  0
 23 15  1  0  0  0  0
 25 26  1  0  0  0  0
 26 19  2  0  0  0  0
 26 17  1  0  0  0  0
 27  7  1  0  0  0  0
 27 24  2  0  0  0  0
 28 30  1  0  0  0  0
 29 30  1  0  0  0  0
M  END
>  <MODEL>
2

>  <REMARK>
 VINA RESULT:      -5.6      1.876      2.513
  Name = 
  2 active torsions:
  status: ('A' for Active; 'I' for Inactive)
    1  A    between atoms: C_11  and  O_28
    2  A    between atoms: O_28  and  C_30
                            x       y       z     vdW  Elec       q    Type
                         _______ _______ _______ _____ _____    ______ ____

>  <TORSDO>
F 2

$$$$
=
 OpenBabel11122412423D

 30 35  0  0  1  0  0  0  0  0999 V2000
  160.6120  208.6070  153.1940 C   0  0  2  0  0  3  0  0  0  0  0  0
  160.8340  206.1660  153.8920 C   0  0  0  0  0  0  0  0  0  0  0  0
  162.0670  207.5370  149.3580 N   0  0  0  0  0  2  0  0  0  0  0  0
  160.5080  209.5350  152.0090 N   0  0  1  0  0  0  0  0  0  0  0  0
  161.5810  209.1170  154.2710 C   0  0  0  0  0  2  0  0  0  0  0  0
  158.9550  211.0910  153.9620 O   0  0  0  0  0  1  0  0  0  0  0  0
  161.2060  212.2050  150.2640 N   0  0  0  0  0  0  0  0  0  0  0  0
  160.3330  211.2850  153.8380 C   0  0  1  0  0  3  0  0  0  0  0  0
  162.1830  211.2480  149.7740 C   0  0  2  0  0  3  0  0  0  0  0  0
  162.1740  208.8430  148.8090 C   0  0  0  0  0  0  0  0  0  0  0  0
  161.0620  210.4230  154.8710 C   0  0  2  0  0  3  0  0  0  0  0  0
  160.8020  210.9360  152.4150 C   0  0  2  0  0  3  0  0  0  0  0  0
  161.1710  204.8750  153.6250 N   0  0  0  0  0  0  0  0  0  0  0  0
  162.6140  211.7970  148.4190 C   0  0  0  0  0  2  0  0  0  0  0  0
  161.0170  213.3450  149.3930 C   0  0  0  0  0  2  0  0  0  0  0  0
  160.4230  206.4990  155.1410 F   0  0  0  0  0  0  0  0  0  0  0  0
  161.2050  207.7270  150.5070 C   0  0  2  0  0  3  0  0  0  0  0  0
  161.5770  204.4800  152.3900 C   0  0  0  0  0  3  0  0  0  0  0  0
  160.9170  207.1420  152.8830 C   0  0  0  0  0  0  0  0  0  0  0  0
  161.4960  209.1290  150.9910 C   0  0  1  0  0  3  0  0  0  0  0  0
  162.7130  209.0590  147.6910 O   0  0  0  0  0  0  0  0  0  0  0  0
  161.4970  209.8800  149.6550 C   0  0  1  0  0  3  0  0  0  0  0  0
  162.0820  213.2190  148.3240 C   0  0  0  0  0  2  0  0  0  0  0  0
  159.2780  212.5710  151.5300 O   0  0  0  0  0  0  0  0  0  0  0  0
  161.6540  205.4060  151.3500 C   0  0  0  0  0  3  0  0  0  0  0  0
  161.3450  206.7450  151.6070 C   0  0  0  0  0  0  0  0  0  0  0  0
  160.3700  211.9540  151.3990 C   0  0  0  0  0  0  0  0  0  0  0  0
  162.1300  211.1400  155.4150 O   0  0  0  0  0  0  0  0  0  0  0  0
  163.6760  211.0780  157.2190 C   0  0  0  0  0  1  0  0  0  0  0  0
  162.6320  210.3200  156.4280 C   0  0  0  0  0  2  0  0  0  0  0  0
  1  5  1  1  0  0  0
  2 16  1  0  0  0  0
  3 17  1  0  0  0  0
  4 12  1  0  0  0  0
  4  1  1  0  0  0  0
  5 11  1  0  0  0  0
  7 27  1  0  0  0  0
  8  6  1  0  0  0  0
  8 11  1  0  0  0  0
  9  7  1  0  0  0  0
 10  3  1  0  0  0  0
 10 22  1  0  0  0  0
 11 28  1  0  0  0  0
 12  8  1  0  0  0  0
 13  2  1  0  0  0  0
 14  9  1  0  0  0  0
 15  7  1  0  0  0  0
 17 20  1  0  0  0  0
 17 26  1  0  0  0  0
 18 13  2  0  0  0  0
 19  1  1  0  0  0  0
 19  2  2  0  0  0  0
 20  4  1  0  0  0  0
 21 10  2  0  0  0  0
 22  9  1  0  0  0  0
 22 20  1  0  0  0  0
 23 14  1  0  0  0  0
 23 15  1  0  0  0  0
 25 26  2  0  0  0  0
 25 18  1  0  0  0  0
 26 19  1  0  0  0  0
 27 24  2  0  0  0  0
 27 12  1  0  0  0  0
 28 30  1  0  0  0  0
 30 29  1  0  0  0  0
M  END
>  <MODEL>
3

>  <REMARK>
 VINA RESULT:      -5.5      2.360      5.697
  Name = 
  2 active torsions:
  status: ('A' for Active; 'I' for Inactive)
    1  A    between atoms: C_11  and  O_28
    2  A    between atoms: O_28  and  C_30
                            x       y       z     vdW  Elec       q    Type
                         _______ _______ _______ _____ _____    ______ ____

>  <TORSDO>
F 2

$$$$
=
 OpenBabel11122412423D

 30 35  0  0  1  0  0  0  0  0999 V2000
  162.0280  207.7750  151.4490 C   0  0  2  0  0  3  0  0  0  0  0  0
  162.2180  210.2490  150.8710 C   0  0  0  0  0  0  0  0  0  0  0  0
  161.4040  206.9620  147.3350 N   0  0  0  0  0  2  0  0  0  0  0  0
  162.1100  206.3770  150.8870 N   0  0  1  0  0  0  0  0  0  0  0  0
  160.8280  207.9740  152.3870 C   0  0  0  0  0  2  0  0  0  0  0  0
  163.0030  205.8290  153.6340 O   0  0  0  0  0  1  0  0  0  0  0  0
  161.1360  203.2890  150.4650 N   0  0  0  0  0  0  0  0  0  0  0  0
  161.6480  205.7530  153.3030 C   0  0  1  0  0  3  0  0  0  0  0  0
  160.4610  203.9800  149.3790 C   0  0  2  0  0  3  0  0  0  0  0  0
  161.1110  205.5760  147.4430 C   0  0  0  0  0  0  0  0  0  0  0  0
  160.9700  207.0860  153.6230 C   0  0  2  0  0  3  0  0  0  0  0  0
  161.4750  205.4020  151.8150 C   0  0  2  0  0  3  0  0  0  0  0  0
  162.1990  211.2680  149.9680 N   0  0  0  0  0  0  0  0  0  0  0  0
  160.1290  202.8850  148.3720 C   0  0  0  0  0  2  0  0  0  0  0  0
  161.2100  201.8540  150.2880 C   0  0  0  0  0  2  0  0  0  0  0  0
  162.3630  210.5330  152.1880 F   0  0  0  0  0  0  0  0  0  0  0  0
  162.0310  207.2710  148.6050 C   0  0  2  0  0  3  0  0  0  0  0  0
  162.0680  211.0420  148.6340 C   0  0  0  0  0  3  0  0  0  0  0  0
  162.0820  208.9180  150.4380 C   0  0  0  0  0  0  0  0  0  0  0  0
  161.3870  206.3330  149.6000 C   0  0  1  0  0  3  0  0  0  0  0  0
  160.7080  204.8970  146.4620 O   0  0  0  0  0  0  0  0  0  0  0  0
  161.4260  205.0250  148.8030 C   0  0  1  0  0  3  0  0  0  0  0  0
  160.3620  201.5530  149.0700 C   0  0  0  0  0  2  0  0  0  0  0  0
  162.7390  203.3860  152.1590 O   0  0  0  0  0  0  0  0  0  0  0  0
  161.9540  209.7390  148.1540 C   0  0  0  0  0  3  0  0  0  0  0  0
  161.9380  208.6770  149.0620 C   0  0  0  0  0  0  0  0  0  0  0  0
  161.8310  203.9740  151.5130 C   0  0  0  0  0  0  0  0  0  0  0  0
  159.7090  206.8550  154.1750 O   0  0  0  0  0  0  0  0  0  0  0  0
  160.0940  208.4140  155.9280 C   0  0  0  0  0  1  0  0  0  0  0  0
  159.8980  206.9600  155.5550 C   0  0  0  0  0  2  0  0  0  0  0  0
  1  5  1  6  0  0  0
  2 16  1  0  0  0  0
  3 10  1  0  0  0  0
  3 17  1  0  0  0  0
  4  1  1  0  0  0  0
  4 12  1  0  0  0  0
  5 11  1  0  0  0  0
  7 27  1  0  0  0  0
  8 11  1  0  0  0  0
  8  6  1  0  0  0  0
  9  7  1  0  0  0  0
 10 22  1  0  0  0  0
 11 28  1  0  0  0  0
 12  8  1  0  0  0  0
 13  2  2  0  0  0  0
 14 23  1  0  0  0  0
 14  9  1  0  0  0  0
 15  7  1  0  0  0  0
 17 26  1  0  0  0  0
 17 20  1  0  0  0  0
 18 13  1  0  0  0  0
 19  2  1  0  0  0  0
 19  1  1  0  0  0  0
 20  4  1  0  0  0  0
 21 10  2  0  0  0  0
 22  9  1  0  0  0  0
 22 20  1  0  0  0  0
 23 15  1  0  0  0  0
 25 18  2  0  0  0  0
 25 26  1  0  0  0  0
 26 19  2  0  0  0  0
 27 12  1  0  0  0  0
 27 24  2  0  0  0  0
 28 30  1  0  0  0  0
 30 29  1  0  0  0  0
M  END
>  <MODEL>
4

>  <REMARK>
 VINA RESULT:      -5.3      2.837      4.330
  Name = 
  2 active torsions:
  status: ('A' for Active; 'I' for Inactive)
    1  A    between atoms: C_11  and  O_28
    2  A    between atoms: O_28  and  C_30
                            x       y       z     vdW  Elec       q    Type
                         _______ _______ _______ _____ _____    ______ ____

>  <TORSDO>
F 2

$$$$
=
 OpenBabel11122412423D

 30 35  0  0  1  0  0  0  0  0999 V2000
  161.8480  207.6390  150.9480 C   0  0  2  0  0  3  0  0  0  0  0  0
  161.5560  205.9450  152.8290 C   0  0  0  0  0  0  0  0  0  0  0  0
  160.5190  210.6660  153.6030 N   0  0  0  0  0  2  0  0  0  0  0  0
  162.0140  209.1070  150.6390 N   0  0  1  0  0  0  0  0  0  0  0  0
  160.8500  206.9390  150.0150 C   0  0  0  0  0  2  0  0  0  0  0  0
  163.5200  207.9790  148.3800 O   0  0  0  0  0  1  0  0  0  0  0  0
  161.4300  211.8790  149.0150 N   0  0  0  0  0  0  0  0  0  0  0  0
  162.1520  208.2330  148.2610 C   0  0  1  0  0  3  0  0  0  0  0  0
  160.4550  211.9360  150.0900 C   0  0  2  0  0  3  0  0  0  0  0  0
  160.4560  211.7390  152.6740 C   0  0  0  0  0  0  0  0  0  0  0  0
  161.3690  206.9570  148.5770 C   0  0  2  0  0  3  0  0  0  0  0  0
  161.7300  209.3730  149.2030 C   0  0  2  0  0  3  0  0  0  0  0  0
  161.2060  205.6280  154.1050 N   0  0  0  0  0  0  0  0  0  0  0  0
  160.0850  213.4110  150.1970 C   0  0  0  0  0  2  0  0  0  0  0  0
  161.6720  213.1550  148.3770 C   0  0  0  0  0  2  0  0  0  0  0  0
  161.9270  204.9560  151.9780 F   0  0  0  0  0  0  0  0  0  0  0  0
  161.3410  209.6840  152.9250 C   0  0  2  0  0  3  0  0  0  0  0  0
  160.8390  206.5780  155.0050 C   0  0  0  0  0  3  0  0  0  0  0  0
  161.5290  207.2840  152.3990 C   0  0  0  0  0  0  0  0  0  0  0  0
  161.0570  209.8810  151.4540 C   0  0  1  0  0  3  0  0  0  0  0  0
  159.9630  212.8580  152.9740 O   0  0  0  0  0  0  0  0  0  0  0  0
  161.1190  211.4100  151.3690 C   0  0  1  0  0  3  0  0  0  0  0  0
  160.6450  214.1010  148.9620 C   0  0  0  0  0  2  0  0  0  0  0  0
  163.3160  210.8260  148.1270 O   0  0  0  0  0  0  0  0  0  0  0  0
  160.8180  207.9220  154.6340 C   0  0  0  0  0  3  0  0  0  0  0  0
  161.1410  208.2700  153.3200 C   0  0  0  0  0  0  0  0  0  0  0  0
  162.2180  210.7160  148.7380 C   0  0  0  0  0  0  0  0  0  0  0  0
  160.2950  206.8300  147.6950 O   0  0  0  0  0  0  0  0  0  0  0  0
  161.5230  204.9230  146.9830 C   0  0  0  0  0  1  0  0  0  0  0  0
  160.8300  206.2040  146.5670 C   0  0  0  0  0  2  0  0  0  0  0  0
  1  5  1  6  0  0  0
  1 19  1  0  0  0  0
  2 13  1  0  0  0  0
  4  1  1  0  0  0  0
  4 20  1  0  0  0  0
  7  9  1  0  0  0  0
  8  6  1  0  0  0  0
  8 11  1  0  0  0  0
  8 12  1  0  0  0  0
  9 14  1  0  0  0  0
  9 22  1  0  0  0  0
 10 21  2  0  0  0  0
 10  3  1  0  0  0  0
 11  5  1  0  0  0  0
 12  4  1  0  0  0  0
 13 18  2  0  0  0  0
 15 23  1  0  0  0  0
 15  7  1  0  0  0  0
 16  2  1  0  0  0  0
 17 26  1  0  0  0  0
 17  3  1  0  0  0  0
 19  2  2  0  0  0  0
 19 26  1  0  0  0  0
 20 17  1  0  0  0  0
 22 20  1  0  0  0  0
 22 10  1  0  0  0  0
 23 14  1  0  0  0  0
 24 27  2  0  0  0  0
 25 18  1  0  0  0  0
 26 25  2  0  0  0  0
 27  7  1  0  0  0  0
 27 12  1  0  0  0  0
 28 11  1  0  0  0  0
 30 29  1  0  0  0  0
 30 28  1  0  0  0  0
M  END
>  <MODEL>
5

>  <REMARK>
 VINA RESULT:      -5.3      2.705      7.170
  Name = 
  2 active torsions:
  status: ('A' for Active; 'I' for Inactive)
    1  A    between atoms: C_11  and  O_28
    2  A    between atoms: O_28  and  C_30
                            x       y       z     vdW  Elec       q    Type
                         _______ _______ _______ _____ _____    ______ ____

>  <TORSDO>
F 2

$$$$
=
 OpenBabel11122412423D

 30 35  0  0  1  0  0  0  0  0999 V2000
  161.6190  204.5410  148.6990 C   0  0  2  0  0  3  0  0  0  0  0  0
  161.2360  202.0240  148.8300 C   0  0  0  0  0  0  0  0  0  0  0  0
  160.9650  204.7570  152.8820 N   0  0  0  0  0  2  0  0  0  0  0  0
  161.9710  205.7670  149.5030 N   0  0  1  0  0  0  0  0  0  0  0  0
  160.4560  204.7770  147.7230 C   0  0  0  0  0  2  0  0  0  0  0  0
  163.1090  206.5640  146.9110 O   0  0  0  0  0  1  0  0  0  0  0  0
  161.6690  208.8760  150.4550 N   0  0  0  0  0  0  0  0  0  0  0  0
  161.7870  206.8820  147.2310 C   0  0  1  0  0  3  0  0  0  0  0  0
  160.8030  208.1780  151.3890 C   0  0  2  0  0  3  0  0  0  0  0  0
  160.9850  206.1710  153.0190 C   0  0  0  0  0  0  0  0  0  0  0  0
  160.8540  205.8080  146.6670 C   0  0  2  0  0  3  0  0  0  0  0  0
  161.6140  207.0030  148.7550 C   0  0  2  0  0  3  0  0  0  0  0  0
  160.9480  200.8970  149.5350 N   0  0  0  0  0  0  0  0  0  0  0  0
  160.6620  209.1320  152.5700 C   0  0  0  0  0  2  0  0  0  0  0  0
  162.0420  210.2070  150.8860 C   0  0  0  0  0  2  0  0  0  0  0  0
  161.3880  201.9440  147.4840 F   0  0  0  0  0  0  0  0  0  0  0  0
  161.5770  204.5380  151.5870 C   0  0  2  0  0  3  0  0  0  0  0  0
  160.7980  200.9150  150.8860 C   0  0  0  0  0  3  0  0  0  0  0  0
  161.3700  203.2590  149.4910 C   0  0  0  0  0  0  0  0  0  0  0  0
  161.2070  205.7510  150.7650 C   0  0  1  0  0  3  0  0  0  0  0  0
  160.6870  206.7450  154.0990 O   0  0  0  0  0  0  0  0  0  0  0  0
  161.4850  206.8620  151.7840 C   0  0  1  0  0  3  0  0  0  0  0  0
  161.2150  210.4770  152.1250 C   0  0  0  0  0  2  0  0  0  0  0  0
  163.3020  208.7150  148.7940 O   0  0  0  0  0  0  0  0  0  0  0  0
  160.9430  202.1090  151.5900 C   0  0  0  0  0  3  0  0  0  0  0  0
  161.2060  203.2870  150.8850 C   0  0  0  0  0  0  0  0  0  0  0  0
  162.2540  208.2430  149.3120 C   0  0  0  0  0  0  0  0  0  0  0  0
  159.7060  206.4060  146.1460 O   0  0  0  0  0  0  0  0  0  0  0  0
  160.8960  205.4510  144.3240 C   0  0  0  0  0  1  0  0  0  0  0  0
  159.5420  205.8280  144.8860 C   0  0  0  0  0  2  0  0  0  0  0  0
  1  5  1  1  0  0  0
  1 19  1  0  0  0  0
  1  4  1  0  0  0  0
  2 19  2  0  0  0  0
  2 13  1  0  0  0  0
  3 10  1  0  0  0  0
  4 20  1  0  0  0  0
  6  8  1  0  0  0  0
  7 15  1  0  0  0  0
  7  9  1  0  0  0  0
  8 12  1  0  0  0  0
  9 22  1  0  0  0  0
  9 14  1  0  0  0  0
 10 21  2  0  0  0  0
 11  8  1  0  0  0  0
 11  5  1  0  0  0  0
 12 27  1  0  0  0  0
 12  4  1  0  0  0  0
 13 18  2  0  0  0  0
 15 23  1  0  0  0  0
 16  2  1  0  0  0  0
 17  3  1  0  0  0  0
 18 25  1  0  0  0  0
 19 26  1  0  0  0  0
 20 17  1  0  0  0  0
 20 22  1  0  0  0  0
 22 10  1  0  0  0  0
 23 14  1  0  0  0  0
 24 27  2  0  0  0  0
 26 17  1  0  0  0  0
 26 25  2  0  0  0  0
 27  7  1  0  0  0  0
 28 11  1  0  0  0  0
 29 30  1  0  0  0  0
 30 28  1  0  0  0  0
M  END
>  <MODEL>
6

>  <REMARK>
 VINA RESULT:      -5.2      3.928      8.189
  Name = 
  2 active torsions:
  status: ('A' for Active; 'I' for Inactive)
    1  A    between atoms: C_11  and  O_28
    2  A    between atoms: O_28  and  C_30
                            x       y       z     vdW  Elec       q    Type
                         _______ _______ _______ _____ _____    ______ ____

>  <TORSDO>
F 2

$$$$
=
 OpenBabel11122412423D

 30 35  0  0  1  0  0  0  0  0999 V2000
  160.5270  213.2760  149.1630 C   0  0  2  0  0  3  0  0  0  0  0  0
  159.2630  213.3760  151.3740 C   0  0  0  0  0  0  0  0  0  0  0  0
  156.9560  214.4140  147.1820 N   0  0  0  0  0  2  0  0  0  0  0  0
  160.5190  213.7400  147.7280 N   0  0  1  0  0  0  0  0  0  0  0  0
  160.8880  211.7900  149.3120 C   0  0  0  0  0  2  0  0  0  0  0  0
  163.4240  213.5470  148.1420 O   0  0  0  0  0  1  0  0  0  0  0  0
  160.8410  213.3910  144.4970 N   0  0  0  0  0  0  0  0  0  0  0  0
  162.7040  212.4500  147.6650 C   0  0  1  0  0  3  0  0  0  0  0  0
  159.4300  213.1160  144.7020 C   0  0  2  0  0  3  0  0  0  0  0  0
  157.4110  214.2710  145.8440 C   0  0  0  0  0  0  0  0  0  0  0  0
  162.3200  211.5450  148.8370 C   0  0  2  0  0  3  0  0  0  0  0  0
  161.4480  212.9160  146.9080 C   0  0  2  0  0  3  0  0  0  0  0  0
  158.1240  213.5880  152.0870 N   0  0  0  0  0  0  0  0  0  0  0  0
  158.7920  213.3390  143.3350 C   0  0  0  0  0  2  0  0  0  0  0  0
  161.1840  213.7010  143.1260 C   0  0  0  0  0  2  0  0  0  0  0  0
  160.3810  212.9590  152.0180 F   0  0  0  0  0  0  0  0  0  0  0  0
  158.1840  214.4520  147.9510 C   0  0  2  0  0  3  0  0  0  0  0  0
  156.9770  214.0180  151.4970 C   0  0  0  0  0  3  0  0  0  0  0  0
  159.2750  213.5830  149.9820 C   0  0  0  0  0  0  0  0  0  0  0  0
  159.1570  213.5890  147.1810 C   0  0  1  0  0  3  0  0  0  0  0  0
  156.6340  214.3700  144.8580 O   0  0  0  0  0  0  0  0  0  0  0  0
  158.8980  214.0940  145.7570 C   0  0  1  0  0  3  0  0  0  0  0  0
  159.9250  213.4400  142.3260 C   0  0  0  0  0  2  0  0  0  0  0  0
  162.8410  214.1790  145.4090 O   0  0  0  0  0  0  0  0  0  0  0  0
  156.9450  214.2600  150.1250 C   0  0  0  0  0  3  0  0  0  0  0  0
  158.0920  214.0180  149.3640 C   0  0  0  0  0  0  0  0  0  0  0  0
  161.7720  213.5310  145.5760 C   0  0  0  0  0  0  0  0  0  0  0  0
  162.4620  210.2060  148.4660 O   0  0  0  0  0  0  0  0  0  0  0  0
  161.6920  208.0530  149.1150 C   0  0  0  0  0  1  0  0  0  0  0  0
  161.9550  209.4800  149.5460 C   0  0  0  0  0  2  0  0  0  0  0  0
  1  5  1  6  0  0  0
  1 19  1  0  0  0  0
  2 16  1  0  0  0  0
  2 13  1  0  0  0  0
  3 17  1  0  0  0  0
  4  1  1  0  0  0  0
  7  9  1  0  0  0  0
  7 27  1  0  0  0  0
  8  6  1  0  0  0  0
  8 11  1  0  0  0  0
  9 22  1  0  0  0  0
 10  3  1  0  0  0  0
 11  5  1  0  0  0  0
 12  8  1  0  0  0  0
 12  4  1  0  0  0  0
 14  9  1  0  0  0  0
 15  7  1  0  0  0  0
 17 26  1  0  0  0  0
 18 13  2  0  0  0  0
 19  2  2  0  0  0  0
 20  4  1  0  0  0  0
 20 17  1  0  0  0  0
 21 10  2  0  0  0  0
 22 10  1  0  0  0  0
 22 20  1  0  0  0  0
 23 15  1  0  0  0  0
 23 14  1  0  0  0  0
 24 27  2  0  0  0  0
 25 18  1  0  0  0  0
 26 19  1  0  0  0  0
 26 25  2  0  0  0  0
 27 12  1  0  0  0  0
 28 11  1  0  0  0  0
 28 30  1  0  0  0  0
 29 30  1  0  0  0  0
M  END
>  <MODEL>
7

>  <REMARK>
 VINA RESULT:      -4.9      3.978      7.827
  Name = 
  2 active torsions:
  status: ('A' for Active; 'I' for Inactive)
    1  A    between atoms: C_11  and  O_28
    2  A    between atoms: O_28  and  C_30
                            x       y       z     vdW  Elec       q    Type
                         _______ _______ _______ _____ _____    ______ ____

>  <TORSDO>
F 2

$$$$
=
 OpenBabel11122412423D

 30 35  0  0  1  0  0  0  0  0999 V2000
  160.8880  205.6280  148.0250 C   0  0  2  0  0  3  0  0  0  0  0  0
  161.1180  207.1950  150.0220 C   0  0  0  0  0  0  0  0  0  0  0  0
  160.9550  202.3520  150.7160 N   0  0  0  0  0  2  0  0  0  0  0  0
  160.4890  204.2350  147.6040 N   0  0  1  0  0  0  0  0  0  0  0  0
  162.1870  206.1070  147.3600 C   0  0  0  0  0  2  0  0  0  0  0  0
  159.7710  205.6910  145.1520 O   0  0  0  0  0  1  0  0  0  0  0  0
  160.8130  201.4240  145.9750 N   0  0  0  0  0  0  0  0  0  0  0  0
  161.0490  205.1490  145.3030 C   0  0  1  0  0  3  0  0  0  0  0  0
  161.5020  201.1430  147.2230 C   0  0  2  0  0  3  0  0  0  0  0  0
  160.9890  201.3030  149.7590 C   0  0  0  0  0  0  0  0  0  0  0  0
  161.9950  206.2210  145.8480 C   0  0  2  0  0  3  0  0  0  0  0  0
  161.0110  203.9320  146.2440 C   0  0  2  0  0  3  0  0  0  0  0  0
  161.2460  207.4120  151.3590 N   0  0  0  0  0  0  0  0  0  0  0  0
  161.5240  199.6210  147.3180 C   0  0  0  0  0  2  0  0  0  0  0  0
  160.4510  200.2380  145.2280 C   0  0  0  0  0  2  0  0  0  0  0  0
  161.1540  208.2520  149.1730 F   0  0  0  0  0  0  0  0  0  0  0  0
  160.5210  203.4970  149.9420 C   0  0  2  0  0  3  0  0  0  0  0  0
  161.2050  206.3940  152.2580 C   0  0  0  0  0  3  0  0  0  0  0  0
  160.9560  205.8880  149.5290 C   0  0  0  0  0  0  0  0  0  0  0  0
  161.0650  203.2620  148.5510 C   0  0  1  0  0  3  0  0  0  0  0  0
  161.1610  200.0990  150.0880 O   0  0  0  0  0  0  0  0  0  0  0  0
  160.7040  201.7840  148.3670 C   0  0  1  0  0  3  0  0  0  0  0  0
  161.1080  199.0850  145.9560 C   0  0  0  0  0  2  0  0  0  0  0  0
  159.4250  202.8720  144.7810 O   0  0  0  0  0  0  0  0  0  0  0  0
  161.0230  205.0830  151.8210 C   0  0  0  0  0  3  0  0  0  0  0  0
  160.9230  204.8290  150.4510 C   0  0  0  0  0  0  0  0  0  0  0  0
  160.3640  202.7330  145.6110 C   0  0  0  0  0  0  0  0  0  0  0  0
  163.2350  206.1220  145.2150 O   0  0  0  0  0  0  0  0  0  0  0  0
  164.2500  204.1820  146.1390 C   0  0  0  0  0  1  0  0  0  0  0  0
  163.4230  204.7540  145.0070 C   0  0  0  0  0  2  0  0  0  0  0  0
  1  5  1  1  0  0  0
  1 19  1  0  0  0  0
  2 13  1  0  0  0  0
  4  1  1  0  0  0  0
  4 20  1  0  0  0  0
  6  8  1  0  0  0  0
  7  9  1  0  0  0  0
  8 11  1  0  0  0  0
  8 12  1  0  0  0  0
  9 14  1  0  0  0  0
  9 22  1  0  0  0  0
 10 21  2  0  0  0  0
 10  3  1  0  0  0  0
 11  5  1  0  0  0  0
 12  4  1  0  0  0  0
 13 18  2  0  0  0  0
 15 23  1  0  0  0  0
 15  7  1  0  0  0  0
 16  2  1  0  0  0  0
 17 26  1  0  0  0  0
 17  3  1  0  0  0  0
 19  2  2  0  0  0  0
 19 26  1  0  0  0  0
 20 17  1  0  0  0  0
 22 20  1  0  0  0  0
 22 10  1  0  0  0  0
 23 14  1  0  0  0  0
 24 27  2  0  0  0  0
 25 18  1  0  0  0  0
 26 25  2  0  0  0  0
 27  7  1  0  0  0  0
 27 12  1  0  0  0  0
 28 11  1  0  0  0  0
 30 28  1  0  0  0  0
 30 29  1  0  0  0  0
M  END
>  <MODEL>
8

>  <REMARK>
 VINA RESULT:      -4.2      5.420      8.880
  Name = 
  2 active torsions:
  status: ('A' for Active; 'I' for Inactive)
    1  A    between atoms: C_11  and  O_28
    2  A    between atoms: O_28  and  C_30
                            x       y       z     vdW  Elec       q    Type
                         _______ _______ _______ _____ _____    ______ ____

>  <TORSDO>
F 2

$$$$
=
 OpenBabel11122412423D

 30 35  0  0  1  0  0  0  0  0999 V2000
  161.0230  212.0540  150.7090 C   0  0  2  0  0  3  0  0  0  0  0  0
  160.7990  211.4520  153.1750 C   0  0  0  0  0  0  0  0  0  0  0  0
  157.1460  213.7610  150.8750 N   0  0  0  0  0  2  0  0  0  0  0  0
  160.4930  212.9470  149.6150 N   0  0  1  0  0  0  0  0  0  0  0  0
  161.2060  210.5970  150.2570 C   0  0  0  0  0  2  0  0  0  0  0  0
  163.2570  212.6320  148.6630 O   0  0  0  0  0  1  0  0  0  0  0  0
  159.4150  213.6350  146.6100 N   0  0  0  0  0  0  0  0  0  0  0  0
  162.2620  211.7420  148.2520 C   0  0  1  0  0  3  0  0  0  0  0  0
  158.1870  213.3110  147.3160 C   0  0  2  0  0  3  0  0  0  0  0  0
  156.9900  214.0480  149.4930 C   0  0  0  0  0  0  0  0  0  0  0  0
  162.2710  210.5130  149.1640 C   0  0  2  0  0  3  0  0  0  0  0  0
  160.8830  212.4240  148.2780 C   0  0  2  0  0  3  0  0  0  0  0  0
  160.0920  211.4280  154.3370 N   0  0  0  0  0  0  0  0  0  0  0  0
  157.0830  213.9540  146.4840 C   0  0  0  0  0  2  0  0  0  0  0  0
  159.2050  214.3630  145.3770 C   0  0  0  0  0  2  0  0  0  0  0  0
  162.0140  210.8530  153.1260 F   0  0  0  0  0  0  0  0  0  0  0  0
  158.5730  213.5540  151.0150 C   0  0  2  0  0  3  0  0  0  0  0  0
  158.8750  212.0230  154.4490 C   0  0  0  0  0  3  0  0  0  0  0  0
  160.2700  212.0880  152.0370 C   0  0  0  0  0  0  0  0  0  0  0  0
  159.0190  212.9780  149.6910 C   0  0  1  0  0  3  0  0  0  0  0  0
  155.9000  214.4530  149.0110 O   0  0  0  0  0  0  0  0  0  0  0  0
  158.2720  213.9060  148.7270 C   0  0  1  0  0  3  0  0  0  0  0  0
  157.7070  214.3680  145.1600 C   0  0  0  0  0  2  0  0  0  0  0  0
  161.7000  214.0950  146.7530 O   0  0  0  0  0  0  0  0  0  0  0  0
  158.3180  212.6860  153.3560 C   0  0  0  0  0  3  0  0  0  0  0  0
  159.0090  212.6960  152.1410 C   0  0  0  0  0  0  0  0  0  0  0  0
  160.7150  213.4280  147.1730 C   0  0  0  0  0  0  0  0  0  0  0  0
  162.0650  209.3600  148.4040 O   0  0  0  0  0  0  0  0  0  0  0  0
  161.2370  207.1530  148.7060 C   0  0  0  0  0  1  0  0  0  0  0  0
  161.9420  208.3320  149.3410 C   0  0  0  0  0  2  0  0  0  0  0  0
  1  5  1  6  0  0  0
  1 19  1  0  0  0  0
  2 13  1  0  0  0  0
  3 17  1  0  0  0  0
  4 20  1  0  0  0  0
  4  1  1  0  0  0  0
  7 27  1  0  0  0  0
  7  9  1  0  0  0  0
  8 12  1  0  0  0  0
  8  6  1  0  0  0  0
  8 11  1  0  0  0  0
  9 22  1  0  0  0  0
 10  3  1  0  0  0  0
 11  5  1  0  0  0  0
 12  4  1  0  0  0  0
 13 18  2  0  0  0  0
 14  9  1  0  0  0  0
 15  7  1  0  0  0  0
 16  2  1  0  0  0  0
 17 26  1  0  0  0  0
 19 26  1  0  0  0  0
 19  2  2  0  0  0  0
 20 17  1  0  0  0  0
 21 10  2  0  0  0  0
 22 10  1  0  0  0  0
 22 20  1  0  0  0  0
 23 15  1  0  0  0  0
 23 14  1  0  0  0  0
 24 27  2  0  0  0  0
 25 18  1  0  0  0  0
 26 25  2  0  0  0  0
 27 12  1  0  0  0  0
 28 11  1  0  0  0  0
 28 30  1  0  0  0  0
 29 30  1  0  0  0  0
M  END
>  <MODEL>
9

>  <REMARK>
 VINA RESULT:      -4.1      3.190      7.306
  Name = 
  2 active torsions:
  status: ('A' for Active; 'I' for Inactive)
    1  A    between atoms: C_11  and  O_28
    2  A    between atoms: O_28  and  C_30
                            x       y       z     vdW  Elec       q    Type
                         _______ _______ _______ _____ _____    ______ ____

>  <TORSDO>
F 2

$$$$
