=
 OpenBabel11122412393D

 30 35  0  0  1  0  0  0  0  0999 V2000
  161.5590  205.9680  149.9580 C   0  0  2  0  0  3  0  0  0  0  0  0
  161.1750  203.4490  149.6670 C   0  0  0  0  0  0  0  0  0  0  0  0
  160.9550  205.4080  154.0750 N   0  0  0  0  0  2  0  0  0  0  0  0
  161.0520  207.0620  150.9150 C   0  0  2  0  0  3  0  0  0  0  0  0
  160.8810  206.1400  148.7360 O   0  0  0  0  0  0  0  0  0  0  0  0
  161.5030  209.6210  148.3280 O   0  0  0  0  0  0  0  0  0  0  0  0
  160.4810  209.8820  152.1340 C   0  0  1  0  0  3  0  0  0  0  0  0
  161.3900  208.4920  148.8830 C   0  0  0  0  0  0  0  0  0  0  0  0
  160.4860  209.0540  153.4150 C   0  0  2  0  0  3  0  0  0  0  0  0
  160.4010  206.6850  154.2790 C   0  0  0  0  0  0  0  0  0  0  0  0
  161.4790  207.2260  148.0660 C   0  0  2  0  0  3  0  0  0  0  0  0
  161.3150  208.3860  150.3160 N   0  0  0  0  0  0  0  0  0  0  0  0
  161.0100  202.1740  150.2140 C   0  0  0  0  0  3  0  0  0  0  0  0
  161.4160  209.7530  154.3770 C   0  0  0  0  0  2  0  0  0  0  0  0
  160.6360  211.3060  152.6420 C   0  0  0  0  0  2  0  0  0  0  0  0
  161.2170  203.5690  148.2480 N   0  0  0  0  0  1  0  0  0  0  0  0
  161.7670  205.4850  152.8650 C   0  0  2  0  0  3  0  0  0  0  0  0
  161.0430  201.9870  151.5930 C   0  0  0  0  0  3  0  0  0  0  0  0
  161.3390  204.5770  150.5140 C   0  0  0  0  0  0  0  0  0  0  0  0
  161.6350  206.9440  152.3290 C   0  0  2  0  0  3  0  0  0  0  0  0
  159.6670  206.9640  155.2630 O   0  0  0  0  0  0  0  0  0  0  0  0
  160.7590  207.6210  153.2840 N   0  0  0  0  0  0  0  0  0  0  0  0
  161.3110  211.2250  154.0100 C   0  0  0  0  0  2  0  0  0  0  0  0
  163.0180  209.5800  151.6590 C   0  0  0  0  0  1  0  0  0  0  0  0
  161.2620  203.0770  152.4310 C   0  0  0  0  0  3  0  0  0  0  0  0
  161.4100  204.3710  151.9110 C   0  0  0  0  0  0  0  0  0  0  0  0
  161.5920  209.5800  151.1140 C   0  0  2  0  0  3  0  0  0  0  0  0
  160.8820  207.3780  146.6630 C   0  0  0  0  0  2  0  0  0  0  0  0
  162.1890  205.6320  145.4340 C   0  0  0  0  0  1  0  0  0  0  0  0
  160.8090  206.0600  145.9000 C   0  0  0  0  0  2  0  0  0  0  0  0
  1  5  1  6  0  0  0
  1 19  1  0  0  0  0
  1  4  1  0  0  0  0
  2 13  2  0  0  0  0
  2 19  1  0  0  0  0
  3 10  1  0  0  0  0
  4 12  1  6  0  0  0
  4 20  1  0  0  0  0
  6  8  2  0  0  0  0
  7 15  1  1  0  0  0
  7  9  1  0  0  0  0
  8 12  1  0  0  0  0
  9 14  1  1  0  0  0
 10 21  2  0  0  0  0
 11 28  1  6  0  0  0
 11  5  1  0  0  0  0
 11  8  1  0  0  0  0
 12 27  1  0  0  0  0
 13 18  1  0  0  0  0
 15 23  1  0  0  0  0
 16  2  1  0  0  0  0
 17 26  1  6  0  0  0
 17  3  1  0  0  0  0
 18 25  2  0  0  0  0
 19 26  2  0  0  0  0
 20 17  1  0  0  0  0
 20 22  1  1  0  0  0
 22  9  1  0  0  0  0
 22 10  1  0  0  0  0
 23 14  1  0  0  0  0
 26 25  1  0  0  0  0
 27 24  1  1  0  0  0
 27  7  1  0  0  0  0
 29 30  1  0  0  0  0
 30 28  1  0  0  0  0
M  END
>  <MODEL>
1

>  <REMARK>
 VINA RESULT:      -7.0      0.000      0.000
  Name = 
  2 active torsions:
  status: ('A' for Active; 'I' for Inactive)
    1  A    between atoms: C_11  and  C_28
    2  A    between atoms: C_28  and  C_30
                            x       y       z     vdW  Elec       q    Type
                         _______ _______ _______ _____ _____    ______ ____

>  <TORSDO>
F 2

$$$$
=
 OpenBabel11122412393D

 30 35  0  0  1  0  0  0  0  0999 V2000
  161.6210  208.1840  151.5880 C   0  0  2  0  0  3  0  0  0  0  0  0
  161.5960  210.6870  151.0290 C   0  0  0  0  0  0  0  0  0  0  0  0
  161.7270  207.4400  147.4580 N   0  0  0  0  0  2  0  0  0  0  0  0
  161.0980  206.8970  150.9280 C   0  0  2  0  0  3  0  0  0  0  0  0
  160.7520  208.4870  152.6540 O   0  0  0  0  0  0  0  0  0  0  0  0
  160.7570  205.2820  154.2020 O   0  0  0  0  0  0  0  0  0  0  0  0
  160.2810  203.9070  150.5300 C   0  0  1  0  0  3  0  0  0  0  0  0
  160.9050  206.1750  153.3220 C   0  0  0  0  0  0  0  0  0  0  0  0
  160.6040  204.2700  149.0840 C   0  0  2  0  0  3  0  0  0  0  0  0
  161.0180  206.2280  147.5470 C   0  0  0  0  0  0  0  0  0  0  0  0
  161.0680  207.6210  153.7210 C   0  0  2  0  0  3  0  0  0  0  0  0
  161.0590  205.8190  151.9360 N   0  0  0  0  0  0  0  0  0  0  0  0
  161.7140  211.7260  150.1020 C   0  0  0  0  0  3  0  0  0  0  0  0
  161.5460  203.2070  148.5720 C   0  0  0  0  0  2  0  0  0  0  0  0
  160.2860  202.3870  150.5140 C   0  0  0  0  0  2  0  0  0  0  0  0
  161.4080  211.0300  152.3990 N   0  0  0  0  0  1  0  0  0  0  0  0
  162.3300  207.6770  148.7660 C   0  0  2  0  0  3  0  0  0  0  0  0
  161.9790  211.4520  148.7640 C   0  0  0  0  0  3  0  0  0  0  0  0
  161.7050  209.3350  150.6080 C   0  0  0  0  0  0  0  0  0  0  0  0
  161.8940  206.4910  149.6820 C   0  0  2  0  0  3  0  0  0  0  0  0
  160.4020  205.7210  146.5720 O   0  0  0  0  0  0  0  0  0  0  0  0
  161.0750  205.6330  148.8260 N   0  0  0  0  0  0  0  0  0  0  0  0
  161.1600  201.9520  149.3380 C   0  0  0  0  0  2  0  0  0  0  0  0
  162.7360  204.0890  151.3640 C   0  0  0  0  0  1  0  0  0  0  0  0
  162.1470  210.1330  148.3500 C   0  0  0  0  0  3  0  0  0  0  0  0
  162.0130  209.0690  149.2540 C   0  0  0  0  0  0  0  0  0  0  0  0
  161.2620  204.4090  151.6020 C   0  0  2  0  0  3  0  0  0  0  0  0
  160.2540  207.9930  154.9640 C   0  0  0  0  0  2  0  0  0  0  0  0
  160.4280  207.0110  157.2610 C   0  0  0  0  0  1  0  0  0  0  0  0
  161.0730  207.9430  156.2500 C   0  0  0  0  0  2  0  0  0  0  0  0
  1 19  1  6  0  0  0
  1  5  1  0  0  0  0
  2 16  1  0  0  0  0
  3 10  1  0  0  0  0
  4  1  1  0  0  0  0
  4 12  1  1  0  0  0
  5 11  1  0  0  0  0
  7 15  1  6  0  0  0
  7 27  1  0  0  0  0
  8 11  1  0  0  0  0
  8  6  2  0  0  0  0
  9 14  1  1  0  0  0
  9  7  1  0  0  0  0
 10 22  1  0  0  0  0
 11 28  1  1  0  0  0
 12  8  1  0  0  0  0
 13  2  2  0  0  0  0
 14 23  1  0  0  0  0
 17  3  1  6  0  0  0
 17 26  1  0  0  0  0
 17 20  1  0  0  0  0
 18 13  1  0  0  0  0
 19  2  1  0  0  0  0
 20 22  1  6  0  0  0
 20  4  1  0  0  0  0
 21 10  2  0  0  0  0
 22  9  1  0  0  0  0
 23 15  1  0  0  0  0
 25 18  2  0  0  0  0
 25 26  1  0  0  0  0
 26 19  2  0  0  0  0
 27 24  1  6  0  0  0
 27 12  1  0  0  0  0
 28 30  1  0  0  0  0
 30 29  1  0  0  0  0
M  END
>  <MODEL>
2

>  <REMARK>
 VINA RESULT:      -6.5      1.887      7.171
  Name = 
  2 active torsions:
  status: ('A' for Active; 'I' for Inactive)
    1  A    between atoms: C_11  and  C_28
    2  A    between atoms: C_28  and  C_30
                            x       y       z     vdW  Elec       q    Type
                         _______ _______ _______ _____ _____    ______ ____

>  <TORSDO>
F 2

$$$$
=
 OpenBabel11122412393D

 30 35  0  0  1  0  0  0  0  0999 V2000
  161.2180  208.4610  151.4570 C   0  0  2  0  0  3  0  0  0  0  0  0
  161.3940  209.2270  153.8980 C   0  0  0  0  0  0  0  0  0  0  0  0
  161.0010  204.5210  152.8910 N   0  0  0  0  0  2  0  0  0  0  0  0
  161.6480  207.2230  150.6510 C   0  0  2  0  0  3  0  0  0  0  0  0
  162.1210  209.4940  151.1430 O   0  0  0  0  0  0  0  0  0  0  0  0
  161.9360  209.2320  147.5980 O   0  0  0  0  0  0  0  0  0  0  0  0
  162.2660  205.3470  148.2300 C   0  0  1  0  0  3  0  0  0  0  0  0
  161.8320  208.9240  148.8180 C   0  0  0  0  0  0  0  0  0  0  0  0
  161.9450  204.2930  149.2840 C   0  0  2  0  0  3  0  0  0  0  0  0
  161.6330  203.9610  151.7650 C   0  0  0  0  0  0  0  0  0  0  0  0
  161.7670  210.0000  149.8750 C   0  0  2  0  0  3  0  0  0  0  0  0
  161.6330  207.5540  149.2120 N   0  0  0  0  0  0  0  0  0  0  0  0
  161.3280  208.9500  155.2670 C   0  0  0  0  0  3  0  0  0  0  0  0
  160.9290  203.3620  148.6670 C   0  0  0  0  0  2  0  0  0  0  0  0
  162.1640  204.5740  146.9250 C   0  0  0  0  0  2  0  0  0  0  0  0
  161.6250  210.5750  153.4980 N   0  0  0  0  0  1  0  0  0  0  0  0
  160.4350  205.7990  152.4680 C   0  0  2  0  0  3  0  0  0  0  0  0
  161.0250  207.6670  155.7130 C   0  0  0  0  0  3  0  0  0  0  0  0
  161.1930  208.1930  152.9470 C   0  0  0  0  0  0  0  0  0  0  0  0
  160.8080  205.9780  150.9640 C   0  0  2  0  0  3  0  0  0  0  0  0
  162.1990  202.8360  151.7870 O   0  0  0  0  0  0  0  0  0  0  0  0
  161.5580  204.7720  150.6130 N   0  0  0  0  0  0  0  0  0  0  0  0
  161.2460  203.3800  147.1800 C   0  0  0  0  0  2  0  0  0  0  0  0
  159.8410  206.2710  148.0850 C   0  0  0  0  0  1  0  0  0  0  0  0
  160.7670  206.6580  154.7900 C   0  0  0  0  0  3  0  0  0  0  0  0
  160.8470  206.9030  153.4110 C   0  0  0  0  0  0  0  0  0  0  0  0
  161.3360  206.5700  148.1720 C   0  0  2  0  0  3  0  0  0  0  0  0
  162.6230  211.2240  149.5330 C   0  0  0  0  0  2  0  0  0  0  0  0
  162.6570  212.8800  147.6560 C   0  0  0  0  0  1  0  0  0  0  0  0
  161.8420  212.3120  148.8050 C   0  0  0  0  0  2  0  0  0  0  0  0
  1  5  1  1  0  0  0
  1 19  1  0  0  0  0
  2 13  1  0  0  0  0
  4 12  1  6  0  0  0
  4 20  1  0  0  0  0
  4  1  1  0  0  0  0
  6  8  2  0  0  0  0
  7 15  1  6  0  0  0
  7  9  1  0  0  0  0
  8 12  1  0  0  0  0
  8 11  1  0  0  0  0
  9 14  1  6  0  0  0
  9 22  1  0  0  0  0
 10 21  2  0  0  0  0
 10  3  1  0  0  0  0
 11 28  1  6  0  0  0
 11  5  1  0  0  0  0
 13 18  2  0  0  0  0
 15 23  1  0  0  0  0
 16  2  1  0  0  0  0
 17  3  1  1  0  0  0
 17 26  1  0  0  0  0
 19 26  1  0  0  0  0
 19  2  2  0  0  0  0
 20 22  1  1  0  0  0
 20 17  1  0  0  0  0
 22 10  1  0  0  0  0
 23 14  1  0  0  0  0
 25 18  1  0  0  0  0
 26 25  2  0  0  0  0
 27 24  1  1  0  0  0
 27  7  1  0  0  0  0
 27 12  1  0  0  0  0
 29 30  1  0  0  0  0
 30 28  1  0  0  0  0
M  END
>  <MODEL>
3

>  <REMARK>
 VINA RESULT:      -6.1      2.076      5.594
  Name = 
  2 active torsions:
  status: ('A' for Active; 'I' for Inactive)
    1  A    between atoms: C_11  and  C_28
    2  A    between atoms: C_28  and  C_30
                            x       y       z     vdW  Elec       q    Type
                         _______ _______ _______ _____ _____    ______ ____

>  <TORSDO>
F 2

$$$$
=
 OpenBabel11122412393D

 30 35  0  0  1  0  0  0  0  0999 V2000
  161.7340  207.6700  151.1240 C   0  0  2  0  0  3  0  0  0  0  0  0
  161.3790  205.4250  149.9360 C   0  0  0  0  0  0  0  0  0  0  0  0
  160.5030  205.7890  154.6700 N   0  0  0  0  0  2  0  0  0  0  0  0
  161.0960  208.4040  152.3160 C   0  0  2  0  0  3  0  0  0  0  0  0
  161.2530  208.2850  149.9530 O   0  0  0  0  0  0  0  0  0  0  0  0
  161.9580  211.6550  150.8550 O   0  0  0  0  0  0  0  0  0  0  0  0
  160.3680  210.6750  154.3360 C   0  0  1  0  0  3  0  0  0  0  0  0
  161.7530  210.4140  150.9670 C   0  0  0  0  0  0  0  0  0  0  0  0
  160.1710  209.4650  155.2420 C   0  0  2  0  0  3  0  0  0  0  0  0
  159.9350  206.9530  155.2200 C   0  0  0  0  0  0  0  0  0  0  0  0
  161.9560  209.4960  149.7870 C   0  0  2  0  0  3  0  0  0  0  0  0
  161.4580  209.8350  152.2520 N   0  0  0  0  0  0  0  0  0  0  0  0
  161.1210  204.0520  149.9830 C   0  0  0  0  0  3  0  0  0  0  0  0
  160.9490  209.7410  156.5060 C   0  0  0  0  0  2  0  0  0  0  0  0
  160.4560  211.8320  155.3170 C   0  0  0  0  0  2  0  0  0  0  0  0
  161.6380  206.0150  148.6650 N   0  0  0  0  0  1  0  0  0  0  0  0
  161.4910  206.2210  153.6870 C   0  0  2  0  0  3  0  0  0  0  0  0
  160.9420  203.4100  151.2040 C   0  0  0  0  0  3  0  0  0  0  0  0
  161.4200  206.1890  151.1320 C   0  0  0  0  0  0  0  0  0  0  0  0
  161.4550  207.7810  153.6710 C   0  0  2  0  0  3  0  0  0  0  0  0
  159.0610  206.9270  156.1260 O   0  0  0  0  0  0  0  0  0  0  0  0
  160.4490  208.1470  154.6680 N   0  0  0  0  0  0  0  0  0  0  0  0
  160.9130  211.2530  156.6560 C   0  0  0  0  0  2  0  0  0  0  0  0
  162.9460  210.4000  154.1480 C   0  0  0  0  0  1  0  0  0  0  0  0
  161.0380  204.1370  152.3870 C   0  0  0  0  0  3  0  0  0  0  0  0
  161.2750  205.5190  152.3690 C   0  0  0  0  0  0  0  0  0  0  0  0
  161.6200  210.6700  153.4420 C   0  0  2  0  0  3  0  0  0  0  0  0
  161.5810  210.1480  148.4520 C   0  0  0  0  0  2  0  0  0  0  0  0
  161.4330  212.4520  147.4840 C   0  0  0  0  0  1  0  0  0  0  0  0
  162.3270  211.4540  148.1970 C   0  0  0  0  0  2  0  0  0  0  0  0
  1  5  1  6  0  0  0
  1 19  1  0  0  0  0
  1  4  1  0  0  0  0
  2 13  2  0  0  0  0
  2 19  1  0  0  0  0
  3 10  1  0  0  0  0
  4 12  1  1  0  0  0
  4 20  1  0  0  0  0
  6  8  2  0  0  0  0
  7  9  1  0  0  0  0
  7 15  1  1  0  0  0
  8 12  1  0  0  0  0
  9 14  1  1  0  0  0
 10 21  2  0  0  0  0
 11 28  1  6  0  0  0
 11  5  1  0  0  0  0
 11  8  1  0  0  0  0
 12 27  1  0  0  0  0
 13 18  1  0  0  0  0
 14 23  1  0  0  0  0
 15 23  1  0  0  0  0
 16  2  1  0  0  0  0
 17 26  1  6  0  0  0
 17  3  1  0  0  0  0
 18 25  2  0  0  0  0
 19 26  2  0  0  0  0
 20 17  1  0  0  0  0
 20 22  1  1  0  0  0
 22 10  1  0  0  0  0
 22  9  1  0  0  0  0
 26 25  1  0  0  0  0
 27 24  1  1  0  0  0
 27  7  1  0  0  0  0
 29 30  1  0  0  0  0
 30 28  1  0  0  0  0
M  END
>  <MODEL>
4

>  <REMARK>
 VINA RESULT:      -5.7      1.915      2.706
  Name = 
  2 active torsions:
  status: ('A' for Active; 'I' for Inactive)
    1  A    between atoms: C_11  and  C_28
    2  A    between atoms: C_28  and  C_30
                            x       y       z     vdW  Elec       q    Type
                         _______ _______ _______ _____ _____    ______ ____

>  <TORSDO>
F 2

$$$$
=
 OpenBabel11122412393D

 30 35  0  0  1  0  0  0  0  0999 V2000
  160.3930  212.3470  152.0320 C   0  0  2  0  0  3  0  0  0  0  0  0
  160.5170  213.2200  149.6250 C   0  0  0  0  0  0  0  0  0  0  0  0
  162.0500  208.7530  150.6300 N   0  0  0  0  0  2  0  0  0  0  0  0
  160.1850  210.9780  152.7050 C   0  0  2  0  0  3  0  0  0  0  0  0
  159.1820  213.0550  152.1510 O   0  0  0  0  0  0  0  0  0  0  0  0
  158.6870  212.5790  155.6440 O   0  0  0  0  0  0  0  0  0  0  0  0
  159.6500  208.8210  154.9010 C   0  0  1  0  0  3  0  0  0  0  0  0
  159.1310  212.4090  154.4730 C   0  0  0  0  0  0  0  0  0  0  0  0
  160.4790  207.9860  153.9310 C   0  0  2  0  0  3  0  0  0  0  0  0
  161.3890  207.9510  151.5780 C   0  0  0  0  0  0  0  0  0  0  0  0
  159.0980  213.5380  153.4730 C   0  0  2  0  0  3  0  0  0  0  0  0
  159.8000  211.1870  154.1150 N   0  0  0  0  0  0  0  0  0  0  0  0
  160.9460  213.0810  148.3020 C   0  0  0  0  0  3  0  0  0  0  0  0
  161.5710  207.3350  154.7460 C   0  0  0  0  0  2  0  0  0  0  0  0
  159.6980  208.0090  156.1840 C   0  0  0  0  0  2  0  0  0  0  0  0
  159.8230  214.4120  149.9810 N   0  0  0  0  0  1  0  0  0  0  0  0
  162.1160  210.1020  151.1860 C   0  0  2  0  0  3  0  0  0  0  0  0
  161.6980  211.9750  147.9170 C   0  0  0  0  0  3  0  0  0  0  0  0
  160.8080  212.2140  150.5830 C   0  0  0  0  0  0  0  0  0  0  0  0
  161.3990  210.0500  152.5710 C   0  0  2  0  0  3  0  0  0  0  0  0
  161.1950  206.7180  151.4140 O   0  0  0  0  0  0  0  0  0  0  0  0
  160.9790  208.6580  152.7290 N   0  0  0  0  0  0  0  0  0  0  0  0
  160.9570  207.1460  156.1250 C   0  0  0  0  0  2  0  0  0  0  0  0
  161.6110  210.3780  155.5970 C   0  0  0  0  0  1  0  0  0  0  0  0
  162.0410  211.0110  148.8610 C   0  0  0  0  0  3  0  0  0  0  0  0
  161.6050  211.1150  150.1900 C   0  0  0  0  0  0  0  0  0  0  0  0
  160.1470  210.2480  155.1820 C   0  0  2  0  0  3  0  0  0  0  0  0
  157.8690  214.4400  153.6310 C   0  0  0  0  0  2  0  0  0  0  0  0
  155.5630  213.4990  153.8780 C   0  0  0  0  0  1  0  0  0  0  0  0
  156.6430  213.9120  152.8940 C   0  0  0  0  0  2  0  0  0  0  0  0
  1 19  1  6  0  0  0
  1  5  1  0  0  0  0
  1  4  1  0  0  0  0
  2 16  1  0  0  0  0
  2 19  1  0  0  0  0
  3 17  1  0  0  0  0
  3 10  1  0  0  0  0
  4 12  1  1  0  0  0
  5 11  1  0  0  0  0
  7 27  1  0  0  0  0
  7 15  1  1  0  0  0
  8  6  2  0  0  0  0
  9 14  1  1  0  0  0
  9  7  1  0  0  0  0
 10 22  1  0  0  0  0
 11 28  1  6  0  0  0
 11  8  1  0  0  0  0
 12  8  1  0  0  0  0
 12 27  1  0  0  0  0
 13  2  2  0  0  0  0
 14 23  1  0  0  0  0
 17 26  1  6  0  0  0
 17 20  1  0  0  0  0
 18 13  1  0  0  0  0
 18 25  2  0  0  0  0
 20  4  1  0  0  0  0
 20 22  1  6  0  0  0
 21 10  2  0  0  0  0
 22  9  1  0  0  0  0
 23 15  1  0  0  0  0
 25 26  1  0  0  0  0
 26 19  2  0  0  0  0
 27 24  1  6  0  0  0
 30 28  1  0  0  0  0
 30 29  1  0  0  0  0
M  END
>  <MODEL>
5

>  <REMARK>
 VINA RESULT:      -5.4      3.546      7.272
  Name = 
  2 active torsions:
  status: ('A' for Active; 'I' for Inactive)
    1  A    between atoms: C_11  and  C_28
    2  A    between atoms: C_28  and  C_30
                            x       y       z     vdW  Elec       q    Type
                         _______ _______ _______ _____ _____    ______ ____

>  <TORSDO>
F 2

$$$$
=
 OpenBabel11122412393D

 30 35  0  0  1  0  0  0  0  0999 V2000
  160.7520  203.7860  147.9290 C   0  0  2  0  0  3  0  0  0  0  0  0
  161.0000  203.9400  145.3820 C   0  0  0  0  0  0  0  0  0  0  0  0
  161.2660  207.9510  148.0570 N   0  0  0  0  0  2  0  0  0  0  0  0
  161.3040  204.5530  149.1440 C   0  0  2  0  0  3  0  0  0  0  0  0
  161.4550  202.5690  147.8530 O   0  0  0  0  0  0  0  0  0  0  0  0
  161.0320  201.5550  151.2380 O   0  0  0  0  0  0  0  0  0  0  0  0
  162.0120  205.2840  152.0980 C   0  0  1  0  0  3  0  0  0  0  0  0
  161.0740  202.2980  150.2180 C   0  0  0  0  0  0  0  0  0  0  0  0
  161.9440  206.6870  151.5060 C   0  0  2  0  0  3  0  0  0  0  0  0
  161.8860  207.9460  149.3200 C   0  0  0  0  0  0  0  0  0  0  0  0
  160.9270  201.7080  148.8370 C   0  0  2  0  0  3  0  0  0  0  0  0
  161.1230  203.7300  150.3570 N   0  0  0  0  0  0  0  0  0  0  0  0
  161.0870  204.7020  144.2130 C   0  0  0  0  0  3  0  0  0  0  0  0
  161.0400  207.4930  152.4070 C   0  0  0  0  0  2  0  0  0  0  0  0
  161.9280  205.5360  153.5950 C   0  0  0  0  0  2  0  0  0  0  0  0
  160.9860  202.5210  145.2570 N   0  0  0  0  0  1  0  0  0  0  0  0
  160.4760  206.7270  147.9660 C   0  0  2  0  0  3  0  0  0  0  0  0
  161.0240  206.0910  144.2690 C   0  0  0  0  0  3  0  0  0  0  0  0
  160.8870  204.5770  146.6460 C   0  0  0  0  0  0  0  0  0  0  0  0
  160.6960  205.9520  149.3020 C   0  0  2  0  0  3  0  0  0  0  0  0
  162.6200  208.8850  149.7260 O   0  0  0  0  0  0  0  0  0  0  0  0
  161.5940  206.7980  150.0880 N   0  0  0  0  0  0  0  0  0  0  0  0
  161.2310  206.8820  153.7860 C   0  0  0  0  0  2  0  0  0  0  0  0
  159.4690  204.8080  151.8510 C   0  0  0  0  0  1  0  0  0  0  0  0
  160.8540  206.7250  145.4970 C   0  0  0  0  0  3  0  0  0  0  0  0
  160.7850  205.9860  146.6880 C   0  0  0  0  0  0  0  0  0  0  0  0
  160.9010  204.3050  151.6840 C   0  0  2  0  0  3  0  0  0  0  0  0
  161.5520  200.3150  148.7130 C   0  0  0  0  0  2  0  0  0  0  0  0
  161.2420  199.3460  146.4260 C   0  0  0  0  0  1  0  0  0  0  0  0
  162.2000  200.0710  147.3550 C   0  0  0  0  0  2  0  0  0  0  0  0
  1 19  1  6  0  0  0
  1  4  1  0  0  0  0
  2 19  1  0  0  0  0
  3 10  1  0  0  0  0
  4 20  1  0  0  0  0
  4 12  1  1  0  0  0
  5  1  1  0  0  0  0
  5 11  1  0  0  0  0
  7 15  1  1  0  0  0
  8 12  1  0  0  0  0
  8  6  2  0  0  0  0
  9  7  1  0  0  0  0
  9 14  1  1  0  0  0
 10 21  2  0  0  0  0
 10 22  1  0  0  0  0
 11 28  1  1  0  0  0
 11  8  1  0  0  0  0
 12 27  1  0  0  0  0
 13 18  1  0  0  0  0
 13  2  2  0  0  0  0
 14 23  1  0  0  0  0
 15 23  1  0  0  0  0
 16  2  1  0  0  0  0
 17 26  1  6  0  0  0
 17  3  1  0  0  0  0
 17 20  1  0  0  0  0
 18 25  2  0  0  0  0
 19 26  2  0  0  0  0
 20 22  1  1  0  0  0
 22  9  1  0  0  0  0
 25 26  1  0  0  0  0
 27 24  1  6  0  0  0
 27  7  1  0  0  0  0
 29 30  1  0  0  0  0
 30 28  1  0  0  0  0
M  END
>  <MODEL>
6

>  <REMARK>
 VINA RESULT:      -5.1      2.436      5.512
  Name = 
  2 active torsions:
  status: ('A' for Active; 'I' for Inactive)
    1  A    between atoms: C_11  and  C_28
    2  A    between atoms: C_28  and  C_30
                            x       y       z     vdW  Elec       q    Type
                         _______ _______ _______ _____ _____    ______ ____

>  <TORSDO>
F 2

$$$$
=
 OpenBabel11122412393D

 30 35  0  0  1  0  0  0  0  0999 V2000
  161.6450  208.1430  151.5350 C   0  0  2  0  0  3  0  0  0  0  0  0
  160.9700  206.9620  153.7090 C   0  0  0  0  0  0  0  0  0  0  0  0
  160.4560  211.7480  153.3290 N   0  0  0  0  0  2  0  0  0  0  0  0
  161.1710  209.3820  150.7550 C   0  0  2  0  0  3  0  0  0  0  0  0
  161.1560  207.0120  150.8530 O   0  0  0  0  0  0  0  0  0  0  0  0
  162.2810  207.8940  147.5930 O   0  0  0  0  0  0  0  0  0  0  0  0
  160.8300  211.4660  148.4520 C   0  0  1  0  0  3  0  0  0  0  0  0
  161.9500  208.0090  148.8060 C   0  0  0  0  0  0  0  0  0  0  0  0
  160.5630  212.3730  149.6480 C   0  0  2  0  0  3  0  0  0  0  0  0
  160.0560  212.3450  152.1190 C   0  0  0  0  0  0  0  0  0  0  0  0
  161.9730  206.8100  149.7220 C   0  0  2  0  0  3  0  0  0  0  0  0
  161.6810  209.3050  149.3710 N   0  0  0  0  0  0  0  0  0  0  0  0
  160.5690  207.0140  155.0460 C   0  0  0  0  0  3  0  0  0  0  0  0
  161.4490  213.5840  149.4780 C   0  0  0  0  0  2  0  0  0  0  0  0
  161.1080  212.4490  147.3270 C   0  0  0  0  0  2  0  0  0  0  0  0
  161.2060  205.6810  153.1300 N   0  0  0  0  0  1  0  0  0  0  0  0
  161.4180  210.7030  152.9900 C   0  0  2  0  0  3  0  0  0  0  0  0
  160.4030  208.2390  155.6860 C   0  0  0  0  0  3  0  0  0  0  0  0
  161.1730  208.1590  152.9730 C   0  0  0  0  0  0  0  0  0  0  0  0
  161.5500  210.7030  151.4350 C   0  0  2  0  0  3  0  0  0  0  0  0
  159.2470  213.3080  152.0660 O   0  0  0  0  0  0  0  0  0  0  0  0
  160.6580  211.7700  150.9790 N   0  0  0  0  0  0  0  0  0  0  0  0
  161.5880  213.7480  147.9730 C   0  0  0  0  0  2  0  0  0  0  0  0
  163.3440  211.1010  149.0000 C   0  0  0  0  0  1  0  0  0  0  0  0
  160.6560  209.4190  154.9920 C   0  0  0  0  0  3  0  0  0  0  0  0
  161.0400  209.3970  153.6430 C   0  0  0  0  0  0  0  0  0  0  0  0
  162.0110  210.4890  148.5770 C   0  0  2  0  0  3  0  0  0  0  0  0
  161.5830  205.5090  149.0120 C   0  0  0  0  0  2  0  0  0  0  0  0
  160.8310  203.1420  149.3210 C   0  0  0  0  0  1  0  0  0  0  0  0
  160.8310  204.5380  149.9160 C   0  0  0  0  0  2  0  0  0  0  0  0
  1  5  1  6  0  0  0
  1 19  1  0  0  0  0
  2 13  1  0  0  0  0
  4 12  1  6  0  0  0
  4 20  1  0  0  0  0
  4  1  1  0  0  0  0
  6  8  2  0  0  0  0
  7 15  1  6  0  0  0
  7 27  1  0  0  0  0
  7  9  1  0  0  0  0
  8 12  1  0  0  0  0
  8 11  1  0  0  0  0
  9 14  1  1  0  0  0
  9 22  1  0  0  0  0
 10  3  1  0  0  0  0
 11 28  1  6  0  0  0
 11  5  1  0  0  0  0
 13 18  2  0  0  0  0
 15 23  1  0  0  0  0
 16  2  1  0  0  0  0
 17  3  1  6  0  0  0
 17 26  1  0  0  0  0
 19 26  1  0  0  0  0
 19  2  2  0  0  0  0
 20 22  1  6  0  0  0
 20 17  1  0  0  0  0
 21 10  2  0  0  0  0
 22 10  1  0  0  0  0
 23 14  1  0  0  0  0
 25 18  1  0  0  0  0
 26 25  2  0  0  0  0
 27 24  1  1  0  0  0
 27 12  1  0  0  0  0
 28 30  1  0  0  0  0
 29 30  1  0  0  0  0
M  END
>  <MODEL>
7

>  <REMARK>
 VINA RESULT:      -5.0      2.503      4.818
  Name = 
  2 active torsions:
  status: ('A' for Active; 'I' for Inactive)
    1  A    between atoms: C_11  and  C_28
    2  A    between atoms: C_28  and  C_30
                            x       y       z     vdW  Elec       q    Type
                         _______ _______ _______ _____ _____    ______ ____

>  <TORSDO>
F 2

$$$$
=
 OpenBabel11122412393D

 30 35  0  0  1  0  0  0  0  0999 V2000
  160.1670  211.8470  152.3150 C   0  0  2  0  0  3  0  0  0  0  0  0
  159.6570  213.8020  150.7360 C   0  0  0  0  0  0  0  0  0  0  0  0
  162.0390  209.9450  149.0740 N   0  0  0  0  0  2  0  0  0  0  0  0
  160.3170  210.3220  152.1770 C   0  0  2  0  0  3  0  0  0  0  0  0
  158.9110  212.0880  152.9040 O   0  0  0  0  0  0  0  0  0  0  0  0
  159.2230  209.8360  155.6430 O   0  0  0  0  0  0  0  0  0  0  0  0
  160.5850  207.3030  152.9360 C   0  0  1  0  0  3  0  0  0  0  0  0
  159.4380  210.3830  154.5250 C   0  0  0  0  0  0  0  0  0  0  0  0
  161.3180  207.2880  151.5990 C   0  0  2  0  0  3  0  0  0  0  0  0
  161.7200  208.6460  149.5110 C   0  0  0  0  0  0  0  0  0  0  0  0
  159.0260  211.8140  154.2820 C   0  0  2  0  0  3  0  0  0  0  0  0
  160.2020  209.7020  153.5120 N   0  0  0  0  0  0  0  0  0  0  0  0
  159.8230  214.4470  149.5070 C   0  0  0  0  0  3  0  0  0  0  0  0
  162.6410  206.6000  151.8390 C   0  0  0  0  0  2  0  0  0  0  0  0
  161.0210  205.9990  153.5840 C   0  0  0  0  0  2  0  0  0  0  0  0
  158.8740  214.4520  151.7330 N   0  0  0  0  0  1  0  0  0  0  0  0
  162.0070  210.8090  150.2510 C   0  0  2  0  0  3  0  0  0  0  0  0
  160.6420  213.8960  148.5260 C   0  0  0  0  0  3  0  0  0  0  0  0
  160.2910  212.5560  150.9840 C   0  0  0  0  0  0  0  0  0  0  0  0
  161.6060  209.9050  151.4590 C   0  0  2  0  0  3  0  0  0  0  0  0
  161.6900  207.6520  148.7380 O   0  0  0  0  0  0  0  0  0  0  0  0
  161.4500  208.5650  150.8940 N   0  0  0  0  0  0  0  0  0  0  0  0
  162.3600  205.6110  152.9580 C   0  0  0  0  0  2  0  0  0  0  0  0
  162.3810  208.7250  154.1630 C   0  0  0  0  0  1  0  0  0  0  0  0
  161.3160  212.7050  148.7790 C   0  0  0  0  0  3  0  0  0  0  0  0
  161.1520  212.0260  149.9960 C   0  0  0  0  0  0  0  0  0  0  0  0
  160.9020  208.4720  153.8830 C   0  0  2  0  0  3  0  0  0  0  0  0
  157.7310  212.1940  155.0080 C   0  0  0  0  0  2  0  0  0  0  0  0
  155.6990  210.8150  155.4970 C   0  0  0  0  0  1  0  0  0  0  0  0
  156.4970  211.5220  154.4150 C   0  0  0  0  0  2  0  0  0  0  0  0
  1 19  1  6  0  0  0
  1  5  1  0  0  0  0
  2 19  1  0  0  0  0
  2 16  1  0  0  0  0
  3 10  1  0  0  0  0
  4  1  1  0  0  0  0
  4 12  1  1  0  0  0
  5 11  1  0  0  0  0
  7 15  1  1  0  0  0
  7 27  1  0  0  0  0
  8  6  2  0  0  0  0
  9 14  1  1  0  0  0
  9  7  1  0  0  0  0
 10 22  1  0  0  0  0
 11  8  1  0  0  0  0
 11 28  1  1  0  0  0
 12 27  1  0  0  0  0
 12  8  1  0  0  0  0
 13  2  2  0  0  0  0
 14 23  1  0  0  0  0
 17  3  1  6  0  0  0
 17 20  1  0  0  0  0
 18 25  2  0  0  0  0
 18 13  1  0  0  0  0
 20 22  1  6  0  0  0
 20  4  1  0  0  0  0
 21 10  2  0  0  0  0
 22  9  1  0  0  0  0
 23 15  1  0  0  0  0
 25 26  1  0  0  0  0
 26 17  1  0  0  0  0
 26 19  2  0  0  0  0
 27 24  1  6  0  0  0
 30 28  1  0  0  0  0
 30 29  1  0  0  0  0
M  END
>  <MODEL>
8

>  <REMARK>
 VINA RESULT:      -4.8      2.985      7.643
  Name = 
  2 active torsions:
  status: ('A' for Active; 'I' for Inactive)
    1  A    between atoms: C_11  and  C_28
    2  A    between atoms: C_28  and  C_30
                            x       y       z     vdW  Elec       q    Type
                         _______ _______ _______ _____ _____    ______ ____

>  <TORSDO>
F 2

$$$$
