=
 OpenBabel11122412373D

 30 35  0  0  1  0  0  0  0  0999 V2000
  161.3170  205.9080  150.1160 C   0  0  0  0  0  0  0  0  0  0  0  0
  161.0080  203.4040  149.9910 C   0  0  0  0  0  0  0  0  0  0  0  0
  161.0870  205.7750  154.3160 N   0  0  0  0  0  2  0  0  0  0  0  0
  161.3960  207.0880  150.9190 C   0  0  0  0  0  0  0  0  0  0  0  0
  161.4500  206.0440  148.7280 C   0  0  0  0  0  3  0  0  0  0  0  0
  161.8610  209.6770  148.2920 O   0  0  0  0  0  1  0  0  0  0  0  0
  160.3330  209.7710  152.0180 C   0  0  1  0  0  3  0  0  0  0  0  0
  161.6900  208.4390  148.9050 C   0  0  0  0  0  0  0  0  0  0  0  0
  160.3880  209.0180  153.2910 N   0  0  2  0  0  0  0  0  0  0  0  0
  161.3050  207.1510  154.5980 C   0  0  0  0  0  0  0  0  0  0  0  0
  161.6430  207.2850  148.1200 C   0  0  0  0  0  0  0  0  0  0  0  0
  161.5600  208.3550  150.3010 C   0  0  0  0  0  0  0  0  0  0  0  0
  160.8130  202.1940  150.6610 C   0  0  0  0  0  3  0  0  0  0  0  0
  160.6200  210.0320  154.3150 C   0  0  0  0  0  2  0  0  0  0  0  0
  160.0670  211.2320  152.3340 C   0  0  0  0  0  2  0  0  0  0  0  0
  161.0920  203.3550  148.5680 N   0  0  0  0  0  1  0  0  0  0  0  0
  161.1070  205.7170  152.8980 C   0  0  0  0  0  0  0  0  0  0  0  0
  160.7180  202.1510  152.0480 C   0  0  0  0  0  3  0  0  0  0  0  0
  161.1110  204.6250  150.7240 C   0  0  0  0  0  0  0  0  0  0  0  0
  161.2940  206.9500  152.3130 C   0  0  0  0  0  0  0  0  0  0  0  0
  161.4040  207.5850  155.7750 O   0  0  0  0  0  0  0  0  0  0  0  0
  161.4570  208.0070  153.3690 C   0  0  1  0  0  3  0  0  0  0  0  0
  159.9720  211.3060  153.8340 C   0  0  0  0  0  2  0  0  0  0  0  0
  162.8970  209.9850  151.6980 C   0  0  0  0  0  1  0  0  0  0  0  0
  160.8140  203.3240  152.7860 C   0  0  0  0  0  3  0  0  0  0  0  0
  161.0050  204.5520  152.1430 C   0  0  0  0  0  0  0  0  0  0  0  0
  161.5480  209.6440  151.0780 C   0  0  2  0  0  3  0  0  0  0  0  0
  161.7780  207.3890  146.6990 N   0  0  0  0  0  2  0  0  0  0  0  0
  160.3500  206.0840  145.2390 C   0  0  0  0  0  1  0  0  0  0  0  0
  161.7420  206.2360  145.8130 C   0  0  0  0  0  2  0  0  0  0  0  0
  1 19  2  0  0  0  0
  1  4  1  0  0  0  0
  2 13  2  0  0  0  0
  2 19  1  0  0  0  0
  3 10  1  0  0  0  0
  4 20  2  0  0  0  0
  5  1  1  0  0  0  0
  6  8  1  0  0  0  0
  7 15  1  1  0  0  0
  7  9  1  0  0  0  0
  8 12  2  0  0  0  0
  9 22  1  0  0  0  0
  9 14  1  1  0  0  0
 10 21  2  0  0  0  0
 11  5  2  0  0  0  0
 11  8  1  0  0  0  0
 12  4  1  0  0  0  0
 12 27  1  0  0  0  0
 13 18  1  0  0  0  0
 15 23  1  0  0  0  0
 16  2  1  0  0  0  0
 17  3  1  0  0  0  0
 18 25  2  0  0  0  0
 19 26  1  0  0  0  0
 20 17  1  0  0  0  0
 22 20  1  6  0  0  0
 22 10  1  0  0  0  0
 23 14  1  0  0  0  0
 26 25  1  0  0  0  0
 26 17  2  0  0  0  0
 27 24  1  1  0  0  0
 27  7  1  0  0  0  0
 28 11  1  0  0  0  0
 29 30  1  0  0  0  0
 30 28  1  0  0  0  0
M  END
>  <MODEL>
1

>  <REMARK>
 VINA RESULT:      -8.0      0.000      0.000
  Name = 
  2 active torsions:
  status: ('A' for Active; 'I' for Inactive)
    1  A    between atoms: C_11  and  N_28
    2  A    between atoms: N_28  and  C_30
                            x       y       z     vdW  Elec       q    Type
                         _______ _______ _______ _____ _____    ______ ____

>  <TORSDO>
F 2

$$$$
=
 OpenBabel11122412373D

 30 35  0  0  1  0  0  0  0  0999 V2000
  161.5080  207.9090  149.8870 C   0  0  0  0  0  0  0  0  0  0  0  0
  161.4560  205.8560  148.4140 C   0  0  0  0  0  0  0  0  0  0  0  0
  160.9220  205.5300  153.3080 N   0  0  0  0  0  2  0  0  0  0  0  0
  161.4010  208.4730  151.1950 C   0  0  0  0  0  0  0  0  0  0  0  0
  161.7490  208.7750  148.8110 C   0  0  0  0  0  3  0  0  0  0  0  0
  161.8420  212.0830  150.4240 O   0  0  0  0  0  1  0  0  0  0  0  0
  159.9890  210.1050  153.4040 C   0  0  1  0  0  3  0  0  0  0  0  0
  161.7380  210.7040  150.2600 C   0  0  0  0  0  0  0  0  0  0  0  0
  160.0050  208.7880  154.0790 N   0  0  2  0  0  0  0  0  0  0  0  0
  160.9800  206.5450  154.3010 C   0  0  0  0  0  0  0  0  0  0  0  0
  161.8730  210.1530  148.9840 C   0  0  0  0  0  0  0  0  0  0  0  0
  161.4940  209.8790  151.3700 C   0  0  0  0  0  0  0  0  0  0  0  0
  161.3210  204.4690  148.3100 C   0  0  0  0  0  3  0  0  0  0  0  0
  160.0450  209.1000  155.5040 C   0  0  0  0  0  2  0  0  0  0  0  0
  159.5560  211.1570  154.4100 C   0  0  0  0  0  2  0  0  0  0  0  0
  161.6700  206.5830  147.2070 N   0  0  0  0  0  1  0  0  0  0  0  0
  161.0720  206.2440  152.0910 C   0  0  0  0  0  0  0  0  0  0  0  0
  161.1090  203.6840  149.4380 C   0  0  0  0  0  3  0  0  0  0  0  0
  161.3750  206.4940  149.6900 C   0  0  0  0  0  0  0  0  0  0  0  0
  161.1900  207.6040  152.2780 C   0  0  0  0  0  0  0  0  0  0  0  0
  160.9320  206.2800  155.5310 O   0  0  0  0  0  0  0  0  0  0  0  0
  161.1560  207.9320  153.7450 C   0  0  1  0  0  3  0  0  0  0  0  0
  159.3220  210.4090  155.6950 C   0  0  0  0  0  2  0  0  0  0  0  0
  162.5390  210.5470  153.5730 C   0  0  0  0  0  1  0  0  0  0  0  0
  161.0250  204.2790  150.6920 C   0  0  0  0  0  3  0  0  0  0  0  0
  161.1520  205.6650  150.8270 C   0  0  0  0  0  0  0  0  0  0  0  0
  161.2880  210.5460  152.7020 C   0  0  2  0  0  3  0  0  0  0  0  0
  162.1220  211.0100  147.8640 N   0  0  0  0  0  2  0  0  0  0  0  0
  161.7410  213.2520  147.0260 C   0  0  0  0  0  1  0  0  0  0  0  0
  161.1160  211.9020  147.3110 C   0  0  0  0  0  2  0  0  0  0  0  0
  1  4  1  0  0  0  0
  2 19  1  0  0  0  0
  3 10  1  0  0  0  0
  4 12  1  0  0  0  0
  4 20  2  0  0  0  0
  5 11  2  0  0  0  0
  5  1  1  0  0  0  0
  7  9  1  0  0  0  0
  7 15  1  1  0  0  0
  8  6  1  0  0  0  0
  8 12  2  0  0  0  0
  9 14  1  1  0  0  0
 10 21  2  0  0  0  0
 11  8  1  0  0  0  0
 12 27  1  0  0  0  0
 13  2  2  0  0  0  0
 13 18  1  0  0  0  0
 14 23  1  0  0  0  0
 15 23  1  0  0  0  0
 16  2  1  0  0  0  0
 17 20  1  0  0  0  0
 17  3  1  0  0  0  0
 18 25  2  0  0  0  0
 19  1  2  0  0  0  0
 19 26  1  0  0  0  0
 22 20  1  6  0  0  0
 22  9  1  0  0  0  0
 22 10  1  0  0  0  0
 25 26  1  0  0  0  0
 26 17  2  0  0  0  0
 27  7  1  0  0  0  0
 27 24  1  1  0  0  0
 28 11  1  0  0  0  0
 29 30  1  0  0  0  0
 30 28  1  0  0  0  0
M  END
>  <MODEL>
2

>  <REMARK>
 VINA RESULT:      -7.2      1.807      2.777
  Name = 
  2 active torsions:
  status: ('A' for Active; 'I' for Inactive)
    1  A    between atoms: C_11  and  N_28
    2  A    between atoms: N_28  and  C_30
                            x       y       z     vdW  Elec       q    Type
                         _______ _______ _______ _____ _____    ______ ____

>  <TORSDO>
F 2

$$$$
=
 OpenBabel11122412373D

 30 35  0  0  1  0  0  0  0  0999 V2000
  161.4350  207.8460  151.4640 C   0  0  0  0  0  0  0  0  0  0  0  0
  161.5700  210.3120  150.9310 C   0  0  0  0  0  0  0  0  0  0  0  0
  162.2970  206.8830  147.4590 N   0  0  0  0  0  2  0  0  0  0  0  0
  161.4960  206.4940  151.0030 C   0  0  0  0  0  0  0  0  0  0  0  0
  161.1880  208.0690  152.8250 C   0  0  0  0  0  3  0  0  0  0  0  0
  160.8010  204.6610  154.1620 O   0  0  0  0  0  1  0  0  0  0  0  0
  160.2690  203.7560  150.2730 C   0  0  1  0  0  3  0  0  0  0  0  0
  161.0200  205.7020  153.2650 C   0  0  0  0  0  0  0  0  0  0  0  0
  160.7800  204.1320  148.9350 N   0  0  2  0  0  0  0  0  0  0  0  0
  162.3230  205.4670  147.5680 C   0  0  0  0  0  0  0  0  0  0  0  0
  160.9900  207.0210  153.7240 C   0  0  0  0  0  0  0  0  0  0  0  0
  161.2630  205.4260  151.9090 C   0  0  0  0  0  0  0  0  0  0  0  0
  161.7760  211.3140  149.9810 C   0  0  0  0  0  3  0  0  0  0  0  0
  161.0710  202.8630  148.2770 C   0  0  0  0  0  2  0  0  0  0  0  0
  159.8280  202.3040  150.2290 C   0  0  0  0  0  2  0  0  0  0  0  0
  161.3010  210.7270  152.2680 N   0  0  0  0  0  1  0  0  0  0  0  0
  161.9700  207.3140  148.7710 C   0  0  0  0  0  0  0  0  0  0  0  0
  162.0420  210.9980  148.6520 C   0  0  0  0  0  3  0  0  0  0  0  0
  161.6280  208.9360  150.5520 C   0  0  0  0  0  0  0  0  0  0  0  0
  161.7750  206.2670  149.6460 C   0  0  0  0  0  0  0  0  0  0  0  0
  162.6340  204.7270  146.5980 O   0  0  0  0  0  0  0  0  0  0  0  0
  162.0010  204.9560  148.9460 C   0  0  1  0  0  3  0  0  0  0  0  0
  160.1010  201.8450  148.8220 C   0  0  0  0  0  2  0  0  0  0  0  0
  162.5860  203.3420  151.3620 C   0  0  0  0  0  1  0  0  0  0  0  0
  162.1030  209.6670  148.2550 C   0  0  0  0  0  3  0  0  0  0  0  0
  161.8980  208.6410  149.1830 C   0  0  0  0  0  0  0  0  0  0  0  0
  161.2100  203.9880  151.4710 C   0  0  2  0  0  3  0  0  0  0  0  0
  160.7420  207.2840  155.1090 N   0  0  0  0  0  2  0  0  0  0  0  0
  161.9310  208.8390  156.5370 C   0  0  0  0  0  1  0  0  0  0  0  0
  160.7100  208.6260  155.6670 C   0  0  0  0  0  2  0  0  0  0  0  0
  1  5  2  0  0  0  0
  2 16  1  0  0  0  0
  3 10  1  0  0  0  0
  3 17  1  0  0  0  0
  4  1  1  0  0  0  0
  4 12  2  0  0  0  0
  5 11  1  0  0  0  0
  7 15  1  6  0  0  0
  7 27  1  0  0  0  0
  8 11  2  0  0  0  0
  8  6  1  0  0  0  0
  9 14  1  6  0  0  0
  9 22  1  0  0  0  0
  9  7  1  0  0  0  0
 11 28  1  0  0  0  0
 12  8  1  0  0  0  0
 13  2  2  0  0  0  0
 14 23  1  0  0  0  0
 17 26  1  0  0  0  0
 17 20  2  0  0  0  0
 18 13  1  0  0  0  0
 19  2  1  0  0  0  0
 19  1  1  0  0  0  0
 20  4  1  0  0  0  0
 21 10  2  0  0  0  0
 22 10  1  6  0  0  0
 22 20  1  0  0  0  0
 23 15  1  0  0  0  0
 25 18  2  0  0  0  0
 25 26  1  0  0  0  0
 26 19  2  0  0  0  0
 27 24  1  6  0  0  0
 27 12  1  0  0  0  0
 28 30  1  0  0  0  0
 30 29  1  0  0  0  0
M  END
>  <MODEL>
3

>  <REMARK>
 VINA RESULT:      -6.7      1.869      7.238
  Name = 
  2 active torsions:
  status: ('A' for Active; 'I' for Inactive)
    1  A    between atoms: C_11  and  N_28
    2  A    between atoms: N_28  and  C_30
                            x       y       z     vdW  Elec       q    Type
                         _______ _______ _______ _____ _____    ______ ____

>  <TORSDO>
F 2

$$$$
=
 OpenBabel11122412373D

 30 35  0  0  1  0  0  0  0  0999 V2000
  161.4810  208.2350  151.4250 C   0  0  0  0  0  0  0  0  0  0  0  0
  161.4230  208.5510  153.9310 C   0  0  0  0  0  0  0  0  0  0  0  0
  160.5100  204.1650  151.8660 N   0  0  0  0  0  2  0  0  0  0  0  0
  161.3650  207.3560  150.3040 C   0  0  0  0  0  0  0  0  0  0  0  0
  161.7630  209.5860  151.1790 C   0  0  0  0  0  3  0  0  0  0  0  0
  162.0540  209.7100  147.5110 O   0  0  0  0  0  1  0  0  0  0  0  0
  162.4810  205.7270  147.9300 C   0  0  1  0  0  3  0  0  0  0  0  0
  161.8550  209.2140  148.7960 C   0  0  0  0  0  0  0  0  0  0  0  0
  161.9570  204.6040  148.7410 N   0  0  2  0  0  0  0  0  0  0  0  0
  160.4370  203.8000  150.4940 C   0  0  0  0  0  0  0  0  0  0  0  0
  161.9400  210.0820  149.8870 C   0  0  0  0  0  0  0  0  0  0  0  0
  161.5770  207.8520  148.9910 C   0  0  0  0  0  0  0  0  0  0  0  0
  161.2350  207.9910  155.1970 C   0  0  0  0  0  3  0  0  0  0  0  0
  161.6100  203.5730  147.7700 C   0  0  0  0  0  2  0  0  0  0  0  0
  162.8690  205.1930  146.5630 C   0  0  0  0  0  2  0  0  0  0  0  0
  161.7320  209.9410  153.8730 N   0  0  0  0  0  1  0  0  0  0  0  0
  160.8770  205.5350  151.8290 C   0  0  0  0  0  0  0  0  0  0  0  0
  160.9330  206.6410  155.3450 C   0  0  0  0  0  3  0  0  0  0  0  0
  161.3100  207.7400  152.7610 C   0  0  0  0  0  0  0  0  0  0  0  0
  161.0520  206.0090  150.5470 C   0  0  0  0  0  0  0  0  0  0  0  0
  160.0820  202.6500  150.1260 O   0  0  0  0  0  0  0  0  0  0  0  0
  160.7670  204.9230  149.5480 C   0  0  1  0  0  3  0  0  0  0  0  0
  162.5540  203.7220  146.6040 C   0  0  0  0  0  2  0  0  0  0  0  0
  160.1710  206.6860  147.2420 C   0  0  0  0  0  1  0  0  0  0  0  0
  160.8170  205.8290  154.2230 C   0  0  0  0  0  3  0  0  0  0  0  0
  161.0040  206.3600  152.9430 C   0  0  0  0  0  0  0  0  0  0  0  0
  161.5710  206.9620  147.7780 C   0  0  2  0  0  3  0  0  0  0  0  0
  162.2240  211.4680  149.6700 N   0  0  0  0  0  2  0  0  0  0  0  0
  161.6610  213.2290  148.1030 C   0  0  0  0  0  1  0  0  0  0  0  0
  161.2030  212.4390  149.3110 C   0  0  0  0  0  2  0  0  0  0  0  0
  1 19  1  0  0  0  0
  2 13  1  0  0  0  0
  4 20  1  0  0  0  0
  4  1  2  0  0  0  0
  5  1  1  0  0  0  0
  6  8  1  0  0  0  0
  7 15  1  6  0  0  0
  7  9  1  0  0  0  0
  8 12  2  0  0  0  0
  8 11  1  0  0  0  0
  9 14  1  6  0  0  0
  9 22  1  0  0  0  0
 10  3  1  0  0  0  0
 11  5  2  0  0  0  0
 12  4  1  0  0  0  0
 13 18  2  0  0  0  0
 15 23  1  0  0  0  0
 16  2  1  0  0  0  0
 17  3  1  0  0  0  0
 17 26  1  0  0  0  0
 19 26  1  0  0  0  0
 19  2  2  0  0  0  0
 20 17  2  0  0  0  0
 21 10  2  0  0  0  0
 22 10  1  1  0  0  0
 22 20  1  0  0  0  0
 23 14  1  0  0  0  0
 25 18  1  0  0  0  0
 26 25  2  0  0  0  0
 27 24  1  1  0  0  0
 27  7  1  0  0  0  0
 27 12  1  0  0  0  0
 28 11  1  0  0  0  0
 29 30  1  0  0  0  0
 30 28  1  0  0  0  0
M  END
>  <MODEL>
4

>  <REMARK>
 VINA RESULT:      -6.6      2.316      5.615
  Name = 
  2 active torsions:
  status: ('A' for Active; 'I' for Inactive)
    1  A    between atoms: C_11  and  N_28
    2  A    between atoms: N_28  and  C_30
                            x       y       z     vdW  Elec       q    Type
                         _______ _______ _______ _____ _____    ______ ____

>  <TORSDO>
F 2

$$$$
=
 OpenBabel11122412373D

 30 35  0  0  1  0  0  0  0  0999 V2000
  160.8230  209.6080  152.4980 C   0  0  0  0  0  0  0  0  0  0  0  0
  160.4570  212.0740  152.0870 C   0  0  0  0  0  0  0  0  0  0  0  0
  162.0060  209.0670  148.4960 N   0  0  0  0  0  2  0  0  0  0  0  0
  161.1810  208.3250  151.9780 C   0  0  0  0  0  0  0  0  0  0  0  0
  160.4870  209.7000  153.8550 C   0  0  0  0  0  3  0  0  0  0  0  0
  160.7770  206.2170  155.0130 O   0  0  0  0  0  1  0  0  0  0  0  0
  160.5810  205.4370  151.0660 C   0  0  1  0  0  3  0  0  0  0  0  0
  160.8040  207.3290  154.1760 C   0  0  0  0  0  0  0  0  0  0  0  0
  161.0490  205.9840  149.7720 N   0  0  2  0  0  0  0  0  0  0  0  0
  162.3240  207.6830  148.5390 C   0  0  0  0  0  0  0  0  0  0  0  0
  160.4820  208.5850  154.6950 C   0  0  0  0  0  0  0  0  0  0  0  0
  161.1460  207.1850  152.8220 C   0  0  0  0  0  0  0  0  0  0  0  0
  160.4810  213.1480  151.1950 C   0  0  0  0  0  3  0  0  0  0  0  0
  161.6220  204.8410  149.0690 C   0  0  0  0  0  2  0  0  0  0  0  0
  160.4560  203.9300  150.9340 C   0  0  0  0  0  2  0  0  0  0  0  0
  160.0610  212.3490  153.4290 N   0  0  0  0  0  1  0  0  0  0  0  0
  161.5510  209.3470  149.8100 C   0  0  0  0  0  0  0  0  0  0  0  0
  160.8530  212.9670  149.8670 C   0  0  0  0  0  3  0  0  0  0  0  0
  160.8150  210.7630  151.6470 C   0  0  0  0  0  0  0  0  0  0  0  0
  161.5490  208.2360  150.6250 C   0  0  0  0  0  0  0  0  0  0  0  0
  162.8160  207.0780  147.5510 O   0  0  0  0  0  0  0  0  0  0  0  0
  162.0690  207.0410  149.8760 C   0  0  1  0  0  3  0  0  0  0  0  0
  160.8680  203.6160  149.5210 C   0  0  0  0  0  2  0  0  0  0  0  0
  162.8950  205.4530  152.2380 C   0  0  0  0  0  1  0  0  0  0  0  0
  161.2060  211.7020  149.4110 C   0  0  0  0  0  3  0  0  0  0  0  0
  161.1880  210.6060  150.2800 C   0  0  0  0  0  0  0  0  0  0  0  0
  161.4110  205.7930  152.3150 C   0  0  2  0  0  3  0  0  0  0  0  0
  160.1360  208.7140  156.0770 N   0  0  0  0  0  2  0  0  0  0  0  0
  162.3310  209.2030  156.9820 C   0  0  0  0  0  1  0  0  0  0  0  0
  160.8630  209.5730  156.9990 C   0  0  0  0  0  2  0  0  0  0  0  0
  1  5  2  0  0  0  0
  2 16  1  0  0  0  0
  3 10  1  0  0  0  0
  3 17  1  0  0  0  0
  4  1  1  0  0  0  0
  4 12  2  0  0  0  0
  5 11  1  0  0  0  0
  7 15  1  6  0  0  0
  7 27  1  0  0  0  0
  8 11  2  0  0  0  0
  8  6  1  0  0  0  0
  9 14  1  6  0  0  0
  9 22  1  0  0  0  0
  9  7  1  0  0  0  0
 11 28  1  0  0  0  0
 12  8  1  0  0  0  0
 13  2  2  0  0  0  0
 14 23  1  0  0  0  0
 17 26  1  0  0  0  0
 17 20  2  0  0  0  0
 18 13  1  0  0  0  0
 19  2  1  0  0  0  0
 19  1  1  0  0  0  0
 20  4  1  0  0  0  0
 21 10  2  0  0  0  0
 22 10  1  6  0  0  0
 22 20  1  0  0  0  0
 23 15  1  0  0  0  0
 25 18  2  0  0  0  0
 25 26  1  0  0  0  0
 26 19  2  0  0  0  0
 27 24  1  6  0  0  0
 27 12  1  0  0  0  0
 28 30  1  0  0  0  0
 29 30  1  0  0  0  0
M  END
>  <MODEL>
5

>  <REMARK>
 VINA RESULT:      -6.5      1.899      7.387
  Name = 
  2 active torsions:
  status: ('A' for Active; 'I' for Inactive)
    1  A    between atoms: C_11  and  N_28
    2  A    between atoms: N_28  and  C_30
                            x       y       z     vdW  Elec       q    Type
                         _______ _______ _______ _____ _____    ______ ____

>  <TORSDO>
F 2

$$$$
=
 OpenBabel11122412373D

 30 35  0  0  1  0  0  0  0  0999 V2000
  160.7700  210.5470  151.6850 C   0  0  0  0  0  0  0  0  0  0  0  0
  161.9270  208.6610  150.4660 C   0  0  0  0  0  0  0  0  0  0  0  0
  160.5100  208.2030  155.1690 N   0  0  0  0  0  2  0  0  0  0  0  0
  160.1440  211.0260  152.8770 C   0  0  0  0  0  0  0  0  0  0  0  0
  160.8500  211.4160  150.5880 C   0  0  0  0  0  3  0  0  0  0  0  0
  159.1620  214.4490  151.8130 O   0  0  0  0  0  1  0  0  0  0  0  0
  157.7190  211.9000  154.5780 C   0  0  1  0  0  3  0  0  0  0  0  0
  159.6960  213.1640  151.7850 C   0  0  0  0  0  0  0  0  0  0  0  0
  158.1450  210.7340  155.3850 N   0  0  2  0  0  0  0  0  0  0  0  0
  159.9080  209.1530  156.0370 C   0  0  0  0  0  0  0  0  0  0  0  0
  160.3330  212.7110  150.6280 C   0  0  0  0  0  0  0  0  0  0  0  0
  159.5880  212.3310  152.9110 C   0  0  0  0  0  0  0  0  0  0  0  0
  162.4240  207.3560  150.4910 C   0  0  0  0  0  3  0  0  0  0  0  0
  157.7310  211.0520  156.7470 C   0  0  0  0  0  2  0  0  0  0  0  0
  156.6680  212.6680  155.3590 C   0  0  0  0  0  2  0  0  0  0  0  0
  162.0730  209.3900  149.2500 N   0  0  0  0  0  1  0  0  0  0  0  0
  160.6080  208.8920  153.9330 C   0  0  0  0  0  0  0  0  0  0  0  0
  162.3220  206.5730  151.6370 C   0  0  0  0  0  3  0  0  0  0  0  0
  161.3000  209.2160  151.6230 C   0  0  0  0  0  0  0  0  0  0  0  0
  160.0900  210.1680  153.9890 C   0  0  0  0  0  0  0  0  0  0  0  0
  159.7050  208.9120  157.2560 O   0  0  0  0  0  0  0  0  0  0  0  0
  159.5930  210.4680  155.3750 C   0  0  1  0  0  3  0  0  0  0  0  0
  156.4960  211.9120  156.6480 C   0  0  0  0  0  2  0  0  0  0  0  0
  159.7290  213.4220  155.1880 C   0  0  0  0  0  1  0  0  0  0  0  0
  161.7160  207.0870  152.7770 C   0  0  0  0  0  3  0  0  0  0  0  0
  161.2050  208.3890  152.7810 C   0  0  0  0  0  0  0  0  0  0  0  0
  158.8260  212.8580  154.0960 C   0  0  2  0  0  3  0  0  0  0  0  0
  160.4350  213.5730  149.4900 N   0  0  0  0  0  2  0  0  0  0  0  0
  162.3470  213.7360  148.0110 C   0  0  0  0  0  1  0  0  0  0  0  0
  160.9710  213.1370  148.2110 C   0  0  0  0  0  2  0  0  0  0  0  0
  1  4  1  0  0  0  0
  2 13  2  0  0  0  0
  2 19  1  0  0  0  0
  3 10  1  0  0  0  0
  4 12  1  0  0  0  0
  4 20  2  0  0  0  0
  5 11  2  0  0  0  0
  5  1  1  0  0  0  0
  7 15  1  1  0  0  0
  7  9  1  0  0  0  0
  8  6  1  0  0  0  0
  8 12  2  0  0  0  0
  9 14  1  1  0  0  0
 10 21  2  0  0  0  0
 11  8  1  0  0  0  0
 12 27  1  0  0  0  0
 13 18  1  0  0  0  0
 15 23  1  0  0  0  0
 16  2  1  0  0  0  0
 17 20  1  0  0  0  0
 17  3  1  0  0  0  0
 18 25  2  0  0  0  0
 19  1  2  0  0  0  0
 19 26  1  0  0  0  0
 22 20  1  6  0  0  0
 22  9  1  0  0  0  0
 22 10  1  0  0  0  0
 23 14  1  0  0  0  0
 25 26  1  0  0  0  0
 26 17  2  0  0  0  0
 27  7  1  0  0  0  0
 27 24  1  1  0  0  0
 28 11  1  0  0  0  0
 29 30  1  0  0  0  0
 30 28  1  0  0  0  0
M  END
>  <MODEL>
6

>  <REMARK>
 VINA RESULT:      -5.9      3.078      5.073
  Name = 
  2 active torsions:
  status: ('A' for Active; 'I' for Inactive)
    1  A    between atoms: C_11  and  N_28
    2  A    between atoms: N_28  and  C_30
                            x       y       z     vdW  Elec       q    Type
                         _______ _______ _______ _____ _____    ______ ____

>  <TORSDO>
F 2

$$$$
=
 OpenBabel11122412373D

 30 35  0  0  1  0  0  0  0  0999 V2000
  160.2800  209.5550  153.4380 C   0  0  0  0  0  0  0  0  0  0  0  0
  159.3580  211.7710  154.2270 C   0  0  0  0  0  0  0  0  0  0  0  0
  161.4080  211.2750  149.7670 N   0  0  0  0  0  2  0  0  0  0  0  0
  160.8960  208.7910  152.3980 C   0  0  0  0  0  0  0  0  0  0  0  0
  159.9810  208.9070  154.6440 C   0  0  0  0  0  3  0  0  0  0  0  0
  161.0820  205.4510  154.0180 O   0  0  0  0  0  1  0  0  0  0  0  0
  160.9220  206.6480  150.1760 C   0  0  1  0  0  3  0  0  0  0  0  0
  160.8300  206.8050  153.8180 C   0  0  0  0  0  0  0  0  0  0  0  0
  161.2090  207.8360  149.3400 N   0  0  2  0  0  0  0  0  0  0  0  0
  162.0290  210.1450  149.1690 C   0  0  0  0  0  0  0  0  0  0  0  0
  160.2550  207.5550  154.8470 C   0  0  0  0  0  0  0  0  0  0  0  0
  161.1470  207.4070  152.5900 C   0  0  0  0  0  0  0  0  0  0  0  0
  159.1100  213.1200  153.9600 C   0  0  0  0  0  3  0  0  0  0  0  0
  161.9970  207.3250  148.2230 C   0  0  0  0  0  2  0  0  0  0  0  0
  161.1320  205.4040  149.3310 C   0  0  0  0  0  2  0  0  0  0  0  0
  158.9590  211.2750  155.5020 N   0  0  0  0  0  1  0  0  0  0  0  0
  160.9500  210.7830  151.0170 C   0  0  0  0  0  0  0  0  0  0  0  0
  159.4650  213.6850  152.7400 C   0  0  0  0  0  3  0  0  0  0  0  0
  159.9830  210.9450  153.2440 C   0  0  0  0  0  0  0  0  0  0  0  0
  161.2250  209.4460  151.2000 C   0  0  0  0  0  0  0  0  0  0  0  0
  162.6070  210.2120  148.0530 O   0  0  0  0  0  0  0  0  0  0  0  0
  161.9710  208.9010  150.0140 C   0  0  1  0  0  3  0  0  0  0  0  0
  161.5520  205.9050  147.9760 C   0  0  0  0  0  2  0  0  0  0  0  0
  163.2150  206.5880  151.3870 C   0  0  0  0  0  1  0  0  0  0  0  0
  160.0750  212.9040  151.7640 C   0  0  0  0  0  3  0  0  0  0  0  0
  160.3320  211.5500  152.0010 C   0  0  0  0  0  0  0  0  0  0  0  0
  161.6960  206.5250  151.5030 C   0  0  2  0  0  3  0  0  0  0  0  0
  159.9390  206.9240  156.0930 N   0  0  0  0  0  2  0  0  0  0  0  0
  161.5750  208.2960  157.2390 C   0  0  0  0  0  1  0  0  0  0  0  0
  160.8070  206.9920  157.2570 C   0  0  0  0  0  2  0  0  0  0  0  0
  1  5  1  0  0  0  0
  2 16  1  0  0  0  0
  3 17  1  0  0  0  0
  4 12  1  0  0  0  0
  4  1  2  0  0  0  0
  5 11  2  0  0  0  0
  7 15  1  6  0  0  0
  7 27  1  0  0  0  0
  8  6  1  0  0  0  0
  8 11  1  0  0  0  0
  9 14  1  6  0  0  0
  9 22  1  0  0  0  0
  9  7  1  0  0  0  0
 10  3  1  0  0  0  0
 11 28  1  0  0  0  0
 12  8  2  0  0  0  0
 13  2  1  0  0  0  0
 17 20  2  0  0  0  0
 17 26  1  0  0  0  0
 18 13  2  0  0  0  0
 19  1  1  0  0  0  0
 19  2  2  0  0  0  0
 20  4  1  0  0  0  0
 21 10  2  0  0  0  0
 22 10  1  6  0  0  0
 22 20  1  0  0  0  0
 23 14  1  0  0  0  0
 23 15  1  0  0  0  0
 25 26  2  0  0  0  0
 25 18  1  0  0  0  0
 26 19  1  0  0  0  0
 27 24  1  6  0  0  0
 27 12  1  0  0  0  0
 28 30  1  0  0  0  0
 29 30  1  0  0  0  0
M  END
>  <MODEL>
7

>  <REMARK>
 VINA RESULT:      -5.7      2.150      7.448
  Name = 
  2 active torsions:
  status: ('A' for Active; 'I' for Inactive)
    1  A    between atoms: C_11  and  N_28
    2  A    between atoms: N_28  and  C_30
                            x       y       z     vdW  Elec       q    Type
                         _______ _______ _______ _____ _____    ______ ____

>  <TORSDO>
F 2

$$$$
=
 OpenBabel11122412373D

 30 35  0  0  1  0  0  0  0  0999 V2000
  161.1960  209.0610  151.8560 C   0  0  0  0  0  0  0  0  0  0  0  0
  162.0500  209.1100  149.4780 C   0  0  0  0  0  0  0  0  0  0  0  0
  160.1210  213.1220  151.6040 N   0  0  0  0  0  2  0  0  0  0  0  0
  160.6230  209.7650  152.9590 C   0  0  0  0  0  0  0  0  0  0  0  0
  161.4800  207.6980  152.0170 C   0  0  0  0  0  3  0  0  0  0  0  0
  160.4700  207.0540  155.4980 O   0  0  0  0  0  1  0  0  0  0  0  0
  160.6970  211.0670  155.7590 C   0  0  1  0  0  3  0  0  0  0  0  0
  160.6970  207.7240  154.2990 C   0  0  0  0  0  0  0  0  0  0  0  0
  160.4050  212.2790  154.9590 N   0  0  2  0  0  0  0  0  0  0  0  0
  159.5400  213.2820  152.8910 C   0  0  0  0  0  0  0  0  0  0  0  0
  161.2300  207.0260  153.2130 C   0  0  0  0  0  0  0  0  0  0  0  0
  160.3980  209.0910  154.1880 C   0  0  0  0  0  0  0  0  0  0  0  0
  162.2750  209.8400  148.3090 C   0  0  0  0  0  3  0  0  0  0  0  0
  159.6570  213.1480  155.8610 C   0  0  0  0  0  2  0  0  0  0  0  0
  160.5360  211.4090  157.2290 C   0  0  0  0  0  2  0  0  0  0  0  0
  162.4280  207.7350  149.4700 N   0  0  0  0  0  1  0  0  0  0  0  0
  160.5590  211.7720  151.6000 C   0  0  0  0  0  0  0  0  0  0  0  0
  161.9380  211.1880  148.2310 C   0  0  0  0  0  3  0  0  0  0  0  0
  161.4670  209.7390  150.6200 C   0  0  0  0  0  0  0  0  0  0  0  0
  160.3090  211.1230  152.7900 C   0  0  0  0  0  0  0  0  0  0  0  0
  158.9880  214.3550  153.2470 O   0  0  0  0  0  0  0  0  0  0  0  0
  159.6040  212.0450  153.7460 C   0  0  1  0  0  3  0  0  0  0  0  0
  160.1380  212.8600  157.2600 C   0  0  0  0  0  2  0  0  0  0  0  0
  158.3780  209.9490  155.4450 C   0  0  0  0  0  1  0  0  0  0  0  0
  161.3700  211.8250  149.3280 C   0  0  0  0  0  3  0  0  0  0  0  0
  161.1360  211.1210  150.5130 C   0  0  0  0  0  0  0  0  0  0  0  0
  159.8940  209.7960  155.4190 C   0  0  2  0  0  3  0  0  0  0  0  0
  161.5290  205.6320  153.3440 N   0  0  0  0  0  2  0  0  0  0  0  0
  160.8160  203.6990  152.0690 C   0  0  0  0  0  1  0  0  0  0  0  0
  161.8620  204.7840  152.2110 C   0  0  0  0  0  2  0  0  0  0  0  0
  1  5  2  0  0  0  0
  1  4  1  0  0  0  0
  2 19  1  0  0  0  0
  3 10  1  0  0  0  0
  4 12  2  0  0  0  0
  5 11  1  0  0  0  0
  7 15  1  1  0  0  0
  8  6  1  0  0  0  0
  9  7  1  0  0  0  0
  9 14  1  1  0  0  0
 10 21  2  0  0  0  0
 10 22  1  0  0  0  0
 11 28  1  0  0  0  0
 11  8  2  0  0  0  0
 12  8  1  0  0  0  0
 12 27  1  0  0  0  0
 13  2  2  0  0  0  0
 14 23  1  0  0  0  0
 15 23  1  0  0  0  0
 16  2  1  0  0  0  0
 17  3  1  0  0  0  0
 17 20  2  0  0  0  0
 18 13  1  0  0  0  0
 18 25  2  0  0  0  0
 19  1  1  0  0  0  0
 20  4  1  0  0  0  0
 22 20  1  6  0  0  0
 22  9  1  0  0  0  0
 25 26  1  0  0  0  0
 26 19  2  0  0  0  0
 26 17  1  0  0  0  0
 27 24  1  6  0  0  0
 27  7  1  0  0  0  0
 29 30  1  0  0  0  0
 30 28  1  0  0  0  0
M  END
>  <MODEL>
8

>  <REMARK>
 VINA RESULT:      -5.7      2.570      5.972
  Name = 
  2 active torsions:
  status: ('A' for Active; 'I' for Inactive)
    1  A    between atoms: C_11  and  N_28
    2  A    between atoms: N_28  and  C_30
                            x       y       z     vdW  Elec       q    Type
                         _______ _______ _______ _____ _____    ______ ____

>  <TORSDO>
F 2

$$$$
=
 OpenBabel11122412373D

 30 35  0  0  1  0  0  0  0  0999 V2000
  161.5300  207.9130  150.7560 C   0  0  0  0  0  0  0  0  0  0  0  0
  162.0330  208.8060  148.4470 C   0  0  0  0  0  0  0  0  0  0  0  0
  160.8310  211.8150  152.1670 N   0  0  0  0  0  2  0  0  0  0  0  0
  161.1930  208.1790  152.1190 C   0  0  0  0  0  0  0  0  0  0  0  0
  161.7000  206.5770  150.3670 C   0  0  0  0  0  3  0  0  0  0  0  0
  161.1440  204.7280  153.5010 O   0  0  0  0  0  1  0  0  0  0  0  0
  161.7970  208.3470  155.1430 C   0  0  1  0  0  3  0  0  0  0  0  0
  161.2610  205.7860  152.6030 C   0  0  0  0  0  0  0  0  0  0  0  0
  161.5120  209.7790  154.8950 N   0  0  2  0  0  0  0  0  0  0  0  0
  160.4600  211.5090  153.5040 C   0  0  0  0  0  0  0  0  0  0  0  0
  161.5610  205.5200  151.2650 C   0  0  0  0  0  0  0  0  0  0  0  0
  161.0830  207.1070  153.0440 C   0  0  0  0  0  0  0  0  0  0  0  0
  162.1580  209.9090  147.5990 C   0  0  0  0  0  3  0  0  0  0  0  0
  160.9890  210.2810  156.1620 C   0  0  0  0  0  2  0  0  0  0  0  0
  161.8830  208.1270  156.6430 C   0  0  0  0  0  2  0  0  0  0  0  0
  162.2710  207.5190  147.8820 N   0  0  0  0  0  1  0  0  0  0  0  0
  161.1310  210.5470  151.6040 C   0  0  0  0  0  0  0  0  0  0  0  0
  161.9460  211.2010  148.0680 C   0  0  0  0  0  3  0  0  0  0  0  0
  161.6850  208.9890  149.8200 C   0  0  0  0  0  0  0  0  0  0  0  0
  160.9920  209.5140  152.5050 C   0  0  0  0  0  0  0  0  0  0  0  0
  160.0720  212.3940  154.3100 O   0  0  0  0  0  0  0  0  0  0  0  0
  160.5260  210.0420  153.8330 C   0  0  1  0  0  3  0  0  0  0  0  0
  161.6370  209.4770  157.2610 C   0  0  0  0  0  2  0  0  0  0  0  0
  159.3580  207.5140  154.8480 C   0  0  0  0  0  1  0  0  0  0  0  0
  161.6060  211.4080  149.4010 C   0  0  0  0  0  3  0  0  0  0  0  0
  161.4780  210.3240  150.2750 C   0  0  0  0  0  0  0  0  0  0  0  0
  160.8330  207.3240  154.5110 C   0  0  2  0  0  3  0  0  0  0  0  0
  161.7380  204.1660  150.8340 N   0  0  0  0  0  2  0  0  0  0  0  0
  161.2160  203.3920  148.5980 C   0  0  0  0  0  1  0  0  0  0  0  0
  160.7530  203.4530  150.0380 C   0  0  0  0  0  2  0  0  0  0  0  0
  1  4  1  0  0  0  0
  2 19  1  0  0  0  0
  3 10  1  0  0  0  0
  4 20  1  0  0  0  0
  4 12  2  0  0  0  0
  5  1  2  0  0  0  0
  5 11  1  0  0  0  0
  7 15  1  1  0  0  0
  8 12  1  0  0  0  0
  8  6  1  0  0  0  0
  9  7  1  0  0  0  0
  9 14  1  1  0  0  0
 10 22  1  0  0  0  0
 10 21  2  0  0  0  0
 11  8  2  0  0  0  0
 12 27  1  0  0  0  0
 13 18  1  0  0  0  0
 13  2  2  0  0  0  0
 14 23  1  0  0  0  0
 15 23  1  0  0  0  0
 16  2  1  0  0  0  0
 17  3  1  0  0  0  0
 17 20  2  0  0  0  0
 18 25  2  0  0  0  0
 19 26  2  0  0  0  0
 19  1  1  0  0  0  0
 22 20  1  6  0  0  0
 22  9  1  0  0  0  0
 25 26  1  0  0  0  0
 26 17  1  0  0  0  0
 27 24  1  6  0  0  0
 27  7  1  0  0  0  0
 28 11  1  0  0  0  0
 29 30  1  0  0  0  0
 30 28  1  0  0  0  0
M  END
>  <MODEL>
9

>  <REMARK>
 VINA RESULT:      -5.2      2.273      5.095
  Name = 
  2 active torsions:
  status: ('A' for Active; 'I' for Inactive)
    1  A    between atoms: C_11  and  N_28
    2  A    between atoms: N_28  and  C_30
                            x       y       z     vdW  Elec       q    Type
                         _______ _______ _______ _____ _____    ______ ____

>  <TORSDO>
F 2

$$$$
