=
 OpenBabel11122412493D

 32 38  0  0  1  0  0  0  0  0999 V2000
  160.9930  211.2970  153.6690 C   0  0  2  0  0  3  0  0  0  0  0  0
  161.0960  207.0930  150.9040 C   0  0  1  0  0  3  0  0  0  0  0  0
  160.7370  202.4760  152.6920 C   0  0  0  0  0  3  0  0  0  0  0  0
  160.3770  202.0540  151.4140 C   0  0  0  0  0  3  0  0  0  0  0  0
  161.2770  207.4340  148.3660 C   0  0  2  0  0  3  0  0  0  0  0  0
  161.4420  206.6750  147.0850 C   0  0  0  0  0  0  0  0  0  0  0  0
  161.2250  209.0380  152.4610 C   0  0  1  0  0  3  0  0  0  0  0  0
  160.9730  206.7140  153.3800 C   0  0  0  0  0  2  0  0  0  0  0  0
  161.4690  204.9400  145.6380 C   0  0  0  0  0  0  0  0  0  0  0  0
  161.1170  208.6470  154.9790 C   0  0  0  0  0  2  0  0  0  0  0  0
  161.0810  203.8110  152.8940 C   0  0  0  0  0  3  0  0  0  0  0  0
  161.4920  206.1500  152.0530 C   0  0  1  0  0  3  0  0  0  0  0  0
  161.0510  204.7220  151.8300 C   0  0  0  0  0  0  0  0  0  0  0  0
  160.6600  205.1770  149.3570 C   0  0  2  0  0  3  0  0  0  0  0  0
  162.3470  205.8590  145.2690 C   0  0  0  0  0  3  0  0  0  0  0  0
  160.8780  211.4800  152.1590 C   0  0  0  0  0  2  0  0  0  0  0  0
  161.5730  208.0970  153.6250 C   0  0  2  0  0  3  0  0  0  0  0  0
  162.3470  206.9350  146.1990 N   0  0  0  0  0  0  0  0  0  0  0  0
  161.8120  210.4230  152.7000 C   0  0  1  0  0  3  0  0  0  0  0  0
  159.7260  209.2680  154.9030 C   0  0  0  0  0  2  0  0  0  0  0  0
  160.3780  202.9350  150.3800 N   0  0  0  0  0  0  0  0  0  0  0  0
  160.7340  204.2430  150.5400 C   0  0  0  0  0  0  0  0  0  0  0  0
  161.0630  204.4690  148.0540 C   0  0  0  0  0  2  0  0  0  0  0  0
  161.7410  208.4590  151.1480 C   0  0  0  0  0  2  0  0  0  0  0  0
  162.1850  208.4790  148.4080 F   0  0  0  0  0  0  0  0  0  0  0  0
  161.2000  203.6890  144.8780 C   0  0  0  0  0  1  0  0  0  0  0  0
  161.4890  206.4710  149.5570 C   0  0  2  0  0  3  0  0  0  0  0  0
  160.7540  205.3750  146.8670 C   0  0  1  0  0  3  0  0  0  0  0  0
  159.7060  210.6840  154.3000 C   0  0  2  0  0  3  0  0  0  0  0  0
  158.4090  211.0180  153.6320 C   0  0  0  0  0  0  0  0  0  0  0  0
  158.3490  211.1370  152.3790 O   0  0  0  0  0  0  0  0  0  0  0  0
  157.2420  211.2240  154.4180 N   0  0  0  0  0  1  0  0  0  0  0  0
  1 16  1  6  0  0  0
  1 29  1  0  0  0  0
  2 24  1  1  0  0  0
  2 12  1  0  0  0  0
  3 11  1  0  0  0  0
  4  3  2  0  0  0  0
  5 25  1  6  0  0  0
  5 27  1  0  0  0  0
  6  5  1  0  0  0  0
  7 24  1  6  0  0  0
  7 19  1  0  0  0  0
  7 17  1  0  0  0  0
  9 28  1  0  0  0  0
 12  8  1  1  0  0  0
 13 12  1  0  0  0  0
 13 11  2  0  0  0  0
 14 23  1  6  0  0  0
 14 27  1  0  0  0  0
 14 22  1  0  0  0  0
 15  9  2  0  0  0  0
 15 18  1  0  0  0  0
 17  8  1  6  0  0  0
 17 10  1  0  0  0  0
 18  6  2  0  0  0  0
 19 16  1  6  0  0  0
 19  1  1  0  0  0  0
 20 10  1  0  0  0  0
 21 22  2  0  0  0  0
 21  4  1  0  0  0  0
 22 13  1  0  0  0  0
 26  9  1  0  0  0  0
 27  2  1  0  0  0  0
 28  6  1  0  0  0  0
 28 23  1  0  0  0  0
 29 20  1  0  0  0  0
 30 29  1  0  0  0  0
 30 32  1  0  0  0  0
 31 30  2  0  0  0  0
M  END
>  <MODEL>
1

>  <REMARK>
 VINA RESULT:      -7.3      0.000      0.000
  Name = 
  1 active torsions:
  status: ('A' for Active; 'I' for Inactive)
    1  A    between atoms: C_29  and  C_30
                            x       y       z     vdW  Elec       q    Type
                         _______ _______ _______ _____ _____    ______ ____

>  <TORSDO>
F 1

$$$$
=
 OpenBabel11122412493D

 32 38  0  0  1  0  0  0  0  0999 V2000
  161.0820  213.4760  146.8640 C   0  0  2  0  0  3  0  0  0  0  0  0
  161.1990  209.1770  149.4780 C   0  0  1  0  0  3  0  0  0  0  0  0
  161.3980  208.8350  154.4260 C   0  0  0  0  0  3  0  0  0  0  0  0
  160.9310  207.5280  154.3130 C   0  0  0  0  0  3  0  0  0  0  0  0
  161.0680  207.0240  148.0850 C   0  0  2  0  0  3  0  0  0  0  0  0
  161.1470  205.5340  148.2120 C   0  0  0  0  0  0  0  0  0  0  0  0
  161.3510  211.4050  148.3640 C   0  0  1  0  0  3  0  0  0  0  0  0
  161.3830  211.2550  150.8710 C   0  0  0  0  0  2  0  0  0  0  0  0
  161.1460  203.4840  149.1650 C   0  0  0  0  0  0  0  0  0  0  0  0
  161.5550  213.5130  149.7840 C   0  0  0  0  0  2  0  0  0  0  0  0
  161.6580  209.5650  153.2680 C   0  0  0  0  0  3  0  0  0  0  0  0
  161.7920  209.7810  150.7620 C   0  0  1  0  0  3  0  0  0  0  0  0
  161.4400  208.9990  152.0050 C   0  0  0  0  0  0  0  0  0  0  0  0
  160.7410  206.9930  150.6050 C   0  0  2  0  0  3  0  0  0  0  0  0
  161.9030  203.4860  148.0800 C   0  0  0  0  0  3  0  0  0  0  0  0
  160.7850  212.2020  146.0800 C   0  0  0  0  0  2  0  0  0  0  0  0
  161.8980  212.0260  149.6590 C   0  0  2  0  0  3  0  0  0  0  0  0
  161.9250  204.7850  147.5010 N   0  0  0  0  0  0  0  0  0  0  0  0
  161.8520  212.1730  147.1480 C   0  0  1  0  0  3  0  0  0  0  0  0
  160.1210  213.8060  149.3570 C   0  0  0  0  0  2  0  0  0  0  0  0
  160.7490  206.9730  153.0860 N   0  0  0  0  0  0  0  0  0  0  0  0
  161.0180  207.6530  151.9340 C   0  0  0  0  0  0  0  0  0  0  0  0
  161.0490  205.4880  150.6490 C   0  0  0  0  0  2  0  0  0  0  0  0
  161.7600  209.9380  148.2750 C   0  0  0  0  0  2  0  0  0  0  0  0
  161.8920  207.4480  147.0560 F   0  0  0  0  0  0  0  0  0  0  0  0
  160.8900  202.2830  150.0040 C   0  0  0  0  0  1  0  0  0  0  0  0
  161.4850  207.6700  149.4270 C   0  0  2  0  0  3  0  0  0  0  0  0
  160.5410  204.8270  149.3720 C   0  0  1  0  0  3  0  0  0  0  0  0
  159.9250  213.8700  147.8310 C   0  0  2  0  0  3  0  0  0  0  0  0
  158.5390  213.5000  147.4030 C   0  0  0  0  0  0  0  0  0  0  0  0
  157.9040  212.5990  148.0110 O   0  0  0  0  0  0  0  0  0  0  0  0
  157.9470  214.1530  146.2870 N   0  0  0  0  0  1  0  0  0  0  0  0
  1 16  1  6  0  0  0
  1 19  1  0  0  0  0
  1 29  1  0  0  0  0
  2 24  1  6  0  0  0
  2 12  1  0  0  0  0
  4  3  1  0  0  0  0
  5 25  1  6  0  0  0
  5  6  1  0  0  0  0
  5 27  1  0  0  0  0
  6 28  1  0  0  0  0
  7 24  1  6  0  0  0
  7 17  1  0  0  0  0
  9 28  1  0  0  0  0
  9 26  1  0  0  0  0
 11  3  2  0  0  0  0
 12  8  1  1  0  0  0
 12 13  1  0  0  0  0
 13 11  1  0  0  0  0
 14 23  1  1  0  0  0
 14 22  1  0  0  0  0
 15  9  2  0  0  0  0
 17 10  1  1  0  0  0
 17  8  1  0  0  0  0
 18 15  1  0  0  0  0
 18  6  2  0  0  0  0
 19 16  1  6  0  0  0
 19  7  1  0  0  0  0
 20 10  1  0  0  0  0
 21  4  2  0  0  0  0
 22 13  2  0  0  0  0
 22 21  1  0  0  0  0
 27  2  1  0  0  0  0
 27 14  1  0  0  0  0
 28 23  1  0  0  0  0
 29 20  1  0  0  0  0
 30 29  1  0  0  0  0
 30 31  2  0  0  0  0
 32 30  1  0  0  0  0
M  END
>  <MODEL>
2

>  <REMARK>
 VINA RESULT:      -7.1      3.277      4.978
  Name = 
  1 active torsions:
  status: ('A' for Active; 'I' for Inactive)
    1  A    between atoms: C_29  and  C_30
                            x       y       z     vdW  Elec       q    Type
                         _______ _______ _______ _____ _____    ______ ____

>  <TORSDO>
F 1

$$$$
=
 OpenBabel11122412493D

 32 38  0  0  1  0  0  0  0  0999 V2000
  161.4630  213.0080  148.8330 C   0  0  2  0  0  3  0  0  0  0  0  0
  161.4110  208.0000  149.3300 C   0  0  1  0  0  3  0  0  0  0  0  0
  161.2030  205.5480  153.6420 C   0  0  0  0  0  3  0  0  0  0  0  0
  160.7620  204.4310  152.9370 C   0  0  0  0  0  3  0  0  0  0  0  0
  161.4210  206.6640  147.1380 C   0  0  2  0  0  3  0  0  0  0  0  0
  161.5050  205.2640  146.6130 C   0  0  0  0  0  0  0  0  0  0  0  0
  161.6300  210.4860  149.3060 C   0  0  1  0  0  3  0  0  0  0  0  0
  161.4550  209.2660  151.4950 C   0  0  0  0  0  2  0  0  0  0  0  0
  161.4480  203.0040  146.5820 C   0  0  0  0  0  0  0  0  0  0  0  0
  161.6920  211.7670  151.5090 C   0  0  0  0  0  2  0  0  0  0  0  0
  161.5500  206.7010  152.9390 C   0  0  0  0  0  3  0  0  0  0  0  0
  161.8890  207.9750  150.7920 C   0  0  1  0  0  3  0  0  0  0  0  0
  161.4440  206.7410  151.5420 C   0  0  0  0  0  0  0  0  0  0  0  0
  160.8860  205.5550  149.3610 C   0  0  2  0  0  3  0  0  0  0  0  0
  162.2940  203.4560  145.6690 C   0  0  0  0  0  3  0  0  0  0  0  0
  161.2460  212.2060  147.5550 C   0  0  0  0  0  2  0  0  0  0  0  0
  162.0600  210.4720  150.7810 C   0  0  2  0  0  3  0  0  0  0  0  0
  162.3480  204.8760  145.7130 N   0  0  0  0  0  0  0  0  0  0  0  0
  162.2220  211.6900  148.5860 C   0  0  1  0  0  3  0  0  0  0  0  0
  160.2940  212.2530  151.1380 C   0  0  0  0  0  2  0  0  0  0  0  0
  160.6880  204.4660  151.5810 N   0  0  0  0  0  0  0  0  0  0  0  0
  161.0450  205.5690  150.8620 C   0  0  0  0  0  0  0  0  0  0  0  0
  161.2060  204.1720  148.7740 C   0  0  0  0  0  2  0  0  0  0  0  0
  162.0610  209.1910  148.6240 C   0  0  0  0  0  2  0  0  0  0  0  0
  162.3230  207.4700  146.4620 F   0  0  0  0  0  0  0  0  0  0  0  0
  161.1380  201.5650  146.7950 C   0  0  0  0  0  1  0  0  0  0  0  0
  161.7180  206.6560  148.6550 C   0  0  2  0  0  3  0  0  0  0  0  0
  160.8130  204.1410  147.3010 C   0  0  1  0  0  3  0  0  0  0  0  0
  160.2250  212.9750  149.7800 C   0  0  2  0  0  3  0  0  0  0  0  0
  158.8840  212.8620  149.1250 C   0  0  0  0  0  0  0  0  0  0  0  0
  158.7910  212.8040  147.8700 O   0  0  0  0  0  0  0  0  0  0  0  0
  157.7070  212.8440  149.9230 N   0  0  0  0  0  1  0  0  0  0  0  0
  1 16  1  6  0  0  0
  1 29  1  0  0  0  0
  2 24  1  6  0  0  0
  2 12  1  0  0  0  0
  4  3  2  0  0  0  0
  5 25  1  6  0  0  0
  5 27  1  0  0  0  0
  6  5  1  0  0  0  0
  6 28  1  0  0  0  0
  7 24  1  6  0  0  0
  7 17  1  0  0  0  0
  9 26  1  0  0  0  0
  9 28  1  0  0  0  0
 11  3  1  0  0  0  0
 12  8  1  1  0  0  0
 12 13  1  0  0  0  0
 13 11  2  0  0  0  0
 14 23  1  6  0  0  0
 14 22  1  0  0  0  0
 15 18  1  0  0  0  0
 15  9  2  0  0  0  0
 17  8  1  1  0  0  0
 17 10  1  0  0  0  0
 18  6  2  0  0  0  0
 19 16  1  6  0  0  0
 19  1  1  0  0  0  0
 19  7  1  0  0  0  0
 20 10  1  0  0  0  0
 21  4  1  0  0  0  0
 22 13  1  0  0  0  0
 22 21  2  0  0  0  0
 27  2  1  0  0  0  0
 27 14  1  0  0  0  0
 28 23  1  0  0  0  0
 29 20  1  0  0  0  0
 30 29  1  0  0  0  0
 30 32  1  0  0  0  0
 31 30  2  0  0  0  0
M  END
>  <MODEL>
3

>  <REMARK>
 VINA RESULT:      -6.5      2.340      3.231
  Name = 
  1 active torsions:
  status: ('A' for Active; 'I' for Inactive)
    1  A    between atoms: C_29  and  C_30
                            x       y       z     vdW  Elec       q    Type
                         _______ _______ _______ _____ _____    ______ ____

>  <TORSDO>
F 1

$$$$
=
 OpenBabel11122412493D

 32 38  0  0  1  0  0  0  0  0999 V2000
  162.3420  205.7870  152.3480 C   0  0  2  0  0  3  0  0  0  0  0  0
  159.8690  210.1510  152.7600 C   0  0  1  0  0  3  0  0  0  0  0  0
  160.2690  213.9800  149.6250 C   0  0  0  0  0  3  0  0  0  0  0  0
  159.0530  214.4520  150.1130 C   0  0  0  0  0  3  0  0  0  0  0  0
  158.2300  210.3200  154.7280 C   0  0  2  0  0  3  0  0  0  0  0  0
  157.3260  211.2880  155.4270 C   0  0  0  0  0  0  0  0  0  0  0  0
  161.3330  208.1480  152.4920 C   0  0  1  0  0  3  0  0  0  0  0  0
  161.4990  210.0470  150.8560 C   0  0  0  0  0  2  0  0  0  0  0  0
  156.0760  213.1350  155.7960 C   0  0  0  0  0  0  0  0  0  0  0  0
  163.0010  208.0540  150.5650 C   0  0  0  0  0  2  0  0  0  0  0  0
  160.8310  212.8390  150.1940 C   0  0  0  0  0  3  0  0  0  0  0  0
  160.8330  210.9700  151.8830 C   0  0  1  0  0  3  0  0  0  0  0  0
  160.1760  212.1650  151.2330 C   0  0  0  0  0  0  0  0  0  0  0  0
  158.2050  212.0160  152.8360 C   0  0  2  0  0  3  0  0  0  0  0  0
  156.5420  212.6600  156.9400 C   0  0  0  0  0  3  0  0  0  0  0  0
  161.2110  205.8270  153.3700 C   0  0  0  0  0  2  0  0  0  0  0  0
  162.2740  208.9460  151.5750 C   0  0  2  0  0  3  0  0  0  0  0  0
  157.3520  211.5150  156.7000 N   0  0  0  0  0  0  0  0  0  0  0  0
  162.0950  207.0410  153.2080 C   0  0  1  0  0  3  0  0  0  0  0  0
  162.0750  207.0040  149.9610 C   0  0  0  0  0  2  0  0  0  0  0  0
  158.4360  213.8120  151.1410 N   0  0  0  0  0  0  0  0  0  0  0  0
  158.9720  212.7070  151.7360 C   0  0  0  0  0  0  0  0  0  0  0  0
  157.4560  213.0250  153.7200 C   0  0  0  0  0  2  0  0  0  0  0  0
  160.6720  209.0810  153.5020 C   0  0  0  0  0  2  0  0  0  0  0  0
  159.0260  209.6720  155.6570 F   0  0  0  0  0  0  0  0  0  0  0  0
  155.1790  214.3170  155.6860 C   0  0  0  0  0  1  0  0  0  0  0  0
  159.0930  211.0850  153.6990 C   0  0  2  0  0  3  0  0  0  0  0  0
  156.5200  212.2790  154.6640 C   0  0  1  0  0  3  0  0  0  0  0  0
  161.8240  205.7920  150.8780 C   0  0  2  0  0  3  0  0  0  0  0  0
  160.5010  205.1370  150.6320 C   0  0  0  0  0  0  0  0  0  0  0  0
  159.6220  205.7160  149.9400 O   0  0  0  0  0  0  0  0  0  0  0  0
  160.2260  203.8640  151.2030 N   0  0  0  0  0  1  0  0  0  0  0  0
  1 19  1  0  0  0  0
  1 16  1  1  0  0  0
  2 24  1  1  0  0  0
  2 27  1  0  0  0  0
  3  4  2  0  0  0  0
  3 11  1  0  0  0  0
  4 21  1  0  0  0  0
  5  6  1  0  0  0  0
  5 25  1  1  0  0  0
  6 18  2  0  0  0  0
  7 19  1  0  0  0  0
  7 24  1  1  0  0  0
  8 17  1  0  0  0  0
  9 15  2  0  0  0  0
 11 13  2  0  0  0  0
 12  8  1  6  0  0  0
 12  2  1  0  0  0  0
 13 22  1  0  0  0  0
 13 12  1  0  0  0  0
 14 27  1  0  0  0  0
 14 23  1  1  0  0  0
 17 10  1  6  0  0  0
 17  7  1  0  0  0  0
 18 15  1  0  0  0  0
 19 16  1  1  0  0  0
 20 10  1  0  0  0  0
 20 29  1  0  0  0  0
 21 22  2  0  0  0  0
 22 14  1  0  0  0  0
 23 28  1  0  0  0  0
 26  9  1  0  0  0  0
 27  5  1  0  0  0  0
 28  6  1  0  0  0  0
 28  9  1  0  0  0  0
 29  1  1  0  0  0  0
 30 29  1  0  0  0  0
 30 32  1  0  0  0  0
 31 30  2  0  0  0  0
M  END
>  <MODEL>
4

>  <REMARK>
 VINA RESULT:      -5.8      3.126      8.786
  Name = 
  1 active torsions:
  status: ('A' for Active; 'I' for Inactive)
    1  A    between atoms: C_29  and  C_30
                            x       y       z     vdW  Elec       q    Type
                         _______ _______ _______ _____ _____    ______ ____

>  <TORSDO>
F 1

$$$$
