=
 OpenBabel11122412403D

 30 35  0  0  1  0  0  0  0  0999 V2000
  161.3490  206.4110  150.4900 C   0  0  0  0  0  0  0  0  0  0  0  0
  161.1770  203.9180  150.3950 C   0  0  0  0  0  0  0  0  0  0  0  0
  160.6650  206.4250  154.6230 N   0  0  0  0  0  2  0  0  0  0  0  0
  161.3010  207.6100  151.2610 C   0  0  0  0  0  0  0  0  0  0  0  0
  161.6150  206.4910  149.1590 N   0  0  0  0  0  0  0  0  0  0  0  0
  162.1360  210.0660  148.6090 O   0  0  0  0  0  1  0  0  0  0  0  0
  160.3400  210.4790  152.0470 C   0  0  1  0  0  3  0  0  0  0  0  0
  161.8630  208.8620  149.2520 C   0  0  0  0  0  0  0  0  0  0  0  0
  160.0480  209.7470  153.3610 C   0  0  2  0  0  3  0  0  0  0  0  0
  160.7270  207.8600  154.9030 C   0  0  1  0  0  3  0  0  0  0  0  0
  161.8630  207.6670  148.5280 C   0  0  0  0  0  0  0  0  0  0  0  0
  161.5940  208.8400  150.6290 C   0  0  0  0  0  0  0  0  0  0  0  0
  160.9930  202.7050  151.0660 C   0  0  0  0  0  3  0  0  0  0  0  0
  160.2500  210.7770  154.4540 C   0  0  0  0  0  2  0  0  0  0  0  0
  160.2970  211.9660  152.3580 C   0  0  0  0  0  2  0  0  0  0  0  0
  161.3910  203.8770  149.0220 O   0  0  0  0  0  1  0  0  0  0  0  0
  160.8610  206.2850  153.2290 C   0  0  0  0  0  0  0  0  0  0  0  0
  160.7750  202.6770  152.4420 C   0  0  0  0  0  3  0  0  0  0  0  0
  161.1420  205.1420  151.1110 C   0  0  0  0  0  0  0  0  0  0  0  0
  161.0020  207.5000  152.6330 C   0  0  0  0  0  0  0  0  0  0  0  0
  161.9510  208.1530  155.7520 C   0  0  0  0  0  1  0  0  0  0  0  0
  160.8510  208.5410  153.6020 N   0  0  0  0  0  0  0  0  0  0  0  0
  159.8960  212.0970  153.8130 C   0  0  0  0  0  2  0  0  0  0  0  0
  162.7400  210.1500  152.2740 O   0  0  0  0  0  1  0  0  0  0  0  0
  160.7330  203.8670  153.1650 C   0  0  0  0  0  3  0  0  0  0  0  0
  160.9120  205.0920  152.5150 C   0  0  0  0  0  0  0  0  0  0  0  0
  161.6670  210.1370  151.3780 C   0  0  2  0  0  3  0  0  0  0  0  0
  162.1230  207.6640  147.0600 C   0  0  0  0  0  2  0  0  0  0  0  0
  160.6300  206.1760  145.7640 C   0  0  0  0  0  1  0  0  0  0  0  0
  161.9470  206.2630  146.5050 C   0  0  0  0  0  2  0  0  0  0  0  0
  1 19  2  0  0  0  0
  1  4  1  0  0  0  0
  2 13  2  0  0  0  0
  2 19  1  0  0  0  0
  3 10  1  0  0  0  0
  4 20  2  0  0  0  0
  5  1  1  0  0  0  0
  6  8  1  0  0  0  0
  7 15  1  1  0  0  0
  7  9  1  0  0  0  0
  8 12  2  0  0  0  0
  9 22  1  0  0  0  0
  9 14  1  1  0  0  0
 10 21  1  1  0  0  0
 11  5  2  0  0  0  0
 11  8  1  0  0  0  0
 12  4  1  0  0  0  0
 12 27  1  0  0  0  0
 13 18  1  0  0  0  0
 15 23  1  0  0  0  0
 16  2  1  0  0  0  0
 17  3  1  0  0  0  0
 18 25  2  0  0  0  0
 19 26  1  0  0  0  0
 20 17  1  0  0  0  0
 20 22  1  0  0  0  0
 22 10  1  0  0  0  0
 23 14  1  0  0  0  0
 26 25  1  0  0  0  0
 26 17  2  0  0  0  0
 27  7  1  0  0  0  0
 27 24  1  1  0  0  0
 28 11  1  0  0  0  0
 29 30  1  0  0  0  0
 30 28  1  0  0  0  0
M  END
>  <MODEL>
1

>  <REMARK>
 VINA RESULT:      -7.7      0.000      0.000
  Name = 
  2 active torsions:
  status: ('A' for Active; 'I' for Inactive)
    1  A    between atoms: C_11  and  C_28
    2  A    between atoms: C_28  and  C_30
                            x       y       z     vdW  Elec       q    Type
                         _______ _______ _______ _____ _____    ______ ____

>  <TORSDO>
F 2

$$$$
=
 OpenBabel11122412403D

 30 35  0  0  1  0  0  0  0  0999 V2000
  161.4390  207.9150  151.3940 C   0  0  0  0  0  0  0  0  0  0  0  0
  161.6380  210.3610  150.9120 C   0  0  0  0  0  0  0  0  0  0  0  0
  162.0460  206.9440  147.3650 N   0  0  0  0  0  2  0  0  0  0  0  0
  161.4400  206.5710  150.9150 C   0  0  0  0  0  0  0  0  0  0  0  0
  161.2730  208.1420  152.7250 N   0  0  0  0  0  0  0  0  0  0  0  0
  161.0360  204.7810  154.1400 O   0  0  0  0  0  1  0  0  0  0  0  0
  160.3250  203.6860  150.4640 C   0  0  1  0  0  3  0  0  0  0  0  0
  161.1630  205.8080  153.2090 C   0  0  0  0  0  0  0  0  0  0  0  0
  160.5640  204.0950  149.0070 C   0  0  2  0  0  3  0  0  0  0  0  0
  161.9650  205.4840  147.4230 C   0  0  1  0  0  3  0  0  0  0  0  0
  161.1310  207.1410  153.6300 C   0  0  0  0  0  0  0  0  0  0  0  0
  161.3310  205.5140  151.8470 C   0  0  0  0  0  0  0  0  0  0  0  0
  161.8580  211.3830  149.9840 C   0  0  0  0  0  3  0  0  0  0  0  0
  160.9230  202.8150  148.2790 C   0  0  0  0  0  2  0  0  0  0  0  0
  160.1470  202.1770  150.4680 C   0  0  0  0  0  2  0  0  0  0  0  0
  161.4290  210.7190  152.2390 O   0  0  0  0  0  1  0  0  0  0  0  0
  161.8290  207.4050  148.6850 C   0  0  0  0  0  0  0  0  0  0  0  0
  162.0740  211.0900  148.6390 C   0  0  0  0  0  3  0  0  0  0  0  0
  161.6310  209.0050  150.4930 C   0  0  0  0  0  0  0  0  0  0  0  0
  161.5910  206.3660  149.5300 C   0  0  0  0  0  0  0  0  0  0  0  0
  163.3270  204.8930  147.1070 C   0  0  0  0  0  1  0  0  0  0  0  0
  161.5800  205.1350  148.8020 N   0  0  0  0  0  0  0  0  0  0  0  0
  160.1910  201.7260  149.0230 C   0  0  0  0  0  2  0  0  0  0  0  0
  162.7020  203.7520  150.9820 O   0  0  0  0  0  1  0  0  0  0  0  0
  162.0680  209.7660  148.2040 C   0  0  0  0  0  3  0  0  0  0  0  0
  161.8470  208.7290  149.1140 C   0  0  0  0  0  0  0  0  0  0  0  0
  161.4240  204.0720  151.4490 C   0  0  2  0  0  3  0  0  0  0  0  0
  160.9300  207.4830  155.0680 C   0  0  0  0  0  2  0  0  0  0  0  0
  159.7770  209.5710  155.7220 C   0  0  0  0  0  1  0  0  0  0  0  0
  161.0940  208.9760  155.2730 C   0  0  0  0  0  2  0  0  0  0  0  0
  1  5  2  0  0  0  0
  2 16  1  0  0  0  0
  3 10  1  0  0  0  0
  3 17  1  0  0  0  0
  4  1  1  0  0  0  0
  4 12  2  0  0  0  0
  5 11  1  0  0  0  0
  7 15  1  6  0  0  0
  7 27  1  0  0  0  0
  8 11  2  0  0  0  0
  8  6  1  0  0  0  0
  9 14  1  6  0  0  0
  9  7  1  0  0  0  0
 10 21  1  1  0  0  0
 10 22  1  0  0  0  0
 11 28  1  0  0  0  0
 12  8  1  0  0  0  0
 13  2  2  0  0  0  0
 14 23  1  0  0  0  0
 17 26  1  0  0  0  0
 17 20  2  0  0  0  0
 18 13  1  0  0  0  0
 19  2  1  0  0  0  0
 19  1  1  0  0  0  0
 20  4  1  0  0  0  0
 22  9  1  0  0  0  0
 22 20  1  0  0  0  0
 23 15  1  0  0  0  0
 25 18  2  0  0  0  0
 25 26  1  0  0  0  0
 26 19  2  0  0  0  0
 27 24  1  6  0  0  0
 27 12  1  0  0  0  0
 28 30  1  0  0  0  0
 30 29  1  0  0  0  0
M  END
>  <MODEL>
2

>  <REMARK>
 VINA RESULT:      -7.2      1.672      7.206
  Name = 
  2 active torsions:
  status: ('A' for Active; 'I' for Inactive)
    1  A    between atoms: C_11  and  C_28
    2  A    between atoms: C_28  and  C_30
                            x       y       z     vdW  Elec       q    Type
                         _______ _______ _______ _____ _____    ______ ____

>  <TORSDO>
F 2

$$$$
=
 OpenBabel11122412403D

 30 35  0  0  1  0  0  0  0  0999 V2000
  160.9020  210.2400  151.7370 C   0  0  0  0  0  0  0  0  0  0  0  0
  162.0720  208.2640  150.7470 C   0  0  0  0  0  0  0  0  0  0  0  0
  160.2380  208.1990  155.3350 N   0  0  0  0  0  2  0  0  0  0  0  0
  160.2140  210.8250  152.8420 C   0  0  0  0  0  0  0  0  0  0  0  0
  161.1090  210.9850  150.6180 N   0  0  0  0  0  0  0  0  0  0  0  0
  159.6760  214.2340  151.4800 O   0  0  0  0  0  1  0  0  0  0  0  0
  157.8700  212.2680  154.3240 C   0  0  1  0  0  3  0  0  0  0  0  0
  160.0670  212.9020  151.5830 C   0  0  0  0  0  0  0  0  0  0  0  0
  157.9850  211.0130  155.1950 C   0  0  2  0  0  3  0  0  0  0  0  0
  159.5290  209.2250  156.1020 C   0  0  1  0  0  3  0  0  0  0  0  0
  160.7110  212.2780  150.5110 C   0  0  0  0  0  0  0  0  0  0  0  0
  159.8260  212.1820  152.7630 C   0  0  0  0  0  0  0  0  0  0  0  0
  162.5430  206.9560  150.8930 C   0  0  0  0  0  3  0  0  0  0  0  0
  157.5930  211.4500  156.5930 C   0  0  0  0  0  2  0  0  0  0  0  0
  157.0440  213.2700  155.1120 C   0  0  0  0  0  2  0  0  0  0  0  0
  162.3000  208.9070  149.5350 O   0  0  0  0  0  1  0  0  0  0  0  0
  160.5030  208.7670  154.0660 C   0  0  0  0  0  0  0  0  0  0  0  0
  162.3470  206.2560  152.0810 C   0  0  0  0  0  3  0  0  0  0  0  0
  161.3830  208.8980  151.8130 C   0  0  0  0  0  0  0  0  0  0  0  0
  159.9930  210.0250  153.9790 C   0  0  0  0  0  0  0  0  0  0  0  0
  160.3990  209.6760  157.2610 C   0  0  0  0  0  1  0  0  0  0  0  0
  159.2990  210.3560  155.1850 N   0  0  0  0  0  0  0  0  0  0  0  0
  156.6080  212.5750  156.3850 C   0  0  0  0  0  2  0  0  0  0  0  0
  160.0790  213.0520  154.9790 O   0  0  0  0  0  1  0  0  0  0  0  0
  161.6710  206.8570  153.1410 C   0  0  0  0  0  3  0  0  0  0  0  0
  161.1890  208.1640  153.0160 C   0  0  0  0  0  0  0  0  0  0  0  0
  159.1910  212.9100  153.9090 C   0  0  2  0  0  3  0  0  0  0  0  0
  160.9600  213.0120  149.2370 C   0  0  0  0  0  2  0  0  0  0  0  0
  162.9770  212.5850  147.8690 C   0  0  0  0  0  1  0  0  0  0  0  0
  161.5920  212.0830  148.2190 C   0  0  0  0  0  2  0  0  0  0  0  0
  1 19  2  0  0  0  0
  1  4  1  0  0  0  0
  2 13  2  0  0  0  0
  2 19  1  0  0  0  0
  3 10  1  0  0  0  0
  4 20  2  0  0  0  0
  5  1  1  0  0  0  0
  6  8  1  0  0  0  0
  7 15  1  1  0  0  0
  7  9  1  0  0  0  0
  8 12  2  0  0  0  0
  9 14  1  1  0  0  0
 10 21  1  1  0  0  0
 11  5  2  0  0  0  0
 11  8  1  0  0  0  0
 12  4  1  0  0  0  0
 12 27  1  0  0  0  0
 13 18  1  0  0  0  0
 15 23  1  0  0  0  0
 16  2  1  0  0  0  0
 17  3  1  0  0  0  0
 18 25  2  0  0  0  0
 19 26  1  0  0  0  0
 20 17  1  0  0  0  0
 20 22  1  0  0  0  0
 22  9  1  0  0  0  0
 22 10  1  0  0  0  0
 23 14  1  0  0  0  0
 26 25  1  0  0  0  0
 26 17  2  0  0  0  0
 27  7  1  0  0  0  0
 27 24  1  1  0  0  0
 28 11  1  0  0  0  0
 29 30  1  0  0  0  0
 30 28  1  0  0  0  0
M  END
>  <MODEL>
3

>  <REMARK>
 VINA RESULT:      -6.4      2.670      4.283
  Name = 
  2 active torsions:
  status: ('A' for Active; 'I' for Inactive)
    1  A    between atoms: C_11  and  C_28
    2  A    between atoms: C_28  and  C_30
                            x       y       z     vdW  Elec       q    Type
                         _______ _______ _______ _____ _____    ______ ____

>  <TORSDO>
F 2

$$$$
=
 OpenBabel11122412403D

 30 35  0  0  1  0  0  0  0  0999 V2000
  161.3730  207.8290  150.9080 C   0  0  0  0  0  0  0  0  0  0  0  0
  161.4390  205.5510  149.8770 C   0  0  0  0  0  0  0  0  0  0  0  0
  160.5120  206.2310  154.6830 N   0  0  0  0  0  2  0  0  0  0  0  0
  161.1800  208.6410  152.0650 C   0  0  0  0  0  0  0  0  0  0  0  0
  161.6880  208.4250  149.7260 N   0  0  0  0  0  0  0  0  0  0  0  0
  161.8960  211.9700  150.5910 O   0  0  0  0  0  1  0  0  0  0  0  0
  159.9220  210.9250  153.7880 C   0  0  1  0  0  3  0  0  0  0  0  0
  161.7090  210.5960  150.7160 C   0  0  0  0  0  0  0  0  0  0  0  0
  159.6430  209.7320  154.7080 C   0  0  2  0  0  3  0  0  0  0  0  0
  160.4280  207.4550  155.4820 C   0  0  1  0  0  3  0  0  0  0  0  0
  161.8530  209.7670  149.6000 C   0  0  0  0  0  0  0  0  0  0  0  0
  161.3840  210.0360  151.9610 C   0  0  0  0  0  0  0  0  0  0  0  0
  161.3400  204.1650  150.0310 C   0  0  0  0  0  3  0  0  0  0  0  0
  159.7000  210.2840  156.1190 C   0  0  0  0  0  2  0  0  0  0  0  0
  159.7270  212.1760  154.6280 C   0  0  0  0  0  2  0  0  0  0  0  0
  161.7150  206.0480  148.6080 O   0  0  0  0  0  1  0  0  0  0  0  0
  160.7800  206.6430  153.3560 C   0  0  0  0  0  0  0  0  0  0  0  0
  161.0660  203.6040  151.2760 C   0  0  0  0  0  3  0  0  0  0  0  0
  161.2590  206.4080  150.9930 C   0  0  0  0  0  0  0  0  0  0  0  0
  160.8330  208.0000  153.2690 C   0  0  0  0  0  0  0  0  0  0  0  0
  161.5810  207.4900  156.4680 C   0  0  0  0  0  1  0  0  0  0  0  0
  160.5440  208.5830  154.5420 N   0  0  0  0  0  0  0  0  0  0  0  0
  159.2530  211.7200  155.9920 C   0  0  0  0  0  2  0  0  0  0  0  0
  162.3310  210.7030  154.0570 O   0  0  0  0  0  1  0  0  0  0  0  0
  160.8820  204.4260  152.3860 C   0  0  0  0  0  3  0  0  0  0  0  0
  160.9740  205.8150  152.2540 C   0  0  0  0  0  0  0  0  0  0  0  0
  161.3040  210.9550  153.1430 C   0  0  2  0  0  3  0  0  0  0  0  0
  162.1750  210.3370  148.2610 C   0  0  0  0  0  2  0  0  0  0  0  0
  161.9480  212.5780  147.2380 C   0  0  0  0  0  1  0  0  0  0  0  0
  161.2050  211.4530  147.9260 C   0  0  0  0  0  2  0  0  0  0  0  0
  1 19  2  0  0  0  0
  1  4  1  0  0  0  0
  2 13  2  0  0  0  0
  2 19  1  0  0  0  0
  3 10  1  0  0  0  0
  4 20  2  0  0  0  0
  5  1  1  0  0  0  0
  6  8  1  0  0  0  0
  7 15  1  1  0  0  0
  7  9  1  0  0  0  0
  8 12  2  0  0  0  0
  9 14  1  1  0  0  0
 10 21  1  1  0  0  0
 11  5  2  0  0  0  0
 11  8  1  0  0  0  0
 12  4  1  0  0  0  0
 12 27  1  0  0  0  0
 13 18  1  0  0  0  0
 15 23  1  0  0  0  0
 16  2  1  0  0  0  0
 17  3  1  0  0  0  0
 18 25  2  0  0  0  0
 19 26  1  0  0  0  0
 20 17  1  0  0  0  0
 20 22  1  0  0  0  0
 22  9  1  0  0  0  0
 22 10  1  0  0  0  0
 23 14  1  0  0  0  0
 26 25  1  0  0  0  0
 26 17  2  0  0  0  0
 27  7  1  0  0  0  0
 27 24  1  1  0  0  0
 28 11  1  0  0  0  0
 29 30  1  0  0  0  0
 30 28  1  0  0  0  0
M  END
>  <MODEL>
4

>  <REMARK>
 VINA RESULT:      -6.2      1.676      2.310
  Name = 
  2 active torsions:
  status: ('A' for Active; 'I' for Inactive)
    1  A    between atoms: C_11  and  C_28
    2  A    between atoms: C_28  and  C_30
                            x       y       z     vdW  Elec       q    Type
                         _______ _______ _______ _____ _____    ______ ____

>  <TORSDO>
F 2

$$$$
=
 OpenBabel11122412403D

 30 35  0  0  1  0  0  0  0  0999 V2000
  160.8510  210.1610  152.2030 C   0  0  0  0  0  0  0  0  0  0  0  0
  161.9410  210.0540  149.9550 C   0  0  0  0  0  0  0  0  0  0  0  0
  159.4880  214.0580  151.4940 N   0  0  0  0  0  2  0  0  0  0  0  0
  160.0960  210.9020  153.1610 C   0  0  0  0  0  0  0  0  0  0  0  0
  161.2220  208.8860  152.4970 N   0  0  0  0  0  0  0  0  0  0  0  0
  159.7540  208.3100  155.7930 O   0  0  0  0  0  1  0  0  0  0  0  0
  159.4660  212.1970  155.9350 C   0  0  1  0  0  3  0  0  0  0  0  0
  160.1150  208.9470  154.6090 C   0  0  0  0  0  0  0  0  0  0  0  0
  159.3610  213.4410  155.0450 C   0  0  2  0  0  3  0  0  0  0  0  0
  158.7850  214.3310  152.7490 C   0  0  1  0  0  3  0  0  0  0  0  0
  160.8850  208.2710  153.6590 C   0  0  0  0  0  0  0  0  0  0  0  0
  159.7040  210.2650  154.3610 C   0  0  0  0  0  0  0  0  0  0  0  0
  162.2210  210.6690  148.7300 C   0  0  0  0  0  3  0  0  0  0  0  0
  158.3170  214.3230  155.7020 C   0  0  0  0  0  2  0  0  0  0  0  0
  158.8150  212.5540  157.2610 C   0  0  0  0  0  2  0  0  0  0  0  0
  162.4190  208.7650  150.1600 O   0  0  0  0  0  1  0  0  0  0  0  0
  160.0250  212.7550  151.6180 C   0  0  0  0  0  0  0  0  0  0  0  0
  161.7720  211.9600  148.4620 C   0  0  0  0  0  3  0  0  0  0  0  0
  161.1930  210.7420  150.9440 C   0  0  0  0  0  0  0  0  0  0  0  0
  159.7450  212.2270  152.8400 C   0  0  0  0  0  0  0  0  0  0  0  0
  157.2970  214.4470  152.4750 C   0  0  0  0  0  1  0  0  0  0  0  0
  159.0390  213.1830  153.6360 N   0  0  0  0  0  0  0  0  0  0  0  0
  158.4190  214.0140  157.1760 C   0  0  0  0  0  2  0  0  0  0  0  0
  157.5400  211.1500  154.8780 O   0  0  0  0  0  1  0  0  0  0  0  0
  161.0380  212.6560  149.4200 C   0  0  0  0  0  3  0  0  0  0  0  0
  160.7490  212.0620  150.6520 C   0  0  0  0  0  0  0  0  0  0  0  0
  158.8270  210.9290  155.3790 C   0  0  2  0  0  3  0  0  0  0  0  0
  161.3560  206.8780  153.9070 C   0  0  0  0  0  2  0  0  0  0  0  0
  161.2060  204.7510  152.6530 C   0  0  0  0  0  1  0  0  0  0  0  0
  161.6640  206.1920  152.5900 C   0  0  0  0  0  2  0  0  0  0  0  0
  1  5  2  0  0  0  0
  1  4  1  0  0  0  0
  2 16  1  0  0  0  0
  2 19  1  0  0  0  0
  3 17  1  0  0  0  0
  3 10  1  0  0  0  0
  4 12  2  0  0  0  0
  5 11  1  0  0  0  0
  7 15  1  1  0  0  0
  8  6  1  0  0  0  0
  9 14  1  1  0  0  0
  9  7  1  0  0  0  0
 10 21  1  6  0  0  0
 10 22  1  0  0  0  0
 11 28  1  0  0  0  0
 11  8  2  0  0  0  0
 12  8  1  0  0  0  0
 12 27  1  0  0  0  0
 13  2  2  0  0  0  0
 14 23  1  0  0  0  0
 17 20  2  0  0  0  0
 18 13  1  0  0  0  0
 18 25  2  0  0  0  0
 19  1  1  0  0  0  0
 20  4  1  0  0  0  0
 20 22  1  0  0  0  0
 22  9  1  0  0  0  0
 23 15  1  0  0  0  0
 25 26  1  0  0  0  0
 26 19  2  0  0  0  0
 26 17  1  0  0  0  0
 27 24  1  6  0  0  0
 27  7  1  0  0  0  0
 30 29  1  0  0  0  0
 30 28  1  0  0  0  0
M  END
>  <MODEL>
5

>  <REMARK>
 VINA RESULT:      -5.9      2.828      6.272
  Name = 
  2 active torsions:
  status: ('A' for Active; 'I' for Inactive)
    1  A    between atoms: C_11  and  C_28
    2  A    between atoms: C_28  and  C_30
                            x       y       z     vdW  Elec       q    Type
                         _______ _______ _______ _____ _____    ______ ____

>  <TORSDO>
F 2

$$$$
=
 OpenBabel11122412403D

 30 35  0  0  1  0  0  0  0  0999 V2000
  161.4810  208.5780  151.4100 C   0  0  0  0  0  0  0  0  0  0  0  0
  161.4010  208.9570  153.8800 C   0  0  0  0  0  0  0  0  0  0  0  0
  161.0470  204.4410  151.9040 N   0  0  0  0  0  2  0  0  0  0  0  0
  161.4530  207.6670  150.3120 C   0  0  0  0  0  0  0  0  0  0  0  0
  161.5870  209.9110  151.1600 N   0  0  0  0  0  0  0  0  0  0  0  0
  161.6200  210.0950  147.5110 O   0  0  0  0  0  1  0  0  0  0  0  0
  162.4780  206.2940  147.6970 C   0  0  1  0  0  3  0  0  0  0  0  0
  161.5810  209.5690  148.7990 C   0  0  0  0  0  0  0  0  0  0  0  0
  162.3310  205.0580  148.5910 C   0  0  2  0  0  3  0  0  0  0  0  0
  161.0680  203.9980  150.5090 C   0  0  1  0  0  3  0  0  0  0  0  0
  161.6430  210.4230  149.9050 C   0  0  0  0  0  0  0  0  0  0  0  0
  161.4730  208.1840  148.9960 C   0  0  0  0  0  0  0  0  0  0  0  0
  161.2690  208.4280  155.1680 C   0  0  0  0  0  3  0  0  0  0  0  0
  161.9600  203.9230  147.6560 C   0  0  0  0  0  2  0  0  0  0  0  0
  162.5970  205.7880  146.2700 C   0  0  0  0  0  2  0  0  0  0  0  0
  161.5550  210.3330  153.7540 O   0  0  0  0  0  1  0  0  0  0  0  0
  161.2120  205.8460  151.8750 C   0  0  0  0  0  0  0  0  0  0  0  0
  161.1120  207.0570  155.3630 C   0  0  0  0  0  3  0  0  0  0  0  0
  161.3780  208.0990  152.7510 C   0  0  0  0  0  0  0  0  0  0  0  0
  161.3660  206.2920  150.5990 C   0  0  0  0  0  0  0  0  0  0  0  0
  159.7030  203.4500  150.1360 C   0  0  0  0  0  1  0  0  0  0  0  0
  161.3670  205.1870  149.6920 N   0  0  0  0  0  0  0  0  0  0  0  0
  162.6110  204.2750  146.3410 C   0  0  0  0  0  2  0  0  0  0  0  0
  160.0810  206.7190  147.7110 O   0  0  0  0  0  1  0  0  0  0  0  0
  161.0890  206.1950  154.2690 C   0  0  0  0  0  3  0  0  0  0  0  0
  161.2230  206.7020  152.9720 C   0  0  0  0  0  0  0  0  0  0  0  0
  161.3450  207.3120  147.7830 C   0  0  2  0  0  3  0  0  0  0  0  0
  161.7820  211.8960  149.7250 C   0  0  0  0  0  2  0  0  0  0  0  0
  160.1510  213.7190  149.3540 C   0  0  0  0  0  1  0  0  0  0  0  0
  160.5650  212.6040  150.2900 C   0  0  0  0  0  2  0  0  0  0  0  0
  1 19  1  0  0  0  0
  2 13  1  0  0  0  0
  4 20  1  0  0  0  0
  4  1  2  0  0  0  0
  5  1  1  0  0  0  0
  6  8  1  0  0  0  0
  7 15  1  6  0  0  0
  7 27  1  0  0  0  0
  7  9  1  0  0  0  0
  8 12  2  0  0  0  0
  8 11  1  0  0  0  0
  9 14  1  6  0  0  0
  9 22  1  0  0  0  0
 10 21  1  6  0  0  0
 10  3  1  0  0  0  0
 11  5  2  0  0  0  0
 12  4  1  0  0  0  0
 13 18  2  0  0  0  0
 15 23  1  0  0  0  0
 16  2  1  0  0  0  0
 17  3  1  0  0  0  0
 17 26  1  0  0  0  0
 19 26  1  0  0  0  0
 19  2  2  0  0  0  0
 20 17  2  0  0  0  0
 22 10  1  0  0  0  0
 22 20  1  0  0  0  0
 23 14  1  0  0  0  0
 25 18  1  0  0  0  0
 26 25  2  0  0  0  0
 27 24  1  1  0  0  0
 27 12  1  0  0  0  0
 28 11  1  0  0  0  0
 28 30  1  0  0  0  0
 29 30  1  0  0  0  0
M  END
>  <MODEL>
6

>  <REMARK>
 VINA RESULT:      -5.5      1.806      5.718
  Name = 
  2 active torsions:
  status: ('A' for Active; 'I' for Inactive)
    1  A    between atoms: C_11  and  C_28
    2  A    between atoms: C_28  and  C_30
                            x       y       z     vdW  Elec       q    Type
                         _______ _______ _______ _____ _____    ______ ____

>  <TORSDO>
F 2

$$$$
=
 OpenBabel11122412403D

 30 35  0  0  1  0  0  0  0  0999 V2000
  161.4130  206.7900  150.7270 C   0  0  0  0  0  0  0  0  0  0  0  0
  161.6860  209.2760  150.7140 C   0  0  0  0  0  0  0  0  0  0  0  0
  162.1590  206.5600  146.6120 N   0  0  0  0  0  2  0  0  0  0  0  0
  161.4030  205.5580  150.0080 C   0  0  0  0  0  0  0  0  0  0  0  0
  161.1990  206.7730  152.0710 N   0  0  0  0  0  0  0  0  0  0  0  0
  160.8310  203.2170  152.8290 O   0  0  0  0  0  1  0  0  0  0  0  0
  160.2440  202.8390  148.9910 C   0  0  1  0  0  3  0  0  0  0  0  0
  161.0180  204.3940  152.1100 C   0  0  0  0  0  0  0  0  0  0  0  0
  160.5500  203.5020  147.6440 C   0  0  2  0  0  3  0  0  0  0  0  0
  162.0440  205.1170  146.3960 C   0  0  1  0  0  3  0  0  0  0  0  0
  160.9980  205.6270  152.7690 C   0  0  0  0  0  0  0  0  0  0  0  0
  161.2340  204.3510  150.7240 C   0  0  0  0  0  0  0  0  0  0  0  0
  161.9660  210.4450  149.9990 C   0  0  0  0  0  3  0  0  0  0  0  0
  160.9100  202.3680  146.7050 C   0  0  0  0  0  2  0  0  0  0  0  0
  160.0320  201.3610  148.7100 C   0  0  0  0  0  2  0  0  0  0  0  0
  161.4310  209.3900  152.0760 O   0  0  0  0  0  1  0  0  0  0  0  0
  161.9000  206.7760  147.9860 C   0  0  0  0  0  0  0  0  0  0  0  0
  162.2290  210.3980  148.6310 C   0  0  0  0  0  3  0  0  0  0  0  0
  161.6650  208.0220  150.0510 C   0  0  0  0  0  0  0  0  0  0  0  0
  161.6050  205.6070  148.6150 C   0  0  0  0  0  0  0  0  0  0  0  0
  163.4040  204.5550  146.0240 C   0  0  0  0  0  1  0  0  0  0  0  0
  161.5960  204.5320  147.6720 N   0  0  0  0  0  0  0  0  0  0  0  0
  160.1240  201.1820  147.2090 C   0  0  0  0  0  2  0  0  0  0  0  0
  162.6000  202.7390  149.5960 O   0  0  0  0  0  1  0  0  0  0  0  0
  162.2110  209.1780  147.9590 C   0  0  0  0  0  3  0  0  0  0  0  0
  161.9310  207.9970  148.6530 C   0  0  0  0  0  0  0  0  0  0  0  0
  161.3110  203.0050  150.0690 C   0  0  2  0  0  3  0  0  0  0  0  0
  160.7480  205.7040  154.2370 C   0  0  0  0  0  2  0  0  0  0  0  0
  159.9410  207.5590  155.6610 C   0  0  0  0  0  1  0  0  0  0  0  0
  161.0530  207.1010  154.7420 C   0  0  0  0  0  2  0  0  0  0  0  0
  1  5  2  0  0  0  0
  2 16  1  0  0  0  0
  3 17  1  0  0  0  0
  4 12  2  0  0  0  0
  4  1  1  0  0  0  0
  5 11  1  0  0  0  0
  7 15  1  6  0  0  0
  7 27  1  0  0  0  0
  8 11  2  0  0  0  0
  8  6  1  0  0  0  0
  9 14  1  6  0  0  0
  9 22  1  0  0  0  0
  9  7  1  0  0  0  0
 10 21  1  1  0  0  0
 10  3  1  0  0  0  0
 10 22  1  0  0  0  0
 11 28  1  0  0  0  0
 12  8  1  0  0  0  0
 13  2  2  0  0  0  0
 14 23  1  0  0  0  0
 17 20  2  0  0  0  0
 17 26  1  0  0  0  0
 18 13  1  0  0  0  0
 19  2  1  0  0  0  0
 19  1  1  0  0  0  0
 20  4  1  0  0  0  0
 22 20  1  0  0  0  0
 23 15  1  0  0  0  0
 25 18  2  0  0  0  0
 25 26  1  0  0  0  0
 26 19  2  0  0  0  0
 27 24  1  6  0  0  0
 27 12  1  0  0  0  0
 28 30  1  0  0  0  0
 30 29  1  0  0  0  0
M  END
>  <MODEL>
7

>  <REMARK>
 VINA RESULT:      -5.5      2.005      7.553
  Name = 
  2 active torsions:
  status: ('A' for Active; 'I' for Inactive)
    1  A    between atoms: C_11  and  C_28
    2  A    between atoms: C_28  and  C_30
                            x       y       z     vdW  Elec       q    Type
                         _______ _______ _______ _____ _____    ______ ____

>  <TORSDO>
F 2

$$$$
=
 OpenBabel11122412403D

 30 35  0  0  1  0  0  0  0  0999 V2000
  161.1030  209.1920  151.8930 C   0  0  0  0  0  0  0  0  0  0  0  0
  161.0770  211.6110  151.2560 C   0  0  0  0  0  0  0  0  0  0  0  0
  161.9590  208.0380  147.9580 N   0  0  0  0  0  2  0  0  0  0  0  0
  161.2560  207.8280  151.5040 C   0  0  0  0  0  0  0  0  0  0  0  0
  160.8640  209.4840  153.2000 N   0  0  0  0  0  0  0  0  0  0  0  0
  160.9080  206.2110  154.8250 O   0  0  0  0  0  1  0  0  0  0  0  0
  160.4520  204.8220  151.2080 C   0  0  1  0  0  3  0  0  0  0  0  0
  160.9680  207.1860  153.8330 C   0  0  0  0  0  0  0  0  0  0  0  0
  160.7050  205.1610  149.7360 C   0  0  2  0  0  3  0  0  0  0  0  0
  162.0210  206.5830  148.1100 C   0  0  1  0  0  3  0  0  0  0  0  0
  160.7870  208.5320  154.1640 C   0  0  0  0  0  0  0  0  0  0  0  0
  161.2170  206.8260  152.5000 C   0  0  0  0  0  0  0  0  0  0  0  0
  161.2300  212.5900  150.2700 C   0  0  0  0  0  3  0  0  0  0  0  0
  161.2180  203.8810  149.1060 C   0  0  0  0  0  2  0  0  0  0  0  0
  160.4240  203.3060  151.3070 C   0  0  0  0  0  2  0  0  0  0  0  0
  160.7820  212.0290  152.5490 O   0  0  0  0  0  1  0  0  0  0  0  0
  161.6460  208.5560  149.2370 C   0  0  0  0  0  0  0  0  0  0  0  0
  161.5260  212.2370  148.9550 C   0  0  0  0  0  3  0  0  0  0  0  0
  161.2200  210.2380  150.9280 C   0  0  0  0  0  0  0  0  0  0  0  0
  161.4800  207.5530  150.1410 C   0  0  0  0  0  0  0  0  0  0  0  0
  163.4460  206.1150  147.8770 C   0  0  0  0  0  1  0  0  0  0  0  0
  161.6200  206.2850  149.4960 N   0  0  0  0  0  0  0  0  0  0  0  0
  160.5680  202.7720  149.8970 C   0  0  0  0  0  2  0  0  0  0  0  0
  162.7890  205.1620  151.7970 O   0  0  0  0  0  1  0  0  0  0  0  0
  161.6680  210.8950  148.6080 C   0  0  0  0  0  3  0  0  0  0  0  0
  161.5170  209.8990  149.5780 C   0  0  0  0  0  0  0  0  0  0  0  0
  161.4680  205.3780  152.2010 C   0  0  2  0  0  3  0  0  0  0  0  0
  160.4980  208.9410  155.5680 C   0  0  0  0  0  2  0  0  0  0  0  0
  160.6520  211.2110  156.5390 C   0  0  0  0  0  1  0  0  0  0  0  0
  159.8780  210.3250  155.5880 C   0  0  0  0  0  2  0  0  0  0  0  0
  1  5  2  0  0  0  0
  2 16  1  0  0  0  0
  3 10  1  0  0  0  0
  3 17  1  0  0  0  0
  4  1  1  0  0  0  0
  4 12  2  0  0  0  0
  5 11  1  0  0  0  0
  7 15  1  6  0  0  0
  7 27  1  0  0  0  0
  8 11  2  0  0  0  0
  8  6  1  0  0  0  0
  9 14  1  6  0  0  0
  9  7  1  0  0  0  0
 10 21  1  1  0  0  0
 10 22  1  0  0  0  0
 11 28  1  0  0  0  0
 12  8  1  0  0  0  0
 13  2  2  0  0  0  0
 14 23  1  0  0  0  0
 17 26  1  0  0  0  0
 17 20  2  0  0  0  0
 18 13  1  0  0  0  0
 19  2  1  0  0  0  0
 19  1  1  0  0  0  0
 20  4  1  0  0  0  0
 22  9  1  0  0  0  0
 22 20  1  0  0  0  0
 23 15  1  0  0  0  0
 25 18  2  0  0  0  0
 25 26  1  0  0  0  0
 26 19  2  0  0  0  0
 27 24  1  6  0  0  0
 27 12  1  0  0  0  0
 28 30  1  0  0  0  0
 30 29  1  0  0  0  0
M  END
>  <MODEL>
8

>  <REMARK>
 VINA RESULT:      -5.3      1.824      7.160
  Name = 
  2 active torsions:
  status: ('A' for Active; 'I' for Inactive)
    1  A    between atoms: C_11  and  C_28
    2  A    between atoms: C_28  and  C_30
                            x       y       z     vdW  Elec       q    Type
                         _______ _______ _______ _____ _____    ______ ____

>  <TORSDO>
F 2

$$$$
