=
 OpenBabel11122413373D

 37 43  0  0  1  0  0  0  0  0999 V2000
  158.0560  212.7430  151.1760 C   0  0  0  0  0  2  0  0  0  0  0  0
  161.8390  213.6020  147.8340 C   0  0  1  0  0  0  0  0  0  0  0  0
  161.1170  210.6270  150.7750 N   0  0  1  0  0  0  0  0  0  0  0  0
  156.7680  213.5580  151.0320 C   0  0  2  0  0  3  0  0  0  0  0  0
  159.5400  211.4960  154.0320 O   0  0  0  0  0  0  0  0  0  0  0  0
  162.1520  211.1660  148.5490 C   0  0  1  0  0  3  0  0  0  0  0  0
  160.8600  211.4000  152.0010 C   0  0  2  0  0  3  0  0  0  0  0  0
  156.5650  213.7830  153.6120 C   0  0  2  0  0  3  0  0  0  0  0  0
  161.7690  211.6260  149.9600 C   0  0  1  0  0  3  0  0  0  0  0  0
  159.7310  210.7680  152.8500 C   0  0  1  0  0  3  0  0  0  0  0  0
  161.7890  209.6930  148.3390 C   0  0  0  0  0  2  0  0  0  0  0  0
  156.4310  214.4530  152.2350 C   0  0  0  0  0  2  0  0  0  0  0  0
  160.8610  212.7930  150.0170 C   0  0  2  0  0  3  0  0  0  0  0  0
  160.9690  214.4530  146.9340 C   0  0  0  0  0  1  0  0  0  0  0  0
  161.6930  208.5160  151.9600 C   0  0  0  0  0  2  0  0  0  0  0  0
  162.2580  208.8320  149.5350 C   0  0  0  0  0  2  0  0  0  0  0  0
  161.5180  213.9650  149.3090 C   0  0  0  0  0  2  0  0  0  0  0  0
  157.9970  213.3430  154.0020 C   0  0  1  0  0  3  0  0  0  0  0  0
  158.1820  211.8220  154.0390 C   0  0  0  0  0  2  0  0  0  0  0  0
  162.0870  209.5350  150.9020 C   0  0  1  0  0  3  0  0  0  0  0  0
  160.6120  212.8800  151.5090 C   0  0  1  0  0  3  0  0  0  0  0  0
  161.5930  212.1100  147.4750 C   0  0  0  0  0  2  0  0  0  0  0  0
  159.9330  209.2740  153.2010 C   0  0  1  0  0  3  0  0  0  0  0  0
  163.1750  213.9120  147.5810 O   0  0  0  0  0  1  0  0  0  0  0  0
  159.0910  214.0530  153.1830 C   0  0  0  0  0  2  0  0  0  0  0  0
  155.6220  212.7650  153.7720 O   0  0  0  0  0  1  0  0  0  0  0  0
  159.2430  213.5440  151.7390 C   0  0  2  0  0  3  0  0  0  0  0  0
  160.2980  208.4460  152.1150 O   0  0  0  0  0  0  0  0  0  0  0  0
  160.2640  207.7620  155.1790 C   0  0  0  0  0  3  0  0  0  0  0  0
  160.5960  208.9520  154.5210 C   0  0  0  0  0  0  0  0  0  0  0  0
  161.5500  209.8120  155.0840 C   0  0  0  0  0  3  0  0  0  0  0  0
  163.3460  210.5680  156.9970 Cl  0  0  0  0  0  0  0  0  0  0  0  0
  161.8210  208.3010  156.9540 C   0  0  0  0  0  3  0  0  0  0  0  0
  162.1600  209.4880  156.2980 C   0  0  0  0  0  0  0  0  0  0  0  0
  160.8750  207.4370  156.3940 C   0  0  0  0  0  3  0  0  0  0  0  0
  154.6340  213.5480  150.4470 C   0  0  0  0  0  1  0  0  0  0  0  0
  155.7000  212.7020  150.7580 O   0  0  0  0  0  0  0  0  0  0  0  0
  1 27  1  0  0  0  0
  2 14  1  6  0  0  0
  2 17  1  0  0  0  0
  3 20  1  0  0  0  0
  3  7  1  0  0  0  0
  4  1  1  0  0  0  0
  4 12  1  0  0  0  0
  5 19  1  0  0  0  0
  6  9  1  0  0  0  0
  7 10  1  0  0  0  0
  8 26  1  0  0  0  0
  8 18  1  0  0  0  0
  9 13  1  0  0  0  0
  9  3  1  0  0  0  0
 10 23  1  0  0  0  0
 10  5  1  0  0  0  0
 11  6  1  0  0  0  0
 11 16  1  0  0  0  0
 12  8  1  0  0  0  0
 13 21  1  0  0  0  0
 15 28  1  0  0  0  0
 16 20  1  0  0  0  0
 17 13  1  0  0  0  0
 18 19  1  0  0  0  0
 20 15  1  0  0  0  0
 21 27  1  0  0  0  0
 21  7  1  0  0  0  0
 22  2  1  0  0  0  0
 22  6  1  0  0  0  0
 23 30  1  0  0  0  0
 24  2  1  0  0  0  0
 25 18  1  0  0  0  0
 27 25  1  0  0  0  0
 28 23  1  0  0  0  0
 29 35  1  0  0  0  0
 30 31  1  0  0  0  0
 30 29  2  0  0  0  0
 31 34  2  0  0  0  0
 34 33  1  0  0  0  0
 34 32  1  0  0  0  0
 35 33  2  0  0  0  0
 36 37  1  0  0  0  0
 37  4  1  0  0  0  0
M  END
>  <MODEL>
1

>  <REMARK>
 VINA RESULT:      -2.0      0.000      0.000
  Name = 
  2 active torsions:
  status: ('A' for Active; 'I' for Inactive)
    1  A    between atoms: C_4  and  O_37
    2  A    between atoms: C_23  and  C_30
                            x       y       z     vdW  Elec       q    Type
                         _______ _______ _______ _____ _____    ______ ____

>  <TORSDO>
F 2

$$$$
