=
 OpenBabel11122412513D

 32 37  0  0  1  0  0  0  0  0999 V2000
  160.2440  204.7280  148.9740 O   0  0  0  0  0  0  0  0  0  0  0  0
  160.9780  208.2940  152.2530 C   0  0  0  0  0  0  0  0  0  0  0  0
  160.4760  206.7970  156.8690 C   0  0  0  0  0  3  0  0  0  0  0  0
  160.2020  208.1070  157.2610 C   0  0  0  0  0  3  0  0  0  0  0  0
  160.7310  210.7440  151.6760 C   0  0  1  0  0  3  0  0  0  0  0  0
  159.8780  211.9350  152.1040 C   0  0  1  0  0  3  0  0  0  0  0  0
  161.8910  206.6880  150.5360 C   0  0  1  0  0  3  0  0  0  0  0  0
  161.3430  205.8260  152.7960 C   0  0  0  0  0  2  0  0  0  0  0  0
  158.8110  213.0930  153.8560 C   0  0  2  0  0  3  0  0  0  0  0  0
  161.5640  204.1660  150.9220 C   0  0  0  0  0  2  0  0  0  0  0  0
  160.7340  206.5070  155.5270 C   0  0  0  0  0  3  0  0  0  0  0  0
  160.9750  207.2390  153.2030 C   0  0  0  0  0  0  0  0  0  0  0  0
  160.7210  207.5260  154.5590 C   0  0  0  0  0  0  0  0  0  0  0  0
  160.4310  209.8890  154.0160 C   0  0  0  0  0  0  0  0  0  0  0  0
  157.7850  212.5680  152.8600 C   0  0  0  0  0  2  0  0  0  0  0  0
  160.8690  205.8080  148.3040 C   0  0  0  0  0  2  0  0  0  0  0  0
  161.1530  205.5900  151.3080 C   0  0  2  0  0  3  0  0  0  0  0  0
  158.4590  211.6850  151.9130 N   0  0  0  0  0  2  0  0  0  0  0  0
  162.0820  206.4290  149.0350 C   0  0  0  0  0  2  0  0  0  0  0  0
  161.2360  203.8520  149.4550 C   0  0  1  0  0  3  0  0  0  0  0  0
  160.1870  209.1310  156.3120 C   0  0  0  0  0  3  0  0  0  0  0  0
  160.4460  208.8550  154.9620 C   0  0  0  0  0  0  0  0  0  0  0  0
  160.1190  211.1940  154.4260 O   0  0  0  0  0  0  0  0  0  0  0  0
  161.1840  208.0130  150.7800 C   0  0  0  0  0  2  0  0  0  0  0  0
  162.0510  211.1570  151.4890 O   0  0  0  0  0  1  0  0  0  0  0  0
  159.0220  214.4530  153.6270 O   0  0  0  0  0  1  0  0  0  0  0  0
  160.6920  209.6120  152.6650 C   0  0  0  0  0  0  0  0  0  0  0  0
  160.0760  212.3300  153.5570 C   0  0  1  0  0  3  0  0  0  0  0  0
  160.7690  202.4110  149.3380 C   0  0  0  0  0  2  0  0  0  0  0  0
  161.1670  201.8380  148.0210 C   0  0  0  0  0  0  0  0  0  0  0  0
  161.2010  202.5710  146.9990 O   0  0  0  0  0  0  0  0  0  0  0  0
  161.5400  200.4680  147.9240 N   0  0  0  0  0  1  0  0  0  0  0  0
  1 20  1  0  0  0  0
  2 27  2  0  0  0  0
  2 12  1  0  0  0  0
  3  4  1  0  0  0  0
  5 25  1  1  0  0  0
  5  6  1  0  0  0  0
  5 27  1  0  0  0  0
  6 18  1  1  0  0  0
  6 28  1  0  0  0  0
  7 19  1  6  0  0  0
  7 24  1  0  0  0  0
  7 17  1  0  0  0  0
  8 12  1  0  0  0  0
  9 26  1  6  0  0  0
 11  3  2  0  0  0  0
 12 13  2  0  0  0  0
 13 22  1  0  0  0  0
 13 11  1  0  0  0  0
 14 23  1  0  0  0  0
 14 22  2  0  0  0  0
 15  9  1  0  0  0  0
 16  1  1  0  0  0  0
 16 19  1  0  0  0  0
 17 10  1  6  0  0  0
 17  8  1  0  0  0  0
 18 15  1  0  0  0  0
 20 29  1  1  0  0  0
 20 10  1  0  0  0  0
 21  4  2  0  0  0  0
 22 21  1  0  0  0  0
 24  2  1  0  0  0  0
 27 14  1  0  0  0  0
 28  9  1  0  0  0  0
 28 23  1  1  0  0  0
 30 29  1  0  0  0  0
 31 30  2  0  0  0  0
 32 30  1  0  0  0  0
M  END
>  <MODEL>
1

>  <REMARK>
 VINA RESULT:      -8.7      0.000      0.000
  Name = 
  2 active torsions:
  status: ('A' for Active; 'I' for Inactive)
    1  A    between atoms: C_20  and  C_29
    2  A    between atoms: C_29  and  C_30
                            x       y       z     vdW  Elec       q    Type
                         _______ _______ _______ _____ _____    ______ ____

>  <TORSDO>
F 2

$$$$
=
 OpenBabel11122412513D

 32 37  0  0  1  0  0  0  0  0999 V2000
  162.5060  209.4380  153.6820 O   0  0  0  0  0  0  0  0  0  0  0  0
  160.9370  206.1820  150.3750 C   0  0  0  0  0  0  0  0  0  0  0  0
  161.0760  201.5810  151.9890 C   0  0  0  0  0  3  0  0  0  0  0  0
  161.1320  201.1240  150.6720 C   0  0  0  0  0  3  0  0  0  0  0  0
  160.9340  206.6600  147.8910 C   0  0  1  0  0  3  0  0  0  0  0  0
  161.5700  206.0990  146.6220 C   0  0  1  0  0  3  0  0  0  0  0  0
  160.4470  208.0400  152.0090 C   0  0  1  0  0  3  0  0  0  0  0  0
  160.8300  205.7530  152.8890 C   0  0  0  0  0  2  0  0  0  0  0  0
  162.2640  204.2000  145.4140 C   0  0  2  0  0  3  0  0  0  0  0  0
  161.0470  207.6840  154.4840 C   0  0  0  0  0  2  0  0  0  0  0  0
  161.0180  202.9510  152.2520 C   0  0  0  0  0  3  0  0  0  0  0  0
  160.9630  205.2670  151.4590 C   0  0  0  0  0  0  0  0  0  0  0  0
  161.0150  203.8830  151.2000 C   0  0  0  0  0  0  0  0  0  0  0  0
  161.0620  204.3240  148.7990 C   0  0  0  0  0  0  0  0  0  0  0  0
  163.4600  205.0750  145.7650 C   0  0  0  0  0  2  0  0  0  0  0  0
  161.8310  210.1520  152.6610 C   0  0  0  0  0  2  0  0  0  0  0  0
  161.2230  207.2120  153.0380 C   0  0  2  0  0  3  0  0  0  0  0  0
  163.0220  206.1210  146.6860 N   0  0  0  0  0  2  0  0  0  0  0  0
  160.4710  209.5590  152.2270 C   0  0  0  0  0  2  0  0  0  0  0  0
  161.5850  209.1060  154.6940 C   0  0  1  0  0  3  0  0  0  0  0  0
  161.1270  202.0370  149.6150 C   0  0  0  0  0  3  0  0  0  0  0  0
  161.0680  203.4150  149.8650 C   0  0  0  0  0  0  0  0  0  0  0  0
  161.1520  203.8450  147.4830 O   0  0  0  0  0  0  0  0  0  0  0  0
  160.9450  207.6760  150.6170 C   0  0  0  0  0  2  0  0  0  0  0  0
  159.6030  206.9970  147.6380 O   0  0  0  0  0  1  0  0  0  0  0  0
  161.9090  204.4180  144.0830 O   0  0  0  0  0  1  0  0  0  0  0  0
  161.0010  205.7030  149.0500 C   0  0  0  0  0  0  0  0  0  0  0  0
  161.1530  204.6720  146.3160 C   0  0  1  0  0  3  0  0  0  0  0  0
  162.2440  209.2030  156.0590 C   0  0  0  0  0  2  0  0  0  0  0  0
  162.4570  210.6290  156.4370 C   0  0  0  0  0  0  0  0  0  0  0  0
  161.5140  211.4560  156.3340 O   0  0  0  0  0  0  0  0  0  0  0  0
  163.7180  211.0500  156.9450 N   0  0  0  0  0  1  0  0  0  0  0  0
  1 20  1  0  0  0  0
  2 24  1  0  0  0  0
  2 12  1  0  0  0  0
  3 11  2  0  0  0  0
  4  3  1  0  0  0  0
  5 25  1  6  0  0  0
  5 27  1  0  0  0  0
  6 18  1  1  0  0  0
  6  5  1  0  0  0  0
  7 24  1  6  0  0  0
  7 19  1  0  0  0  0
  7 17  1  0  0  0  0
  9 26  1  6  0  0  0
  9 15  1  0  0  0  0
  9 28  1  0  0  0  0
 10 20  1  0  0  0  0
 12  8  1  0  0  0  0
 13 12  2  0  0  0  0
 13 11  1  0  0  0  0
 14 27  1  0  0  0  0
 14 22  2  0  0  0  0
 15 18  1  0  0  0  0
 16  1  1  0  0  0  0
 17  8  1  1  0  0  0
 17 10  1  0  0  0  0
 19 16  1  0  0  0  0
 20 29  1  1  0  0  0
 21 22  1  0  0  0  0
 21  4  2  0  0  0  0
 22 13  1  0  0  0  0
 23 14  1  0  0  0  0
 27  2  2  0  0  0  0
 28  6  1  0  0  0  0
 28 23  1  1  0  0  0
 29 30  1  0  0  0  0
 30 32  1  0  0  0  0
 31 30  2  0  0  0  0
M  END
>  <MODEL>
2

>  <REMARK>
 VINA RESULT:      -6.3      2.592      8.272
  Name = 
  2 active torsions:
  status: ('A' for Active; 'I' for Inactive)
    1  A    between atoms: C_20  and  C_29
    2  A    between atoms: C_29  and  C_30
                            x       y       z     vdW  Elec       q    Type
                         _______ _______ _______ _____ _____    ______ ____

>  <TORSDO>
F 2

$$$$
=
 OpenBabel11122412513D

 32 37  0  0  1  0  0  0  0  0999 V2000
  158.4430  209.7860  155.7450 O   0  0  0  0  0  0  0  0  0  0  0  0
  161.3040  209.4070  151.7860 C   0  0  0  0  0  0  0  0  0  0  0  0
  161.2680  213.4080  148.9960 C   0  0  0  0  0  3  0  0  0  0  0  0
  161.6580  212.6420  147.8970 C   0  0  0  0  0  3  0  0  0  0  0  0
  161.9760  207.1760  150.8030 C   0  0  1  0  0  3  0  0  0  0  0  0
  161.8150  206.4140  149.4900 C   0  0  1  0  0  3  0  0  0  0  0  0
  161.0580  209.6530  154.2840 C   0  0  1  0  0  3  0  0  0  0  0  0
  160.7200  211.6510  152.8550 C   0  0  0  0  0  2  0  0  0  0  0  0
  161.7470  206.4940  147.1370 C   0  0  2  0  0  3  0  0  0  0  0  0
  159.8070  211.7060  155.1960 C   0  0  0  0  0  2  0  0  0  0  0  0
  161.0750  212.8020  150.2390 C   0  0  0  0  0  3  0  0  0  0  0  0
  161.0740  210.8010  151.6500 C   0  0  0  0  0  0  0  0  0  0  0  0
  161.2720  211.4200  150.4000 C   0  0  0  0  0  0  0  0  0  0  0  0
  161.8780  209.2670  149.4190 C   0  0  0  0  0  0  0  0  0  0  0  0
  160.4010  206.0470  147.6950 C   0  0  0  0  0  2  0  0  0  0  0  0
  159.2930  208.6690  155.9340 C   0  0  0  0  0  2  0  0  0  0  0  0
  160.1230  210.8280  153.9830 C   0  0  2  0  0  3  0  0  0  0  0  0
  160.4170  206.2130  149.1460 N   0  0  0  0  0  2  0  0  0  0  0  0
  160.7840  208.9080  155.5980 C   0  0  0  0  0  2  0  0  0  0  0  0
  159.0600  210.9290  156.2890 C   0  0  1  0  0  3  0  0  0  0  0  0
  161.8590  211.2680  148.0410 C   0  0  0  0  0  3  0  0  0  0  0  0
  161.6720  210.6470  149.2840 C   0  0  0  0  0  0  0  0  0  0  0  0
  162.2370  208.5100  148.2940 O   0  0  0  0  0  0  0  0  0  0  0  0
  161.0400  208.7000  153.0980 C   0  0  0  0  0  2  0  0  0  0  0  0
  163.2700  206.9940  151.2940 O   0  0  0  0  0  1  0  0  0  0  0  0
  162.4470  205.3790  146.6760 O   0  0  0  0  0  1  0  0  0  0  0  0
  161.6910  208.6460  150.6640 C   0  0  0  0  0  0  0  0  0  0  0  0
  162.4770  207.0990  148.3080 C   0  0  1  0  0  3  0  0  0  0  0  0
  158.0230  211.8320  156.9350 C   0  0  0  0  0  2  0  0  0  0  0  0
  156.7780  211.8670  156.1160 C   0  0  0  0  0  0  0  0  0  0  0  0
  155.7530  211.2470  156.5020 O   0  0  0  0  0  0  0  0  0  0  0  0
  156.7360  212.6280  154.9150 N   0  0  0  0  0  1  0  0  0  0  0  0
  1 16  1  0  0  0  0
  1 20  1  0  0  0  0
  2 24  1  0  0  0  0
  3 11  2  0  0  0  0
  4 21  2  0  0  0  0
  4  3  1  0  0  0  0
  5 25  1  6  0  0  0
  6 18  1  6  0  0  0
  6  5  1  0  0  0  0
  7 24  1  6  0  0  0
  7 19  1  0  0  0  0
  9 26  1  1  0  0  0
  9 15  1  0  0  0  0
  9 28  1  0  0  0  0
 10 20  1  0  0  0  0
 11 13  1  0  0  0  0
 12  2  1  0  0  0  0
 12  8  1  0  0  0  0
 13 12  2  0  0  0  0
 14 27  1  0  0  0  0
 15 18  1  0  0  0  0
 17  8  1  6  0  0  0
 17  7  1  0  0  0  0
 17 10  1  0  0  0  0
 19 16  1  0  0  0  0
 20 29  1  6  0  0  0
 21 22  1  0  0  0  0
 22 14  2  0  0  0  0
 22 13  1  0  0  0  0
 23 14  1  0  0  0  0
 27  5  1  0  0  0  0
 27  2  2  0  0  0  0
 28 23  1  1  0  0  0
 28  6  1  0  0  0  0
 30 31  2  0  0  0  0
 30 29  1  0  0  0  0
 32 30  1  0  0  0  0
M  END
>  <MODEL>
3

>  <REMARK>
 VINA RESULT:      -6.0      2.695      8.378
  Name = 
  2 active torsions:
  status: ('A' for Active; 'I' for Inactive)
    1  A    between atoms: C_20  and  C_29
    2  A    between atoms: C_29  and  C_30
                            x       y       z     vdW  Elec       q    Type
                         _______ _______ _______ _____ _____    ______ ____

>  <TORSDO>
F 2

$$$$
=
 OpenBabel11122412513D

 32 37  0  0  1  0  0  0  0  0999 V2000
  159.1580  207.9880  155.5820 O   0  0  0  0  0  0  0  0  0  0  0  0
  161.3320  205.7590  151.8010 C   0  0  0  0  0  0  0  0  0  0  0  0
  161.7210  208.6000  147.8550 C   0  0  0  0  0  3  0  0  0  0  0  0
  161.8010  207.4650  147.0490 C   0  0  0  0  0  3  0  0  0  0  0  0
  161.4110  203.2410  151.5690 C   0  0  1  0  0  3  0  0  0  0  0  0
  160.9280  202.1710  150.5930 C   0  0  1  0  0  3  0  0  0  0  0  0
  161.4760  206.8110  154.0880 C   0  0  1  0  0  3  0  0  0  0  0  0
  161.3550  208.2930  152.1030 C   0  0  0  0  0  2  0  0  0  0  0  0
  160.5630  201.5360  148.3540 C   0  0  2  0  0  3  0  0  0  0  0  0
  160.7910  209.2760  154.3470 C   0  0  0  0  0  2  0  0  0  0  0  0
  161.5800  208.4680  149.2380 C   0  0  0  0  0  3  0  0  0  0  0  0
  161.3680  207.0560  151.2270 C   0  0  0  0  0  0  0  0  0  0  0  0
  161.5170  207.1960  149.8330 C   0  0  0  0  0  0  0  0  0  0  0  0
  161.5460  204.7670  149.5810 C   0  0  0  0  0  0  0  0  0  0  0  0
  159.2430  201.6070  149.1110 C   0  0  0  0  0  2  0  0  0  0  0  0
  159.7870  206.8200  156.0760 C   0  0  0  0  0  2  0  0  0  0  0  0
  160.7610  208.0190  153.4740 C   0  0  2  0  0  3  0  0  0  0  0  0
  159.4840  202.2020  150.4220 N   0  0  0  0  0  2  0  0  0  0  0  0
  161.2360  206.5920  155.5880 C   0  0  0  0  0  2  0  0  0  0  0  0
  160.0560  209.0680  155.6800 C   0  0  1  0  0  3  0  0  0  0  0  0
  161.7430  206.1940  147.6250 C   0  0  0  0  0  3  0  0  0  0  0  0
  161.6020  206.0470  149.0120 C   0  0  0  0  0  0  0  0  0  0  0  0
  161.5950  203.6390  148.7490 O   0  0  0  0  0  0  0  0  0  0  0  0
  161.1100  205.5700  153.2870 C   0  0  0  0  0  2  0  0  0  0  0  0
  162.6960  202.9250  152.0110 O   0  0  0  0  0  1  0  0  0  0  0  0
  160.9600  200.2030  148.2450 O   0  0  0  0  0  1  0  0  0  0  0  0
  161.4080  204.6210  150.9710 C   0  0  0  0  0  0  0  0  0  0  0  0
  161.5490  202.2860  149.2130 C   0  0  1  0  0  3  0  0  0  0  0  0
  159.3150  210.3400  156.0540 C   0  0  0  0  0  2  0  0  0  0  0  0
  160.2620  211.4860  156.1580 C   0  0  0  0  0  0  0  0  0  0  0  0
  160.0810  212.5180  155.4600 O   0  0  0  0  0  0  0  0  0  0  0  0
  161.3530  211.4280  157.0690 N   0  0  0  0  0  1  0  0  0  0  0  0
  1 20  1  0  0  0  0
  1 16  1  0  0  0  0
  2 24  1  0  0  0  0
  3 11  2  0  0  0  0
  4 21  2  0  0  0  0
  4  3  1  0  0  0  0
  5 25  1  6  0  0  0
  6 18  1  6  0  0  0
  6  5  1  0  0  0  0
  7 24  1  6  0  0  0
  7 19  1  0  0  0  0
  9 26  1  1  0  0  0
  9 15  1  0  0  0  0
  9 28  1  0  0  0  0
 10 20  1  0  0  0  0
 11 13  1  0  0  0  0
 12  2  1  0  0  0  0
 12  8  1  0  0  0  0
 13 12  2  0  0  0  0
 14 27  1  0  0  0  0
 15 18  1  0  0  0  0
 17  8  1  6  0  0  0
 17  7  1  0  0  0  0
 17 10  1  0  0  0  0
 19 16  1  0  0  0  0
 20 29  1  6  0  0  0
 21 22  1  0  0  0  0
 22 14  2  0  0  0  0
 22 13  1  0  0  0  0
 23 14  1  0  0  0  0
 27  5  1  0  0  0  0
 27  2  2  0  0  0  0
 28 23  1  6  0  0  0
 28  6  1  0  0  0  0
 29 30  1  0  0  0  0
 30 32  1  0  0  0  0
 31 30  2  0  0  0  0
M  END
>  <MODEL>
4

>  <REMARK>
 VINA RESULT:      -6.0      2.240      8.844
  Name = 
  2 active torsions:
  status: ('A' for Active; 'I' for Inactive)
    1  A    between atoms: C_20  and  C_29
    2  A    between atoms: C_29  and  C_30
                            x       y       z     vdW  Elec       q    Type
                         _______ _______ _______ _____ _____    ______ ____

>  <TORSDO>
F 2

$$$$
=
 OpenBabel11122412513D

 32 37  0  0  1  0  0  0  0  0999 V2000
  160.5240  203.9210  146.4950 O   0  0  0  0  0  0  0  0  0  0  0  0
  161.8890  207.8620  149.0650 C   0  0  0  0  0  0  0  0  0  0  0  0
  160.6850  207.5950  153.7840 C   0  0  0  0  0  3  0  0  0  0  0  0
  160.7220  208.9860  153.8700 C   0  0  0  0  0  3  0  0  0  0  0  0
  162.3130  210.1100  147.9850 C   0  0  1  0  0  3  0  0  0  0  0  0
  161.7590  211.5310  148.0560 C   0  0  1  0  0  3  0  0  0  0  0  0
  162.4920  205.7470  147.8320 C   0  0  1  0  0  3  0  0  0  0  0  0
  161.5780  205.5630  150.1300 C   0  0  0  0  0  2  0  0  0  0  0  0
  160.8920  213.2660  149.3920 C   0  0  2  0  0  3  0  0  0  0  0  0
  161.5120  203.5200  148.6670 C   0  0  0  0  0  2  0  0  0  0  0  0
  160.9600  206.9610  152.5710 C   0  0  0  0  0  3  0  0  0  0  0  0
  161.5490  207.0770  150.1970 C   0  0  0  0  0  0  0  0  0  0  0  0
  161.2770  207.7120  151.4260 C   0  0  0  0  0  0  0  0  0  0  0  0
  161.6340  209.8940  150.3910 C   0  0  0  0  0  0  0  0  0  0  0  0
  159.8430  212.7830  148.3990 C   0  0  0  0  0  2  0  0  0  0  0  0
  161.4500  204.6490  145.7080 C   0  0  0  0  0  2  0  0  0  0  0  0
  161.4460  205.0500  148.7070 C   0  0  2  0  0  3  0  0  0  0  0  0
  160.3410  211.5780  147.7400 N   0  0  0  0  0  2  0  0  0  0  0  0
  162.7220  205.1210  146.4490 C   0  0  0  0  0  2  0  0  0  0  0  0
  161.2240  202.9700  147.2620 C   0  0  1  0  0  3  0  0  0  0  0  0
  161.0370  209.7470  152.7420 C   0  0  0  0  0  3  0  0  0  0  0  0
  161.3170  209.1230  151.5180 C   0  0  0  0  0  0  0  0  0  0  0  0
  161.6320  211.2940  150.4910 O   0  0  0  0  0  0  0  0  0  0  0  0
  162.1270  207.2190  147.7150 C   0  0  0  0  0  2  0  0  0  0  0  0
  163.7050  210.1550  147.8880 O   0  0  0  0  0  1  0  0  0  0  0  0
  161.4560  214.4530  148.9260 O   0  0  0  0  0  1  0  0  0  0  0  0
  161.9150  209.2690  149.1670 C   0  0  0  0  0  0  0  0  0  0  0  0
  161.9410  212.1840  149.4140 C   0  0  1  0  0  3  0  0  0  0  0  0
  160.4190  201.6870  147.3760 C   0  0  0  0  0  2  0  0  0  0  0  0
  160.7100  200.7830  146.2280 C   0  0  0  0  0  0  0  0  0  0  0  0
  161.4770  199.7960  146.3810 O   0  0  0  0  0  0  0  0  0  0  0  0
  160.0970  201.0150  144.9640 N   0  0  0  0  0  1  0  0  0  0  0  0
  1 20  1  0  0  0  0
  2 27  2  0  0  0  0
  2 12  1  0  0  0  0
  3  4  1  0  0  0  0
  5 25  1  1  0  0  0
  5  6  1  0  0  0  0
  5 27  1  0  0  0  0
  6 18  1  1  0  0  0
  6 28  1  0  0  0  0
  7 19  1  6  0  0  0
  7 17  1  0  0  0  0
  8 12  1  0  0  0  0
  9 26  1  6  0  0  0
  9 28  1  0  0  0  0
 11  3  2  0  0  0  0
 12 13  2  0  0  0  0
 13 22  1  0  0  0  0
 13 11  1  0  0  0  0
 14 23  1  0  0  0  0
 14 22  2  0  0  0  0
 15  9  1  0  0  0  0
 16 19  1  0  0  0  0
 16  1  1  0  0  0  0
 17 10  1  1  0  0  0
 17  8  1  0  0  0  0
 18 15  1  0  0  0  0
 20 29  1  1  0  0  0
 20 10  1  0  0  0  0
 21  4  2  0  0  0  0
 22 21  1  0  0  0  0
 24  7  1  0  0  0  0
 24  2  1  0  0  0  0
 27 14  1  0  0  0  0
 28 23  1  1  0  0  0
 30 31  2  0  0  0  0
 30 29  1  0  0  0  0
 32 30  1  0  0  0  0
M  END
>  <MODEL>
5

>  <REMARK>
 VINA RESULT:      -5.8      2.447      3.553
  Name = 
  2 active torsions:
  status: ('A' for Active; 'I' for Inactive)
    1  A    between atoms: C_20  and  C_29
    2  A    between atoms: C_29  and  C_30
                            x       y       z     vdW  Elec       q    Type
                         _______ _______ _______ _____ _____    ______ ____

>  <TORSDO>
F 2

$$$$
