=
 OpenBabel11122414123D

 28 32  0  0  1  0  0  0  0  0999 V2000
  160.8880  209.4130  155.1070 C   0  0  0  0  0  0  0  0  0  0  0  0
  157.7100  210.7490  155.2110 F   0  0  0  0  0  0  0  0  0  0  0  0
  160.9040  212.7010  150.0700 O   0  0  0  0  0  0  0  0  0  0  0  0
  162.4330  210.5150  157.1760 C   0  0  0  0  0  3  0  0  0  0  0  0
  158.9870  213.1790  151.4710 C   0  0  2  0  0  3  0  0  0  0  0  0
  160.1650  208.7410  153.9830 C   0  0  0  0  0  2  0  0  0  0  0  0
  158.6290  211.4720  157.2600 C   0  0  0  0  0  1  0  0  0  0  0  0
  158.0820  211.8870  155.9080 C   0  0  1  0  0  0  0  0  0  0  0  0
  156.4340  213.6380  155.1650 C   0  0  0  0  0  0  0  0  0  0  0  0
  159.1450  212.7020  155.1240 C   0  0  2  0  0  3  0  0  0  0  0  0
  161.5590  208.4350  150.5870 C   0  0  0  0  0  1  0  0  0  0  0  0
  159.5960  211.4090  153.0980 C   0  0  1  0  0  3  0  0  0  0  0  0
  157.1890  213.9830  154.1700 N   0  0  0  0  0  0  0  0  0  0  0  0
  156.8960  212.6990  156.1350 N   0  0  0  0  0  2  0  0  0  0  0  0
  160.8940  209.1350  151.6700 N   0  0  0  0  0  0  0  0  0  0  0  0
  160.9400  210.8250  155.2750 C   0  0  0  0  0  0  0  0  0  0  0  0
  160.2260  212.4560  151.1040 C   0  0  0  0  0  0  0  0  0  0  0  0
  155.1060  214.2810  155.3390 C   0  0  0  0  0  1  0  0  0  0  0  0
  161.5690  210.4190  151.8070 C   0  0  0  0  0  2  0  0  0  0  0  0
  161.7300  211.3510  156.3080 C   0  0  0  0  0  3  0  0  0  0  0  0
  161.5980  208.5880  155.9890 C   0  0  0  0  0  3  0  0  0  0  0  0
  162.3620  209.1320  157.0210 C   0  0  0  0  0  3  0  0  0  0  0  0
  161.1510  208.3670  152.8800 C   0  0  0  0  0  2  0  0  0  0  0  0
  158.5370  212.4710  152.7570 C   0  0  1  0  0  3  0  0  0  0  0  0
  160.5870  211.4670  152.0440 N   0  0  0  0  0  0  0  0  0  0  0  0
  158.5290  213.4430  153.9290 C   0  0  2  0  0  3  0  0  0  0  0  0
  157.9320  212.9840  150.3990 C   0  0  0  0  0  1  0  0  0  0  0  0
  160.2010  211.8410  154.4250 C   0  0  2  0  0  3  0  0  0  0  0  0
  1 16  2  0  0  0  0
  1 21  1  0  0  0  0
  2  8  1  0  0  0  0
  3 17  2  0  0  0  0
  5 27  1  6  0  0  0
  5 24  1  0  0  0  0
  6  1  1  0  0  0  0
  8 14  1  0  0  0  0
  8  7  1  1  0  0  0
  9 18  1  0  0  0  0
  9 14  1  0  0  0  0
 10  8  1  0  0  0  0
 11 15  1  0  0  0  0
 12 28  1  0  0  0  0
 13  9  2  0  0  0  0
 15 19  1  0  0  0  0
 15 23  1  0  0  0  0
 16 20  1  0  0  0  0
 17  5  1  0  0  0  0
 17 25  1  0  0  0  0
 19 25  1  0  0  0  0
 20  4  2  0  0  0  0
 21 22  2  0  0  0  0
 22  4  1  0  0  0  0
 23  6  1  0  0  0  0
 24 12  1  0  0  0  0
 24 26  1  0  0  0  0
 25 12  1  0  0  0  0
 26 13  1  0  0  0  0
 26 10  1  0  0  0  0
 28 10  1  0  0  0  0
 28 16  1  0  0  0  0
M  END
>  <MODEL>
1

>  <REMARK>
 VINA RESULT:      -5.6      0.000      0.000
  Name = 
  0 active torsions:
  status: ('A' for Active; 'I' for Inactive)
                            x       y       z     vdW  Elec       q    Type
                         _______ _______ _______ _____ _____    ______ ____

>  <TORSDO>
F 0

$$$$
=
 OpenBabel11122414123D

 28 32  0  0  1  0  0  0  0  0999 V2000
  160.4850  211.0160  151.4770 C   0  0  0  0  0  0  0  0  0  0  0  0
  159.6570  207.6680  151.4910 F   0  0  0  0  0  0  0  0  0  0  0  0
  161.9540  209.5350  157.1190 O   0  0  0  0  0  0  0  0  0  0  0  0
  162.7030  211.4230  149.8060 C   0  0  0  0  0  3  0  0  0  0  0  0
  161.4900  207.5900  155.7510 C   0  0  2  0  0  3  0  0  0  0  0  0
  159.2910  210.9310  152.3760 C   0  0  0  0  0  2  0  0  0  0  0  0
  161.2060  207.7980  149.7160 C   0  0  0  0  0  1  0  0  0  0  0  0
  160.9110  207.2340  151.0920 C   0  0  1  0  0  0  0  0  0  0  0  0
  161.1300  204.9440  152.1130 C   0  0  0  0  0  0  0  0  0  0  0  0
  162.0040  207.6750  152.1010 C   0  0  2  0  0  3  0  0  0  0  0  0
  159.1470  212.5310  155.6910 C   0  0  0  0  0  1  0  0  0  0  0  0
  160.8310  208.9800  153.8060 C   0  0  1  0  0  3  0  0  0  0  0  0
  161.6300  205.4350  153.2030 N   0  0  0  0  0  0  0  0  0  0  0  0
  160.8850  205.7830  150.9850 N   0  0  0  0  0  2  0  0  0  0  0  0
  159.5300  211.4890  154.7570 N   0  0  0  0  0  0  0  0  0  0  0  0
  161.6470  210.2110  151.6360 C   0  0  0  0  0  0  0  0  0  0  0  0
  161.5850  209.0440  156.0180 C   0  0  0  0  0  0  0  0  0  0  0  0
  160.8770  203.4840  152.0110 C   0  0  0  0  0  1  0  0  0  0  0  0
  160.9560  211.2610  154.9540 C   0  0  0  0  0  2  0  0  0  0  0  0
  162.7470  210.4430  150.7970 C   0  0  0  0  0  3  0  0  0  0  0  0
  160.4570  211.9950  150.4750 C   0  0  0  0  0  3  0  0  0  0  0  0
  161.5550  212.1960  149.6400 C   0  0  0  0  0  3  0  0  0  0  0  0
  159.3480  212.0410  153.4220 C   0  0  0  0  0  2  0  0  0  0  0  0
  160.9530  207.5330  154.3150 C   0  0  1  0  0  3  0  0  0  0  0  0
  161.2370  209.8340  154.9030 N   0  0  0  0  0  0  0  0  0  0  0  0
  161.9540  206.8500  153.3950 C   0  0  2  0  0  3  0  0  0  0  0  0
  160.4820  206.9530  156.6870 C   0  0  0  0  0  1  0  0  0  0  0  0
  161.8120  209.0930  152.6480 C   0  0  2  0  0  3  0  0  0  0  0  0
  1 16  1  0  0  0  0
  1  6  1  0  0  0  0
  4 20  1  0  0  0  0
  5 17  1  0  0  0  0
  5 27  1  1  0  0  0
  6 23  1  0  0  0  0
  8  7  1  6  0  0  0
  8  2  1  0  0  0  0
  8 10  1  0  0  0  0
  9 13  2  0  0  0  0
 10 28  1  0  0  0  0
 10 26  1  0  0  0  0
 12 24  1  0  0  0  0
 12 25  1  0  0  0  0
 13 26  1  0  0  0  0
 14  8  1  0  0  0  0
 14  9  1  0  0  0  0
 15 19  1  0  0  0  0
 15 11  1  0  0  0  0
 16 28  1  0  0  0  0
 17  3  2  0  0  0  0
 18  9  1  0  0  0  0
 20 16  2  0  0  0  0
 21  1  2  0  0  0  0
 22  4  2  0  0  0  0
 22 21  1  0  0  0  0
 23 15  1  0  0  0  0
 24  5  1  0  0  0  0
 25 19  1  0  0  0  0
 25 17  1  0  0  0  0
 26 24  1  0  0  0  0
 28 12  1  0  0  0  0
M  END
>  <MODEL>
2

>  <REMARK>
 VINA RESULT:      -3.2      2.724      6.907
  Name = 
  0 active torsions:
  status: ('A' for Active; 'I' for Inactive)
                            x       y       z     vdW  Elec       q    Type
                         _______ _______ _______ _____ _____    ______ ____

>  <TORSDO>
F 0

$$$$
=
 OpenBabel11122414123D

 28 32  0  0  1  0  0  0  0  0999 V2000
  160.7830  208.5200  155.0360 C   0  0  0  0  0  0  0  0  0  0  0  0
  159.1780  210.5670  152.7720 F   0  0  0  0  0  0  0  0  0  0  0  0
  163.4590  206.8290  149.9210 O   0  0  0  0  0  0  0  0  0  0  0  0
  162.4210  210.0740  156.7040 C   0  0  0  0  0  3  0  0  0  0  0  0
  162.1280  208.8320  149.6410 C   0  0  2  0  0  3  0  0  0  0  0  0
  159.9350  207.5880  154.2270 C   0  0  0  0  0  2  0  0  0  0  0  0
  160.0990  212.1190  154.2920 C   0  0  0  0  0  1  0  0  0  0  0  0
  160.1000  211.5970  152.8680 C   0  0  1  0  0  0  0  0  0  0  0  0
  160.0290  212.7080  150.6110 C   0  0  0  0  0  0  0  0  0  0  0  0
  161.5210  211.1150  152.4710 C   0  0  2  0  0  3  0  0  0  0  0  0
  161.2080  204.4500  152.7790 C   0  0  0  0  0  1  0  0  0  0  0  0
  161.2880  208.7330  151.9720 C   0  0  1  0  0  3  0  0  0  0  0  0
  160.9420  211.9140  150.1470 N   0  0  0  0  0  0  0  0  0  0  0  0
  159.6760  212.6800  151.9940 N   0  0  0  0  0  2  0  0  0  0  0  0
  161.0140  205.8870  152.8210 N   0  0  0  0  0  0  0  0  0  0  0  0
  161.6950  209.4500  154.4630 C   0  0  0  0  0  0  0  0  0  0  0  0
  162.6640  207.6800  150.4010 C   0  0  0  0  0  0  0  0  0  0  0  0
  159.3960  213.7070  149.7120 C   0  0  0  0  0  1  0  0  0  0  0  0
  162.3260  206.4870  152.6170 C   0  0  0  0  0  2  0  0  0  0  0  0
  162.5120  210.2050  155.3180 C   0  0  0  0  0  3  0  0  0  0  0  0
  160.7030  208.4020  156.4290 C   0  0  0  0  0  3  0  0  0  0  0  0
  161.5120  209.1770  157.2610 C   0  0  0  0  0  3  0  0  0  0  0  0
  160.5840  206.2080  154.1750 C   0  0  0  0  0  2  0  0  0  0  0  0
  161.1860  209.5080  150.6470 C   0  0  1  0  0  3  0  0  0  0  0  0
  162.2070  207.6390  151.7360 N   0  0  0  0  0  0  0  0  0  0  0  0
  161.6560  210.9220  150.9550 C   0  0  2  0  0  3  0  0  0  0  0  0
  161.3220  208.3430  148.4530 C   0  0  0  0  0  1  0  0  0  0  0  0
  161.8690  209.7130  152.9800 C   0  0  2  0  0  3  0  0  0  0  0  0
  1 21  1  0  0  0  0
  2  8  1  0  0  0  0
  3 17  2  0  0  0  0
  4 22  1  0  0  0  0
  5 27  1  6  0  0  0
  5 17  1  0  0  0  0
  5 24  1  0  0  0  0
  6  1  1  0  0  0  0
  8  7  1  1  0  0  0
  9 14  1  0  0  0  0
 10  8  1  0  0  0  0
 10 28  1  0  0  0  0
 11 15  1  0  0  0  0
 12 28  1  0  0  0  0
 13  9  2  0  0  0  0
 13 26  1  0  0  0  0
 14  8  1  0  0  0  0
 15 23  1  0  0  0  0
 16  1  2  0  0  0  0
 16 20  1  0  0  0  0
 17 25  1  0  0  0  0
 18  9  1  0  0  0  0
 19 15  1  0  0  0  0
 20  4  2  0  0  0  0
 21 22  2  0  0  0  0
 23  6  1  0  0  0  0
 24 26  1  0  0  0  0
 24 12  1  0  0  0  0
 25 12  1  0  0  0  0
 25 19  1  0  0  0  0
 26 10  1  0  0  0  0
 28 16  1  0  0  0  0
M  END
>  <MODEL>
3

>  <REMARK>
 VINA RESULT:      -2.8      2.581      4.147
  Name = 
  0 active torsions:
  status: ('A' for Active; 'I' for Inactive)
                            x       y       z     vdW  Elec       q    Type
                         _______ _______ _______ _____ _____    ______ ____

>  <TORSDO>
F 0

$$$$
