=
 OpenBabel11122412563D

 32 37  0  0  1  0  0  0  0  0999 V2000
  159.1670  212.3700  155.7240 S   0  0  0  0  0  0  0  0  0  0  0  0
  161.4740  208.0770  153.1110 C   0  0  1  0  0  3  0  0  0  0  0  0
  162.2560  211.0870  149.2570 C   0  0  0  0  0  3  0  0  0  0  0  0
  161.9520  210.0480  148.3750 C   0  0  0  0  0  3  0  0  0  0  0  0
  161.2740  205.6840  152.6390 C   0  0  0  0  0  0  0  0  0  0  0  0
  161.1510  204.6170  151.7510 C   0  0  0  0  0  0  0  0  0  0  0  0
  160.1880  209.4440  154.6860 N   0  0  1  0  0  0  0  0  0  0  0  0
  162.1370  210.4160  153.4950 C   0  0  0  0  0  2  0  0  0  0  0  0
  161.0510  203.7480  149.5930 C   0  0  0  0  0  0  0  0  0  0  0  0
  160.8070  211.8420  155.0850 C   0  0  2  0  0  3  0  0  0  0  0  0
  162.2900  210.8480  150.6320 C   0  0  0  0  0  3  0  0  0  0  0  0
  162.0400  209.3070  152.5520 N   0  0  0  0  0  0  0  0  0  0  0  0
  162.0140  209.5670  151.1390 C   0  0  0  0  0  0  0  0  0  0  0  0
  161.4700  207.1760  150.7860 C   0  0  0  0  0  0  0  0  0  0  0  0
  160.8910  202.4350  150.6280 S   0  0  0  0  0  0  0  0  0  0  0  0
  157.9590  211.0740  154.5300 S   0  0  0  0  0  0  0  0  0  0  0  0
  160.7480  210.6790  154.0850 C   0  0  2  0  0  3  0  0  0  0  0  0
  160.9890  203.2740  152.0940 C   0  0  0  0  0  3  0  0  0  0  0  0
  158.8300  209.6260  155.2240 C   0  0  0  0  0  2  0  0  0  0  0  0
  161.6840  208.7710  148.8710 C   0  0  0  0  0  3  0  0  0  0  0  0
  161.7120  208.5260  150.2520 C   0  0  0  0  0  0  0  0  0  0  0  0
  161.3460  206.1320  149.9160 N   0  0  0  0  0  0  0  0  0  0  0  0
  160.0860  208.3990  153.6640 C   0  0  0  0  0  2  0  0  0  0  0  0
  161.2460  205.4710  153.8840 O   0  0  0  0  0  0  0  0  0  0  0  0
  161.0520  203.6920  148.1050 C   0  0  0  0  0  1  0  0  0  0  0  0
  161.4210  206.9600  152.1480 N   0  0  0  0  0  0  0  0  0  0  0  0
  161.1840  204.8740  150.3830 C   0  0  0  0  0  0  0  0  0  0  0  0
  161.6400  211.5220  156.1610 O   0  0  0  0  0  0  0  0  0  0  0  0
  160.9670  210.5100  156.8480 C   0  0  0  0  0  2  0  0  0  0  0  0
  161.9000  209.3840  157.1150 C   0  0  0  0  0  0  0  0  0  0  0  0
  163.1310  209.6060  157.2520 O   0  0  0  0  0  0  0  0  0  0  0  0
  161.3970  208.0610  157.2580 N   0  0  0  0  0  1  0  0  0  0  0  0
  2 23  1  6  0  0  0
  3 11  1  0  0  0  0
  4 20  1  0  0  0  0
  4  3  2  0  0  0  0
  5 24  2  0  0  0  0
  6 18  2  0  0  0  0
  6  5  1  0  0  0  0
  7 23  1  6  0  0  0
  7 19  1  0  0  0  0
  9 27  2  0  0  0  0
  9 15  1  0  0  0  0
 10  1  1  0  0  0  0
 10 28  1  1  0  0  0
 11 13  2  0  0  0  0
 12  2  1  0  0  0  0
 12  8  1  0  0  0  0
 13 12  1  0  0  0  0
 14 26  1  0  0  0  0
 15 18  1  0  0  0  0
 16 19  1  0  0  0  0
 16  1  1  0  0  0  0
 17  8  1  1  0  0  0
 17  7  1  0  0  0  0
 17 10  1  0  0  0  0
 20 21  2  0  0  0  0
 21 14  1  0  0  0  0
 21 13  1  0  0  0  0
 22 27  1  0  0  0  0
 22 14  2  0  0  0  0
 25  9  1  0  0  0  0
 26  5  1  0  0  0  0
 26  2  1  0  0  0  0
 27  6  1  0  0  0  0
 28 29  1  0  0  0  0
 29 30  1  0  0  0  0
 30 31  2  0  0  0  0
 30 32  1  0  0  0  0
M  END
>  <MODEL>
1

>  <REMARK>
 VINA RESULT:      -7.0      0.000      0.000
  Name = 
  3 active torsions:
  status: ('A' for Active; 'I' for Inactive)
    1  A    between atoms: C_10  and  O_20
    2  A    between atoms: O_20  and  C_29
    3  A    between atoms: C_29  and  C_30
                            x       y       z     vdW  Elec       q    Type
                         _______ _______ _______ _____ _____    ______ ____

>  <TORSDO>
F 3

$$$$
=
 OpenBabel11122412563D

 32 37  0  0  1  0  0  0  0  0999 V2000
  159.0930  213.0180  144.9890 S   0  0  0  0  0  0  0  0  0  0  0  0
  160.4920  212.7520  150.3330 C   0  0  1  0  0  3  0  0  0  0  0  0
  162.2960  208.2280  149.4400 C   0  0  0  0  0  3  0  0  0  0  0  0
  161.8210  207.7870  150.6770 C   0  0  0  0  0  3  0  0  0  0  0  0
  159.7540  213.2320  152.6170 C   0  0  0  0  0  0  0  0  0  0  0  0
  159.4480  212.8290  153.9150 C   0  0  0  0  0  0  0  0  0  0  0  0
  159.4530  213.4100  148.2140 N   0  0  1  0  0  0  0  0  0  0  0  0
  161.6700  212.2950  148.2220 C   0  0  0  0  0  2  0  0  0  0  0  0
  159.3160  211.2050  155.5790 C   0  0  0  0  0  0  0  0  0  0  0  0
  160.6020  212.9360  146.0360 C   0  0  2  0  0  3  0  0  0  0  0  0
  162.1580  209.5690  149.0770 C   0  0  0  0  0  3  0  0  0  0  0  0
  161.3840  211.8640  149.5850 N   0  0  0  0  0  0  0  0  0  0  0  0
  161.5380  210.4820  149.9470 C   0  0  0  0  0  0  0  0  0  0  0  0
  160.4590  211.0070  152.1140 C   0  0  0  0  0  0  0  0  0  0  0  0
  158.7570  212.6270  156.2760 S   0  0  0  0  0  0  0  0  0  0  0  0
  157.7080  212.2380  146.4170 S   0  0  0  0  0  0  0  0  0  0  0  0
  160.3430  212.4810  147.4780 C   0  0  2  0  0  3  0  0  0  0  0  0
  158.9370  213.6380  154.9300 C   0  0  0  0  0  3  0  0  0  0  0  0
  158.1410  213.5860  147.5710 C   0  0  0  0  0  2  0  0  0  0  0  0
  161.2100  208.6900  151.5500 C   0  0  0  0  0  3  0  0  0  0  0  0
  161.0650  210.0370  151.1880 C   0  0  0  0  0  0  0  0  0  0  0  0
  160.1560  210.6110  153.3840 N   0  0  0  0  0  0  0  0  0  0  0  0
  159.1840  212.8810  149.5540 C   0  0  0  0  0  2  0  0  0  0  0  0
  159.5740  214.4340  152.2740 O   0  0  0  0  0  0  0  0  0  0  0  0
  159.4250  209.8840  156.2580 C   0  0  0  0  0  1  0  0  0  0  0  0
  160.2480  212.3130  151.7210 N   0  0  0  0  0  0  0  0  0  0  0  0
  159.6550  211.4980  154.2710 C   0  0  0  0  0  0  0  0  0  0  0  0
  161.2420  214.1800  146.0200 O   0  0  0  0  0  0  0  0  0  0  0  0
  161.4640  214.4520  144.6690 C   0  0  0  0  0  2  0  0  0  0  0  0
  162.4770  213.5060  144.1310 C   0  0  0  0  0  0  0  0  0  0  0  0
  163.5590  213.3250  144.7490 O   0  0  0  0  0  0  0  0  0  0  0  0
  162.2080  212.7750  142.9410 N   0  0  0  0  0  1  0  0  0  0  0  0
  1 10  1  0  0  0  0
  1 16  1  0  0  0  0
  2 23  1  6  0  0  0
  2 26  1  0  0  0  0
  3  4  1  0  0  0  0
  4 20  2  0  0  0  0
  5  6  1  0  0  0  0
  6 27  1  0  0  0  0
  6 18  2  0  0  0  0
  7 19  1  6  0  0  0
  7 23  1  0  0  0  0
  8 12  1  0  0  0  0
  9 25  1  0  0  0  0
  9 15  1  0  0  0  0
 10 28  1  1  0  0  0
 10 17  1  0  0  0  0
 11  3  2  0  0  0  0
 11 13  1  0  0  0  0
 12 13  1  0  0  0  0
 12  2  1  0  0  0  0
 13 21  2  0  0  0  0
 14 22  2  0  0  0  0
 16 19  1  0  0  0  0
 17  7  1  0  0  0  0
 17  8  1  1  0  0  0
 18 15  1  0  0  0  0
 21 20  1  0  0  0  0
 21 14  1  0  0  0  0
 22 27  1  0  0  0  0
 24  5  2  0  0  0  0
 26 14  1  0  0  0  0
 26  5  1  0  0  0  0
 27  9  2  0  0  0  0
 29 28  1  0  0  0  0
 30 29  1  0  0  0  0
 30 31  2  0  0  0  0
 32 30  1  0  0  0  0
M  END
>  <MODEL>
2

>  <REMARK>
 VINA RESULT:      -6.1      4.935      8.442
  Name = 
  3 active torsions:
  status: ('A' for Active; 'I' for Inactive)
    1  A    between atoms: C_10  and  O_20
    2  A    between atoms: O_20  and  C_29
    3  A    between atoms: C_29  and  C_30
                            x       y       z     vdW  Elec       q    Type
                         _______ _______ _______ _____ _____    ______ ____

>  <TORSDO>
F 3

$$$$
=
 OpenBabel11122412563D

 32 37  0  0  1  0  0  0  0  0999 V2000
  159.7860  213.7970  146.5170 S   0  0  0  0  0  0  0  0  0  0  0  0
  161.7060  210.8450  150.7800 C   0  0  1  0  0  3  0  0  0  0  0  0
  161.3120  206.8190  147.9240 C   0  0  0  0  0  3  0  0  0  0  0  0
  160.8820  206.0730  149.0240 C   0  0  0  0  0  3  0  0  0  0  0  0
  161.5750  210.5160  153.2020 C   0  0  0  0  0  0  0  0  0  0  0  0
  161.3210  209.7210  154.3180 C   0  0  0  0  0  0  0  0  0  0  0  0
  160.7400  212.6390  149.4200 N   0  0  1  0  0  0  0  0  0  0  0  0
  162.2670  210.9770  148.3880 C   0  0  0  0  0  2  0  0  0  0  0  0
  160.7680  207.6830  155.2990 C   0  0  0  0  0  0  0  0  0  0  0  0
  161.2580  212.7950  146.9710 C   0  0  2  0  0  3  0  0  0  0  0  0
  161.6930  208.1510  148.0910 C   0  0  0  0  0  3  0  0  0  0  0  0
  162.0280  210.1240  149.5460 N   0  0  0  0  0  0  0  0  0  0  0  0
  161.6430  208.7520  149.3610 C   0  0  0  0  0  0  0  0  0  0  0  0
  161.2080  208.6230  151.7950 C   0  0  0  0  0  0  0  0  0  0  0  0
  160.9600  208.7690  156.5660 S   0  0  0  0  0  0  0  0  0  0  0  0
  158.4250  212.9780  147.9460 S   0  0  0  0  0  0  0  0  0  0  0  0
  161.0460  211.8800  148.1850 C   0  0  2  0  0  3  0  0  0  0  0  0
  161.3460  210.1380  155.6490 C   0  0  0  0  0  3  0  0  0  0  0  0
  159.5420  213.4860  149.2980 C   0  0  0  0  0  2  0  0  0  0  0  0
  160.8360  206.6610  150.2890 C   0  0  0  0  0  3  0  0  0  0  0  0
  161.2140  208.0010  150.4610 C   0  0  0  0  0  0  0  0  0  0  0  0
  160.9560  207.8440  152.8870 N   0  0  0  0  0  0  0  0  0  0  0  0
  160.4720  211.7080  150.5200 C   0  0  0  0  0  2  0  0  0  0  0  0
  161.8640  211.7360  153.3530 O   0  0  0  0  0  0  0  0  0  0  0  0
  160.4140  206.2420  155.4300 C   0  0  0  0  0  1  0  0  0  0  0  0
  161.5050  209.9610  151.9460 N   0  0  0  0  0  0  0  0  0  0  0  0
  161.0040  208.3780  154.1280 C   0  0  0  0  0  0  0  0  0  0  0  0
  162.3480  213.6460  147.1830 O   0  0  0  0  0  0  0  0  0  0  0  0
  162.3990  214.4530  146.0450 C   0  0  0  0  0  2  0  0  0  0  0  0
  162.8100  213.6340  144.8730 C   0  0  0  0  0  0  0  0  0  0  0  0
  163.8520  212.9310  144.9320 O   0  0  0  0  0  0  0  0  0  0  0  0
  162.0050  213.6140  143.7000 N   0  0  0  0  0  1  0  0  0  0  0  0
  1 10  1  0  0  0  0
  1 16  1  0  0  0  0
  2 23  1  6  0  0  0
  2 26  1  0  0  0  0
  3 11  2  0  0  0  0
  3  4  1  0  0  0  0
  4 20  2  0  0  0  0
  5 24  2  0  0  0  0
  5  6  1  0  0  0  0
  6 18  2  0  0  0  0
  7 19  1  6  0  0  0
  7 23  1  0  0  0  0
  8 12  1  0  0  0  0
  9 25  1  0  0  0  0
  9 15  1  0  0  0  0
 10 28  1  1  0  0  0
 10 17  1  0  0  0  0
 11 13  1  0  0  0  0
 12  2  1  0  0  0  0
 13 12  1  0  0  0  0
 13 21  2  0  0  0  0
 14 26  1  0  0  0  0
 14 22  2  0  0  0  0
 16 19  1  0  0  0  0
 17  8  1  1  0  0  0
 17  7  1  0  0  0  0
 18 15  1  0  0  0  0
 20 21  1  0  0  0  0
 21 14  1  0  0  0  0
 22 27  1  0  0  0  0
 26  5  1  0  0  0  0
 27  6  1  0  0  0  0
 27  9  2  0  0  0  0
 29 28  1  0  0  0  0
 30 31  2  0  0  0  0
 30 29  1  0  0  0  0
 32 30  1  0  0  0  0
M  END
>  <MODEL>
3

>  <REMARK>
 VINA RESULT:      -5.6      4.340      7.112
  Name = 
  3 active torsions:
  status: ('A' for Active; 'I' for Inactive)
    1  A    between atoms: C_10  and  O_20
    2  A    between atoms: O_20  and  C_29
    3  A    between atoms: C_29  and  C_30
                            x       y       z     vdW  Elec       q    Type
                         _______ _______ _______ _____ _____    ______ ____

>  <TORSDO>
F 3

$$$$
=
 OpenBabel11122412563D

 32 37  0  0  1  0  0  0  0  0999 V2000
  160.0330  211.3440  156.2010 S   0  0  0  0  0  0  0  0  0  0  0  0
  161.8720  207.6410  152.5280 C   0  0  1  0  0  3  0  0  0  0  0  0
  162.3710  211.3670  149.3060 C   0  0  0  0  0  3  0  0  0  0  0  0
  161.9320  210.5390  148.2700 C   0  0  0  0  0  3  0  0  0  0  0  0
  161.5230  205.4020  151.6040 C   0  0  0  0  0  0  0  0  0  0  0  0
  161.2630  204.5440  150.5370 C   0  0  0  0  0  0  0  0  0  0  0  0
  160.8160  208.6770  154.4820 N   0  0  1  0  0  0  0  0  0  0  0  0
  162.6690  209.8360  153.3040 C   0  0  0  0  0  2  0  0  0  0  0  0
  160.9000  204.1420  148.2730 C   0  0  0  0  0  0  0  0  0  0  0  0
  161.5740  210.9270  155.2890 C   0  0  2  0  0  3  0  0  0  0  0  0
  162.5380  210.8480  150.5910 C   0  0  0  0  0  3  0  0  0  0  0  0
  162.4270  208.9490  152.1730 N   0  0  0  0  0  0  0  0  0  0  0  0
  162.2640  209.4950  150.8540 C   0  0  0  0  0  0  0  0  0  0  0  0
  161.5860  207.2410  150.0840 C   0  0  0  0  0  0  0  0  0  0  0  0
  160.7950  202.6470  149.0300 S   0  0  0  0  0  0  0  0  0  0  0  0
  158.6540  210.3460  154.9110 S   0  0  0  0  0  0  0  0  0  0  0  0
  161.3610  209.9980  154.0870 C   0  0  2  0  0  3  0  0  0  0  0  0
  161.0820  203.1630  150.6160 C   0  0  0  0  0  3  0  0  0  0  0  0
  159.5320  208.7700  155.1930 C   0  0  0  0  0  2  0  0  0  0  0  0
  161.6640  209.1920  148.5220 C   0  0  0  0  0  3  0  0  0  0  0  0
  161.8270  208.6670  149.8130 C   0  0  0  0  0  0  0  0  0  0  0  0
  161.3280  206.4020  149.0390 N   0  0  0  0  0  0  0  0  0  0  0  0
  160.5640  207.8680  153.2860 C   0  0  0  0  0  2  0  0  0  0  0  0
  161.6170  204.9360  152.7750 O   0  0  0  0  0  0  0  0  0  0  0  0
  160.7420  204.3950  146.8140 C   0  0  0  0  0  1  0  0  0  0  0  0
  161.6710  206.7480  151.3700 N   0  0  0  0  0  0  0  0  0  0  0  0
  161.1620  205.0780  149.2550 C   0  0  0  0  0  0  0  0  0  0  0  0
  162.5020  210.3760  156.1780 O   0  0  0  0  0  0  0  0  0  0  0  0
  162.9290  211.4490  156.9620 C   0  0  0  0  0  2  0  0  0  0  0  0
  164.3280  211.8040  156.6010 C   0  0  0  0  0  0  0  0  0  0  0  0
  164.9430  212.6830  157.2580 O   0  0  0  0  0  0  0  0  0  0  0  0
  164.9840  211.1200  155.5400 N   0  0  0  0  0  1  0  0  0  0  0  0
  2 23  1  6  0  0  0
  3 11  1  0  0  0  0
  4 20  1  0  0  0  0
  4  3  2  0  0  0  0
  5 24  2  0  0  0  0
  6 18  2  0  0  0  0
  6  5  1  0  0  0  0
  7 23  1  6  0  0  0
  7 19  1  0  0  0  0
  9 15  1  0  0  0  0
  9 27  2  0  0  0  0
 10 28  1  1  0  0  0
 10  1  1  0  0  0  0
 11 13  2  0  0  0  0
 12  2  1  0  0  0  0
 12  8  1  0  0  0  0
 13 12  1  0  0  0  0
 14 26  1  0  0  0  0
 15 18  1  0  0  0  0
 16 19  1  0  0  0  0
 16  1  1  0  0  0  0
 17  8  1  1  0  0  0
 17  7  1  0  0  0  0
 17 10  1  0  0  0  0
 20 21  2  0  0  0  0
 21 14  1  0  0  0  0
 21 13  1  0  0  0  0
 22 27  1  0  0  0  0
 22 14  2  0  0  0  0
 25  9  1  0  0  0  0
 26  5  1  0  0  0  0
 26  2  1  0  0  0  0
 27  6  1  0  0  0  0
 28 29  1  0  0  0  0
 30 29  1  0  0  0  0
 30 31  2  0  0  0  0
 32 30  1  0  0  0  0
M  END
>  <MODEL>
4

>  <REMARK>
 VINA RESULT:      -5.3      1.542      1.627
  Name = 
  3 active torsions:
  status: ('A' for Active; 'I' for Inactive)
    1  A    between atoms: C_10  and  O_20
    2  A    between atoms: O_20  and  C_29
    3  A    between atoms: C_29  and  C_30
                            x       y       z     vdW  Elec       q    Type
                         _______ _______ _______ _____ _____    ______ ____

>  <TORSDO>
F 3

$$$$
