=
 OpenBabel11122414423D

 34 37  0  0  1  0  0  0  0  0999 V2000
  161.0800  208.8930  155.1140 C   0  0  2  0  0  3  0  0  0  0  0  0
  160.4850  206.6020  154.4520 N   0  0  0  0  0  2  0  0  0  0  0  0
  160.7480  211.3610  155.1430 C   0  0  0  0  0  2  0  0  0  0  0  0
  161.8760  207.8060  152.8820 C   0  0  2  0  0  3  0  0  0  0  0  0
  162.3150  207.0490  149.9940 C   0  0  0  0  0  2  0  0  0  0  0  0
  161.0620  208.8750  152.1110 C   0  0  1  0  0  3  0  0  0  0  0  0
  160.5620  205.8190  153.2210 C   0  0  0  0  0  2  0  0  0  0  0  0
  161.3370  206.2570  150.8560 C   0  0  2  0  0  3  0  0  0  0  0  0
  161.2800  210.1850  154.3170 C   0  0  2  0  0  3  0  0  0  0  0  0
  160.5340  210.0360  152.9880 C   0  0  1  0  0  3  0  0  0  0  0  0
  161.3170  210.1580  157.2610 C   0  0  0  0  0  2  0  0  0  0  0  0
  161.7640  208.4410  149.7250 C   0  0  0  0  0  2  0  0  0  0  0  0
  161.4950  211.4520  156.4700 C   0  0  0  0  0  2  0  0  0  0  0  0
  161.9150  209.3530  150.9350 C   0  0  0  0  0  2  0  0  0  0  0  0
  161.6660  206.3970  152.3500 C   0  0  1  0  0  3  0  0  0  0  0  0
  161.8180  208.9670  156.4470 C   0  0  0  0  0  2  0  0  0  0  0  0
  161.5070  207.6360  154.3540 C   0  0  1  0  0  3  0  0  0  0  0  0
  160.2330  211.3460  152.2400 C   0  0  0  0  0  2  0  0  0  0  0  0
  158.7820  211.7830  152.3950 C   0  0  0  0  0  2  0  0  0  0  0  0
  157.8720  213.8890  153.0700 O   0  0  0  0  0  1  0  0  0  0  0  0
  158.6440  213.2640  152.0870 C   0  0  2  0  0  3  0  0  0  0  0  0
  158.0180  213.4570  150.7080 C   0  0  1  0  0  3  0  0  0  0  0  0
  156.7190  213.9580  150.8240 O   0  0  0  0  0  1  0  0  0  0  0  0
  158.8540  214.4020  149.8610 C   0  0  0  0  0  2  0  0  0  0  0  0
  160.1920  214.0060  149.8850 O   0  0  0  0  0  0  0  0  0  0  0  0
  160.3880  213.3600  148.6650 C   0  0  0  0  0  2  0  0  0  0  0  0
  161.5490  212.3950  148.7850 C   0  0  0  0  0  1  0  0  0  0  0  0
  161.3880  204.7900  150.4560 C   0  0  0  0  0  2  0  0  0  0  0  0
  160.7650  204.5950  149.0840 C   0  0  0  0  0  2  0  0  0  0  0  0
  161.4120  203.4020  148.3760 C   0  0  1  0  0  3  0  0  0  0  0  0
  161.4890  200.9920  148.5500 O   0  0  0  0  0  1  0  0  0  0  0  0
  160.6320  202.0950  148.5390 C   0  0  0  0  0  2  0  0  0  0  0  0
  161.8260  203.6580  147.0490 O   0  0  0  0  0  0  0  0  0  0  0  0
  161.8180  205.0420  146.8170 C   0  0  0  0  0  1  0  0  0  0  0  0
  1 16  1  1  0  0  0
  3 13  1  0  0  0  0
  4 17  1  0  0  0  0
  5  8  1  0  0  0  0
  6  4  1  0  0  0  0
  6 10  1  0  0  0  0
  7  2  1  0  0  0  0
  8 15  1  0  0  0  0
  9  1  1  0  0  0  0
  9  3  1  0  0  0  0
 10  9  1  0  0  0  0
 12  5  1  0  0  0  0
 12 14  1  0  0  0  0
 13 11  1  0  0  0  0
 14  6  1  0  0  0  0
 15  4  1  0  0  0  0
 15  7  1  0  0  0  0
 16 11  1  0  0  0  0
 17  2  1  0  0  0  0
 17  1  1  0  0  0  0
 18 19  1  0  0  0  0
 18 10  1  0  0  0  0
 21 19  1  0  0  0  0
 21 20  1  0  0  0  0
 22 23  1  0  0  0  0
 22 21  1  0  0  0  0
 24 25  1  0  0  0  0
 24 22  1  0  0  0  0
 26 27  1  0  0  0  0
 26 25  1  0  0  0  0
 28  8  1  0  0  0  0
 29 28  1  0  0  0  0
 30 32  1  0  0  0  0
 30 29  1  0  0  0  0
 32 31  1  0  0  0  0
 33 30  1  0  0  0  0
 34 33  1  0  0  0  0
M  END
>  <MODEL>
1

>  <REMARK>
 VINA RESULT:      -6.6      0.000      0.000
  Name = 
  12 active torsions:
  status: ('A' for Active; 'I' for Inactive)
    1  A    between atoms: C_3  and  C_16
    2  A    between atoms: C_3  and  C_19
    3  A    between atoms: C_5  and  C_11
    4  A    between atoms: C_5  and  C_19
    5  A    between atoms: O_8  and  C_12
    6  A    between atoms: O_8  and  C_16
    7  A    between atoms: C_11  and  C_20
    8  A    between atoms: C_17  and  C_28
    9  A    between atoms: C_28  and  C_29
   10  A    between atoms: C_29  and  C_32
   11  A    between atoms: O_31  and  C_32
   12  A    between atoms: C_32  and  C_34
                            x       y       z     vdW  Elec       q    Type
                         _______ _______ _______ _____ _____    ______ ____

>  <TORSDO>
F 12

$$$$
=
 OpenBabel11122414423D

 34 37  0  0  1  0  0  0  0  0999 V2000
  160.9610  207.6560  154.3070 C   0  0  2  0  0  3  0  0  0  0  0  0
  160.4070  205.7260  152.8890 N   0  0  0  0  0  2  0  0  0  0  0  0
  160.6290  209.9810  155.1350 C   0  0  0  0  0  2  0  0  0  0  0  0
  161.8900  207.3550  151.8900 C   0  0  2  0  0  3  0  0  0  0  0  0
  162.4990  207.5890  148.9430 C   0  0  0  0  0  2  0  0  0  0  0  0
  161.1230  208.6350  151.4720 C   0  0  1  0  0  3  0  0  0  0  0  0
  160.5570  205.3940  151.4740 C   0  0  0  0  0  2  0  0  0  0  0  0
  161.4720  206.5750  149.4370 C   0  0  2  0  0  3  0  0  0  0  0  0
  161.2090  209.1350  153.9970 C   0  0  2  0  0  3  0  0  0  0  0  0
  160.5430  209.4500  152.6540 C   0  0  1  0  0  3  0  0  0  0  0  0
  161.0700  208.1330  156.7620 C   0  0  0  0  0  2  0  0  0  0  0  0
  161.9660  209.0020  149.1210 C   0  0  0  0  0  2  0  0  0  0  0  0
  161.2960  209.6120  156.4570 C   0  0  0  0  0  2  0  0  0  0  0  0
  162.0440  209.4590  150.5720 C   0  0  0  0  0  2  0  0  0  0  0  0
  161.7110  206.2060  150.9080 C   0  0  1  0  0  3  0  0  0  0  0  0
  161.6180  207.2690  155.6290 C   0  0  0  0  0  2  0  0  0  0  0  0
  161.4330  206.7140  153.1980 C   0  0  1  0  0  3  0  0  0  0  0  0
  160.2880  210.9400  152.3680 C   0  0  0  0  0  2  0  0  0  0  0  0
  158.8280  211.3270  152.5650 C   0  0  0  0  0  2  0  0  0  0  0  0
  159.6740  213.0920  151.1910 O   0  0  0  0  0  1  0  0  0  0  0  0
  158.5360  212.6450  151.8700 C   0  0  2  0  0  3  0  0  0  0  0  0
  158.0740  213.6850  152.8880 C   0  0  1  0  0  3  0  0  0  0  0  0
  156.9300  214.3430  152.4330 O   0  0  0  0  0  1  0  0  0  0  0  0
  157.7880  213.0360  154.2320 C   0  0  0  0  0  2  0  0  0  0  0  0
  156.4480  213.2210  154.5760 O   0  0  0  0  0  0  0  0  0  0  0  0
  155.9920  211.9450  154.9060 C   0  0  0  0  0  2  0  0  0  0  0  0
  157.0390  211.2330  155.7360 C   0  0  0  0  0  1  0  0  0  0  0  0
  161.5470  205.3240  148.5760 C   0  0  0  0  0  2  0  0  0  0  0  0
  161.7520  205.6970  147.1180 C   0  0  0  0  0  2  0  0  0  0  0  0
  161.9800  204.4380  146.2780 C   0  0  1  0  0  3  0  0  0  0  0  0
  161.0010  202.2580  145.9160 O   0  0  0  0  0  1  0  0  0  0  0  0
  161.3890  203.1700  146.9000 C   0  0  0  0  0  2  0  0  0  0  0  0
  161.6920  204.5860  144.9020 O   0  0  0  0  0  0  0  0  0  0  0  0
  160.7980  205.6540  144.7260 C   0  0  0  0  0  1  0  0  0  0  0  0
  1 16  1  1  0  0  0
  2 17  1  0  0  0  0
  3 13  1  0  0  0  0
  4 17  1  0  0  0  0
  5 12  1  0  0  0  0
  5  8  1  0  0  0  0
  6  4  1  0  0  0  0
  6 10  1  0  0  0  0
  7  2  1  0  0  0  0
  8 15  1  0  0  0  0
  9  1  1  0  0  0  0
  9  3  1  0  0  0  0
 10  9  1  0  0  0  0
 12 14  1  0  0  0  0
 13 11  1  0  0  0  0
 14  6  1  0  0  0  0
 15  7  1  0  0  0  0
 15  4  1  0  0  0  0
 16 11  1  0  0  0  0
 17  1  1  0  0  0  0
 18 19  1  0  0  0  0
 18 10  1  0  0  0  0
 20 21  1  0  0  0  0
 21 19  1  0  0  0  0
 21 22  1  0  0  0  0
 22 24  1  0  0  0  0
 23 22  1  0  0  0  0
 24 25  1  0  0  0  0
 25 26  1  0  0  0  0
 26 27  1  0  0  0  0
 28  8  1  0  0  0  0
 29 28  1  0  0  0  0
 30 32  1  0  0  0  0
 30 29  1  0  0  0  0
 31 32  1  0  0  0  0
 33 30  1  0  0  0  0
 34 33  1  0  0  0  0
M  END
>  <MODEL>
2

>  <REMARK>
 VINA RESULT:      -6.5      1.596      2.865
  Name = 
  12 active torsions:
  status: ('A' for Active; 'I' for Inactive)
    1  A    between atoms: C_3  and  C_16
    2  A    between atoms: C_3  and  C_19
    3  A    between atoms: C_5  and  C_11
    4  A    between atoms: C_5  and  C_19
    5  A    between atoms: O_8  and  C_12
    6  A    between atoms: O_8  and  C_16
    7  A    between atoms: C_11  and  C_20
    8  A    between atoms: C_17  and  C_28
    9  A    between atoms: C_28  and  C_29
   10  A    between atoms: C_29  and  C_32
   11  A    between atoms: O_31  and  C_32
   12  A    between atoms: C_32  and  C_34
                            x       y       z     vdW  Elec       q    Type
                         _______ _______ _______ _____ _____    ______ ____

>  <TORSDO>
F 12

$$$$
=
 OpenBabel11122414423D

 34 37  0  0  1  0  0  0  0  0999 V2000
  162.1010  208.0050  149.0900 C   0  0  2  0  0  3  0  0  0  0  0  0
  162.7590  206.1790  147.5820 N   0  0  0  0  0  2  0  0  0  0  0  0
  162.2360  209.3000  151.2140 C   0  0  0  0  0  2  0  0  0  0  0  0
  161.0370  205.6280  149.1890 C   0  0  2  0  0  3  0  0  0  0  0  0
  160.1900  202.8350  149.9580 C   0  0  0  0  0  2  0  0  0  0  0  0
  161.6250  205.4610  150.6120 C   0  0  1  0  0  3  0  0  0  0  0  0
  162.5420  204.7350  147.5380 C   0  0  0  0  0  2  0  0  0  0  0  0
  161.3560  203.0480  148.9970 C   0  0  2  0  0  3  0  0  0  0  0  0
  161.6710  208.0350  150.5590 C   0  0  2  0  0  3  0  0  0  0  0  0
  162.1970  206.7620  151.2280 C   0  0  1  0  0  3  0  0  0  0  0  0
  162.1210  210.5080  149.0260 C   0  0  0  0  0  2  0  0  0  0  0  0
  160.5770  203.2890  151.3570 C   0  0  0  0  0  2  0  0  0  0  0  0
  161.7130  210.5410  150.4970 C   0  0  0  0  0  2  0  0  0  0  0  0
  160.5550  204.8060  151.4870 C   0  0  0  0  0  2  0  0  0  0  0  0
  161.2680  204.4140  148.3020 C   0  0  1  0  0  3  0  0  0  0  0  0
  161.5900  209.2430  148.3580 C   0  0  0  0  0  2  0  0  0  0  0  0
  161.6560  206.7430  148.3500 C   0  0  1  0  0  3  0  0  0  0  0  0
  162.2660  206.7920  152.7640 C   0  0  0  0  0  2  0  0  0  0  0  0
  161.2080  207.7020  153.3740 C   0  0  0  0  0  2  0  0  0  0  0  0
  159.9280  206.8240  155.1930 O   0  0  0  0  0  1  0  0  0  0  0  0
  161.1220  207.4770  154.8730 C   0  0  2  0  0  3  0  0  0  0  0  0
  161.2200  208.8100  155.6110 C   0  0  1  0  0  3  0  0  0  0  0  0
  162.2650  208.7820  156.5380 O   0  0  0  0  0  1  0  0  0  0  0  0
  161.4360  209.9540  154.6350 C   0  0  0  0  0  2  0  0  0  0  0  0
  160.6950  211.0670  155.0330 O   0  0  0  0  0  0  0  0  0  0  0  0
  159.3920  210.7850  154.6250 C   0  0  0  0  0  2  0  0  0  0  0  0
  159.2610  211.0450  153.1390 C   0  0  0  0  0  1  0  0  0  0  0  0
  161.3560  201.9410  147.9540 C   0  0  0  0  0  2  0  0  0  0  0  0
  160.1270  202.0490  147.0680 C   0  0  0  0  0  2  0  0  0  0  0  0
  160.5090  201.8100  145.6050 C   0  0  1  0  0  3  0  0  0  0  0  0
  161.1780  199.4890  145.7120 O   0  0  0  0  0  1  0  0  0  0  0  0
  160.2640  200.3740  145.1340 C   0  0  0  0  0  2  0  0  0  0  0  0
  160.0410  202.7940  144.7050 O   0  0  0  0  0  0  0  0  0  0  0  0
  160.8780  203.9190  144.7660 C   0  0  0  0  0  1  0  0  0  0  0  0
  1 16  1  6  0  0  0
  1  9  1  0  0  0  0
  2 17  1  0  0  0  0
  4  6  1  0  0  0  0
  5 12  1  0  0  0  0
  6 10  1  0  0  0  0
  6 14  1  0  0  0  0
  7  2  1  0  0  0  0
  7 15  1  0  0  0  0
  8  5  1  0  0  0  0
  9  3  1  0  0  0  0
  9 10  1  0  0  0  0
 10 18  1  0  0  0  0
 11 13  1  0  0  0  0
 12 14  1  0  0  0  0
 13  3  1  0  0  0  0
 15  8  1  0  0  0  0
 15  4  1  0  0  0  0
 16 11  1  0  0  0  0
 17  1  1  0  0  0  0
 17  4  1  0  0  0  0
 18 19  1  0  0  0  0
 19 21  1  0  0  0  0
 21 20  1  0  0  0  0
 21 22  1  0  0  0  0
 22 23  1  0  0  0  0
 24 25  1  0  0  0  0
 24 22  1  0  0  0  0
 26 25  1  0  0  0  0
 27 26  1  0  0  0  0
 28  8  1  0  0  0  0
 29 28  1  0  0  0  0
 30 29  1  0  0  0  0
 32 30  1  0  0  0  0
 32 31  1  0  0  0  0
 33 34  1  0  0  0  0
 33 30  1  0  0  0  0
M  END
>  <MODEL>
3

>  <REMARK>
 VINA RESULT:      -6.3      2.839      5.605
  Name = 
  12 active torsions:
  status: ('A' for Active; 'I' for Inactive)
    1  A    between atoms: C_3  and  C_16
    2  A    between atoms: C_3  and  C_19
    3  A    between atoms: C_5  and  C_11
    4  A    between atoms: C_5  and  C_19
    5  A    between atoms: O_8  and  C_12
    6  A    between atoms: O_8  and  C_16
    7  A    between atoms: C_11  and  C_20
    8  A    between atoms: C_17  and  C_28
    9  A    between atoms: C_28  and  C_29
   10  A    between atoms: C_29  and  C_32
   11  A    between atoms: O_31  and  C_32
   12  A    between atoms: C_32  and  C_34
                            x       y       z     vdW  Elec       q    Type
                         _______ _______ _______ _____ _____    ______ ____

>  <TORSDO>
F 12

$$$$
=
 OpenBabel11122414423D

 34 37  0  0  1  0  0  0  0  0999 V2000
  161.1200  203.9960  150.7920 C   0  0  2  0  0  3  0  0  0  0  0  0
  161.7230  204.9510  152.9750 N   0  0  0  0  0  2  0  0  0  0  0  0
  161.5640  203.4270  148.4080 C   0  0  0  0  0  2  0  0  0  0  0  0
  160.7670  206.5080  151.3910 C   0  0  2  0  0  3  0  0  0  0  0  0
  160.9240  209.5160  151.5830 C   0  0  0  0  0  2  0  0  0  0  0  0
  161.7830  206.8790  150.2810 C   0  0  1  0  0  3  0  0  0  0  0  0
  161.8730  206.2990  153.5180 C   0  0  0  0  0  2  0  0  0  0  0  0
  161.6500  208.6420  152.6000 C   0  0  2  0  0  3  0  0  0  0  0  0
  161.1630  204.5530  149.3670 C   0  0  2  0  0  3  0  0  0  0  0  0
  162.1690  205.7070  149.3460 C   0  0  1  0  0  3  0  0  0  0  0  0
  160.4900  201.7390  149.9100 C   0  0  0  0  0  2  0  0  0  0  0  0
  161.5910  209.3960  150.2210 C   0  0  0  0  0  2  0  0  0  0  0  0
  160.5540  202.2860  148.4860 C   0  0  0  0  0  2  0  0  0  0  0  0
  161.2300  208.0890  149.5270 C   0  0  0  0  0  2  0  0  0  0  0  0
  161.0150  207.2470  152.6970 C   0  0  1  0  0  3  0  0  0  0  0  0
  160.1160  202.8500  150.8880 C   0  0  0  0  0  2  0  0  0  0  0  0
  160.8020  205.0530  151.8510 C   0  0  1  0  0  3  0  0  0  0  0  0
  162.6920  206.1140  147.9570 C   0  0  0  0  0  2  0  0  0  0  0  0
  161.5880  206.1460  146.9090 C   0  0  0  0  0  2  0  0  0  0  0  0
  163.1710  205.2070  145.3830 O   0  0  0  0  0  1  0  0  0  0  0  0
  161.8520  205.1050  145.8350 C   0  0  2  0  0  3  0  0  0  0  0  0
  160.8720  205.2830  144.6780 C   0  0  1  0  0  3  0  0  0  0  0  0
  161.5540  205.6020  143.5020 O   0  0  0  0  0  1  0  0  0  0  0  0
  160.0510  204.0220  144.4660 C   0  0  0  0  0  2  0  0  0  0  0  0
  160.7150  202.9230  145.0100 O   0  0  0  0  0  0  0  0  0  0  0  0
  159.8060  201.8720  144.8950 C   0  0  0  0  0  2  0  0  0  0  0  0
  160.4720  200.5790  145.3180 C   0  0  0  0  0  1  0  0  0  0  0  0
  161.6110  209.3190  153.9620 C   0  0  0  0  0  2  0  0  0  0  0  0
  160.2350  209.9100  154.2200 C   0  0  0  0  0  2  0  0  0  0  0  0
  159.7960  209.6180  155.6560 C   0  0  1  0  0  3  0  0  0  0  0  0
  159.4680  207.2550  156.0430 O   0  0  0  0  0  1  0  0  0  0  0  0
  160.3640  208.3120  156.2180 C   0  0  0  0  0  2  0  0  0  0  0  0
  159.9050  210.7150  156.5410 O   0  0  0  0  0  0  0  0  0  0  0  0
  158.6590  211.3510  156.6510 C   0  0  0  0  0  1  0  0  0  0  0  0
  1 16  1  6  0  0  0
  1 17  1  0  0  0  0
  2  7  1  0  0  0  0
  3 13  1  0  0  0  0
  3  9  1  0  0  0  0
  4 17  1  0  0  0  0
  4 15  1  0  0  0  0
  5  8  1  0  0  0  0
  6  4  1  0  0  0  0
  8 15  1  0  0  0  0
  8 28  1  0  0  0  0
  9  1  1  0  0  0  0
 10  9  1  0  0  0  0
 10  6  1  0  0  0  0
 11 16  1  0  0  0  0
 12  5  1  0  0  0  0
 13 11  1  0  0  0  0
 14 12  1  0  0  0  0
 14  6  1  0  0  0  0
 15  7  1  0  0  0  0
 17  2  1  0  0  0  0
 18 10  1  0  0  0  0
 19 18  1  0  0  0  0
 20 21  1  0  0  0  0
 21 19  1  0  0  0  0
 22 21  1  0  0  0  0
 23 22  1  0  0  0  0
 24 22  1  0  0  0  0
 24 25  1  0  0  0  0
 26 25  1  0  0  0  0
 26 27  1  0  0  0  0
 28 29  1  0  0  0  0
 29 30  1  0  0  0  0
 30 32  1  0  0  0  0
 30 33  1  0  0  0  0
 31 32  1  0  0  0  0
 33 34  1  0  0  0  0
M  END
>  <MODEL>
4

>  <REMARK>
 VINA RESULT:      -6.1      3.049      8.678
  Name = 
  12 active torsions:
  status: ('A' for Active; 'I' for Inactive)
    1  A    between atoms: C_3  and  C_16
    2  A    between atoms: C_3  and  C_19
    3  A    between atoms: C_5  and  C_11
    4  A    between atoms: C_5  and  C_19
    5  A    between atoms: O_8  and  C_12
    6  A    between atoms: O_8  and  C_16
    7  A    between atoms: C_11  and  C_20
    8  A    between atoms: C_17  and  C_28
    9  A    between atoms: C_28  and  C_29
   10  A    between atoms: C_29  and  C_32
   11  A    between atoms: O_31  and  C_32
   12  A    between atoms: C_32  and  C_34
                            x       y       z     vdW  Elec       q    Type
                         _______ _______ _______ _____ _____    ______ ____

>  <TORSDO>
F 12

$$$$
=
 OpenBabel11122414423D

 34 37  0  0  1  0  0  0  0  0999 V2000
  161.6450  207.0870  148.9740 C   0  0  2  0  0  3  0  0  0  0  0  0
  161.0700  209.0920  150.2750 N   0  0  0  0  0  2  0  0  0  0  0  0
  161.1480  204.8600  147.9750 C   0  0  0  0  0  2  0  0  0  0  0  0
  161.8990  207.2210  151.5640 C   0  0  2  0  0  3  0  0  0  0  0  0
  161.6090  206.8890  154.5500 C   0  0  0  0  0  2  0  0  0  0  0  0
  160.8310  206.1060  151.6930 C   0  0  1  0  0  3  0  0  0  0  0  0
  160.8760  209.3950  151.6910 C   0  0  0  0  0  2  0  0  0  0  0  0
  160.9590  208.0730  153.8420 C   0  0  2  0  0  3  0  0  0  0  0  0
  161.5280  205.5900  149.2680 C   0  0  2  0  0  3  0  0  0  0  0  0
  160.4690  205.4070  150.3590 C   0  0  1  0  0  3  0  0  0  0  0  0
  162.3490  206.5890  146.6240 C   0  0  0  0  0  2  0  0  0  0  0  0
  160.9040  205.5980  154.1640 C   0  0  0  0  0  2  0  0  0  0  0  0
  162.2120  205.0950  146.9070 C   0  0  0  0  0  2  0  0  0  0  0  0
  161.3010  205.1290  152.7710 C   0  0  0  0  0  2  0  0  0  0  0  0
  161.6610  208.3860  152.5130 C   0  0  1  0  0  3  0  0  0  0  0  0
  162.7030  207.3410  147.9040 C   0  0  0  0  0  2  0  0  0  0  0  0
  161.9480  207.9300  150.2130 C   0  0  1  0  0  3  0  0  0  0  0  0
  159.8820  203.9920  150.4920 C   0  0  0  0  0  2  0  0  0  0  0  0
  160.9150  202.9070  150.2140 C   0  0  0  0  0  2  0  0  0  0  0  0
  160.0230  200.6880  150.1790 O   0  0  0  0  0  1  0  0  0  0  0  0
  160.3000  201.7990  149.3760 C   0  0  2  0  0  3  0  0  0  0  0  0
  161.2430  201.4180  148.2380 C   0  0  1  0  0  3  0  0  0  0  0  0
  161.5810  200.0650  148.3130 O   0  0  0  0  0  1  0  0  0  0  0  0
  160.6070  201.7090  146.8890 C   0  0  0  0  0  2  0  0  0  0  0  0
  160.8360  200.6470  146.0130 O   0  0  0  0  0  0  0  0  0  0  0  0
  160.0800  200.9560  144.8830 C   0  0  0  0  0  2  0  0  0  0  0  0
  159.7860  202.4420  144.8620 C   0  0  0  0  0  1  0  0  0  0  0  0
  161.0120  209.2920  154.7500 C   0  0  0  0  0  2  0  0  0  0  0  0
  159.7570  209.3710  155.6020 C   0  0  0  0  0  2  0  0  0  0  0  0
  159.1350  210.7650  155.4970 C   0  0  1  0  0  3  0  0  0  0  0  0
  157.6930  212.1240  156.8820 O   0  0  0  0  0  1  0  0  0  0  0  0
  158.9130  211.4420  156.8510 C   0  0  0  0  0  2  0  0  0  0  0  0
  159.7330  211.6070  154.5300 O   0  0  0  0  0  0  0  0  0  0  0  0
  158.7980  211.8990  153.5240 C   0  0  0  0  0  1  0  0  0  0  0  0
  1 16  1  6  0  0  0
  1  9  1  0  0  0  0
  1 17  1  0  0  0  0
  2  7  1  0  0  0  0
  3  9  1  0  0  0  0
  4  6  1  0  0  0  0
  4 15  1  0  0  0  0
  6 14  1  0  0  0  0
  7 15  1  0  0  0  0
  8  5  1  0  0  0  0
  8 28  1  0  0  0  0
  9 10  1  0  0  0  0
 10 18  1  0  0  0  0
 10  6  1  0  0  0  0
 11 13  1  0  0  0  0
 11 16  1  0  0  0  0
 12  5  1  0  0  0  0
 13  3  1  0  0  0  0
 14 12  1  0  0  0  0
 15  8  1  0  0  0  0
 17  2  1  0  0  0  0
 17  4  1  0  0  0  0
 19 18  1  0  0  0  0
 21 20  1  0  0  0  0
 21 19  1  0  0  0  0
 22 23  1  0  0  0  0
 22 21  1  0  0  0  0
 24 22  1  0  0  0  0
 25 24  1  0  0  0  0
 26 25  1  0  0  0  0
 27 26  1  0  0  0  0
 28 29  1  0  0  0  0
 30 29  1  0  0  0  0
 30 32  1  0  0  0  0
 32 31  1  0  0  0  0
 33 30  1  0  0  0  0
 34 33  1  0  0  0  0
M  END
>  <MODEL>
5

>  <REMARK>
 VINA RESULT:      -5.7      2.559      9.422
  Name = 
  12 active torsions:
  status: ('A' for Active; 'I' for Inactive)
    1  A    between atoms: C_3  and  C_16
    2  A    between atoms: C_3  and  C_19
    3  A    between atoms: C_5  and  C_11
    4  A    between atoms: C_5  and  C_19
    5  A    between atoms: O_8  and  C_12
    6  A    between atoms: O_8  and  C_16
    7  A    between atoms: C_11  and  C_20
    8  A    between atoms: C_17  and  C_28
    9  A    between atoms: C_28  and  C_29
   10  A    between atoms: C_29  and  C_32
   11  A    between atoms: O_31  and  C_32
   12  A    between atoms: C_32  and  C_34
                            x       y       z     vdW  Elec       q    Type
                         _______ _______ _______ _____ _____    ______ ____

>  <TORSDO>
F 12

$$$$
=
 OpenBabel11122414423D

 34 37  0  0  1  0  0  0  0  0999 V2000
  161.5890  205.7240  149.7800 C   0  0  2  0  0  3  0  0  0  0  0  0
  161.9690  205.1390  152.1370 N   0  0  0  0  0  2  0  0  0  0  0  0
  162.1620  206.8820  147.6510 C   0  0  0  0  0  2  0  0  0  0  0  0
  160.7410  207.1890  151.7620 C   0  0  2  0  0  3  0  0  0  0  0  0
  160.2990  209.3620  153.8100 C   0  0  0  0  0  2  0  0  0  0  0  0
  161.6750  208.3260  151.2770 C   0  0  1  0  0  3  0  0  0  0  0  0
  161.8440  205.8330  153.4170 C   0  0  0  0  0  2  0  0  0  0  0  0
  161.1720  208.1570  154.1440 C   0  0  2  0  0  3  0  0  0  0  0  0
  161.5360  207.0620  149.0380 C   0  0  2  0  0  3  0  0  0  0  0  0
  162.2950  208.0940  149.8770 C   0  0  1  0  0  3  0  0  0  0  0  0
  161.4270  204.4910  147.6080 C   0  0  0  0  0  2  0  0  0  0  0  0
  160.9910  210.2380  152.7760 C   0  0  0  0  0  2  0  0  0  0  0  0
  161.3960  205.8230  146.8620 C   0  0  0  0  0  2  0  0  0  0  0  0
  160.9030  209.6420  151.3780 C   0  0  0  0  0  2  0  0  0  0  0  0
  160.8240  206.9500  153.2620 C   0  0  1  0  0  3  0  0  0  0  0  0
  160.8300  204.6520  149.0030 C   0  0  0  0  0  2  0  0  0  0  0  0
  161.0570  205.8010  151.2120 C   0  0  1  0  0  3  0  0  0  0  0  0
  162.7420  209.3640  149.1320 C   0  0  0  0  0  2  0  0  0  0  0  0
  161.5680  210.1300  148.5360 C   0  0  0  0  0  2  0  0  0  0  0  0
  162.8150  212.1150  149.0090 O   0  0  0  0  0  1  0  0  0  0  0  0
  162.0270  211.4890  148.0390 C   0  0  2  0  0  3  0  0  0  0  0  0
  160.8190  212.3550  147.6870 C   0  0  1  0  0  3  0  0  0  0  0  0
  160.8460  213.5510  148.4070 O   0  0  0  0  0  1  0  0  0  0  0  0
  160.7850  212.6570  146.1980 C   0  0  0  0  0  2  0  0  0  0  0  0
  159.6080  212.1600  145.6370 O   0  0  0  0  0  0  0  0  0  0  0  0
  158.6700  213.1720  145.8380 C   0  0  0  0  0  2  0  0  0  0  0  0
  157.3140  212.5560  146.1120 C   0  0  0  0  0  1  0  0  0  0  0  0
  160.9860  207.7930  155.6090 C   0  0  0  0  0  2  0  0  0  0  0  0
  162.0650  208.4430  156.4570 C   0  0  0  0  0  2  0  0  0  0  0  0
  161.4840  209.6250  157.2370 C   0  0  1  0  0  3  0  0  0  0  0  0
  163.0850  210.8240  155.8790 O   0  0  0  0  0  1  0  0  0  0  0  0
  162.1470  210.9640  156.9060 C   0  0  0  0  0  2  0  0  0  0  0  0
  160.0710  209.6780  157.2600 O   0  0  0  0  0  0  0  0  0  0  0  0
  159.6520  211.0050  157.0760 C   0  0  0  0  0  1  0  0  0  0  0  0
  1 16  1  6  0  0  0
  1 17  1  0  0  0  0
  2  7  1  0  0  0  0
  3  9  1  0  0  0  0
  4 15  1  0  0  0  0
  5  8  1  0  0  0  0
  6 14  1  0  0  0  0
  6  4  1  0  0  0  0
  8 28  1  0  0  0  0
  9  1  1  0  0  0  0
  9 10  1  0  0  0  0
 10  6  1  0  0  0  0
 11 16  1  0  0  0  0
 12  5  1  0  0  0  0
 13 11  1  0  0  0  0
 13  3  1  0  0  0  0
 14 12  1  0  0  0  0
 15  7  1  0  0  0  0
 15  8  1  0  0  0  0
 17  4  1  0  0  0  0
 17  2  1  0  0  0  0
 18 10  1  0  0  0  0
 19 18  1  0  0  0  0
 21 19  1  0  0  0  0
 21 20  1  0  0  0  0
 22 21  1  0  0  0  0
 22 23  1  0  0  0  0
 24 22  1  0  0  0  0
 25 26  1  0  0  0  0
 25 24  1  0  0  0  0
 26 27  1  0  0  0  0
 28 29  1  0  0  0  0
 29 30  1  0  0  0  0
 30 33  1  0  0  0  0
 31 32  1  0  0  0  0
 32 30  1  0  0  0  0
 34 33  1  0  0  0  0
M  END
>  <MODEL>
6

>  <REMARK>
 VINA RESULT:      -5.6      3.246      6.936
  Name = 
  12 active torsions:
  status: ('A' for Active; 'I' for Inactive)
    1  A    between atoms: C_3  and  C_16
    2  A    between atoms: C_3  and  C_19
    3  A    between atoms: C_5  and  C_11
    4  A    between atoms: C_5  and  C_19
    5  A    between atoms: O_8  and  C_12
    6  A    between atoms: O_8  and  C_16
    7  A    between atoms: C_11  and  C_20
    8  A    between atoms: C_17  and  C_28
    9  A    between atoms: C_28  and  C_29
   10  A    between atoms: C_29  and  C_32
   11  A    between atoms: O_31  and  C_32
   12  A    between atoms: C_32  and  C_34
                            x       y       z     vdW  Elec       q    Type
                         _______ _______ _______ _____ _____    ______ ____

>  <TORSDO>
F 12

$$$$
=
 OpenBabel11122414423D

 34 37  0  0  1  0  0  0  0  0999 V2000
  161.2400  209.5110  150.9660 C   0  0  2  0  0  3  0  0  0  0  0  0
  159.7560  210.9770  152.2660 N   0  0  0  0  0  2  0  0  0  0  0  0
  161.8440  207.3570  149.8700 C   0  0  0  0  0  2  0  0  0  0  0  0
  161.2400  209.5840  153.5720 C   0  0  2  0  0  3  0  0  0  0  0  0
  160.9320  208.9760  156.5120 C   0  0  0  0  0  2  0  0  0  0  0  0
  160.7680  208.1080  153.5790 C   0  0  1  0  0  3  0  0  0  0  0  0
  159.3550  211.0780  153.6670 C   0  0  0  0  0  2  0  0  0  0  0  0
  159.8740  209.7960  155.7820 C   0  0  2  0  0  3  0  0  0  0  0  0
  161.7780  208.0990  151.2100 C   0  0  2  0  0  3  0  0  0  0  0  0
  160.8390  207.4040  152.2010 C   0  0  1  0  0  3  0  0  0  0  0  0
  162.2430  209.5170  148.6730 C   0  0  0  0  0  2  0  0  0  0  0  0
  160.8960  207.5330  156.0330 C   0  0  0  0  0  2  0  0  0  0  0  0
  162.7620  208.1000  148.9040 C   0  0  0  0  0  2  0  0  0  0  0  0
  161.5500  207.3720  154.6670 C   0  0  0  0  0  2  0  0  0  0  0  0
  160.4500  210.4660  154.5260 C   0  0  1  0  0  3  0  0  0  0  0  0
  162.1450  210.2680  149.9980 C   0  0  0  0  0  2  0  0  0  0  0  0
  161.0580  210.3240  152.2490 C   0  0  1  0  0  3  0  0  0  0  0  0
  160.9310  205.8690  152.2460 C   0  0  0  0  0  2  0  0  0  0  0  0
  160.5370  205.2250  150.9240 C   0  0  0  0  0  2  0  0  0  0  0  0
  161.4430  203.3330  152.0730 O   0  0  0  0  0  1  0  0  0  0  0  0
  160.5730  203.7120  151.0450 C   0  0  2  0  0  3  0  0  0  0  0  0
  161.0030  203.0880  149.7200 C   0  0  1  0  0  3  0  0  0  0  0  0
  160.2000  201.9890  149.4110 O   0  0  0  0  0  1  0  0  0  0  0  0
  160.9290  204.1060  148.5940 C   0  0  0  0  0  2  0  0  0  0  0  0
  161.8180  203.7580  147.5760 O   0  0  0  0  0  0  0  0  0  0  0  0
  162.2210  204.9760  147.0310 C   0  0  0  0  0  2  0  0  0  0  0  0
  163.0820  204.7230  145.8110 C   0  0  0  0  0  1  0  0  0  0  0  0
  159.3240  210.8580  156.7230 C   0  0  0  0  0  2  0  0  0  0  0  0
  157.8600  211.1270  156.4180 C   0  0  0  0  0  2  0  0  0  0  0  0
  157.5480  212.6130  156.6070 C   0  0  1  0  0  3  0  0  0  0  0  0
  158.8370  214.1940  155.3100 O   0  0  0  0  0  1  0  0  0  0  0  0
  158.7820  213.5150  156.5300 C   0  0  0  0  0  2  0  0  0  0  0  0
  156.4480  213.0850  155.8530 O   0  0  0  0  0  0  0  0  0  0  0  0
  156.0150  212.0760  154.9790 C   0  0  0  0  0  1  0  0  0  0  0  0
  1 16  1  6  0  0  0
  1  9  1  0  0  0  0
  1 17  1  0  0  0  0
  2  7  1  0  0  0  0
  3  9  1  0  0  0  0
  4  6  1  0  0  0  0
  4 15  1  0  0  0  0
  6 14  1  0  0  0  0
  7 15  1  0  0  0  0
  8  5  1  0  0  0  0
  8 28  1  0  0  0  0
  9 10  1  0  0  0  0
 10 18  1  0  0  0  0
 10  6  1  0  0  0  0
 11 13  1  0  0  0  0
 11 16  1  0  0  0  0
 12  5  1  0  0  0  0
 13  3  1  0  0  0  0
 14 12  1  0  0  0  0
 15  8  1  0  0  0  0
 17  2  1  0  0  0  0
 17  4  1  0  0  0  0
 19 21  1  0  0  0  0
 19 18  1  0  0  0  0
 21 20  1  0  0  0  0
 22 21  1  0  0  0  0
 23 22  1  0  0  0  0
 24 22  1  0  0  0  0
 25 24  1  0  0  0  0
 26 25  1  0  0  0  0
 27 26  1  0  0  0  0
 29 30  1  0  0  0  0
 29 28  1  0  0  0  0
 31 32  1  0  0  0  0
 32 30  1  0  0  0  0
 33 30  1  0  0  0  0
 34 33  1  0  0  0  0
M  END
>  <MODEL>
7

>  <REMARK>
 VINA RESULT:      -5.6      2.378      8.717
  Name = 
  12 active torsions:
  status: ('A' for Active; 'I' for Inactive)
    1  A    between atoms: C_3  and  C_16
    2  A    between atoms: C_3  and  C_19
    3  A    between atoms: C_5  and  C_11
    4  A    between atoms: C_5  and  C_19
    5  A    between atoms: O_8  and  C_12
    6  A    between atoms: O_8  and  C_16
    7  A    between atoms: C_11  and  C_20
    8  A    between atoms: C_17  and  C_28
    9  A    between atoms: C_28  and  C_29
   10  A    between atoms: C_29  and  C_32
   11  A    between atoms: O_31  and  C_32
   12  A    between atoms: C_32  and  C_34
                            x       y       z     vdW  Elec       q    Type
                         _______ _______ _______ _____ _____    ______ ____

>  <TORSDO>
F 12

$$$$
=
 OpenBabel11122414423D

 34 37  0  0  1  0  0  0  0  0999 V2000
  161.0140  204.5370  149.8890 C   0  0  2  0  0  3  0  0  0  0  0  0
  160.3290  206.1920  148.2050 N   0  0  0  0  0  2  0  0  0  0  0  0
  160.8760  203.4420  152.1220 C   0  0  0  0  0  2  0  0  0  0  0  0
  161.9960  206.9490  149.7850 C   0  0  2  0  0  3  0  0  0  0  0  0
  162.7330  209.8300  150.3040 C   0  0  0  0  0  2  0  0  0  0  0  0
  161.3720  207.2270  151.1750 C   0  0  1  0  0  3  0  0  0  0  0  0
  160.4980  207.6320  148.0300 C   0  0  0  0  0  2  0  0  0  0  0  0
  161.5960  209.4880  149.3460 C   0  0  2  0  0  3  0  0  0  0  0  0
  161.4130  204.6590  151.3620 C   0  0  2  0  0  3  0  0  0  0  0  0
  160.8300  205.9700  151.8990 C   0  0  1  0  0  3  0  0  0  0  0  0
  161.0780  202.0410  150.0590 C   0  0  0  0  0  2  0  0  0  0  0  0
  162.3320  209.4950  151.7320 C   0  0  0  0  0  2  0  0  0  0  0  0
  161.4560  202.1580  151.5340 C   0  0  0  0  0  2  0  0  0  0  0  0
  162.4000  207.9980  152.0040 C   0  0  0  0  0  2  0  0  0  0  0  0
  161.7440  208.0670  148.7840 C   0  0  1  0  0  3  0  0  0  0  0  0
  161.5820  203.2560  149.2850 C   0  0  0  0  0  2  0  0  0  0  0  0
  161.4330  205.7400  149.0420 C   0  0  1  0  0  3  0  0  0  0  0  0
  160.7300  206.0800  153.4300 C   0  0  0  0  0  2  0  0  0  0  0  0
  160.4020  207.4940  153.8890 C   0  0  0  0  0  2  0  0  0  0  0  0
  159.4020  207.0130  156.0080 O   0  0  0  0  0  1  0  0  0  0  0  0
  160.5190  207.5960  155.4000 C   0  0  2  0  0  3  0  0  0  0  0  0
  160.6570  209.0570  155.8190 C   0  0  1  0  0  3  0  0  0  0  0  0
  162.0030  209.4020  155.9640 O   0  0  0  0  0  1  0  0  0  0  0  0
  160.0030  209.9760  154.8010 C   0  0  0  0  0  2  0  0  0  0  0  0
  160.8630  211.0290  154.4850 O   0  0  0  0  0  0  0  0  0  0  0  0
  160.0940  211.8880  153.7020 C   0  0  0  0  0  2  0  0  0  0  0  0
  159.1710  211.0740  152.8180 C   0  0  0  0  0  1  0  0  0  0  0  0
  161.5810  210.4930  148.2040 C   0  0  0  0  0  2  0  0  0  0  0  0
  162.3570  211.7410  148.5880 C   0  0  0  0  0  2  0  0  0  0  0  0
  161.6680  212.9840  148.0230 C   0  0  1  0  0  3  0  0  0  0  0  0
  161.1900  213.0710  145.6550 O   0  0  0  0  0  1  0  0  0  0  0  0
  160.6790  212.6790  146.8950 C   0  0  0  0  0  2  0  0  0  0  0  0
  161.1630  213.8750  148.9990 O   0  0  0  0  0  0  0  0  0  0  0  0
  159.7720  213.7150  149.1000 C   0  0  0  0  0  1  0  0  0  0  0  0
  1 16  1  6  0  0  0
  1  9  1  0  0  0  0
  2 17  1  0  0  0  0
  4  6  1  0  0  0  0
  5 12  1  0  0  0  0
  6 10  1  0  0  0  0
  6 14  1  0  0  0  0
  7  2  1  0  0  0  0
  7 15  1  0  0  0  0
  8  5  1  0  0  0  0
  9 10  1  0  0  0  0
  9  3  1  0  0  0  0
 10 18  1  0  0  0  0
 11 13  1  0  0  0  0
 12 14  1  0  0  0  0
 13  3  1  0  0  0  0
 15  8  1  0  0  0  0
 15  4  1  0  0  0  0
 16 11  1  0  0  0  0
 17  4  1  0  0  0  0
 17  1  1  0  0  0  0
 18 19  1  0  0  0  0
 19 21  1  0  0  0  0
 21 22  1  0  0  0  0
 21 20  1  0  0  0  0
 22 23  1  0  0  0  0
 24 22  1  0  0  0  0
 25 24  1  0  0  0  0
 26 25  1  0  0  0  0
 27 26  1  0  0  0  0
 28 29  1  0  0  0  0
 28  8  1  0  0  0  0
 30 29  1  0  0  0  0
 30 33  1  0  0  0  0
 31 32  1  0  0  0  0
 32 30  1  0  0  0  0
 33 34  1  0  0  0  0
M  END
>  <MODEL>
8

>  <REMARK>
 VINA RESULT:      -5.1      3.103      7.083
  Name = 
  12 active torsions:
  status: ('A' for Active; 'I' for Inactive)
    1  A    between atoms: C_3  and  C_16
    2  A    between atoms: C_3  and  C_19
    3  A    between atoms: C_5  and  C_11
    4  A    between atoms: C_5  and  C_19
    5  A    between atoms: O_8  and  C_12
    6  A    between atoms: O_8  and  C_16
    7  A    between atoms: C_11  and  C_20
    8  A    between atoms: C_17  and  C_28
    9  A    between atoms: C_28  and  C_29
   10  A    between atoms: C_29  and  C_32
   11  A    between atoms: O_31  and  C_32
   12  A    between atoms: C_32  and  C_34
                            x       y       z     vdW  Elec       q    Type
                         _______ _______ _______ _____ _____    ______ ____

>  <TORSDO>
F 12

$$$$
=
 OpenBabel11122414423D

 34 37  0  0  1  0  0  0  0  0999 V2000
  161.1520  203.7040  150.5490 C   0  0  2  0  0  3  0  0  0  0  0  0
  161.9580  204.9530  152.5070 N   0  0  0  0  0  2  0  0  0  0  0  0
  161.3860  202.7630  148.2550 C   0  0  0  0  0  2  0  0  0  0  0  0
  160.9250  206.2910  150.7770 C   0  0  2  0  0  3  0  0  0  0  0  0
  161.1860  209.2840  150.4900 C   0  0  0  0  0  2  0  0  0  0  0  0
  161.8580  206.4470  149.5500 C   0  0  1  0  0  3  0  0  0  0  0  0
  162.1910  206.3610  152.8220 C   0  0  0  0  0  2  0  0  0  0  0  0
  161.9650  208.5450  151.5730 C   0  0  2  0  0  3  0  0  0  0  0  0
  161.0970  204.0370  149.0560 C   0  0  2  0  0  3  0  0  0  0  0  0
  162.1330  205.1310  148.7810 C   0  0  1  0  0  3  0  0  0  0  0  0
  160.3870  201.3690  150.0750 C   0  0  0  0  0  2  0  0  0  0  0  0
  161.7370  208.9310  149.1170 C   0  0  0  0  0  2  0  0  0  0  0  0
  160.3520  201.6900  148.5830 C   0  0  0  0  0  2  0  0  0  0  0  0
  161.2830  207.5500  148.6620 C   0  0  0  0  0  2  0  0  0  0  0  0
  161.2980  207.2090  151.9310 C   0  0  1  0  0  3  0  0  0  0  0  0
  160.1260  202.6290  150.8950 C   0  0  0  0  0  2  0  0  0  0  0  0
  160.9520  204.9220  151.4530 C   0  0  1  0  0  3  0  0  0  0  0  0
  162.5540  205.3000  147.3110 C   0  0  0  0  0  2  0  0  0  0  0  0
  161.3680  205.2410  146.3580 C   0  0  0  0  0  2  0  0  0  0  0  0
  163.1900  204.6790  144.9140 O   0  0  0  0  0  1  0  0  0  0  0  0
  161.7960  204.6560  145.0230 C   0  0  2  0  0  3  0  0  0  0  0  0
  161.1550  205.4360  143.8780 C   0  0  1  0  0  3  0  0  0  0  0  0
  160.5160  206.5810  144.3600 O   0  0  0  0  0  1  0  0  0  0  0  0
  162.1950  205.8310  142.8430 C   0  0  0  0  0  2  0  0  0  0  0  0
  161.5690  206.1960  141.6510 O   0  0  0  0  0  0  0  0  0  0  0  0
  162.5580  206.8540  140.9230 C   0  0  0  0  0  2  0  0  0  0  0  0
  161.9610  207.4110  139.6470 C   0  0  0  0  0  1  0  0  0  0  0  0
  162.0550  209.4210  152.8130 C   0  0  0  0  0  2  0  0  0  0  0  0
  160.6730  209.6590  153.3950 C   0  0  0  0  0  2  0  0  0  0  0  0
  160.7120  209.5280  154.9190 C   0  0  1  0  0  3  0  0  0  0  0  0
  159.5940  211.3340  156.0730 O   0  0  0  0  0  1  0  0  0  0  0  0
  159.4400  210.0240  155.6100 C   0  0  0  0  0  2  0  0  0  0  0  0
  161.1660  208.2750  155.3920 O   0  0  0  0  0  0  0  0  0  0  0  0
  160.1140  207.6130  156.0440 C   0  0  0  0  0  1  0  0  0  0  0  0
  1 16  1  1  0  0  0
  1 17  1  0  0  0  0
  2  7  1  0  0  0  0
  3 13  1  0  0  0  0
  3  9  1  0  0  0  0
  4 17  1  0  0  0  0
  4 15  1  0  0  0  0
  5  8  1  0  0  0  0
  6  4  1  0  0  0  0
  8 15  1  0  0  0  0
  8 28  1  0  0  0  0
  9  1  1  0  0  0  0
 10  9  1  0  0  0  0
 10  6  1  0  0  0  0
 11 16  1  0  0  0  0
 12  5  1  0  0  0  0
 13 11  1  0  0  0  0
 14 12  1  0  0  0  0
 14  6  1  0  0  0  0
 15  7  1  0  0  0  0
 17  2  1  0  0  0  0
 18 10  1  0  0  0  0
 19 18  1  0  0  0  0
 20 21  1  0  0  0  0
 21 19  1  0  0  0  0
 22 23  1  0  0  0  0
 22 21  1  0  0  0  0
 24 22  1  0  0  0  0
 25 24  1  0  0  0  0
 26 25  1  0  0  0  0
 27 26  1  0  0  0  0
 28 29  1  0  0  0  0
 29 30  1  0  0  0  0
 30 33  1  0  0  0  0
 30 32  1  0  0  0  0
 32 31  1  0  0  0  0
 33 34  1  0  0  0  0
M  END
>  <MODEL>
9

>  <REMARK>
 VINA RESULT:      -5.1      3.046      8.593
  Name = 
  12 active torsions:
  status: ('A' for Active; 'I' for Inactive)
    1  A    between atoms: C_3  and  C_16
    2  A    between atoms: C_3  and  C_19
    3  A    between atoms: C_5  and  C_11
    4  A    between atoms: C_5  and  C_19
    5  A    between atoms: O_8  and  C_12
    6  A    between atoms: O_8  and  C_16
    7  A    between atoms: C_11  and  C_20
    8  A    between atoms: C_17  and  C_28
    9  A    between atoms: C_28  and  C_29
   10  A    between atoms: C_29  and  C_32
   11  A    between atoms: O_31  and  C_32
   12  A    between atoms: C_32  and  C_34
                            x       y       z     vdW  Elec       q    Type
                         _______ _______ _______ _____ _____    ______ ____

>  <TORSDO>
F 12

$$$$
