=
 OpenBabel11122413363D

 37 43  0  0  1  0  0  0  0  0999 V2000
  161.6790  212.6970  142.5640 C   0  0  0  0  0  2  0  0  0  0  0  0
  161.7330  208.5200  138.7180 C   0  0  0  0  0  0  0  0  0  0  0  0
  160.9450  212.3630  139.4360 C   0  0  1  0  0  3  0  0  0  0  0  0
  162.5410  212.9720  143.8020 C   0  0  2  0  0  3  0  0  0  0  0  0
  158.2980  212.8880  142.2450 C   0  0  0  0  0  2  0  0  0  0  0  0
  162.7350  210.8000  138.3660 C   0  0  2  0  0  3  0  0  0  0  0  0
  159.8330  211.9520  140.3890 C   0  0  2  0  0  3  0  0  0  0  0  0
  160.4440  213.0620  145.3490 C   0  0  2  0  0  3  0  0  0  0  0  0
  162.0250  211.3090  139.6400 C   0  0  2  0  0  3  0  0  0  0  0  0
  159.1190  213.1790  140.9950 C   0  0  1  0  0  3  0  0  0  0  0  0
  162.9190  211.9430  137.3650 C   0  0  0  0  0  2  0  0  0  0  0  0
  161.8980  212.6000  145.1480 C   0  0  0  0  0  2  0  0  0  0  0  0
  161.4190  210.2440  140.5570 C   0  0  2  0  0  3  0  0  0  0  0  0
  162.9090  208.0590  139.2850 F   0  0  0  0  0  0  0  0  0  0  0  0
  159.2960  213.3620  137.6960 C   0  0  0  0  0  2  0  0  0  0  0  0
  161.6130  212.6780  137.0110 C   0  0  0  0  0  2  0  0  0  0  0  0
  160.8040  209.0640  139.7940 C   0  0  0  0  0  2  0  0  0  0  0  0
  159.4130  212.4780  144.3560 C   0  0  1  0  0  3  0  0  0  0  0  0
  158.9800  213.4910  143.3830 N   0  0  0  0  0  2  0  0  0  0  0  0
  160.4590  212.4030  137.9800 C   0  0  1  0  0  3  0  0  0  0  0  0
  160.3590  210.9120  141.3080 N   0  0  1  0  0  0  0  0  0  0  0  0
  162.0240  209.6180  137.7060 C   0  0  0  0  0  2  0  0  0  0  0  0
  158.2800  213.9560  139.9630 C   0  0  1  0  0  3  0  0  0  0  0  0
  161.1050  207.4720  138.0720 F   0  0  0  0  0  0  0  0  0  0  0  0
  159.9110  211.1610  143.7210 C   0  0  0  0  0  2  0  0  0  0  0  0
  160.3640  214.4530  145.4440 O   0  0  0  0  0  1  0  0  0  0  0  0
  160.9400  211.3420  142.5950 C   0  0  2  0  0  3  0  0  0  0  0  0
  159.0760  214.4530  138.7470 C   0  0  0  0  0  2  0  0  0  0  0  0
  155.8670  214.1690  139.3260 C   0  0  0  0  0  3  0  0  0  0  0  0
  156.9560  213.3350  139.6050 C   0  0  0  0  0  0  0  0  0  0  0  0
  156.7970  211.9430  139.5250 C   0  0  0  0  0  3  0  0  0  0  0  0
  155.4000  209.9180  139.1000 C   0  0  0  0  0  1  0  0  0  0  0  0
  154.4760  212.2310  138.9060 C   0  0  0  0  0  3  0  0  0  0  0  0
  155.5600  211.3930  139.1790 C   0  0  0  0  0  0  0  0  0  0  0  0
  154.6300  213.6190  138.9800 C   0  0  0  0  0  3  0  0  0  0  0  0
  164.2060  214.4470  143.0820 C   0  0  0  0  0  1  0  0  0  0  0  0
  162.9550  214.3650  143.8150 N   0  0  0  0  0  2  0  0  0  0  0  0
  1 27  1  0  0  0  0
  1  4  1  0  0  0  0
  2 14  1  0  0  0  0
  2 17  1  0  0  0  0
  3  9  1  0  0  0  0
  3  7  1  0  0  0  0
  4 37  1  0  0  0  0
  4 12  1  0  0  0  0
  5 19  1  0  0  0  0
  6  9  1  0  0  0  0
  7 10  1  0  0  0  0
  7 21  1  0  0  0  0
  8 26  1  0  0  0  0
  9 13  1  0  0  0  0
 10  5  1  0  0  0  0
 11  6  1  0  0  0  0
 12  8  1  0  0  0  0
 13 21  1  0  0  0  0
 15 20  1  0  0  0  0
 15 28  1  0  0  0  0
 16 11  1  0  0  0  0
 16 20  1  0  0  0  0
 17 13  1  0  0  0  0
 18  8  1  0  0  0  0
 19 18  1  0  0  0  0
 20  3  1  0  0  0  0
 21 27  1  0  0  0  0
 22  6  1  0  0  0  0
 22  2  1  0  0  0  0
 23 10  1  0  0  0  0
 24  2  1  0  0  0  0
 25 18  1  0  0  0  0
 27 25  1  0  0  0  0
 28 23  1  0  0  0  0
 29 30  1  0  0  0  0
 30 23  1  0  0  0  0
 31 30  2  0  0  0  0
 32 34  1  0  0  0  0
 33 35  1  0  0  0  0
 33 34  2  0  0  0  0
 34 31  1  0  0  0  0
 35 29  2  0  0  0  0
 36 37  1  0  0  0  0
M  END
>  <MODEL>
1

>  <REMARK>
 VINA RESULT:      -2.4      0.000      0.000
  Name = 
  2 active torsions:
  status: ('A' for Active; 'I' for Inactive)
    1  A    between atoms: C_4  and  N_37
    2  A    between atoms: C_23  and  C_30
                            x       y       z     vdW  Elec       q    Type
                         _______ _______ _______ _____ _____    ______ ____

>  <TORSDO>
F 2

$$$$
