=
 OpenBabel11122412383D

 30 35  0  0  1  0  0  0  0  0999 V2000
  161.5070  208.4970  151.5780 C   0  0  0  0  0  0  0  0  0  0  0  0
  160.6060  208.9350  153.9530 C   0  0  0  0  0  0  0  0  0  0  0  0
  161.1180  204.4260  152.3820 N   0  0  0  0  0  2  0  0  0  0  0  0
  161.7300  207.5560  150.5490 C   0  0  0  0  0  0  0  0  0  0  0  0
  161.6280  209.8570  151.2700 C   0  0  0  0  0  3  0  0  0  0  0  0
  162.2260  209.8180  147.6390 O   0  0  0  0  0  1  0  0  0  0  0  0
  162.5460  205.6950  148.1220 C   0  0  1  0  0  3  0  0  0  0  0  0
  162.0220  209.3700  148.9430 C   0  0  0  0  0  0  0  0  0  0  0  0
  161.7950  204.6310  148.9270 C   0  0  2  0  0  3  0  0  0  0  0  0
  160.6310  204.1520  151.0820 C   0  0  0  0  0  0  0  0  0  0  0  0
  161.9070  210.3010  149.9770 C   0  0  0  0  0  0  0  0  0  0  0  0
  161.9210  207.9930  149.2080 C   0  0  0  0  0  0  0  0  0  0  0  0
  160.2900  208.4590  155.2280 C   0  0  0  0  0  3  0  0  0  0  0  0
  160.9690  203.8830  147.9930 N   0  0  0  0  0  2  0  0  0  0  0  0
  162.6800  205.0680  146.7540 C   0  0  0  0  0  2  0  0  0  0  0  0
  160.3210  210.3780  153.7120 C   0  0  0  0  0  1  0  0  0  0  0  0
  161.8680  205.6720  152.3580 C   0  0  0  0  0  0  0  0  0  0  0  0
  160.4770  207.1230  155.5550 C   0  0  0  0  0  3  0  0  0  0  0  0
  161.1360  208.0500  152.9640 C   0  0  0  0  0  0  0  0  0  0  0  0
  161.8870  206.1030  150.8860 C   0  0  0  0  0  0  0  0  0  0  0  0
  159.9320  203.1370  150.8260 O   0  0  0  0  0  0  0  0  0  0  0  0
  160.9730  205.1910  150.0860 C   0  0  1  0  0  3  0  0  0  0  0  0
  161.7150  203.8920  146.7390 C   0  0  0  0  0  2  0  0  0  0  0  0
  160.3990  206.9750  147.4910 C   0  0  0  0  0  1  0  0  0  0  0  0
  160.9700  206.2420  154.6010 C   0  0  0  0  0  3  0  0  0  0  0  0
  161.2760  206.6800  153.3060 C   0  0  0  0  0  0  0  0  0  0  0  0
  161.8330  207.0640  148.0070 C   0  0  2  0  0  3  0  0  0  0  0  0
  162.0290  211.6970  149.6920 N   0  0  0  0  0  2  0  0  0  0  0  0
  161.0820  213.1830  148.0270 C   0  0  0  0  0  1  0  0  0  0  0  0
  160.8880  212.5460  149.3860 C   0  0  0  0  0  2  0  0  0  0  0  0
  1 19  1  0  0  0  0
  2 13  1  0  0  0  0
  4 20  1  0  0  0  0
  4  1  2  0  0  0  0
  5  1  1  0  0  0  0
  6  8  1  0  0  0  0
  7 15  1  6  0  0  0
  7  9  1  0  0  0  0
  8 12  2  0  0  0  0
  8 11  1  0  0  0  0
  9 14  1  6  0  0  0
  9 22  1  0  0  0  0
 10  3  1  0  0  0  0
 11  5  2  0  0  0  0
 12  4  1  0  0  0  0
 13 18  2  0  0  0  0
 16  2  1  0  0  0  0
 17  3  1  0  0  0  0
 17 26  1  0  0  0  0
 19 26  1  0  0  0  0
 19  2  2  0  0  0  0
 20 17  2  0  0  0  0
 21 10  2  0  0  0  0
 22 20  1  1  0  0  0
 22 10  1  0  0  0  0
 23 15  1  0  0  0  0
 23 14  1  0  0  0  0
 25 18  1  0  0  0  0
 26 25  2  0  0  0  0
 27 24  1  1  0  0  0
 27  7  1  0  0  0  0
 27 12  1  0  0  0  0
 28 11  1  0  0  0  0
 29 30  1  0  0  0  0
 30 28  1  0  0  0  0
M  END
>  <MODEL>
1

>  <REMARK>
 VINA RESULT:      -7.6      0.000      0.000
  Name = 
  2 active torsions:
  status: ('A' for Active; 'I' for Inactive)
    1  A    between atoms: C_11  and  N_28
    2  A    between atoms: N_28  and  C_30
                            x       y       z     vdW  Elec       q    Type
                         _______ _______ _______ _____ _____    ______ ____

>  <TORSDO>
F 2

$$$$
=
 OpenBabel11122412383D

 30 35  0  0  1  0  0  0  0  0999 V2000
  161.2340  207.1760  151.1500 C   0  0  0  0  0  0  0  0  0  0  0  0
  162.1040  209.5710  150.7670 C   0  0  0  0  0  0  0  0  0  0  0  0
  161.5520  206.6020  147.0340 N   0  0  0  0  0  2  0  0  0  0  0  0
  161.0140  205.8920  150.6030 C   0  0  0  0  0  0  0  0  0  0  0  0
  161.1380  207.3300  152.5380 C   0  0  0  0  0  3  0  0  0  0  0  0
  160.5960  203.8810  153.7030 O   0  0  0  0  0  1  0  0  0  0  0  0
  160.2090  202.9810  149.6570 C   0  0  1  0  0  3  0  0  0  0  0  0
  160.7740  204.9670  152.8490 C   0  0  0  0  0  0  0  0  0  0  0  0
  160.9310  203.3990  148.3740 C   0  0  2  0  0  3  0  0  0  0  0  0
  162.0540  205.2890  147.1920 C   0  0  0  0  0  0  0  0  0  0  0  0
  160.8860  206.2510  153.3860 C   0  0  0  0  0  0  0  0  0  0  0  0
  160.8500  204.7660  151.4590 C   0  0  0  0  0  0  0  0  0  0  0  0
  162.3940  210.6220  149.8940 C   0  0  0  0  0  3  0  0  0  0  0  0
  161.7610  202.2800  147.9580 N   0  0  0  0  0  2  0  0  0  0  0  0
  160.0870  201.4820  149.5160 C   0  0  0  0  0  2  0  0  0  0  0  0
  162.4140  209.8200  152.2050 C   0  0  0  0  0  1  0  0  0  0  0  0
  160.8200  206.9810  148.2330 C   0  0  0  0  0  0  0  0  0  0  0  0
  162.1830  210.4910  148.5280 C   0  0  0  0  0  3  0  0  0  0  0  0
  161.5770  208.3410  150.2670 C   0  0  0  0  0  0  0  0  0  0  0  0
  160.8310  205.7320  149.1240 C   0  0  0  0  0  0  0  0  0  0  0  0
  162.7430  204.7210  146.3050 O   0  0  0  0  0  0  0  0  0  0  0  0
  161.7440  204.6860  148.5070 C   0  0  1  0  0  3  0  0  0  0  0  0
  161.0350  201.0910  148.3920 C   0  0  0  0  0  2  0  0  0  0  0  0
  162.3840  202.8260  151.0330 C   0  0  0  0  0  1  0  0  0  0  0  0
  161.6910  209.2950  148.0180 C   0  0  0  0  0  3  0  0  0  0  0  0
  161.4130  208.2130  148.8630 C   0  0  0  0  0  0  0  0  0  0  0  0
  160.9430  203.3290  150.9740 C   0  0  2  0  0  3  0  0  0  0  0  0
  160.7890  206.4390  154.8010 N   0  0  0  0  0  2  0  0  0  0  0  0
  160.1910  207.5430  156.8750 C   0  0  0  0  0  1  0  0  0  0  0  0
  160.5310  207.7340  155.4130 C   0  0  0  0  0  2  0  0  0  0  0  0
  1  5  2  0  0  0  0
  2 16  1  0  0  0  0
  3 10  1  0  0  0  0
  3 17  1  0  0  0  0
  4  1  1  0  0  0  0
  4 12  2  0  0  0  0
  5 11  1  0  0  0  0
  7 15  1  6  0  0  0
  7 27  1  0  0  0  0
  8 11  2  0  0  0  0
  8  6  1  0  0  0  0
  9 14  1  1  0  0  0
  9 22  1  0  0  0  0
  9  7  1  0  0  0  0
 11 28  1  0  0  0  0
 12  8  1  0  0  0  0
 13  2  2  0  0  0  0
 14 23  1  0  0  0  0
 17 26  1  0  0  0  0
 17 20  2  0  0  0  0
 18 13  1  0  0  0  0
 19  2  1  0  0  0  0
 19  1  1  0  0  0  0
 20  4  1  0  0  0  0
 21 10  2  0  0  0  0
 22 10  1  6  0  0  0
 22 20  1  0  0  0  0
 23 15  1  0  0  0  0
 25 18  2  0  0  0  0
 25 26  1  0  0  0  0
 26 19  2  0  0  0  0
 27 24  1  6  0  0  0
 27 12  1  0  0  0  0
 28 30  1  0  0  0  0
 30 29  1  0  0  0  0
M  END
>  <MODEL>
2

>  <REMARK>
 VINA RESULT:      -7.5      2.065      5.249
  Name = 
  2 active torsions:
  status: ('A' for Active; 'I' for Inactive)
    1  A    between atoms: C_11  and  N_28
    2  A    between atoms: N_28  and  C_30
                            x       y       z     vdW  Elec       q    Type
                         _______ _______ _______ _____ _____    ______ ____

>  <TORSDO>
F 2

$$$$
=
 OpenBabel11122412383D

 30 35  0  0  1  0  0  0  0  0999 V2000
  161.0520  210.6860  151.8570 C   0  0  0  0  0  0  0  0  0  0  0  0
  159.8510  212.7160  152.8980 C   0  0  0  0  0  0  0  0  0  0  0  0
  160.3950  208.6890  155.4570 N   0  0  0  0  0  2  0  0  0  0  0  0
  161.3770  209.3160  151.9670 C   0  0  0  0  0  0  0  0  0  0  0  0
  161.2680  211.3220  150.6300 C   0  0  0  0  0  3  0  0  0  0  0  0
  162.3570  208.5550  148.4620 O   0  0  0  0  0  1  0  0  0  0  0  0
  162.4440  206.3370  151.9830 C   0  0  1  0  0  3  0  0  0  0  0  0
  161.9580  209.2560  149.5980 C   0  0  0  0  0  0  0  0  0  0  0  0
  161.5490  206.2190  153.2200 C   0  0  2  0  0  3  0  0  0  0  0  0
  160.0820  207.4760  154.7990 C   0  0  0  0  0  0  0  0  0  0  0  0
  161.7390  210.6320  149.5120 C   0  0  0  0  0  0  0  0  0  0  0  0
  161.7670  208.5780  150.8140 C   0  0  0  0  0  0  0  0  0  0  0  0
  159.3440  213.3680  154.0240 C   0  0  0  0  0  3  0  0  0  0  0  0
  160.8300  204.9590  153.1160 N   0  0  0  0  0  2  0  0  0  0  0  0
  162.7410  204.8980  151.6290 C   0  0  0  0  0  2  0  0  0  0  0  0
  159.6590  213.4230  151.5990 C   0  0  0  0  0  1  0  0  0  0  0  0
  161.1900  209.5220  154.5680 C   0  0  0  0  0  0  0  0  0  0  0  0
  159.4310  212.7860  155.2820 C   0  0  0  0  0  3  0  0  0  0  0  0
  160.4770  211.4370  153.0240 C   0  0  0  0  0  0  0  0  0  0  0  0
  161.4280  208.6660  153.3170 C   0  0  0  0  0  0  0  0  0  0  0  0
  159.3850  206.5790  155.3400 O   0  0  0  0  0  0  0  0  0  0  0  0
  160.5970  207.3980  153.4150 C   0  0  1  0  0  3  0  0  0  0  0  0
  161.7410  204.0610  152.4140 C   0  0  0  0  0  2  0  0  0  0  0  0
  160.4570  206.4880  150.3480 C   0  0  0  0  0  1  0  0  0  0  0  0
  160.0150  211.5340  155.4240 C   0  0  0  0  0  3  0  0  0  0  0  0
  160.5130  210.8420  154.3120 C   0  0  0  0  0  0  0  0  0  0  0  0
  161.8090  207.0590  150.7710 C   0  0  2  0  0  3  0  0  0  0  0  0
  161.9540  211.3100  148.2700 N   0  0  0  0  0  2  0  0  0  0  0  0
  162.5800  213.6310  147.9620 C   0  0  0  0  0  1  0  0  0  0  0  0
  163.0780  212.2040  148.0400 C   0  0  0  0  0  2  0  0  0  0  0  0
  1  4  1  0  0  0  0
  1 19  1  0  0  0  0
  2 19  2  0  0  0  0
  2 13  1  0  0  0  0
  4 20  1  0  0  0  0
  5  1  2  0  0  0  0
  6  8  1  0  0  0  0
  7 15  1  6  0  0  0
  7  9  1  0  0  0  0
  8 12  1  0  0  0  0
  9 14  1  6  0  0  0
  9 22  1  0  0  0  0
 10 21  2  0  0  0  0
 10  3  1  0  0  0  0
 11  8  2  0  0  0  0
 11  5  1  0  0  0  0
 12  4  2  0  0  0  0
 13 18  2  0  0  0  0
 15 23  1  0  0  0  0
 16  2  1  0  0  0  0
 17  3  1  0  0  0  0
 18 25  1  0  0  0  0
 19 26  1  0  0  0  0
 20 17  2  0  0  0  0
 22 20  1  1  0  0  0
 22 10  1  0  0  0  0
 23 14  1  0  0  0  0
 26 17  1  0  0  0  0
 26 25  2  0  0  0  0
 27 24  1  1  0  0  0
 27 12  1  0  0  0  0
 27  7  1  0  0  0  0
 28 11  1  0  0  0  0
 29 30  1  0  0  0  0
 30 28  1  0  0  0  0
M  END
>  <MODEL>
3

>  <REMARK>
 VINA RESULT:      -5.8      2.329      3.878
  Name = 
  2 active torsions:
  status: ('A' for Active; 'I' for Inactive)
    1  A    between atoms: C_11  and  N_28
    2  A    between atoms: N_28  and  C_30
                            x       y       z     vdW  Elec       q    Type
                         _______ _______ _______ _____ _____    ______ ____

>  <TORSDO>
F 2

$$$$
=
 OpenBabel11122412383D

 30 35  0  0  1  0  0  0  0  0999 V2000
  160.7320  211.0060  152.3730 C   0  0  0  0  0  0  0  0  0  0  0  0
  161.9350  210.3050  150.2050 C   0  0  0  0  0  0  0  0  0  0  0  0
  158.9970  214.1020  150.1870 N   0  0  0  0  0  2  0  0  0  0  0  0
  159.7390  211.8150  152.9700 C   0  0  0  0  0  0  0  0  0  0  0  0
  161.2810  209.9640  153.1290 C   0  0  0  0  0  3  0  0  0  0  0  0
  159.2950  210.0720  156.2250 O   0  0  0  0  0  1  0  0  0  0  0  0
  157.7460  213.6040  154.6570 C   0  0  1  0  0  3  0  0  0  0  0  0
  159.7840  210.4100  154.9650 C   0  0  0  0  0  0  0  0  0  0  0  0
  157.2910  214.0740  153.2730 C   0  0  2  0  0  3  0  0  0  0  0  0
  157.7450  213.9340  150.8230 C   0  0  0  0  0  0  0  0  0  0  0  0
  160.8390  209.6750  154.4200 C   0  0  0  0  0  0  0  0  0  0  0  0
  159.2110  211.4740  154.2480 C   0  0  0  0  0  0  0  0  0  0  0  0
  162.3270  210.5960  148.8960 C   0  0  0  0  0  3  0  0  0  0  0  0
  155.8370  214.1120  153.2850 N   0  0  0  0  0  2  0  0  0  0  0  0
  156.6410  214.0810  155.5690 C   0  0  0  0  0  2  0  0  0  0  0  0
  162.3300  208.9590  150.7130 C   0  0  0  0  0  1  0  0  0  0  0  0
  160.0410  213.5460  151.0330 C   0  0  0  0  0  0  0  0  0  0  0  0
  161.9830  211.8040  148.3030 C   0  0  0  0  0  3  0  0  0  0  0  0
  161.1770  211.2520  150.9590 C   0  0  0  0  0  0  0  0  0  0  0  0
  159.3260  213.0980  152.3140 C   0  0  0  0  0  0  0  0  0  0  0  0
  156.6660  214.3130  150.2960 O   0  0  0  0  0  0  0  0  0  0  0  0
  157.8250  213.2270  152.1200 C   0  0  1  0  0  3  0  0  0  0  0  0
  155.4800  214.4510  154.6580 C   0  0  0  0  0  2  0  0  0  0  0  0
  156.7150  211.2570  154.3860 C   0  0  0  0  0  1  0  0  0  0  0  0
  161.2270  212.7290  149.0120 C   0  0  0  0  0  3  0  0  0  0  0  0
  160.7970  212.4590  150.3170 C   0  0  0  0  0  0  0  0  0  0  0  0
  157.9330  212.0750  154.8090 C   0  0  2  0  0  3  0  0  0  0  0  0
  161.4220  208.6050  155.1710 N   0  0  0  0  0  2  0  0  0  0  0  0
  161.1920  206.5760  153.8640 C   0  0  0  0  0  1  0  0  0  0  0  0
  160.8780  207.2560  155.1800 C   0  0  0  0  0  2  0  0  0  0  0  0
  1  4  1  0  0  0  0
  1  5  2  0  0  0  0
  2 16  1  0  0  0  0
  2 19  1  0  0  0  0
  3 10  1  0  0  0  0
  3 17  1  0  0  0  0
  4 12  2  0  0  0  0
  5 11  1  0  0  0  0
  7 27  1  0  0  0  0
  7 15  1  1  0  0  0
  8  6  1  0  0  0  0
  9 14  1  1  0  0  0
  9  7  1  0  0  0  0
 11  8  2  0  0  0  0
 11 28  1  0  0  0  0
 12 27  1  0  0  0  0
 12  8  1  0  0  0  0
 13  2  2  0  0  0  0
 14 23  1  0  0  0  0
 17 20  2  0  0  0  0
 18 13  1  0  0  0  0
 18 25  2  0  0  0  0
 19  1  1  0  0  0  0
 20  4  1  0  0  0  0
 21 10  2  0  0  0  0
 22 10  1  6  0  0  0
 22 20  1  0  0  0  0
 22  9  1  0  0  0  0
 23 15  1  0  0  0  0
 25 26  1  0  0  0  0
 26 19  2  0  0  0  0
 26 17  1  0  0  0  0
 27 24  1  6  0  0  0
 28 30  1  0  0  0  0
 29 30  1  0  0  0  0
M  END
>  <MODEL>
4

>  <REMARK>
 VINA RESULT:      -5.7      3.891      8.629
  Name = 
  2 active torsions:
  status: ('A' for Active; 'I' for Inactive)
    1  A    between atoms: C_11  and  N_28
    2  A    between atoms: N_28  and  C_30
                            x       y       z     vdW  Elec       q    Type
                         _______ _______ _______ _____ _____    ______ ____

>  <TORSDO>
F 2

$$$$
=
 OpenBabel11122412383D

 30 35  0  0  1  0  0  0  0  0999 V2000
  161.7060  207.4850  151.0570 C   0  0  0  0  0  0  0  0  0  0  0  0
  161.6550  208.2640  148.6010 C   0  0  0  0  0  0  0  0  0  0  0  0
  161.3720  211.4970  152.1410 N   0  0  0  0  0  2  0  0  0  0  0  0
  161.5280  207.8320  152.4150 C   0  0  0  0  0  0  0  0  0  0  0  0
  161.7960  206.1290  150.7250 C   0  0  0  0  0  3  0  0  0  0  0  0
  161.1740  204.4610  153.9460 O   0  0  0  0  0  1  0  0  0  0  0  0
  161.4020  208.2990  155.5430 C   0  0  1  0  0  3  0  0  0  0  0  0
  161.3810  205.4680  153.0060 C   0  0  0  0  0  0  0  0  0  0  0  0
  160.8960  209.6840  155.1280 C   0  0  2  0  0  3  0  0  0  0  0  0
  160.4730  211.2020  153.1930 C   0  0  0  0  0  0  0  0  0  0  0  0
  161.6620  205.1230  151.6830 C   0  0  0  0  0  0  0  0  0  0  0  0
  161.2950  206.8190  153.3880 C   0  0  0  0  0  0  0  0  0  0  0  0
  161.7450  209.2940  147.6620 C   0  0  0  0  0  3  0  0  0  0  0  0
  159.7700  210.0100  155.9880 N   0  0  0  0  0  2  0  0  0  0  0  0
  161.0470  208.2230  157.0100 C   0  0  0  0  0  2  0  0  0  0  0  0
  161.3880  206.9050  148.0470 C   0  0  0  0  0  1  0  0  0  0  0  0
  162.1420  210.3040  151.8230 C   0  0  0  0  0  0  0  0  0  0  0  0
  161.9530  210.6070  148.0640 C   0  0  0  0  0  3  0  0  0  0  0  0
  161.7830  208.5460  149.9960 C   0  0  0  0  0  0  0  0  0  0  0  0
  161.7030  209.2550  152.8530 C   0  0  0  0  0  0  0  0  0  0  0  0
  159.6730  212.0580  153.6530 O   0  0  0  0  0  0  0  0  0  0  0  0
  160.5290  209.7960  153.6490 C   0  0  1  0  0  3  0  0  0  0  0  0
  160.0650  209.3580  157.2600 C   0  0  0  0  0  2  0  0  0  0  0  0
  159.2420  207.1020  154.8030 C   0  0  0  0  0  1  0  0  0  0  0  0
  162.0580  210.9050  149.4160 C   0  0  0  0  0  3  0  0  0  0  0  0
  161.9480  209.9000  150.3860 C   0  0  0  0  0  0  0  0  0  0  0  0
  160.7690  207.1080  154.7840 C   0  0  2  0  0  3  0  0  0  0  0  0
  161.7630  203.7440  151.3150 N   0  0  0  0  0  2  0  0  0  0  0  0
  160.7460  203.1470  149.1960 C   0  0  0  0  0  1  0  0  0  0  0  0
  160.6690  203.0050  150.7020 C   0  0  0  0  0  2  0  0  0  0  0  0
  1  4  1  0  0  0  0
  2 19  1  0  0  0  0
  3 10  1  0  0  0  0
  4 20  1  0  0  0  0
  4 12  2  0  0  0  0
  5  1  2  0  0  0  0
  5 11  1  0  0  0  0
  7 15  1  1  0  0  0
  8 12  1  0  0  0  0
  8  6  1  0  0  0  0
  9  7  1  0  0  0  0
  9 14  1  1  0  0  0
 10 22  1  0  0  0  0
 10 21  2  0  0  0  0
 11  8  2  0  0  0  0
 12 27  1  0  0  0  0
 13 18  1  0  0  0  0
 13  2  2  0  0  0  0
 14 23  1  0  0  0  0
 15 23  1  0  0  0  0
 16  2  1  0  0  0  0
 17  3  1  0  0  0  0
 17 20  2  0  0  0  0
 18 25  2  0  0  0  0
 19 26  2  0  0  0  0
 19  1  1  0  0  0  0
 22 20  1  6  0  0  0
 22  9  1  0  0  0  0
 25 26  1  0  0  0  0
 26 17  1  0  0  0  0
 27 24  1  6  0  0  0
 27  7  1  0  0  0  0
 28 11  1  0  0  0  0
 29 30  1  0  0  0  0
 30 28  1  0  0  0  0
M  END
>  <MODEL>
5

>  <REMARK>
 VINA RESULT:      -5.0      2.219      7.237
  Name = 
  2 active torsions:
  status: ('A' for Active; 'I' for Inactive)
    1  A    between atoms: C_11  and  N_28
    2  A    between atoms: N_28  and  C_30
                            x       y       z     vdW  Elec       q    Type
                         _______ _______ _______ _____ _____    ______ ____

>  <TORSDO>
F 2

$$$$
=
 OpenBabel11122412383D

 30 35  0  0  1  0  0  0  0  0999 V2000
  161.0020  205.1470  149.1710 C   0  0  0  0  0  0  0  0  0  0  0  0
  161.3480  202.6010  148.9670 C   0  0  0  0  0  0  0  0  0  0  0  0
  160.8260  204.6030  153.3010 N   0  0  0  0  0  2  0  0  0  0  0  0
  160.9460  206.2720  150.0240 C   0  0  0  0  0  0  0  0  0  0  0  0
  161.0780  205.3650  147.7910 C   0  0  0  0  0  3  0  0  0  0  0  0
  161.3570  209.0270  147.5610 O   0  0  0  0  0  1  0  0  0  0  0  0
  160.5680  208.9620  151.6480 C   0  0  1  0  0  3  0  0  0  0  0  0
  161.2060  207.7520  148.1020 C   0  0  0  0  0  0  0  0  0  0  0  0
  161.0090  208.0930  152.8290 C   0  0  2  0  0  3  0  0  0  0  0  0
  161.5810  205.7730  153.5500 C   0  0  0  0  0  0  0  0  0  0  0  0
  161.1540  206.6480  147.2480 C   0  0  0  0  0  0  0  0  0  0  0  0
  161.1190  207.5820  149.4940 C   0  0  0  0  0  0  0  0  0  0  0  0
  161.3100  201.3310  149.5450 C   0  0  0  0  0  3  0  0  0  0  0  0
  161.9630  208.8690  153.6050 N   0  0  0  0  0  2  0  0  0  0  0  0
  160.7070  210.3700  152.1790 C   0  0  0  0  0  2  0  0  0  0  0  0
  161.8090  202.6540  147.5500 C   0  0  0  0  0  1  0  0  0  0  0  0
  160.2170  204.7000  151.9830 C   0  0  0  0  0  0  0  0  0  0  0  0
  160.9330  201.1630  150.8710 C   0  0  0  0  0  3  0  0  0  0  0  0
  160.9920  203.7540  149.7330 C   0  0  0  0  0  0  0  0  0  0  0  0
  160.5860  206.0970  151.4690 C   0  0  0  0  0  0  0  0  0  0  0  0
  162.2290  205.9420  154.6160 O   0  0  0  0  0  0  0  0  0  0  0  0
  161.5790  206.7350  152.4260 C   0  0  1  0  0  3  0  0  0  0  0  0
  161.5400  210.2560  153.4470 C   0  0  0  0  0  2  0  0  0  0  0  0
  162.9080  208.9770  150.5660 C   0  0  0  0  0  1  0  0  0  0  0  0
  160.6040  202.2730  151.6390 C   0  0  0  0  0  3  0  0  0  0  0  0
  160.6550  203.5640  151.0990 C   0  0  0  0  0  0  0  0  0  0  0  0
  161.4060  208.8000  150.3580 C   0  0  2  0  0  3  0  0  0  0  0  0
  161.2280  206.8410  145.8320 N   0  0  0  0  0  2  0  0  0  0  0  0
  161.3170  205.0800  144.1680 C   0  0  0  0  0  1  0  0  0  0  0  0
  160.4310  206.0760  144.8860 C   0  0  0  0  0  2  0  0  0  0  0  0
  1 19  2  0  0  0  0
  1  4  1  0  0  0  0
  2 13  2  0  0  0  0
  2 19  1  0  0  0  0
  3 10  1  0  0  0  0
  4 20  2  0  0  0  0
  5  1  1  0  0  0  0
  6  8  1  0  0  0  0
  7 15  1  1  0  0  0
  7  9  1  0  0  0  0
  8 12  2  0  0  0  0
  9 14  1  6  0  0  0
 10 21  2  0  0  0  0
 11  5  2  0  0  0  0
 11  8  1  0  0  0  0
 12  4  1  0  0  0  0
 12 27  1  0  0  0  0
 13 18  1  0  0  0  0
 15 23  1  0  0  0  0
 16  2  1  0  0  0  0
 17  3  1  0  0  0  0
 18 25  2  0  0  0  0
 19 26  1  0  0  0  0
 20 17  1  0  0  0  0
 22 20  1  6  0  0  0
 22  9  1  0  0  0  0
 22 10  1  0  0  0  0
 23 14  1  0  0  0  0
 26 25  1  0  0  0  0
 26 17  2  0  0  0  0
 27 24  1  1  0  0  0
 27  7  1  0  0  0  0
 28 11  1  0  0  0  0
 29 30  1  0  0  0  0
 30 28  1  0  0  0  0
M  END
>  <MODEL>
6

>  <REMARK>
 VINA RESULT:      -4.7      2.232      5.709
  Name = 
  2 active torsions:
  status: ('A' for Active; 'I' for Inactive)
    1  A    between atoms: C_11  and  N_28
    2  A    between atoms: N_28  and  C_30
                            x       y       z     vdW  Elec       q    Type
                         _______ _______ _______ _____ _____    ______ ____

>  <TORSDO>
F 2

$$$$
=
 OpenBabel11122412383D

 30 35  0  0  1  0  0  0  0  0999 V2000
  161.3340  207.6610  151.7130 C   0  0  0  0  0  0  0  0  0  0  0  0
  161.2760  207.2570  149.1680 C   0  0  0  0  0  0  0  0  0  0  0  0
  161.4080  211.7430  150.8750 N   0  0  0  0  0  2  0  0  0  0  0  0
  161.2330  208.5940  152.7680 C   0  0  0  0  0  0  0  0  0  0  0  0
  161.2880  206.2980  152.0270 C   0  0  0  0  0  3  0  0  0  0  0  0
  160.6190  206.3200  155.6460 O   0  0  0  0  0  1  0  0  0  0  0  0
  161.2520  210.4240  155.3510 C   0  0  1  0  0  3  0  0  0  0  0  0
  160.8880  206.7730  154.3560 C   0  0  0  0  0  0  0  0  0  0  0  0
  160.8640  211.5170  154.3520 C   0  0  2  0  0  3  0  0  0  0  0  0
  160.5210  212.0410  151.9360 C   0  0  0  0  0  0  0  0  0  0  0  0
  161.0930  205.8460  153.3330 C   0  0  0  0  0  0  0  0  0  0  0  0
  160.9390  208.1530  154.0890 C   0  0  0  0  0  0  0  0  0  0  0  0
  161.4310  207.7430  147.8680 C   0  0  0  0  0  3  0  0  0  0  0  0
  159.8010  212.3020  154.9600 N   0  0  0  0  0  2  0  0  0  0  0  0
  160.9400  211.0480  156.6910 C   0  0  0  0  0  2  0  0  0  0  0  0
  160.8670  205.8270  149.2800 C   0  0  0  0  0  1  0  0  0  0  0  0
  162.0540  210.4660  151.1360 C   0  0  0  0  0  0  0  0  0  0  0  0
  161.7720  209.0690  147.6390 C   0  0  0  0  0  3  0  0  0  0  0  0
  161.4740  208.1200  150.2890 C   0  0  0  0  0  0  0  0  0  0  0  0
  161.5540  210.0380  152.5220 C   0  0  0  0  0  0  0  0  0  0  0  0
  159.8180  213.0850  151.9520 O   0  0  0  0  0  0  0  0  0  0  0  0
  160.4610  210.9900  152.9760 C   0  0  1  0  0  3  0  0  0  0  0  0
  160.0760  212.2640  156.3920 C   0  0  0  0  0  2  0  0  0  0  0  0
  158.9680  209.2380  155.2010 C   0  0  0  0  0  1  0  0  0  0  0  0
  161.9480  209.9300  148.7150 C   0  0  0  0  0  3  0  0  0  0  0  0
  161.7770  209.4820  150.0320 C   0  0  0  0  0  0  0  0  0  0  0  0
  160.4880  209.0870  155.2000 C   0  0  2  0  0  3  0  0  0  0  0  0
  161.0540  204.4460  153.6240 N   0  0  0  0  0  2  0  0  0  0  0  0
  161.6380  202.9430  151.8140 C   0  0  0  0  0  1  0  0  0  0  0  0
  160.5220  203.4580  152.6980 C   0  0  0  0  0  2  0  0  0  0  0  0
  1  5  2  0  0  0  0
  1  4  1  0  0  0  0
  2 16  1  0  0  0  0
  2 19  1  0  0  0  0
  3 17  1  0  0  0  0
  3 10  1  0  0  0  0
  4 12  2  0  0  0  0
  5 11  1  0  0  0  0
  7 15  1  1  0  0  0
  8  6  1  0  0  0  0
  9 14  1  1  0  0  0
  9  7  1  0  0  0  0
 10 21  2  0  0  0  0
 11 28  1  0  0  0  0
 11  8  2  0  0  0  0
 12  8  1  0  0  0  0
 12 27  1  0  0  0  0
 13  2  2  0  0  0  0
 14 23  1  0  0  0  0
 17 20  2  0  0  0  0
 18 13  1  0  0  0  0
 18 25  2  0  0  0  0
 19  1  1  0  0  0  0
 20  4  1  0  0  0  0
 20 22  1  0  0  0  0
 22 10  1  6  0  0  0
 22  9  1  0  0  0  0
 23 15  1  0  0  0  0
 25 26  1  0  0  0  0
 26 19  2  0  0  0  0
 26 17  1  0  0  0  0
 27 24  1  6  0  0  0
 27  7  1  0  0  0  0
 29 30  1  0  0  0  0
 30 28  1  0  0  0  0
M  END
>  <MODEL>
7

>  <REMARK>
 VINA RESULT:      -4.7      2.370      7.634
  Name = 
  2 active torsions:
  status: ('A' for Active; 'I' for Inactive)
    1  A    between atoms: C_11  and  N_28
    2  A    between atoms: N_28  and  C_30
                            x       y       z     vdW  Elec       q    Type
                         _______ _______ _______ _____ _____    ______ ____

>  <TORSDO>
F 2

$$$$
=
 OpenBabel11122412383D

 30 35  0  0  1  0  0  0  0  0999 V2000
  161.4720  207.7560  149.2970 C   0  0  0  0  0  0  0  0  0  0  0  0
  162.0180  205.7940  147.7170 C   0  0  0  0  0  0  0  0  0  0  0  0
  160.6610  204.9160  152.2390 N   0  0  0  0  0  2  0  0  0  0  0  0
  161.2020  208.1740  150.6190 C   0  0  0  0  0  0  0  0  0  0  0  0
  161.7580  208.7340  148.3380 C   0  0  0  0  0  3  0  0  0  0  0  0
  161.8240  211.8290  150.3270 O   0  0  0  0  0  1  0  0  0  0  0  0
  160.3840  209.4280  153.4070 C   0  0  1  0  0  3  0  0  0  0  0  0
  161.6730  210.4850  149.9910 C   0  0  0  0  0  0  0  0  0  0  0  0
  160.6830  208.0160  153.9200 C   0  0  2  0  0  3  0  0  0  0  0  0
  161.2850  205.6900  153.2460 C   0  0  0  0  0  0  0  0  0  0  0  0
  161.8360  210.0880  148.6630 C   0  0  0  0  0  0  0  0  0  0  0  0
  161.3710  209.5390  150.9870 C   0  0  0  0  0  0  0  0  0  0  0  0
  161.9710  204.4280  147.4330 C   0  0  0  0  0  3  0  0  0  0  0  0
  161.4430  208.1540  155.1510 N   0  0  0  0  0  2  0  0  0  0  0  0
  160.3390  210.2550  154.6710 C   0  0  0  0  0  2  0  0  0  0  0  0
  162.7000  206.6430  146.6980 C   0  0  0  0  0  1  0  0  0  0  0  0
  160.2700  205.7870  151.1410 C   0  0  0  0  0  0  0  0  0  0  0  0
  161.3950  203.5340  148.3270 C   0  0  0  0  0  3  0  0  0  0  0  0
  161.4640  206.2980  148.9340 C   0  0  0  0  0  0  0  0  0  0  0  0
  160.6240  207.2060  151.6060 C   0  0  0  0  0  0  0  0  0  0  0  0
  161.7360  205.1790  154.3040 O   0  0  0  0  0  0  0  0  0  0  0  0
  161.4020  207.1250  152.9080 C   0  0  1  0  0  3  0  0  0  0  0  0
  160.9590  209.3900  155.7580 C   0  0  0  0  0  2  0  0  0  0  0  0
  162.8630  209.9740  152.9570 C   0  0  0  0  0  1  0  0  0  0  0  0
  160.8700  204.0010  149.5260 C   0  0  0  0  0  3  0  0  0  0  0  0
  160.9220  205.3620  149.8530 C   0  0  0  0  0  0  0  0  0  0  0  0
  161.4300  210.0130  152.4300 C   0  0  2  0  0  3  0  0  0  0  0  0
  162.1260  211.0660  147.6600 N   0  0  0  0  0  2  0  0  0  0  0  0
  161.9060  213.3580  146.9010 C   0  0  0  0  0  1  0  0  0  0  0  0
  161.1700  212.0790  147.2390 C   0  0  0  0  0  2  0  0  0  0  0  0
  1  4  1  0  0  0  0
  2 19  1  0  0  0  0
  3 10  1  0  0  0  0
  4 12  1  0  0  0  0
  4 20  2  0  0  0  0
  5 11  2  0  0  0  0
  5  1  1  0  0  0  0
  7  9  1  0  0  0  0
  7 15  1  1  0  0  0
  8  6  1  0  0  0  0
  8 12  2  0  0  0  0
  9 14  1  1  0  0  0
 10 21  2  0  0  0  0
 11  8  1  0  0  0  0
 12 27  1  0  0  0  0
 13  2  2  0  0  0  0
 13 18  1  0  0  0  0
 14 23  1  0  0  0  0
 15 23  1  0  0  0  0
 16  2  1  0  0  0  0
 17 20  1  0  0  0  0
 17  3  1  0  0  0  0
 18 25  2  0  0  0  0
 19  1  2  0  0  0  0
 19 26  1  0  0  0  0
 22 20  1  6  0  0  0
 22 10  1  0  0  0  0
 22  9  1  0  0  0  0
 25 26  1  0  0  0  0
 26 17  2  0  0  0  0
 27 24  1  1  0  0  0
 27  7  1  0  0  0  0
 28 11  1  0  0  0  0
 29 30  1  0  0  0  0
 30 28  1  0  0  0  0
M  END
>  <MODEL>
8

>  <REMARK>
 VINA RESULT:      -4.6      1.741      5.353
  Name = 
  2 active torsions:
  status: ('A' for Active; 'I' for Inactive)
    1  A    between atoms: C_11  and  N_28
    2  A    between atoms: N_28  and  C_30
                            x       y       z     vdW  Elec       q    Type
                         _______ _______ _______ _____ _____    ______ ____

>  <TORSDO>
F 2

$$$$
