=
 OpenBabel11122413033D

 32 37  0  0  1  0  0  0  0  0999 V2000
  161.4520  206.1130  148.1290 C   0  0  1  0  0  3  0  0  0  0  0  0
  160.3670  202.1350  151.0350 C   0  0  0  0  0  2  0  0  0  0  0  0
  160.9650  201.2080  149.9800 C   0  0  0  0  0  2  0  0  0  0  0  0
  162.0880  205.7380  145.6980 C   0  0  2  0  0  3  0  0  0  0  0  0
  161.3000  204.9120  144.6690 C   0  0  2  0  0  3  0  0  0  0  0  0
  161.5100  208.2080  149.0220 C   0  0  2  0  0  3  0  0  0  0  0  0
  160.8660  206.3660  150.4460 O   0  0  0  0  0  0  0  0  0  0  0  0
  159.9690  202.8660  144.6170 C   0  0  2  0  0  3  0  0  0  0  0  0
  161.0480  203.5010  150.9840 C   0  0  0  0  0  2  0  0  0  0  0  0
  161.5300  205.5080  149.5490 C   0  0  1  0  0  3  0  0  0  0  0  0
  160.8870  204.1160  149.5940 C   0  0  1  0  0  3  0  0  0  0  0  0
  161.3540  203.8080  147.1560 C   0  0  2  0  0  3  0  0  0  0  0  0
  159.0350  204.0140  144.9320 C   0  0  0  0  0  2  0  0  0  0  0  0
  161.5450  207.6020  150.4440 C   0  0  2  0  0  3  0  0  0  0  0  0
  159.8250  205.2880  144.6850 C   0  0  0  0  0  2  0  0  0  0  0  0
  160.8120  201.8210  148.5910 C   0  0  0  0  0  2  0  0  0  0  0  0
  161.5060  203.1820  148.5390 C   0  0  2  0  0  3  0  0  0  0  0  0
  161.8870  202.9780  146.1530 O   0  0  0  0  0  0  0  0  0  0  0  0
  162.1500  207.3360  148.1170 O   0  0  0  0  0  0  0  0  0  0  0  0
  163.4080  205.8750  145.2700 O   0  0  0  0  0  1  0  0  0  0  0  0
  159.6610  201.7530  145.4020 O   0  0  0  0  0  1  0  0  0  0  0  0
  162.0760  205.1520  147.1170 C   0  0  2  0  0  3  0  0  0  0  0  0
  161.3770  203.3850  144.8890 C   0  0  2  0  0  3  0  0  0  0  0  0
  160.7850  207.8460  152.8020 C   0  0  0  0  0  2  0  0  0  0  0  0
  160.8750  208.5280  151.4510 C   0  0  1  0  0  3  0  0  0  0  0  0
  161.8650  208.8740  152.5470 C   0  0  1  0  0  3  0  0  0  0  0  0
  161.4820  210.1370  153.1540 N   0  0  0  0  0  2  0  0  0  0  0  0
  161.5030  210.3240  154.5670 C   0  0  0  0  0  0  0  0  0  0  0  0
  161.1720  211.4360  155.0540 O   0  0  0  0  0  0  0  0  0  0  0  0
  161.8840  209.2890  155.4120 O   0  0  0  0  0  1  0  0  0  0  0  0
  161.5070  210.4350  148.1600 O   0  0  0  0  0  1  0  0  0  0  0  0
  162.2140  209.5570  148.9800 C   0  0  0  0  0  2  0  0  0  0  0  0
  1 19  1  1  0  0  0
  1 10  1  0  0  0  0
  3  2  1  0  0  0  0
  4 20  1  6  0  0  0
  4 22  1  0  0  0  0
  5 15  1  1  0  0  0
  5 23  1  0  0  0  0
  5  4  1  0  0  0  0
  6 32  1  1  0  0  0
  6 14  1  0  0  0  0
  8 23  1  0  0  0  0
  8 13  1  0  0  0  0
  8 21  1  1  0  0  0
  9  2  1  0  0  0  0
 10 11  1  0  0  0  0
 10  7  1  1  0  0  0
 11  9  1  1  0  0  0
 12 18  1  6  0  0  0
 12 17  1  0  0  0  0
 14  7  1  6  0  0  0
 14 25  1  0  0  0  0
 15 13  1  0  0  0  0
 16  3  1  0  0  0  0
 17 16  1  6  0  0  0
 17 11  1  0  0  0  0
 19  6  1  0  0  0  0
 22 12  1  0  0  0  0
 22  1  1  0  0  0  0
 23 18  1  0  0  0  0
 25 26  1  0  0  0  0
 25 24  1  0  0  0  0
 26 24  1  0  0  0  0
 26 27  1  0  0  0  0
 27 28  1  0  0  0  0
 28 29  2  0  0  0  0
 28 30  1  0  0  0  0
 31 32  1  0  0  0  0
M  END
>  <MODEL>
1

>  <REMARK>
 VINA RESULT:      -7.2      0.000      0.000
  Name = 
  3 active torsions:
  status: ('A' for Active; 'I' for Inactive)
    1  A    between atoms: C_7  and  C_19
    2  A    between atoms: C_10  and  C_17
    3  A    between atoms: C_20  and  N_29
                            x       y       z     vdW  Elec       q    Type
                         _______ _______ _______ _____ _____    ______ ____

>  <TORSDO>
F 3

$$$$
=
 OpenBabel11122413033D

 32 37  0  0  1  0  0  0  0  0999 V2000
  160.5230  211.1040  152.7270 C   0  0  1  0  0  3  0  0  0  0  0  0
  162.5480  206.6800  151.3970 C   0  0  0  0  0  2  0  0  0  0  0  0
  161.8110  206.0010  152.5500 C   0  0  0  0  0  2  0  0  0  0  0  0
  159.4000  211.3230  154.9960 C   0  0  2  0  0  3  0  0  0  0  0  0
  160.0070  210.9330  156.3530 C   0  0  2  0  0  3  0  0  0  0  0  0
  160.4900  212.8430  151.2560 C   0  0  2  0  0  3  0  0  0  0  0  0
  161.5830  210.7920  150.5930 O   0  0  0  0  0  0  0  0  0  0  0  0
  161.4590  209.1920  157.2610 C   0  0  2  0  0  3  0  0  0  0  0  0
  161.7620  207.8950  150.9100 C   0  0  0  0  0  2  0  0  0  0  0  0
  160.8110  210.1270  151.5650 C   0  0  1  0  0  3  0  0  0  0  0  0
  161.5610  208.8840  152.0570 C   0  0  1  0  0  3  0  0  0  0  0  0
  160.5950  209.1930  154.3440 C   0  0  2  0  0  3  0  0  0  0  0  0
  162.3420  210.3320  156.7980 C   0  0  0  0  0  2  0  0  0  0  0  0
  160.8200  211.8710  150.0990 C   0  0  2  0  0  3  0  0  0  0  0  0
  161.4130  211.4980  156.5010 C   0  0  0  0  0  2  0  0  0  0  0  0
  161.6030  206.9880  153.6950 C   0  0  0  0  0  2  0  0  0  0  0  0
  160.8040  208.1960  153.2080 C   0  0  2  0  0  3  0  0  0  0  0  0
  159.9250  208.6030  155.4310 O   0  0  0  0  0  0  0  0  0  0  0  0
  159.7410  212.1700  152.2430 O   0  0  0  0  0  0  0  0  0  0  0  0
  158.0110  211.3820  155.1090 O   0  0  0  0  0  1  0  0  0  0  0  0
  162.0240  207.9640  156.9150 O   0  0  0  0  0  1  0  0  0  0  0  0
  159.7740  210.3780  153.8450 C   0  0  2  0  0  3  0  0  0  0  0  0
  160.1080  209.4100  156.5880 C   0  0  2  0  0  3  0  0  0  0  0  0
  162.4790  211.5660  148.2690 C   0  0  0  0  0  2  0  0  0  0  0  0
  161.6160  212.5710  149.0050 C   0  0  1  0  0  3  0  0  0  0  0  0
  161.1810  212.0390  147.6530 C   0  0  1  0  0  3  0  0  0  0  0  0
  161.4660  213.0360  146.6360 N   0  0  0  0  0  2  0  0  0  0  0  0
  160.7570  213.0650  145.3980 C   0  0  0  0  0  0  0  0  0  0  0  0
  161.0270  213.9510  144.5460 O   0  0  0  0  0  0  0  0  0  0  0  0
  159.7730  212.1230  145.1250 O   0  0  0  0  0  1  0  0  0  0  0  0
  158.4430  213.6080  150.2940 O   0  0  0  0  0  1  0  0  0  0  0  0
  159.6850  214.0350  150.7610 C   0  0  0  0  0  2  0  0  0  0  0  0
  1 19  1  6  0  0  0
  1 22  1  0  0  0  0
  2  3  1  0  0  0  0
  3 16  1  0  0  0  0
  4 20  1  1  0  0  0
  4  5  1  0  0  0  0
  5 15  1  6  0  0  0
  5 23  1  0  0  0  0
  6 32  1  6  0  0  0
  6 19  1  0  0  0  0
  8 21  1  6  0  0  0
  9  2  1  0  0  0  0
 10  7  1  6  0  0  0
 10 11  1  0  0  0  0
 10  1  1  0  0  0  0
 11  9  1  6  0  0  0
 11 17  1  0  0  0  0
 12 18  1  1  0  0  0
 13  8  1  0  0  0  0
 14  7  1  1  0  0  0
 14  6  1  0  0  0  0
 15 13  1  0  0  0  0
 17 16  1  1  0  0  0
 17 12  1  0  0  0  0
 18 23  1  0  0  0  0
 22 12  1  0  0  0  0
 22  4  1  0  0  0  0
 23  8  1  0  0  0  0
 24 25  1  0  0  0  0
 25 14  1  0  0  0  0
 26 24  1  0  0  0  0
 26 25  1  0  0  0  0
 27 26  1  0  0  0  0
 28 27  1  0  0  0  0
 29 28  2  0  0  0  0
 30 28  1  0  0  0  0
 31 32  1  0  0  0  0
M  END
>  <MODEL>
2

>  <REMARK>
 VINA RESULT:      -6.6      5.197      8.979
  Name = 
  3 active torsions:
  status: ('A' for Active; 'I' for Inactive)
    1  A    between atoms: C_7  and  C_19
    2  A    between atoms: C_10  and  C_17
    3  A    between atoms: C_20  and  N_29
                            x       y       z     vdW  Elec       q    Type
                         _______ _______ _______ _____ _____    ______ ____

>  <TORSDO>
F 3

$$$$
=
 OpenBabel11122413033D

 32 37  0  0  1  0  0  0  0  0999 V2000
  160.9790  207.3270  152.2270 C   0  0  1  0  0  3  0  0  0  0  0  0
  161.9560  210.4440  148.3840 C   0  0  0  0  0  2  0  0  0  0  0  0
  162.5240  211.4680  149.3640 C   0  0  0  0  0  2  0  0  0  0  0  0
  161.0610  208.2230  154.6030 C   0  0  2  0  0  3  0  0  0  0  0  0
  160.3350  209.4700  155.1310 C   0  0  2  0  0  3  0  0  0  0  0  0
  160.6080  205.1120  151.8460 C   0  0  2  0  0  3  0  0  0  0  0  0
  160.9510  206.5660  149.9470 O   0  0  0  0  0  0  0  0  0  0  0  0
  159.7370  211.6980  154.3320 C   0  0  2  0  0  3  0  0  0  0  0  0
  162.1430  209.0300  148.9280 C   0  0  0  0  0  2  0  0  0  0  0  0
  161.5980  207.4640  150.8180 C   0  0  1  0  0  3  0  0  0  0  0  0
  161.4520  208.8950  150.2850 C   0  0  1  0  0  3  0  0  0  0  0  0
  161.3580  209.7700  152.6270 C   0  0  2  0  0  3  0  0  0  0  0  0
  158.6040  210.7610  153.9710 C   0  0  0  0  0  2  0  0  0  0  0  0
  161.1890  205.2590  150.4200 C   0  0  2  0  0  3  0  0  0  0  0  0
  158.8710  209.4630  154.7140 C   0  0  0  0  0  2  0  0  0  0  0  0
  161.8420  211.3320  150.7220 C   0  0  0  0  0  2  0  0  0  0  0  0
  162.0420  209.9190  151.2710 C   0  0  2  0  0  3  0  0  0  0  0  0
  161.8490  210.7030  153.5580 O   0  0  0  0  0  0  0  0  0  0  0  0
  161.2360  206.0310  152.7120 O   0  0  0  0  0  0  0  0  0  0  0  0
  162.1200  207.9070  155.4550 O   0  0  0  0  0  1  0  0  0  0  0  0
  159.9980  212.5790  153.2810 O   0  0  0  0  0  1  0  0  0  0  0  0
  161.5920  208.3630  153.1690 C   0  0  2  0  0  3  0  0  0  0  0  0
  160.9340  210.8070  154.6430 C   0  0  2  0  0  3  0  0  0  0  0  0
  160.5560  204.8280  148.0520 C   0  0  0  0  0  2  0  0  0  0  0  0
  160.5440  204.2680  149.4600 C   0  0  1  0  0  3  0  0  0  0  0  0
  161.5810  203.7930  148.4610 C   0  0  1  0  0  3  0  0  0  0  0  0
  161.1860  202.4940  147.9460 N   0  0  0  0  0  2  0  0  0  0  0  0
  161.1750  202.2160  146.5470 C   0  0  0  0  0  0  0  0  0  0  0  0
  160.8340  201.0740  146.1410 O   0  0  0  0  0  1  0  0  0  0  0  0
  161.5360  203.1940  145.6290 O   0  0  0  0  0  0  0  0  0  0  0  0
  162.0110  203.1800  151.8770 O   0  0  0  0  0  1  0  0  0  0  0  0
  160.8240  203.7060  152.3860 C   0  0  0  0  0  2  0  0  0  0  0  0
  1 19  1  1  0  0  0
  1 22  1  0  0  0  0
  2  9  1  0  0  0  0
  2  3  1  0  0  0  0
  3 16  1  0  0  0  0
  4  5  1  0  0  0  0
  4 20  1  1  0  0  0
  5 15  1  6  0  0  0
  6 32  1  1  0  0  0
  6 19  1  0  0  0  0
  8 21  1  6  0  0  0
  8 23  1  0  0  0  0
 10  7  1  6  0  0  0
 10  1  1  0  0  0  0
 11  9  1  6  0  0  0
 11 10  1  0  0  0  0
 11 17  1  0  0  0  0
 12 22  1  0  0  0  0
 12 18  1  1  0  0  0
 13  8  1  0  0  0  0
 13 15  1  0  0  0  0
 14  7  1  6  0  0  0
 14  6  1  0  0  0  0
 17 16  1  6  0  0  0
 17 12  1  0  0  0  0
 18 23  1  0  0  0  0
 22  4  1  0  0  0  0
 23  5  1  0  0  0  0
 24 26  1  0  0  0  0
 24 25  1  0  0  0  0
 25 14  1  0  0  0  0
 26 25  1  0  0  0  0
 27 26  1  0  0  0  0
 28 27  1  0  0  0  0
 29 28  1  0  0  0  0
 30 28  2  0  0  0  0
 31 32  1  0  0  0  0
M  END
>  <MODEL>
3

>  <REMARK>
 VINA RESULT:      -5.6      2.592      8.869
  Name = 
  3 active torsions:
  status: ('A' for Active; 'I' for Inactive)
    1  A    between atoms: C_7  and  C_19
    2  A    between atoms: C_10  and  C_17
    3  A    between atoms: C_20  and  N_29
                            x       y       z     vdW  Elec       q    Type
                         _______ _______ _______ _____ _____    ______ ____

>  <TORSDO>
F 3

$$$$
=
 OpenBabel11122413033D

 32 37  0  0  1  0  0  0  0  0999 V2000
  160.2840  209.9290  153.3620 C   0  0  1  0  0  3  0  0  0  0  0  0
  160.2960  213.3380  149.6440 C   0  0  0  0  0  2  0  0  0  0  0  0
  160.0510  214.4460  150.6660 C   0  0  0  0  0  2  0  0  0  0  0  0
  159.4140  210.5940  155.6540 C   0  0  2  0  0  3  0  0  0  0  0  0
  158.0640  211.2650  155.9540 C   0  0  2  0  0  3  0  0  0  0  0  0
  161.1800  207.8610  153.0290 C   0  0  2  0  0  3  0  0  0  0  0  0
  161.1120  209.4000  151.1680 O   0  0  0  0  0  0  0  0  0  0  0  0
  156.5920  212.9240  154.9350 C   0  0  2  0  0  3  0  0  0  0  0  0
  161.0620  212.1850  150.2890 C   0  0  0  0  0  2  0  0  0  0  0  0
  161.0190  210.4470  152.1050 C   0  0  1  0  0  3  0  0  0  0  0  0
  160.2770  211.6350  151.4800 C   0  0  1  0  0  3  0  0  0  0  0  0
  159.2760  212.1950  153.7030 C   0  0  2  0  0  3  0  0  0  0  0  0
  156.1950  211.5660  154.3970 C   0  0  0  0  0  2  0  0  0  0  0  0
  161.8800  208.3700  151.7470 C   0  0  2  0  0  3  0  0  0  0  0  0
  156.9280  210.5400  155.2460 C   0  0  0  0  0  2  0  0  0  0  0  0
  159.2730  213.8990  151.8600 C   0  0  0  0  0  2  0  0  0  0  0  0
  160.0480  212.7540  152.5110 C   0  0  2  0  0  3  0  0  0  0  0  0
  159.0220  213.1890  154.6650 O   0  0  0  0  0  0  0  0  0  0  0  0
  161.0600  208.9160  153.9560 O   0  0  0  0  0  0  0  0  0  0  0  0
  160.2860  210.8090  156.7210 O   0  0  0  0  0  1  0  0  0  0  0  0
  156.5760  213.8780  153.9150 O   0  0  0  0  0  1  0  0  0  0  0  0
  160.0770  211.0720  154.3550 C   0  0  2  0  0  3  0  0  0  0  0  0
  157.9840  212.7470  155.5310 C   0  0  2  0  0  3  0  0  0  0  0  0
  160.7300  207.0160  150.0030 C   0  0  0  0  0  2  0  0  0  0  0  0
  162.0410  207.2480  150.7280 C   0  0  1  0  0  3  0  0  0  0  0  0
  161.8310  207.8080  149.3340 C   0  0  1  0  0  3  0  0  0  0  0  0
  162.5180  206.9610  148.3740 N   0  0  0  0  0  2  0  0  0  0  0  0
  161.8630  206.4730  147.2050 C   0  0  0  0  0  0  0  0  0  0  0  0
  162.4940  205.7490  146.3920 O   0  0  0  0  0  0  0  0  0  0  0  0
  160.5330  206.7880  146.9560 O   0  0  0  0  0  1  0  0  0  0  0  0
  161.2140  205.5560  153.6520 O   0  0  0  0  0  1  0  0  0  0  0  0
  161.9670  206.7290  153.6740 C   0  0  0  0  0  2  0  0  0  0  0  0
  1 19  1  1  0  0  0
  1 22  1  0  0  0  0
  2  9  1  0  0  0  0
  2  3  1  0  0  0  0
  3 16  1  0  0  0  0
  4  5  1  0  0  0  0
  4 20  1  1  0  0  0
  5 15  1  6  0  0  0
  6 32  1  1  0  0  0
  6 19  1  0  0  0  0
  8 21  1  6  0  0  0
  8 23  1  0  0  0  0
 10  7  1  6  0  0  0
 10  1  1  0  0  0  0
 11  9  1  6  0  0  0
 11 10  1  0  0  0  0
 11 17  1  0  0  0  0
 12 22  1  0  0  0  0
 12 18  1  1  0  0  0
 13  8  1  0  0  0  0
 13 15  1  0  0  0  0
 14  7  1  6  0  0  0
 14  6  1  0  0  0  0
 17 16  1  6  0  0  0
 17 12  1  0  0  0  0
 18 23  1  0  0  0  0
 22  4  1  0  0  0  0
 23  5  1  0  0  0  0
 24 25  1  0  0  0  0
 25 14  1  0  0  0  0
 26 24  1  0  0  0  0
 26 25  1  0  0  0  0
 27 26  1  0  0  0  0
 28 27  1  0  0  0  0
 29 28  2  0  0  0  0
 30 28  1  0  0  0  0
 31 32  1  0  0  0  0
M  END
>  <MODEL>
4

>  <REMARK>
 VINA RESULT:      -5.4      3.350      9.809
  Name = 
  3 active torsions:
  status: ('A' for Active; 'I' for Inactive)
    1  A    between atoms: C_7  and  C_19
    2  A    between atoms: C_10  and  C_17
    3  A    between atoms: C_20  and  N_29
                            x       y       z     vdW  Elec       q    Type
                         _______ _______ _______ _____ _____    ______ ____

>  <TORSDO>
F 3

$$$$
=
 OpenBabel11122413033D

 32 37  0  0  1  0  0  0  0  0999 V2000
  161.4370  206.0560  149.4970 C   0  0  1  0  0  3  0  0  0  0  0  0
  160.2470  201.2800  150.6010 C   0  0  0  0  0  2  0  0  0  0  0  0
  161.0050  200.8100  149.3620 C   0  0  0  0  0  2  0  0  0  0  0  0
  162.3560  206.6060  147.1930 C   0  0  2  0  0  3  0  0  0  0  0  0
  161.7300  206.2090  145.8460 C   0  0  2  0  0  3  0  0  0  0  0  0
  161.2870  207.6770  151.0910 C   0  0  2  0  0  3  0  0  0  0  0  0
  160.5870  205.4350  151.6570 O   0  0  0  0  0  0  0  0  0  0  0  0
  160.5220  204.3150  144.8910 C   0  0  2  0  0  3  0  0  0  0  0  0
  160.8570  202.5750  151.1340 C   0  0  0  0  0  2  0  0  0  0  0  0
  161.3890  204.9720  150.5970 C   0  0  1  0  0  3  0  0  0  0  0  0
  160.8190  203.6570  150.0540 C   0  0  1  0  0  3  0  0  0  0  0  0
  161.5670  204.2690  147.7470 C   0  0  2  0  0  3  0  0  0  0  0  0
  159.4990  205.2600  145.4860 C   0  0  0  0  0  2  0  0  0  0  0  0
  161.1960  206.5910  152.1880 C   0  0  2  0  0  3  0  0  0  0  0  0
  160.2450  206.5420  145.8180 C   0  0  0  0  0  2  0  0  0  0  0  0
  160.9750  201.8900  148.2840 C   0  0  0  0  0  2  0  0  0  0  0  0
  161.5980  203.1800  148.8160 C   0  0  2  0  0  3  0  0  0  0  0  0
  162.2500  203.8700  146.5840 O   0  0  0  0  0  0  0  0  0  0  0  0
  162.0670  207.2030  150.0160 O   0  0  0  0  0  0  0  0  0  0  0  0
  163.7060  206.9010  147.0080 O   0  0  0  0  0  1  0  0  0  0  0  0
  160.1870  202.9900  145.1740 O   0  0  0  0  0  1  0  0  0  0  0  0
  162.2180  205.5400  148.2890 C   0  0  2  0  0  3  0  0  0  0  0  0
  161.8610  204.7100  145.5030 C   0  0  2  0  0  3  0  0  0  0  0  0
  160.6250  206.1910  154.5770 C   0  0  0  0  0  2  0  0  0  0  0  0
  160.3720  207.0770  153.3740 C   0  0  1  0  0  3  0  0  0  0  0  0
  161.3070  207.5380  154.4760 C   0  0  1  0  0  3  0  0  0  0  0  0
  160.6120  208.4950  155.3190 N   0  0  0  0  0  2  0  0  0  0  0  0
  161.0690  209.8380  155.4580 C   0  0  0  0  0  0  0  0  0  0  0  0
  160.4350  210.6400  156.1920 O   0  0  0  0  0  1  0  0  0  0  0  0
  162.2100  210.2700  154.7930 O   0  0  0  0  0  0  0  0  0  0  0  0
  162.0970  209.8670  150.5920 O   0  0  0  0  0  1  0  0  0  0  0  0
  161.9200  208.9520  151.6290 C   0  0  0  0  0  2  0  0  0  0  0  0
  1 19  1  1  0  0  0
  1 10  1  0  0  0  0
  2  9  1  0  0  0  0
  3  2  1  0  0  0  0
  4 20  1  6  0  0  0
  4 22  1  0  0  0  0
  5 15  1  1  0  0  0
  5  4  1  0  0  0  0
  6 32  1  1  0  0  0
  6 14  1  0  0  0  0
  8 21  1  1  0  0  0
  8 13  1  0  0  0  0
  8 23  1  0  0  0  0
 10  7  1  1  0  0  0
 11 10  1  0  0  0  0
 11  9  1  1  0  0  0
 12 18  1  6  0  0  0
 12 22  1  0  0  0  0
 12 17  1  0  0  0  0
 13 15  1  0  0  0  0
 14  7  1  6  0  0  0
 14 25  1  0  0  0  0
 16  3  1  0  0  0  0
 17 16  1  6  0  0  0
 17 11  1  0  0  0  0
 19  6  1  0  0  0  0
 22  1  1  0  0  0  0
 23  5  1  0  0  0  0
 23 18  1  0  0  0  0
 25 26  1  0  0  0  0
 25 24  1  0  0  0  0
 26 24  1  0  0  0  0
 26 27  1  0  0  0  0
 27 28  1  0  0  0  0
 28 29  1  0  0  0  0
 30 28  2  0  0  0  0
 31 32  1  0  0  0  0
M  END
>  <MODEL>
5

>  <REMARK>
 VINA RESULT:      -4.9      1.399      1.694
  Name = 
  3 active torsions:
  status: ('A' for Active; 'I' for Inactive)
    1  A    between atoms: C_7  and  C_19
    2  A    between atoms: C_10  and  C_17
    3  A    between atoms: C_20  and  N_29
                            x       y       z     vdW  Elec       q    Type
                         _______ _______ _______ _____ _____    ______ ____

>  <TORSDO>
F 3

$$$$
=
 OpenBabel11122413033D

 32 37  0  0  1  0  0  0  0  0999 V2000
  159.8100  210.3210  154.0120 C   0  0  1  0  0  3  0  0  0  0  0  0
  160.0820  213.2440  149.9100 C   0  0  0  0  0  2  0  0  0  0  0  0
  159.6740  214.4520  150.7490 C   0  0  0  0  0  2  0  0  0  0  0  0
  158.6590  211.2110  156.0950 C   0  0  2  0  0  3  0  0  0  0  0  0
  157.2550  211.8320  156.1640 C   0  0  2  0  0  3  0  0  0  0  0  0
  160.8290  208.2850  154.0440 C   0  0  2  0  0  3  0  0  0  0  0  0
  160.9000  209.5770  152.0040 O   0  0  0  0  0  0  0  0  0  0  0  0
  155.8330  213.2630  154.7910 C   0  0  2  0  0  3  0  0  0  0  0  0
  160.8220  212.2250  150.7740 C   0  0  0  0  0  2  0  0  0  0  0  0
  160.6560  210.7240  152.7840 C   0  0  1  0  0  3  0  0  0  0  0  0
  159.9350  211.7800  151.9360 C   0  0  1  0  0  3  0  0  0  0  0  0
  158.6680  212.5490  153.9510 C   0  0  2  0  0  3  0  0  0  0  0  0
  155.5600  211.8290  154.3930 C   0  0  0  0  0  2  0  0  0  0  0  0
  161.6450  208.6730  152.7880 C   0  0  2  0  0  3  0  0  0  0  0  0
  156.2400  210.9600  155.4390 C   0  0  0  0  0  2  0  0  0  0  0  0
  158.7930  214.0110  151.9150 C   0  0  0  0  0  2  0  0  0  0  0  0
  159.5420  213.0020  152.7860 C   0  0  2  0  0  3  0  0  0  0  0  0
  158.2630  213.6370  154.7460 O   0  0  0  0  0  0  0  0  0  0  0  0
  160.5600  209.4360  154.8100 O   0  0  0  0  0  0  0  0  0  0  0  0
  159.3960  211.6060  157.2120 O   0  0  0  0  0  1  0  0  0  0  0  0
  155.8870  214.0820  153.6610 O   0  0  0  0  0  1  0  0  0  0  0  0
  159.4420  211.5640  154.8230 C   0  0  2  0  0  3  0  0  0  0  0  0
  157.1560  213.2440  155.5480 C   0  0  2  0  0  3  0  0  0  0  0  0
  160.8240  206.4560  152.0090 C   0  0  0  0  0  2  0  0  0  0  0  0
  161.9690  207.4470  151.9440 C   0  0  1  0  0  3  0  0  0  0  0  0
  160.9770  207.3520  150.8000 C   0  0  1  0  0  3  0  0  0  0  0  0
  161.5760  206.5970  149.7130 N   0  0  0  0  0  2  0  0  0  0  0  0
  161.9110  207.2120  148.4710 C   0  0  0  0  0  0  0  0  0  0  0  0
  162.4360  206.5250  147.5560 O   0  0  0  0  0  0  0  0  0  0  0  0
  161.6600  208.5620  148.2610 O   0  0  0  0  0  1  0  0  0  0  0  0
  161.7500  207.8040  156.1940 O   0  0  0  0  0  1  0  0  0  0  0  0
  161.5900  207.2890  154.9080 C   0  0  0  0  0  2  0  0  0  0  0  0
  1 19  1  1  0  0  0
  1 22  1  0  0  0  0
  2  3  1  0  0  0  0
  2  9  1  0  0  0  0
  3 16  1  0  0  0  0
  4  5  1  0  0  0  0
  4 20  1  1  0  0  0
  5 15  1  6  0  0  0
  6 19  1  0  0  0  0
  6 32  1  1  0  0  0
  8 21  1  6  0  0  0
  8 23  1  0  0  0  0
 10  7  1  6  0  0  0
 10  1  1  0  0  0  0
 11  9  1  6  0  0  0
 11 10  1  0  0  0  0
 11 17  1  0  0  0  0
 12 18  1  1  0  0  0
 12 22  1  0  0  0  0
 13  8  1  0  0  0  0
 13 15  1  0  0  0  0
 14  7  1  6  0  0  0
 14  6  1  0  0  0  0
 17 16  1  6  0  0  0
 17 12  1  0  0  0  0
 18 23  1  0  0  0  0
 22  4  1  0  0  0  0
 23  5  1  0  0  0  0
 25 24  1  0  0  0  0
 25 14  1  0  0  0  0
 26 25  1  0  0  0  0
 26 24  1  0  0  0  0
 27 26  1  0  0  0  0
 28 27  1  0  0  0  0
 29 28  2  0  0  0  0
 30 28  1  0  0  0  0
 32 31  1  0  0  0  0
M  END
>  <MODEL>
6

>  <REMARK>
 VINA RESULT:      -4.9      3.673     10.055
  Name = 
  3 active torsions:
  status: ('A' for Active; 'I' for Inactive)
    1  A    between atoms: C_7  and  C_19
    2  A    between atoms: C_10  and  C_17
    3  A    between atoms: C_20  and  N_29
                            x       y       z     vdW  Elec       q    Type
                         _______ _______ _______ _____ _____    ______ ____

>  <TORSDO>
F 3

$$$$
=
 OpenBabel11122413033D

 32 37  0  0  1  0  0  0  0  0999 V2000
  161.0210  208.3320  152.0210 C   0  0  1  0  0  3  0  0  0  0  0  0
  161.5100  211.5280  148.1480 C   0  0  0  0  0  2  0  0  0  0  0  0
  161.8470  212.6520  149.1250 C   0  0  0  0  0  2  0  0  0  0  0  0
  160.8650  209.2580  154.3820 C   0  0  2  0  0  3  0  0  0  0  0  0
  159.9030  210.3540  154.8670 C   0  0  2  0  0  3  0  0  0  0  0  0
  161.0830  206.0820  151.6700 C   0  0  2  0  0  3  0  0  0  0  0  0
  161.2020  207.5510  149.7550 O   0  0  0  0  0  0  0  0  0  0  0  0
  158.9230  212.4200  154.0130 C   0  0  2  0  0  3  0  0  0  0  0  0
  161.9420  210.1810  148.7240 C   0  0  0  0  0  2  0  0  0  0  0  0
  161.6440  208.5650  150.6260 C   0  0  1  0  0  3  0  0  0  0  0  0
  161.2490  209.9360  150.0640 C   0  0  1  0  0  3  0  0  0  0  0  0
  160.9250  210.8080  152.3860 C   0  0  2  0  0  3  0  0  0  0  0  0
  157.9960  211.2830  153.6390 C   0  0  0  0  0  2  0  0  0  0  0  0
  161.6670  206.3180  150.2580 C   0  0  2  0  0  3  0  0  0  0  0  0
  158.4790  210.0670  154.4120 C   0  0  0  0  0  2  0  0  0  0  0  0
  161.1630  212.4080  150.4670 C   0  0  0  0  0  2  0  0  0  0  0  0
  161.6080  211.0650  151.0460 C   0  0  2  0  0  3  0  0  0  0  0  0
  161.2050  211.8280  153.3120 O   0  0  0  0  0  0  0  0  0  0  0  0
  161.5020  207.1130  152.5360 O   0  0  0  0  0  0  0  0  0  0  0  0
  161.9390  209.1580  155.2670 O   0  0  0  0  0  1  0  0  0  0  0  0
  159.0450  213.3210  152.9540 O   0  0  0  0  0  1  0  0  0  0  0  0
  161.4010  209.4770  152.9600 C   0  0  2  0  0  3  0  0  0  0  0  0
  160.2560  211.7730  154.3710 C   0  0  2  0  0  3  0  0  0  0  0  0
  160.3940  205.7860  148.1860 C   0  0  0  0  0  2  0  0  0  0  0  0
  161.2460  205.2100  149.2990 C   0  0  1  0  0  3  0  0  0  0  0  0
  161.8530  205.4750  147.9340 C   0  0  1  0  0  3  0  0  0  0  0  0
  161.9610  204.2200  147.2110 N   0  0  0  0  0  2  0  0  0  0  0  0
  161.5330  204.0990  145.8560 C   0  0  0  0  0  0  0  0  0  0  0  0
  161.6500  202.9970  145.2600 O   0  0  0  0  0  1  0  0  0  0  0  0
  160.9850  205.1880  145.1880 O   0  0  0  0  0  0  0  0  0  0  0  0
  160.4560  203.8820  152.3530 O   0  0  0  0  0  1  0  0  0  0  0  0
  161.5420  204.7490  152.2420 C   0  0  0  0  0  2  0  0  0  0  0  0
  1 19  1  1  0  0  0
  1 22  1  0  0  0  0
  2  9  1  0  0  0  0
  2  3  1  0  0  0  0
  3 16  1  0  0  0  0
  4  5  1  0  0  0  0
  4 20  1  1  0  0  0
  5 15  1  6  0  0  0
  6 32  1  1  0  0  0
  6 19  1  0  0  0  0
  8 21  1  6  0  0  0
  8 23  1  0  0  0  0
 10  7  1  6  0  0  0
 10  1  1  0  0  0  0
 11  9  1  6  0  0  0
 11 10  1  0  0  0  0
 11 17  1  0  0  0  0
 12 22  1  0  0  0  0
 12 18  1  1  0  0  0
 13  8  1  0  0  0  0
 13 15  1  0  0  0  0
 14  7  1  6  0  0  0
 14  6  1  0  0  0  0
 17 16  1  6  0  0  0
 17 12  1  0  0  0  0
 18 23  1  0  0  0  0
 22  4  1  0  0  0  0
 23  5  1  0  0  0  0
 24 25  1  0  0  0  0
 25 14  1  0  0  0  0
 26 24  1  0  0  0  0
 26 25  1  0  0  0  0
 27 26  1  0  0  0  0
 28 27  1  0  0  0  0
 29 28  1  0  0  0  0
 30 28  2  0  0  0  0
 32 31  1  0  0  0  0
M  END
>  <MODEL>
7

>  <REMARK>
 VINA RESULT:      -4.7      2.551      8.997
  Name = 
  3 active torsions:
  status: ('A' for Active; 'I' for Inactive)
    1  A    between atoms: C_7  and  C_19
    2  A    between atoms: C_10  and  C_17
    3  A    between atoms: C_20  and  N_29
                            x       y       z     vdW  Elec       q    Type
                         _______ _______ _______ _____ _____    ______ ____

>  <TORSDO>
F 3

$$$$
=
 OpenBabel11122413033D

 32 37  0  0  1  0  0  0  0  0999 V2000
  159.7820  210.1310  153.7960 C   0  0  1  0  0  3  0  0  0  0  0  0
  159.9850  213.2330  149.8230 C   0  0  0  0  0  2  0  0  0  0  0  0
  159.8830  214.4330  150.7610 C   0  0  0  0  0  2  0  0  0  0  0  0
  159.0610  211.0490  156.0520 C   0  0  2  0  0  3  0  0  0  0  0  0
  157.7920  211.8690  156.3370 C   0  0  2  0  0  3  0  0  0  0  0  0
  160.4650  207.9660  153.6010 C   0  0  2  0  0  3  0  0  0  0  0  0
  160.4770  209.3600  151.6280 O   0  0  0  0  0  0  0  0  0  0  0  0
  156.4490  213.5820  155.2320 C   0  0  2  0  0  3  0  0  0  0  0  0
  160.6600  212.0620  150.5350 C   0  0  0  0  0  2  0  0  0  0  0  0
  160.5170  210.4790  152.4820 C   0  0  1  0  0  3  0  0  0  0  0  0
  159.8700  211.6830  151.7860 C   0  0  1  0  0  3  0  0  0  0  0  0
  159.0060  212.5040  153.9860 C   0  0  2  0  0  3  0  0  0  0  0  0
  155.9060  212.2320  154.8140 C   0  0  0  0  0  2  0  0  0  0  0  0
  161.1640  208.3060  152.2650 C   0  0  2  0  0  3  0  0  0  0  0  0
  156.5680  211.2070  155.7200 C   0  0  0  0  0  2  0  0  0  0  0  0
  159.0990  214.0560  152.0160 C   0  0  0  0  0  2  0  0  0  0  0  0
  159.7850  212.8940  152.7330 C   0  0  2  0  0  3  0  0  0  0  0  0
  158.8820  213.5880  154.8740 O   0  0  0  0  0  0  0  0  0  0  0  0
  160.4790  209.0950  154.4460 O   0  0  0  0  0  0  0  0  0  0  0  0
  159.9870  211.2580  157.0740 O   0  0  0  0  0  1  0  0  0  0  0  0
  156.4870  214.4530  154.1420 O   0  0  0  0  0  1  0  0  0  0  0  0
  159.7200  211.3610  154.7010 C   0  0  2  0  0  3  0  0  0  0  0  0
  157.8380  213.3160  155.8010 C   0  0  2  0  0  3  0  0  0  0  0  0
  162.4150  207.1440  150.4540 C   0  0  0  0  0  2  0  0  0  0  0  0
  161.1810  207.1010  151.3320 C   0  0  1  0  0  3  0  0  0  0  0  0
  162.3810  206.2330  151.6610 C   0  0  1  0  0  3  0  0  0  0  0  0
  162.1140  204.8720  151.2300 N   0  0  0  0  0  2  0  0  0  0  0  0
  161.3510  203.9700  152.0290 C   0  0  0  0  0  0  0  0  0  0  0  0
  161.1340  202.8010  151.6160 O   0  0  0  0  0  0  0  0  0  0  0  0
  160.8460  204.3710  153.2600 O   0  0  0  0  0  1  0  0  0  0  0  0
  161.5820  207.2240  155.5760 O   0  0  0  0  0  1  0  0  0  0  0  0
  161.1630  206.8160  154.3110 C   0  0  0  0  0  2  0  0  0  0  0  0
  1 19  1  1  0  0  0
  1 22  1  0  0  0  0
  2  9  1  0  0  0  0
  2  3  1  0  0  0  0
  3 16  1  0  0  0  0
  4  5  1  0  0  0  0
  4 20  1  1  0  0  0
  5 15  1  6  0  0  0
  6 32  1  1  0  0  0
  6 19  1  0  0  0  0
  8 21  1  6  0  0  0
  8 23  1  0  0  0  0
 10  7  1  6  0  0  0
 10  1  1  0  0  0  0
 11  9  1  6  0  0  0
 11 10  1  0  0  0  0
 11 17  1  0  0  0  0
 12 22  1  0  0  0  0
 12 18  1  1  0  0  0
 13  8  1  0  0  0  0
 13 15  1  0  0  0  0
 14  7  1  6  0  0  0
 14  6  1  0  0  0  0
 17 16  1  6  0  0  0
 17 12  1  0  0  0  0
 18 23  1  0  0  0  0
 22  4  1  0  0  0  0
 23  5  1  0  0  0  0
 24 25  1  0  0  0  0
 24 26  1  0  0  0  0
 25 26  1  0  0  0  0
 25 14  1  0  0  0  0
 27 26  1  0  0  0  0
 27 28  1  0  0  0  0
 28 30  1  0  0  0  0
 29 28  2  0  0  0  0
 32 31  1  0  0  0  0
M  END
>  <MODEL>
8

>  <REMARK>
 VINA RESULT:      -4.2      4.325     10.016
  Name = 
  3 active torsions:
  status: ('A' for Active; 'I' for Inactive)
    1  A    between atoms: C_7  and  C_19
    2  A    between atoms: C_10  and  C_17
    3  A    between atoms: C_20  and  N_29
                            x       y       z     vdW  Elec       q    Type
                         _______ _______ _______ _____ _____    ______ ____

>  <TORSDO>
F 3

$$$$
=
 OpenBabel11122413033D

 32 37  0  0  1  0  0  0  0  0999 V2000
  160.2720  210.0660  152.4770 C   0  0  1  0  0  3  0  0  0  0  0  0
  159.6560  207.3990  156.7140 C   0  0  0  0  0  2  0  0  0  0  0  0
  160.9490  206.6410  156.4190 C   0  0  0  0  0  2  0  0  0  0  0  0
  161.9710  209.2870  150.7560 C   0  0  2  0  0  3  0  0  0  0  0  0
  162.0760  207.8770  150.1550 C   0  0  2  0  0  3  0  0  0  0  0  0
  159.1430  212.0210  152.1740 C   0  0  2  0  0  3  0  0  0  0  0  0
  158.7080  210.7370  154.1740 O   0  0  0  0  0  0  0  0  0  0  0  0
  161.7830  205.5650  150.8830 C   0  0  2  0  0  3  0  0  0  0  0  0
  159.7180  208.8020  156.1140 C   0  0  0  0  0  2  0  0  0  0  0  0
  159.9620  210.1230  153.9900 C   0  0  1  0  0  3  0  0  0  0  0  0
  159.9430  208.7180  154.6050 C   0  0  1  0  0  3  0  0  0  0  0  0
  161.4820  207.8990  152.8110 C   0  0  2  0  0  3  0  0  0  0  0  0
  160.4450  206.0610  150.3780 C   0  0  0  0  0  2  0  0  0  0  0  0
  158.7970  212.0550  153.6810 C   0  0  2  0  0  3  0  0  0  0  0  0
  160.7150  207.3850  149.6830 C   0  0  0  0  0  2  0  0  0  0  0  0
  161.1810  206.5610  154.9130 C   0  0  0  0  0  2  0  0  0  0  0  0
  161.2560  207.9670  154.3180 C   0  0  2  0  0  3  0  0  0  0  0  0
  162.6610  207.2000  152.4970 O   0  0  0  0  0  0  0  0  0  0  0  0
  160.3850  211.3810  151.9860 O   0  0  0  0  0  0  0  0  0  0  0  0
  163.1850  209.9530  150.5910 O   0  0  0  0  0  1  0  0  0  0  0  0
  161.6180  204.8070  152.0440 O   0  0  0  0  0  1  0  0  0  0  0  0
  161.5800  209.3110  152.2400 C   0  0  2  0  0  3  0  0  0  0  0  0
  162.6250  206.8120  151.1290 C   0  0  2  0  0  3  0  0  0  0  0  0
  156.4120  211.7450  154.3220 C   0  0  0  0  0  2  0  0  0  0  0  0
  157.4660  212.7570  153.9220 C   0  0  1  0  0  3  0  0  0  0  0  0
  157.0750  212.5990  155.3800 C   0  0  1  0  0  3  0  0  0  0  0  0
  156.1830  213.6830  155.7530 N   0  0  0  0  0  2  0  0  0  0  0  0
  155.1150  213.4870  156.6760 C   0  0  0  0  0  0  0  0  0  0  0  0
  154.3680  214.4530  156.9810 O   0  0  0  0  0  0  0  0  0  0  0  0
  154.8890  212.2380  157.2410 O   0  0  0  0  0  1  0  0  0  0  0  0
  158.5100  213.4910  150.4020 O   0  0  0  0  0  1  0  0  0  0  0  0
  159.2270  213.4270  151.5960 C   0  0  0  0  0  2  0  0  0  0  0  0
  1 19  1  1  0  0  0
  1 10  1  0  0  0  0
  3  2  1  0  0  0  0
  4 20  1  1  0  0  0
  4 22  1  0  0  0  0
  5 15  1  1  0  0  0
  5  4  1  0  0  0  0
  5 23  1  0  0  0  0
  6 32  1  1  0  0  0
  6 14  1  0  0  0  0
  8 23  1  0  0  0  0
  8 21  1  1  0  0  0
  9  2  1  0  0  0  0
 10  7  1  6  0  0  0
 10 11  1  0  0  0  0
 11  9  1  1  0  0  0
 12 18  1  1  0  0  0
 12 17  1  0  0  0  0
 13  8  1  0  0  0  0
 14 25  1  0  0  0  0
 14  7  1  6  0  0  0
 15 13  1  0  0  0  0
 16  3  1  0  0  0  0
 17 11  1  0  0  0  0
 17 16  1  6  0  0  0
 19  6  1  0  0  0  0
 22  1  1  0  0  0  0
 22 12  1  0  0  0  0
 23 18  1  0  0  0  0
 24 26  1  0  0  0  0
 25 24  1  0  0  0  0
 25 26  1  0  0  0  0
 26 27  1  0  0  0  0
 27 28  1  0  0  0  0
 28 29  2  0  0  0  0
 28 30  1  0  0  0  0
 31 32  1  0  0  0  0
M  END
>  <MODEL>
9

>  <REMARK>
 VINA RESULT:      -4.2      4.180      6.769
  Name = 
  3 active torsions:
  status: ('A' for Active; 'I' for Inactive)
    1  A    between atoms: C_7  and  C_19
    2  A    between atoms: C_10  and  C_17
    3  A    between atoms: C_20  and  N_29
                            x       y       z     vdW  Elec       q    Type
                         _______ _______ _______ _____ _____    ______ ____

>  <TORSDO>
F 3

$$$$
