=
 OpenBabel11122414393D

 34 41  0  0  1  0  0  0  0  0999 V2000
  161.9700  208.6400  149.5940 C   0  0  2  0  0  3  0  0  0  0  0  0
  162.4060  206.9170  147.8400 C   0  0  0  0  0  2  0  0  0  0  0  0
  160.1000  209.5420  155.7160 C   0  0  2  0  0  3  0  0  0  0  0  0
  161.9520  209.8510  151.7540 C   0  0  1  0  0  3  0  0  0  0  0  0
  160.9990  208.3920  153.6860 C   0  0  2  0  0  3  0  0  0  0  0  0
  160.0490  207.1590  155.5030 O   0  0  0  0  0  1  0  0  0  0  0  0
  158.8680  209.7270  155.0840 O   0  0  0  0  0  1  0  0  0  0  0  0
  161.5670  210.9530  154.1090 C   0  0  1  0  0  3  0  0  0  0  0  0
  160.8930  206.2480  149.5710 C   0  0  2  0  0  3  0  0  0  0  0  0
  160.4270  203.2860  150.2060 C   0  0  0  0  0  2  0  0  0  0  0  0
  161.8150  207.2840  153.1730 N   0  0  0  0  0  2  0  0  0  0  0  0
  162.7010  210.1190  154.0010 O   0  0  0  0  0  0  0  0  0  0  0  0
  161.5070  206.0390  150.9840 C   0  0  1  0  0  3  0  0  0  0  0  0
  162.2900  205.6000  147.7450 C   0  0  0  0  0  2  0  0  0  0  0  0
  161.5860  209.7420  153.2310 C   0  0  2  0  0  0  0  0  0  0  0  0
  160.9850  210.7730  155.5220 C   0  0  0  0  0  2  0  0  0  0  0  0
  161.5230  203.7250  149.2410 C   0  0  2  0  0  3  0  0  0  0  0  0
  161.4620  208.6010  151.0230 C   0  0  2  0  0  3  0  0  0  0  0  0
  160.8050  208.2910  155.1960 C   0  0  2  0  0  3  0  0  0  0  0  0
  161.9750  207.3270  151.6990 C   0  0  1  0  0  3  0  0  0  0  0  0
  162.0030  211.1250  149.8930 C   0  0  0  0  0  2  0  0  0  0  0  0
  160.7550  203.7290  151.6250 C   0  0  0  0  0  2  0  0  0  0  0  0
  161.3820  210.9900  151.1540 O   0  0  0  0  0  0  0  0  0  0  0  0
  160.5280  205.2220  151.8230 C   0  0  0  0  0  2  0  0  0  0  0  0
  161.1840  205.0820  148.6070 C   0  0  1  0  0  3  0  0  0  0  0  0
  161.5920  209.9780  148.9570 C   0  0  0  0  0  2  0  0  0  0  0  0
  161.3990  207.4760  148.7820 C   0  0  1  0  0  3  0  0  0  0  0  0
  161.6730  202.6690  148.1550 C   0  0  0  0  0  2  0  0  0  0  0  0
  160.5490  202.6730  147.3270 O   0  0  0  0  0  0  0  0  0  0  0  0
  159.1510  201.7980  144.8120 O   0  0  0  0  0  0  0  0  0  0  0  0
  160.6770  203.9390  145.0330 S   0  0  0  0  0  0  0  0  0  0  0  0
  161.0540  202.4870  146.0390 C   0  0  2  0  0  3  0  0  0  0  0  0
  159.5270  202.9210  144.0630 C   0  0  0  0  0  2  0  0  0  0  0  0
  160.3400  201.3280  145.3790 C   0  0  0  0  0  2  0  0  0  0  0  0
  1 26  1  6  0  0  0
  1 18  1  0  0  0  0
  2 27  1  0  0  0  0
  3  7  1  6  0  0  0
  4 23  1  6  0  0  0
  4 15  1  0  0  0  0
  5 11  1  1  0  0  0
  5 19  1  0  0  0  0
  8 16  1  1  0  0  0
  9 13  1  0  0  0  0
 10 22  1  0  0  0  0
 12  8  1  0  0  0  0
 13 20  1  0  0  0  0
 13 24  1  0  0  0  0
 14  2  1  0  0  0  0
 14 25  1  0  0  0  0
 15  5  1  0  0  0  0
 15 12  1  0  0  0  0
 15  8  1  0  0  0  0
 16  3  1  0  0  0  0
 17 10  1  0  0  0  0
 18 20  1  0  0  0  0
 18  4  1  0  0  0  0
 19  6  1  0  0  0  0
 19  3  1  0  0  0  0
 20 11  1  0  0  0  0
 21 23  1  0  0  0  0
 22 24  1  0  0  0  0
 25 17  1  0  0  0  0
 25  9  1  0  0  0  0
 26 21  1  0  0  0  0
 27  9  1  0  0  0  0
 27  1  1  0  0  0  0
 28 17  1  0  0  0  0
 29 28  1  0  0  0  0
 30 34  1  0  0  0  0
 31 32  1  0  0  0  0
 32 29  1  0  0  0  0
 33 30  1  0  0  0  0
 33 31  1  0  0  0  0
 34 32  1  0  0  0  0
M  END
>  <MODEL>
1

>  <REMARK>
 VINA RESULT:      -8.3      0.000      0.000
  Name = 
  3 active torsions:
  status: ('A' for Active; 'I' for Inactive)
    1  A    between atoms: C_17  and  C_28
    2  A    between atoms: C_28  and  O_29
    3  A    between atoms: O_29  and  C_32
                            x       y       z     vdW  Elec       q    Type
                         _______ _______ _______ _____ _____    ______ ____

>  <TORSDO>
F 3

$$$$
=
 OpenBabel11122414393D

 34 41  0  0  1  0  0  0  0  0999 V2000
  161.7470  206.5650  148.0670 C   0  0  2  0  0  3  0  0  0  0  0  0
  161.5870  208.5880  149.5200 C   0  0  0  0  0  2  0  0  0  0  0  0
  161.4020  200.1100  147.9970 C   0  0  2  0  0  3  0  0  0  0  0  0
  161.2610  204.3780  147.0090 C   0  0  1  0  0  3  0  0  0  0  0  0
  161.0630  202.4660  148.7610 C   0  0  2  0  0  3  0  0  0  0  0  0
  160.9590  200.6290  150.2910 O   0  0  0  0  0  1  0  0  0  0  0  0
  162.7860  200.2510  148.1270 O   0  0  0  0  0  1  0  0  0  0  0  0
  161.0070  201.9030  146.1650 C   0  0  1  0  0  3  0  0  0  0  0  0
  162.1550  206.5590  150.6580 C   0  0  2  0  0  3  0  0  0  0  0  0
  161.6370  206.2310  153.6610 C   0  0  0  0  0  2  0  0  0  0  0  0
  160.2540  203.3790  149.5790 N   0  0  0  0  0  2  0  0  0  0  0  0
  159.8280  202.5070  146.6520 O   0  0  0  0  0  0  0  0  0  0  0  0
  161.0360  205.4850  150.7570 C   0  0  1  0  0  3  0  0  0  0  0  0
  161.4130  208.8240  150.8130 C   0  0  0  0  0  2  0  0  0  0  0  0
  161.0230  202.8970  147.2830 C   0  0  2  0  0  0  0  0  0  0  0  0
  160.9700  200.4170  146.5640 C   0  0  0  0  0  2  0  0  0  0  0  0
  161.1090  207.4390  152.8950 C   0  0  2  0  0  3  0  0  0  0  0  0
  161.6710  205.0700  148.3090 C   0  0  2  0  0  3  0  0  0  0  0  0
  160.6610  201.0110  148.9820 C   0  0  2  0  0  3  0  0  0  0  0  0
  160.6590  204.7970  149.4260 C   0  0  1  0  0  3  0  0  0  0  0  0
  162.1990  205.9440  145.6840 C   0  0  0  0  0  2  0  0  0  0  0  0
  160.9270  204.9610  153.2120 C   0  0  0  0  0  2  0  0  0  0  0  0
  162.2630  204.5800  146.0420 O   0  0  0  0  0  0  0  0  0  0  0  0
  161.4150  204.4880  151.8490 C   0  0  0  0  0  2  0  0  0  0  0  0
  161.9690  207.7200  151.6530 C   0  0  1  0  0  3  0  0  0  0  0  0
  162.6390  206.8370  146.8550 C   0  0  0  0  0  2  0  0  0  0  0  0
  162.2810  207.2900  149.3030 C   0  0  1  0  0  3  0  0  0  0  0  0
  161.1200  208.6490  153.8180 C   0  0  0  0  0  2  0  0  0  0  0  0
  160.7650  208.2650  155.1120 O   0  0  0  0  0  0  0  0  0  0  0  0
  162.6780  209.2850  157.1960 O   0  0  0  0  0  0  0  0  0  0  0  0
  161.8690  210.6440  155.0840 S   0  0  0  0  0  0  0  0  0  0  0  0
  160.7430  209.4540  155.8440 C   0  0  2  0  0  3  0  0  0  0  0  0
  162.9490  210.4910  156.5360 C   0  0  0  0  0  2  0  0  0  0  0  0
  161.2830  209.2010  157.2350 C   0  0  0  0  0  2  0  0  0  0  0  0
  1 26  1  6  0  0  0
  1 18  1  0  0  0  0
  1 27  1  0  0  0  0
  2 14  1  0  0  0  0
  3  7  1  6  0  0  0
  3 19  1  0  0  0  0
  4 23  1  6  0  0  0
  4 15  1  0  0  0  0
  4 18  1  0  0  0  0
  5 19  1  0  0  0  0
  5 11  1  1  0  0  0
  8 16  1  1  0  0  0
  8 12  1  0  0  0  0
  8 15  1  0  0  0  0
  9 13  1  0  0  0  0
  9 25  1  0  0  0  0
 12 15  1  0  0  0  0
 13 24  1  0  0  0  0
 14 25  1  0  0  0  0
 15  5  1  0  0  0  0
 16  3  1  0  0  0  0
 17 10  1  0  0  0  0
 17 28  1  0  0  0  0
 18 20  1  0  0  0  0
 19  6  1  0  0  0  0
 20 11  1  0  0  0  0
 20 13  1  0  0  0  0
 21 23  1  0  0  0  0
 21 26  1  0  0  0  0
 22 10  1  0  0  0  0
 24 22  1  0  0  0  0
 25 17  1  0  0  0  0
 27  2  1  0  0  0  0
 27  9  1  0  0  0  0
 28 29  1  0  0  0  0
 29 32  1  0  0  0  0
 30 34  1  0  0  0  0
 31 32  1  0  0  0  0
 31 33  1  0  0  0  0
 32 34  1  0  0  0  0
 33 30  1  0  0  0  0
M  END
>  <MODEL>
2

>  <REMARK>
 VINA RESULT:      -7.7      2.835      8.605
  Name = 
  3 active torsions:
  status: ('A' for Active; 'I' for Inactive)
    1  A    between atoms: C_17  and  C_28
    2  A    between atoms: C_28  and  O_29
    3  A    between atoms: O_29  and  C_32
                            x       y       z     vdW  Elec       q    Type
                         _______ _______ _______ _____ _____    ______ ____

>  <TORSDO>
F 3

$$$$
=
 OpenBabel11122414393D

 34 41  0  0  1  0  0  0  0  0999 V2000
  161.7900  206.4390  147.4550 C   0  0  2  0  0  3  0  0  0  0  0  0
  161.7390  208.5910  148.7200 C   0  0  0  0  0  2  0  0  0  0  0  0
  161.3300  200.0150  148.0040 C   0  0  2  0  0  3  0  0  0  0  0  0
  161.2120  204.1760  146.6300 C   0  0  1  0  0  3  0  0  0  0  0  0
  161.0710  202.4380  148.5610 C   0  0  2  0  0  3  0  0  0  0  0  0
  161.0140  200.7530  150.2580 O   0  0  0  0  0  1  0  0  0  0  0  0
  162.7210  200.1360  148.0520 O   0  0  0  0  0  1  0  0  0  0  0  0
  160.8730  201.6390  146.0350 C   0  0  1  0  0  3  0  0  0  0  0  0
  162.3290  206.6630  150.0120 C   0  0  2  0  0  3  0  0  0  0  0  0
  161.9600  206.6250  153.0540 C   0  0  0  0  0  2  0  0  0  0  0  0
  160.3210  203.4400  149.3290 N   0  0  0  0  0  2  0  0  0  0  0  0
  159.7310  202.3120  146.5210 O   0  0  0  0  0  0  0  0  0  0  0  0
  161.1980  205.6280  150.2660 C   0  0  1  0  0  3  0  0  0  0  0  0
  161.6350  208.9490  149.9920 C   0  0  0  0  0  2  0  0  0  0  0  0
  160.9630  202.7320  147.0530 C   0  0  2  0  0  0  0  0  0  0  0  0
  160.8310  200.1980  146.5710 C   0  0  0  0  0  2  0  0  0  0  0  0
  161.4150  207.7690  152.2060 C   0  0  2  0  0  3  0  0  0  0  0  0
  161.7010  204.9750  147.8390 C   0  0  2  0  0  3  0  0  0  0  0  0
  160.6560  201.0190  148.9360 C   0  0  2  0  0  3  0  0  0  0  0  0
  160.7420  204.8290  149.0240 C   0  0  1  0  0  3  0  0  0  0  0  0
  162.1090  205.5920  145.1200 C   0  0  0  0  0  2  0  0  0  0  0  0
  161.2070  205.3350  152.7610 C   0  0  0  0  0  2  0  0  0  0  0  0
  162.1670  204.2660  145.6010 O   0  0  0  0  0  0  0  0  0  0  0  0
  161.6150  204.7280  151.4260 C   0  0  0  0  0  2  0  0  0  0  0  0
  162.2140  207.9150  150.9030 C   0  0  1  0  0  3  0  0  0  0  0  0
  162.6230  206.5800  146.1800 C   0  0  0  0  0  2  0  0  0  0  0  0
  162.3990  207.2640  148.5900 C   0  0  1  0  0  3  0  0  0  0  0  0
  161.4940  209.0580  153.0100 C   0  0  0  0  0  2  0  0  0  0  0  0
  160.4520  209.1050  153.9400 O   0  0  0  0  0  0  0  0  0  0  0  0
  158.6820  211.2640  152.8220 O   0  0  0  0  0  0  0  0  0  0  0  0
  158.9290  210.6780  155.3830 S   0  0  0  0  0  0  0  0  0  0  0  0
  160.3500  210.4520  154.2920 C   0  0  2  0  0  3  0  0  0  0  0  0
  158.1030  211.6000  154.0530 C   0  0  0  0  0  2  0  0  0  0  0  0
  160.0600  211.2770  153.0560 C   0  0  0  0  0  2  0  0  0  0  0  0
  1 26  1  6  0  0  0
  1 18  1  0  0  0  0
  1 27  1  0  0  0  0
  2 14  1  0  0  0  0
  3  7  1  6  0  0  0
  3 19  1  0  0  0  0
  4 23  1  6  0  0  0
  4 15  1  0  0  0  0
  4 18  1  0  0  0  0
  5 19  1  0  0  0  0
  5 11  1  1  0  0  0
  8 12  1  0  0  0  0
  8 16  1  1  0  0  0
  8 15  1  0  0  0  0
  9 13  1  0  0  0  0
  9 25  1  0  0  0  0
 12 15  1  0  0  0  0
 13 24  1  0  0  0  0
 14 25  1  0  0  0  0
 15  5  1  0  0  0  0
 16  3  1  0  0  0  0
 17 28  1  0  0  0  0
 17 10  1  0  0  0  0
 18 20  1  0  0  0  0
 19  6  1  0  0  0  0
 20 11  1  0  0  0  0
 20 13  1  0  0  0  0
 21 23  1  0  0  0  0
 21 26  1  0  0  0  0
 22 10  1  0  0  0  0
 24 22  1  0  0  0  0
 25 17  1  0  0  0  0
 27  2  1  0  0  0  0
 27  9  1  0  0  0  0
 28 29  1  0  0  0  0
 29 32  1  0  0  0  0
 30 34  1  0  0  0  0
 30 33  1  0  0  0  0
 32 31  1  0  0  0  0
 33 31  1  0  0  0  0
 34 32  1  0  0  0  0
M  END
>  <MODEL>
3

>  <REMARK>
 VINA RESULT:      -7.3      2.937      8.395
  Name = 
  3 active torsions:
  status: ('A' for Active; 'I' for Inactive)
    1  A    between atoms: C_17  and  C_28
    2  A    between atoms: C_28  and  O_29
    3  A    between atoms: O_29  and  C_32
                            x       y       z     vdW  Elec       q    Type
                         _______ _______ _______ _____ _____    ______ ____

>  <TORSDO>
F 3

$$$$
=
 OpenBabel11122414393D

 34 41  0  0  1  0  0  0  0  0999 V2000
  161.1750  204.3390  150.9950 C   0  0  2  0  0  3  0  0  0  0  0  0
  161.7190  205.7540  152.9790 C   0  0  0  0  0  2  0  0  0  0  0  0
  160.4810  204.3520  144.5680 C   0  0  2  0  0  3  0  0  0  0  0  0
  161.2590  203.2940  148.7510 C   0  0  1  0  0  3  0  0  0  0  0  0
  161.2250  205.0660  146.8460 C   0  0  2  0  0  3  0  0  0  0  0  0
  161.1010  206.6170  145.0280 O   0  0  0  0  0  1  0  0  0  0  0  0
  159.1440  204.5370  144.9300 O   0  0  0  0  0  1  0  0  0  0  0  0
  161.0770  202.4780  146.2600 C   0  0  1  0  0  3  0  0  0  0  0  0
  160.8850  206.9440  151.0760 C   0  0  2  0  0  3  0  0  0  0  0  0
  161.4740  209.9270  150.6940 C   0  0  0  0  0  2  0  0  0  0  0  0
  162.2040  205.8350  147.6240 N   0  0  0  0  0  2  0  0  0  0  0  0
  162.3580  202.9060  146.6710 O   0  0  0  0  0  0  0  0  0  0  0  0
  161.8210  207.0130  149.8370 C   0  0  1  0  0  3  0  0  0  0  0  0
  161.9860  207.0350  153.1940 C   0  0  0  0  0  2  0  0  0  0  0  0
  161.2690  203.5800  147.2530 C   0  0  2  0  0  0  0  0  0  0  0  0
  160.8930  202.8970  144.7900 C   0  0  0  0  0  2  0  0  0  0  0  0
  162.1540  209.1220  151.7960 C   0  0  2  0  0  3  0  0  0  0  0  0
  161.0210  204.6000  149.5100 C   0  0  2  0  0  3  0  0  0  0  0  0
  161.3980  205.2910  145.3470 C   0  0  2  0  0  3  0  0  0  0  0  0
  162.0250  205.6770  149.0870 C   0  0  1  0  0  3  0  0  0  0  0  0
  160.5260  201.9860  150.4360 C   0  0  0  0  0  2  0  0  0  0  0  0
  161.9510  209.4680  149.3230 C   0  0  0  0  0  2  0  0  0  0  0  0
  160.2600  202.3670  149.1030 O   0  0  0  0  0  0  0  0  0  0  0  0
  161.3360  208.1350  148.9230 C   0  0  0  0  0  2  0  0  0  0  0  0
  161.2970  207.9140  152.2000 C   0  0  1  0  0  3  0  0  0  0  0  0
  160.2860  203.1610  151.3980 C   0  0  0  0  0  2  0  0  0  0  0  0
  160.8180  205.5850  151.8070 C   0  0  1  0  0  3  0  0  0  0  0  0
  162.3770  210.0260  152.9990 C   0  0  0  0  0  2  0  0  0  0  0  0
  161.2180  210.7580  153.2680 O   0  0  0  0  0  0  0  0  0  0  0  0
  159.1230  210.9420  155.4170 O   0  0  0  0  0  0  0  0  0  0  0  0
  161.4190  209.6600  155.6420 S   0  0  0  0  0  0  0  0  0  0  0  0
  161.3380  211.1380  154.6060 C   0  0  2  0  0  3  0  0  0  0  0  0
  159.7830  210.0850  156.3080 C   0  0  0  0  0  2  0  0  0  0  0  0
  160.0890  211.8770  155.0340 C   0  0  0  0  0  2  0  0  0  0  0  0
  1 26  1  1  0  0  0
  1 27  1  0  0  0  0
  2 14  1  0  0  0  0
  3 16  1  0  0  0  0
  3  7  1  1  0  0  0
  3 19  1  0  0  0  0
  4 23  1  6  0  0  0
  4 18  1  0  0  0  0
  5 15  1  0  0  0  0
  5 11  1  1  0  0  0
  6 19  1  0  0  0  0
  8 16  1  6  0  0  0
  8 12  1  0  0  0  0
  8 15  1  0  0  0  0
  9 27  1  0  0  0  0
  9 25  1  0  0  0  0
 10 17  1  0  0  0  0
 11 20  1  0  0  0  0
 12 15  1  0  0  0  0
 13  9  1  0  0  0  0
 15  4  1  0  0  0  0
 17 25  1  0  0  0  0
 17 28  1  0  0  0  0
 18  1  1  0  0  0  0
 19  5  1  0  0  0  0
 20 18  1  0  0  0  0
 20 13  1  0  0  0  0
 21 26  1  0  0  0  0
 22 10  1  0  0  0  0
 23 21  1  0  0  0  0
 24 22  1  0  0  0  0
 24 13  1  0  0  0  0
 25 14  1  0  0  0  0
 27  2  1  0  0  0  0
 28 29  1  0  0  0  0
 29 32  1  0  0  0  0
 30 33  1  0  0  0  0
 31 33  1  0  0  0  0
 32 34  1  0  0  0  0
 32 31  1  0  0  0  0
 34 30  1  0  0  0  0
M  END
>  <MODEL>
4

>  <REMARK>
 VINA RESULT:      -7.2      2.753      8.936
  Name = 
  3 active torsions:
  status: ('A' for Active; 'I' for Inactive)
    1  A    between atoms: C_17  and  C_28
    2  A    between atoms: C_28  and  O_29
    3  A    between atoms: O_29  and  C_32
                            x       y       z     vdW  Elec       q    Type
                         _______ _______ _______ _____ _____    ______ ____

>  <TORSDO>
F 3

$$$$
=
 OpenBabel11122414393D

 34 41  0  0  1  0  0  0  0  0999 V2000
  160.5840  207.5450  154.5270 C   0  0  2  0  0  3  0  0  0  0  0  0
  161.2870  205.9810  152.7130 C   0  0  0  0  0  2  0  0  0  0  0  0
  159.1090  213.6910  155.8820 C   0  0  2  0  0  3  0  0  0  0  0  0
  159.3910  209.3180  155.7800 C   0  0  1  0  0  3  0  0  0  0  0  0
  159.4700  211.6080  154.5480 C   0  0  2  0  0  3  0  0  0  0  0  0
  159.5740  213.7730  153.5350 O   0  0  0  0  0  1  0  0  0  0  0  0
  160.4570  213.7060  156.2520 O   0  0  0  0  0  1  0  0  0  0  0  0
  158.4350  211.4460  156.9890 C   0  0  1  0  0  3  0  0  0  0  0  0
  161.8430  208.2810  152.3480 C   0  0  2  0  0  3  0  0  0  0  0  0
  162.3310  209.3600  149.5210 C   0  0  0  0  0  2  0  0  0  0  0  0
  159.1620  210.8850  153.3070 N   0  0  0  0  0  2  0  0  0  0  0  0
  157.6180  210.8990  155.9760 O   0  0  0  0  0  0  0  0  0  0  0  0
  160.6550  209.2460  152.0750 C   0  0  1  0  0  3  0  0  0  0  0  0
  161.6080  206.0880  151.4310 C   0  0  0  0  0  2  0  0  0  0  0  0
  159.0050  210.7940  155.7700 C   0  0  2  0  0  0  0  0  0  0  0  0
  158.2760  212.9750  156.9440 C   0  0  0  0  0  2  0  0  0  0  0  0
  161.7950  207.9510  149.7470 C   0  0  2  0  0  3  0  0  0  0  0  0
  160.3350  209.0380  154.6100 C   0  0  2  0  0  3  0  0  0  0  0  0
  158.9190  213.0300  154.5190 C   0  0  2  0  0  3  0  0  0  0  0  0
  159.7330  209.5160  153.2850 C   0  0  1  0  0  3  0  0  0  0  0  0
  160.0810  207.5370  156.9800 C   0  0  0  0  0  2  0  0  0  0  0  0
  161.3000  210.3990  149.9390 C   0  0  0  0  0  2  0  0  0  0  0  0
  160.0230  208.9470  156.9810 O   0  0  0  0  0  0  0  0  0  0  0  0
  161.2030  210.5270  151.4530 C   0  0  0  0  0  2  0  0  0  0  0  0
  162.2150  207.4190  151.1260 C   0  0  1  0  0  3  0  0  0  0  0  0
  161.0420  207.0310  155.8930 C   0  0  0  0  0  2  0  0  0  0  0  0
  161.6260  207.2250  153.4550 C   0  0  1  0  0  3  0  0  0  0  0  0
  162.3320  207.0390  148.6540 C   0  0  0  0  0  2  0  0  0  0  0  0
  161.7100  207.3330  147.4390 O   0  0  0  0  0  0  0  0  0  0  0  0
  161.4400  205.4590  145.1030 O   0  0  0  0  0  0  0  0  0  0  0  0
  161.6290  204.7180  147.6280 S   0  0  0  0  0  0  0  0  0  0  0  0
  160.8150  206.2810  147.2320 C   0  0  2  0  0  3  0  0  0  0  0  0
  161.5810  204.2910  145.8630 C   0  0  0  0  0  2  0  0  0  0  0  0
  160.4590  206.2030  145.7630 C   0  0  0  0  0  2  0  0  0  0  0  0
  1 18  1  0  0  0  0
  1 26  1  1  0  0  0
  2 27  1  0  0  0  0
  3  7  1  1  0  0  0
  3 16  1  0  0  0  0
  4 23  1  1  0  0  0
  5 11  1  6  0  0  0
  5 15  1  0  0  0  0
  6 19  1  0  0  0  0
  8 16  1  6  0  0  0
  9 27  1  0  0  0  0
 10 17  1  0  0  0  0
 10 22  1  0  0  0  0
 12  8  1  0  0  0  0
 13  9  1  0  0  0  0
 13 20  1  0  0  0  0
 14  2  1  0  0  0  0
 15  4  1  0  0  0  0
 15 12  1  0  0  0  0
 15  8  1  0  0  0  0
 17 25  1  0  0  0  0
 18  4  1  0  0  0  0
 19  5  1  0  0  0  0
 19  3  1  0  0  0  0
 20 11  1  0  0  0  0
 20 18  1  0  0  0  0
 21 23  1  0  0  0  0
 22 24  1  0  0  0  0
 24 13  1  0  0  0  0
 25 14  1  0  0  0  0
 25  9  1  0  0  0  0
 26 21  1  0  0  0  0
 27  1  1  0  0  0  0
 28 17  1  0  0  0  0
 29 28  1  0  0  0  0
 30 34  1  0  0  0  0
 30 33  1  0  0  0  0
 32 29  1  0  0  0  0
 32 31  1  0  0  0  0
 33 31  1  0  0  0  0
 34 32  1  0  0  0  0
M  END
>  <MODEL>
5

>  <REMARK>
 VINA RESULT:      -7.0      2.425      4.906
  Name = 
  3 active torsions:
  status: ('A' for Active; 'I' for Inactive)
    1  A    between atoms: C_17  and  C_28
    2  A    between atoms: C_28  and  O_29
    3  A    between atoms: O_29  and  C_32
                            x       y       z     vdW  Elec       q    Type
                         _______ _______ _______ _____ _____    ______ ____

>  <TORSDO>
F 3

$$$$
=
 OpenBabel11122414393D

 34 41  0  0  1  0  0  0  0  0999 V2000
  161.9440  206.9940  148.0700 C   0  0  2  0  0  3  0  0  0  0  0  0
  161.8300  209.4350  148.5790 C   0  0  0  0  0  2  0  0  0  0  0  0
  161.1990  201.0730  150.5560 C   0  0  2  0  0  3  0  0  0  0  0  0
  161.3810  204.5850  147.9390 C   0  0  1  0  0  3  0  0  0  0  0  0
  160.9670  203.5470  150.2880 C   0  0  2  0  0  3  0  0  0  0  0  0
  160.6620  202.4860  152.4110 O   0  0  0  0  0  1  0  0  0  0  0  0
  162.5800  201.2060  150.7250 O   0  0  0  0  0  1  0  0  0  0  0  0
  161.0210  201.9890  148.1370 C   0  0  1  0  0  3  0  0  0  0  0  0
  162.2050  208.0170  150.4710 C   0  0  2  0  0  3  0  0  0  0  0  0
  161.5000  208.9440  153.3060 C   0  0  0  0  0  2  0  0  0  0  0  0
  160.1710  204.7400  150.6100 N   0  0  0  0  0  2  0  0  0  0  0  0
  159.8560  202.7790  148.2500 O   0  0  0  0  0  0  0  0  0  0  0  0
  161.0160  207.1130  150.9050 C   0  0  1  0  0  3  0  0  0  0  0  0
  161.5980  210.1770  149.6530 C   0  0  0  0  0  2  0  0  0  0  0  0
  161.0360  203.3480  148.7630 C   0  0  2  0  0  0  0  0  0  0  0  0
  160.8690  200.7920  149.0910 C   0  0  0  0  0  2  0  0  0  0  0  0
  161.0930  209.7590  152.0840 C   0  0  2  0  0  3  0  0  0  0  0  0
  161.7610  205.7260  148.8830 C   0  0  2  0  0  3  0  0  0  0  0  0
  160.4630  202.3200  151.0400 C   0  0  2  0  0  3  0  0  0  0  0  0
  160.6730  205.9610  149.9340 C   0  0  1  0  0  3  0  0  0  0  0  0
  162.4890  205.4510  146.1750 C   0  0  0  0  0  2  0  0  0  0  0  0
  160.7380  207.6260  153.3490 C   0  0  0  0  0  2  0  0  0  0  0  0
  162.4470  204.3450  147.0520 O   0  0  0  0  0  0  0  0  0  0  0  0
  161.2710  206.6280  152.3300 C   0  0  0  0  0  2  0  0  0  0  0  0
  162.0360  209.4860  150.9030 C   0  0  1  0  0  3  0  0  0  0  0  0
  162.9170  206.7240  146.9220 C   0  0  0  0  0  2  0  0  0  0  0  0
  162.4520  208.1360  148.9510 C   0  0  1  0  0  3  0  0  0  0  0  0
  161.1280  211.2370  152.4450 C   0  0  0  0  0  2  0  0  0  0  0  0
  160.2140  211.5000  153.4680 O   0  0  0  0  0  0  0  0  0  0  0  0
  157.8000  213.1760  154.1040 O   0  0  0  0  0  0  0  0  0  0  0  0
  158.9390  212.9960  151.7310 S   0  0  0  0  0  0  0  0  0  0  0  0
  158.9730  211.5630  152.8300 C   0  0  2  0  0  3  0  0  0  0  0  0
  157.7200  213.7660  152.8350 C   0  0  0  0  0  2  0  0  0  0  0  0
  157.8890  211.8030  153.8580 C   0  0  0  0  0  2  0  0  0  0  0  0
  1 26  1  6  0  0  0
  1 18  1  0  0  0  0
  1 27  1  0  0  0  0
  2 27  1  0  0  0  0
  2 14  1  0  0  0  0
  3  7  1  6  0  0  0
  3 19  1  0  0  0  0
  4 23  1  6  0  0  0
  4 15  1  0  0  0  0
  4 18  1  0  0  0  0
  5 11  1  6  0  0  0
  5 19  1  0  0  0  0
  8 12  1  0  0  0  0
  8 15  1  0  0  0  0
  8 16  1  1  0  0  0
  9 25  1  0  0  0  0
  9 13  1  0  0  0  0
 10 22  1  0  0  0  0
 12 15  1  0  0  0  0
 13 24  1  0  0  0  0
 14 25  1  0  0  0  0
 15  5  1  0  0  0  0
 16  3  1  0  0  0  0
 17 28  1  0  0  0  0
 17 10  1  0  0  0  0
 18 20  1  0  0  0  0
 19  6  1  0  0  0  0
 20 11  1  0  0  0  0
 20 13  1  0  0  0  0
 21 26  1  0  0  0  0
 21 23  1  0  0  0  0
 24 22  1  0  0  0  0
 25 17  1  0  0  0  0
 27  9  1  0  0  0  0
 28 29  1  0  0  0  0
 31 32  1  0  0  0  0
 31 33  1  0  0  0  0
 32 29  1  0  0  0  0
 32 34  1  0  0  0  0
 33 30  1  0  0  0  0
 34 30  1  0  0  0  0
M  END
>  <MODEL>
6

>  <REMARK>
 VINA RESULT:      -6.2      2.954      8.034
  Name = 
  3 active torsions:
  status: ('A' for Active; 'I' for Inactive)
    1  A    between atoms: C_17  and  C_28
    2  A    between atoms: C_28  and  O_29
    3  A    between atoms: O_29  and  C_32
                            x       y       z     vdW  Elec       q    Type
                         _______ _______ _______ _____ _____    ______ ____

>  <TORSDO>
F 3

$$$$
=
 OpenBabel11122414393D

 34 41  0  0  1  0  0  0  0  0999 V2000
  161.2060  203.7300  150.8750 C   0  0  2  0  0  3  0  0  0  0  0  0
  161.8250  205.7720  152.1700 C   0  0  0  0  0  2  0  0  0  0  0  0
  160.0690  201.4190  144.9450 C   0  0  2  0  0  3  0  0  0  0  0  0
  161.1780  201.9490  149.1530 C   0  0  1  0  0  3  0  0  0  0  0  0
  160.9370  202.9160  146.7500 C   0  0  2  0  0  3  0  0  0  0  0  0
  160.6220  203.7070  144.5140 O   0  0  0  0  0  1  0  0  0  0  0  0
  158.7530  201.7030  145.3220 O   0  0  0  0  0  1  0  0  0  0  0  0
  160.8590  200.2890  147.1410 C   0  0  1  0  0  3  0  0  0  0  0  0
  160.8120  206.1850  150.0410 C   0  0  2  0  0  3  0  0  0  0  0  0
  161.2460  208.8400  148.5720 C   0  0  0  0  0  2  0  0  0  0  0  0
  161.9350  203.9280  147.1200 N   0  0  0  0  0  2  0  0  0  0  0  0
  162.1460  200.8550  147.2690 O   0  0  0  0  0  0  0  0  0  0  0  0
  161.6570  205.8180  148.7890 C   0  0  1  0  0  3  0  0  0  0  0  0
  162.0520  207.0480  151.8920 C   0  0  0  0  0  2  0  0  0  0  0  0
  161.0720  201.6770  147.6560 C   0  0  2  0  0  0  0  0  0  0  0  0
  160.5560  200.1480  145.6390 C   0  0  0  0  0  2  0  0  0  0  0  0
  162.0340  208.4950  149.8310 C   0  0  2  0  0  3  0  0  0  0  0  0
  160.9390  203.4370  149.4110 C   0  0  2  0  0  3  0  0  0  0  0  0
  160.9970  202.5900  145.2610 C   0  0  2  0  0  3  0  0  0  0  0  0
  161.8640  204.3050  148.5530 C   0  0  1  0  0  3  0  0  0  0  0  0
  160.6200  201.3240  151.2470 C   0  0  0  0  0  2  0  0  0  0  0  0
  161.6470  207.9250  147.4230 C   0  0  0  0  0  2  0  0  0  0  0  0
  160.2460  201.1970  149.8920 O   0  0  0  0  0  0  0  0  0  0  0  0
  161.0620  206.5280  147.5760 C   0  0  0  0  0  2  0  0  0  0  0  0
  161.2600  207.5000  150.7080 C   0  0  1  0  0  3  0  0  0  0  0  0
  160.3980  202.7630  151.7410 C   0  0  0  0  0  2  0  0  0  0  0  0
  160.8530  205.1790  151.2130 C   0  0  1  0  0  3  0  0  0  0  0  0
  162.3020  209.7750  150.6100 C   0  0  0  0  0  2  0  0  0  0  0  0
  161.2060  210.6350  150.5040 O   0  0  0  0  0  0  0  0  0  0  0  0
  161.2300  212.1350  147.8990 O   0  0  0  0  0  0  0  0  0  0  0  0
  160.4590  213.1320  150.2170 S   0  0  0  0  0  0  0  0  0  0  0  0
  161.7580  211.8780  150.1910 C   0  0  2  0  0  3  0  0  0  0  0  0
  160.6310  213.2920  148.4160 C   0  0  0  0  0  2  0  0  0  0  0  0
  162.2840  211.8540  148.7730 C   0  0  0  0  0  2  0  0  0  0  0  0
  1 27  1  0  0  0  0
  1 26  1  1  0  0  0
  3 19  1  0  0  0  0
  3  7  1  1  0  0  0
  3 16  1  0  0  0  0
  4 18  1  0  0  0  0
  4 23  1  1  0  0  0
  5 11  1  1  0  0  0
  5 15  1  0  0  0  0
  6 19  1  0  0  0  0
  8 16  1  6  0  0  0
  8 12  1  0  0  0  0
  8 15  1  0  0  0  0
  9 25  1  0  0  0  0
  9 27  1  0  0  0  0
 10 17  1  0  0  0  0
 11 20  1  0  0  0  0
 12 15  1  0  0  0  0
 13  9  1  0  0  0  0
 14  2  1  0  0  0  0
 15  4  1  0  0  0  0
 17 28  1  0  0  0  0
 17 25  1  0  0  0  0
 18  1  1  0  0  0  0
 19  5  1  0  0  0  0
 20 13  1  0  0  0  0
 20 18  1  0  0  0  0
 21 26  1  0  0  0  0
 22 24  1  0  0  0  0
 22 10  1  0  0  0  0
 23 21  1  0  0  0  0
 24 13  1  0  0  0  0
 25 14  1  0  0  0  0
 27  2  1  0  0  0  0
 29 28  1  0  0  0  0
 30 33  1  0  0  0  0
 30 34  1  0  0  0  0
 32 31  1  0  0  0  0
 32 29  1  0  0  0  0
 33 31  1  0  0  0  0
 34 32  1  0  0  0  0
M  END
>  <MODEL>
7

>  <REMARK>
 VINA RESULT:      -5.3      3.259      8.813
  Name = 
  3 active torsions:
  status: ('A' for Active; 'I' for Inactive)
    1  A    between atoms: C_17  and  C_28
    2  A    between atoms: C_28  and  O_29
    3  A    between atoms: O_29  and  C_32
                            x       y       z     vdW  Elec       q    Type
                         _______ _______ _______ _____ _____    ______ ____

>  <TORSDO>
F 3

$$$$
