=
 OpenBabel11122413333D

 37 43  0  0  1  0  0  0  0  0999 V2000
  160.9290  207.3250  151.1470 C   0  0  0  0  0  2  0  0  0  0  0  0
  160.4180  208.2180  156.1140 C   0  0  0  0  0  0  0  0  0  0  0  0
  160.5350  211.2030  153.2260 C   0  0  0  0  0  0  0  0  0  0  0  0
  161.4490  206.1400  150.4560 N   0  0  0  0  0  0  0  0  0  0  0  0
  162.5520  210.7490  150.0580 O   0  0  0  0  0  0  0  0  0  0  0  0
  159.6310  210.4310  155.3160 C   0  0  0  0  0  0  0  0  0  0  0  0
  161.2520  210.6240  152.1990 C   0  0  0  0  0  0  0  0  0  0  0  0
  161.7250  207.5460  148.3070 C   0  0  2  0  0  3  0  0  0  0  0  0
  160.4280  210.2700  154.2070 C   0  0  0  0  0  0  0  0  0  0  0  0
  161.5410  211.3210  150.8730 C   0  0  2  0  0  3  0  0  0  0  0  0
  158.9110  211.6320  155.4420 C   0  0  0  0  0  3  0  0  0  0  0  0
  162.2430  206.4270  149.2420 C   0  0  0  0  0  2  0  0  0  0  0  0
  161.0100  209.1200  153.8770 N   0  0  0  0  0  0  0  0  0  0  0  0
  159.7280  207.0140  156.7180 C   0  0  0  0  0  1  0  0  0  0  0  0
  159.7420  213.2980  152.0900 C   0  0  0  0  0  2  0  0  0  0  0  0
  158.9910  212.6090  154.4150 C   0  0  0  0  0  3  0  0  0  0  0  0
  160.8010  207.8900  154.6430 C   0  0  0  0  0  2  0  0  0  0  0  0
  162.4660  208.8760  148.4930 C   0  0  0  0  0  2  0  0  0  0  0  0
  162.2470  209.3970  149.8990 C   0  0  1  0  0  3  0  0  0  0  0  0
  159.8020  212.3900  153.2760 C   0  0  0  0  0  0  0  0  0  0  0  0
  161.5020  209.2970  152.6250 C   0  0  0  0  0  0  0  0  0  0  0  0
  159.5440  209.3630  156.2170 O   0  0  0  0  0  0  0  0  0  0  0  0
  160.2900  211.7570  150.0780 C   0  0  1  0  0  3  0  0  0  0  0  0
  161.6860  208.4880  156.9020 C   0  0  0  0  0  1  0  0  0  0  0  0
  162.9750  208.6410  150.8290 O   0  0  0  0  0  0  0  0  0  0  0  0
  160.3510  207.7100  148.3620 F   0  0  0  0  0  0  0  0  0  0  0  0
  162.0520  208.1690  151.7820 C   0  0  2  0  0  3  0  0  0  0  0  0
  159.2120  212.5220  150.8790 C   0  0  0  0  0  2  0  0  0  0  0  0
  161.3830  213.7140  148.9730 C   0  0  0  0  0  3  0  0  0  0  0  0
  160.6610  212.5230  148.8450 C   0  0  0  0  0  0  0  0  0  0  0  0
  160.2860  212.0710  147.5710 C   0  0  0  0  0  3  0  0  0  0  0  0
  160.2630  212.3580  145.1760 O   0  0  0  0  0  1  0  0  0  0  0  0
  161.3570  213.9970  146.5670 C   0  0  0  0  0  3  0  0  0  0  0  0
  160.6350  212.8080  146.4350 C   0  0  0  0  0  0  0  0  0  0  0  0
  161.7310  214.4510  147.8350 C   0  0  0  0  0  3  0  0  0  0  0  0
  160.8060  204.0110  149.4700 C   0  0  0  0  0  1  0  0  0  0  0  0
  160.3150  205.3140  150.0700 C   0  0  0  0  0  2  0  0  0  0  0  0
  2 22  1  0  0  0  0
  2 14  1  0  0  0  0
  2 24  1  0  0  0  0
  3 20  2  0  0  0  0
  3  9  1  0  0  0  0
  4  1  1  0  0  0  0
  6 11  1  0  0  0  0
  6 22  1  0  0  0  0
  7 21  2  0  0  0  0
  7  3  1  0  0  0  0
  8 26  1  1  0  0  0
  8 18  1  0  0  0  0
  8 12  1  0  0  0  0
  9  6  2  0  0  0  0
 10  5  1  6  0  0  0
 10  7  1  0  0  0  0
 12  4  1  0  0  0  0
 13  9  1  0  0  0  0
 13 17  1  0  0  0  0
 15 20  1  0  0  0  0
 16 11  2  0  0  0  0
 17  2  1  0  0  0  0
 19 18  1  6  0  0  0
 19  5  1  0  0  0  0
 19 25  1  0  0  0  0
 20 16  1  0  0  0  0
 21 13  1  0  0  0  0
 23 30  1  6  0  0  0
 23 10  1  0  0  0  0
 23 28  1  0  0  0  0
 25 27  1  0  0  0  0
 27  1  1  6  0  0  0
 27 21  1  0  0  0  0
 28 15  1  0  0  0  0
 30 29  1  0  0  0  0
 31 30  2  0  0  0  0
 32 34  1  0  0  0  0
 33 35  1  0  0  0  0
 34 33  2  0  0  0  0
 34 31  1  0  0  0  0
 35 29  2  0  0  0  0
 36 37  1  0  0  0  0
 37  4  1  0  0  0  0
M  END
>  <MODEL>
1

>  <REMARK>
 VINA RESULT:      -4.8      0.000      0.000
  Name = 
  2 active torsions:
  status: ('A' for Active; 'I' for Inactive)
    1  A    between atoms: N_4  and  C_37
    2  A    between atoms: C_23  and  C_30
                            x       y       z     vdW  Elec       q    Type
                         _______ _______ _______ _____ _____    ______ ____

>  <TORSDO>
F 2

$$$$
=
 OpenBabel11122413333D

 37 43  0  0  1  0  0  0  0  0999 V2000
  160.8870  208.9370  151.2620 C   0  0  0  0  0  2  0  0  0  0  0  0
  159.2270  211.3580  155.3980 C   0  0  0  0  0  0  0  0  0  0  0  0
  159.4680  213.1040  151.6360 C   0  0  0  0  0  0  0  0  0  0  0  0
  161.7170  207.7320  151.1500 N   0  0  0  0  0  0  0  0  0  0  0  0
  162.1420  212.0400  149.1800 O   0  0  0  0  0  0  0  0  0  0  0  0
  158.2850  212.9230  153.7210 C   0  0  0  0  0  0  0  0  0  0  0  0
  160.4630  212.3790  151.0120 C   0  0  0  0  0  0  0  0  0  0  0  0
  162.2070  208.3300  148.6860 C   0  0  2  0  0  3  0  0  0  0  0  0
  159.3080  212.5690  152.8740 C   0  0  0  0  0  0  0  0  0  0  0  0
  160.9070  212.6180  149.5720 C   0  0  2  0  0  3  0  0  0  0  0  0
  157.3740  213.9020  153.2830 C   0  0  0  0  0  3  0  0  0  0  0  0
  162.6900  207.7490  150.0360 C   0  0  0  0  0  2  0  0  0  0  0  0
  160.1190  211.5360  153.0880 N   0  0  0  0  0  0  0  0  0  0  0  0
  158.6250  210.3170  156.3180 C   0  0  0  0  0  1  0  0  0  0  0  0
  158.6080  214.4430  149.6920 C   0  0  0  0  0  2  0  0  0  0  0  0
  157.5110  214.4530  151.9820 C   0  0  0  0  0  3  0  0  0  0  0  0
  159.9520  210.6350  154.2290 C   0  0  0  0  0  2  0  0  0  0  0  0
  162.6750  209.7710  148.4490 C   0  0  0  0  0  2  0  0  0  0  0  0
  162.0920  210.6850  149.5080 C   0  0  1  0  0  3  0  0  0  0  0  0
  158.5630  214.0390  151.1320 C   0  0  0  0  0  0  0  0  0  0  0  0
  160.8250  211.3730  151.9410 C   0  0  0  0  0  0  0  0  0  0  0  0
  158.1820  212.2430  154.9400 O   0  0  0  0  0  0  0  0  0  0  0  0
  159.7940  212.4630  148.5110 C   0  0  1  0  0  3  0  0  0  0  0  0
  160.2470  212.1590  156.1870 C   0  0  0  0  0  1  0  0  0  0  0  0
  162.7210  210.4790  150.7440 O   0  0  0  0  0  0  0  0  0  0  0  0
  160.8430  208.1940  148.4900 F   0  0  0  0  0  0  0  0  0  0  0  0
  161.7070  210.1750  151.6720 C   0  0  2  0  0  3  0  0  0  0  0  0
  158.4680  213.1980  148.8090 C   0  0  0  0  0  2  0  0  0  0  0  0
  161.2360  213.8330  146.9980 C   0  0  0  0  0  3  0  0  0  0  0  0
  160.2870  212.8150  147.1410 C   0  0  0  0  0  0  0  0  0  0  0  0
  159.8040  212.1510  146.0040 C   0  0  0  0  0  3  0  0  0  0  0  0
  159.7910  211.8450  143.6110 O   0  0  0  0  0  1  0  0  0  0  0  0
  161.2190  213.5210  144.5960 C   0  0  0  0  0  3  0  0  0  0  0  0
  160.2710  212.5040  144.7340 C   0  0  0  0  0  0  0  0  0  0  0  0
  161.7020  214.1870  145.7280 C   0  0  0  0  0  3  0  0  0  0  0  0
  161.4310  205.3600  151.6060 C   0  0  0  0  0  1  0  0  0  0  0  0
  160.8310  206.5940  150.9600 C   0  0  0  0  0  2  0  0  0  0  0  0
  2 24  1  0  0  0  0
  2 14  1  0  0  0  0
  3  9  1  0  0  0  0
  4  1  1  0  0  0  0
  5 19  1  0  0  0  0
  6 22  1  0  0  0  0
  7  3  1  0  0  0  0
  7 21  2  0  0  0  0
  8 26  1  1  0  0  0
  8 12  1  0  0  0  0
  9 13  1  0  0  0  0
  9  6  2  0  0  0  0
 10  5  1  6  0  0  0
 10  7  1  0  0  0  0
 11  6  1  0  0  0  0
 12  4  1  0  0  0  0
 13 17  1  0  0  0  0
 15 20  1  0  0  0  0
 16 11  2  0  0  0  0
 17  2  1  0  0  0  0
 18  8  1  0  0  0  0
 19 18  1  6  0  0  0
 19 25  1  0  0  0  0
 20  3  2  0  0  0  0
 20 16  1  0  0  0  0
 21 13  1  0  0  0  0
 22  2  1  0  0  0  0
 23 30  1  6  0  0  0
 23 28  1  0  0  0  0
 23 10  1  0  0  0  0
 25 27  1  0  0  0  0
 27  1  1  6  0  0  0
 27 21  1  0  0  0  0
 28 15  1  0  0  0  0
 29 30  1  0  0  0  0
 31 30  2  0  0  0  0
 32 34  1  0  0  0  0
 33 34  2  0  0  0  0
 33 35  1  0  0  0  0
 34 31  1  0  0  0  0
 35 29  2  0  0  0  0
 37  4  1  0  0  0  0
 37 36  1  0  0  0  0
M  END
>  <MODEL>
2

>  <REMARK>
 VINA RESULT:      -4.7      1.691      2.404
  Name = 
  2 active torsions:
  status: ('A' for Active; 'I' for Inactive)
    1  A    between atoms: N_4  and  C_37
    2  A    between atoms: C_23  and  C_30
                            x       y       z     vdW  Elec       q    Type
                         _______ _______ _______ _____ _____    ______ ____

>  <TORSDO>
F 2

$$$$
=
 OpenBabel11122413333D

 37 43  0  0  1  0  0  0  0  0999 V2000
  160.8300  210.2920  147.8650 C   0  0  0  0  0  2  0  0  0  0  0  0
  161.8110  205.4980  146.5300 C   0  0  0  0  0  0  0  0  0  0  0  0
  161.7100  206.8300  150.4640 C   0  0  0  0  0  0  0  0  0  0  0  0
  160.9250  211.5240  147.0730 N   0  0  0  0  0  0  0  0  0  0  0  0
  162.7070  210.3750  151.3300 O   0  0  0  0  0  0  0  0  0  0  0  0
  161.2600  205.0540  148.9080 C   0  0  0  0  0  0  0  0  0  0  0  0
  162.0140  208.1720  150.3540 C   0  0  0  0  0  0  0  0  0  0  0  0
  160.8800  212.9000  149.2580 C   0  0  2  0  0  3  0  0  0  0  0  0
  161.6940  206.3250  149.2050 C   0  0  0  0  0  0  0  0  0  0  0  0
  162.0670  209.1270  151.5430 C   0  0  2  0  0  3  0  0  0  0  0  0
  160.8290  204.2390  149.9700 C   0  0  0  0  0  3  0  0  0  0  0  0
  161.4120  212.7050  147.8190 C   0  0  0  0  0  2  0  0  0  0  0  0
  161.9490  207.2510  148.2840 N   0  0  0  0  0  0  0  0  0  0  0  0
  161.0960  205.2400  145.2220 C   0  0  0  0  0  1  0  0  0  0  0  0
  161.0420  206.7230  152.8840 C   0  0  0  0  0  2  0  0  0  0  0  0
  160.8140  204.7600  151.2910 C   0  0  0  0  0  3  0  0  0  0  0  0
  161.7280  207.0160  146.8570 C   0  0  0  0  0  2  0  0  0  0  0  0
  161.8730  212.4430  150.3330 C   0  0  0  0  0  2  0  0  0  0  0  0
  162.1290  210.9550  150.2010 C   0  0  1  0  0  3  0  0  0  0  0  0
  161.2440  206.0830  151.5470 C   0  0  0  0  0  0  0  0  0  0  0  0
  162.1200  208.4130  148.9630 C   0  0  0  0  0  0  0  0  0  0  0  0
  161.2190  204.6770  147.5610 O   0  0  0  0  0  0  0  0  0  0  0  0
  160.7520  209.2430  152.3470 C   0  0  1  0  0  3  0  0  0  0  0  0
  163.2690  205.1110  146.3630 C   0  0  0  0  0  1  0  0  0  0  0  0
  162.9250  210.6860  149.0780 O   0  0  0  0  0  0  0  0  0  0  0  0
  159.6220  212.3540  149.4540 F   0  0  0  0  0  0  0  0  0  0  0  0
  162.2140  209.7630  148.2880 C   0  0  2  0  0  3  0  0  0  0  0  0
  160.0810  207.9090  152.7420 C   0  0  0  0  0  2  0  0  0  0  0  0
  160.0570  211.2020  153.7350 C   0  0  0  0  0  3  0  0  0  0  0  0
  160.9200  210.1160  153.5520 C   0  0  0  0  0  0  0  0  0  0  0  0
  161.9340  209.8690  154.4910 C   0  0  0  0  0  3  0  0  0  0  0  0
  163.0810  210.4550  156.5300 O   0  0  0  0  0  1  0  0  0  0  0  0
  161.2130  211.7860  155.7810 C   0  0  0  0  0  3  0  0  0  0  0  0
  162.0780  210.7030  155.6030 C   0  0  0  0  0  0  0  0  0  0  0  0
  160.2030  212.0370  154.8470 C   0  0  0  0  0  3  0  0  0  0  0  0
  159.6880  212.2080  145.0930 C   0  0  0  0  0  1  0  0  0  0  0  0
  159.5980  211.8290  146.5590 C   0  0  0  0  0  2  0  0  0  0  0  0
  2 17  1  0  0  0  0
  2 22  1  0  0  0  0
  3 20  1  0  0  0  0
  4 12  1  0  0  0  0
  4  1  1  0  0  0  0
  5 10  1  0  0  0  0
  6  9  1  0  0  0  0
  6 11  2  0  0  0  0
  7  3  1  0  0  0  0
  8 26  1  6  0  0  0
  8 18  1  0  0  0  0
  9  3  2  0  0  0  0
 10  7  1  6  0  0  0
 10 23  1  0  0  0  0
 11 16  1  0  0  0  0
 12  8  1  0  0  0  0
 13 21  1  0  0  0  0
 13  9  1  0  0  0  0
 14  2  1  0  0  0  0
 16 20  2  0  0  0  0
 17 13  1  0  0  0  0
 19 18  1  1  0  0  0
 19  5  1  0  0  0  0
 20 15  1  0  0  0  0
 21  7  2  0  0  0  0
 22  6  1  0  0  0  0
 23 28  1  0  0  0  0
 23 30  1  1  0  0  0
 24  2  1  0  0  0  0
 25 19  1  0  0  0  0
 27  1  1  1  0  0  0
 27 21  1  0  0  0  0
 27 25  1  0  0  0  0
 28 15  1  0  0  0  0
 29 35  1  0  0  0  0
 30 29  2  0  0  0  0
 30 31  1  0  0  0  0
 31 34  2  0  0  0  0
 34 33  1  0  0  0  0
 34 32  1  0  0  0  0
 35 33  2  0  0  0  0
 36 37  1  0  0  0  0
 37  4  1  0  0  0  0
M  END
>  <MODEL>
3

>  <REMARK>
 VINA RESULT:      -4.2      2.322      7.088
  Name = 
  2 active torsions:
  status: ('A' for Active; 'I' for Inactive)
    1  A    between atoms: N_4  and  C_37
    2  A    between atoms: C_23  and  C_30
                            x       y       z     vdW  Elec       q    Type
                         _______ _______ _______ _____ _____    ______ ____

>  <TORSDO>
F 2

$$$$
=
 OpenBabel11122413333D

 37 43  0  0  1  0  0  0  0  0999 V2000
  160.8250  210.3060  147.8390 C   0  0  0  0  0  2  0  0  0  0  0  0
  161.8110  205.5010  146.5490 C   0  0  0  0  0  0  0  0  0  0  0  0
  161.7100  206.8690  150.4700 C   0  0  0  0  0  0  0  0  0  0  0  0
  160.9180  211.5300  147.0360 N   0  0  0  0  0  0  0  0  0  0  0  0
  162.7040  210.4230  151.3030 O   0  0  0  0  0  0  0  0  0  0  0  0
  161.2620  205.0780  148.9310 C   0  0  0  0  0  0  0  0  0  0  0  0
  162.0130  208.2100  150.3470 C   0  0  0  0  0  0  0  0  0  0  0  0
  160.8720  212.9270  149.2080 C   0  0  2  0  0  3  0  0  0  0  0  0
  161.6950  206.3520  149.2160 C   0  0  0  0  0  0  0  0  0  0  0  0
  162.0650  209.1760  151.5270 C   0  0  2  0  0  3  0  0  0  0  0  0
  160.8330  204.2720  150.0010 C   0  0  0  0  0  3  0  0  0  0  0  0
  161.4040  212.7190  147.7700 C   0  0  0  0  0  2  0  0  0  0  0  0
  161.9480  207.2700  148.2860 N   0  0  0  0  0  0  0  0  0  0  0  0
  161.0960  205.2300  145.2430 C   0  0  0  0  0  1  0  0  0  0  0  0
  161.0440  206.7840  152.8910 C   0  0  0  0  0  2  0  0  0  0  0  0
  160.8180  204.8050  151.3170 C   0  0  0  0  0  3  0  0  0  0  0  0
  161.7270  207.0210  146.8610 C   0  0  0  0  0  2  0  0  0  0  0  0
  161.8670  212.4800  150.2870 C   0  0  0  0  0  2  0  0  0  0  0  0
  162.1250  210.9920  150.1680 C   0  0  1  0  0  3  0  0  0  0  0  0
  161.2460  206.1310  151.5610 C   0  0  0  0  0  0  0  0  0  0  0  0
  162.1180  208.4390  148.9540 C   0  0  0  0  0  0  0  0  0  0  0  0
  161.2210  204.6880  147.5870 O   0  0  0  0  0  0  0  0  0  0  0  0
  160.7510  209.2980  152.3310 C   0  0  1  0  0  3  0  0  0  0  0  0
  163.2700  205.1140  146.3850 C   0  0  0  0  0  1  0  0  0  0  0  0
  162.9200  210.7130  149.0480 O   0  0  0  0  0  0  0  0  0  0  0  0
  159.6160  212.3810  149.4100 F   0  0  0  0  0  0  0  0  0  0  0  0
  162.2100  209.7820  148.2660 C   0  0  2  0  0  3  0  0  0  0  0  0
  160.0810  207.9670  152.7380 C   0  0  0  0  0  2  0  0  0  0  0  0
  161.9300  209.8970  154.4510 C   0  0  0  0  0  3  0  0  0  0  0  0
  160.9180  210.1830  153.5280 C   0  0  0  0  0  0  0  0  0  0  0  0
  160.0720  211.2810  153.7420 C   0  0  0  0  0  3  0  0  0  0  0  0
  159.4020  213.1730  155.0800 O   0  0  0  0  0  1  0  0  0  0  0  0
  161.2520  211.7980  155.7910 C   0  0  0  0  0  3  0  0  0  0  0  0
  160.2410  212.0870  154.8720 C   0  0  0  0  0  0  0  0  0  0  0  0
  162.0970  210.7040  155.5820 C   0  0  0  0  0  3  0  0  0  0  0  0
  159.6810  212.2040  145.0530 C   0  0  0  0  0  1  0  0  0  0  0  0
  159.5910  211.8280  146.5200 C   0  0  0  0  0  2  0  0  0  0  0  0
  2 17  1  0  0  0  0
  2 22  1  0  0  0  0
  3 20  1  0  0  0  0
  4 12  1  0  0  0  0
  4  1  1  0  0  0  0
  5 10  1  0  0  0  0
  6  9  1  0  0  0  0
  6 11  2  0  0  0  0
  7  3  1  0  0  0  0
  8 26  1  6  0  0  0
  8 18  1  0  0  0  0
  9  3  2  0  0  0  0
 10  7  1  6  0  0  0
 10 23  1  0  0  0  0
 11 16  1  0  0  0  0
 12  8  1  0  0  0  0
 13 21  1  0  0  0  0
 13  9  1  0  0  0  0
 14  2  1  0  0  0  0
 16 20  2  0  0  0  0
 17 13  1  0  0  0  0
 19 18  1  1  0  0  0
 19  5  1  0  0  0  0
 20 15  1  0  0  0  0
 21  7  2  0  0  0  0
 22  6  1  0  0  0  0
 23 28  1  0  0  0  0
 23 30  1  1  0  0  0
 24  2  1  0  0  0  0
 25 19  1  0  0  0  0
 27  1  1  1  0  0  0
 27 21  1  0  0  0  0
 27 25  1  0  0  0  0
 28 15  1  0  0  0  0
 29 35  1  0  0  0  0
 30 31  1  0  0  0  0
 30 29  2  0  0  0  0
 31 34  2  0  0  0  0
 34 32  1  0  0  0  0
 34 33  1  0  0  0  0
 35 33  2  0  0  0  0
 36 37  1  0  0  0  0
 37  4  1  0  0  0  0
M  END
>  <MODEL>
4

>  <REMARK>
 VINA RESULT:      -4.1      2.336      6.990
  Name = 
  2 active torsions:
  status: ('A' for Active; 'I' for Inactive)
    1  A    between atoms: N_4  and  C_37
    2  A    between atoms: C_23  and  C_30
                            x       y       z     vdW  Elec       q    Type
                         _______ _______ _______ _____ _____    ______ ____

>  <TORSDO>
F 2

$$$$
=
 OpenBabel11122413333D

 37 43  0  0  1  0  0  0  0  0999 V2000
  160.1020  210.3950  152.0700 C   0  0  0  0  0  2  0  0  0  0  0  0
  157.0140  213.0140  155.1250 C   0  0  0  0  0  0  0  0  0  0  0  0
  157.4740  213.8020  151.0720 C   0  0  0  0  0  0  0  0  0  0  0  0
  161.2550  209.5510  152.4030 N   0  0  0  0  0  0  0  0  0  0  0  0
  160.7750  213.1580  149.3400 O   0  0  0  0  0  0  0  0  0  0  0  0
  156.0060  213.7280  152.9740 C   0  0  0  0  0  0  0  0  0  0  0  0
  158.7420  213.3310  150.7980 C   0  0  0  0  0  0  0  0  0  0  0  0
  162.0280  209.6820  149.9420 C   0  0  2  0  0  3  0  0  0  0  0  0
  157.2360  213.5520  152.3840 C   0  0  0  0  0  0  0  0  0  0  0  0
  159.3730  213.3610  149.4090 C   0  0  2  0  0  3  0  0  0  0  0  0
  154.9540  214.2100  152.1740 C   0  0  0  0  0  3  0  0  0  0  0  0
  162.3820  209.6340  151.4470 C   0  0  0  0  0  2  0  0  0  0  0  0
  158.2550  212.9340  152.9760 N   0  0  0  0  0  0  0  0  0  0  0  0
  156.5750  212.0780  156.2300 C   0  0  0  0  0  1  0  0  0  0  0  0
  156.6630  214.2760  148.7420 C   0  0  0  0  0  2  0  0  0  0  0  0
  155.1780  214.4530  150.7940 C   0  0  0  0  0  3  0  0  0  0  0  0
  158.1380  212.3240  154.3010 C   0  0  0  0  0  2  0  0  0  0  0  0
  162.0880  211.0980  149.3560 C   0  0  0  0  0  2  0  0  0  0  0  0
  161.0620  211.9830  150.0360 C   0  0  1  0  0  3  0  0  0  0  0  0
  156.4530  214.2310  150.2220 C   0  0  0  0  0  0  0  0  0  0  0  0
  159.1920  212.7540  152.0110 C   0  0  0  0  0  0  0  0  0  0  0  0
  155.8680  213.3600  154.3170 O   0  0  0  0  0  0  0  0  0  0  0  0
  158.5900  212.5940  148.3190 C   0  0  1  0  0  3  0  0  0  0  0  0
  157.5740  214.2740  155.7600 C   0  0  0  0  0  1  0  0  0  0  0  0
  161.4650  212.2980  151.3410 O   0  0  0  0  0  0  0  0  0  0  0  0
  160.8320  209.0520  149.6410 F   0  0  0  0  0  0  0  0  0  0  0  0
  160.4230  211.8970  152.1980 C   0  0  2  0  0  3  0  0  0  0  0  0
  157.0750  212.8860  148.2430 C   0  0  0  0  0  2  0  0  0  0  0  0
  158.4690  212.4670  145.8260 C   0  0  0  0  0  3  0  0  0  0  0  0
  159.2190  212.7600  146.9700 C   0  0  0  0  0  0  0  0  0  0  0  0
  160.5480  213.1910  146.8380 C   0  0  0  0  0  3  0  0  0  0  0  0
  162.4320  213.7560  145.4420 O   0  0  0  0  0  1  0  0  0  0  0  0
  160.3640  213.0360  144.4290 C   0  0  0  0  0  3  0  0  0  0  0  0
  161.1170  213.3290  145.5690 C   0  0  0  0  0  0  0  0  0  0  0  0
  159.0400  212.6050  144.5570 C   0  0  0  0  0  3  0  0  0  0  0  0
  160.9120  207.6370  153.8640 C   0  0  0  0  0  1  0  0  0  0  0  0
  160.8010  208.1700  152.4480 C   0  0  0  0  0  2  0  0  0  0  0  0
  1  4  1  0  0  0  0
  2 24  1  0  0  0  0
  2 14  1  0  0  0  0
  3  9  1  0  0  0  0
  4 37  1  0  0  0  0
  5 19  1  0  0  0  0
  6 22  1  0  0  0  0
  7  3  1  0  0  0  0
  7 21  2  0  0  0  0
  8 26  1  1  0  0  0
  8 12  1  0  0  0  0
  9  6  2  0  0  0  0
  9 13  1  0  0  0  0
 10  5  1  1  0  0  0
 10  7  1  0  0  0  0
 11  6  1  0  0  0  0
 12  4  1  0  0  0  0
 13 17  1  0  0  0  0
 15 20  1  0  0  0  0
 16 11  2  0  0  0  0
 17  2  1  0  0  0  0
 18  8  1  0  0  0  0
 19 18  1  6  0  0  0
 19 25  1  0  0  0  0
 20 16  1  0  0  0  0
 20  3  2  0  0  0  0
 21 27  1  0  0  0  0
 21 13  1  0  0  0  0
 22  2  1  0  0  0  0
 23 30  1  6  0  0  0
 23 10  1  0  0  0  0
 25 27  1  0  0  0  0
 27  1  1  6  0  0  0
 28 23  1  0  0  0  0
 28 15  1  0  0  0  0
 29 30  1  0  0  0  0
 31 30  2  0  0  0  0
 32 34  1  0  0  0  0
 33 35  1  0  0  0  0
 33 34  2  0  0  0  0
 34 31  1  0  0  0  0
 35 29  2  0  0  0  0
 37 36  1  0  0  0  0
M  END
>  <MODEL>
5

>  <REMARK>
 VINA RESULT:      -3.5      2.560      4.259
  Name = 
  2 active torsions:
  status: ('A' for Active; 'I' for Inactive)
    1  A    between atoms: N_4  and  C_37
    2  A    between atoms: C_23  and  C_30
                            x       y       z     vdW  Elec       q    Type
                         _______ _______ _______ _____ _____    ______ ____

>  <TORSDO>
F 2

$$$$
