=
 OpenBabel11122412403D

 30 35  0  0  1  0  0  0  0  0999 V2000
  161.4150  206.3180  150.3990 C   0  0  0  0  0  0  0  0  0  0  0  0
  161.1540  203.8070  150.3760 C   0  0  0  0  0  0  0  0  0  0  0  0
  160.6900  206.4790  154.5100 N   0  0  0  0  0  2  0  0  0  0  0  0
  161.4120  207.5380  151.1390 C   0  0  0  0  0  0  0  0  0  0  0  0
  161.6540  206.3770  149.0650 N   0  0  0  0  0  0  0  0  0  0  0  0
  162.0900  209.8260  148.5270 O   0  0  0  0  0  0  0  0  0  0  0  0
  160.3280  210.3390  151.9120 C   0  0  1  0  0  3  0  0  0  0  0  0
  161.8770  208.7410  149.1370 C   0  0  0  0  0  0  0  0  0  0  0  0
  160.0750  209.5900  153.2170 C   0  0  2  0  0  3  0  0  0  0  0  0
  160.7660  207.8480  154.8320 N   0  0  0  0  0  0  0  0  0  0  0  0
  161.8860  207.5460  148.4180 C   0  0  0  0  0  0  0  0  0  0  0  0
  161.6380  208.7340  150.4860 N   0  0  0  0  0  0  0  0  0  0  0  0
  160.8990  202.6340  151.0920 C   0  0  0  0  0  3  0  0  0  0  0  0
  160.0290  210.6740  154.2720 C   0  0  0  0  0  2  0  0  0  0  0  0
  160.2370  211.8110  152.2640 C   0  0  0  0  0  2  0  0  0  0  0  0
  161.4480  203.5860  148.6530 Cl  0  0  0  0  0  0  0  0  0  0  0  0
  160.9170  206.2800  153.1330 C   0  0  0  0  0  0  0  0  0  0  0  0
  160.6520  202.6640  152.4610 C   0  0  0  0  0  3  0  0  0  0  0  0
  161.1660  205.0650  151.0490 C   0  0  0  0  0  0  0  0  0  0  0  0
  161.1580  207.4600  152.5190 C   0  0  0  0  0  0  0  0  0  0  0  0
  161.8980  208.0090  155.7300 C   0  0  0  0  0  1  0  0  0  0  0  0
  161.1180  208.5280  153.5650 C   0  0  1  0  0  3  0  0  0  0  0  0
  159.6790  211.9170  153.6040 N   0  0  0  0  0  2  0  0  0  0  0  0
  162.9250  210.2690  151.9680 C   0  0  0  0  0  1  0  0  0  0  0  0
  160.6580  203.8780  153.1390 C   0  0  0  0  0  3  0  0  0  0  0  0
  160.9100  205.0680  152.4520 C   0  0  0  0  0  0  0  0  0  0  0  0
  161.6440  210.0360  151.1730 C   0  0  2  0  0  3  0  0  0  0  0  0
  162.1300  207.5600  147.0420 O   0  0  0  0  0  0  0  0  0  0  0  0
  160.6080  206.2320  145.7550 C   0  0  0  0  0  1  0  0  0  0  0  0
  162.0310  206.3890  146.2460 C   0  0  0  0  0  2  0  0  0  0  0  0
  1 19  2  0  0  0  0
  1  4  1  0  0  0  0
  2 19  1  0  0  0  0
  2 13  2  0  0  0  0
  3 10  1  0  0  0  0
  4 20  2  0  0  0  0
  5  1  1  0  0  0  0
  6  8  2  0  0  0  0
  7 15  1  1  0  0  0
  7  9  1  0  0  0  0
  8 12  1  0  0  0  0
  9 22  1  0  0  0  0
  9 14  1  1  0  0  0
 10 21  1  0  0  0  0
 11  5  2  0  0  0  0
 11  8  1  0  0  0  0
 12  4  1  0  0  0  0
 12 27  1  0  0  0  0
 13 18  1  0  0  0  0
 15 23  1  0  0  0  0
 16  2  1  0  0  0  0
 17  3  1  0  0  0  0
 18 25  2  0  0  0  0
 19 26  1  0  0  0  0
 20 17  1  0  0  0  0
 22 20  1  6  0  0  0
 22 10  1  0  0  0  0
 23 14  1  0  0  0  0
 26 17  2  0  0  0  0
 26 25  1  0  0  0  0
 27  7  1  0  0  0  0
 27 24  1  1  0  0  0
 28 11  1  0  0  0  0
 29 30  1  0  0  0  0
 30 28  1  0  0  0  0
M  END
>  <MODEL>
1

>  <REMARK>
 VINA RESULT:      -7.7      0.000      0.000
  Name = 
  2 active torsions:
  status: ('A' for Active; 'I' for Inactive)
    1  A    between atoms: C_11  and  O_28
    2  A    between atoms: O_28  and  C_30
                            x       y       z     vdW  Elec       q    Type
                         _______ _______ _______ _____ _____    ______ ____

>  <TORSDO>
F 2

$$$$
=
 OpenBabel11122412403D

 30 35  0  0  1  0  0  0  0  0999 V2000
  161.4110  207.6970  150.9670 C   0  0  0  0  0  0  0  0  0  0  0  0
  161.4000  205.3890  149.9440 C   0  0  0  0  0  0  0  0  0  0  0  0
  160.5190  206.1610  154.7480 N   0  0  0  0  0  2  0  0  0  0  0  0
  161.2610  208.5200  152.1230 C   0  0  0  0  0  0  0  0  0  0  0  0
  161.6940  208.2980  149.7850 N   0  0  0  0  0  0  0  0  0  0  0  0
  161.8090  211.7000  150.6720 O   0  0  0  0  0  0  0  0  0  0  0  0
  159.8780  210.6950  153.8490 C   0  0  1  0  0  3  0  0  0  0  0  0
  161.6810  210.4490  150.7910 C   0  0  0  0  0  0  0  0  0  0  0  0
  159.6500  209.4730  154.7340 C   0  0  2  0  0  3  0  0  0  0  0  0
  160.4480  207.2910  155.5840 N   0  0  0  0  0  0  0  0  0  0  0  0
  161.8340  209.6410  149.6650 C   0  0  0  0  0  0  0  0  0  0  0  0
  161.3930  209.8900  152.0090 N   0  0  0  0  0  0  0  0  0  0  0  0
  161.2340  204.0120  150.1230 C   0  0  0  0  0  3  0  0  0  0  0  0
  159.4590  210.0440  156.1230 C   0  0  0  0  0  2  0  0  0  0  0  0
  159.6300  211.8950  154.7410 C   0  0  0  0  0  2  0  0  0  0  0  0
  161.7790  205.8920  148.2990 Cl  0  0  0  0  0  0  0  0  0  0  0  0
  160.8160  206.5410  153.4240 C   0  0  0  0  0  0  0  0  0  0  0  0
  160.9330  203.4790  151.3730 C   0  0  0  0  0  3  0  0  0  0  0  0
  161.2620  206.2740  151.0550 C   0  0  0  0  0  0  0  0  0  0  0  0
  160.9630  207.8820  153.3400 C   0  0  0  0  0  0  0  0  0  0  0  0
  161.5230  207.1680  156.5540 C   0  0  0  0  0  1  0  0  0  0  0  0
  160.7790  208.4420  154.7140 C   0  0  1  0  0  3  0  0  0  0  0  0
  159.0140  211.4200  155.9700 N   0  0  0  0  0  2  0  0  0  0  0  0
  162.4660  210.8040  154.0640 C   0  0  0  0  0  1  0  0  0  0  0  0
  160.7940  204.3220  152.4700 C   0  0  0  0  0  3  0  0  0  0  0  0
  160.9540  205.7020  152.3240 C   0  0  0  0  0  0  0  0  0  0  0  0
  161.2450  210.8090  153.1490 C   0  0  2  0  0  3  0  0  0  0  0  0
  162.1280  210.2180  148.4260 O   0  0  0  0  0  0  0  0  0  0  0  0
  162.4060  212.4170  147.5200 C   0  0  0  0  0  1  0  0  0  0  0  0
  161.4210  211.3450  147.9320 C   0  0  0  0  0  2  0  0  0  0  0  0
  1 19  2  0  0  0  0
  1  4  1  0  0  0  0
  2 13  2  0  0  0  0
  2 19  1  0  0  0  0
  3 10  1  0  0  0  0
  4 20  2  0  0  0  0
  5  1  1  0  0  0  0
  6  8  2  0  0  0  0
  7  9  1  0  0  0  0
  7 15  1  1  0  0  0
  8 12  1  0  0  0  0
  9 14  1  1  0  0  0
 10 21  1  0  0  0  0
 11  5  2  0  0  0  0
 11  8  1  0  0  0  0
 12  4  1  0  0  0  0
 12 27  1  0  0  0  0
 13 18  1  0  0  0  0
 15 23  1  0  0  0  0
 16  2  1  0  0  0  0
 17  3  1  0  0  0  0
 18 25  2  0  0  0  0
 19 26  1  0  0  0  0
 20 17  1  0  0  0  0
 22 20  1  6  0  0  0
 22  9  1  0  0  0  0
 22 10  1  0  0  0  0
 23 14  1  0  0  0  0
 26 25  1  0  0  0  0
 26 17  2  0  0  0  0
 27  7  1  0  0  0  0
 27 24  1  1  0  0  0
 28 11  1  0  0  0  0
 29 30  1  0  0  0  0
 30 28  1  0  0  0  0
M  END
>  <MODEL>
2

>  <REMARK>
 VINA RESULT:      -6.3      1.707      2.361
  Name = 
  2 active torsions:
  status: ('A' for Active; 'I' for Inactive)
    1  A    between atoms: C_11  and  O_28
    2  A    between atoms: O_28  and  C_30
                            x       y       z     vdW  Elec       q    Type
                         _______ _______ _______ _____ _____    ______ ____

>  <TORSDO>
F 2

$$$$
=
 OpenBabel11122412403D

 30 35  0  0  1  0  0  0  0  0999 V2000
  160.7250  210.6970  151.7600 C   0  0  0  0  0  0  0  0  0  0  0  0
  161.9470  208.7520  150.7110 C   0  0  0  0  0  0  0  0  0  0  0  0
  160.0730  208.5460  155.2820 N   0  0  0  0  0  2  0  0  0  0  0  0
  160.0320  211.2390  152.8840 C   0  0  0  0  0  0  0  0  0  0  0  0
  160.8770  211.4770  150.6620 N   0  0  0  0  0  0  0  0  0  0  0  0
  159.2590  214.4510  151.6180 O   0  0  0  0  0  0  0  0  0  0  0  0
  157.5480  212.3620  154.3630 C   0  0  1  0  0  3  0  0  0  0  0  0
  159.7100  213.2740  151.6880 C   0  0  0  0  0  0  0  0  0  0  0  0
  157.7790  211.0860  155.1680 C   0  0  2  0  0  3  0  0  0  0  0  0
  159.3560  209.4290  156.1110 N   0  0  0  0  0  0  0  0  0  0  0  0
  160.3940  212.7430  150.5950 C   0  0  0  0  0  0  0  0  0  0  0  0
  159.5290  212.5240  152.8210 N   0  0  0  0  0  0  0  0  0  0  0  0
  162.4140  207.4400  150.8300 C   0  0  0  0  0  3  0  0  0  0  0  0
  157.1310  211.3630  156.5080 C   0  0  0  0  0  2  0  0  0  0  0  0
  156.6350  213.2210  155.2150 C   0  0  0  0  0  2  0  0  0  0  0  0
  162.2990  209.5370  149.1740 Cl  0  0  0  0  0  0  0  0  0  0  0  0
  160.3610  209.1520  154.0430 C   0  0  0  0  0  0  0  0  0  0  0  0
  162.2040  206.7040  151.9930 C   0  0  0  0  0  3  0  0  0  0  0  0
  161.2430  209.3600  151.7930 C   0  0  0  0  0  0  0  0  0  0  0  0
  159.8800  210.4150  154.0120 C   0  0  0  0  0  0  0  0  0  0  0  0
  160.2000  209.7080  157.2610 C   0  0  0  0  0  1  0  0  0  0  0  0
  159.2450  210.6870  155.3390 C   0  0  1  0  0  3  0  0  0  0  0  0
  156.1270  212.3950  156.3010 N   0  0  0  0  0  2  0  0  0  0  0  0
  159.7200  213.6100  155.0560 C   0  0  0  0  0  1  0  0  0  0  0  0
  161.5210  207.2750  153.0610 C   0  0  0  0  0  3  0  0  0  0  0  0
  161.0430  208.5840  152.9720 C   0  0  0  0  0  0  0  0  0  0  0  0
  158.7950  213.1540  153.9300 C   0  0  2  0  0  3  0  0  0  0  0  0
  160.5750  213.5130  149.4430 O   0  0  0  0  0  0  0  0  0  0  0  0
  162.4110  213.2660  147.9250 C   0  0  0  0  0  1  0  0  0  0  0  0
  160.9610  212.9380  148.2040 C   0  0  0  0  0  2  0  0  0  0  0  0
  1 19  2  0  0  0  0
  1  4  1  0  0  0  0
  2 13  2  0  0  0  0
  2 19  1  0  0  0  0
  3 10  1  0  0  0  0
  4 20  2  0  0  0  0
  5  1  1  0  0  0  0
  6  8  2  0  0  0  0
  7  9  1  0  0  0  0
  7 15  1  1  0  0  0
  8 12  1  0  0  0  0
  9 22  1  0  0  0  0
  9 14  1  1  0  0  0
 10 21  1  0  0  0  0
 11  5  2  0  0  0  0
 11  8  1  0  0  0  0
 12  4  1  0  0  0  0
 12 27  1  0  0  0  0
 13 18  1  0  0  0  0
 15 23  1  0  0  0  0
 16  2  1  0  0  0  0
 17  3  1  0  0  0  0
 18 25  2  0  0  0  0
 19 26  1  0  0  0  0
 20 17  1  0  0  0  0
 22 20  1  6  0  0  0
 22 10  1  0  0  0  0
 23 14  1  0  0  0  0
 26 25  1  0  0  0  0
 26 17  2  0  0  0  0
 27  7  1  0  0  0  0
 27 24  1  1  0  0  0
 28 11  1  0  0  0  0
 29 30  1  0  0  0  0
 30 28  1  0  0  0  0
M  END
>  <MODEL>
3

>  <REMARK>
 VINA RESULT:      -6.0      3.125      4.807
  Name = 
  2 active torsions:
  status: ('A' for Active; 'I' for Inactive)
    1  A    between atoms: C_11  and  O_28
    2  A    between atoms: O_28  and  C_30
                            x       y       z     vdW  Elec       q    Type
                         _______ _______ _______ _____ _____    ______ ____

>  <TORSDO>
F 2

$$$$
=
 OpenBabel11122412403D

 30 35  0  0  1  0  0  0  0  0999 V2000
  161.4200  207.6840  151.4840 C   0  0  0  0  0  0  0  0  0  0  0  0
  161.5820  210.1490  150.9650 C   0  0  0  0  0  0  0  0  0  0  0  0
  162.0090  206.6760  147.4730 N   0  0  0  0  0  2  0  0  0  0  0  0
  161.4490  206.3340  151.0190 C   0  0  0  0  0  0  0  0  0  0  0  0
  161.2140  207.9020  152.8060 N   0  0  0  0  0  0  0  0  0  0  0  0
  160.8840  204.6360  154.0700 O   0  0  0  0  0  0  0  0  0  0  0  0
  160.2180  203.5480  150.4370 C   0  0  1  0  0  3  0  0  0  0  0  0
  161.0560  205.5720  153.2410 C   0  0  0  0  0  0  0  0  0  0  0  0
  160.5150  204.0070  149.0120 C   0  0  2  0  0  3  0  0  0  0  0  0
  161.9560  205.2690  147.4470 N   0  0  0  0  0  0  0  0  0  0  0  0
  161.0350  206.8910  153.6920 C   0  0  0  0  0  0  0  0  0  0  0  0
  161.2580  205.3000  151.9130 N   0  0  0  0  0  0  0  0  0  0  0  0
  161.7620  211.1510  150.0070 C   0  0  0  0  0  3  0  0  0  0  0  0
  160.6260  202.7230  148.2180 C   0  0  0  0  0  2  0  0  0  0  0  0
  160.0020  202.0510  150.3450 C   0  0  0  0  0  2  0  0  0  0  0  0
  161.3510  210.7210  152.6150 Cl  0  0  0  0  0  0  0  0  0  0  0  0
  161.8200  207.1560  148.7840 C   0  0  0  0  0  0  0  0  0  0  0  0
  161.9560  210.8380  148.6650 C   0  0  0  0  0  3  0  0  0  0  0  0
  161.5980  208.7770  150.5740 C   0  0  0  0  0  0  0  0  0  0  0  0
  161.6580  206.1260  149.6440 C   0  0  0  0  0  0  0  0  0  0  0  0
  163.2700  204.8040  147.0350 C   0  0  0  0  0  1  0  0  0  0  0  0
  161.7740  204.8590  148.8580 C   0  0  1  0  0  3  0  0  0  0  0  0
  159.8840  201.7000  148.9380 N   0  0  0  0  0  2  0  0  0  0  0  0
  162.6750  203.3560  151.2610 C   0  0  0  0  0  1  0  0  0  0  0  0
  161.9750  209.5080  148.2590 C   0  0  0  0  0  3  0  0  0  0  0  0
  161.7990  208.4840  149.1930 C   0  0  0  0  0  0  0  0  0  0  0  0
  161.2660  203.8820  151.5150 C   0  0  2  0  0  3  0  0  0  0  0  0
  160.8280  207.1630  155.0470 O   0  0  0  0  0  0  0  0  0  0  0  0
  159.9680  209.2160  155.9310 C   0  0  0  0  0  1  0  0  0  0  0  0
  161.2060  208.3970  155.6360 C   0  0  0  0  0  2  0  0  0  0  0  0
  1  5  1  0  0  0  0
  2 16  1  0  0  0  0
  3 17  1  0  0  0  0
  4  1  1  0  0  0  0
  4 12  1  0  0  0  0
  5 11  2  0  0  0  0
  7 15  1  6  0  0  0
  7 27  1  0  0  0  0
  8 11  1  0  0  0  0
  8  6  2  0  0  0  0
  9 14  1  6  0  0  0
  9  7  1  0  0  0  0
 10  3  1  0  0  0  0
 10 22  1  0  0  0  0
 11 28  1  0  0  0  0
 12  8  1  0  0  0  0
 13  2  2  0  0  0  0
 14 23  1  0  0  0  0
 17 26  2  0  0  0  0
 17 20  1  0  0  0  0
 18 13  1  0  0  0  0
 19  2  1  0  0  0  0
 19  1  2  0  0  0  0
 20  4  2  0  0  0  0
 21 10  1  0  0  0  0
 22  9  1  0  0  0  0
 22 20  1  1  0  0  0
 23 15  1  0  0  0  0
 25 18  2  0  0  0  0
 25 26  1  0  0  0  0
 26 19  1  0  0  0  0
 27 24  1  6  0  0  0
 27 12  1  0  0  0  0
 28 30  1  0  0  0  0
 30 29  1  0  0  0  0
M  END
>  <MODEL>
4

>  <REMARK>
 VINA RESULT:      -5.5      3.007      7.210
  Name = 
  2 active torsions:
  status: ('A' for Active; 'I' for Inactive)
    1  A    between atoms: C_11  and  O_28
    2  A    between atoms: O_28  and  C_30
                            x       y       z     vdW  Elec       q    Type
                         _______ _______ _______ _____ _____    ______ ____

>  <TORSDO>
F 2

$$$$
=
 OpenBabel11122412403D

 30 35  0  0  1  0  0  0  0  0999 V2000
  160.9040  209.9020  152.1570 C   0  0  0  0  0  0  0  0  0  0  0  0
  161.9650  209.7830  149.8700 C   0  0  0  0  0  0  0  0  0  0  0  0
  159.6280  213.8240  151.4980 N   0  0  0  0  0  2  0  0  0  0  0  0
  160.1720  210.6520  153.1260 C   0  0  0  0  0  0  0  0  0  0  0  0
  161.2780  208.6370  152.4750 N   0  0  0  0  0  0  0  0  0  0  0  0
  160.0090  208.2690  155.7350 O   0  0  0  0  0  0  0  0  0  0  0  0
  159.8010  212.1130  155.8360 C   0  0  1  0  0  3  0  0  0  0  0  0
  160.2750  208.8020  154.6220 C   0  0  0  0  0  0  0  0  0  0  0  0
  159.6810  213.2970  154.8810 C   0  0  2  0  0  3  0  0  0  0  0  0
  158.9670  214.1890  152.6870 N   0  0  0  0  0  0  0  0  0  0  0  0
  160.9840  208.0700  153.6700 C   0  0  0  0  0  0  0  0  0  0  0  0
  159.8770  210.0850  154.3490 N   0  0  0  0  0  0  0  0  0  0  0  0
  162.2490  210.4210  148.6590 C   0  0  0  0  0  3  0  0  0  0  0  0
  158.8900  214.3290  155.6570 C   0  0  0  0  0  2  0  0  0  0  0  0
  159.2320  212.5950  157.1560 C   0  0  0  0  0  2  0  0  0  0  0  0
  162.5590  208.1310  150.0040 Cl  0  0  0  0  0  0  0  0  0  0  0  0
  160.1170  212.5060  151.5860 C   0  0  0  0  0  0  0  0  0  0  0  0
  161.8370  211.7290  148.4190 C   0  0  0  0  0  3  0  0  0  0  0  0
  161.2390  210.4730  150.8860 C   0  0  0  0  0  0  0  0  0  0  0  0
  159.7970  211.9630  152.7830 C   0  0  0  0  0  0  0  0  0  0  0  0
  157.5740  214.4160  152.3430 C   0  0  0  0  0  1  0  0  0  0  0  0
  159.0110  212.9820  153.5440 C   0  0  1  0  0  3  0  0  0  0  0  0
  159.0660  214.0390  157.0710 N   0  0  0  0  0  2  0  0  0  0  0  0
  157.6380  210.8650  155.1170 C   0  0  0  0  0  1  0  0  0  0  0  0
  161.1270  212.4210  149.3940 C   0  0  0  0  0  3  0  0  0  0  0  0
  160.8270  211.8110  150.6140 C   0  0  0  0  0  0  0  0  0  0  0  0
  159.1350  210.7930  155.4050 C   0  0  2  0  0  3  0  0  0  0  0  0
  161.3870  206.7620  153.9550 O   0  0  0  0  0  0  0  0  0  0  0  0
  161.1910  204.8930  152.4690 C   0  0  0  0  0  1  0  0  0  0  0  0
  162.1010  205.9710  153.0160 C   0  0  0  0  0  2  0  0  0  0  0  0
  1  5  1  0  0  0  0
  1  4  1  0  0  0  0
  2 16  1  0  0  0  0
  2 19  1  0  0  0  0
  3 17  1  0  0  0  0
  3 10  1  0  0  0  0
  4 12  1  0  0  0  0
  5 11  2  0  0  0  0
  7 15  1  1  0  0  0
  8  6  2  0  0  0  0
  9 14  1  1  0  0  0
  9  7  1  0  0  0  0
 10 22  1  0  0  0  0
 11 28  1  0  0  0  0
 11  8  1  0  0  0  0
 12  8  1  0  0  0  0
 12 27  1  0  0  0  0
 13  2  2  0  0  0  0
 14 23  1  0  0  0  0
 17 20  1  0  0  0  0
 18 13  1  0  0  0  0
 18 25  2  0  0  0  0
 19  1  2  0  0  0  0
 20  4  2  0  0  0  0
 21 10  1  0  0  0  0
 22 20  1  6  0  0  0
 22  9  1  0  0  0  0
 23 15  1  0  0  0  0
 25 26  1  0  0  0  0
 26 19  1  0  0  0  0
 26 17  2  0  0  0  0
 27 24  1  6  0  0  0
 27  7  1  0  0  0  0
 29 30  1  0  0  0  0
 30 28  1  0  0  0  0
M  END
>  <MODEL>
5

>  <REMARK>
 VINA RESULT:      -5.2      2.962      6.201
  Name = 
  2 active torsions:
  status: ('A' for Active; 'I' for Inactive)
    1  A    between atoms: C_11  and  O_28
    2  A    between atoms: O_28  and  C_30
                            x       y       z     vdW  Elec       q    Type
                         _______ _______ _______ _____ _____    ______ ____

>  <TORSDO>
F 2

$$$$
=
 OpenBabel11122412403D

 30 35  0  0  1  0  0  0  0  0999 V2000
  161.4870  208.1270  151.1850 C   0  0  0  0  0  0  0  0  0  0  0  0
  161.4310  208.3260  153.7010 C   0  0  0  0  0  0  0  0  0  0  0  0
  160.9830  203.9850  151.3770 N   0  0  0  0  0  2  0  0  0  0  0  0
  161.4220  207.2990  150.0240 C   0  0  0  0  0  0  0  0  0  0  0  0
  161.6600  209.4610  151.0120 N   0  0  0  0  0  0  0  0  0  0  0  0
  161.8310  209.7540  147.5100 O   0  0  0  0  0  0  0  0  0  0  0  0
  162.5680  205.9750  147.4650 C   0  0  1  0  0  3  0  0  0  0  0  0
  161.7190  209.2210  148.6500 C   0  0  0  0  0  0  0  0  0  0  0  0
  162.3310  204.7330  148.3190 C   0  0  2  0  0  3  0  0  0  0  0  0
  160.9850  203.5630  150.0340 N   0  0  0  0  0  0  0  0  0  0  0  0
  161.7750  210.0280  149.7860 C   0  0  0  0  0  0  0  0  0  0  0  0
  161.5470  207.8670  148.7720 N   0  0  0  0  0  0  0  0  0  0  0  0
  161.3170  207.6880  154.9400 C   0  0  0  0  0  3  0  0  0  0  0  0
  162.1970  203.6060  147.3180 C   0  0  0  0  0  2  0  0  0  0  0  0
  162.7320  205.4670  146.0460 C   0  0  0  0  0  2  0  0  0  0  0  0
  161.6320  210.0740  153.7730 Cl  0  0  0  0  0  0  0  0  0  0  0  0
  161.1490  205.3820  151.4590 C   0  0  0  0  0  0  0  0  0  0  0  0
  161.1520  206.3080  155.0270 C   0  0  0  0  0  3  0  0  0  0  0  0
  161.3770  207.5620  152.4970 C   0  0  0  0  0  0  0  0  0  0  0  0
  161.2470  205.9180  150.2220 C   0  0  0  0  0  0  0  0  0  0  0  0
  159.6680  203.0110  149.7620 C   0  0  0  0  0  1  0  0  0  0  0  0
  161.1090  204.8030  149.2350 C   0  0  1  0  0  3  0  0  0  0  0  0
  162.8790  204.0200  146.1020 N   0  0  0  0  0  2  0  0  0  0  0  0
  160.0810  206.6640  147.1550 C   0  0  0  0  0  1  0  0  0  0  0  0
  161.0970  205.5420  153.8680 C   0  0  0  0  0  3  0  0  0  0  0  0
  161.2060  206.1510  152.6160 C   0  0  0  0  0  0  0  0  0  0  0  0
  161.5010  207.0840  147.5270 C   0  0  2  0  0  3  0  0  0  0  0  0
  161.9500  211.4080  149.6540 O   0  0  0  0  0  0  0  0  0  0  0  0
  160.8770  213.0720  148.3060 C   0  0  0  0  0  1  0  0  0  0  0  0
  160.8530  212.3080  149.6110 C   0  0  0  0  0  2  0  0  0  0  0  0
  1 19  1  0  0  0  0
  2 16  1  0  0  0  0
  2 13  1  0  0  0  0
  3 17  1  0  0  0  0
  4 20  1  0  0  0  0
  4  1  2  0  0  0  0
  5  1  1  0  0  0  0
  6  8  2  0  0  0  0
  7 15  1  6  0  0  0
  7 27  1  0  0  0  0
  7  9  1  0  0  0  0
  8 12  1  0  0  0  0
  8 11  1  0  0  0  0
  9 14  1  6  0  0  0
  9 22  1  0  0  0  0
 10  3  1  0  0  0  0
 11  5  2  0  0  0  0
 12  4  1  0  0  0  0
 13 18  2  0  0  0  0
 15 23  1  0  0  0  0
 17 26  1  0  0  0  0
 19 26  1  0  0  0  0
 19  2  2  0  0  0  0
 20 17  2  0  0  0  0
 21 10  1  0  0  0  0
 22 10  1  0  0  0  0
 22 20  1  1  0  0  0
 23 14  1  0  0  0  0
 25 18  1  0  0  0  0
 26 25  2  0  0  0  0
 27 24  1  1  0  0  0
 27 12  1  0  0  0  0
 28 11  1  0  0  0  0
 29 30  1  0  0  0  0
 30 28  1  0  0  0  0
M  END
>  <MODEL>
6

>  <REMARK>
 VINA RESULT:      -4.9      2.511      5.701
  Name = 
  2 active torsions:
  status: ('A' for Active; 'I' for Inactive)
    1  A    between atoms: C_11  and  O_28
    2  A    between atoms: O_28  and  C_30
                            x       y       z     vdW  Elec       q    Type
                         _______ _______ _______ _____ _____    ______ ____

>  <TORSDO>
F 2

$$$$
