=
 OpenBabel11122414343D

 34 40  0  0  1  0  0  0  0  0999 V2000
  161.1270  208.4320  152.8750 C   0  0  0  0  0  0  0  0  0  0  0  0
  161.2020  205.9190  153.3960 C   0  0  0  0  0  3  0  0  0  0  0  0
  161.7930  213.6500  148.9360 C   0  0  0  0  0  0  0  0  0  0  0  0
  161.0670  210.7430  152.2150 C   0  0  0  0  0  0  0  0  0  0  0  0
  161.6280  211.3110  149.8160 C   0  0  0  0  0  0  0  0  0  0  0  0
  162.5260  211.6500  147.5550 C   0  0  0  0  0  1  0  0  0  0  0  0
  162.7170  214.4530  148.2750 O   0  0  0  0  0  1  0  0  0  0  0  0
  159.6910  213.6240  150.3230 C   0  0  0  0  0  3  0  0  0  0  0  0
  161.6050  206.6560  151.1900 C   0  0  0  0  0  0  0  0  0  0  0  0
  161.0460  204.8230  148.6680 C   0  0  0  0  0  2  0  0  0  0  0  0
  161.7630  209.8950  149.5820 N   0  0  0  0  0  0  0  0  0  0  0  0
  159.8340  212.5040  151.0270 C   0  0  0  0  0  3  0  0  0  0  0  0
  161.7470  207.5510  150.1940 C   0  0  0  0  0  0  0  0  0  0  0  0
  161.4930  204.6940  152.5170 C   0  0  0  0  0  3  0  0  0  0  0  0
  161.1530  211.8170  151.1640 C   0  0  0  0  0  0  0  0  0  0  0  0
  160.7760  214.2650  149.5560 C   0  0  0  0  0  2  0  0  0  0  0  0
  160.6380  204.6250  150.1260 C   0  0  2  0  0  3  0  0  0  0  0  0
  161.2470  209.4010  151.8780 C   0  0  0  0  0  0  0  0  0  0  0  0
  161.9480  212.1750  148.8310 C   0  0  0  0  0  0  0  0  0  0  0  0
  161.5820  208.9960  150.5000 C   0  0  0  0  0  0  0  0  0  0  0  0
  160.6860  210.1150  154.4700 C   0  0  0  0  0  3  0  0  0  0  0  0
  160.9240  206.2750  148.2230 C   0  0  0  0  0  2  0  0  0  0  0  0
  160.7940  211.0720  153.5070 N   0  0  0  0  0  0  0  0  0  0  0  0
  162.0600  207.1100  148.7940 C   0  0  0  0  0  2  0  0  0  0  0  0
  161.7170  205.1770  151.0700 C   0  0  1  0  0  3  0  0  0  0  0  0
  160.8500  208.8030  154.1520 N   0  0  0  0  0  0  0  0  0  0  0  0
  161.3100  207.0580  152.5140 N   0  0  0  0  0  0  0  0  0  0  0  0
  160.4490  203.2580  150.3500 O   0  0  0  0  0  0  0  0  0  0  0  0
  161.3180  202.6250  149.4570 C   0  0  0  0  0  2  0  0  0  0  0  0
  160.8300  201.3360  146.3590 N   0  0  0  0  0  2  0  0  0  0  0  0
  161.5760  200.3880  148.4170 C   0  0  0  0  0  2  0  0  0  0  0  0
  160.5990  201.4900  148.7520 C   0  0  2  0  0  3  0  0  0  0  0  0
  161.3730  200.1220  146.9460 C   0  0  0  0  0  2  0  0  0  0  0  0
  160.0650  201.9760  147.4190 C   0  0  0  0  0  2  0  0  0  0  0  0
  1 26  1  0  0  0  0
  3 16  1  0  0  0  0
  4 23  2  0  0  0  0
  5 15  2  0  0  0  0
  6 19  1  0  0  0  0
  7  3  1  0  0  0  0
  8 12  2  0  0  0  0
  9 27  1  0  0  0  0
 10 17  1  0  0  0  0
 11  5  1  0  0  0  0
 11 20  2  0  0  0  0
 12 15  1  0  0  0  0
 13 20  1  0  0  0  0
 13  9  2  0  0  0  0
 14  2  2  0  0  0  0
 15  4  1  0  0  0  0
 16  8  1  0  0  0  0
 17 28  1  1  0  0  0
 17 25  1  0  0  0  0
 18  4  1  0  0  0  0
 18  1  2  0  0  0  0
 19  3  2  0  0  0  0
 19  5  1  0  0  0  0
 20 18  1  0  0  0  0
 22 10  1  0  0  0  0
 22 24  1  0  0  0  0
 23 21  1  0  0  0  0
 24 13  1  0  0  0  0
 25  9  1  0  0  0  0
 25 14  1  1  0  0  0
 26 21  2  0  0  0  0
 27  1  1  0  0  0  0
 27  2  1  0  0  0  0
 29 28  1  0  0  0  0
 30 33  1  0  0  0  0
 30 34  1  0  0  0  0
 31 32  1  0  0  0  0
 32 29  1  6  0  0  0
 33 31  1  0  0  0  0
 34 32  1  0  0  0  0
M  END
>  <MODEL>
1

>  <REMARK>
 VINA RESULT:      -8.3      0.000      0.000
  Name = 
  3 active torsions:
  status: ('A' for Active; 'I' for Inactive)
    1  A    between atoms: C_17  and  O_28
    2  A    between atoms: O_28  and  C_29
    3  A    between atoms: C_29  and  C_32
                            x       y       z     vdW  Elec       q    Type
                         _______ _______ _______ _____ _____    ______ ____

>  <TORSDO>
F 3

$$$$
=
 OpenBabel11122414343D

 34 40  0  0  1  0  0  0  0  0999 V2000
  161.7030  206.1490  147.4780 C   0  0  0  0  0  0  0  0  0  0  0  0
  162.0630  208.0950  149.1120 C   0  0  0  0  0  3  0  0  0  0  0  0
  161.0380  199.7920  145.9470 C   0  0  0  0  0  0  0  0  0  0  0  0
  161.3350  204.2220  146.0880 C   0  0  0  0  0  0  0  0  0  0  0  0
  161.2440  201.9520  147.1980 C   0  0  0  0  0  0  0  0  0  0  0  0
  161.5290  199.8500  148.4370 C   0  0  0  0  0  1  0  0  0  0  0  0
  161.7150  198.5830  145.8350 O   0  0  0  0  0  1  0  0  0  0  0  0
  159.3520  201.3280  144.8770 C   0  0  0  0  0  3  0  0  0  0  0  0
  161.8580  205.9000  149.9550 C   0  0  0  0  0  0  0  0  0  0  0  0
  160.8060  205.3060  152.8830 C   0  0  0  0  0  2  0  0  0  0  0  0
  161.4060  202.6350  148.4570 N   0  0  0  0  0  0  0  0  0  0  0  0
  159.7370  202.5210  145.3240 C   0  0  0  0  0  3  0  0  0  0  0  0
  161.6910  204.5650  149.8940 C   0  0  0  0  0  0  0  0  0  0  0  0
  162.2040  208.1440  150.6410 C   0  0  0  0  0  3  0  0  0  0  0  0
  161.0880  202.7470  145.9160 C   0  0  1  0  0  3  0  0  0  0  0  0
  160.1690  200.1040  144.9740 C   0  0  0  0  0  3  0  0  0  0  0  0
  160.7870  206.6080  152.0850 C   0  0  2  0  0  3  0  0  0  0  0  0
  161.5100  204.7720  147.3580 C   0  0  0  0  0  0  0  0  0  0  0  0
  161.2540  200.6040  147.1740 C   0  0  0  0  0  0  0  0  0  0  0  0
  161.5170  203.9250  148.5650 C   0  0  0  0  0  0  0  0  0  0  0  0
  161.5670  206.3810  145.1330 C   0  0  0  0  0  3  0  0  0  0  0  0
  160.4860  204.0930  152.0190 C   0  0  0  0  0  2  0  0  0  0  0  0
  161.3720  205.0390  144.9990 N   0  0  0  0  0  0  0  0  0  0  0  0
  161.6730  203.7290  151.1400 C   0  0  0  0  0  2  0  0  0  0  0  0
  162.0300  206.7130  151.1890 C   0  0  1  0  0  3  0  0  0  0  0  0
  161.7300  206.9300  146.3660 N   0  0  0  0  0  0  0  0  0  0  0  0
  161.8770  206.7000  148.7870 N   0  0  0  0  0  0  0  0  0  0  0  0
  160.7470  207.6770  152.9870 O   0  0  0  0  0  0  0  0  0  0  0  0
  160.8740  207.0870  154.2470 C   0  0  0  0  0  2  0  0  0  0  0  0
  162.2320  209.4350  156.2820 N   0  0  0  0  0  2  0  0  0  0  0  0
  160.4080  209.4720  154.7440 C   0  0  0  0  0  2  0  0  0  0  0  0
  160.4840  208.0800  155.3260 C   0  0  2  0  0  3  0  0  0  0  0  0
  161.2660  210.3190  155.6510 C   0  0  0  0  0  2  0  0  0  0  0  0
  161.5730  208.1410  156.3790 C   0  0  0  0  0  2  0  0  0  0  0  0
  1 27  1  0  0  0  0
  2 14  2  0  0  0  0
  3 19  1  0  0  0  0
  4 18  2  0  0  0  0
  5 11  1  0  0  0  0
  7  3  1  0  0  0  0
  8 16  1  0  0  0  0
  8 12  2  0  0  0  0
  9 25  1  0  0  0  0
 11 20  2  0  0  0  0
 13  9  2  0  0  0  0
 13 24  1  0  0  0  0
 15 12  1  1  0  0  0
 15  4  1  0  0  0  0
 15  5  1  0  0  0  0
 16  3  2  0  0  0  0
 17 10  1  0  0  0  0
 17 28  1  1  0  0  0
 18  1  1  0  0  0  0
 18 20  1  0  0  0  0
 19  5  2  0  0  0  0
 19  6  1  0  0  0  0
 20 13  1  0  0  0  0
 21 26  1  0  0  0  0
 22 10  1  0  0  0  0
 23 21  2  0  0  0  0
 23  4  1  0  0  0  0
 24 22  1  0  0  0  0
 25 14  1  6  0  0  0
 25 17  1  0  0  0  0
 26  1  2  0  0  0  0
 27  2  1  0  0  0  0
 27  9  1  0  0  0  0
 28 29  1  0  0  0  0
 30 34  1  0  0  0  0
 31 32  1  0  0  0  0
 31 33  1  0  0  0  0
 32 29  1  6  0  0  0
 32 34  1  0  0  0  0
 33 30  1  0  0  0  0
M  END
>  <MODEL>
2

>  <REMARK>
 VINA RESULT:      -8.1      3.310      9.189
  Name = 
  3 active torsions:
  status: ('A' for Active; 'I' for Inactive)
    1  A    between atoms: C_17  and  O_28
    2  A    between atoms: O_28  and  C_29
    3  A    between atoms: C_29  and  C_32
                            x       y       z     vdW  Elec       q    Type
                         _______ _______ _______ _____ _____    ______ ____

>  <TORSDO>
F 3

$$$$
=
 OpenBabel11122414343D

 34 40  0  0  1  0  0  0  0  0999 V2000
  161.5450  208.4540  149.8680 C   0  0  0  0  0  0  0  0  0  0  0  0
  161.4350  206.9030  147.8250 C   0  0  0  0  0  3  0  0  0  0  0  0
  160.7580  209.8650  156.2380 C   0  0  0  0  0  0  0  0  0  0  0  0
  161.6260  209.7630  151.8830 C   0  0  2  0  0  3  0  0  0  0  0  0
  160.9170  208.6630  154.0460 C   0  0  0  0  0  0  0  0  0  0  0  0
  159.8740  207.5030  155.9440 C   0  0  0  0  0  1  0  0  0  0  0  0
  159.8140  210.1010  157.2320 O   0  0  0  0  0  1  0  0  0  0  0  0
  162.9490  210.6090  155.2450 C   0  0  0  0  0  3  0  0  0  0  0  0
  160.9010  206.0460  149.9580 C   0  0  0  0  0  0  0  0  0  0  0  0
  161.2320  202.9790  150.6770 C   0  0  0  0  0  2  0  0  0  0  0  0
  160.7250  207.4510  153.2900 N   0  0  0  0  0  0  0  0  0  0  0  0
  162.8230  210.2340  153.9750 C   0  0  0  0  0  3  0  0  0  0  0  0
  160.7160  206.0810  151.2920 C   0  0  0  0  0  0  0  0  0  0  0  0
  161.0490  205.4250  147.6740 C   0  0  0  0  0  3  0  0  0  0  0  0
  161.4980  209.8930  153.3770 C   0  0  0  0  0  0  0  0  0  0  0  0
  161.8340  210.6650  156.2080 C   0  0  0  0  0  3  0  0  0  0  0  0
  161.7340  203.7550  149.4620 C   0  0  2  0  0  3  0  0  0  0  0  0
  161.3840  208.5430  151.2510 C   0  0  0  0  0  0  0  0  0  0  0  0
  160.5540  208.6930  155.3450 C   0  0  0  0  0  0  0  0  0  0  0  0
  160.9430  207.3600  152.0130 C   0  0  0  0  0  0  0  0  0  0  0  0
  162.1440  210.7360  149.7830 C   0  0  0  0  0  3  0  0  0  0  0  0
  161.3640  203.7760  151.9690 C   0  0  0  0  0  2  0  0  0  0  0  0
  161.9970  210.8370  151.1330 N   0  0  0  0  0  0  0  0  0  0  0  0
  160.2950  204.8550  152.0480 C   0  0  0  0  0  2  0  0  0  0  0  0
  160.7390  204.8590  149.0750 C   0  0  1  0  0  3  0  0  0  0  0  0
  161.9210  209.5490  149.1570 N   0  0  0  0  0  0  0  0  0  0  0  0
  161.2990  207.1950  149.2330 N   0  0  0  0  0  0  0  0  0  0  0  0
  161.8980  202.8570  148.4020 O   0  0  0  0  0  0  0  0  0  0  0  0
  161.5690  201.6080  148.9370 C   0  0  0  0  0  2  0  0  0  0  0  0
  160.6790  201.5150  145.6660 N   0  0  0  0  0  2  0  0  0  0  0  0
  161.4430  199.8490  147.1940 C   0  0  0  0  0  2  0  0  0  0  0  0
  160.6520  200.8630  147.9860 C   0  0  2  0  0  3  0  0  0  0  0  0
  161.0940  200.1250  145.7520 C   0  0  0  0  0  2  0  0  0  0  0  0
  160.0900  201.8280  146.9610 C   0  0  0  0  0  2  0  0  0  0  0  0
  1 18  1  0  0  0  0
  2 27  1  0  0  0  0
  3  7  1  0  0  0  0
  4 23  1  1  0  0  0
  4 15  1  0  0  0  0
  5 19  1  0  0  0  0
  8 16  2  0  0  0  0
  9 13  2  0  0  0  0
 10 22  1  0  0  0  0
 11  5  2  0  0  0  0
 12  8  1  0  0  0  0
 13 20  1  0  0  0  0
 13 24  1  0  0  0  0
 14  2  2  0  0  0  0
 15 12  2  0  0  0  0
 15  5  1  0  0  0  0
 16  3  1  0  0  0  0
 17 28  1  6  0  0  0
 17 10  1  0  0  0  0
 18  4  1  0  0  0  0
 18 20  2  0  0  0  0
 19  6  1  0  0  0  0
 19  3  2  0  0  0  0
 20 11  1  0  0  0  0
 21 23  2  0  0  0  0
 22 24  1  0  0  0  0
 25 14  1  6  0  0  0
 25 17  1  0  0  0  0
 25  9  1  0  0  0  0
 26 21  1  0  0  0  0
 26  1  2  0  0  0  0
 27  1  1  0  0  0  0
 27  9  1  0  0  0  0
 28 29  1  0  0  0  0
 30 33  1  0  0  0  0
 30 34  1  0  0  0  0
 31 32  1  0  0  0  0
 32 29  1  1  0  0  0
 33 31  1  0  0  0  0
 34 32  1  0  0  0  0
M  END
>  <MODEL>
3

>  <REMARK>
 VINA RESULT:      -7.8      2.483      4.612
  Name = 
  3 active torsions:
  status: ('A' for Active; 'I' for Inactive)
    1  A    between atoms: C_17  and  O_28
    2  A    between atoms: O_28  and  C_29
    3  A    between atoms: C_29  and  C_32
                            x       y       z     vdW  Elec       q    Type
                         _______ _______ _______ _____ _____    ______ ____

>  <TORSDO>
F 3

$$$$
=
 OpenBabel11122414343D

 34 40  0  0  1  0  0  0  0  0999 V2000
  161.8460  209.6060  151.7740 C   0  0  0  0  0  0  0  0  0  0  0  0
  161.8310  211.2310  153.7620 C   0  0  0  0  0  3  0  0  0  0  0  0
  161.3700  203.6510  149.0350 C   0  0  0  0  0  0  0  0  0  0  0  0
  161.7880  207.9610  150.0210 C   0  0  0  0  0  0  0  0  0  0  0  0
  161.3180  205.5600  150.6560 C   0  0  0  0  0  0  0  0  0  0  0  0
  161.1810  203.2710  151.5390 C   0  0  0  0  0  1  0  0  0  0  0  0
  162.0060  202.4220  148.8910 O   0  0  0  0  0  1  0  0  0  0  0  0
  160.0910  205.4710  147.8550 C   0  0  0  0  0  3  0  0  0  0  0  0
  161.3250  208.9550  154.1250 C   0  0  0  0  0  0  0  0  0  0  0  0
  159.5090  207.9920  156.5350 C   0  0  0  0  0  2  0  0  0  0  0  0
  161.1640  206.0180  152.0140 N   0  0  0  0  0  0  0  0  0  0  0  0
  160.3880  206.5420  148.5880 C   0  0  0  0  0  3  0  0  0  0  0  0
  161.1290  207.6650  153.7910 C   0  0  0  0  0  0  0  0  0  0  0  0
  161.5610  211.0240  155.2590 C   0  0  0  0  0  3  0  0  0  0  0  0
  161.5400  206.5580  149.5360 C   0  0  1  0  0  3  0  0  0  0  0  0
  160.8050  204.1840  147.9420 C   0  0  0  0  0  3  0  0  0  0  0  0
  159.7530  209.4020  156.0000 C   0  0  2  0  0  3  0  0  0  0  0  0
  161.6390  208.2860  151.3690 C   0  0  0  0  0  0  0  0  0  0  0  0
  161.2820  204.2360  150.4000 C   0  0  0  0  0  0  0  0  0  0  0  0
  161.2910  207.2600  152.3700 C   0  0  0  0  0  0  0  0  0  0  0  0
  162.3490  210.2170  149.5510 C   0  0  0  0  0  3  0  0  0  0  0  0
  159.3850  206.9630  155.4190 C   0  0  0  0  0  2  0  0  0  0  0  0
  162.1450  208.9350  149.1390 N   0  0  0  0  0  0  0  0  0  0  0  0
  160.7480  206.6460  154.8240 C   0  0  0  0  0  2  0  0  0  0  0  0
  161.1920  209.5440  155.4850 C   0  0  1  0  0  3  0  0  0  0  0  0
  162.1980  210.5480  150.8610 N   0  0  0  0  0  0  0  0  0  0  0  0
  161.6850  209.9260  153.1600 N   0  0  0  0  0  0  0  0  0  0  0  0
  159.5150  210.3130  157.0340 O   0  0  0  0  0  0  0  0  0  0  0  0
  158.1950  210.7330  156.8440 C   0  0  0  0  0  2  0  0  0  0  0  0
  155.9770  212.4110  154.9050 N   0  0  0  0  0  2  0  0  0  0  0  0
  158.3070  212.6930  155.3290 C   0  0  0  0  0  2  0  0  0  0  0  0
  158.0050  211.2170  155.4190 C   0  0  2  0  0  3  0  0  0  0  0  0
  157.1010  213.2960  154.6530 C   0  0  0  0  0  2  0  0  0  0  0  0
  156.5480  211.0770  155.0250 C   0  0  0  0  0  2  0  0  0  0  0  0
  1 27  1  0  0  0  0
  2 14  2  0  0  0  0
  3 19  1  0  0  0  0
  4 18  2  0  0  0  0
  5 11  1  0  0  0  0
  7  3  1  0  0  0  0
  8 16  1  0  0  0  0
  8 12  2  0  0  0  0
  9 25  1  0  0  0  0
 11 20  2  0  0  0  0
 13  9  2  0  0  0  0
 13 24  1  0  0  0  0
 15 12  1  6  0  0  0
 15  4  1  0  0  0  0
 15  5  1  0  0  0  0
 16  3  2  0  0  0  0
 17 10  1  0  0  0  0
 17 28  1  1  0  0  0
 18  1  1  0  0  0  0
 18 20  1  0  0  0  0
 19  5  2  0  0  0  0
 19  6  1  0  0  0  0
 20 13  1  0  0  0  0
 21 26  1  0  0  0  0
 22 10  1  0  0  0  0
 23 21  2  0  0  0  0
 23  4  1  0  0  0  0
 24 22  1  0  0  0  0
 25 14  1  6  0  0  0
 25 17  1  0  0  0  0
 26  1  2  0  0  0  0
 27  2  1  0  0  0  0
 27  9  1  0  0  0  0
 29 28  1  0  0  0  0
 30 34  1  0  0  0  0
 31 32  1  0  0  0  0
 32 29  1  1  0  0  0
 33 30  1  0  0  0  0
 33 31  1  0  0  0  0
 34 32  1  0  0  0  0
M  END
>  <MODEL>
4

>  <REMARK>
 VINA RESULT:      -7.2      3.025      8.363
  Name = 
  3 active torsions:
  status: ('A' for Active; 'I' for Inactive)
    1  A    between atoms: C_17  and  O_28
    2  A    between atoms: O_28  and  C_29
    3  A    between atoms: C_29  and  C_32
                            x       y       z     vdW  Elec       q    Type
                         _______ _______ _______ _____ _____    ______ ____

>  <TORSDO>
F 3

$$$$
=
 OpenBabel11122414343D

 34 40  0  0  1  0  0  0  0  0999 V2000
  160.7810  203.8000  151.2230 C   0  0  0  0  0  0  0  0  0  0  0  0
  160.8960  205.8710  152.7360 C   0  0  0  0  0  3  0  0  0  0  0  0
  160.4550  200.7770  145.3970 C   0  0  0  0  0  0  0  0  0  0  0  0
  160.7120  201.9670  149.6680 C   0  0  0  0  0  0  0  0  0  0  0  0
  160.6910  202.5020  147.1970 C   0  0  0  0  0  0  0  0  0  0  0  0
  160.3410  203.2620  144.8870 C   0  0  0  0  0  1  0  0  0  0  0  0
  159.6300  200.5100  144.3090 O   0  0  0  0  0  1  0  0  0  0  0  0
  162.1380  199.8140  147.0030 C   0  0  0  0  0  3  0  0  0  0  0  0
  160.9590  206.1460  150.3930 C   0  0  0  0  0  0  0  0  0  0  0  0
  162.3460  208.6410  149.0210 C   0  0  0  0  0  2  0  0  0  0  0  0
  160.7960  203.8920  147.5640 N   0  0  0  0  0  0  0  0  0  0  0  0
  161.9680  200.5780  148.0790 C   0  0  0  0  0  3  0  0  0  0  0  0
  160.9550  205.7560  149.1030 C   0  0  0  0  0  0  0  0  0  0  0  0
  160.9860  207.3710  152.4230 C   0  0  0  0  0  3  0  0  0  0  0  0
  160.7530  201.4260  148.2640 C   0  0  0  0  0  0  0  0  0  0  0  0
  161.2040  199.7670  145.8630 C   0  0  0  0  0  3  0  0  0  0  0  0
  162.4040  208.1690  150.4720 C   0  0  2  0  0  3  0  0  0  0  0  0
  160.7890  203.3400  149.9050 C   0  0  0  0  0  0  0  0  0  0  0  0
  160.5170  202.1750  145.9000 C   0  0  2  0  0  3  0  0  0  0  0  0
  160.8570  204.3060  148.7940 C   0  0  0  0  0  0  0  0  0  0  0  0
  160.6020  201.5810  152.0060 C   0  0  0  0  0  3  0  0  0  0  0  0
  162.3900  207.4830  148.0320 C   0  0  0  0  0  2  0  0  0  0  0  0
  160.6150  201.1150  150.7250 N   0  0  0  0  0  0  0  0  0  0  0  0
  161.0540  206.7580  147.9910 C   0  0  0  0  0  2  0  0  0  0  0  0
  161.0660  207.5430  150.8930 C   0  0  1  0  0  3  0  0  0  0  0  0
  160.6870  202.9160  152.2500 N   0  0  0  0  0  0  0  0  0  0  0  0
  160.8660  205.2110  151.4510 N   0  0  0  0  0  0  0  0  0  0  0  0
  162.7020  209.2690  151.2830 O   0  0  0  0  0  0  0  0  0  0  0  0
  161.7060  210.2060  150.9940 C   0  0  0  0  0  2  0  0  0  0  0  0
  159.5780  210.5110  153.6170 N   0  0  0  0  0  2  0  0  0  0  0  0
  161.9560  210.3930  153.4550 C   0  0  0  0  0  2  0  0  0  0  0  0
  161.4480  211.0790  152.2090 C   0  0  2  0  0  3  0  0  0  0  0  0
  160.7910  210.4180  154.4130 C   0  0  0  0  0  2  0  0  0  0  0  0
  159.9550  211.2380  152.4130 C   0  0  0  0  0  2  0  0  0  0  0  0
  1 27  1  0  0  0  0
  1 26  1  0  0  0  0
  3 16  2  0  0  0  0
  3 19  1  0  0  0  0
  4 18  1  0  0  0  0
  4 23  2  0  0  0  0
  5 11  1  0  0  0  0
  5 15  2  0  0  0  0
  7  3  1  0  0  0  0
  8 12  2  0  0  0  0
  9 25  1  0  0  0  0
  9 27  1  0  0  0  0
 10 17  1  0  0  0  0
 11 20  2  0  0  0  0
 12 15  1  0  0  0  0
 13  9  2  0  0  0  0
 14  2  2  0  0  0  0
 15  4  1  0  0  0  0
 16  8  1  0  0  0  0
 17 25  1  0  0  0  0
 17 28  1  1  0  0  0
 18  1  2  0  0  0  0
 19  6  1  1  0  0  0
 19  5  1  0  0  0  0
 20 13  1  0  0  0  0
 20 18  1  0  0  0  0
 21 26  2  0  0  0  0
 22 10  1  0  0  0  0
 23 21  1  0  0  0  0
 24 22  1  0  0  0  0
 24 13  1  0  0  0  0
 25 14  1  1  0  0  0
 27  2  1  0  0  0  0
 29 28  1  0  0  0  0
 30 33  1  0  0  0  0
 31 33  1  0  0  0  0
 32 29  1  6  0  0  0
 32 34  1  0  0  0  0
 32 31  1  0  0  0  0
 34 30  1  0  0  0  0
M  END
>  <MODEL>
5

>  <REMARK>
 VINA RESULT:      -6.9      2.470      8.791
  Name = 
  3 active torsions:
  status: ('A' for Active; 'I' for Inactive)
    1  A    between atoms: C_17  and  O_28
    2  A    between atoms: O_28  and  C_29
    3  A    between atoms: C_29  and  C_32
                            x       y       z     vdW  Elec       q    Type
                         _______ _______ _______ _____ _____    ______ ____

>  <TORSDO>
F 3

$$$$
=
 OpenBabel11122414343D

 34 40  0  0  1  0  0  0  0  0999 V2000
  160.9390  204.8170  151.8480 C   0  0  0  0  0  0  0  0  0  0  0  0
  160.8500  206.0270  154.1100 C   0  0  0  0  0  3  0  0  0  0  0  0
  160.8830  204.6020  145.2790 C   0  0  0  0  0  0  0  0  0  0  0  0
  161.0480  203.8420  149.6520 C   0  0  0  0  0  0  0  0  0  0  0  0
  160.9520  205.3900  147.6560 C   0  0  0  0  0  0  0  0  0  0  0  0
  160.5070  207.0380  145.8890 C   0  0  0  0  0  1  0  0  0  0  0  0
  160.0810  204.7550  144.1530 O   0  0  0  0  0  1  0  0  0  0  0  0
  162.6690  203.2060  146.3750 C   0  0  0  0  0  3  0  0  0  0  0  0
  160.8650  207.2950  152.1200 C   0  0  0  0  0  0  0  0  0  0  0  0
  161.9750  210.2600  152.0140 C   0  0  0  0  0  2  0  0  0  0  0  0
  160.9160  206.4860  148.5910 N   0  0  0  0  0  0  0  0  0  0  0  0
  162.4290  203.4080  147.6690 C   0  0  0  0  0  3  0  0  0  0  0  0
  160.8920  207.5050  150.7890 C   0  0  0  0  0  0  0  0  0  0  0  0
  160.7810  207.5160  154.4790 C   0  0  0  0  0  3  0  0  0  0  0  0
  161.1340  203.9700  148.1560 C   0  0  0  0  0  0  0  0  0  0  0  0
  161.7360  203.5680  145.2920 C   0  0  0  0  0  3  0  0  0  0  0  0
  162.0940  209.2130  153.1200 C   0  0  2  0  0  3  0  0  0  0  0  0
  160.9840  204.9760  150.4620 C   0  0  0  0  0  0  0  0  0  0  0  0
  160.8040  205.6420  146.3390 C   0  0  2  0  0  3  0  0  0  0  0  0
  160.9430  206.3310  149.8800 C   0  0  0  0  0  0  0  0  0  0  0  0
  160.9970  202.4720  151.5880 C   0  0  0  0  0  3  0  0  0  0  0  0
  162.1320  209.6550  150.6250 C   0  0  0  0  0  2  0  0  0  0  0  0
  161.0480  202.6110  150.2330 N   0  0  0  0  0  0  0  0  0  0  0  0
  160.8780  208.8940  150.2230 C   0  0  0  0  0  2  0  0  0  0  0  0
  160.8310  208.3410  153.1780 C   0  0  1  0  0  3  0  0  0  0  0  0
  160.9450  203.5700  152.3880 N   0  0  0  0  0  0  0  0  0  0  0  0
  160.8790  205.9900  152.6660 N   0  0  0  0  0  0  0  0  0  0  0  0
  162.2820  209.8770  154.3370 O   0  0  0  0  0  0  0  0  0  0  0  0
  161.5810  211.0780  154.2020 C   0  0  0  0  0  2  0  0  0  0  0  0
  159.0400  210.0610  156.2040 N   0  0  0  0  0  2  0  0  0  0  0  0
  161.3540  210.4890  156.6000 C   0  0  0  0  0  2  0  0  0  0  0  0
  160.8980  211.4300  155.5100 C   0  0  2  0  0  3  0  0  0  0  0  0
  160.0810  209.9590  157.2130 C   0  0  0  0  0  2  0  0  0  0  0  0
  159.4050  211.2060  155.3810 C   0  0  0  0  0  2  0  0  0  0  0  0
  1 26  1  0  0  0  0
  1 27  1  0  0  0  0
  2 14  2  0  0  0  0
  3 16  2  0  0  0  0
  3 19  1  0  0  0  0
  4 23  2  0  0  0  0
  4 18  1  0  0  0  0
  5 15  2  0  0  0  0
  5 11  1  0  0  0  0
  7  3  1  0  0  0  0
  8 12  2  0  0  0  0
  9 27  1  0  0  0  0
  9 25  1  0  0  0  0
 10 17  1  0  0  0  0
 11 20  2  0  0  0  0
 12 15  1  0  0  0  0
 13  9  2  0  0  0  0
 15  4  1  0  0  0  0
 16  8  1  0  0  0  0
 17 25  1  0  0  0  0
 17 28  1  1  0  0  0
 18  1  2  0  0  0  0
 19  6  1  1  0  0  0
 19  5  1  0  0  0  0
 20 18  1  0  0  0  0
 20 13  1  0  0  0  0
 21 26  2  0  0  0  0
 22 10  1  0  0  0  0
 23 21  1  0  0  0  0
 24 22  1  0  0  0  0
 24 13  1  0  0  0  0
 25 14  1  1  0  0  0
 27  2  1  0  0  0  0
 29 28  1  0  0  0  0
 30 33  1  0  0  0  0
 31 33  1  0  0  0  0
 32 29  1  6  0  0  0
 32 31  1  0  0  0  0
 34 32  1  0  0  0  0
 34 30  1  0  0  0  0
M  END
>  <MODEL>
6

>  <REMARK>
 VINA RESULT:      -6.2      2.993      8.031
  Name = 
  3 active torsions:
  status: ('A' for Active; 'I' for Inactive)
    1  A    between atoms: C_17  and  O_28
    2  A    between atoms: O_28  and  C_29
    3  A    between atoms: C_29  and  C_32
                            x       y       z     vdW  Elec       q    Type
                         _______ _______ _______ _____ _____    ______ ____

>  <TORSDO>
F 3

$$$$
=
 OpenBabel11122414343D

 34 40  0  0  1  0  0  0  0  0999 V2000
  160.6680  207.2740  154.0370 C   0  0  0  0  0  0  0  0  0  0  0  0
  161.2050  204.7680  153.8740 C   0  0  0  0  0  3  0  0  0  0  0  0
  160.1240  213.3500  151.5950 C   0  0  0  0  0  0  0  0  0  0  0  0
  160.1680  209.6250  154.0130 C   0  0  0  0  0  0  0  0  0  0  0  0
  160.4260  210.8750  151.8310 C   0  0  0  0  0  0  0  0  0  0  0  0
  161.0650  211.9350  149.7090 C   0  0  0  0  0  1  0  0  0  0  0  0
  160.8430  214.4500  151.1360 O   0  0  0  0  0  1  0  0  0  0  0  0
  158.1780  212.5890  153.0000 C   0  0  0  0  0  3  0  0  0  0  0  0
  161.2960  206.1010  151.9280 C   0  0  0  0  0  0  0  0  0  0  0  0
  160.8460  204.8960  149.0330 C   0  0  0  0  0  2  0  0  0  0  0  0
  160.7770  209.6140  151.2270 N   0  0  0  0  0  0  0  0  0  0  0  0
  158.5640  211.3730  153.3780 C   0  0  0  0  0  3  0  0  0  0  0  0
  161.2040  207.2300  151.1990 C   0  0  0  0  0  0  0  0  0  0  0  0
  161.6240  203.8800  152.6930 C   0  0  0  0  0  3  0  0  0  0  0  0
  159.9860  210.9270  153.2810 C   0  0  0  0  0  0  0  0  0  0  0  0
  159.0730  213.5910  152.3910 C   0  0  0  0  0  2  0  0  0  0  0  0
  160.5990  204.2650  150.4010 C   0  0  2  0  0  3  0  0  0  0  0  0
  160.5420  208.4690  153.3280 C   0  0  0  0  0  0  0  0  0  0  0  0
  160.5150  212.0040  151.0980 C   0  0  0  0  0  0  0  0  0  0  0  0
  160.8250  208.4940  151.8810 C   0  0  0  0  0  0  0  0  0  0  0  0
  160.0850  208.3880  156.0350 C   0  0  0  0  0  3  0  0  0  0  0  0
  160.4470  206.3660  148.9920 C   0  0  0  0  0  2  0  0  0  0  0  0
  159.9520  209.5610  155.3560 N   0  0  0  0  0  0  0  0  0  0  0  0
  161.4690  207.2230  149.7220 C   0  0  0  0  0  2  0  0  0  0  0  0
  161.6440  204.7470  151.4180 C   0  0  1  0  0  3  0  0  0  0  0  0
  160.4400  207.2520  155.3770 N   0  0  0  0  0  0  0  0  0  0  0  0
  161.0480  206.0940  153.3210 N   0  0  0  0  0  0  0  0  0  0  0  0
  160.6610  202.8750  150.2630 O   0  0  0  0  0  0  0  0  0  0  0  0
  161.2510  202.6650  149.0140 C   0  0  0  0  0  2  0  0  0  0  0  0
  161.1910  201.0590  146.0280 N   0  0  0  0  0  2  0  0  0  0  0  0
  161.5590  200.3200  148.2660 C   0  0  0  0  0  2  0  0  0  0  0  0
  160.5970  201.4820  148.3240 C   0  0  2  0  0  3  0  0  0  0  0  0
  161.5750  199.9010  146.8170 C   0  0  0  0  0  2  0  0  0  0  0  0
  160.3020  201.8360  146.8800 C   0  0  0  0  0  2  0  0  0  0  0  0
  1 26  1  0  0  0  0
  3 16  1  0  0  0  0
  4 23  2  0  0  0  0
  5 15  2  0  0  0  0
  6 19  1  0  0  0  0
  7  3  1  0  0  0  0
  8 12  2  0  0  0  0
  9 27  1  0  0  0  0
 10 17  1  0  0  0  0
 11  5  1  0  0  0  0
 11 20  2  0  0  0  0
 13 20  1  0  0  0  0
 13  9  2  0  0  0  0
 14  2  2  0  0  0  0
 15 12  1  0  0  0  0
 15  4  1  0  0  0  0
 16  8  1  0  0  0  0
 17 28  1  6  0  0  0
 17 25  1  0  0  0  0
 18  4  1  0  0  0  0
 18  1  2  0  0  0  0
 19  3  2  0  0  0  0
 19  5  1  0  0  0  0
 20 18  1  0  0  0  0
 22 10  1  0  0  0  0
 22 24  1  0  0  0  0
 23 21  1  0  0  0  0
 24 13  1  0  0  0  0
 25  9  1  0  0  0  0
 25 14  1  1  0  0  0
 26 21  2  0  0  0  0
 27  2  1  0  0  0  0
 27  1  1  0  0  0  0
 29 28  1  0  0  0  0
 30 33  1  0  0  0  0
 30 34  1  0  0  0  0
 31 32  1  0  0  0  0
 32 29  1  6  0  0  0
 33 31  1  0  0  0  0
 34 32  1  0  0  0  0
M  END
>  <MODEL>
7

>  <REMARK>
 VINA RESULT:      -6.2      1.376      1.904
  Name = 
  3 active torsions:
  status: ('A' for Active; 'I' for Inactive)
    1  A    between atoms: C_17  and  O_28
    2  A    between atoms: O_28  and  C_29
    3  A    between atoms: C_29  and  C_32
                            x       y       z     vdW  Elec       q    Type
                         _______ _______ _______ _____ _____    ______ ____

>  <TORSDO>
F 3

$$$$
=
 OpenBabel11122414343D

 34 40  0  0  1  0  0  0  0  0999 V2000
  160.9240  207.4500  153.9010 C   0  0  0  0  0  0  0  0  0  0  0  0
  162.3110  205.9430  152.3520 C   0  0  0  0  0  3  0  0  0  0  0  0
  158.3400  213.2020  155.7520 C   0  0  0  0  0  0  0  0  0  0  0  0
  159.6290  208.9850  155.2240 C   0  0  0  0  0  0  0  0  0  0  0  0
  159.4870  211.3900  154.4580 C   0  0  0  0  0  0  0  0  0  0  0  0
  159.7660  213.7140  153.7150 C   0  0  0  0  0  1  0  0  0  0  0  0
  158.6370  214.4530  156.2820 O   0  0  0  0  0  1  0  0  0  0  0  0
  156.7510  211.2500  155.8190 C   0  0  0  0  0  3  0  0  0  0  0  0
  161.9770  208.2060  151.7700 C   0  0  0  0  0  0  0  0  0  0  0  0
  162.0520  209.2060  148.7660 C   0  0  0  0  0  2  0  0  0  0  0  0
  160.2730  211.0030  153.3140 N   0  0  0  0  0  0  0  0  0  0  0  0
  157.5300  210.2410  155.4370 C   0  0  0  0  0  3  0  0  0  0  0  0
  161.5120  209.4620  151.9130 C   0  0  0  0  0  0  0  0  0  0  0  0
  163.0450  206.2220  151.0330 C   0  0  0  0  0  3  0  0  0  0  0  0
  159.0190  210.3410  155.4490 C   0  0  0  0  0  0  0  0  0  0  0  0
  157.2510  212.5770  156.2230 C   0  0  0  0  0  2  0  0  0  0  0  0
  162.0080  207.7830  149.3190 C   0  0  2  0  0  3  0  0  0  0  0  0
  160.4030  208.7300  154.0910 C   0  0  0  0  0  0  0  0  0  0  0  0
  159.1910  212.6920  154.6440 C   0  0  0  0  0  0  0  0  0  0  0  0
  160.6960  209.7920  153.1100 C   0  0  0  0  0  0  0  0  0  0  0  0
  159.9360  206.7390  155.9230 C   0  0  0  0  0  3  0  0  0  0  0  0
  161.1630  210.1610  149.5510 C   0  0  0  0  0  2  0  0  0  0  0  0
  159.4150  207.9820  156.1200 N   0  0  0  0  0  0  0  0  0  0  0  0
  161.8000  210.5170  150.8860 C   0  0  0  0  0  2  0  0  0  0  0  0
  162.7910  207.6900  150.6360 C   0  0  1  0  0  3  0  0  0  0  0  0
  160.6840  206.4760  154.8180 N   0  0  0  0  0  0  0  0  0  0  0  0
  161.7120  207.2020  152.7320 N   0  0  0  0  0  0  0  0  0  0  0  0
  162.5590  206.9220  148.3650 O   0  0  0  0  0  0  0  0  0  0  0  0
  161.7840  207.1150  147.2180 C   0  0  0  0  0  2  0  0  0  0  0  0
  161.1810  204.8750  144.7450 N   0  0  0  0  0  2  0  0  0  0  0  0
  161.8420  204.6430  147.0260 C   0  0  0  0  0  2  0  0  0  0  0  0
  160.9670  205.8700  146.9290 C   0  0  2  0  0  3  0  0  0  0  0  0
  161.6140  203.9010  145.7320 C   0  0  0  0  0  2  0  0  0  0  0  0
  160.4770  205.9050  145.4940 C   0  0  0  0  0  2  0  0  0  0  0  0
  1 18  2  0  0  0  0
  1 26  1  0  0  0  0
  2 27  1  0  0  0  0
  3 16  1  0  0  0  0
  3  7  1  0  0  0  0
  4 15  1  0  0  0  0
  4 23  2  0  0  0  0
  5 19  1  0  0  0  0
  5 15  2  0  0  0  0
  6 19  1  0  0  0  0
  8 16  1  0  0  0  0
  9 13  2  0  0  0  0
  9 27  1  0  0  0  0
 10 17  1  0  0  0  0
 10 22  1  0  0  0  0
 11  5  1  0  0  0  0
 12 15  1  0  0  0  0
 12  8  2  0  0  0  0
 13 20  1  0  0  0  0
 14  2  2  0  0  0  0
 17 28  1  6  0  0  0
 17 25  1  0  0  0  0
 18  4  1  0  0  0  0
 19  3  2  0  0  0  0
 20 11  2  0  0  0  0
 20 18  1  0  0  0  0
 21 23  1  0  0  0  0
 22 24  1  0  0  0  0
 24 13  1  0  0  0  0
 25 14  1  1  0  0  0
 25  9  1  0  0  0  0
 26 21  2  0  0  0  0
 27  1  1  0  0  0  0
 29 28  1  0  0  0  0
 30 34  1  0  0  0  0
 30 33  1  0  0  0  0
 32 31  1  0  0  0  0
 32 29  1  6  0  0  0
 33 31  1  0  0  0  0
 34 32  1  0  0  0  0
M  END
>  <MODEL>
8

>  <REMARK>
 VINA RESULT:      -5.6      2.896      4.650
  Name = 
  3 active torsions:
  status: ('A' for Active; 'I' for Inactive)
    1  A    between atoms: C_17  and  O_28
    2  A    between atoms: O_28  and  C_29
    3  A    between atoms: C_29  and  C_32
                            x       y       z     vdW  Elec       q    Type
                         _______ _______ _______ _____ _____    ______ ____

>  <TORSDO>
F 3

$$$$
=
 OpenBabel11122414343D

 34 40  0  0  1  0  0  0  0  0999 V2000
  160.8760  204.0300  151.0990 C   0  0  0  0  0  0  0  0  0  0  0  0
  161.0020  206.2070  152.4550 C   0  0  0  0  0  3  0  0  0  0  0  0
  160.4260  200.5860  145.5200 C   0  0  0  0  0  0  0  0  0  0  0  0
  160.7900  202.0880  149.6840 C   0  0  0  0  0  0  0  0  0  0  0  0
  160.6870  202.4410  147.1830 C   0  0  0  0  0  0  0  0  0  0  0  0
  160.2560  203.0250  144.8360 C   0  0  0  0  0  1  0  0  0  0  0  0
  159.5730  200.2290  144.4810 O   0  0  0  0  0  1  0  0  0  0  0  0
  162.1720  199.7670  147.1390 C   0  0  0  0  0  3  0  0  0  0  0  0
  160.9900  206.3110  150.0970 C   0  0  0  0  0  0  0  0  0  0  0  0
  162.2940  208.7200  148.5060 C   0  0  0  0  0  2  0  0  0  0  0  0
  160.7800  203.8550  147.4450 N   0  0  0  0  0  0  0  0  0  0  0  0
  162.0210  200.6050  148.1620 C   0  0  0  0  0  3  0  0  0  0  0  0
  160.9540  205.8290  148.8390 C   0  0  0  0  0  0  0  0  0  0  0  0
  161.0570  207.6820  152.0310 C   0  0  0  0  0  3  0  0  0  0  0  0
  160.7990  201.4470  148.3230 C   0  0  0  0  0  0  0  0  0  0  0  0
  161.2060  199.6240  146.0350 C   0  0  0  0  0  2  0  0  0  0  0  0
  162.4030  208.3550  149.9850 C   0  0  2  0  0  3  0  0  0  0  0  0
  160.8520  203.4750  149.8190 C   0  0  0  0  0  0  0  0  0  0  0  0
  160.4800  202.0180  145.9190 C   0  0  0  0  0  0  0  0  0  0  0  0
  160.8710  204.3590  148.6390 C   0  0  0  0  0  0  0  0  0  0  0  0
  160.7570  201.8710  152.0460 C   0  0  0  0  0  3  0  0  0  0  0  0
  162.3280  207.4930  147.6020 C   0  0  0  0  0  2  0  0  0  0  0  0
  160.7390  201.3140  150.8030 N   0  0  0  0  0  0  0  0  0  0  0  0
  161.0030  206.7480  147.6550 C   0  0  0  0  0  2  0  0  0  0  0  0
  161.0890  207.7430  150.4900 C   0  0  1  0  0  3  0  0  0  0  0  0
  160.8270  203.2220  152.1900 N   0  0  0  0  0  0  0  0  0  0  0  0
  160.9440  205.4550  151.2220 N   0  0  0  0  0  0  0  0  0  0  0  0
  162.7060  209.5160  150.7040 O   0  0  0  0  0  0  0  0  0  0  0  0
  161.5780  210.3290  150.5640 C   0  0  0  0  0  2  0  0  0  0  0  0
  161.2950  212.4230  147.9130 N   0  0  0  0  0  2  0  0  0  0  0  0
  160.8300  212.6710  150.2400 C   0  0  0  0  0  2  0  0  0  0  0  0
  161.9920  211.7150  150.1080 C   0  0  2  0  0  3  0  0  0  0  0  0
  160.7150  213.3310  148.8880 C   0  0  0  0  0  2  0  0  0  0  0  0
  162.3250  211.6850  148.6290 C   0  0  0  0  0  2  0  0  0  0  0  0
  1 27  1  0  0  0  0
  1 26  1  0  0  0  0
  3 19  2  0  0  0  0
  3 16  1  0  0  0  0
  4 18  1  0  0  0  0
  4 23  2  0  0  0  0
  5 11  1  0  0  0  0
  5 15  2  0  0  0  0
  6 19  1  0  0  0  0
  7  3  1  0  0  0  0
  8 12  2  0  0  0  0
  9 25  1  0  0  0  0
  9 27  1  0  0  0  0
 10 17  1  0  0  0  0
 11 20  2  0  0  0  0
 12 15  1  0  0  0  0
 13  9  2  0  0  0  0
 14  2  2  0  0  0  0
 15  4  1  0  0  0  0
 16  8  1  0  0  0  0
 17 25  1  0  0  0  0
 17 28  1  1  0  0  0
 18  1  2  0  0  0  0
 19  5  1  0  0  0  0
 20 13  1  0  0  0  0
 20 18  1  0  0  0  0
 21 26  2  0  0  0  0
 22 24  1  0  0  0  0
 22 10  1  0  0  0  0
 23 21  1  0  0  0  0
 24 13  1  0  0  0  0
 25 14  1  1  0  0  0
 27  2  1  0  0  0  0
 29 28  1  0  0  0  0
 30 34  1  0  0  0  0
 30 33  1  0  0  0  0
 32 31  1  0  0  0  0
 32 29  1  6  0  0  0
 33 31  1  0  0  0  0
 34 32  1  0  0  0  0
M  END
>  <MODEL>
9

>  <REMARK>
 VINA RESULT:      -5.5      2.389      8.859
  Name = 
  3 active torsions:
  status: ('A' for Active; 'I' for Inactive)
    1  A    between atoms: C_17  and  O_28
    2  A    between atoms: O_28  and  C_29
    3  A    between atoms: C_29  and  C_32
                            x       y       z     vdW  Elec       q    Type
                         _______ _______ _______ _____ _____    ______ ____

>  <TORSDO>
F 3

$$$$
