=
 OpenBabel11122414303D

 34 40  0  0  1  0  0  0  0  0999 V2000
  160.9290  207.2310  154.0300 C   0  0  0  0  0  0  0  0  0  0  0  0
  161.2890  205.0740  152.7700 C   0  0  0  0  0  2  0  0  0  0  0  0
  158.3700  213.3030  153.7700 C   0  0  2  0  0  3  0  0  0  0  0  0
  160.0020  209.3210  154.8810 C   0  0  0  0  0  0  0  0  0  0  0  0
  159.8690  211.2460  153.3880 C   0  0  0  0  0  0  0  0  0  0  0  0
  159.5730  212.9350  151.5400 C   0  0  0  0  0  1  0  0  0  0  0  0
  157.7050  214.4530  153.0230 C   0  0  0  0  0  1  0  0  0  0  0  0
  159.5470  212.8110  155.9800 C   0  0  0  0  0  2  0  0  0  0  0  0
  162.0900  207.1470  151.7900 C   0  0  2  0  0  3  0  0  0  0  0  0
  161.5650  207.2880  148.6350 C   0  0  0  0  0  2  0  0  0  0  0  0
  160.4560  210.4810  152.4230 N   0  0  0  0  0  0  0  0  0  0  0  0
  158.9840  211.4150  155.8080 C   0  0  0  0  0  2  0  0  0  0  0  0
  161.4300  208.4490  151.5090 N   0  0  0  0  0  0  0  0  0  0  0  0
  161.7830  204.7570  151.3740 C   0  0  0  0  0  2  0  0  0  0  0  0
  159.6500  210.6720  154.6750 C   0  0  0  0  0  0  0  0  0  0  0  0
  158.7360  213.8120  155.1630 C   0  0  0  0  0  2  0  0  0  0  0  0
  160.9700  206.4470  149.6770 N   0  0  0  0  0  0  0  0  0  0  0  0
  160.5930  208.5760  153.8370 C   0  0  0  0  0  0  0  0  0  0  0  0
  159.6060  212.7130  153.0540 C   0  0  1  0  0  3  0  0  0  0  0  0
  160.8170  209.1820  152.5960 C   0  0  0  0  0  0  0  0  0  0  0  0
  160.0950  207.3440  156.3020 C   0  0  0  0  0  3  0  0  0  0  0  0
  162.4050  208.4350  149.1940 C   0  0  0  0  0  2  0  0  0  0  0  0
  159.7650  208.6880  156.1140 C   0  0  0  0  0  3  0  0  0  0  0  0
  161.6380  209.2000  150.2600 C   0  0  0  0  0  2  0  0  0  0  0  0
  162.0180  206.0990  150.6600 C   0  0  1  0  0  3  0  0  0  0  0  0
  160.6720  206.6160  155.2610 C   0  0  0  0  0  3  0  0  0  0  0  0
  161.5020  206.4940  152.9490 N   0  0  0  0  0  0  0  0  0  0  0  0
  160.4830  205.2660  148.9730 C   0  0  0  0  0  2  0  0  0  0  0  0
  161.1140  205.2040  147.5940 C   0  0  0  0  0  2  0  0  0  0  0  0
  161.0460  201.6530  147.5380 O   0  0  0  0  0  0  0  0  0  0  0  0
  161.6070  203.3590  146.0040 C   0  0  0  0  0  2  0  0  0  0  0  0
  161.8300  203.8810  147.3950 C   0  0  2  0  0  3  0  0  0  0  0  0
  160.8380  202.0770  146.2180 C   0  0  0  0  0  2  0  0  0  0  0  0
  161.2020  202.8320  148.2820 C   0  0  0  0  0  2  0  0  0  0  0  0
  1 26  1  0  0  0  0
  2 27  1  0  0  0  0
  3  7  1  6  0  0  0
  3 16  1  0  0  0  0
  4 23  2  0  0  0  0
  5 15  2  0  0  0  0
  9 13  1  6  0  0  0
  9 27  1  0  0  0  0
 10 22  1  0  0  0  0
 10 17  1  0  0  0  0
 11 20  2  0  0  0  0
 11  5  1  0  0  0  0
 12  8  1  0  0  0  0
 13 20  1  0  0  0  0
 14  2  1  0  0  0  0
 15  4  1  0  0  0  0
 15 12  1  0  0  0  0
 16  8  1  0  0  0  0
 17 25  1  0  0  0  0
 18  1  2  0  0  0  0
 18  4  1  0  0  0  0
 19  6  1  6  0  0  0
 19  5  1  0  0  0  0
 19  3  1  0  0  0  0
 20 18  1  0  0  0  0
 22 24  1  0  0  0  0
 23 21  1  0  0  0  0
 24 13  1  0  0  0  0
 25 14  1  1  0  0  0
 25  9  1  0  0  0  0
 26 21  2  0  0  0  0
 27  1  1  0  0  0  0
 28 17  1  0  0  0  0
 29 28  1  0  0  0  0
 30 34  1  0  0  0  0
 31 33  1  0  0  0  0
 31 32  1  0  0  0  0
 32 29  1  6  0  0  0
 32 34  1  0  0  0  0
 33 30  1  0  0  0  0
M  END
>  <MODEL>
1

>  <REMARK>
 VINA RESULT:      -9.9      0.000      0.000
  Name = 
  3 active torsions:
  status: ('A' for Active; 'I' for Inactive)
    1  A    between atoms: N_17  and  C_28
    2  A    between atoms: C_28  and  C_29
    3  A    between atoms: C_29  and  C_32
                            x       y       z     vdW  Elec       q    Type
                         _______ _______ _______ _____ _____    ______ ____

>  <TORSDO>
F 3

$$$$
=
 OpenBabel11122414303D

 34 40  0  0  1  0  0  0  0  0999 V2000
  160.9330  207.3640  154.1630 C   0  0  0  0  0  0  0  0  0  0  0  0
  161.3910  205.2890  152.8010 C   0  0  0  0  0  2  0  0  0  0  0  0
  158.0700  213.3050  154.2030 C   0  0  2  0  0  3  0  0  0  0  0  0
  159.9090  209.3630  155.1160 C   0  0  0  0  0  0  0  0  0  0  0  0
  159.6680  211.3460  153.7170 C   0  0  0  0  0  0  0  0  0  0  0  0
  159.2740  213.1030  151.9510 C   0  0  0  0  0  1  0  0  0  0  0  0
  157.3430  214.4530  153.5150 C   0  0  0  0  0  1  0  0  0  0  0  0
  159.2880  212.7700  156.3810 C   0  0  0  0  0  2  0  0  0  0  0  0
  162.0790  207.4430  151.9150 C   0  0  2  0  0  3  0  0  0  0  0  0
  161.5230  207.7050  148.7730 C   0  0  0  0  0  2  0  0  0  0  0  0
  160.2850  210.6580  152.7130 N   0  0  0  0  0  0  0  0  0  0  0  0
  158.7940  211.3560  156.1460 C   0  0  0  0  0  2  0  0  0  0  0  0
  161.3520  208.7220  151.6990 N   0  0  0  0  0  0  0  0  0  0  0  0
  161.8900  205.0630  151.3880 C   0  0  0  0  0  2  0  0  0  0  0  0
  159.4880  210.7020  154.9760 C   0  0  0  0  0  0  0  0  0  0  0  0
  158.4220  213.7660  155.6170 C   0  0  0  0  0  2  0  0  0  0  0  0
  160.9790  206.7870  149.7780 N   0  0  0  0  0  0  0  0  0  0  0  0
  160.5290  208.6980  154.0350 C   0  0  0  0  0  0  0  0  0  0  0  0
  159.3290  212.8120  153.4540 C   0  0  1  0  0  3  0  0  0  0  0  0
  160.7120  209.3720  152.8230 C   0  0  0  0  0  0  0  0  0  0  0  0
  160.1120  207.3290  156.4420 C   0  0  0  0  0  3  0  0  0  0  0  0
  162.3090  208.8660  149.3810 C   0  0  0  0  0  2  0  0  0  0  0  0
  159.7130  208.6610  156.3190 C   0  0  0  0  0  3  0  0  0  0  0  0
  161.5130  209.5410  150.4860 C   0  0  0  0  0  2  0  0  0  0  0  0
  162.0510  206.4470  150.7370 C   0  0  1  0  0  3  0  0  0  0  0  0
  160.7160  206.6800  155.3650 C   0  0  0  0  0  3  0  0  0  0  0  0
  161.5340  206.7090  153.0450 N   0  0  0  0  0  0  0  0  0  0  0  0
  160.5470  205.6180  149.0210 C   0  0  0  0  0  2  0  0  0  0  0  0
  161.5200  205.3630  147.8840 C   0  0  0  0  0  2  0  0  0  0  0  0
  160.7500  205.8540  144.4510 O   0  0  0  0  0  0  0  0  0  0  0  0
  161.6560  204.1010  145.7480 C   0  0  0  0  0  2  0  0  0  0  0  0
  160.7750  204.9360  146.6320 C   0  0  2  0  0  3  0  0  0  0  0  0
  161.8050  204.9310  144.4960 C   0  0  0  0  0  2  0  0  0  0  0  0
  160.4680  206.1540  145.7920 C   0  0  0  0  0  2  0  0  0  0  0  0
  1 26  1  0  0  0  0
  2 27  1  0  0  0  0
  3  7  1  6  0  0  0
  3 16  1  0  0  0  0
  4 23  2  0  0  0  0
  5 15  2  0  0  0  0
  9 13  1  6  0  0  0
  9 27  1  0  0  0  0
 10 22  1  0  0  0  0
 10 17  1  0  0  0  0
 11 20  2  0  0  0  0
 11  5  1  0  0  0  0
 12  8  1  0  0  0  0
 13 20  1  0  0  0  0
 14  2  1  0  0  0  0
 15  4  1  0  0  0  0
 15 12  1  0  0  0  0
 16  8  1  0  0  0  0
 17 25  1  0  0  0  0
 18  1  2  0  0  0  0
 18  4  1  0  0  0  0
 19  6  1  6  0  0  0
 19  5  1  0  0  0  0
 19  3  1  0  0  0  0
 20 18  1  0  0  0  0
 22 24  1  0  0  0  0
 23 21  1  0  0  0  0
 24 13  1  0  0  0  0
 25 14  1  1  0  0  0
 25  9  1  0  0  0  0
 26 21  2  0  0  0  0
 27  1  1  0  0  0  0
 28 17  1  0  0  0  0
 29 28  1  0  0  0  0
 30 33  1  0  0  0  0
 30 34  1  0  0  0  0
 31 32  1  0  0  0  0
 32 29  1  1  0  0  0
 33 31  1  0  0  0  0
 34 32  1  0  0  0  0
M  END
>  <MODEL>
2

>  <REMARK>
 VINA RESULT:      -8.8      1.168      1.381
  Name = 
  3 active torsions:
  status: ('A' for Active; 'I' for Inactive)
    1  A    between atoms: N_17  and  C_28
    2  A    between atoms: C_28  and  C_29
    3  A    between atoms: C_29  and  C_32
                            x       y       z     vdW  Elec       q    Type
                         _______ _______ _______ _____ _____    ______ ____

>  <TORSDO>
F 3

$$$$
=
 OpenBabel11122414303D

 34 40  0  0  1  0  0  0  0  0999 V2000
  161.6150  209.6000  151.1320 C   0  0  0  0  0  0  0  0  0  0  0  0
  160.9800  211.4390  152.7400 C   0  0  0  0  0  2  0  0  0  0  0  0
  160.4870  203.3660  149.3000 C   0  0  2  0  0  3  0  0  0  0  0  0
  161.5670  207.6640  149.6490 C   0  0  0  0  0  0  0  0  0  0  0  0
  161.2430  205.4470  150.6140 C   0  0  0  0  0  0  0  0  0  0  0  0
  160.5810  203.3560  151.8590 C   0  0  0  0  0  1  0  0  0  0  0  0
  159.8310  202.0050  149.4910 C   0  0  0  0  0  1  0  0  0  0  0  0
  162.3280  204.4890  147.9350 C   0  0  0  0  0  2  0  0  0  0  0  0
  161.7250  209.3090  153.6370 C   0  0  2  0  0  3  0  0  0  0  0  0
  160.0100  208.3870  156.1780 C   0  0  0  0  0  2  0  0  0  0  0  0
  161.2160  206.0350  151.8450 N   0  0  0  0  0  0  0  0  0  0  0  0
  161.4680  205.7310  148.0570 C   0  0  0  0  0  2  0  0  0  0  0  0
  161.2930  207.9070  153.3950 N   0  0  0  0  0  0  0  0  0  0  0  0
  160.7890  211.4850  154.2420 C   0  0  0  0  0  2  0  0  0  0  0  0
  161.4500  206.2690  149.4680 C   0  0  0  0  0  0  0  0  0  0  0  0
  161.4830  203.2380  148.1480 C   0  0  0  0  0  2  0  0  0  0  0  0
  159.7280  209.3670  155.1250 N   0  0  0  0  0  0  0  0  0  0  0  0
  161.5170  208.2160  150.9470 C   0  0  0  0  0  0  0  0  0  0  0  0
  161.1770  203.9210  150.5670 C   0  0  1  0  0  3  0  0  0  0  0  0
  161.3390  207.3740  152.0500 C   0  0  0  0  0  0  0  0  0  0  0  0
  161.8150  209.9100  148.7380 C   0  0  0  0  0  3  0  0  0  0  0  0
  161.2220  207.5090  155.8740 C   0  0  0  0  0  2  0  0  0  0  0  0
  161.7230  208.5290  148.5510 C   0  0  0  0  0  3  0  0  0  0  0  0
  161.1290  206.9210  154.4760 C   0  0  0  0  0  2  0  0  0  0  0  0
  160.9870  210.0530  154.7680 C   0  0  1  0  0  3  0  0  0  0  0  0
  161.7570  210.4450  150.0250 C   0  0  0  0  0  3  0  0  0  0  0  0
  161.5360  210.1330  152.4550 N   0  0  0  0  0  0  0  0  0  0  0  0
  158.7650  210.2870  155.7190 C   0  0  0  0  0  2  0  0  0  0  0  0
  157.6650  210.5850  154.7150 C   0  0  0  0  0  2  0  0  0  0  0  0
  157.9470  213.9390  155.8490 O   0  0  0  0  0  0  0  0  0  0  0  0
  157.2260  212.8790  153.8670 C   0  0  0  0  0  2  0  0  0  0  0  0
  157.0240  211.9280  155.0120 C   0  0  2  0  0  3  0  0  0  0  0  0
  158.0790  213.9770  154.4540 C   0  0  0  0  0  2  0  0  0  0  0  0
  157.7480  212.5870  156.1630 C   0  0  0  0  0  2  0  0  0  0  0  0
  1 27  1  0  0  0  0
  2 14  1  0  0  0  0
  3  7  1  1  0  0  0
  3 19  1  0  0  0  0
  4 18  1  0  0  0  0
  5 11  2  0  0  0  0
  8 12  1  0  0  0  0
  8 16  1  0  0  0  0
  9 27  1  6  0  0  0
  9 25  1  0  0  0  0
 11 20  1  0  0  0  0
 12 15  1  0  0  0  0
 13  9  1  0  0  0  0
 13 24  1  0  0  0  0
 15  4  2  0  0  0  0
 15  5  1  0  0  0  0
 16  3  1  0  0  0  0
 17 28  1  0  0  0  0
 17 10  1  0  0  0  0
 18  1  1  0  0  0  0
 18 20  2  0  0  0  0
 19  5  1  0  0  0  0
 19  6  1  1  0  0  0
 20 13  1  0  0  0  0
 21 26  1  0  0  0  0
 22 10  1  0  0  0  0
 23 21  2  0  0  0  0
 23  4  1  0  0  0  0
 24 22  1  0  0  0  0
 25 14  1  6  0  0  0
 25 17  1  0  0  0  0
 26  1  2  0  0  0  0
 27  2  1  0  0  0  0
 29 28  1  0  0  0  0
 30 34  1  0  0  0  0
 31 33  1  0  0  0  0
 31 32  1  0  0  0  0
 32 29  1  6  0  0  0
 32 34  1  0  0  0  0
 33 30  1  0  0  0  0
M  END
>  <MODEL>
3

>  <REMARK>
 VINA RESULT:      -8.7      2.946      8.830
  Name = 
  3 active torsions:
  status: ('A' for Active; 'I' for Inactive)
    1  A    between atoms: N_17  and  C_28
    2  A    between atoms: C_28  and  C_29
    3  A    between atoms: C_29  and  C_32
                            x       y       z     vdW  Elec       q    Type
                         _______ _______ _______ _____ _____    ______ ____

>  <TORSDO>
F 3

$$$$
=
 OpenBabel11122414303D

 34 40  0  0  1  0  0  0  0  0999 V2000
  161.6300  209.2850  150.9070 C   0  0  0  0  0  0  0  0  0  0  0  0
  161.0540  211.1910  152.4580 C   0  0  0  0  0  2  0  0  0  0  0  0
  160.3600  203.0120  149.3170 C   0  0  2  0  0  3  0  0  0  0  0  0
  161.5220  207.2980  149.4950 C   0  0  0  0  0  0  0  0  0  0  0  0
  161.1740  205.1230  150.5440 C   0  0  0  0  0  0  0  0  0  0  0  0
  160.4960  203.0910  151.8730 C   0  0  0  0  0  1  0  0  0  0  0  0
  159.6830  201.6700  149.5670 C   0  0  0  0  0  1  0  0  0  0  0  0
  162.1980  204.0510  147.8840 C   0  0  0  0  0  2  0  0  0  0  0  0
  161.7760  209.0810  153.4190 C   0  0  2  0  0  3  0  0  0  0  0  0
  160.0870  208.2820  156.0180 C   0  0  0  0  0  2  0  0  0  0  0  0
  161.1790  205.7560  151.7530 N   0  0  0  0  0  0  0  0  0  0  0  0
  161.3620  205.3120  147.9750 C   0  0  0  0  0  2  0  0  0  0  0  0
  161.3150  207.6800  153.2340 N   0  0  0  0  0  0  0  0  0  0  0  0
  160.8890  211.2940  153.9600 C   0  0  0  0  0  2  0  0  0  0  0  0
  161.3770  205.9010  149.3660 C   0  0  0  0  0  0  0  0  0  0  0  0
  161.3340  202.8240  148.1550 C   0  0  0  0  0  2  0  0  0  0  0  0
  159.8050  209.2280  154.9360 N   0  0  0  0  0  0  0  0  0  0  0  0
  161.5040  207.8970  150.7730 C   0  0  0  0  0  0  0  0  0  0  0  0
  161.0800  203.5990  150.5520 C   0  0  1  0  0  3  0  0  0  0  0  0
  161.3290  207.0980  151.9090 C   0  0  0  0  0  0  0  0  0  0  0  0
  161.7960  209.5060  148.5000 C   0  0  0  0  0  3  0  0  0  0  0  0
  161.2780  207.3710  155.7270 C   0  0  0  0  0  2  0  0  0  0  0  0
  161.6760  208.1210  148.3640 C   0  0  0  0  0  3  0  0  0  0  0  0
  161.1510  206.7350  154.3520 C   0  0  0  0  0  2  0  0  0  0  0  0
  161.0700  209.8790  154.5340 C   0  0  1  0  0  3  0  0  0  0  0  0
  161.7680  210.0870  149.7680 C   0  0  0  0  0  3  0  0  0  0  0  0
  161.5820  209.8660  152.2110 N   0  0  0  0  0  0  0  0  0  0  0  0
  158.8680  210.1870  155.5110 C   0  0  0  0  0  2  0  0  0  0  0  0
  159.3110  210.5450  156.9180 C   0  0  0  0  0  2  0  0  0  0  0  0
  159.7680  214.0480  156.5460 O   0  0  0  0  0  0  0  0  0  0  0  0
  157.9950  212.5270  156.2020 C   0  0  0  0  0  2  0  0  0  0  0  0
  158.9010  211.9650  157.2610 C   0  0  2  0  0  3  0  0  0  0  0  0
  158.7860  213.6720  155.6180 C   0  0  0  0  0  2  0  0  0  0  0  0
  160.1150  212.8640  157.2130 C   0  0  0  0  0  2  0  0  0  0  0  0
  1 27  1  0  0  0  0
  2 14  1  0  0  0  0
  3  7  1  1  0  0  0
  3 19  1  0  0  0  0
  4 18  1  0  0  0  0
  5 19  1  0  0  0  0
  5 11  2  0  0  0  0
  8 12  1  0  0  0  0
  8 16  1  0  0  0  0
  9 27  1  6  0  0  0
  9 25  1  0  0  0  0
 11 20  1  0  0  0  0
 12 15  1  0  0  0  0
 13  9  1  0  0  0  0
 13 24  1  0  0  0  0
 15  4  2  0  0  0  0
 15  5  1  0  0  0  0
 16  3  1  0  0  0  0
 17 28  1  0  0  0  0
 17 10  1  0  0  0  0
 18  1  1  0  0  0  0
 18 20  2  0  0  0  0
 19  6  1  1  0  0  0
 20 13  1  0  0  0  0
 21 26  1  0  0  0  0
 22 10  1  0  0  0  0
 23 21  2  0  0  0  0
 23  4  1  0  0  0  0
 24 22  1  0  0  0  0
 25 14  1  6  0  0  0
 25 17  1  0  0  0  0
 26  1  2  0  0  0  0
 27  2  1  0  0  0  0
 28 29  1  0  0  0  0
 30 34  1  0  0  0  0
 31 32  1  0  0  0  0
 32 29  1  6  0  0  0
 33 31  1  0  0  0  0
 33 30  1  0  0  0  0
 34 32  1  0  0  0  0
M  END
>  <MODEL>
4

>  <REMARK>
 VINA RESULT:      -8.7      2.997      9.079
  Name = 
  3 active torsions:
  status: ('A' for Active; 'I' for Inactive)
    1  A    between atoms: N_17  and  C_28
    2  A    between atoms: C_28  and  C_29
    3  A    between atoms: C_29  and  C_32
                            x       y       z     vdW  Elec       q    Type
                         _______ _______ _______ _____ _____    ______ ____

>  <TORSDO>
F 3

$$$$
