=
 OpenBabel11122412463D

 32 38  0  0  1  0  0  0  0  0999 V2000
  159.9960  211.1490  155.8270 C   0  0  1  0  0  3  0  0  0  0  0  0
  161.6470  207.3210  152.6460 C   0  0  1  0  0  3  0  0  0  0  0  0
  162.0140  210.1480  148.6350 C   0  0  0  0  0  3  0  0  0  0  0  0
  161.7440  209.0490  147.8270 C   0  0  0  0  0  3  0  0  0  0  0  0
  161.3600  204.9210  152.2630 C   0  0  0  0  0  0  0  0  0  0  0  0
  161.1410  203.8420  151.4150 C   0  0  0  0  0  0  0  0  0  0  0  0
  160.6550  208.6030  154.4930 N   0  0  1  0  0  0  0  0  0  0  0  0
  162.0900  209.8010  152.8650 C   0  0  0  0  0  2  0  0  0  0  0  0
  160.8290  202.6920  149.5560 C   0  0  0  0  0  0  0  0  0  0  0  0
  161.0580  211.0770  154.7360 C   0  0  2  0  0  3  0  0  0  0  0  0
  162.0790  209.9930  150.0190 C   0  0  0  0  0  3  0  0  0  0  0  0
  161.9350  208.6190  151.9570 C   0  0  0  0  0  0  0  0  0  0  0  0
  161.8760  208.7370  150.6210 C   0  0  0  0  0  0  0  0  0  0  0  0
  161.4080  206.3800  150.3430 C   0  0  0  0  0  0  0  0  0  0  0  0
  160.8120  201.8660  150.5540 N   0  0  0  0  0  0  0  0  0  0  0  0
  158.9470  210.0290  155.7220 C   0  0  0  0  0  2  0  0  0  0  0  0
  160.8660  209.8850  153.7800 C   0  0  2  0  0  3  0  0  0  0  0  0
  161.0110  202.5970  151.7400 N   0  0  0  0  0  2  0  0  0  0  0  0
  159.4740  208.6270  155.3680 C   0  0  0  0  0  2  0  0  0  0  0  0
  161.3980  210.6640  156.1660 C   0  0  1  0  0  3  0  0  0  0  0  0
  161.5410  207.7950  148.4040 C   0  0  0  0  0  3  0  0  0  0  0  0
  161.6000  207.6110  149.8030 C   0  0  0  0  0  0  0  0  0  0  0  0
  161.1820  205.2690  149.4900 C   0  0  0  0  0  2  0  0  0  0  0  0
  160.4080  207.5370  153.5170 C   0  0  0  0  0  2  0  0  0  0  0  0
  161.4600  204.7320  153.5070 O   0  0  0  0  0  0  0  0  0  0  0  0
  160.6570  202.2940  148.1340 C   0  0  0  0  0  1  0  0  0  0  0  0
  161.4620  206.1870  151.7210 N   0  0  0  0  0  0  0  0  0  0  0  0
  161.0440  204.0240  150.0760 C   0  0  0  0  0  0  0  0  0  0  0  0
  162.1060  211.6940  156.7860 O   0  0  0  0  0  0  0  0  0  0  0  0
  163.2740  211.0930  157.2590 C   0  0  0  0  0  3  0  0  0  0  0  0
  164.4360  211.4660  156.3620 C   0  0  0  0  0  1  0  0  0  0  0  0
  163.1050  209.5870  157.2590 C   0  0  0  0  0  1  0  0  0  0  0  0
  1 16  1  6  0  0  0
  1 20  1  0  0  0  0
  2 24  1  6  0  0  0
  3 11  2  0  0  0  0
  4 21  2  0  0  0  0
  4  3  1  0  0  0  0
  5 25  2  0  0  0  0
  6 18  1  0  0  0  0
  6  5  1  0  0  0  0
  7 24  1  6  0  0  0
  7 19  1  0  0  0  0
  8 17  1  0  0  0  0
  9 28  1  0  0  0  0
  9 15  2  0  0  0  0
 10  1  1  0  0  0  0
 10 20  1  0  0  0  0
 11 13  1  0  0  0  0
 12  2  1  0  0  0  0
 12  8  1  0  0  0  0
 13 12  2  0  0  0  0
 14 27  1  0  0  0  0
 15 18  1  0  0  0  0
 17  7  1  0  0  0  0
 17 10  1  0  0  0  0
 19 16  1  0  0  0  0
 20 29  1  0  0  0  0
 21 22  1  0  0  0  0
 22 14  2  0  0  0  0
 22 13  1  0  0  0  0
 23 28  1  0  0  0  0
 23 14  1  0  0  0  0
 26  9  1  0  0  0  0
 27  5  1  0  0  0  0
 27  2  1  0  0  0  0
 28  6  2  0  0  0  0
 29 30  1  0  0  0  0
 30 32  1  0  0  0  0
 31 30  1  0  0  0  0
M  END
>  <MODEL>
1

>  <REMARK>
 VINA RESULT:      -7.5      0.000      0.000
  Name = 
  2 active torsions:
  status: ('A' for Active; 'I' for Inactive)
    1  A    between atoms: C_20  and  O_29
    2  A    between atoms: O_29  and  C_30
                            x       y       z     vdW  Elec       q    Type
                         _______ _______ _______ _____ _____    ______ ____

>  <TORSDO>
F 2

$$$$
=
 OpenBabel11122412463D

 32 38  0  0  1  0  0  0  0  0999 V2000
  162.6520  213.0020  148.6320 C   0  0  1  0  0  3  0  0  0  0  0  0
  160.8370  208.3030  150.0890 C   0  0  1  0  0  3  0  0  0  0  0  0
  161.3050  209.0820  154.9250 C   0  0  0  0  0  3  0  0  0  0  0  0
  161.5050  207.7200  155.1320 C   0  0  0  0  0  3  0  0  0  0  0  0
  160.8260  205.9670  149.3590 C   0  0  0  0  0  0  0  0  0  0  0  0
  160.9830  204.6110  149.6180 C   0  0  0  0  0  0  0  0  0  0  0  0
  161.7930  210.1890  148.8360 N   0  0  1  0  0  0  0  0  0  0  0  0
  160.7240  210.6500  151.0250 C   0  0  0  0  0  2  0  0  0  0  0  0
  161.3310  202.7360  150.7310 C   0  0  0  0  0  0  0  0  0  0  0  0
  161.7150  212.5380  149.7410 C   0  0  2  0  0  3  0  0  0  0  0  0
  161.0700  209.5610  153.6380 C   0  0  0  0  0  3  0  0  0  0  0  0
  160.8100  209.1800  151.3030 C   0  0  0  0  0  0  0  0  0  0  0  0
  161.0290  208.6890  152.5340 C   0  0  0  0  0  0  0  0  0  0  0  0
  161.1910  206.4240  151.6990 C   0  0  0  0  0  0  0  0  0  0  0  0
  161.1240  202.4390  149.4880 N   0  0  0  0  0  0  0  0  0  0  0  0
  163.5390  211.8740  148.0810 C   0  0  0  0  0  2  0  0  0  0  0  0
  161.8410  211.0340  150.0520 C   0  0  2  0  0  3  0  0  0  0  0  0
  160.9020  203.6330  148.7760 N   0  0  0  0  0  0  0  0  0  0  0  0
  162.8640  210.5060  147.8800 C   0  0  0  0  0  2  0  0  0  0  0  0
  161.1680  212.8290  148.3450 C   0  0  1  0  0  3  0  0  0  0  0  0
  161.4680  206.8400  154.0510 C   0  0  0  0  0  3  0  0  0  0  0  0
  161.2320  207.3000  152.7370 C   0  0  0  0  0  0  0  0  0  0  0  0
  161.3510  205.0370  151.9470 C   0  0  0  0  0  3  0  0  0  0  0  0
  161.9930  208.7860  149.2090 C   0  0  0  0  0  2  0  0  0  0  0  0
  160.5670  206.3570  148.1870 O   0  0  0  0  0  0  0  0  0  0  0  0
  161.5990  201.7380  151.8000 C   0  0  0  0  0  1  0  0  0  0  0  0
  160.9610  206.8660  150.3990 N   0  0  0  0  0  0  0  0  0  0  0  0
  161.2490  204.1740  150.8730 C   0  0  0  0  0  0  0  0  0  0  0  0
  160.5480  214.0780  148.3460 O   0  0  0  0  0  0  0  0  0  0  0  0
  159.4120  213.9160  147.5500 C   0  0  0  0  0  3  0  0  0  0  0  0
  158.1950  213.7290  148.4330 C   0  0  0  0  0  1  0  0  0  0  0  0
  159.5820  212.6950  146.6670 C   0  0  0  0  0  1  0  0  0  0  0  0
  1 16  1  6  0  0  0
  1 10  1  0  0  0  0
  2 24  1  6  0  0  0
  2 27  1  0  0  0  0
  2 12  1  0  0  0  0
  3  4  1  0  0  0  0
  5  6  1  0  0  0  0
  5 27  1  0  0  0  0
  6 28  1  0  0  0  0
  7 19  1  6  0  0  0
  7 24  1  0  0  0  0
  7 17  1  0  0  0  0
  8 12  1  0  0  0  0
  9 28  1  0  0  0  0
  9 26  1  0  0  0  0
 10 17  1  0  0  0  0
 11  3  2  0  0  0  0
 12 13  2  0  0  0  0
 13 22  1  0  0  0  0
 13 11  1  0  0  0  0
 14 23  1  0  0  0  0
 14 22  2  0  0  0  0
 15  9  2  0  0  0  0
 17  8  1  0  0  0  0
 18 15  1  0  0  0  0
 18  6  2  0  0  0  0
 19 16  1  0  0  0  0
 20 29  1  0  0  0  0
 20  1  1  0  0  0  0
 20 10  1  0  0  0  0
 21  4  2  0  0  0  0
 22 21  1  0  0  0  0
 25  5  2  0  0  0  0
 27 14  1  0  0  0  0
 28 23  2  0  0  0  0
 30 29  1  0  0  0  0
 30 31  1  0  0  0  0
 32 30  1  0  0  0  0
M  END
>  <MODEL>
2

>  <REMARK>
 VINA RESULT:      -4.9      2.907      5.807
  Name = 
  2 active torsions:
  status: ('A' for Active; 'I' for Inactive)
    1  A    between atoms: C_20  and  O_29
    2  A    between atoms: O_29  and  C_30
                            x       y       z     vdW  Elec       q    Type
                         _______ _______ _______ _____ _____    ______ ____

>  <TORSDO>
F 2

$$$$
=
 OpenBabel11122412463D

 32 38  0  0  1  0  0  0  0  0999 V2000
  161.8850  214.4480  147.4480 C   0  0  1  0  0  3  0  0  0  0  0  0
  160.2590  211.0450  151.0910 C   0  0  1  0  0  3  0  0  0  0  0  0
  158.6670  214.4530  154.2620 C   0  0  0  0  0  3  0  0  0  0  0  0
  158.9400  213.6000  155.3270 C   0  0  0  0  0  3  0  0  0  0  0  0
  160.8370  208.8630  152.0370 C   0  0  0  0  0  0  0  0  0  0  0  0
  161.0510  208.0280  153.1270 C   0  0  0  0  0  0  0  0  0  0  0  0
  161.3830  212.1230  149.1900 N   0  0  1  0  0  0  0  0  0  0  0  0
  159.4850  213.3040  150.2590 C   0  0  0  0  0  2  0  0  0  0  0  0
  161.1660  207.3330  155.2200 C   0  0  0  0  0  0  0  0  0  0  0  0
  160.6530  214.3790  148.3430 C   0  0  2  0  0  3  0  0  0  0  0  0
  158.9020  214.0290  152.9550 C   0  0  0  0  0  3  0  0  0  0  0  0
  159.6400  212.3690  151.4200 C   0  0  0  0  0  0  0  0  0  0  0  0
  159.4140  212.7460  152.6880 C   0  0  0  0  0  0  0  0  0  0  0  0
  160.1820  210.6210  153.5530 C   0  0  0  0  0  0  0  0  0  0  0  0
  161.5090  206.3530  154.4460 N   0  0  0  0  0  0  0  0  0  0  0  0
  163.0550  213.5950  147.9660 C   0  0  0  0  0  2  0  0  0  0  0  0
  160.8370  213.4500  149.5570 C   0  0  2  0  0  3  0  0  0  0  0  0
  161.4360  206.7930  153.1110 N   0  0  0  0  0  0  0  0  0  0  0  0
  162.6950  212.2100  148.5320 C   0  0  0  0  0  2  0  0  0  0  0  0
  160.6720  213.6450  147.0040 C   0  0  1  0  0  3  0  0  0  0  0  0
  159.4480  212.3240  155.0820 C   0  0  0  0  0  3  0  0  0  0  0  0
  159.6960  211.8710  153.7690 C   0  0  0  0  0  0  0  0  0  0  0  0
  160.4070  209.7580  154.6560 C   0  0  0  0  0  3  0  0  0  0  0  0
  161.5970  211.3290  150.4040 C   0  0  0  0  0  2  0  0  0  0  0  0
  161.0160  208.4270  150.8670 O   0  0  0  0  0  0  0  0  0  0  0  0
  161.1130  207.2530  156.7040 C   0  0  0  0  0  1  0  0  0  0  0  0
  160.4330  210.1650  152.2620 N   0  0  0  0  0  0  0  0  0  0  0  0
  160.8510  208.4760  154.3900 C   0  0  0  0  0  0  0  0  0  0  0  0
  159.9480  214.3810  146.0660 O   0  0  0  0  0  0  0  0  0  0  0  0
  159.2660  213.4260  145.3100 C   0  0  0  0  0  3  0  0  0  0  0  0
  158.1430  212.8320  146.1360 C   0  0  0  0  0  1  0  0  0  0  0  0
  160.2220  212.3240  144.9010 C   0  0  0  0  0  1  0  0  0  0  0  0
  1 16  1  1  0  0  0
  1 10  1  0  0  0  0
  2 24  1  1  0  0  0
  2 12  1  0  0  0  0
  2 27  1  0  0  0  0
  3  4  1  0  0  0  0
  5 27  1  0  0  0  0
  5  6  1  0  0  0  0
  6 28  1  0  0  0  0
  7 19  1  1  0  0  0
  7 17  1  0  0  0  0
  7 24  1  0  0  0  0
  8 12  1  0  0  0  0
  9 26  1  0  0  0  0
 10 17  1  0  0  0  0
 11  3  2  0  0  0  0
 12 13  2  0  0  0  0
 13 11  1  0  0  0  0
 13 22  1  0  0  0  0
 14 22  2  0  0  0  0
 14 23  1  0  0  0  0
 15  9  2  0  0  0  0
 16 19  1  0  0  0  0
 17  8  1  0  0  0  0
 18  6  2  0  0  0  0
 18 15  1  0  0  0  0
 20  1  1  0  0  0  0
 20 10  1  0  0  0  0
 21  4  2  0  0  0  0
 22 21  1  0  0  0  0
 25  5  2  0  0  0  0
 27 14  1  0  0  0  0
 28 23  2  0  0  0  0
 28  9  1  0  0  0  0
 29 20  1  0  0  0  0
 30 29  1  0  0  0  0
 30 31  1  0  0  0  0
 32 30  1  0  0  0  0
M  END
>  <MODEL>
3

>  <REMARK>
 VINA RESULT:      -4.8      3.874      7.640
  Name = 
  2 active torsions:
  status: ('A' for Active; 'I' for Inactive)
    1  A    between atoms: C_20  and  O_29
    2  A    between atoms: O_29  and  C_30
                            x       y       z     vdW  Elec       q    Type
                         _______ _______ _______ _____ _____    ______ ____

>  <TORSDO>
F 2

$$$$
