=
 OpenBabel11122412493D

 32 37  0  0  1  0  0  0  0  0999 V2000
  159.7970  214.4530  146.3590 C   0  0  0  0  0  2  0  0  0  0  0  0
  159.4680  213.1270  141.6020 C   0  0  1  0  0  3  0  0  0  0  0  0
  164.1990  214.4530  140.3920 C   0  0  0  0  0  2  0  0  0  0  0  0
  163.9270  213.8650  139.0140 C   0  0  0  0  0  2  0  0  0  0  0  0
  157.6630  213.6510  139.8170 C   0  0  1  0  0  3  0  0  0  0  0  0
  157.6730  212.3110  139.1510 C   0  0  0  0  0  0  0  0  0  0  0  0
  158.9630  212.6160  143.9820 C   0  0  1  0  0  3  0  0  0  0  0  0
  161.3160  212.9310  143.2960 C   0  0  0  0  0  3  0  0  0  0  0  0
  158.4870  210.5130  138.0490 C   0  0  0  0  0  0  0  0  0  0  0  0
  161.0090  212.3230  145.6290 C   0  0  0  0  0  2  0  0  0  0  0  0
  163.2840  213.8310  141.4550 C   0  0  0  0  0  2  0  0  0  0  0  0
  160.8970  213.2700  141.9570 N   0  0  0  0  0  0  0  0  0  0  0  0
  161.9300  213.3240  140.9070 C   0  0  1  0  0  3  0  0  0  0  0  0
  160.0980  213.7830  139.2260 C   0  0  1  0  0  3  0  0  0  0  0  0
  157.5730  210.0870  138.8570 N   0  0  0  0  0  0  0  0  0  0  0  0
  158.3630  214.2910  145.8420 C   0  0  0  0  0  2  0  0  0  0  0  0
  160.4480  212.6630  144.2740 C   0  0  0  0  0  0  0  0  0  0  0  0
  157.0830  211.2070  139.5830 C   0  0  0  0  0  3  0  0  0  0  0  0
  158.0750  212.9320  145.1880 C   0  0  0  0  0  2  0  0  0  0  0  0
  160.4110  213.1190  146.8000 C   0  0  1  0  0  3  0  0  0  0  0  0
  162.4980  214.1810  138.5620 C   0  0  0  0  0  2  0  0  0  0  0  0
  161.4810  214.1840  139.7160 C   0  0  2  0  0  3  0  0  0  0  0  0
  160.0750  212.3400  138.6640 C   0  0  0  0  0  2  0  0  0  0  0  0
  158.6010  213.5060  142.8000 C   0  0  0  0  0  2  0  0  0  0  0  0
  156.6650  213.7490  140.7910 O   0  0  0  0  0  1  0  0  0  0  0  0
  159.2130  209.6070  137.1190 C   0  0  0  0  0  1  0  0  0  0  0  0
  159.0750  213.9700  140.3650 C   0  0  2  0  0  3  0  0  0  0  0  0
  158.6890  211.9890  138.1160 C   0  0  2  0  0  3  0  0  0  0  0  0
  161.4910  213.3480  147.8460 C   0  0  0  0  0  2  0  0  0  0  0  0
  162.3320  212.1290  148.0120 C   0  0  0  0  0  0  0  0  0  0  0  0
  161.7630  210.9480  148.4700 O   0  0  0  0  0  1  0  0  0  0  0  0
  163.5650  212.1760  147.7610 O   0  0  0  0  0  0  0  0  0  0  0  0
  1 20  1  0  0  0  0
  2 12  1  0  0  0  0
  2 24  1  1  0  0  0
  3 11  1  0  0  0  0
  4  3  1  0  0  0  0
  5 27  1  0  0  0  0
  5 25  1  1  0  0  0
  6 18  2  0  0  0  0
  6  5  1  0  0  0  0
  7 24  1  6  0  0  0
  7 17  1  0  0  0  0
  7 19  1  0  0  0  0
  8 17  2  0  0  0  0
  9 28  1  0  0  0  0
  9 15  2  0  0  0  0
 10 20  1  0  0  0  0
 12  8  1  0  0  0  0
 13 11  1  1  0  0  0
 13 12  1  0  0  0  0
 14 23  1  1  0  0  0
 14 22  1  0  0  0  0
 14 27  1  0  0  0  0
 15 18  1  0  0  0  0
 16  1  1  0  0  0  0
 17 10  1  0  0  0  0
 19 16  1  0  0  0  0
 20 29  1  1  0  0  0
 21  4  1  0  0  0  0
 22 21  1  6  0  0  0
 22 13  1  0  0  0  0
 26  9  1  0  0  0  0
 27  2  1  0  0  0  0
 28 23  1  0  0  0  0
 28  6  1  0  0  0  0
 29 30  1  0  0  0  0
 30 31  1  0  0  0  0
 32 30  2  0  0  0  0
M  END
>  <MODEL>
1

>  <REMARK>
 VINA RESULT:      -4.3      0.000      0.000
  Name = 
  2 active torsions:
  status: ('A' for Active; 'I' for Inactive)
    1  A    between atoms: C_20  and  C_29
    2  A    between atoms: C_29  and  C_30
                            x       y       z     vdW  Elec       q    Type
                         _______ _______ _______ _____ _____    ______ ____

>  <TORSDO>
F 2

$$$$
=
 OpenBabel11122412493D

 32 37  0  0  1  0  0  0  0  0999 V2000
  162.1160  203.3400  150.6980 C   0  0  0  0  0  2  0  0  0  0  0  0
  161.0550  207.8510  152.4410 C   0  0  1  0  0  3  0  0  0  0  0  0
  162.4790  210.3370  148.2700 C   0  0  0  0  0  2  0  0  0  0  0  0
  161.9680  211.6020  148.9460 C   0  0  0  0  0  2  0  0  0  0  0  0
  161.6660  208.9860  154.6890 C   0  0  1  0  0  3  0  0  0  0  0  0
  160.3660  209.6980  154.8910 C   0  0  0  0  0  0  0  0  0  0  0  0
  160.4090  205.4610  152.2210 C   0  0  1  0  0  3  0  0  0  0  0  0
  160.7780  206.7970  150.1750 C   0  0  0  0  0  3  0  0  0  0  0  0
  158.6380  211.0900  154.4600 C   0  0  0  0  0  0  0  0  0  0  0  0
  160.0390  204.5150  149.7800 C   0  0  0  0  0  2  0  0  0  0  0  0
  161.7930  209.0870  148.8350 C   0  0  0  0  0  2  0  0  0  0  0  0
  161.1890  207.9290  150.9700 N   0  0  0  0  0  0  0  0  0  0  0  0
  161.3080  209.2340  150.2950 C   0  0  1  0  0  3  0  0  0  0  0  0
  161.8470  210.2660  152.5390 C   0  0  1  0  0  3  0  0  0  0  0  0
  158.1600  210.0710  155.0970 N   0  0  0  0  0  0  0  0  0  0  0  0
  161.9730  203.4160  152.2230 C   0  0  0  0  0  2  0  0  0  0  0  0
  160.4490  205.6210  150.7160 C   0  0  0  0  0  0  0  0  0  0  0  0
  159.2350  209.1720  155.3370 C   0  0  0  0  0  3  0  0  0  0  0  0
  160.6500  204.0290  152.7060 C   0  0  0  0  0  2  0  0  0  0  0  0
  160.7640  203.1770  149.9950 C   0  0  1  0  0  3  0  0  0  0  0  0
  162.2990  211.5910  150.4410 C   0  0  0  0  0  2  0  0  0  0  0  0
  162.2300  210.1880  151.0690 C   0  0  2  0  0  3  0  0  0  0  0  0
  160.4380  210.8740  152.7430 C   0  0  0  0  0  2  0  0  0  0  0  0
  161.3600  206.4300  152.9090 C   0  0  0  0  0  2  0  0  0  0  0  0
  161.7030  207.7560  155.3520 O   0  0  0  0  0  1  0  0  0  0  0  0
  157.7900  212.2430  154.0520 C   0  0  0  0  0  1  0  0  0  0  0  0
  161.9640  208.8660  153.1750 C   0  0  2  0  0  3  0  0  0  0  0  0
  160.1090  211.0040  154.2320 C   0  0  2  0  0  3  0  0  0  0  0  0
  160.9410  202.4890  148.6510 C   0  0  0  0  0  2  0  0  0  0  0  0
  161.0810  201.0150  148.8270 C   0  0  0  0  0  0  0  0  0  0  0  0
  161.4890  200.2230  147.7630 O   0  0  0  0  0  0  0  0  0  0  0  0
  160.8050  200.4850  149.9350 O   0  0  0  0  0  1  0  0  0  0  0  0
  1 16  1  0  0  0  0
  2 24  1  1  0  0  0
  2 27  1  0  0  0  0
  3 11  1  0  0  0  0
  3  4  1  0  0  0  0
  4 21  1  0  0  0  0
  5  6  1  0  0  0  0
  5 25  1  6  0  0  0
  6 18  2  0  0  0  0
  7 19  1  6  0  0  0
  7 24  1  0  0  0  0
  8 17  2  0  0  0  0
  8 12  1  0  0  0  0
  9 15  2  0  0  0  0
 10 20  1  0  0  0  0
 10 17  1  0  0  0  0
 12  2  1  0  0  0  0
 13 11  1  6  0  0  0
 13 12  1  0  0  0  0
 13 22  1  0  0  0  0
 14 23  1  6  0  0  0
 14 27  1  0  0  0  0
 15 18  1  0  0  0  0
 16 19  1  0  0  0  0
 17  7  1  0  0  0  0
 20 29  1  6  0  0  0
 20  1  1  0  0  0  0
 22 21  1  6  0  0  0
 22 14  1  0  0  0  0
 23 28  1  0  0  0  0
 26  9  1  0  0  0  0
 27  5  1  0  0  0  0
 28  9  1  0  0  0  0
 28  6  1  0  0  0  0
 29 30  1  0  0  0  0
 30 32  1  0  0  0  0
 31 30  2  0  0  0  0
M  END
>  <MODEL>
2

>  <REMARK>
 VINA RESULT:      -4.1      8.788     12.842
  Name = 
  2 active torsions:
  status: ('A' for Active; 'I' for Inactive)
    1  A    between atoms: C_20  and  C_29
    2  A    between atoms: C_29  and  C_30
                            x       y       z     vdW  Elec       q    Type
                         _______ _______ _______ _____ _____    ______ ____

>  <TORSDO>
F 2

$$$$
=
 OpenBabel11122412493D

 32 37  0  0  1  0  0  0  0  0999 V2000
  162.0200  202.9720  150.7310 C   0  0  0  0  0  2  0  0  0  0  0  0
  161.0570  207.5270  152.4150 C   0  0  1  0  0  3  0  0  0  0  0  0
  162.4930  209.9240  148.1960 C   0  0  0  0  0  2  0  0  0  0  0  0
  162.0110  211.2090  148.8560 C   0  0  0  0  0  2  0  0  0  0  0  0
  161.7060  208.6840  154.6400 C   0  0  1  0  0  3  0  0  0  0  0  0
  160.4210  209.4230  154.8420 C   0  0  0  0  0  0  0  0  0  0  0  0
  160.3650  205.1460  152.2350 C   0  0  1  0  0  3  0  0  0  0  0  0
  160.7420  206.4450  150.1660 C   0  0  0  0  0  3  0  0  0  0  0  0
  158.7160  210.8410  154.4030 C   0  0  0  0  0  0  0  0  0  0  0  0
  159.9580  204.1710  149.8120 C   0  0  0  0  0  2  0  0  0  0  0  0
  161.7880  208.6950  148.7840 C   0  0  0  0  0  2  0  0  0  0  0  0
  161.1800  207.5810  150.9410 N   0  0  0  0  0  0  0  0  0  0  0  0
  161.3180  208.8730  150.2460 C   0  0  1  0  0  3  0  0  0  0  0  0
  161.8940  209.9290  152.4700 C   0  0  1  0  0  3  0  0  0  0  0  0
  158.2240  209.8400  155.0580 N   0  0  0  0  0  0  0  0  0  0  0  0
  161.8910  203.0730  152.2560 C   0  0  0  0  0  2  0  0  0  0  0  0
  160.3960  205.2830  150.7270 C   0  0  0  0  0  0  0  0  0  0  0  0
  159.2840  208.9250  155.3040 C   0  0  0  0  0  3  0  0  0  0  0  0
  160.5840  203.7170  152.7400 C   0  0  0  0  0  2  0  0  0  0  0  0
  160.6600  202.8240  150.0410 C   0  0  1  0  0  3  0  0  0  0  0  0
  162.3530  211.2130  150.3490 C   0  0  0  0  0  2  0  0  0  0  0  0
  162.2640  209.8210  150.9990 C   0  0  2  0  0  3  0  0  0  0  0  0
  160.4980  210.5660  152.6750 C   0  0  0  0  0  2  0  0  0  0  0  0
  161.3400  206.1080  152.9010 C   0  0  0  0  0  2  0  0  0  0  0  0
  161.7260  207.4630  155.3210 O   0  0  0  0  0  1  0  0  0  0  0  0
  157.8870  212.0020  153.9840 C   0  0  0  0  0  1  0  0  0  0  0  0
  161.9900  208.5360  153.1260 C   0  0  2  0  0  3  0  0  0  0  0  0
  160.1830  210.7240  154.1650 C   0  0  2  0  0  3  0  0  0  0  0  0
  160.8140  202.1120  148.7060 C   0  0  0  0  0  2  0  0  0  0  0  0
  161.3070  203.0530  147.6600 C   0  0  0  0  0  0  0  0  0  0  0  0
  160.9320  202.8790  146.3350 O   0  0  0  0  0  0  0  0  0  0  0  0
  162.0840  203.9920  147.9740 O   0  0  0  0  0  1  0  0  0  0  0  0
  1 16  1  0  0  0  0
  2 24  1  1  0  0  0
  2 27  1  0  0  0  0
  3 11  1  0  0  0  0
  3  4  1  0  0  0  0
  4 21  1  0  0  0  0
  5  6  1  0  0  0  0
  5 25  1  6  0  0  0
  6 18  2  0  0  0  0
  7 19  1  6  0  0  0
  7 24  1  0  0  0  0
  8 17  2  0  0  0  0
  8 12  1  0  0  0  0
  9 15  2  0  0  0  0
 10 20  1  0  0  0  0
 10 17  1  0  0  0  0
 12  2  1  0  0  0  0
 13 11  1  6  0  0  0
 13 12  1  0  0  0  0
 13 22  1  0  0  0  0
 14 23  1  6  0  0  0
 14 27  1  0  0  0  0
 15 18  1  0  0  0  0
 16 19  1  0  0  0  0
 17  7  1  0  0  0  0
 20 29  1  6  0  0  0
 20  1  1  0  0  0  0
 22 21  1  6  0  0  0
 22 14  1  0  0  0  0
 23 28  1  0  0  0  0
 26  9  1  0  0  0  0
 27  5  1  0  0  0  0
 28  9  1  0  0  0  0
 28  6  1  0  0  0  0
 30 32  1  0  0  0  0
 30 29  1  0  0  0  0
 31 30  2  0  0  0  0
M  END
>  <MODEL>
3

>  <REMARK>
 VINA RESULT:      -3.7      8.648     12.730
  Name = 
  2 active torsions:
  status: ('A' for Active; 'I' for Inactive)
    1  A    between atoms: C_20  and  C_29
    2  A    between atoms: C_29  and  C_30
                            x       y       z     vdW  Elec       q    Type
                         _______ _______ _______ _____ _____    ______ ____

>  <TORSDO>
F 2

$$$$
=
 OpenBabel11122412493D

 32 37  0  0  1  0  0  0  0  0999 V2000
  162.1120  207.8980  154.7670 C   0  0  0  0  0  2  0  0  0  0  0  0
  159.2260  211.6790  153.3960 C   0  0  1  0  0  3  0  0  0  0  0  0
  161.7400  212.6920  149.1230 C   0  0  0  0  0  2  0  0  0  0  0  0
  160.6630  213.7270  148.8280 C   0  0  0  0  0  2  0  0  0  0  0  0
  158.3890  213.7410  154.7230 C   0  0  1  0  0  3  0  0  0  0  0  0
  157.0130  213.7850  154.1400 C   0  0  0  0  0  0  0  0  0  0  0  0
  159.4050  209.3900  154.3490 C   0  0  1  0  0  3  0  0  0  0  0  0
  160.3300  209.8280  152.1000 C   0  0  0  0  0  3  0  0  0  0  0  0
  155.3950  213.9280  152.5660 C   0  0  0  0  0  0  0  0  0  0  0  0
  160.4850  207.5150  152.8320 C   0  0  0  0  0  2  0  0  0  0  0  0
  161.2210  211.5990  150.0650 C   0  0  0  0  0  2  0  0  0  0  0  0
  160.0090  211.2300  152.2240 N   0  0  0  0  0  0  0  0  0  0  0  0
  160.0880  212.0610  151.0090 C   0  0  1  0  0  3  0  0  0  0  0  0
  159.2200  214.0070  152.3710 C   0  0  1  0  0  3  0  0  0  0  0  0
  154.9580  213.1430  153.4970 N   0  0  0  0  0  0  0  0  0  0  0  0
  161.2550  208.4860  155.8950 C   0  0  0  0  0  2  0  0  0  0  0  0
  160.1050  208.9500  153.0810 C   0  0  0  0  0  0  0  0  0  0  0  0
  155.9860  213.0180  154.4720 C   0  0  0  0  0  3  0  0  0  0  0  0
  159.7530  208.5510  155.5820 C   0  0  0  0  0  2  0  0  0  0  0  0
  161.3440  206.8680  153.9300 C   0  0  1  0  0  3  0  0  0  0  0  0
  160.2420  214.4530  150.1090 C   0  0  0  0  0  2  0  0  0  0  0  0
  160.2540  213.5490  151.3540 C   0  0  2  0  0  3  0  0  0  0  0  0
  157.7770  213.9190  151.8150 C   0  0  0  0  0  2  0  0  0  0  0  0
  159.6330  210.8700  154.6250 C   0  0  0  0  0  2  0  0  0  0  0  0
  158.4290  213.0370  155.9300 O   0  0  0  0  0  1  0  0  0  0  0  0
  154.5730  214.2950  151.3830 C   0  0  0  0  0  1  0  0  0  0  0  0
  159.3840  213.1930  153.6710 C   0  0  2  0  0  3  0  0  0  0  0  0
  156.7660  214.4510  152.8340 C   0  0  2  0  0  3  0  0  0  0  0  0
  162.3040  205.8790  153.2900 C   0  0  0  0  0  2  0  0  0  0  0  0
  161.6010  205.0400  152.2780 C   0  0  0  0  0  0  0  0  0  0  0  0
  161.6830  205.3600  150.9300 O   0  0  0  0  0  0  0  0  0  0  0  0
  160.9120  204.0530  152.6490 O   0  0  0  0  0  1  0  0  0  0  0  0
  1 16  1  0  0  0  0
  2 27  1  0  0  0  0
  2 24  1  1  0  0  0
  3 11  1  0  0  0  0
  4  3  1  0  0  0  0
  4 21  1  0  0  0  0
  5 25  1  1  0  0  0
  6 18  2  0  0  0  0
  6  5  1  0  0  0  0
  7 24  1  1  0  0  0
  7 19  1  0  0  0  0
  8 12  1  0  0  0  0
  8 17  2  0  0  0  0
  9 28  1  0  0  0  0
  9 15  2  0  0  0  0
 10 17  1  0  0  0  0
 10 20  1  0  0  0  0
 12  2  1  0  0  0  0
 13 11  1  6  0  0  0
 13 22  1  0  0  0  0
 13 12  1  0  0  0  0
 14 23  1  6  0  0  0
 14 27  1  0  0  0  0
 15 18  1  0  0  0  0
 17  7  1  0  0  0  0
 19 16  1  0  0  0  0
 20 29  1  6  0  0  0
 20  1  1  0  0  0  0
 22 21  1  6  0  0  0
 22 14  1  0  0  0  0
 23 28  1  0  0  0  0
 26  9  1  0  0  0  0
 27  5  1  0  0  0  0
 28  6  1  0  0  0  0
 30 32  1  0  0  0  0
 30 29  1  0  0  0  0
 31 30  2  0  0  0  0
M  END
>  <MODEL>
4

>  <REMARK>
 VINA RESULT:      -2.5      8.517     11.964
  Name = 
  2 active torsions:
  status: ('A' for Active; 'I' for Inactive)
    1  A    between atoms: C_20  and  C_29
    2  A    between atoms: C_29  and  C_30
                            x       y       z     vdW  Elec       q    Type
                         _______ _______ _______ _____ _____    ______ ____

>  <TORSDO>
F 2

$$$$
=
 OpenBabel11122412493D

 32 37  0  0  1  0  0  0  0  0999 V2000
  162.5420  208.6750  151.6570 C   0  0  0  0  0  2  0  0  0  0  0  0
  161.5810  205.3480  148.1200 C   0  0  1  0  0  3  0  0  0  0  0  0
  161.1640  201.4010  151.2580 C   0  0  0  0  0  2  0  0  0  0  0  0
  160.7590  200.5780  150.0420 C   0  0  0  0  0  2  0  0  0  0  0  0
  162.7760  204.8730  145.8700 C   0  0  1  0  0  3  0  0  0  0  0  0
  161.5450  204.5980  145.0660 C   0  0  0  0  0  0  0  0  0  0  0  0
  161.2060  207.6260  149.0410 C   0  0  1  0  0  3  0  0  0  0  0  0
  160.6800  205.6630  150.4460 C   0  0  0  0  0  3  0  0  0  0  0  0
  159.6120  203.6020  144.4470 C   0  0  0  0  0  0  0  0  0  0  0  0
  160.1450  207.8090  151.4550 C   0  0  0  0  0  2  0  0  0  0  0  0
  160.8760  202.8920  151.0440 C   0  0  0  0  0  2  0  0  0  0  0  0
  161.1910  204.7770  149.4280 N   0  0  0  0  0  0  0  0  0  0  0  0
  160.9060  203.3370  149.5640 C   0  0  1  0  0  3  0  0  0  0  0  0
  162.0470  202.9730  147.3360 C   0  0  1  0  0  3  0  0  0  0  0  0
  159.5150  204.8530  144.1390 N   0  0  0  0  0  0  0  0  0  0  0  0
  162.9220  209.1250  150.2410 C   0  0  0  0  0  2  0  0  0  0  0  0
  160.7080  206.9920  150.3230 C   0  0  0  0  0  0  0  0  0  0  0  0
  160.7120  205.4950  144.5600 C   0  0  0  0  0  3  0  0  0  0  0  0
  161.7790  209.0350  149.2190 C   0  0  0  0  0  2  0  0  0  0  0  0
  161.0630  208.9280  151.9700 C   0  0  1  0  0  3  0  0  0  0  0  0
  161.5810  200.9840  148.8150 C   0  0  0  0  0  2  0  0  0  0  0  0
  161.9090  202.4860  148.7710 C   0  0  2  0  0  3  0  0  0  0  0  0
  160.7280  202.8200  146.5400 C   0  0  0  0  0  2  0  0  0  0  0  0
  162.2050  206.7260  148.3270 C   0  0  0  0  0  2  0  0  0  0  0  0
  163.1930  206.2030  145.7590 O   0  0  0  0  0  1  0  0  0  0  0  0
  158.5380  202.6190  144.1400 C   0  0  0  0  0  1  0  0  0  0  0  0
  162.5500  204.4310  147.3360 C   0  0  2  0  0  3  0  0  0  0  0  0
  160.9150  203.2530  145.0840 C   0  0  2  0  0  3  0  0  0  0  0  0
  160.8550  209.0900  153.4670 C   0  0  0  0  0  2  0  0  0  0  0  0
  161.2660  210.4520  153.9130 C   0  0  0  0  0  0  0  0  0  0  0  0
  162.1550  210.6010  154.9690 O   0  0  0  0  0  1  0  0  0  0  0  0
  160.7860  211.4700  153.3480 O   0  0  0  0  0  0  0  0  0  0  0  0
  1 20  1  0  0  0  0
  2 24  1  1  0  0  0
  2 12  1  0  0  0  0
  4  3  1  0  0  0  0
  5 25  1  1  0  0  0
  5 27  1  0  0  0  0
  6 28  1  0  0  0  0
  6  5  1  0  0  0  0
  7 24  1  1  0  0  0
  7 19  1  0  0  0  0
  7 17  1  0  0  0  0
  9 28  1  0  0  0  0
 10 20  1  0  0  0  0
 11  3  1  0  0  0  0
 12 13  1  0  0  0  0
 12  8  1  0  0  0  0
 13 11  1  1  0  0  0
 14 23  1  1  0  0  0
 14 22  1  0  0  0  0
 15  9  2  0  0  0  0
 15 18  1  0  0  0  0
 16  1  1  0  0  0  0
 17  8  2  0  0  0  0
 17 10  1  0  0  0  0
 18  6  2  0  0  0  0
 19 16  1  0  0  0  0
 20 29  1  1  0  0  0
 21  4  1  0  0  0  0
 22 21  1  6  0  0  0
 22 13  1  0  0  0  0
 26  9  1  0  0  0  0
 27 14  1  0  0  0  0
 27  2  1  0  0  0  0
 28 23  1  0  0  0  0
 29 30  1  0  0  0  0
 30 31  1  0  0  0  0
 32 30  2  0  0  0  0
M  END
>  <MODEL>
5

>  <REMARK>
 VINA RESULT:      -2.3      8.250     10.920
  Name = 
  2 active torsions:
  status: ('A' for Active; 'I' for Inactive)
    1  A    between atoms: C_20  and  C_29
    2  A    between atoms: C_29  and  C_30
                            x       y       z     vdW  Elec       q    Type
                         _______ _______ _______ _____ _____    ______ ____

>  <TORSDO>
F 2

$$$$
=
 OpenBabel11122412493D

 32 37  0  0  1  0  0  0  0  0999 V2000
  162.5730  206.7640  153.6240 C   0  0  0  0  0  2  0  0  0  0  0  0
  159.6680  210.7720  153.6670 C   0  0  1  0  0  3  0  0  0  0  0  0
  161.4400  212.7100  149.3420 C   0  0  0  0  0  2  0  0  0  0  0  0
  160.3760  213.7910  149.4820 C   0  0  0  0  0  2  0  0  0  0  0  0
  159.1720  212.4860  155.5460 C   0  0  1  0  0  3  0  0  0  0  0  0
  157.7180  212.6680  155.2460 C   0  0  0  0  0  0  0  0  0  0  0  0
  159.9060  208.3260  154.0430 C   0  0  1  0  0  3  0  0  0  0  0  0
  160.4430  209.2560  151.8160 C   0  0  0  0  0  3  0  0  0  0  0  0
  155.8590  213.1710  154.0620 C   0  0  0  0  0  0  0  0  0  0  0  0
  160.6170  206.8360  151.9790 C   0  0  0  0  0  2  0  0  0  0  0  0
  161.0440  211.4350  150.0970 C   0  0  0  0  0  2  0  0  0  0  0  0
  160.2130  210.5950  152.3030 N   0  0  0  0  0  0  0  0  0  0  0  0
  160.1160  211.6790  151.3090 C   0  0  1  0  0  3  0  0  0  0  0  0
  159.5900  213.2720  153.2010 C   0  0  1  0  0  3  0  0  0  0  0  0
  155.5560  212.1990  154.8590 N   0  0  0  0  0  0  0  0  0  0  0  0
  161.9550  207.0870  154.9890 C   0  0  0  0  0  2  0  0  0  0  0  0
  160.3520  208.1800  152.6030 C   0  0  0  0  0  0  0  0  0  0  0  0
  156.7310  211.8510  155.5800 C   0  0  0  0  0  3  0  0  0  0  0  0
  160.4250  207.2290  154.9750 C   0  0  0  0  0  2  0  0  0  0  0  0
  161.6240  205.9540  152.7320 C   0  0  1  0  0  3  0  0  0  0  0  0
  160.2200  214.2110  150.9470 C   0  0  0  0  0  2  0  0  0  0  0  0
  160.4080  213.0490  151.9380 C   0  0  2  0  0  3  0  0  0  0  0  0
  158.0700  213.3190  152.9100 C   0  0  0  0  0  2  0  0  0  0  0  0
  160.2460  209.7050  154.5930 C   0  0  0  0  0  2  0  0  0  0  0  0
  159.3900  211.5270  156.5400 O   0  0  0  0  0  1  0  0  0  0  0  0
  154.8600  213.8000  153.1580 C   0  0  0  0  0  1  0  0  0  0  0  0
  159.9410  212.1840  154.2370 C   0  0  2  0  0  3  0  0  0  0  0  0
  157.2780  213.6120  154.1860 C   0  0  2  0  0  3  0  0  0  0  0  0
  162.4110  205.1290  151.7270 C   0  0  0  0  0  2  0  0  0  0  0  0
  161.5840  204.0050  151.2030 C   0  0  0  0  0  0  0  0  0  0  0  0
  161.0110  204.0910  149.9420 O   0  0  0  0  0  0  0  0  0  0  0  0
  161.3850  202.9860  151.9160 O   0  0  0  0  0  1  0  0  0  0  0  0
  1 16  1  0  0  0  0
  2 27  1  0  0  0  0
  2 24  1  1  0  0  0
  3  4  1  0  0  0  0
  3 11  1  0  0  0  0
  4 21  1  0  0  0  0
  5 25  1  1  0  0  0
  6  5  1  0  0  0  0
  6 18  2  0  0  0  0
  7 24  1  1  0  0  0
  7 19  1  0  0  0  0
  8 12  1  0  0  0  0
  8 17  2  0  0  0  0
  9 28  1  0  0  0  0
  9 15  2  0  0  0  0
 10 17  1  0  0  0  0
 10 20  1  0  0  0  0
 12  2  1  0  0  0  0
 13 11  1  6  0  0  0
 13 22  1  0  0  0  0
 13 12  1  0  0  0  0
 14 23  1  6  0  0  0
 14 27  1  0  0  0  0
 15 18  1  0  0  0  0
 17  7  1  0  0  0  0
 19 16  1  0  0  0  0
 20 29  1  6  0  0  0
 20  1  1  0  0  0  0
 22 21  1  6  0  0  0
 22 14  1  0  0  0  0
 23 28  1  0  0  0  0
 26  9  1  0  0  0  0
 27  5  1  0  0  0  0
 28  6  1  0  0  0  0
 30 29  1  0  0  0  0
 30 32  1  0  0  0  0
 31 30  2  0  0  0  0
M  END
>  <MODEL>
6

>  <REMARK>
 VINA RESULT:      -2.0      8.924     12.547
  Name = 
  2 active torsions:
  status: ('A' for Active; 'I' for Inactive)
    1  A    between atoms: C_20  and  C_29
    2  A    between atoms: C_29  and  C_30
                            x       y       z     vdW  Elec       q    Type
                         _______ _______ _______ _____ _____    ______ ____

>  <TORSDO>
F 2

$$$$
