=
 OpenBabel11122414203D

 34 40  0  0  1  0  0  0  0  0999 V2000
  160.5300  207.4540  154.5950 C   0  0  0  0  0  0  0  0  0  0  0  0
  161.7730  205.5170  153.4690 C   0  0  0  0  0  2  0  0  0  0  0  0
  157.8760  213.2280  153.8210 C   0  0  2  0  0  3  0  0  0  0  0  0
  159.7280  209.4870  155.6450 C   0  0  0  0  0  0  0  0  0  0  0  0
  159.8110  211.6260  154.3270 C   0  0  2  0  0  3  0  0  0  0  0  0
  159.7470  213.8680  155.2390 O   0  0  0  0  0  1  0  0  0  0  0  0
  157.6510  214.4530  152.9600 C   0  0  0  0  0  1  0  0  0  0  0  0
  157.2640  212.2900  156.1550 C   0  0  0  0  0  2  0  0  0  0  0  0
  161.6400  207.6340  152.4360 C   0  0  2  0  0  3  0  0  0  0  0  0
  161.2450  207.9400  149.3070 C   0  0  0  0  0  2  0  0  0  0  0  0
  159.5780  210.7970  153.0650 C   0  0  0  0  0  2  0  0  0  0  0  0
  157.7210  210.9380  155.6370 C   0  0  0  0  0  2  0  0  0  0  0  0
  160.7370  208.7970  152.0090 C   0  0  1  0  0  3  0  0  0  0  0  0
  162.3760  205.3640  152.0740 C   0  0  0  0  0  2  0  0  0  0  0  0
  159.2470  210.9120  155.5740 C   0  0  1  0  0  3  0  0  0  0  0  0
  156.9410  213.2800  155.0350 C   0  0  0  0  0  2  0  0  0  0  0  0
  161.4110  206.6180  150.0860 C   0  0  2  0  0  3  0  0  0  0  0  0
  160.1360  208.8020  154.4850 C   0  0  0  0  0  0  0  0  0  0  0  0
  159.3680  213.0830  154.1450 C   0  0  2  0  0  3  0  0  0  0  0  0
  160.2160  209.4880  153.2080 N   0  0  0  0  0  0  0  0  0  0  0  0
  160.0980  207.4730  156.9290 C   0  0  0  0  0  3  0  0  0  0  0  0
  162.0920  209.0970  149.8420 C   0  0  0  0  0  2  0  0  0  0  0  0
  159.7120  208.8150  156.8710 C   0  0  0  0  0  3  0  0  0  0  0  0
  161.4690  209.7690  151.0710 C   0  0  0  0  0  2  0  0  0  0  0  0
  162.2540  206.7250  151.3750 C   0  0  1  0  0  3  0  0  0  0  0  0
  160.4850  206.8220  155.8000 N   0  0  0  0  0  0  0  0  0  0  0  0
  160.8690  206.7170  153.3380 C   0  0  2  0  0  3  0  0  0  0  0  0
  161.9820  205.6200  149.1970 N   0  0  0  0  0  2  0  0  0  0  0  0
  160.8720  204.9230  148.5700 C   0  0  0  0  0  2  0  0  0  0  0  0
  161.1640  201.2730  148.5160 N   0  0  0  0  0  0  0  0  0  0  0  0
  160.6960  202.9410  150.0650 C   0  0  0  0  0  3  0  0  0  0  0  0
  160.9490  203.4710  148.8840 C   0  0  0  0  0  0  0  0  0  0  0  0
  160.8350  201.4600  149.9250 C   0  0  0  0  0  2  0  0  0  0  0  0
  161.2260  202.4200  147.9300 C   0  0  0  0  0  3  0  0  0  0  0  0
  1 26  1  0  0  0  0
  3  7  1  1  0  0  0
  3 19  1  0  0  0  0
  3 16  1  0  0  0  0
  4 23  2  0  0  0  0
  5 11  1  6  0  0  0
  5 15  1  0  0  0  0
  9 27  1  0  0  0  0
 10 22  1  0  0  0  0
 10 17  1  0  0  0  0
 11 20  1  0  0  0  0
 12  8  1  0  0  0  0
 13  9  1  0  0  0  0
 13 20  1  0  0  0  0
 14  2  1  0  0  0  0
 15 12  1  0  0  0  0
 15  4  1  0  0  0  0
 16  8  1  0  0  0  0
 17 25  1  0  0  0  0
 18  1  2  0  0  0  0
 18  4  1  0  0  0  0
 19  5  1  0  0  0  0
 19  6  1  0  0  0  0
 20 18  1  0  0  0  0
 22 24  1  0  0  0  0
 23 21  1  0  0  0  0
 24 13  1  0  0  0  0
 25 14  1  0  0  0  0
 25  9  1  0  0  0  0
 26 21  2  0  0  0  0
 27  2  1  0  0  0  0
 27  1  1  0  0  0  0
 28 17  1  0  0  0  0
 29 32  1  0  0  0  0
 29 28  1  0  0  0  0
 30 33  1  0  0  0  0
 32 31  2  0  0  0  0
 33 31  1  0  0  0  0
 34 30  2  0  0  0  0
 34 32  1  0  0  0  0
M  END
>  <MODEL>
1

>  <REMARK>
 VINA RESULT:      -8.7      0.000      0.000
  Name = 
  3 active torsions:
  status: ('A' for Active; 'I' for Inactive)
    1  A    between atoms: C_17  and  N_28
    2  A    between atoms: N_28  and  C_29
    3  A    between atoms: C_29  and  C_32
                            x       y       z     vdW  Elec       q    Type
                         _______ _______ _______ _____ _____    ______ ____

>  <TORSDO>
F 3

$$$$
=
 OpenBabel11122414203D

 34 40  0  0  1  0  0  0  0  0999 V2000
  161.7930  208.7380  149.6470 C   0  0  0  0  0  0  0  0  0  0  0  0
  161.6990  207.4780  147.4190 C   0  0  0  0  0  2  0  0  0  0  0  0
  161.5000  208.2780  156.0260 C   0  0  2  0  0  3  0  0  0  0  0  0
  161.4600  209.8780  151.7610 C   0  0  0  0  0  0  0  0  0  0  0  0
  160.5010  208.5750  153.6840 C   0  0  2  0  0  3  0  0  0  0  0  0
  159.4330  209.5060  155.6480 O   0  0  0  0  0  1  0  0  0  0  0  0
  161.1980  207.4530  157.2600 C   0  0  0  0  0  1  0  0  0  0  0  0
  162.2770  210.6540  155.3560 C   0  0  0  0  0  2  0  0  0  0  0  0
  160.9160  206.4790  149.4080 C   0  0  2  0  0  3  0  0  0  0  0  0
  161.3880  203.4090  150.0290 C   0  0  0  0  0  2  0  0  0  0  0  0
  161.2010  207.3370  153.1270 C   0  0  0  0  0  2  0  0  0  0  0  0
  162.5500  210.0830  153.9760 C   0  0  0  0  0  2  0  0  0  0  0  0
  161.2040  206.1540  150.8780 C   0  0  1  0  0  3  0  0  0  0  0  0
  161.3590  206.0280  147.0780 C   0  0  0  0  0  2  0  0  0  0  0  0
  161.2240  209.8670  153.2480 C   0  0  1  0  0  3  0  0  0  0  0  0
  162.1940  209.5800  156.4400 C   0  0  0  0  0  2  0  0  0  0  0  0
  161.7920  204.1570  148.7420 C   0  0  2  0  0  3  0  0  0  0  0  0
  161.5200  208.6780  151.0280 C   0  0  0  0  0  0  0  0  0  0  0  0
  160.2260  208.4500  155.1880 C   0  0  2  0  0  3  0  0  0  0  0  0
  161.2380  207.4040  151.6660 N   0  0  0  0  0  0  0  0  0  0  0  0
  161.9650  211.1030  149.7400 C   0  0  0  0  0  3  0  0  0  0  0  0
  160.0560  203.8650  150.6310 C   0  0  0  0  0  2  0  0  0  0  0  0
  161.6830  211.0940  151.1080 C   0  0  0  0  0  3  0  0  0  0  0  0
  160.1860  205.1550  151.4490 C   0  0  0  0  0  2  0  0  0  0  0  0
  160.8900  205.3550  148.3760 C   0  0  1  0  0  3  0  0  0  0  0  0
  162.0250  209.9360  149.0450 N   0  0  0  0  0  0  0  0  0  0  0  0
  161.9460  207.4470  148.9060 C   0  0  2  0  0  3  0  0  0  0  0  0
  161.8320  203.2070  147.6420 N   0  0  0  0  0  2  0  0  0  0  0  0
  161.1520  202.0040  148.0920 C   0  0  0  0  0  2  0  0  0  0  0  0
  160.3790  200.2230  144.9870 N   0  0  0  0  0  0  0  0  0  0  0  0
  161.4960  199.8050  146.9820 C   0  0  0  0  0  3  0  0  0  0  0  0
  161.0370  201.0400  146.9650 C   0  0  0  0  0  0  0  0  0  0  0  0
  161.1190  199.1750  145.6800 C   0  0  0  0  0  3  0  0  0  0  0  0
  160.3340  201.2810  145.7240 C   0  0  0  0  0  2  0  0  0  0  0  0
  1 18  1  0  0  0  0
  2 27  1  0  0  0  0
  3 16  1  0  0  0  0
  3  7  1  1  0  0  0
  4 15  1  0  0  0  0
  5 11  1  1  0  0  0
  5 19  1  0  0  0  0
  8 16  1  0  0  0  0
  9 13  1  0  0  0  0
 10 22  1  0  0  0  0
 12  8  1  0  0  0  0
 13 24  1  0  0  0  0
 13 20  1  0  0  0  0
 14  2  1  0  0  0  0
 14 25  1  0  0  0  0
 15  5  1  0  0  0  0
 15 12  1  0  0  0  0
 17 10  1  0  0  0  0
 18 20  1  0  0  0  0
 18  4  2  0  0  0  0
 19  6  1  0  0  0  0
 19  3  1  0  0  0  0
 20 11  1  0  0  0  0
 21 23  2  0  0  0  0
 22 24  1  0  0  0  0
 23  4  1  0  0  0  0
 25 17  1  0  0  0  0
 25  9  1  0  0  0  0
 26  1  2  0  0  0  0
 26 21  1  0  0  0  0
 27  9  1  0  0  0  0
 27  1  1  0  0  0  0
 28 29  1  0  0  0  0
 28 17  1  0  0  0  0
 30 33  2  0  0  0  0
 30 34  1  0  0  0  0
 32 31  2  0  0  0  0
 32 29  1  0  0  0  0
 33 31  1  0  0  0  0
 34 32  1  0  0  0  0
M  END
>  <MODEL>
2

>  <REMARK>
 VINA RESULT:      -7.8      2.670      4.943
  Name = 
  3 active torsions:
  status: ('A' for Active; 'I' for Inactive)
    1  A    between atoms: C_17  and  N_28
    2  A    between atoms: N_28  and  C_29
    3  A    between atoms: C_29  and  C_32
                            x       y       z     vdW  Elec       q    Type
                         _______ _______ _______ _____ _____    ______ ____

>  <TORSDO>
F 3

$$$$
=
 OpenBabel11122414203D

 34 40  0  0  1  0  0  0  0  0999 V2000
  161.2040  207.9540  151.8950 C   0  0  0  0  0  0  0  0  0  0  0  0
  161.1890  205.4330  152.3460 C   0  0  0  0  0  2  0  0  0  0  0  0
  161.3070  212.5520  147.4420 C   0  0  2  0  0  3  0  0  0  0  0  0
  161.6310  210.2850  151.3790 C   0  0  0  0  0  0  0  0  0  0  0  0
  162.3830  210.8770  149.0550 C   0  0  2  0  0  3  0  0  0  0  0  0
  163.5160  212.9130  148.3960 O   0  0  0  0  0  1  0  0  0  0  0  0
  161.4790  212.9590  145.9930 C   0  0  0  0  0  1  0  0  0  0  0  0
  160.8410  213.5960  149.7640 C   0  0  0  0  0  2  0  0  0  0  0  0
  161.8020  206.2800  150.2310 C   0  0  2  0  0  3  0  0  0  0  0  0
  160.9450  204.8360  147.5450 C   0  0  0  0  0  2  0  0  0  0  0  0
  161.5480  209.7050  148.5420 C   0  0  0  0  0  2  0  0  0  0  0  0
  160.5290  212.1870  150.2390 C   0  0  0  0  0  2  0  0  0  0  0  0
  161.4470  207.2230  149.0760 C   0  0  1  0  0  3  0  0  0  0  0  0
  161.3560  204.2280  151.4220 C   0  0  0  0  0  2  0  0  0  0  0  0
  161.8330  211.4070  150.3960 C   0  0  1  0  0  3  0  0  0  0  0  0
  160.7690  213.7420  148.2440 C   0  0  0  0  0  2  0  0  0  0  0  0
  160.6620  204.3460  148.9800 C   0  0  2  0  0  3  0  0  0  0  0  0
  161.4390  208.9620  150.9380 C   0  0  0  0  0  0  0  0  0  0  0  0
  162.6090  211.9380  147.9700 C   0  0  2  0  0  3  0  0  0  0  0  0
  161.5490  208.6260  149.5300 N   0  0  0  0  0  0  0  0  0  0  0  0
  161.3220  209.5390  153.6570 C   0  0  0  0  0  3  0  0  0  0  0  0
  162.3100  205.5060  147.3650 C   0  0  0  0  0  2  0  0  0  0  0  0
  161.5720  210.5690  152.7470 C   0  0  0  0  0  3  0  0  0  0  0  0
  162.3220  206.9630  147.8410 C   0  0  0  0  0  2  0  0  0  0  0  0
  161.7120  204.7700  150.0310 C   0  0  1  0  0  3  0  0  0  0  0  0
  161.1340  208.2660  153.2180 N   0  0  0  0  0  0  0  0  0  0  0  0
  160.9100  206.5730  151.4000 C   0  0  2  0  0  3  0  0  0  0  0  0
  160.5300  202.8980  148.9630 N   0  0  0  0  0  2  0  0  0  0  0  0
  161.6870  202.3730  148.2580 C   0  0  0  0  0  2  0  0  0  0  0  0
  161.0600  199.5120  146.0600 N   0  0  0  0  0  0  0  0  0  0  0  0
  160.5770  201.7850  146.1110 C   0  0  0  0  0  3  0  0  0  0  0  0
  161.2430  201.4350  147.1930 C   0  0  0  0  0  0  0  0  0  0  0  0
  160.3860  200.5510  145.2900 C   0  0  0  0  0  3  0  0  0  0  0  0
  161.5460  200.0210  147.1410 C   0  0  0  0  0  2  0  0  0  0  0  0
  1 26  1  0  0  0  0
  3  7  1  6  0  0  0
  3 19  1  0  0  0  0
  3 16  1  0  0  0  0
  4 23  2  0  0  0  0
  5 11  1  6  0  0  0
  5 15  1  0  0  0  0
  8 12  1  0  0  0  0
  9 27  1  0  0  0  0
 10 17  1  0  0  0  0
 11 20  1  0  0  0  0
 12 15  1  0  0  0  0
 13 20  1  0  0  0  0
 13  9  1  0  0  0  0
 14  2  1  0  0  0  0
 15  4  1  0  0  0  0
 16  8  1  0  0  0  0
 17 25  1  0  0  0  0
 18  4  1  0  0  0  0
 18  1  2  0  0  0  0
 19  6  1  0  0  0  0
 19  5  1  0  0  0  0
 20 18  1  0  0  0  0
 22 10  1  0  0  0  0
 22 24  1  0  0  0  0
 23 21  1  0  0  0  0
 24 13  1  0  0  0  0
 25  9  1  0  0  0  0
 25 14  1  0  0  0  0
 26 21  2  0  0  0  0
 27  1  1  0  0  0  0
 27  2  1  0  0  0  0
 28 17  1  0  0  0  0
 29 28  1  0  0  0  0
 30 34  1  0  0  0  0
 31 32  2  0  0  0  0
 32 29  1  0  0  0  0
 33 30  2  0  0  0  0
 33 31  1  0  0  0  0
 34 32  1  0  0  0  0
M  END
>  <MODEL>
3

>  <REMARK>
 VINA RESULT:      -7.5      3.024      4.724
  Name = 
  3 active torsions:
  status: ('A' for Active; 'I' for Inactive)
    1  A    between atoms: C_17  and  N_28
    2  A    between atoms: N_28  and  C_29
    3  A    between atoms: C_29  and  C_32
                            x       y       z     vdW  Elec       q    Type
                         _______ _______ _______ _____ _____    ______ ____

>  <TORSDO>
F 3

$$$$
=
 OpenBabel11122414203D

 34 40  0  0  1  0  0  0  0  0999 V2000
  160.7670  208.2110  154.5340 C   0  0  0  0  0  0  0  0  0  0  0  0
  161.8980  205.9640  154.0530 C   0  0  0  0  0  2  0  0  0  0  0  0
  157.9880  213.4040  152.0260 C   0  0  2  0  0  3  0  0  0  0  0  0
  160.0650  210.5090  154.8630 C   0  0  0  0  0  0  0  0  0  0  0  0
  159.9830  212.0320  152.8660 C   0  0  2  0  0  3  0  0  0  0  0  0
  159.9970  214.4530  152.9140 O   0  0  0  0  0  1  0  0  0  0  0  0
  157.6590  214.2470  150.8110 C   0  0  0  0  0  1  0  0  0  0  0  0
  157.6440  213.3820  154.5910 C   0  0  0  0  0  2  0  0  0  0  0  0
  161.6320  207.5740  152.3490 C   0  0  2  0  0  3  0  0  0  0  0  0
  160.8950  206.7540  149.3790 C   0  0  0  0  0  2  0  0  0  0  0  0
  159.6210  210.8140  152.0170 C   0  0  0  0  0  2  0  0  0  0  0  0
  158.0550  211.9210  154.5470 C   0  0  0  0  0  2  0  0  0  0  0  0
  160.6770  208.5350  151.6320 C   0  0  1  0  0  3  0  0  0  0  0  0
  162.3470  205.3040  152.7500 C   0  0  0  0  0  2  0  0  0  0  0  0
  159.5650  211.8280  154.3380 C   0  0  1  0  0  3  0  0  0  0  0  0
  157.1910  213.9150  153.2320 C   0  0  0  0  0  2  0  0  0  0  0  0
  161.1580  205.7930  150.5580 C   0  0  2  0  0  3  0  0  0  0  0  0
  160.3500  209.4420  153.9900 C   0  0  0  0  0  0  0  0  0  0  0  0
  159.5080  213.3400  152.2210 C   0  0  2  0  0  3  0  0  0  0  0  0
  160.2830  209.6240  152.5510 N   0  0  0  0  0  0  0  0  0  0  0  0
  160.5930  209.0770  156.7370 C   0  0  0  0  0  3  0  0  0  0  0  0
  161.7840  208.0000  149.3710 C   0  0  0  0  0  2  0  0  0  0  0  0
  160.1900  210.3200  156.2430 C   0  0  0  0  0  3  0  0  0  0  0  0
  161.2920  209.0850  150.3360 C   0  0  0  0  0  2  0  0  0  0  0  0
  162.1360  206.3280  151.6270 C   0  0  1  0  0  3  0  0  0  0  0  0
  160.8600  208.0530  155.8830 N   0  0  0  0  0  0  0  0  0  0  0  0
  160.9740  207.0640  153.5960 C   0  0  2  0  0  3  0  0  0  0  0  0
  161.6380  204.5260  150.0310 N   0  0  0  0  0  2  0  0  0  0  0  0
  160.4700  203.6990  149.7820 C   0  0  0  0  0  2  0  0  0  0  0  0
  161.2090  201.2360  147.1750 N   0  0  0  0  0  0  0  0  0  0  0  0
  161.1730  201.3290  149.4970 C   0  0  0  0  0  3  0  0  0  0  0  0
  160.8610  202.5040  148.9870 C   0  0  0  0  0  0  0  0  0  0  0  0
  161.4440  200.4080  148.3520 C   0  0  0  0  0  2  0  0  0  0  0  0
  160.8770  202.4270  147.5420 C   0  0  0  0  0  3  0  0  0  0  0  0
  1 26  1  0  0  0  0
  3  7  1  6  0  0  0
  3 19  1  0  0  0  0
  3 16  1  0  0  0  0
  4 23  2  0  0  0  0
  5 11  1  6  0  0  0
  5 15  1  0  0  0  0
  9 27  1  0  0  0  0
 10 17  1  0  0  0  0
 11 20  1  0  0  0  0
 12  8  1  0  0  0  0
 13  9  1  0  0  0  0
 13 20  1  0  0  0  0
 14  2  1  0  0  0  0
 15 12  1  0  0  0  0
 15  4  1  0  0  0  0
 16  8  1  0  0  0  0
 17 25  1  0  0  0  0
 18  1  2  0  0  0  0
 18  4  1  0  0  0  0
 19  5  1  0  0  0  0
 19  6  1  0  0  0  0
 20 18  1  0  0  0  0
 22 10  1  0  0  0  0
 22 24  1  0  0  0  0
 23 21  1  0  0  0  0
 24 13  1  0  0  0  0
 25  9  1  0  0  0  0
 25 14  1  0  0  0  0
 26 21  2  0  0  0  0
 27  2  1  0  0  0  0
 27  1  1  0  0  0  0
 28 17  1  0  0  0  0
 29 28  1  0  0  0  0
 30 34  2  0  0  0  0
 30 33  1  0  0  0  0
 32 31  2  0  0  0  0
 32 29  1  0  0  0  0
 33 31  1  0  0  0  0
 34 32  1  0  0  0  0
M  END
>  <MODEL>
4

>  <REMARK>
 VINA RESULT:      -6.6      1.142      1.395
  Name = 
  3 active torsions:
  status: ('A' for Active; 'I' for Inactive)
    1  A    between atoms: C_17  and  N_28
    2  A    between atoms: N_28  and  C_29
    3  A    between atoms: C_29  and  C_32
                            x       y       z     vdW  Elec       q    Type
                         _______ _______ _______ _____ _____    ______ ____

>  <TORSDO>
F 3

$$$$
