=
 OpenBabel11122413133D

 31 36  0  0  1  0  0  0  0  0999 V2000
  161.6230  207.0060  152.5960 C   0  0  0  0  0  0  0  0  0  0  0  0
  159.5760  209.9660  153.8050 C   0  0  2  0  0  3  0  0  0  0  0  0
  160.1650  210.3830  155.1860 C   0  0  1  0  0  3  0  0  0  0  0  0
  162.0740  210.4550  156.8020 C   0  0  1  0  0  3  0  0  0  0  0  0
  160.5020  209.1240  152.9670 C   0  0  0  0  0  0  0  0  0  0  0  0
  162.3300  207.5640  151.5280 C   0  0  0  0  0  3  0  0  0  0  0  0
  161.6800  210.2100  155.3450 C   0  0  0  0  0  2  0  0  0  0  0  0
  160.1670  211.9580  152.3990 C   0  0  2  0  0  3  0  0  0  0  0  0
  161.8230  205.7100  152.9370 F   0  0  0  0  0  0  0  0  0  0  0  0
  158.3140  212.0530  155.3290 C   0  0  0  0  0  2  0  0  0  0  0  0
  163.4560  210.3320  156.9370 O   0  0  0  0  0  1  0  0  0  0  0  0
  160.9570  211.0920  151.4110 C   0  0  0  0  0  2  0  0  0  0  0  0
  159.0030  211.1450  152.9940 C   0  0  2  0  0  3  0  0  0  0  0  0
  160.7140  207.7850  153.3150 C   0  0  0  0  0  3  0  0  0  0  0  0
  161.6390  211.8500  157.2560 C   0  0  0  0  0  2  0  0  0  0  0  0
  161.2230  209.6910  151.8930 C   0  0  0  0  0  0  0  0  0  0  0  0
  162.1250  208.9010  151.1750 C   0  0  0  0  0  3  0  0  0  0  0  0
  158.0170  211.9940  153.8250 C   0  0  0  0  0  2  0  0  0  0  0  0
  159.7880  211.8120  155.5940 C   0  0  1  0  0  3  0  0  0  0  0  0
  160.1350  212.0390  157.0580 C   0  0  0  0  0  2  0  0  0  0  0  0
  158.4500  212.9530  151.0900 O   0  0  0  0  0  0  0  0  0  0  0  0
  159.5530  212.9520  150.2180 C   0  0  2  0  0  3  0  0  0  0  0  0
  159.7060  213.2140  151.6690 C   0  0  2  0  0  3  0  0  0  0  0  0
  158.5940  213.5670  146.7930 C   0  0  1  0  0  3  0  0  0  0  0  0
  158.1070  214.4410  148.8310 C   0  0  0  0  0  2  0  0  0  0  0  0
  161.8620  213.9800  148.6390 N   0  0  0  0  0  1  0  0  0  0  0  0
  158.1320  212.6190  145.7060 C   0  0  0  0  0  1  0  0  0  0  0  0
  157.7870  213.3990  147.9360 O   0  0  0  0  0  0  0  0  0  0  0  0
  160.4980  214.2500  148.2190 C   0  0  2  0  0  3  0  0  0  0  0  0
  159.5170  214.2450  149.4010 C   0  0  2  0  0  3  0  0  0  0  0  0
  160.0580  213.2780  147.1290 C   0  0  0  0  0  2  0  0  0  0  0  0
  1  9  1  0  0  0  0
  1 14  1  0  0  0  0
  2  5  1  6  0  0  0
  2  3  1  0  0  0  0
  3  7  1  6  0  0  0
  3 19  1  0  0  0  0
  4 11  1  6  0  0  0
  4 15  1  0  0  0  0
  5 14  2  0  0  0  0
  6  1  2  0  0  0  0
  7  4  1  0  0  0  0
  8 12  1  6  0  0  0
  8 13  1  0  0  0  0
 12 16  1  0  0  0  0
 13  2  1  0  0  0  0
 13 18  1  1  0  0  0
 16  5  1  0  0  0  0
 17  6  1  0  0  0  0
 17 16  2  0  0  0  0
 18 10  1  0  0  0  0
 19 10  1  1  0  0  0
 19 20  1  0  0  0  0
 20 15  1  0  0  0  0
 22 21  1  1  0  0  0
 22 23  1  0  0  0  0
 23 21  1  1  0  0  0
 23  8  1  0  0  0  0
 24 27  1  6  0  0  0
 24 31  1  0  0  0  0
 24 28  1  0  0  0  0
 28 25  1  0  0  0  0
 29 26  1  1  0  0  0
 29 30  1  0  0  0  0
 30 25  1  6  0  0  0
 30 22  1  0  0  0  0
 31 29  1  0  0  0  0
M  END
>  <MODEL>
1

>  <REMARK>
 VINA RESULT:      -6.5      0.000      0.000
  Name = 
  2 active torsions:
  status: ('A' for Active; 'I' for Inactive)
    1  A    between atoms: C_5  and  C_30
    2  A    between atoms: C_10  and  C_16
                            x       y       z     vdW  Elec       q    Type
                         _______ _______ _______ _____ _____    ______ ____

>  <TORSDO>
F 2

$$$$
=
 OpenBabel11122413133D

 31 36  0  0  1  0  0  0  0  0999 V2000
  160.9700  207.5980  156.4690 C   0  0  0  0  0  0  0  0  0  0  0  0
  161.8410  209.4940  153.2980 C   0  0  2  0  0  3  0  0  0  0  0  0
  161.8020  208.4590  152.1330 C   0  0  1  0  0  3  0  0  0  0  0  0
  160.9710  206.3060  151.1670 C   0  0  1  0  0  3  0  0  0  0  0  0
  161.1060  209.0570  154.5370 C   0  0  0  0  0  0  0  0  0  0  0  0
  159.7040  208.1070  156.7690 C   0  0  0  0  0  3  0  0  0  0  0  0
  160.7500  207.3510  152.2600 C   0  0  0  0  0  2  0  0  0  0  0  0
  159.9020  210.9710  152.7060 C   0  0  2  0  0  3  0  0  0  0  0  0
  161.5190  206.6430  157.2570 F   0  0  0  0  0  0  0  0  0  0  0  0
  162.6060  210.2950  150.6440 C   0  0  0  0  0  2  0  0  0  0  0  0
  159.9930  205.3170  151.2620 O   0  0  0  0  0  1  0  0  0  0  0  0
  159.2170  210.7010  154.0520 C   0  0  0  0  0  2  0  0  0  0  0  0
  161.4310  210.9180  152.8760 C   0  0  2  0  0  3  0  0  0  0  0  0
  161.6670  208.0700  155.3550 C   0  0  0  0  0  3  0  0  0  0  0  0
  160.9140  206.9480  149.7790 C   0  0  0  0  0  2  0  0  0  0  0  0
  159.8220  209.5660  154.8350 C   0  0  0  0  0  0  0  0  0  0  0  0
  159.1360  209.0930  155.9560 C   0  0  0  0  0  3  0  0  0  0  0  0
  162.2080  211.3990  151.6310 C   0  0  0  0  0  2  0  0  0  0  0  0
  161.6630  209.1120  150.7530 C   0  0  1  0  0  3  0  0  0  0  0  0
  161.9330  208.0820  149.6650 C   0  0  0  0  0  2  0  0  0  0  0  0
  158.0640  212.1600  151.7800 O   0  0  0  0  0  0  0  0  0  0  0  0
  159.0220  212.2090  150.7520 C   0  0  2  0  0  3  0  0  0  0  0  0
  159.4050  212.3120  152.1800 C   0  0  2  0  0  3  0  0  0  0  0  0
  157.7590  213.1850  147.5150 C   0  0  1  0  0  3  0  0  0  0  0  0
  157.4800  213.8460  149.6690 C   0  0  0  0  0  2  0  0  0  0  0  0
  161.1910  213.3770  149.0760 N   0  0  0  0  0  1  0  0  0  0  0  0
  157.1790  212.3600  146.3850 C   0  0  0  0  0  1  0  0  0  0  0  0
  157.0590  212.9050  148.7060 O   0  0  0  0  0  0  0  0  0  0  0  0
  159.7990  213.7010  148.8170 C   0  0  2  0  0  3  0  0  0  0  0  0
  158.9330  213.5800  150.0800 C   0  0  2  0  0  3  0  0  0  0  0  0
  159.2420  212.8510  147.6790 C   0  0  0  0  0  2  0  0  0  0  0  0
  1  6  1  0  0  0  0
  1  9  1  0  0  0  0
  2  5  1  1  0  0  0
  3  7  1  1  0  0  0
  3  2  1  0  0  0  0
  4 11  1  6  0  0  0
  4  7  1  0  0  0  0
  5 16  2  0  0  0  0
  5 14  1  0  0  0  0
  8 13  1  0  0  0  0
  8 12  1  1  0  0  0
 10 19  1  0  0  0  0
 10 18  1  0  0  0  0
 12 16  1  0  0  0  0
 13 18  1  6  0  0  0
 13  2  1  0  0  0  0
 14  1  2  0  0  0  0
 15  4  1  0  0  0  0
 16 17  1  0  0  0  0
 17  6  2  0  0  0  0
 19 20  1  6  0  0  0
 19  3  1  0  0  0  0
 20 15  1  0  0  0  0
 22 21  1  1  0  0  0
 22 23  1  0  0  0  0
 23 21  1  1  0  0  0
 23  8  1  0  0  0  0
 24 27  1  6  0  0  0
 24 31  1  0  0  0  0
 24 28  1  0  0  0  0
 28 25  1  0  0  0  0
 29 26  1  1  0  0  0
 29 30  1  0  0  0  0
 30 25  1  6  0  0  0
 30 22  1  0  0  0  0
 31 29  1  0  0  0  0
M  END
>  <MODEL>
2

>  <REMARK>
 VINA RESULT:      -3.8      2.210      4.270
  Name = 
  2 active torsions:
  status: ('A' for Active; 'I' for Inactive)
    1  A    between atoms: C_5  and  C_30
    2  A    between atoms: C_10  and  C_16
                            x       y       z     vdW  Elec       q    Type
                         _______ _______ _______ _____ _____    ______ ____

>  <TORSDO>
F 2

$$$$
