=
 OpenBabel11122412313D

 30 35  0  0  1  0  0  0  0  0999 V2000
  160.4890  210.3120  152.8340 C   0  0  1  0  0  3  0  0  0  0  0  0
  159.7780  212.6230  152.0090 C   0  0  0  0  0  0  0  0  0  0  0  0
  162.2500  209.5930  149.0000 N   0  0  0  0  0  2  0  0  0  0  0  0
  161.3790  209.0830  152.5490 C   0  0  1  0  0  3  0  0  0  0  0  0
  160.7220  210.7740  154.2030 N   0  0  0  0  0  2  0  0  0  0  0  0
  162.1980  208.3980  155.3520 O   0  0  0  0  0  1  0  0  0  0  0  0
  160.6720  206.1290  151.7650 C   0  0  1  0  0  3  0  0  0  0  0  0
  160.8690  208.3760  154.9230 C   0  0  1  0  0  3  0  0  0  0  0  0
  161.6810  206.2770  150.6550 C   0  0  1  0  0  3  0  0  0  0  0  0
  162.5150  208.2020  149.1330 C   0  0  0  0  0  0  0  0  0  0  0  0
  160.2360  209.7600  155.1590 C   0  0  2  0  0  3  0  0  0  0  0  0
  160.7860  207.9750  153.4400 C   0  0  2  0  0  3  0  0  0  0  0  0
  159.7280  213.6060  151.0160 C   0  0  0  0  0  3  0  0  0  0  0  0
  160.9790  205.6510  149.4710 C   0  0  0  0  0  2  0  0  0  0  0  0
  160.1360  204.7310  151.5930 C   0  0  0  0  0  2  0  0  0  0  0  0
  159.0810  212.8330  153.1940 O   0  0  0  0  0  1  0  0  0  0  0  0
  161.9720  210.0160  150.3600 C   0  0  2  0  0  3  0  0  0  0  0  0
  160.3900  213.4180  149.8010 C   0  0  0  0  0  3  0  0  0  0  0  0
  160.5160  211.4400  151.8010 C   0  0  0  0  0  0  0  0  0  0  0  0
  161.3590  208.8140  151.0450 C   0  0  1  0  0  3  0  0  0  0  0  0
  162.9900  207.5080  148.1960 O   0  0  0  0  0  0  0  0  0  0  0  0
  162.2500  207.6990  150.5150 C   0  0  1  0  0  3  0  0  0  0  0  0
  160.1590  204.5120  150.0800 C   0  0  0  0  0  2  0  0  0  0  0  0
  162.6300  206.1950  153.4140 C   0  0  0  0  0  1  0  0  0  0  0  0
  161.0960  212.2390  149.5660 C   0  0  0  0  0  3  0  0  0  0  0  0
  161.1330  211.2380  150.5420 C   0  0  0  0  0  0  0  0  0  0  0  0
  161.1570  206.5080  153.1640 C   0  0  2  0  0  3  0  0  0  0  0  0
  158.7120  209.6750  155.1660 C   0  0  0  0  0  2  0  0  0  0  0  0
  156.8900  211.2180  155.2150 O   0  0  0  0  0  1  0  0  0  0  0  0
  158.1000  210.8960  155.8310 C   0  0  0  0  0  2  0  0  0  0  0  0
  1 19  1  6  0  0  0
  1  5  1  0  0  0  0
  2 16  1  0  0  0  0
  3 10  1  0  0  0  0
  3 17  1  0  0  0  0
  4  1  1  0  0  0  0
  4 12  1  0  0  0  0
  5 11  1  0  0  0  0
  7 27  1  0  0  0  0
  8 11  1  0  0  0  0
  8  6  1  0  0  0  0
  9  7  1  0  0  0  0
 10 22  1  0  0  0  0
 11 28  1  0  0  0  0
 12  8  1  0  0  0  0
 13  2  2  0  0  0  0
 14 23  1  0  0  0  0
 14  9  1  0  0  0  0
 15  7  1  0  0  0  0
 17 26  1  0  0  0  0
 17 20  1  0  0  0  0
 18 13  1  0  0  0  0
 19  2  1  0  0  0  0
 20  4  1  0  0  0  0
 21 10  2  0  0  0  0
 22  9  1  0  0  0  0
 22 20  1  0  0  0  0
 23 15  1  0  0  0  0
 25 18  2  0  0  0  0
 25 26  1  0  0  0  0
 26 19  2  0  0  0  0
 27 24  1  0  0  0  0
 27 12  1  0  0  0  0
 28 30  1  0  0  0  0
 29 30  1  0  0  0  0
M  END
>  <MODEL>
1

>  <REMARK>
 VINA RESULT:      -5.4      0.000      0.000
  Name = 
  2 active torsions:
  status: ('A' for Active; 'I' for Inactive)
    1  A    between atoms: C_11  and  C_28
    2  A    between atoms: C_28  and  C_30
                            x       y       z     vdW  Elec       q    Type
                         _______ _______ _______ _____ _____    ______ ____

>  <TORSDO>
F 2

$$$$
=
 OpenBabel11122412313D

 30 35  0  0  1  0  0  0  0  0999 V2000
  158.2160  212.6250  153.5240 C   0  0  1  0  0  3  0  0  0  0  0  0
  156.6710  213.9370  151.9700 C   0  0  0  0  0  0  0  0  0  0  0  0
  160.8070  211.9180  150.1910 N   0  0  0  0  0  2  0  0  0  0  0  0
  159.6180  211.9970  153.6830 C   0  0  1  0  0  3  0  0  0  0  0  0
  157.9350  213.4850  154.6750 N   0  0  0  0  0  2  0  0  0  0  0  0
  160.1080  212.5960  156.5820 O   0  0  0  0  0  1  0  0  0  0  0  0
  160.5570  209.0100  153.8820 C   0  0  1  0  0  3  0  0  0  0  0  0
  159.0580  211.7870  156.1400 C   0  0  1  0  0  3  0  0  0  0  0  0
  161.5690  209.3520  152.8170 C   0  0  1  0  0  3  0  0  0  0  0  0
  161.6670  210.9490  150.7790 C   0  0  0  0  0  0  0  0  0  0  0  0
  157.8140  212.6610  155.8930 C   0  0  2  0  0  3  0  0  0  0  0  0
  159.4610  211.0240  154.8680 C   0  0  2  0  0  3  0  0  0  0  0  0
  156.3530  214.4530  150.7090 C   0  0  0  0  0  3  0  0  0  0  0  0
  161.4880  208.1680  151.8800 C   0  0  0  0  0  2  0  0  0  0  0  0
  160.7910  207.5480  154.1580 C   0  0  0  0  0  2  0  0  0  0  0  0
  155.7440  214.0670  152.9980 O   0  0  0  0  0  1  0  0  0  0  0  0
  160.1060  212.4830  151.3300 C   0  0  2  0  0  3  0  0  0  0  0  0
  157.2450  214.3140  149.6440 C   0  0  0  0  0  3  0  0  0  0  0  0
  157.9040  213.2890  152.1820 C   0  0  0  0  0  0  0  0  0  0  0  0
  160.0170  211.3680  152.3490 C   0  0  1  0  0  3  0  0  0  0  0  0
  162.5840  210.3750  150.1340 O   0  0  0  0  0  0  0  0  0  0  0  0
  161.4120  210.7690  152.2400 C   0  0  1  0  0  3  0  0  0  0  0  0
  161.2050  206.9790  152.8000 C   0  0  0  0  0  2  0  0  0  0  0  0
  161.8940  210.4990  155.4810 C   0  0  0  0  0  1  0  0  0  0  0  0
  158.4540  213.6470  149.8280 C   0  0  0  0  0  3  0  0  0  0  0  0
  158.7730  213.1040  151.0780 C   0  0  0  0  0  0  0  0  0  0  0  0
  160.5270  209.9390  155.0960 C   0  0  2  0  0  3  0  0  0  0  0  0
  156.5420  211.8160  155.8780 C   0  0  0  0  0  2  0  0  0  0  0  0
  154.7640  211.0230  157.2610 O   0  0  0  0  0  1  0  0  0  0  0  0
  155.7440  212.0110  157.1560 C   0  0  0  0  0  2  0  0  0  0  0  0
  1 19  1  6  0  0  0
  1  4  1  0  0  0  0
  1  5  1  0  0  0  0
  2 19  1  0  0  0  0
  2 16  1  0  0  0  0
  3 10  1  0  0  0  0
  3 17  1  0  0  0  0
  4 12  1  0  0  0  0
  5 11  1  0  0  0  0
  7 15  1  0  0  0  0
  7 27  1  0  0  0  0
  8  6  1  0  0  0  0
  9  7  1  0  0  0  0
 10 22  1  0  0  0  0
 11  8  1  0  0  0  0
 12 27  1  0  0  0  0
 12  8  1  0  0  0  0
 13  2  2  0  0  0  0
 14 23  1  0  0  0  0
 14  9  1  0  0  0  0
 17 20  1  0  0  0  0
 18 25  2  0  0  0  0
 18 13  1  0  0  0  0
 20  4  1  0  0  0  0
 21 10  2  0  0  0  0
 22 20  1  0  0  0  0
 22  9  1  0  0  0  0
 23 15  1  0  0  0  0
 25 26  1  0  0  0  0
 26 17  1  0  0  0  0
 26 19  2  0  0  0  0
 27 24  1  0  0  0  0
 28 11  1  0  0  0  0
 28 30  1  0  0  0  0
 30 29  1  0  0  0  0
M  END
>  <MODEL>
2

>  <REMARK>
 VINA RESULT:      -5.3      2.291      3.576
  Name = 
  2 active torsions:
  status: ('A' for Active; 'I' for Inactive)
    1  A    between atoms: C_11  and  C_28
    2  A    between atoms: C_28  and  C_30
                            x       y       z     vdW  Elec       q    Type
                         _______ _______ _______ _____ _____    ______ ____

>  <TORSDO>
F 2

$$$$
=
 OpenBabel11122412313D

 30 35  0  0  1  0  0  0  0  0999 V2000
  161.3580  205.8880  149.7530 C   0  0  1  0  0  3  0  0  0  0  0  0
  160.7800  203.4000  149.6860 C   0  0  0  0  0  0  0  0  0  0  0  0
  161.4580  205.6500  154.0250 N   0  0  0  0  0  2  0  0  0  0  0  0
  161.8720  207.0460  150.6350 C   0  0  1  0  0  3  0  0  0  0  0  0
  162.1460  205.8280  148.5200 N   0  0  0  0  0  2  0  0  0  0  0  0
  163.5340  208.5130  148.6140 O   0  0  0  0  0  1  0  0  0  0  0  0
  160.4590  209.6280  151.7210 C   0  0  1  0  0  3  0  0  0  0  0  0
  162.1550  208.3360  148.4780 C   0  0  1  0  0  3  0  0  0  0  0  0
  161.0040  209.2490  153.0740 C   0  0  1  0  0  3  0  0  0  0  0  0
  161.5250  207.0380  154.3240 C   0  0  0  0  0  0  0  0  0  0  0  0
  161.8850  207.0310  147.7060 C   0  0  2  0  0  3  0  0  0  0  0  0
  161.4730  208.3150  149.8560 C   0  0  2  0  0  3  0  0  0  0  0  0
  160.5300  202.1840  150.3300 C   0  0  0  0  0  3  0  0  0  0  0  0
  159.8270  209.4860  153.9940 C   0  0  0  0  0  2  0  0  0  0  0  0
  159.6800  210.8920  151.9780 C   0  0  0  0  0  2  0  0  0  0  0  0
  160.6050  203.4760  148.3080 O   0  0  0  0  0  1  0  0  0  0  0  0
  161.7680  205.5940  152.6070 C   0  0  2  0  0  3  0  0  0  0  0  0
  160.6640  202.0770  151.7150 C   0  0  0  0  0  3  0  0  0  0  0  0
  161.1880  204.5260  150.4290 C   0  0  0  0  0  0  0  0  0  0  0  0
  161.2610  206.8970  152.0270 C   0  0  1  0  0  3  0  0  0  0  0  0
  161.5060  207.4810  155.5030 O   0  0  0  0  0  0  0  0  0  0  0  0
  161.7050  207.8790  153.1020 C   0  0  1  0  0  3  0  0  0  0  0  0
  159.1130  210.6940  153.3840 C   0  0  0  0  0  2  0  0  0  0  0  0
  162.8670  210.1320  151.0080 C   0  0  0  0  0  1  0  0  0  0  0  0
  161.0350  203.1890  152.4690 C   0  0  0  0  0  3  0  0  0  0  0  0
  161.2630  204.4180  151.8400 C   0  0  0  0  0  0  0  0  0  0  0  0
  161.4760  209.6720  150.5800 C   0  0  2  0  0  3  0  0  0  0  0  0
  160.4750  207.0210  147.1190 C   0  0  0  0  0  2  0  0  0  0  0  0
  161.7380  205.9500  145.3980 O   0  0  0  0  0  1  0  0  0  0  0  0
  160.4400  206.2690  145.7990 C   0  0  0  0  0  2  0  0  0  0  0  0
  1  5  1  6  0  0  0
  1 19  1  0  0  0  0
  1  4  1  0  0  0  0
  2 13  2  0  0  0  0
  2 19  1  0  0  0  0
  3 10  1  0  0  0  0
  4 20  1  0  0  0  0
  7 15  1  0  0  0  0
  7  9  1  0  0  0  0
  8  6  1  0  0  0  0
  8 12  1  0  0  0  0
  9 22  1  0  0  0  0
  9 14  1  0  0  0  0
 10 21  2  0  0  0  0
 11  8  1  0  0  0  0
 11  5  1  0  0  0  0
 12 27  1  0  0  0  0
 12  4  1  0  0  0  0
 13 18  1  0  0  0  0
 15 23  1  0  0  0  0
 16  2  1  0  0  0  0
 17  3  1  0  0  0  0
 18 25  2  0  0  0  0
 19 26  2  0  0  0  0
 20 17  1  0  0  0  0
 20 22  1  0  0  0  0
 22 10  1  0  0  0  0
 23 14  1  0  0  0  0
 26 25  1  0  0  0  0
 26 17  1  0  0  0  0
 27 24  1  0  0  0  0
 27  7  1  0  0  0  0
 28 11  1  0  0  0  0
 29 30  1  0  0  0  0
 30 28  1  0  0  0  0
M  END
>  <MODEL>
3

>  <REMARK>
 VINA RESULT:      -5.2      2.454      7.365
  Name = 
  2 active torsions:
  status: ('A' for Active; 'I' for Inactive)
    1  A    between atoms: C_11  and  C_28
    2  A    between atoms: C_28  and  C_30
                            x       y       z     vdW  Elec       q    Type
                         _______ _______ _______ _____ _____    ______ ____

>  <TORSDO>
F 2

$$$$
=
 OpenBabel11122412313D

 30 35  0  0  1  0  0  0  0  0999 V2000
  161.1950  210.1930  151.1670 C   0  0  1  0  0  3  0  0  0  0  0  0
  161.3090  208.2200  152.7870 C   0  0  0  0  0  0  0  0  0  0  0  0
  159.1150  212.4170  154.1750 N   0  0  0  0  0  2  0  0  0  0  0  0
  160.9030  211.7030  151.0280 C   0  0  1  0  0  3  0  0  0  0  0  0
  162.4980  209.8930  150.5710 N   0  0  0  0  0  2  0  0  0  0  0  0
  162.9950  212.4320  149.0050 O   0  0  0  0  0  1  0  0  0  0  0  0
  158.5970  213.2570  149.5750 C   0  0  1  0  0  3  0  0  0  0  0  0
  161.9670  211.5230  148.7410 C   0  0  1  0  0  3  0  0  0  0  0  0
  158.4290  214.0280  150.8590 C   0  0  1  0  0  3  0  0  0  0  0  0
  158.7040  213.5270  153.3880 C   0  0  0  0  0  0  0  0  0  0  0  0
  162.4360  210.1040  149.1120 C   0  0  2  0  0  3  0  0  0  0  0  0
  160.6940  211.9060  149.5140 C   0  0  2  0  0  3  0  0  0  0  0  0
  161.0410  207.6420  154.0320 C   0  0  0  0  0  3  0  0  0  0  0  0
  156.9280  214.0720  151.0360 C   0  0  0  0  0  2  0  0  0  0  0  0
  157.5380  213.8210  148.6640 C   0  0  0  0  0  2  0  0  0  0  0  0
  161.8630  207.4290  151.7870 O   0  0  0  0  0  1  0  0  0  0  0  0
  160.1180  211.7690  153.3500 C   0  0  2  0  0  3  0  0  0  0  0  0
  160.4560  208.3960  155.0510 C   0  0  0  0  0  3  0  0  0  0  0  0
  161.0090  209.5780  152.5560 C   0  0  0  0  0  0  0  0  0  0  0  0
  159.7100  212.0460  151.9190 C   0  0  1  0  0  3  0  0  0  0  0  0
  157.9780  214.4510  153.8420 O   0  0  0  0  0  0  0  0  0  0  0  0
  159.2990  213.5080  152.0170 C   0  0  1  0  0  3  0  0  0  0  0  0
  156.3850  214.1630  149.6090 C   0  0  0  0  0  2  0  0  0  0  0  0
  160.8410  214.4530  149.2710 C   0  0  0  0  0  1  0  0  0  0  0  0
  160.1230  209.7310  154.8280 C   0  0  0  0  0  3  0  0  0  0  0  0
  160.3630  210.3150  153.5790 C   0  0  0  0  0  0  0  0  0  0  0  0
  160.0180  213.1940  149.0150 C   0  0  2  0  0  3  0  0  0  0  0  0
  161.5810  209.0430  148.4230 C   0  0  0  0  0  2  0  0  0  0  0  0
  161.6090  206.8380  147.5090 O   0  0  0  0  0  1  0  0  0  0  0  0
  162.3360  207.7310  148.2970 C   0  0  0  0  0  2  0  0  0  0  0  0
  1  5  1  1  0  0  0
  1 19  1  0  0  0  0
  2 13  1  0  0  0  0
  4  1  1  0  0  0  0
  4 20  1  0  0  0  0
  7  9  1  0  0  0  0
  8  6  1  0  0  0  0
  8 11  1  0  0  0  0
  8 12  1  0  0  0  0
  9 14  1  0  0  0  0
  9 22  1  0  0  0  0
 10 21  2  0  0  0  0
 10  3  1  0  0  0  0
 11  5  1  0  0  0  0
 12  4  1  0  0  0  0
 13 18  2  0  0  0  0
 15  7  1  0  0  0  0
 15 23  1  0  0  0  0
 16  2  1  0  0  0  0
 17 26  1  0  0  0  0
 17  3  1  0  0  0  0
 19  2  2  0  0  0  0
 19 26  1  0  0  0  0
 20 22  1  0  0  0  0
 20 17  1  0  0  0  0
 22 10  1  0  0  0  0
 23 14  1  0  0  0  0
 25 18  1  0  0  0  0
 26 25  2  0  0  0  0
 27 24  1  0  0  0  0
 27 12  1  0  0  0  0
 27  7  1  0  0  0  0
 28 11  1  0  0  0  0
 29 30  1  0  0  0  0
 30 28  1  0  0  0  0
M  END
>  <MODEL>
4

>  <REMARK>
 VINA RESULT:      -4.6      2.061      7.121
  Name = 
  2 active torsions:
  status: ('A' for Active; 'I' for Inactive)
    1  A    between atoms: C_11  and  C_28
    2  A    between atoms: C_28  and  C_30
                            x       y       z     vdW  Elec       q    Type
                         _______ _______ _______ _____ _____    ______ ____

>  <TORSDO>
F 2

$$$$
=
 OpenBabel11122412313D

 30 35  0  0  1  0  0  0  0  0999 V2000
  161.5380  207.8250  150.9730 C   0  0  1  0  0  3  0  0  0  0  0  0
  161.2040  205.6230  149.7210 C   0  0  0  0  0  0  0  0  0  0  0  0
  160.5760  205.7890  154.6120 N   0  0  0  0  0  2  0  0  0  0  0  0
  161.7160  208.4800  152.3600 C   0  0  1  0  0  3  0  0  0  0  0  0
  162.6150  208.2690  150.0840 N   0  0  0  0  0  2  0  0  0  0  0  0
  163.7070  210.6100  151.6570 O   0  0  0  0  0  1  0  0  0  0  0  0
  159.8660  210.4010  154.0120 C   0  0  1  0  0  3  0  0  0  0  0  0
  162.4270  210.5550  151.1010 C   0  0  1  0  0  3  0  0  0  0  0  0
  160.0810  209.4640  155.1730 C   0  0  1  0  0  3  0  0  0  0  0  0
  160.4490  206.9150  155.4710 C   0  0  0  0  0  0  0  0  0  0  0  0
  162.4690  209.7120  149.8120 C   0  0  2  0  0  3  0  0  0  0  0  0
  161.4230  209.9730  152.1100 C   0  0  2  0  0  3  0  0  0  0  0  0
  160.9010  204.2580  149.7050 C   0  0  0  0  0  3  0  0  0  0  0  0
  158.6940  209.3270  155.7610 C   0  0  0  0  0  2  0  0  0  0  0  0
  158.9450  211.4610  154.5590 C   0  0  0  0  0  2  0  0  0  0  0  0
  161.3780  206.2840  148.5100 O   0  0  0  0  0  1  0  0  0  0  0  0
  161.2370  206.3310  153.4390 C   0  0  2  0  0  3  0  0  0  0  0  0
  160.6890  203.5670  150.8990 C   0  0  0  0  0  3  0  0  0  0  0  0
  161.3170  206.3120  150.9450 C   0  0  0  0  0  0  0  0  0  0  0  0
  160.7880  207.7730  153.3470 C   0  0  1  0  0  3  0  0  0  0  0  0
  160.0970  206.8140  156.6760 O   0  0  0  0  0  0  0  0  0  0  0  0
  160.8620  208.1900  154.8090 C   0  0  1  0  0  3  0  0  0  0  0  0
  158.0600  210.7030  155.5490 C   0  0  0  0  0  2  0  0  0  0  0  0
  162.3260  211.0780  154.2390 C   0  0  0  0  0  1  0  0  0  0  0  0
  160.7640  204.2400  152.1180 C   0  0  0  0  0  3  0  0  0  0  0  0
  161.0410  205.6110  152.1460 C   0  0  0  0  0  0  0  0  0  0  0  0
  161.1310  210.8920  153.3080 C   0  0  2  0  0  3  0  0  0  0  0  0
  161.2600  210.0000  148.9250 C   0  0  0  0  0  2  0  0  0  0  0  0
  162.7060  211.6480  147.9800 O   0  0  0  0  0  1  0  0  0  0  0  0
  161.3720  211.3710  148.2800 C   0  0  0  0  0  2  0  0  0  0  0  0
  1  5  1  6  0  0  0
  1  4  1  0  0  0  0
  2 19  1  0  0  0  0
  3 10  1  0  0  0  0
  4 20  1  0  0  0  0
  7 15  1  0  0  0  0
  7  9  1  0  0  0  0
  8  6  1  0  0  0  0
  8 12  1  0  0  0  0
  9 14  1  0  0  0  0
 10 21  2  0  0  0  0
 11  5  1  0  0  0  0
 11  8  1  0  0  0  0
 12  4  1  0  0  0  0
 12 27  1  0  0  0  0
 13  2  2  0  0  0  0
 13 18  1  0  0  0  0
 15 23  1  0  0  0  0
 16  2  1  0  0  0  0
 17  3  1  0  0  0  0
 18 25  2  0  0  0  0
 19  1  1  0  0  0  0
 19 26  2  0  0  0  0
 20 17  1  0  0  0  0
 20 22  1  0  0  0  0
 22  9  1  0  0  0  0
 22 10  1  0  0  0  0
 23 14  1  0  0  0  0
 25 26  1  0  0  0  0
 26 17  1  0  0  0  0
 27  7  1  0  0  0  0
 27 24  1  0  0  0  0
 28 11  1  0  0  0  0
 29 30  1  0  0  0  0
 30 28  1  0  0  0  0
M  END
>  <MODEL>
5

>  <REMARK>
 VINA RESULT:      -4.6      2.236      6.537
  Name = 
  2 active torsions:
  status: ('A' for Active; 'I' for Inactive)
    1  A    between atoms: C_11  and  C_28
    2  A    between atoms: C_28  and  C_30
                            x       y       z     vdW  Elec       q    Type
                         _______ _______ _______ _____ _____    ______ ____

>  <TORSDO>
F 2

$$$$
=
 OpenBabel11122412313D

 30 35  0  0  1  0  0  0  0  0999 V2000
  160.8370  210.8790  150.7860 C   0  0  1  0  0  3  0  0  0  0  0  0
  161.8880  208.7110  149.9340 C   0  0  0  0  0  0  0  0  0  0  0  0
  160.5480  209.0990  154.6680 N   0  0  0  0  0  2  0  0  0  0  0  0
  160.4400  211.6870  152.0400 C   0  0  1  0  0  3  0  0  0  0  0  0
  161.6430  211.7220  149.9000 N   0  0  0  0  0  2  0  0  0  0  0  0
  161.1100  214.4520  151.0880 O   0  0  0  0  0  1  0  0  0  0  0  0
  157.6390  212.4940  153.2020 C   0  0  1  0  0  3  0  0  0  0  0  0
  160.1440  213.6500  150.4730 C   0  0  1  0  0  3  0  0  0  0  0  0
  158.1360  211.9660  154.5240 C   0  0  1  0  0  3  0  0  0  0  0  0
  159.7280  210.0740  155.3000 C   0  0  0  0  0  0  0  0  0  0  0  0
  160.8100  212.8150  149.3630 C   0  0  2  0  0  3  0  0  0  0  0  0
  159.4540  212.7450  151.5080 C   0  0  2  0  0  3  0  0  0  0  0  0
  162.3470  207.4080  150.1470 C   0  0  0  0  0  3  0  0  0  0  0  0
  156.9540  211.1770  155.0410 C   0  0  0  0  0  2  0  0  0  0  0  0
  156.2320  212.9480  153.4910 C   0  0  0  0  0  2  0  0  0  0  0  0
  161.8690  209.2110  148.6370 O   0  0  0  0  0  1  0  0  0  0  0  0
  160.9960  209.7660  153.4580 C   0  0  2  0  0  3  0  0  0  0  0  0
  162.3500  206.8600  151.4310 C   0  0  0  0  0  3  0  0  0  0  0  0
  161.4430  209.4940  151.0190 C   0  0  0  0  0  0  0  0  0  0  0  0
  159.8810  210.7170  153.0800 C   0  0  1  0  0  3  0  0  0  0  0  0
  159.3060  209.9450  156.4790 O   0  0  0  0  0  0  0  0  0  0  0  0
  159.5100  211.2790  154.4450 C   0  0  1  0  0  3  0  0  0  0  0  0
  155.7350  211.9580  154.5460 C   0  0  0  0  0  2  0  0  0  0  0  0
  159.3210  214.4090  153.4530 C   0  0  0  0  0  1  0  0  0  0  0  0
  161.8830  207.6080  152.5100 C   0  0  0  0  0  3  0  0  0  0  0  0
  161.3980  208.9050  152.3070 C   0  0  0  0  0  0  0  0  0  0  0  0
  158.5520  213.4990  152.5000 C   0  0  2  0  0  3  0  0  0  0  0  0
  159.7740  212.2990  148.3670 C   0  0  0  0  0  2  0  0  0  0  0  0
  161.3640  213.1580  146.8060 O   0  0  0  0  0  1  0  0  0  0  0  0
  160.3630  212.1990  146.9700 C   0  0  0  0  0  2  0  0  0  0  0  0
  1  5  1  1  0  0  0
  1 19  1  0  0  0  0
  1  4  1  0  0  0  0
  2 13  2  0  0  0  0
  2 19  1  0  0  0  0
  3 10  1  0  0  0  0
  4 20  1  0  0  0  0
  7 15  1  0  0  0  0
  7  9  1  0  0  0  0
  8  6  1  0  0  0  0
  8 12  1  0  0  0  0
  9 14  1  0  0  0  0
 10 21  2  0  0  0  0
 11  5  1  0  0  0  0
 11  8  1  0  0  0  0
 12  4  1  0  0  0  0
 12 27  1  0  0  0  0
 13 18  1  0  0  0  0
 15 23  1  0  0  0  0
 16  2  1  0  0  0  0
 17  3  1  0  0  0  0
 18 25  2  0  0  0  0
 19 26  2  0  0  0  0
 20 17  1  0  0  0  0
 20 22  1  0  0  0  0
 22  9  1  0  0  0  0
 22 10  1  0  0  0  0
 23 14  1  0  0  0  0
 26 25  1  0  0  0  0
 26 17  1  0  0  0  0
 27  7  1  0  0  0  0
 27 24  1  0  0  0  0
 28 11  1  0  0  0  0
 29 30  1  0  0  0  0
 30 28  1  0  0  0  0
M  END
>  <MODEL>
6

>  <REMARK>
 VINA RESULT:      -3.5      2.108      6.789
  Name = 
  2 active torsions:
  status: ('A' for Active; 'I' for Inactive)
    1  A    between atoms: C_11  and  C_28
    2  A    between atoms: C_28  and  C_30
                            x       y       z     vdW  Elec       q    Type
                         _______ _______ _______ _____ _____    ______ ____

>  <TORSDO>
F 2

$$$$
=
 OpenBabel11122412313D

 30 35  0  0  1  0  0  0  0  0999 V2000
  159.2130  211.4510  153.9830 C   0  0  1  0  0  3  0  0  0  0  0  0
  156.9030  212.4950  154.3090 C   0  0  0  0  0  0  0  0  0  0  0  0
  159.5120  213.5190  150.2480 N   0  0  0  0  0  2  0  0  0  0  0  0
  160.5230  211.5020  153.1680 C   0  0  1  0  0  3  0  0  0  0  0  0
  159.5280  211.4860  155.4130 N   0  0  0  0  0  2  0  0  0  0  0  0
  162.4920  210.8900  155.3460 O   0  0  0  0  0  1  0  0  0  0  0  0
  161.7840  209.4920  151.1160 C   0  0  1  0  0  3  0  0  0  0  0  0
  161.4930  209.9960  154.9520 C   0  0  1  0  0  3  0  0  0  0  0  0
  161.9560  210.6760  150.1980 C   0  0  1  0  0  3  0  0  0  0  0  0
  160.6700  212.8770  149.7290 C   0  0  0  0  0  0  0  0  0  0  0  0
  160.2280  210.2450  155.7960 C   0  0  2  0  0  3  0  0  0  0  0  0
  161.1940  210.1440  153.4510 C   0  0  2  0  0  3  0  0  0  0  0  0
  155.8620  213.3220  153.8770 C   0  0  0  0  0  3  0  0  0  0  0  0
  161.5100  210.1350  148.8580 C   0  0  0  0  0  2  0  0  0  0  0  0
  162.3200  208.3290  150.3220 C   0  0  0  0  0  2  0  0  0  0  0  0
  156.7190  211.7320  155.4570 O   0  0  0  0  0  1  0  0  0  0  0  0
  159.5180  213.1460  151.6510 C   0  0  2  0  0  3  0  0  0  0  0  0
  155.9980  214.0790  152.7120 C   0  0  0  0  0  3  0  0  0  0  0  0
  158.1100  212.4330  153.5830 C   0  0  0  0  0  0  0  0  0  0  0  0
  160.1690  211.7810  151.7080 C   0  0  1  0  0  3  0  0  0  0  0  0
  161.1220  213.1160  148.5790 O   0  0  0  0  0  0  0  0  0  0  0  0
  161.3170  211.9720  150.7260 C   0  0  1  0  0  3  0  0  0  0  0  0
  161.9560  208.6720  148.8770 C   0  0  0  0  0  2  0  0  0  0  0  0
  163.5870  210.5240  152.6140 C   0  0  0  0  0  1  0  0  0  0  0  0
  157.1710  214.0040  151.9630 C   0  0  0  0  0  3  0  0  0  0  0  0
  158.2110  213.1610  152.3720 C   0  0  0  0  0  0  0  0  0  0  0  0
  162.3300  209.6620  152.5340 C   0  0  2  0  0  3  0  0  0  0  0  0
  159.2960  209.0360  155.7610 C   0  0  0  0  0  2  0  0  0  0  0  0
  160.0840  206.9010  155.0390 O   0  0  0  0  0  1  0  0  0  0  0  0
  160.0390  207.7650  156.1340 C   0  0  0  0  0  2  0  0  0  0  0  0
  1 19  1  6  0  0  0
  1  5  1  0  0  0  0
  2 16  1  0  0  0  0
  3 17  1  0  0  0  0
  4 12  1  0  0  0  0
  4  1  1  0  0  0  0
  5 11  1  0  0  0  0
  7 27  1  0  0  0  0
  8  6  1  0  0  0  0
  8 11  1  0  0  0  0
  9 22  1  0  0  0  0
  9  7  1  0  0  0  0
 10  3  1  0  0  0  0
 10 22  1  0  0  0  0
 12  8  1  0  0  0  0
 13  2  1  0  0  0  0
 14 23  1  0  0  0  0
 14  9  1  0  0  0  0
 15  7  1  0  0  0  0
 17 20  1  0  0  0  0
 17 26  1  0  0  0  0
 18 13  2  0  0  0  0
 19  2  2  0  0  0  0
 20  4  1  0  0  0  0
 21 10  2  0  0  0  0
 22 20  1  0  0  0  0
 23 15  1  0  0  0  0
 25 26  2  0  0  0  0
 25 18  1  0  0  0  0
 26 19  1  0  0  0  0
 27 24  1  0  0  0  0
 27 12  1  0  0  0  0
 28 11  1  0  0  0  0
 28 30  1  0  0  0  0
 29 30  1  0  0  0  0
M  END
>  <MODEL>
7

>  <REMARK>
 VINA RESULT:      -3.4      2.517      3.911
  Name = 
  2 active torsions:
  status: ('A' for Active; 'I' for Inactive)
    1  A    between atoms: C_11  and  C_28
    2  A    between atoms: C_28  and  C_30
                            x       y       z     vdW  Elec       q    Type
                         _______ _______ _______ _____ _____    ______ ____

>  <TORSDO>
F 2

$$$$
=
 OpenBabel11122412313D

 30 35  0  0  1  0  0  0  0  0999 V2000
  160.8640  209.2890  153.1050 C   0  0  1  0  0  3  0  0  0  0  0  0
  160.8510  207.4440  154.8720 C   0  0  0  0  0  0  0  0  0  0  0  0
  159.4010  212.0050  156.0710 N   0  0  0  0  0  2  0  0  0  0  0  0
  160.7740  210.8110  152.8610 C   0  0  1  0  0  3  0  0  0  0  0  0
  162.0520  208.7590  152.4320 N   0  0  0  0  0  2  0  0  0  0  0  0
  162.7510  211.0780  150.6210 O   0  0  0  0  0  1  0  0  0  0  0  0
  158.5820  212.5760  151.4730 C   0  0  1  0  0  3  0  0  0  0  0  0
  161.5860  210.3130  150.5190 C   0  0  1  0  0  3  0  0  0  0  0  0
  158.6430  213.4540  152.6970 C   0  0  1  0  0  3  0  0  0  0  0  0
  159.0780  213.1040  155.2280 C   0  0  0  0  0  0  0  0  0  0  0  0
  161.8860  208.8700  150.9700 C   0  0  2  0  0  3  0  0  0  0  0  0
  160.4560  210.9320  151.3580 C   0  0  2  0  0  3  0  0  0  0  0  0
  160.6220  207.0020  156.1780 C   0  0  0  0  0  3  0  0  0  0  0  0
  157.1850  213.7300  152.9900 C   0  0  0  0  0  2  0  0  0  0  0  0
  157.5320  213.2220  150.6060 C   0  0  0  0  0  2  0  0  0  0  0  0
  161.1950  206.5100  153.9000 O   0  0  0  0  0  1  0  0  0  0  0  0
  160.2240  211.1600  155.2250 C   0  0  2  0  0  3  0  0  0  0  0  0
  160.2440  207.9060  157.1740 C   0  0  0  0  0  3  0  0  0  0  0  0
  160.7230  208.8100  154.5510 C   0  0  0  0  0  0  0  0  0  0  0  0
  159.7280  211.3880  153.8130 C   0  0  1  0  0  3  0  0  0  0  0  0
  158.5330  214.1540  155.6590 O   0  0  0  0  0  0  0  0  0  0  0  0
  159.5350  212.8980  153.8200 C   0  0  1  0  0  3  0  0  0  0  0  0
  156.5300  213.7960  151.6090 C   0  0  0  0  0  2  0  0  0  0  0  0
  160.9330  213.4060  150.8880 C   0  0  0  0  0  1  0  0  0  0  0  0
  160.0810  209.2550  156.8660 C   0  0  0  0  0  3  0  0  0  0  0  0
  160.2840  209.7060  155.5570 C   0  0  0  0  0  0  0  0  0  0  0  0
  159.9220  212.2650  150.8070 C   0  0  2  0  0  3  0  0  0  0  0  0
  160.8300  207.9000  150.4460 C   0  0  0  0  0  2  0  0  0  0  0  0
  160.4360  206.2410  148.7730 O   0  0  0  0  0  1  0  0  0  0  0  0
  161.2230  207.3500  149.0850 C   0  0  0  0  0  2  0  0  0  0  0  0
  1  5  1  1  0  0  0
  1 19  1  0  0  0  0
  2 13  1  0  0  0  0
  4  1  1  0  0  0  0
  4 20  1  0  0  0  0
  7  9  1  0  0  0  0
  8  6  1  0  0  0  0
  8 11  1  0  0  0  0
  8 12  1  0  0  0  0
  9 14  1  0  0  0  0
  9 22  1  0  0  0  0
 10 21  2  0  0  0  0
 10  3  1  0  0  0  0
 11  5  1  0  0  0  0
 12  4  1  0  0  0  0
 13 18  2  0  0  0  0
 15  7  1  0  0  0  0
 15 23  1  0  0  0  0
 16  2  1  0  0  0  0
 17 26  1  0  0  0  0
 17  3  1  0  0  0  0
 19  2  2  0  0  0  0
 19 26  1  0  0  0  0
 20 22  1  0  0  0  0
 20 17  1  0  0  0  0
 22 10  1  0  0  0  0
 23 14  1  0  0  0  0
 25 18  1  0  0  0  0
 26 25  2  0  0  0  0
 27 24  1  0  0  0  0
 27 12  1  0  0  0  0
 27  7  1  0  0  0  0
 28 11  1  0  0  0  0
 29 30  1  0  0  0  0
 30 28  1  0  0  0  0
M  END
>  <MODEL>
8

>  <REMARK>
 VINA RESULT:      -3.3      2.028      6.962
  Name = 
  2 active torsions:
  status: ('A' for Active; 'I' for Inactive)
    1  A    between atoms: C_11  and  C_28
    2  A    between atoms: C_28  and  C_30
                            x       y       z     vdW  Elec       q    Type
                         _______ _______ _______ _____ _____    ______ ____

>  <TORSDO>
F 2

$$$$
=
 OpenBabel11122412313D

 30 35  0  0  1  0  0  0  0  0999 V2000
  159.0480  210.3080  138.6000 C   0  0  1  0  0  3  0  0  0  0  0  0
  160.1180  208.3150  137.4100 C   0  0  0  0  0  0  0  0  0  0  0  0
  162.9690  211.6420  139.6820 N   0  0  0  0  0  2  0  0  0  0  0  0
  159.3060  211.6890  139.2390 C   0  0  1  0  0  3  0  0  0  0  0  0
  157.9600  210.4180  137.6260 N   0  0  0  0  0  2  0  0  0  0  0  0
  156.8120  213.1140  138.3740 O   0  0  0  0  0  1  0  0  0  0  0  0
  159.1400  212.6760  142.2130 C   0  0  1  0  0  3  0  0  0  0  0  0
  156.7950  211.9860  139.1990 C   0  0  1  0  0  3  0  0  0  0  0  0
  160.5090  213.2680  141.9980 C   0  0  1  0  0  3  0  0  0  0  0  0
  162.6100  212.6600  140.6070 C   0  0  0  0  0  0  0  0  0  0  0  0
  156.6970  210.7200  138.3260 C   0  0  2  0  0  3  0  0  0  0  0  0
  158.0470  211.9480  140.0910 C   0  0  2  0  0  3  0  0  0  0  0  0
  161.2440  207.5890  137.0110 C   0  0  0  0  0  3  0  0  0  0  0  0
  161.2450  212.8920  143.2650 C   0  0  0  0  0  2  0  0  0  0  0  0
  158.8150  213.0050  143.6470 C   0  0  0  0  0  2  0  0  0  0  0  0
  158.8570  207.7850  137.1610 O   0  0  0  0  0  1  0  0  0  0  0  0
  161.7230  211.3560  138.9940 C   0  0  2  0  0  3  0  0  0  0  0  0
  162.5270  208.0740  137.2720 C   0  0  0  0  0  3  0  0  0  0  0  0
  160.2680  209.5560  138.0620 C   0  0  0  0  0  0  0  0  0  0  0  0
  160.6280  211.6260  140.0030 C   0  0  1  0  0  3  0  0  0  0  0  0
  163.4640  213.3150  141.2610 O   0  0  0  0  0  0  0  0  0  0  0  0
  161.1380  212.9110  140.6410 C   0  0  1  0  0  3  0  0  0  0  0  0
  160.1710  212.9470  144.3530 C   0  0  0  0  0  2  0  0  0  0  0  0
  158.2340  214.4530  140.6060 C   0  0  0  0  0  1  0  0  0  0  0  0
  162.6930  209.2830  137.9450 C   0  0  0  0  0  3  0  0  0  0  0  0
  161.5750  210.0080  138.3710 C   0  0  0  0  0  0  0  0  0  0  0  0
  158.0830  213.0420  141.1710 C   0  0  2  0  0  3  0  0  0  0  0  0
  156.2030  209.5270  139.1410 C   0  0  0  0  0  2  0  0  0  0  0  0
  155.2210  207.4940  138.3620 O   0  0  0  0  0  1  0  0  0  0  0  0
  155.0080  208.8690  138.4730 C   0  0  0  0  0  2  0  0  0  0  0  0
  1  5  1  6  0  0  0
  1  4  1  0  0  0  0
  2 19  1  0  0  0  0
  3 10  1  0  0  0  0
  4 20  1  0  0  0  0
  4 12  1  0  0  0  0
  5 11  1  0  0  0  0
  6  8  1  0  0  0  0
  7 15  1  0  0  0  0
  8 12  1  0  0  0  0
  9  7  1  0  0  0  0
  9 14  1  0  0  0  0
 10 22  1  0  0  0  0
 10 21  2  0  0  0  0
 11 28  1  0  0  0  0
 11  8  1  0  0  0  0
 12 27  1  0  0  0  0
 13 18  1  0  0  0  0
 13  2  2  0  0  0  0
 14 23  1  0  0  0  0
 15 23  1  0  0  0  0
 16  2  1  0  0  0  0
 17  3  1  0  0  0  0
 17 20  1  0  0  0  0
 18 25  2  0  0  0  0
 19 26  2  0  0  0  0
 19  1  1  0  0  0  0
 20 22  1  0  0  0  0
 22  9  1  0  0  0  0
 24 27  1  0  0  0  0
 25 26  1  0  0  0  0
 26 17  1  0  0  0  0
 27  7  1  0  0  0  0
 29 30  1  0  0  0  0
 30 28  1  0  0  0  0
M  END
>  <MODEL>
9

>  <REMARK>
 VINA RESULT:      -2.7     10.447     13.890
  Name = 
  2 active torsions:
  status: ('A' for Active; 'I' for Inactive)
    1  A    between atoms: C_11  and  C_28
    2  A    between atoms: C_28  and  C_30
                            x       y       z     vdW  Elec       q    Type
                         _______ _______ _______ _____ _____    ______ ____

>  <TORSDO>
F 2

$$$$
