=
 OpenBabel11122414233D

 34 41  0  0  1  0  0  0  0  0999 V2000
  160.8630  207.8840  154.1450 C   0  0  0  0  0  0  0  0  0  0  0  0
  162.1840  206.1720  152.8050 C   0  0  0  0  0  2  0  0  0  0  0  0
  157.8760  213.9140  154.5350 C   0  0  2  0  0  3  0  0  0  0  0  0
  159.3480  209.4810  155.1560 C   0  0  0  0  0  0  0  0  0  0  0  0
  158.4820  211.4910  153.8110 C   0  0  1  0  0  3  0  0  0  0  0  0
  159.9130  213.3360  154.5380 O   0  0  0  0  0  0  0  0  0  0  0  0
  159.1360  214.2280  155.3030 C   0  0  0  0  0  2  0  0  0  0  0  0
  157.2530  212.3610  156.5310 C   0  0  0  0  0  2  0  0  0  0  0  0
  162.2100  208.4900  152.0990 C   0  0  2  0  0  3  0  0  0  0  0  0
  161.6850  208.8190  148.8870 C   0  0  0  0  0  2  0  0  0  0  0  0
  159.1290  210.7680  152.6240 C   0  0  0  0  0  2  0  0  0  0  0  0
  157.4960  210.9380  156.0510 C   0  0  0  0  0  2  0  0  0  0  0  0
  161.0690  209.4620  151.7330 C   0  0  1  0  0  3  0  0  0  0  0  0
  163.0040  206.2530  151.5290 C   0  0  0  0  0  2  0  0  0  0  0  0
  158.7550  210.8700  155.2010 C   0  0  1  0  0  3  0  0  0  0  0  0
  156.7710  213.2610  155.3930 C   0  0  0  0  0  2  0  0  0  0  0  0
  161.8000  207.5270  149.7160 C   0  0  1  0  0  3  0  0  0  0  0  0
  160.2170  209.1300  154.1100 C   0  0  0  0  0  0  0  0  0  0  0  0
  158.7960  212.9940  153.7540 C   0  0  2  0  0  3  0  0  0  0  0  0
  160.4600  210.1130  152.9880 C   0  0  2  0  0  3  0  0  0  0  0  0
  159.7380  207.3870  156.2190 C   0  0  0  0  0  3  0  0  0  0  0  0
  162.3110  210.0500  149.5460 C   0  0  0  0  0  2  0  0  0  0  0  0
  159.1450  208.6090  156.1840 N   0  0  0  0  0  0  0  0  0  0  0  0
  161.5180  210.5560  150.7530 C   0  0  0  0  0  2  0  0  0  0  0  0
  162.7450  207.6350  150.9350 C   0  0  1  0  0  3  0  0  0  0  0  0
  160.6080  207.0020  155.1990 C   0  0  0  0  0  3  0  0  0  0  0  0
  161.7690  207.5310  153.0930 N   0  0  0  0  0  0  0  0  0  0  0  0
  160.5250  207.0890  150.0950 O   0  0  0  0  0  0  0  0  0  0  0  0
  160.1580  206.1490  149.1290 C   0  0  0  0  0  2  0  0  0  0  0  0
  160.8630  202.8050  148.6010 C   0  0  0  0  0  2  0  0  0  0  0  0
  161.3580  204.6920  147.5280 C   0  0  0  0  0  2  0  0  0  0  0  0
  161.2580  205.1140  148.9740 C   0  0  2  0  0  3  0  0  0  0  0  0
  161.5510  203.3050  147.4860 O   0  0  0  0  0  0  0  0  0  0  0  0
  160.9000  203.8470  149.6940 C   0  0  0  0  0  2  0  0  0  0  0  0
  1 26  1  0  0  0  0
  2 27  1  0  0  0  0
  3  7  1  1  0  0  0
  3 16  1  0  0  0  0
  4 15  1  0  0  0  0
  4 23  2  0  0  0  0
  5 11  1  6  0  0  0
  5 15  1  0  0  0  0
  6  7  1  0  0  0  0
  9 27  1  1  0  0  0
 10 22  1  0  0  0  0
 10 17  1  0  0  0  0
 12  8  1  0  0  0  0
 13 24  1  6  0  0  0
 13  9  1  0  0  0  0
 13 20  1  0  0  0  0
 14  2  1  0  0  0  0
 15 12  1  1  0  0  0
 16  8  1  0  0  0  0
 17 28  1  1  0  0  0
 17 25  1  0  0  0  0
 18  1  2  0  0  0  0
 18  4  1  0  0  0  0
 19  5  1  0  0  0  0
 19  3  1  0  0  0  0
 19  6  1  1  0  0  0
 20 11  1  6  0  0  0
 20 18  1  0  0  0  0
 22 24  1  0  0  0  0
 23 21  1  0  0  0  0
 25 14  1  1  0  0  0
 25  9  1  0  0  0  0
 26 21  2  0  0  0  0
 27  1  1  0  0  0  0
 29 28  1  0  0  0  0
 30 34  1  0  0  0  0
 31 32  1  0  0  0  0
 32 29  1  6  0  0  0
 32 34  1  0  0  0  0
 33 31  1  0  0  0  0
 33 30  1  0  0  0  0
M  END
>  <MODEL>
1

>  <REMARK>
 VINA RESULT:      -7.1      0.000      0.000
  Name = 
  3 active torsions:
  status: ('A' for Active; 'I' for Inactive)
    1  A    between atoms: C_17  and  O_28
    2  A    between atoms: O_28  and  C_29
    3  A    between atoms: C_29  and  C_32
                            x       y       z     vdW  Elec       q    Type
                         _______ _______ _______ _____ _____    ______ ____

>  <TORSDO>
F 3

$$$$
=
 OpenBabel11122414233D

 34 41  0  0  1  0  0  0  0  0999 V2000
  162.0790  207.9360  150.0650 C   0  0  0  0  0  0  0  0  0  0  0  0
  162.2500  210.2550  151.0950 C   0  0  0  0  0  2  0  0  0  0  0  0
  160.5270  201.4040  150.6720 C   0  0  2  0  0  3  0  0  0  0  0  0
  161.5540  205.7480  149.1640 C   0  0  0  0  0  0  0  0  0  0  0  0
  160.3490  203.9970  150.6070 C   0  0  1  0  0  3  0  0  0  0  0  0
  162.1580  202.5490  151.3900 O   0  0  0  0  0  0  0  0  0  0  0  0
  162.0300  201.2960  150.7590 C   0  0  0  0  0  2  0  0  0  0  0  0
  160.8970  202.1160  148.1930 C   0  0  0  0  0  2  0  0  0  0  0  0
  162.1720  208.3240  152.5560 C   0  0  2  0  0  3  0  0  0  0  0  0
  160.0420  208.7050  155.0100 C   0  0  0  0  0  2  0  0  0  0  0  0
  160.1620  205.1670  151.5800 C   0  0  0  0  0  2  0  0  0  0  0  0
  160.6690  203.6190  148.1470 C   0  0  0  0  0  2  0  0  0  0  0  0
  161.1410  207.1840  152.6920 C   0  0  1  0  0  3  0  0  0  0  0  0
  162.2560  210.7630  152.5270 C   0  0  0  0  0  2  0  0  0  0  0  0
  161.2520  204.2850  149.3840 C   0  0  1  0  0  3  0  0  0  0  0  0
  159.9900  201.4440  149.2250 C   0  0  0  0  0  2  0  0  0  0  0  0
  160.4290  209.7070  153.9060 C   0  0  1  0  0  3  0  0  0  0  0  0
  161.6720  206.6070  150.2690 C   0  0  0  0  0  0  0  0  0  0  0  0
  160.7620  202.7300  151.3710 C   0  0  2  0  0  3  0  0  0  0  0  0
  161.3880  206.0740  151.6550 C   0  0  2  0  0  3  0  0  0  0  0  0
  162.1990  207.5070  147.6950 C   0  0  0  0  0  3  0  0  0  0  0  0
  161.0670  207.5940  155.2420 C   0  0  0  0  0  2  0  0  0  0  0  0
  161.8340  206.2170  147.9140 N   0  0  0  0  0  0  0  0  0  0  0  0
  161.1180  206.5740  154.1020 C   0  0  0  0  0  2  0  0  0  0  0  0
  161.8870  209.5740  153.4090 C   0  0  1  0  0  3  0  0  0  0  0  0
  162.3280  208.3910  148.7670 C   0  0  0  0  0  3  0  0  0  0  0  0
  162.2240  208.8090  151.1910 N   0  0  0  0  0  0  0  0  0  0  0  0
  159.5170  209.6230  152.8460 O   0  0  0  0  0  0  0  0  0  0  0  0
  159.0160  210.9170  152.6910 C   0  0  0  0  0  2  0  0  0  0  0  0
  157.8160  213.6920  154.3720 C   0  0  0  0  0  2  0  0  0  0  0  0
  157.2610  211.5360  154.3240 C   0  0  0  0  0  2  0  0  0  0  0  0
  158.7460  211.5330  154.0520 C   0  0  2  0  0  3  0  0  0  0  0  0
  156.9240  212.7590  154.9190 O   0  0  0  0  0  0  0  0  0  0  0  0
  159.1160  212.9870  154.0610 C   0  0  0  0  0  2  0  0  0  0  0  0
  1 18  1  0  0  0  0
  1 27  1  0  0  0  0
  2 27  1  0  0  0  0
  2 14  1  0  0  0  0
  3 16  1  6  0  0  0
  3  7  1  0  0  0  0
  3 19  1  0  0  0  0
  4 15  1  0  0  0  0
  4 18  2  0  0  0  0
  5 19  1  0  0  0  0
  5 11  1  1  0  0  0
  7  6  1  0  0  0  0
  8 16  1  0  0  0  0
  9 27  1  6  0  0  0
  9 13  1  0  0  0  0
  9 25  1  0  0  0  0
 10 22  1  0  0  0  0
 12  8  1  0  0  0  0
 13 24  1  1  0  0  0
 15 12  1  6  0  0  0
 15  5  1  0  0  0  0
 17 28  1  6  0  0  0
 17 10  1  0  0  0  0
 18 20  1  0  0  0  0
 19  6  1  6  0  0  0
 20 11  1  6  0  0  0
 20 13  1  0  0  0  0
 21 23  2  0  0  0  0
 21 26  1  0  0  0  0
 23  4  1  0  0  0  0
 24 22  1  0  0  0  0
 25 14  1  6  0  0  0
 25 17  1  0  0  0  0
 26  1  2  0  0  0  0
 29 28  1  0  0  0  0
 30 33  1  0  0  0  0
 31 33  1  0  0  0  0
 32 29  1  6  0  0  0
 32 34  1  0  0  0  0
 32 31  1  0  0  0  0
 34 30  1  0  0  0  0
M  END
>  <MODEL>
2

>  <REMARK>
 VINA RESULT:      -6.7      1.944      8.565
  Name = 
  3 active torsions:
  status: ('A' for Active; 'I' for Inactive)
    1  A    between atoms: C_17  and  O_28
    2  A    between atoms: O_28  and  C_29
    3  A    between atoms: C_29  and  C_32
                            x       y       z     vdW  Elec       q    Type
                         _______ _______ _______ _____ _____    ______ ____

>  <TORSDO>
F 3

$$$$
=
 OpenBabel11122414233D

 34 41  0  0  1  0  0  0  0  0999 V2000
  161.8440  208.9210  151.9990 C   0  0  0  0  0  0  0  0  0  0  0  0
  161.8070  210.9350  153.5530 C   0  0  0  0  0  2  0  0  0  0  0  0
  160.7890  202.3420  150.9800 C   0  0  2  0  0  3  0  0  0  0  0  0
  161.5140  206.9810  150.5850 C   0  0  0  0  0  0  0  0  0  0  0  0
  160.4120  204.8570  151.5210 C   0  0  1  0  0  3  0  0  0  0  0  0
  162.3060  203.3920  152.0200 O   0  0  0  0  0  0  0  0  0  0  0  0
  162.2930  202.3200  151.1060 C   0  0  0  0  0  2  0  0  0  0  0  0
  161.1670  203.6480  148.7580 C   0  0  0  0  0  2  0  0  0  0  0  0
  161.8410  208.7100  154.5130 C   0  0  2  0  0  3  0  0  0  0  0  0
  159.6250  208.3470  156.8910 C   0  0  0  0  0  2  0  0  0  0  0  0
  160.1090  205.7450  152.7340 C   0  0  0  0  0  2  0  0  0  0  0  0
  160.8240  205.0990  149.0570 C   0  0  0  0  0  2  0  0  0  0  0  0
  160.8980  207.5020  154.3310 C   0  0  1  0  0  3  0  0  0  0  0  0
  161.7360  211.0860  155.0630 C   0  0  0  0  0  2  0  0  0  0  0  0
  161.3210  205.4900  150.4410 C   0  0  1  0  0  3  0  0  0  0  0  0
  160.2880  202.6880  149.5610 C   0  0  0  0  0  2  0  0  0  0  0  0
  159.9610  209.6070  156.0730 C   0  0  1  0  0  3  0  0  0  0  0  0
  161.5360  207.5570  151.8660 C   0  0  0  0  0  0  0  0  0  0  0  0
  160.9020  203.4760  151.9820 C   0  0  2  0  0  3  0  0  0  0  0  0
  161.2580  206.6910  153.0740 C   0  0  2  0  0  3  0  0  0  0  0  0
  162.0590  209.0790  149.6020 C   0  0  0  0  0  3  0  0  0  0  0  0
  160.7270  207.2860  156.9000 C   0  0  0  0  0  2  0  0  0  0  0  0
  161.7890  207.7520  149.4950 N   0  0  0  0  0  0  0  0  0  0  0  0
  160.8860  206.5740  155.5550 C   0  0  0  0  0  2  0  0  0  0  0  0
  161.4370  209.6990  155.6230 C   0  0  1  0  0  3  0  0  0  0  0  0
  162.0900  209.6890  150.8570 C   0  0  0  0  0  3  0  0  0  0  0  0
  161.8910  209.5090  153.3040 N   0  0  0  0  0  0  0  0  0  0  0  0
  159.0870  209.7150  154.9840 O   0  0  0  0  0  0  0  0  0  0  0  0
  158.1210  210.6440  155.3810 C   0  0  0  0  0  2  0  0  0  0  0  0
  158.8810  213.3510  153.3670 C   0  0  0  0  0  2  0  0  0  0  0  0
  158.5740  211.1750  153.0060 C   0  0  0  0  0  2  0  0  0  0  0  0
  157.6840  211.4740  154.1870 C   0  0  2  0  0  3  0  0  0  0  0  0
  158.8620  212.3820  152.3540 O   0  0  0  0  0  0  0  0  0  0  0  0
  157.9090  212.9360  154.4460 C   0  0  0  0  0  2  0  0  0  0  0  0
  1 27  1  0  0  0  0
  2 14  1  0  0  0  0
  3 16  1  6  0  0  0
  3  7  1  0  0  0  0
  3 19  1  0  0  0  0
  4 18  2  0  0  0  0
  5 19  1  0  0  0  0
  5 11  1  1  0  0  0
  7  6  1  0  0  0  0
  8 12  1  0  0  0  0
  8 16  1  0  0  0  0
  9 27  1  6  0  0  0
  9 25  1  0  0  0  0
 10 22  1  0  0  0  0
 13  9  1  0  0  0  0
 13 24  1  1  0  0  0
 15 12  1  6  0  0  0
 15  4  1  0  0  0  0
 15  5  1  0  0  0  0
 17 28  1  6  0  0  0
 17 10  1  0  0  0  0
 18  1  1  0  0  0  0
 18 20  1  0  0  0  0
 19  6  1  6  0  0  0
 20 11  1  6  0  0  0
 20 13  1  0  0  0  0
 21 26  1  0  0  0  0
 23 21  2  0  0  0  0
 23  4  1  0  0  0  0
 24 22  1  0  0  0  0
 25 14  1  6  0  0  0
 25 17  1  0  0  0  0
 26  1  2  0  0  0  0
 27  2  1  0  0  0  0
 28 29  1  0  0  0  0
 30 34  1  0  0  0  0
 31 32  1  0  0  0  0
 32 34  1  0  0  0  0
 32 29  1  1  0  0  0
 33 31  1  0  0  0  0
 33 30  1  0  0  0  0
M  END
>  <MODEL>
3

>  <REMARK>
 VINA RESULT:      -6.4      1.853      8.079
  Name = 
  3 active torsions:
  status: ('A' for Active; 'I' for Inactive)
    1  A    between atoms: C_17  and  O_28
    2  A    between atoms: O_28  and  C_29
    3  A    between atoms: C_29  and  C_32
                            x       y       z     vdW  Elec       q    Type
                         _______ _______ _______ _____ _____    ______ ____

>  <TORSDO>
F 3

$$$$
=
 OpenBabel11122414233D

 34 41  0  0  1  0  0  0  0  0999 V2000
  161.3000  207.3200  153.3090 C   0  0  0  0  0  0  0  0  0  0  0  0
  162.4100  205.9010  151.5140 C   0  0  0  0  0  2  0  0  0  0  0  0
  158.6210  213.1940  155.2480 C   0  0  2  0  0  3  0  0  0  0  0  0
  159.9580  208.7000  154.7810 C   0  0  0  0  0  0  0  0  0  0  0  0
  159.0510  210.9660  153.9790 C   0  0  1  0  0  3  0  0  0  0  0  0
  160.6230  212.5850  154.9210 O   0  0  0  0  0  0  0  0  0  0  0  0
  159.9620  213.3120  155.9310 C   0  0  0  0  0  2  0  0  0  0  0  0
  158.1290  211.2680  156.9320 C   0  0  0  0  0  2  0  0  0  0  0  0
  162.4670  208.3150  151.3050 C   0  0  2  0  0  3  0  0  0  0  0  0
  161.6480  209.3240  148.3040 C   0  0  0  0  0  2  0  0  0  0  0  0
  159.5500  210.4950  152.6070 C   0  0  0  0  0  2  0  0  0  0  0  0
  158.2640  209.9740  156.1460 C   0  0  0  0  0  2  0  0  0  0  0  0
  161.3380  209.3660  151.2690 C   0  0  1  0  0  3  0  0  0  0  0  0
  163.1060  206.2320  150.2040 C   0  0  0  0  0  2  0  0  0  0  0  0
  159.4320  210.0600  155.1740 C   0  0  1  0  0  3  0  0  0  0  0  0
  157.5780  212.3980  156.0620 C   0  0  0  0  0  2  0  0  0  0  0  0
  161.7870  207.8840  148.8300 C   0  0  1  0  0  3  0  0  0  0  0  0
  160.7060  208.5590  153.6000 C   0  0  0  0  0  0  0  0  0  0  0  0
  159.4220  212.4400  154.2030 C   0  0  2  0  0  3  0  0  0  0  0  0
  160.8810  209.7510  152.6870 C   0  0  2  0  0  3  0  0  0  0  0  0
  160.3600  206.4210  155.3390 C   0  0  0  0  0  3  0  0  0  0  0  0
  162.3860  210.3750  149.1350 C   0  0  0  0  0  2  0  0  0  0  0  0
  159.8180  207.6350  155.6210 N   0  0  0  0  0  0  0  0  0  0  0  0
  161.7350  210.6320  150.4960 C   0  0  0  0  0  2  0  0  0  0  0  0
  162.8500  207.7130  149.9400 C   0  0  1  0  0  3  0  0  0  0  0  0
  161.1100  206.2410  154.1770 C   0  0  0  0  0  3  0  0  0  0  0  0
  162.0830  207.1780  152.1190 N   0  0  0  0  0  0  0  0  0  0  0  0
  160.5370  207.4040  149.2400 O   0  0  0  0  0  0  0  0  0  0  0  0
  160.3700  206.1940  148.5620 C   0  0  0  0  0  2  0  0  0  0  0  0
  161.3510  204.3630  145.7960 C   0  0  0  0  0  2  0  0  0  0  0  0
  160.2060  206.2510  146.0930 C   0  0  0  0  0  2  0  0  0  0  0  0
  161.1570  206.2170  147.2640 C   0  0  2  0  0  3  0  0  0  0  0  0
  160.6980  205.3910  145.1010 O   0  0  0  0  0  0  0  0  0  0  0  0
  161.9120  204.9330  147.0780 C   0  0  0  0  0  2  0  0  0  0  0  0
  1 18  2  0  0  0  0
  1 26  1  0  0  0  0
  2 27  1  0  0  0  0
  3  7  1  1  0  0  0
  3 16  1  0  0  0  0
  4 15  1  0  0  0  0
  4 23  2  0  0  0  0
  5 11  1  6  0  0  0
  5 19  1  0  0  0  0
  5 15  1  0  0  0  0
  6  7  1  0  0  0  0
  9 27  1  1  0  0  0
 10 17  1  0  0  0  0
 10 22  1  0  0  0  0
 12  8  1  0  0  0  0
 13 24  1  1  0  0  0
 13  9  1  0  0  0  0
 13 20  1  0  0  0  0
 14  2  1  0  0  0  0
 15 12  1  1  0  0  0
 16  8  1  0  0  0  0
 17 28  1  1  0  0  0
 17 25  1  0  0  0  0
 18  4  1  0  0  0  0
 19  6  1  1  0  0  0
 19  3  1  0  0  0  0
 20 11  1  6  0  0  0
 20 18  1  0  0  0  0
 21 23  1  0  0  0  0
 22 24  1  0  0  0  0
 25 14  1  1  0  0  0
 25  9  1  0  0  0  0
 26 21  2  0  0  0  0
 27  1  1  0  0  0  0
 29 28  1  0  0  0  0
 30 34  1  0  0  0  0
 31 32  1  0  0  0  0
 32 29  1  1  0  0  0
 33 30  1  0  0  0  0
 33 31  1  0  0  0  0
 34 32  1  0  0  0  0
M  END
>  <MODEL>
4

>  <REMARK>
 VINA RESULT:      -4.4      1.256      1.461
  Name = 
  3 active torsions:
  status: ('A' for Active; 'I' for Inactive)
    1  A    between atoms: C_17  and  O_28
    2  A    between atoms: O_28  and  C_29
    3  A    between atoms: C_29  and  C_32
                            x       y       z     vdW  Elec       q    Type
                         _______ _______ _______ _____ _____    ______ ____

>  <TORSDO>
F 3

$$$$
