=
 OpenBabel11122412583D

 32 37  0  0  1  0  0  0  0  0999 V2000
  159.5540  208.6790  156.7090 C   0  0  0  0  0  2  0  0  0  0  0  0
  161.7830  206.1910  152.0370 C   0  0  1  0  0  3  0  0  0  0  0  0
  162.1000  209.7630  148.6130 C   0  0  0  0  0  2  0  0  0  0  0  0
  162.6300  208.6090  147.8860 N   0  0  0  0  0  2  0  0  0  0  0  0
  161.3490  203.7360  151.2360 C   0  0  2  0  0  3  0  0  0  0  0  0
  160.5330  202.9250  150.2230 C   0  0  2  0  0  3  0  0  0  0  0  0
  160.7340  207.0290  154.1460 N   0  0  2  0  0  0  0  0  0  0  0  0
  162.1450  208.5500  152.7500 C   0  0  0  0  0  2  0  0  0  0  0  0
  160.9750  202.4830  147.9970 C   0  0  0  0  0  0  0  0  0  0  0  0
  160.8360  209.4490  154.6560 C   0  0  0  0  0  2  0  0  0  0  0  0
  161.6710  209.3830  150.0370 C   0  0  0  0  0  2  0  0  0  0  0  0
  161.4980  207.6630  151.6800 C   0  0  1  0  0  3  0  0  0  0  0  0
  161.9870  207.9800  150.3320 N   0  0  1  0  0  0  0  0  0  0  0  0
  161.5080  205.6680  149.6160 C   0  0  2  0  0  3  0  0  0  0  0  0
  161.0920  201.2320  148.6500 N   0  0  0  0  0  2  0  0  0  0  0  0
  159.2450  207.3320  156.0450 C   0  0  0  0  0  2  0  0  0  0  0  0
  161.5980  208.2270  154.1490 C   0  0  1  0  0  3  0  0  0  0  0  0
  160.9740  201.4620  150.0860 C   0  0  0  0  0  2  0  0  0  0  0  0
  160.4830  206.6160  155.5220 C   0  0  0  0  0  2  0  0  0  0  0  0
  160.7830  209.4250  156.1750 C   0  0  1  0  0  3  0  0  0  0  0  0
  161.6420  207.5300  147.9120 C   0  0  0  0  0  2  0  0  0  0  0  0
  161.2510  207.1540  149.3570 C   0  0  2  0  0  3  0  0  0  0  0  0
  160.8870  204.8360  148.5870 N   0  0  0  0  0  2  0  0  0  0  0  0
  161.4500  205.9180  153.5180 C   0  0  0  0  0  2  0  0  0  0  0  0
  160.9620  203.2370  152.6200 C   0  0  0  0  0  1  0  0  0  0  0  0
  161.3140  202.6840  146.5610 C   0  0  0  0  0  1  0  0  0  0  0  0
  161.0640  205.2560  151.0410 C   0  0  2  0  0  3  0  0  0  0  0  0
  160.7180  203.4480  148.8510 C   0  0  0  0  0  0  0  0  0  0  0  0
  160.7850  210.7920  156.6780 N   0  0  0  0  0  2  0  0  0  0  0  0
  159.8050  211.7560  156.2920 C   0  0  0  0  0  0  0  0  0  0  0  0
  158.8710  211.4460  155.5060 O   0  0  0  0  0  0  0  0  0  0  0  0
  159.8860  213.1410  156.8270 C   0  0  0  0  0  1  0  0  0  0  0  0
  2 24  1  1  0  0  0
  3 11  1  0  0  0  0
  4 21  1  0  0  0  0
  4  3  1  0  0  0  0
  5 25  1  1  0  0  0
  6 18  1  6  0  0  0
  6  5  1  0  0  0  0
  7 24  1  6  0  0  0
  7 17  1  0  0  0  0
  7 19  1  0  0  0  0
  9 15  1  0  0  0  0
  9 28  2  0  0  0  0
 10 20  1  0  0  0  0
 12  2  1  0  0  0  0
 12  8  1  1  0  0  0
 13 11  1  6  0  0  0
 13 12  1  0  0  0  0
 14 23  1  6  0  0  0
 14 27  1  0  0  0  0
 15 18  1  0  0  0  0
 16  1  1  0  0  0  0
 17  8  1  6  0  0  0
 17 10  1  0  0  0  0
 19 16  1  0  0  0  0
 20 29  1  6  0  0  0
 20  1  1  0  0  0  0
 22 21  1  6  0  0  0
 22 14  1  0  0  0  0
 22 13  1  0  0  0  0
 23 28  1  0  0  0  0
 26  9  1  0  0  0  0
 27  5  1  0  0  0  0
 27  2  1  0  0  0  0
 28  6  1  0  0  0  0
 30 29  1  0  0  0  0
 30 32  1  0  0  0  0
 31 30  2  0  0  0  0
M  END
>  <MODEL>
1

>  <REMARK>
 VINA RESULT:      -8.9      0.000      0.000
  Name = 
  1 active torsions:
  status: ('A' for Active; 'I' for Inactive)
    1  A    between atoms: C_20  and  N_29
                            x       y       z     vdW  Elec       q    Type
                         _______ _______ _______ _____ _____    ______ ____

>  <TORSDO>
F 1

$$$$
