=
 OpenBabel11122414053D

 28 32  0  0  1  0  0  0  0  0999 V2000
  162.7070  213.6820  142.2380 C   0  0  0  0  0  0  0  0  0  0  0  0
  159.0260  214.4530  140.5860 F   0  0  0  0  0  0  0  0  0  0  0  0
  162.7770  210.5060  137.0110 O   0  0  0  0  0  0  0  0  0  0  0  0
  161.3800  212.7730  144.5490 C   0  0  0  0  0  3  0  0  0  0  0  0
  160.9260  209.7720  138.3890 C   0  0  2  0  0  3  0  0  0  0  0  0
  163.4280  214.2010  141.1050 N   0  0  0  0  0  2  0  0  0  0  0  0
  159.6320  213.4510  138.6600 F   0  0  0  0  0  0  0  0  0  0  0  0
  158.9670  213.2790  139.8630 C   0  0  0  0  0  0  0  0  0  0  0  0
  157.3530  211.5400  139.0280 C   0  0  0  0  0  0  0  0  0  0  0  0
  159.6050  212.1530  140.6710 C   0  0  1  0  0  3  0  0  0  0  0  0
  164.9610  214.0710  138.3870 C   0  0  0  0  0  1  0  0  0  0  0  0
  161.7630  211.0020  140.3780 C   0  0  1  0  0  3  0  0  0  0  0  0
  158.2500  210.6260  139.2340 N   0  0  0  0  0  0  0  0  0  0  0  0
  157.5040  212.9280  139.5950 C   0  0  0  0  0  2  0  0  0  0  0  0
  163.6460  213.4200  138.7610 C   0  0  1  0  0  3  0  0  0  0  0  0
  161.5920  212.8080  142.1230 C   0  0  0  0  0  0  0  0  0  0  0  0
  162.1730  210.5200  138.1160 C   0  0  0  0  0  0  0  0  0  0  0  0
  156.1380  211.2040  138.2500 C   0  0  0  0  0  1  0  0  0  0  0  0
  163.8740  211.9950  139.2740 C   0  0  0  0  0  2  0  0  0  0  0  0
  160.9440  212.3590  143.2880 C   0  0  0  0  0  3  0  0  0  0  0  0
  163.1440  214.0670  143.5110 C   0  0  0  0  0  3  0  0  0  0  0  0
  162.4820  213.6210  144.6600 C   0  0  0  0  0  3  0  0  0  0  0  0
  162.8820  214.2900  139.7530 C   0  0  0  0  0  2  0  0  0  0  0  0
  160.6240  210.1000  139.8590 C   0  0  1  0  0  3  0  0  0  0  0  0
  162.6360  211.2300  139.2390 N   0  0  0  0  0  0  0  0  0  0  0  0
  159.4100  210.8910  139.9830 N   0  0  0  0  0  0  0  0  0  0  0  0
  161.1750  208.4040  138.2690 O   0  0  0  0  0  1  0  0  0  0  0  0
  161.1120  212.3200  140.7850 C   0  0  2  0  0  3  0  0  0  0  0  0
  1 21  1  0  0  0  0
  3 17  2  0  0  0  0
  4 22  1  0  0  0  0
  5 27  1  1  0  0  0
  5 24  1  0  0  0  0
  6  1  1  0  0  0  0
  7  8  1  0  0  0  0
  8  2  1  0  0  0  0
  9 13  2  0  0  0  0
  9 14  1  0  0  0  0
 10  8  1  6  0  0  0
 10 28  1  0  0  0  0
 12 25  1  6  0  0  0
 12 28  1  0  0  0  0
 13 26  1  0  0  0  0
 14  8  1  0  0  0  0
 15 11  1  1  0  0  0
 15 19  1  0  0  0  0
 15 23  1  0  0  0  0
 16  1  2  0  0  0  0
 16 20  1  0  0  0  0
 17  5  1  0  0  0  0
 17 25  1  0  0  0  0
 18  9  1  0  0  0  0
 20  4  2  0  0  0  0
 21 22  2  0  0  0  0
 23  6  1  0  0  0  0
 24 26  1  6  0  0  0
 24 12  1  0  0  0  0
 25 19  1  0  0  0  0
 26 10  1  0  0  0  0
 28 16  1  1  0  0  0
M  END
>  <MODEL>
1

>  <REMARK>
 VINA RESULT:      -5.5      0.000      0.000
  Name = 
  0 active torsions:
  status: ('A' for Active; 'I' for Inactive)
                            x       y       z     vdW  Elec       q    Type
                         _______ _______ _______ _____ _____    ______ ____

>  <TORSDO>
F 0

$$$$
=
 OpenBabel11122414053D

 28 32  0  0  1  0  0  0  0  0999 V2000
  158.1390  211.0080  139.1830 C   0  0  0  0  0  0  0  0  0  0  0  0
  160.8790  213.1700  137.0160 F   0  0  0  0  0  0  0  0  0  0  0  0
  160.9220  214.4530  143.4020 O   0  0  0  0  0  0  0  0  0  0  0  0
  159.2940  208.6640  138.1350 C   0  0  0  0  0  3  0  0  0  0  0  0
  162.5560  213.0770  142.2630 C   0  0  2  0  0  3  0  0  0  0  0  0
  157.4740  212.1810  139.6900 N   0  0  0  0  0  2  0  0  0  0  0  0
  161.3480  214.4530  138.8100 F   0  0  0  0  0  0  0  0  0  0  0  0
  161.7510  213.3530  138.0690 C   0  0  0  0  0  0  0  0  0  0  0  0
  164.2000  213.5550  138.6060 C   0  0  0  0  0  0  0  0  0  0  0  0
  161.7680  212.1000  138.9400 C   0  0  1  0  0  3  0  0  0  0  0  0
  156.8460  214.4520  141.7390 C   0  0  0  0  0  1  0  0  0  0  0  0
  160.8060  211.6930  141.1710 C   0  0  1  0  0  3  0  0  0  0  0  0
  163.9980  212.9100  139.7140 N   0  0  0  0  0  0  0  0  0  0  0  0
  163.1580  213.5920  137.5200 C   0  0  0  0  0  2  0  0  0  0  0  0
  158.1950  213.9700  141.2480 C   0  0  1  0  0  3  0  0  0  0  0  0
  159.5530  210.8610  139.1530 C   0  0  0  0  0  0  0  0  0  0  0  0
  161.1850  213.5120  142.6080 C   0  0  0  0  0  0  0  0  0  0  0  0
  165.4960  214.2380  138.3900 C   0  0  0  0  0  1  0  0  0  0  0  0
  158.7640  212.9010  142.1860 C   0  0  0  0  0  2  0  0  0  0  0  0
  160.1120  209.6810  138.6300 C   0  0  0  0  0  3  0  0  0  0  0  0
  157.3340  209.9680  138.7040 C   0  0  0  0  0  3  0  0  0  0  0  0
  157.9070  208.8050  138.1770 C   0  0  0  0  0  3  0  0  0  0  0  0
  158.0990  213.4970  139.8020 C   0  0  0  0  0  2  0  0  0  0  0  0
  162.3290  211.9050  141.2970 C   0  0  1  0  0  3  0  0  0  0  0  0
  160.1950  212.7380  141.9740 N   0  0  0  0  0  0  0  0  0  0  0  0
  162.7930  212.2280  139.9580 N   0  0  0  0  0  0  0  0  0  0  0  0
  163.1910  212.6040  143.4130 O   0  0  0  0  0  1  0  0  0  0  0  0
  160.4640  211.9220  139.7020 C   0  0  2  0  0  3  0  0  0  0  0  0
  1  6  1  0  0  0  0
  2  8  1  0  0  0  0
  4 22  2  0  0  0  0
  4 20  1  0  0  0  0
  5 17  1  0  0  0  0
  5 27  1  1  0  0  0
  6 23  1  0  0  0  0
  8  7  1  0  0  0  0
  9 13  2  0  0  0  0
 10  8  1  1  0  0  0
 10 28  1  0  0  0  0
 10 26  1  0  0  0  0
 12 24  1  0  0  0  0
 12 25  1  1  0  0  0
 13 26  1  0  0  0  0
 14  8  1  0  0  0  0
 14  9  1  0  0  0  0
 15 11  1  1  0  0  0
 15 19  1  0  0  0  0
 16  1  1  0  0  0  0
 17  3  2  0  0  0  0
 18  9  1  0  0  0  0
 20 16  2  0  0  0  0
 21  1  2  0  0  0  0
 22 21  1  0  0  0  0
 23 15  1  0  0  0  0
 24 26  1  6  0  0  0
 24  5  1  0  0  0  0
 25 19  1  0  0  0  0
 25 17  1  0  0  0  0
 28 16  1  6  0  0  0
 28 12  1  0  0  0  0
M  END
>  <MODEL>
2

>  <REMARK>
 VINA RESULT:      -3.8      2.531      5.949
  Name = 
  0 active torsions:
  status: ('A' for Active; 'I' for Inactive)
                            x       y       z     vdW  Elec       q    Type
                         _______ _______ _______ _____ _____    ______ ____

>  <TORSDO>
F 0

$$$$
=
 OpenBabel11122414053D

 28 32  0  0  1  0  0  0  0  0999 V2000
  161.6180  212.8050  139.6520 C   0  0  0  0  0  0  0  0  0  0  0  0
  159.6400  209.2440  139.1200 F   0  0  0  0  0  0  0  0  0  0  0  0
  155.8010  214.1760  140.9540 O   0  0  0  0  0  0  0  0  0  0  0  0
  162.5670  212.5690  137.0110 C   0  0  0  0  0  3  0  0  0  0  0  0
  155.9520  213.3140  138.6960 C   0  0  2  0  0  3  0  0  0  0  0  0
  161.2120  212.9320  141.0270 N   0  0  0  0  0  2  0  0  0  0  0  0
  157.7580  210.1070  140.0120 F   0  0  0  0  0  0  0  0  0  0  0  0
  158.4210  209.8220  138.8290 C   0  0  0  0  0  0  0  0  0  0  0  0
  156.3530  209.5000  137.4350 C   0  0  0  0  0  0  0  0  0  0  0  0
  158.6440  211.0970  138.0210 C   0  0  1  0  0  3  0  0  0  0  0  0
  159.4450  213.9100  143.4090 C   0  0  0  0  0  1  0  0  0  0  0  0
  158.4310  213.4620  138.6780 C   0  0  1  0  0  3  0  0  0  0  0  0
  156.2900  210.7820  137.2540 N   0  0  0  0  0  0  0  0  0  0  0  0
  157.5890  208.8480  137.9960 C   0  0  0  0  0  2  0  0  0  0  0  0
  159.0040  213.3070  142.0920 C   0  0  1  0  0  3  0  0  0  0  0  0
  160.7290  212.4370  138.6040 C   0  0  0  0  0  0  0  0  0  0  0  0
  156.5050  213.8170  139.9730 C   0  0  0  0  0  0  0  0  0  0  0  0
  155.1990  208.6540  137.0510 C   0  0  0  0  0  1  0  0  0  0  0  0
  158.7130  214.4040  141.0640 C   0  0  0  0  0  2  0  0  0  0  0  0
  161.2200  212.3300  137.2900 C   0  0  0  0  0  3  0  0  0  0  0  0
  162.9600  213.0630  139.3490 C   0  0  0  0  0  3  0  0  0  0  0  0
  163.4340  212.9410  138.0380 C   0  0  0  0  0  3  0  0  0  0  0  0
  160.0290  212.2920  141.5990 C   0  0  0  0  0  2  0  0  0  0  0  0
  157.2010  213.0460  137.8440 C   0  0  1  0  0  3  0  0  0  0  0  0
  157.9100  213.8830  139.9670 N   0  0  0  0  0  0  0  0  0  0  0  0
  157.3660  211.6250  137.5840 N   0  0  0  0  0  0  0  0  0  0  0  0
  155.1960  214.3220  138.0940 O   0  0  0  0  0  1  0  0  0  0  0  0
  159.2680  212.2000  138.8620 C   0  0  2  0  0  3  0  0  0  0  0  0
  1  6  1  0  0  0  0
  4 20  2  0  0  0  0
  4 22  1  0  0  0  0
  5 27  1  6  0  0  0
  5 17  1  0  0  0  0
  6 23  1  0  0  0  0
  8  2  1  0  0  0  0
  8  7  1  0  0  0  0
  9 14  1  0  0  0  0
 10 26  1  1  0  0  0
 10  8  1  0  0  0  0
 10 28  1  0  0  0  0
 12 28  1  0  0  0  0
 12 25  1  1  0  0  0
 13  9  2  0  0  0  0
 13 26  1  0  0  0  0
 14  8  1  0  0  0  0
 15 11  1  1  0  0  0
 16  1  2  0  0  0  0
 17  3  2  0  0  0  0
 18  9  1  0  0  0  0
 19 15  1  0  0  0  0
 20 16  1  0  0  0  0
 21  1  1  0  0  0  0
 22 21  2  0  0  0  0
 23 15  1  0  0  0  0
 24 26  1  1  0  0  0
 24 12  1  0  0  0  0
 24  5  1  0  0  0  0
 25 17  1  0  0  0  0
 25 19  1  0  0  0  0
 28 16  1  6  0  0  0
M  END
>  <MODEL>
3

>  <REMARK>
 VINA RESULT:      -3.2      3.252      5.218
  Name = 
  0 active torsions:
  status: ('A' for Active; 'I' for Inactive)
                            x       y       z     vdW  Elec       q    Type
                         _______ _______ _______ _____ _____    ______ ____

>  <TORSDO>
F 0

$$$$
=
 OpenBabel11122414053D

 28 32  0  0  1  0  0  0  0  0999 V2000
  163.4030  213.7590  140.9410 C   0  0  0  0  0  0  0  0  0  0  0  0
  162.6370  209.8280  140.0280 F   0  0  0  0  0  0  0  0  0  0  0  0
  157.2940  213.4590  140.8640 O   0  0  0  0  0  0  0  0  0  0  0  0
  164.9450  213.9110  138.5890 C   0  0  0  0  0  3  0  0  0  0  0  0
  158.1730  212.7770  138.7130 C   0  0  2  0  0  3  0  0  0  0  0  0
  162.6810  213.7080  142.1860 N   0  0  0  0  0  2  0  0  0  0  0  0
  160.4410  210.1120  140.4540 F   0  0  0  0  0  0  0  0  0  0  0  0
  161.4040  210.0720  139.4580 C   0  0  0  0  0  0  0  0  0  0  0  0
  159.8660  209.2740  137.6350 C   0  0  0  0  0  0  0  0  0  0  0  0
  161.4460  211.3970  138.7020 C   0  0  1  0  0  3  0  0  0  0  0  0
  160.2300  214.0620  144.0880 C   0  0  0  0  0  1  0  0  0  0  0  0
  160.4590  213.5840  139.2580 C   0  0  1  0  0  3  0  0  0  0  0  0
  159.4990  210.5000  137.4240 N   0  0  0  0  0  0  0  0  0  0  0  0
  161.0750  208.9510  138.4720 C   0  0  0  0  0  2  0  0  0  0  0  0
  160.2750  213.4260  142.7140 C   0  0  1  0  0  3  0  0  0  0  0  0
  162.9040  213.2170  139.7250 C   0  0  0  0  0  0  0  0  0  0  0  0
  158.2690  213.3490  140.0750 C   0  0  0  0  0  0  0  0  0  0  0  0
  159.1010  208.1690  137.0110 C   0  0  0  0  0  1  0  0  0  0  0  0
  159.9340  214.4530  141.6300 C   0  0  0  0  0  2  0  0  0  0  0  0
  163.6860  213.3070  138.5580 C   0  0  0  0  0  3  0  0  0  0  0  0
  164.6560  214.3810  140.9480 C   0  0  0  0  0  3  0  0  0  0  0  0
  165.4260  214.4530  139.7810 C   0  0  0  0  0  3  0  0  0  0  0  0
  161.6200  212.7480  142.4830 C   0  0  0  0  0  2  0  0  0  0  0  0
  159.6060  212.8940  138.1720 C   0  0  1  0  0  3  0  0  0  0  0  0
  159.5690  213.7890  140.3880 N   0  0  0  0  0  0  0  0  0  0  0  0
  160.2040  211.5830  137.9780 N   0  0  0  0  0  0  0  0  0  0  0  0
  157.3270  213.5730  137.9390 O   0  0  0  0  0  1  0  0  0  0  0  0
  161.5440  212.5850  139.6470 C   0  0  2  0  0  3  0  0  0  0  0  0
  1 21  1  0  0  0  0
  1  6  1  0  0  0  0
  4 22  1  0  0  0  0
  5 27  1  6  0  0  0
  5 17  1  0  0  0  0
  6 23  1  0  0  0  0
  8  2  1  0  0  0  0
  8  7  1  0  0  0  0
  9 14  1  0  0  0  0
 10 26  1  1  0  0  0
 10  8  1  0  0  0  0
 10 28  1  0  0  0  0
 12 28  1  0  0  0  0
 12 25  1  1  0  0  0
 13  9  2  0  0  0  0
 13 26  1  0  0  0  0
 14  8  1  0  0  0  0
 15 11  1  1  0  0  0
 16  1  2  0  0  0  0
 17 25  1  0  0  0  0
 17  3  2  0  0  0  0
 18  9  1  0  0  0  0
 19 15  1  0  0  0  0
 20  4  2  0  0  0  0
 20 16  1  0  0  0  0
 22 21  2  0  0  0  0
 23 15  1  0  0  0  0
 24 26  1  1  0  0  0
 24  5  1  0  0  0  0
 24 12  1  0  0  0  0
 25 19  1  0  0  0  0
 28 16  1  6  0  0  0
M  END
>  <MODEL>
4

>  <REMARK>
 VINA RESULT:      -3.0      2.605      4.553
  Name = 
  0 active torsions:
  status: ('A' for Active; 'I' for Inactive)
                            x       y       z     vdW  Elec       q    Type
                         _______ _______ _______ _____ _____    ______ ____

>  <TORSDO>
F 0

$$$$
