=
 OpenBabel11122414273D

 34 40  0  0  1  0  0  0  0  0999 V2000
  161.1130  203.3410  150.7850 C   0  0  0  0  0  0  0  0  0  0  0  0
  160.8740  204.5160  153.0120 C   0  0  0  0  0  3  0  0  0  0  0  0
  160.2210  205.3630  144.8060 N   0  0  0  0  0  2  0  0  0  0  0  0
  161.3730  202.5380  148.5090 C   0  0  0  0  0  0  0  0  0  0  0  0
  162.2710  204.1020  146.7690 C   0  0  0  0  0  0  0  0  0  0  0  0
  162.6570  205.6070  144.7910 C   0  0  0  0  0  2  0  0  0  0  0  0
  161.3820  205.6010  143.9570 C   0  0  0  0  0  2  0  0  0  0  0  0
  160.2370  202.8950  144.8730 C   0  0  0  0  0  2  0  0  0  0  0  0
  161.5430  205.7050  151.1870 C   0  0  0  0  0  0  0  0  0  0  0  0
  160.8340  208.6410  151.0150 C   0  0  0  0  0  2  0  0  0  0  0  0
  162.3130  205.0530  147.6580 N   0  0  0  0  0  0  0  0  0  0  0  0
  160.1570  202.8400  146.3940 C   0  0  0  0  0  2  0  0  0  0  0  0
  161.8830  205.9360  149.8890 N   0  0  0  0  0  0  0  0  0  0  0  0
  161.0580  205.8590  153.3620 C   0  0  0  0  0  3  0  0  0  0  0  0
  161.5460  202.7990  147.0360 C   0  0  2  0  0  3  0  0  0  0  0  0
  159.5540  204.1520  144.3370 C   0  0  0  0  0  2  0  0  0  0  0  0
  161.7060  208.0660  152.1340 C   0  0  2  0  0  3  0  0  0  0  0  0
  161.4350  203.5930  149.4310 C   0  0  0  0  0  0  0  0  0  0  0  0
  162.8080  204.3270  145.4650 N   0  0  0  0  0  2  0  0  0  0  0  0
  161.8410  204.8860  149.0040 C   0  0  0  0  0  0  0  0  0  0  0  0
  160.7300  201.0290  150.2380 C   0  0  0  0  0  3  0  0  0  0  0  0
  161.3290  208.3410  149.5890 C   0  0  0  0  0  2  0  0  0  0  0  0
  161.0220  201.2920  148.9350 N   0  0  0  0  0  0  0  0  0  0  0  0
  162.3920  207.2430  149.4710 C   0  0  0  0  0  2  0  0  0  0  0  0
  161.4640  206.5860  152.2380 C   0  0  0  0  0  0  0  0  0  0  0  0
  160.7630  202.0510  151.1900 C   0  0  0  0  0  3  0  0  0  0  0  0
  161.1630  204.4140  151.6650 C   0  0  0  0  0  0  0  0  0  0  0  0
  161.4060  208.7820  153.4430 C   0  0  0  0  0  2  0  0  0  0  0  0
  160.4960  209.8920  153.2060 N   0  0  0  0  0  2  0  0  0  0  0  0
  160.4200  212.3330  155.7070 O   0  0  0  0  0  0  0  0  0  0  0  0
  161.9230  210.6570  154.9950 C   0  0  0  0  0  2  0  0  0  0  0  0
  161.0880  211.0680  153.8210 C   0  0  2  0  0  3  0  0  0  0  0  0
  161.2260  211.2870  156.1770 C   0  0  0  0  0  2  0  0  0  0  0  0
  160.0030  211.9290  154.4320 C   0  0  0  0  0  2  0  0  0  0  0  0
  1 26  1  0  0  0  0
  1 27  2  0  0  0  0
  2 14  2  0  0  0  0
  4 23  2  0  0  0  0
  4 18  1  0  0  0  0
  5 15  1  0  0  0  0
  5 11  2  0  0  0  0
  6 19  1  0  0  0  0
  7  6  1  0  0  0  0
  7  3  1  0  0  0  0
  8 12  1  0  0  0  0
  9 27  1  0  0  0  0
  9 25  2  0  0  0  0
 10 17  1  0  0  0  0
 11 20  1  0  0  0  0
 13  9  1  0  0  0  0
 15 12  1  6  0  0  0
 15  4  1  0  0  0  0
 16  3  1  0  0  0  0
 16  8  1  0  0  0  0
 17 25  1  0  0  0  0
 17 28  1  1  0  0  0
 18  1  1  0  0  0  0
 19  5  1  0  0  0  0
 20 18  2  0  0  0  0
 20 13  1  0  0  0  0
 21 26  2  0  0  0  0
 22 10  1  0  0  0  0
 23 21  1  0  0  0  0
 24 22  1  0  0  0  0
 24 13  1  0  0  0  0
 25 14  1  0  0  0  0
 27  2  1  0  0  0  0
 29 28  1  0  0  0  0
 30 33  1  0  0  0  0
 31 33  1  0  0  0  0
 32 29  1  1  0  0  0
 32 34  1  0  0  0  0
 32 31  1  0  0  0  0
 34 30  1  0  0  0  0
M  END
>  <MODEL>
1

>  <REMARK>
 VINA RESULT:      -7.6      0.000      0.000
  Name = 
  3 active torsions:
  status: ('A' for Active; 'I' for Inactive)
    1  A    between atoms: C_17  and  C_28
    2  A    between atoms: C_28  and  N_29
    3  A    between atoms: N_29  and  C_32
                            x       y       z     vdW  Elec       q    Type
                         _______ _______ _______ _____ _____    ______ ____

>  <TORSDO>
F 3

$$$$
=
 OpenBabel11122414273D

 34 40  0  0  1  0  0  0  0  0999 V2000
  161.7990  208.3780  149.6000 C   0  0  0  0  0  0  0  0  0  0  0  0
  161.7210  206.1650  148.3770 C   0  0  0  0  0  3  0  0  0  0  0  0
  159.2500  210.2590  155.1320 N   0  0  0  0  0  2  0  0  0  0  0  0
  161.7930  210.3150  151.0630 C   0  0  0  0  0  0  0  0  0  0  0  0
  161.9020  209.9590  153.5420 C   0  0  0  0  0  0  0  0  0  0  0  0
  161.4920  209.8380  156.0210 C   0  0  0  0  0  2  0  0  0  0  0  0
  160.1200  210.4440  156.2870 C   0  0  0  0  0  2  0  0  0  0  0  0
  159.9020  212.2240  153.7860 C   0  0  0  0  0  2  0  0  0  0  0  0
  161.6900  206.1850  150.6560 C   0  0  0  0  0  0  0  0  0  0  0  0
  160.2440  203.9660  152.1170 C   0  0  0  0  0  2  0  0  0  0  0  0
  161.8790  208.6710  153.3490 N   0  0  0  0  0  0  0  0  0  0  0  0
  160.1440  211.4020  152.5260 C   0  0  0  0  0  2  0  0  0  0  0  0
  161.6940  206.7110  151.9120 N   0  0  0  0  0  0  0  0  0  0  0  0
  161.6270  204.8540  148.8620 C   0  0  0  0  0  3  0  0  0  0  0  0
  161.5980  210.9330  152.4220 C   0  0  2  0  0  3  0  0  0  0  0  0
  158.8310  211.5760  154.6630 C   0  0  0  0  0  2  0  0  0  0  0  0
  161.4370  203.7070  151.1950 C   0  0  2  0  0  3  0  0  0  0  0  0
  161.7700  208.9210  150.9050 C   0  0  0  0  0  0  0  0  0  0  0  0
  162.0930  210.4760  154.8600 N   0  0  0  0  0  2  0  0  0  0  0  0
  161.7430  208.0780  152.0480 C   0  0  0  0  0  0  0  0  0  0  0  0
  161.9110  210.6070  148.7010 C   0  0  0  0  0  3  0  0  0  0  0  0
  160.5030  204.9830  153.2430 C   0  0  0  0  0  2  0  0  0  0  0  0
  161.8610  211.1150  149.9630 N   0  0  0  0  0  0  0  0  0  0  0  0
  161.7630  205.8410  153.0860 C   0  0  0  0  0  2  0  0  0  0  0  0
  161.6030  204.8730  150.2600 C   0  0  0  0  0  0  0  0  0  0  0  0
  161.8740  209.2260  148.4930 C   0  0  0  0  0  3  0  0  0  0  0  0
  161.7510  206.9950  149.4810 C   0  0  0  0  0  0  0  0  0  0  0  0
  161.2340  202.4000  150.4410 C   0  0  0  0  0  2  0  0  0  0  0  0
  160.0090  202.4620  149.6600 N   0  0  0  0  0  2  0  0  0  0  0  0
  161.0580  200.9430  146.6920 O   0  0  0  0  0  0  0  0  0  0  0  0
  161.2460  200.4970  149.0030 C   0  0  0  0  0  2  0  0  0  0  0  0
  160.0040  201.3060  148.7800 C   0  0  2  0  0  3  0  0  0  0  0  0
  161.9780  200.5850  147.6850 C   0  0  0  0  0  2  0  0  0  0  0  0
  160.1180  201.7570  147.3400 C   0  0  0  0  0  2  0  0  0  0  0  0
  1 18  1  0  0  0  0
  2 14  2  0  0  0  0
  2 27  1  0  0  0  0
  3  7  1  0  0  0  0
  4 15  1  0  0  0  0
  5 19  1  0  0  0  0
  6  7  1  0  0  0  0
  8 16  1  0  0  0  0
  9 13  1  0  0  0  0
 10 22  1  0  0  0  0
 11  5  2  0  0  0  0
 12  8  1  0  0  0  0
 13 20  1  0  0  0  0
 13 24  1  0  0  0  0
 14 25  1  0  0  0  0
 15 12  1  6  0  0  0
 15  5  1  0  0  0  0
 16  3  1  0  0  0  0
 17 28  1  6  0  0  0
 17 10  1  0  0  0  0
 18  4  1  0  0  0  0
 18 20  2  0  0  0  0
 19  6  1  0  0  0  0
 20 11  1  0  0  0  0
 21 23  1  0  0  0  0
 23  4  2  0  0  0  0
 24 22  1  0  0  0  0
 25  9  2  0  0  0  0
 25 17  1  0  0  0  0
 26 21  2  0  0  0  0
 26  1  1  0  0  0  0
 27  1  2  0  0  0  0
 27  9  1  0  0  0  0
 29 28  1  0  0  0  0
 30 34  1  0  0  0  0
 30 33  1  0  0  0  0
 32 31  1  0  0  0  0
 32 29  1  1  0  0  0
 33 31  1  0  0  0  0
 34 32  1  0  0  0  0
M  END
>  <MODEL>
2

>  <REMARK>
 VINA RESULT:      -6.9      3.382      8.954
  Name = 
  3 active torsions:
  status: ('A' for Active; 'I' for Inactive)
    1  A    between atoms: C_17  and  C_28
    2  A    between atoms: C_28  and  N_29
    3  A    between atoms: N_29  and  C_32
                            x       y       z     vdW  Elec       q    Type
                         _______ _______ _______ _____ _____    ______ ____

>  <TORSDO>
F 3

$$$$
=
 OpenBabel11122414273D

 34 40  0  0  1  0  0  0  0  0999 V2000
  160.8330  211.2060  151.2750 C   0  0  0  0  0  0  0  0  0  0  0  0
  161.9250  209.1370  150.3150 C   0  0  0  0  0  3  0  0  0  0  0  0
  156.4540  211.9580  155.8470 N   0  0  0  0  0  2  0  0  0  0  0  0
  159.7110  212.9910  152.4780 C   0  0  0  0  0  0  0  0  0  0  0  0
  159.3230  212.7330  154.9410 C   0  0  0  0  0  0  0  0  0  0  0  0
  158.3840  212.4810  157.2610 C   0  0  0  0  0  2  0  0  0  0  0  0
  156.8650  212.4870  157.1420 C   0  0  0  0  0  2  0  0  0  0  0  0
  156.6110  214.0060  154.4770 C   0  0  0  0  0  2  0  0  0  0  0  0
  161.3180  209.1640  152.5120 C   0  0  0  0  0  0  0  0  0  0  0  0
  160.5240  206.5650  153.8410 C   0  0  0  0  0  2  0  0  0  0  0  0
  159.8480  211.5420  154.8900 N   0  0  0  0  0  0  0  0  0  0  0  0
  157.4600  213.3390  153.4020 C   0  0  0  0  0  2  0  0  0  0  0  0
  160.8030  209.6600  153.6710 N   0  0  0  0  0  0  0  0  0  0  0  0
  162.2260  207.9030  150.9070 C   0  0  0  0  0  3  0  0  0  0  0  0
  158.9580  213.4920  153.6820 C   0  0  2  0  0  3  0  0  0  0  0  0
  155.6910  212.9920  155.1540 C   0  0  0  0  0  2  0  0  0  0  0  0
  161.9160  206.7980  153.2470 C   0  0  2  0  0  3  0  0  0  0  0  0
  160.2690  211.7040  152.4720 C   0  0  0  0  0  0  0  0  0  0  0  0
  158.9620  213.2950  156.2030 N   0  0  0  0  0  2  0  0  0  0  0  0
  160.2840  210.9320  153.6640 C   0  0  0  0  0  0  0  0  0  0  0  0
  160.2960  213.2840  150.1870 C   0  0  0  0  0  3  0  0  0  0  0  0
  160.0790  207.6110  154.8790 C   0  0  0  0  0  2  0  0  0  0  0  0
  159.7380  213.7410  151.3410 N   0  0  0  0  0  0  0  0  0  0  0  0
  160.9050  208.9020  154.9180 C   0  0  0  0  0  2  0  0  0  0  0  0
  161.8470  207.9230  152.2520 C   0  0  0  0  0  0  0  0  0  0  0  0
  160.8490  212.0020  150.1280 C   0  0  0  0  0  3  0  0  0  0  0  0
  161.3540  209.9190  151.3000 C   0  0  0  0  0  0  0  0  0  0  0  0
  162.4300  205.5130  152.6140 C   0  0  0  0  0  2  0  0  0  0  0  0
  161.3130  204.6480  152.2670 N   0  0  0  0  0  2  0  0  0  0  0  0
  160.8090  201.7440  150.3870 O   0  0  0  0  0  0  0  0  0  0  0  0
  161.1900  204.0310  149.9370 C   0  0  0  0  0  2  0  0  0  0  0  0
  161.7940  203.7070  151.2700 C   0  0  2  0  0  3  0  0  0  0  0  0
  160.3480  202.8190  149.6160 C   0  0  0  0  0  2  0  0  0  0  0  0
  161.2720  202.3200  151.5780 C   0  0  0  0  0  2  0  0  0  0  0  0
  1 27  2  0  0  0  0
  1 18  1  0  0  0  0
  2 14  2  0  0  0  0
  2 27  1  0  0  0  0
  3  7  1  0  0  0  0
  4 15  1  0  0  0  0
  5 19  1  0  0  0  0
  7  6  1  0  0  0  0
  8 16  1  0  0  0  0
  9 13  1  0  0  0  0
 10 22  1  0  0  0  0
 11  5  2  0  0  0  0
 12  8  1  0  0  0  0
 13 24  1  0  0  0  0
 14 25  1  0  0  0  0
 15 12  1  6  0  0  0
 15  5  1  0  0  0  0
 16  3  1  0  0  0  0
 17 28  1  6  0  0  0
 17 10  1  0  0  0  0
 18  4  1  0  0  0  0
 18 20  2  0  0  0  0
 19  6  1  0  0  0  0
 20 13  1  0  0  0  0
 20 11  1  0  0  0  0
 21 23  1  0  0  0  0
 22 24  1  0  0  0  0
 23  4  2  0  0  0  0
 25  9  2  0  0  0  0
 25 17  1  0  0  0  0
 26 21  2  0  0  0  0
 26  1  1  0  0  0  0
 27  9  1  0  0  0  0
 29 28  1  0  0  0  0
 30 34  1  0  0  0  0
 31 32  1  0  0  0  0
 32 34  1  0  0  0  0
 32 29  1  1  0  0  0
 33 31  1  0  0  0  0
 33 30  1  0  0  0  0
M  END
>  <MODEL>
3

>  <REMARK>
 VINA RESULT:      -6.8      3.802      9.914
  Name = 
  3 active torsions:
  status: ('A' for Active; 'I' for Inactive)
    1  A    between atoms: C_17  and  C_28
    2  A    between atoms: C_28  and  N_29
    3  A    between atoms: N_29  and  C_32
                            x       y       z     vdW  Elec       q    Type
                         _______ _______ _______ _____ _____    ______ ____

>  <TORSDO>
F 3

$$$$
=
 OpenBabel11122414273D

 34 40  0  0  1  0  0  0  0  0999 V2000
  161.7900  208.6880  149.4940 C   0  0  0  0  0  0  0  0  0  0  0  0
  161.7310  206.7860  147.8280 C   0  0  0  0  0  3  0  0  0  0  0  0
  159.1400  209.3650  155.2530 N   0  0  0  0  0  2  0  0  0  0  0  0
  161.7590  210.2700  151.3350 C   0  0  0  0  0  0  0  0  0  0  0  0
  161.8210  209.3950  153.6840 C   0  0  0  0  0  0  0  0  0  0  0  0
  161.3640  208.7520  156.0720 C   0  0  0  0  0  2  0  0  0  0  0  0
  159.9880  209.2950  156.4360 C   0  0  0  0  0  2  0  0  0  0  0  0
  159.8200  211.5670  154.3670 C   0  0  0  0  0  2  0  0  0  0  0  0
  161.6580  206.3210  150.0580 C   0  0  0  0  0  0  0  0  0  0  0  0
  160.1800  203.8510  150.9880 C   0  0  0  0  0  2  0  0  0  0  0  0
  161.7990  208.1780  153.2210 N   0  0  0  0  0  0  0  0  0  0  0  0
  160.0850  211.0300  152.9660 C   0  0  0  0  0  2  0  0  0  0  0  0
  161.6390  206.5690  151.3970 N   0  0  0  0  0  0  0  0  0  0  0  0
  161.6260  205.4030  148.0220 C   0  0  0  0  0  3  0  0  0  0  0  0
  161.5390  210.5860  152.7910 C   0  0  2  0  0  3  0  0  0  0  0  0
  158.7320  210.7540  155.0670 C   0  0  0  0  0  2  0  0  0  0  0  0
  161.3910  203.7860  150.0540 C   0  0  2  0  0  3  0  0  0  0  0  0
  161.7370  208.9420  150.8850 C   0  0  0  0  0  0  0  0  0  0  0  0
  161.9880  209.6190  155.0840 N   0  0  0  0  0  2  0  0  0  0  0  0
  161.6870  207.8750  151.8220 C   0  0  0  0  0  0  0  0  0  0  0  0
  161.9220  211.0560  149.0920 C   0  0  0  0  0  3  0  0  0  0  0  0
  160.4200  204.6040  152.3090 C   0  0  0  0  0  2  0  0  0  0  0  0
  161.8490  211.2850  150.4320 N   0  0  0  0  0  0  0  0  0  0  0  0
  161.6840  205.4690  152.3610 C   0  0  0  0  0  2  0  0  0  0  0  0
  161.5750  205.1230  149.3910 C   0  0  0  0  0  0  0  0  0  0  0  0
  161.8870  209.7510  148.5940 C   0  0  0  0  0  3  0  0  0  0  0  0
  161.7420  207.3620  149.0830 C   0  0  0  0  0  0  0  0  0  0  0  0
  161.2000  202.6710  149.0360 C   0  0  0  0  0  2  0  0  0  0  0  0
  160.7400  203.2250  147.7720 N   0  0  0  0  0  2  0  0  0  0  0  0
  160.6190  200.4360  145.6680 O   0  0  0  0  0  0  0  0  0  0  0  0
  160.7100  202.7810  145.4000 C   0  0  0  0  0  2  0  0  0  0  0  0
  161.3430  202.4320  146.7140 C   0  0  2  0  0  3  0  0  0  0  0  0
  160.0300  201.5020  144.9730 C   0  0  0  0  0  2  0  0  0  0  0  0
  160.9980  200.9710  146.9060 C   0  0  0  0  0  2  0  0  0  0  0  0
  1 18  1  0  0  0  0
  2 14  2  0  0  0  0
  2 27  1  0  0  0  0
  3  7  1  0  0  0  0
  4 15  1  0  0  0  0
  5 19  1  0  0  0  0
  6  7  1  0  0  0  0
  8 16  1  0  0  0  0
  9 13  1  0  0  0  0
 10 22  1  0  0  0  0
 11  5  2  0  0  0  0
 12  8  1  0  0  0  0
 13 20  1  0  0  0  0
 13 24  1  0  0  0  0
 14 25  1  0  0  0  0
 15 12  1  6  0  0  0
 15  5  1  0  0  0  0
 16  3  1  0  0  0  0
 17 28  1  6  0  0  0
 17 10  1  0  0  0  0
 18  4  1  0  0  0  0
 18 20  2  0  0  0  0
 19  6  1  0  0  0  0
 20 11  1  0  0  0  0
 21 23  1  0  0  0  0
 22 24  1  0  0  0  0
 23  4  2  0  0  0  0
 25 17  1  0  0  0  0
 25  9  2  0  0  0  0
 26 21  2  0  0  0  0
 26  1  1  0  0  0  0
 27  1  2  0  0  0  0
 27  9  1  0  0  0  0
 29 28  1  0  0  0  0
 30 34  1  0  0  0  0
 31 32  1  0  0  0  0
 32 34  1  0  0  0  0
 32 29  1  1  0  0  0
 33 31  1  0  0  0  0
 33 30  1  0  0  0  0
M  END
>  <MODEL>
4

>  <REMARK>
 VINA RESULT:      -6.8      3.190      9.156
  Name = 
  3 active torsions:
  status: ('A' for Active; 'I' for Inactive)
    1  A    between atoms: C_17  and  C_28
    2  A    between atoms: C_28  and  N_29
    3  A    between atoms: N_29  and  C_32
                            x       y       z     vdW  Elec       q    Type
                         _______ _______ _______ _____ _____    ______ ____

>  <TORSDO>
F 3

$$$$
=
 OpenBabel11122414273D

 34 40  0  0  1  0  0  0  0  0999 V2000
  160.2920  210.4350  139.5750 C   0  0  0  0  0  0  0  0  0  0  0  0
  162.1490  211.1120  141.1530 C   0  0  0  0  0  3  0  0  0  0  0  0
  153.9610  211.0890  139.9480 N   0  0  0  0  0  2  0  0  0  0  0  0
  158.3140  210.0300  138.2280 C   0  0  0  0  0  0  0  0  0  0  0  0
  156.4730  211.7310  138.2370 C   0  0  0  0  0  0  0  0  0  0  0  0
  154.3250  213.0170  138.4830 C   0  0  0  0  0  2  0  0  0  0  0  0
  153.3000  212.0770  139.1050 C   0  0  0  0  0  2  0  0  0  0  0  0
  154.5410  209.3950  138.2470 C   0  0  0  0  0  2  0  0  0  0  0  0
  160.2640  212.3870  141.0330 C   0  0  0  0  0  0  0  0  0  0  0  0
  159.3640  213.9020  143.4920 C   0  0  0  0  0  2  0  0  0  0  0  0
  157.1390  212.4330  139.1080 N   0  0  0  0  0  0  0  0  0  0  0  0
  156.0020  209.3250  138.6750 C   0  0  0  0  0  2  0  0  0  0  0  0
  159.0270  212.7710  140.6130 N   0  0  0  0  0  0  0  0  0  0  0  0
  162.2400  212.1800  142.0550 C   0  0  0  0  0  3  0  0  0  0  0  0
  156.8730  210.3110  137.8920 C   0  0  2  0  0  3  0  0  0  0  0  0
  153.6440  209.7620  139.4280 C   0  0  0  0  0  2  0  0  0  0  0  0
  160.7140  214.1530  142.8150 C   0  0  2  0  0  3  0  0  0  0  0  0
  158.9930  210.8190  139.1670 C   0  0  0  0  0  0  0  0  0  0  0  0
  155.2660  212.2520  137.6790 N   0  0  0  0  0  2  0  0  0  0  0  0
  158.3860  211.9990  139.6740 C   0  0  0  0  0  0  0  0  0  0  0  0
  160.1780  208.5520  138.0830 C   0  0  0  0  0  3  0  0  0  0  0  0
  158.1410  214.0280  142.5660 C   0  0  0  0  0  2  0  0  0  0  0  0
  158.9200  208.9220  137.7150 N   0  0  0  0  0  0  0  0  0  0  0  0
  158.4430  214.0350  141.0640 C   0  0  0  0  0  2  0  0  0  0  0  0
  161.0790  212.9560  141.9810 C   0  0  0  0  0  0  0  0  0  0  0  0
  160.8870  209.2970  139.0270 C   0  0  0  0  0  3  0  0  0  0  0  0
  160.9250  211.2280  140.5240 C   0  0  0  0  0  0  0  0  0  0  0  0
  161.7730  214.4530  143.8670 C   0  0  0  0  0  2  0  0  0  0  0  0
  161.1720  214.4530  145.1920 N   0  0  0  0  0  2  0  0  0  0  0  0
  162.4080  213.3950  148.2850 O   0  0  0  0  0  0  0  0  0  0  0  0
  160.8830  212.5750  146.6790 C   0  0  0  0  0  2  0  0  0  0  0  0
  161.8750  213.4550  145.9800 C   0  0  2  0  0  3  0  0  0  0  0  0
  161.1270  212.8460  148.1450 C   0  0  0  0  0  2  0  0  0  0  0  0
  162.6240  214.1280  147.1100 C   0  0  0  0  0  2  0  0  0  0  0  0
  1 27  2  0  0  0  0
  2 14  2  0  0  0  0
  4 18  1  0  0  0  0
  5 11  2  0  0  0  0
  6  7  1  0  0  0  0
  7  3  1  0  0  0  0
  8 12  1  0  0  0  0
  8 16  1  0  0  0  0
  9 25  2  0  0  0  0
 11 20  1  0  0  0  0
 13  9  1  0  0  0  0
 13 24  1  0  0  0  0
 15  4  1  0  0  0  0
 15  5  1  0  0  0  0
 15 12  1  1  0  0  0
 16  3  1  0  0  0  0
 17 10  1  0  0  0  0
 17 28  1  1  0  0  0
 18  1  1  0  0  0  0
 18 20  2  0  0  0  0
 19  5  1  0  0  0  0
 19  6  1  0  0  0  0
 20 13  1  0  0  0  0
 21 26  2  0  0  0  0
 22 10  1  0  0  0  0
 23 21  1  0  0  0  0
 23  4  2  0  0  0  0
 24 22  1  0  0  0  0
 25 14  1  0  0  0  0
 25 17  1  0  0  0  0
 26  1  1  0  0  0  0
 27  9  1  0  0  0  0
 27  2  1  0  0  0  0
 28 29  1  0  0  0  0
 31 33  1  0  0  0  0
 32 29  1  6  0  0  0
 32 31  1  0  0  0  0
 32 34  1  0  0  0  0
 33 30  1  0  0  0  0
 34 30  1  0  0  0  0
M  END
>  <MODEL>
5

>  <REMARK>
 VINA RESULT:      -5.5      8.610     11.600
  Name = 
  3 active torsions:
  status: ('A' for Active; 'I' for Inactive)
    1  A    between atoms: C_17  and  C_28
    2  A    between atoms: C_28  and  N_29
    3  A    between atoms: N_29  and  C_32
                            x       y       z     vdW  Elec       q    Type
                         _______ _______ _______ _____ _____    ______ ____

>  <TORSDO>
F 3

$$$$
=
 OpenBabel11122414273D

 34 40  0  0  1  0  0  0  0  0999 V2000
  161.6830  209.3330  151.0030 C   0  0  0  0  0  0  0  0  0  0  0  0
  162.4070  210.0760  148.6970 C   0  0  0  0  0  3  0  0  0  0  0  0
  160.5930  212.6040  156.3660 N   0  0  0  0  0  2  0  0  0  0  0  0
  160.8820  208.9550  153.2630 C   0  0  0  0  0  0  0  0  0  0  0  0
  159.3480  210.6430  154.3030 C   0  0  0  0  0  0  0  0  0  0  0  0
  158.2420  212.4110  155.7090 C   0  0  0  0  0  2  0  0  0  0  0  0
  159.2190  212.7930  156.8140 C   0  0  0  0  0  2  0  0  0  0  0  0
  160.8860  210.2060  156.8790 C   0  0  0  0  0  2  0  0  0  0  0  0
  161.1110  211.4600  149.9620 C   0  0  0  0  0  0  0  0  0  0  0  0
  161.3940  214.4520  149.6120 C   0  0  0  0  0  2  0  0  0  0  0  0
  159.4510  211.3800  153.2340 N   0  0  0  0  0  0  0  0  0  0  0  0
  161.4010  209.8710  155.4840 C   0  0  0  0  0  2  0  0  0  0  0  0
  160.3920  211.8750  151.0410 N   0  0  0  0  0  0  0  0  0  0  0  0
  162.1740  211.2720  148.0060 C   0  0  0  0  0  3  0  0  0  0  0  0
  160.2670  209.4620  154.5400 C   0  0  2  0  0  3  0  0  0  0  0  0
  161.2350  211.6440  157.2590 C   0  0  0  0  0  2  0  0  0  0  0  0
  160.9500  213.5260  148.4770 C   0  0  2  0  0  3  0  0  0  0  0  0
  160.9620  209.7820  152.1340 C   0  0  0  0  0  0  0  0  0  0  0  0
  158.4400  211.0180  155.3390 N   0  0  0  0  0  2  0  0  0  0  0  0
  160.3030  211.0410  152.1290 C   0  0  0  0  0  0  0  0  0  0  0  0
  162.1620  207.2770  152.1560 C   0  0  0  0  0  3  0  0  0  0  0  0
  160.5520  214.3520  150.8970 C   0  0  0  0  0  2  0  0  0  0  0  0
  161.4820  207.7320  153.2450 N   0  0  0  0  0  0  0  0  0  0  0  0
  159.6350  213.1280  150.9970 C   0  0  0  0  0  2  0  0  0  0  0  0
  161.3840  212.1200  148.7880 C   0  0  0  0  0  0  0  0  0  0  0  0
  162.2820  208.0720  151.0140 C   0  0  0  0  0  3  0  0  0  0  0  0
  161.7610  210.1890  149.9120 C   0  0  0  0  0  0  0  0  0  0  0  0
  161.5250  214.0160  147.1550 C   0  0  0  0  0  2  0  0  0  0  0  0
  160.6180  213.6860  146.0670 N   0  0  0  0  0  2  0  0  0  0  0  0
  162.5250  212.6610  143.3220 O   0  0  0  0  0  0  0  0  0  0  0  0
  160.4210  213.6780  143.6610 C   0  0  0  0  0  2  0  0  0  0  0  0
  161.3010  214.0170  144.8270 C   0  0  2  0  0  3  0  0  0  0  0  0
  161.1800  212.5920  142.9370 C   0  0  0  0  0  2  0  0  0  0  0  0
  162.5040  213.1160  144.6470 C   0  0  0  0  0  2  0  0  0  0  0  0
  1 26  1  0  0  0  0
  1 18  1  0  0  0  0
  2 27  1  0  0  0  0
  3  7  1  0  0  0  0
  3 16  1  0  0  0  0
  4 15  1  0  0  0  0
  5 15  1  0  0  0  0
  5 19  1  0  0  0  0
  6  7  1  0  0  0  0
  8 16  1  0  0  0  0
  9 13  1  0  0  0  0
 10 22  1  0  0  0  0
 11  5  2  0  0  0  0
 12  8  1  0  0  0  0
 13 20  1  0  0  0  0
 14  2  2  0  0  0  0
 14 25  1  0  0  0  0
 15 12  1  1  0  0  0
 17 28  1  6  0  0  0
 17 25  1  0  0  0  0
 17 10  1  0  0  0  0
 18  4  1  0  0  0  0
 19  6  1  0  0  0  0
 20 18  2  0  0  0  0
 20 11  1  0  0  0  0
 21 23  1  0  0  0  0
 22 24  1  0  0  0  0
 23  4  2  0  0  0  0
 24 13  1  0  0  0  0
 25  9  2  0  0  0  0
 26 21  2  0  0  0  0
 27  9  1  0  0  0  0
 27  1  2  0  0  0  0
 29 28  1  0  0  0  0
 30 34  1  0  0  0  0
 31 32  1  0  0  0  0
 32 29  1  1  0  0  0
 33 30  1  0  0  0  0
 33 31  1  0  0  0  0
 34 32  1  0  0  0  0
M  END
>  <MODEL>
6

>  <REMARK>
 VINA RESULT:      -4.8      5.347      9.653
  Name = 
  3 active torsions:
  status: ('A' for Active; 'I' for Inactive)
    1  A    between atoms: C_17  and  C_28
    2  A    between atoms: C_28  and  N_29
    3  A    between atoms: N_29  and  C_32
                            x       y       z     vdW  Elec       q    Type
                         _______ _______ _______ _____ _____    ______ ____

>  <TORSDO>
F 3

$$$$
