=
 OpenBabel11122413013D

 32 37  0  0  1  0  0  0  0  0999 V2000
  160.9510  209.8610  152.9290 C   0  0  1  0  0  3  0  0  0  0  0  0
  160.5090  206.2360  150.5560 C   0  0  0  0  0  2  0  0  0  0  0  0
  160.9570  207.0770  149.3790 C   0  0  0  0  0  2  0  0  0  0  0  0
  160.4060  211.5770  151.0710 C   0  0  0  0  0  0  0  0  0  0  0  0
  161.0150  212.2330  149.9120 C   0  0  2  0  0  3  0  0  0  0  0  0
  161.6830  210.5780  155.2790 C   0  0  2  0  0  3  0  0  0  0  0  0
  161.6130  208.0770  154.5840 C   0  0  0  0  0  2  0  0  0  0  0  0
  162.1980  212.2710  147.9010 C   0  0  1  0  0  3  0  0  0  0  0  0
  160.5370  207.0920  151.8080 C   0  0  0  0  0  2  0  0  0  0  0  0
  161.8930  208.6850  153.2100 C   0  0  1  0  0  3  0  0  0  0  0  0
  161.9400  207.6800  152.0530 C   0  0  2  0  0  3  0  0  0  0  0  0
  162.1790  209.7800  150.6880 C   0  0  1  0  0  3  0  0  0  0  0  0
  161.1870  213.4130  148.0080 C   0  0  0  0  0  2  0  0  0  0  0  0
  161.2070  209.1420  155.6270 C   0  0  2  0  0  3  0  0  0  0  0  0
  160.4280  213.1410  149.2160 N   0  0  0  0  0  2  0  0  0  0  0  0
  162.3890  207.5300  149.6210 C   0  0  0  0  0  2  0  0  0  0  0  0
  162.5150  208.3370  150.8470 N   0  0  2  0  0  0  0  0  0  0  0  0
  162.1960  210.2310  149.2880 N   0  0  0  0  0  2  0  0  0  0  0  0
  161.3490  211.0260  153.8380 C   0  0  0  0  0  2  0  0  0  0  0  0
  159.4280  212.0990  151.6690 O   0  0  0  0  0  0  0  0  0  0  0  0
  163.5560  212.8170  147.5100 C   0  0  0  0  0  1  0  0  0  0  0  0
  160.8770  210.1870  151.4220 C   0  0  1  0  0  3  0  0  0  0  0  0
  162.2520  211.6920  149.3040 C   0  0  2  0  0  3  0  0  0  0  0  0
  159.3680  209.5080  157.2610 C   0  0  0  0  0  2  0  0  0  0  0  0
  159.7010  209.1160  155.8350 C   0  0  1  0  0  3  0  0  0  0  0  0
  159.2120  210.5180  156.1450 C   0  0  1  0  0  3  0  0  0  0  0  0
  157.7510  210.6260  155.7540 C   0  0  0  0  0  2  0  0  0  0  0  0
  157.5280  211.8680  154.9650 C   0  0  0  0  0  0  0  0  0  0  0  0
  158.5350  212.8190  154.8660 O   0  0  0  0  0  1  0  0  0  0  0  0
  156.4160  212.0720  154.4140 O   0  0  0  0  0  0  0  0  0  0  0  0
  163.4640  210.7310  157.0190 C   0  0  0  0  0  1  0  0  0  0  0  0
  163.1730  210.7350  155.5290 C   0  0  0  0  0  2  0  0  0  0  0  0
  1 10  1  0  0  0  0
  1 19  1  1  0  0  0
  2  9  1  0  0  0  0
  3 16  1  0  0  0  0
  3  2  1  0  0  0  0
  4 20  2  0  0  0  0
  5 15  1  6  0  0  0
  5  4  1  0  0  0  0
  6 32  1  6  0  0  0
  6 14  1  0  0  0  0
  8 21  1  1  0  0  0
  8 13  1  0  0  0  0
  8 23  1  0  0  0  0
 10  7  1  1  0  0  0
 11  9  1  6  0  0  0
 11 10  1  0  0  0  0
 12 18  1  6  0  0  0
 12 17  1  0  0  0  0
 12 22  1  0  0  0  0
 13 15  1  0  0  0  0
 14  7  1  6  0  0  0
 14 25  1  0  0  0  0
 17 16  1  6  0  0  0
 17 11  1  0  0  0  0
 19  6  1  0  0  0  0
 22  4  1  1  0  0  0
 22  1  1  0  0  0  0
 23 18  1  6  0  0  0
 23  5  1  0  0  0  0
 25 26  1  0  0  0  0
 25 24  1  1  0  0  0
 26 27  1  6  0  0  0
 26 24  1  0  0  0  0
 28 27  1  0  0  0  0
 29 28  1  0  0  0  0
 30 28  2  0  0  0  0
 32 31  1  0  0  0  0
M  END
>  <MODEL>
1

>  <REMARK>
 VINA RESULT:      -4.3      0.000      0.000
  Name = 
  4 active torsions:
  status: ('A' for Active; 'I' for Inactive)
    1  A    between atoms: C_7  and  C_19
    2  A    between atoms: C_10  and  C_17
    3  A    between atoms: C_20  and  C_29
    4  A    between atoms: C_29  and  C_30
                            x       y       z     vdW  Elec       q    Type
                         _______ _______ _______ _____ _____    ______ ____

>  <TORSDO>
F 4

$$$$
=
 OpenBabel11122413013D

 32 37  0  0  1  0  0  0  0  0999 V2000
  159.3410  212.3420  151.6480 C   0  0  1  0  0  3  0  0  0  0  0  0
  155.9590  213.3950  154.1810 C   0  0  0  0  0  2  0  0  0  0  0  0
  156.7670  212.8160  155.3220 C   0  0  0  0  0  2  0  0  0  0  0  0
  160.1680  210.2880  152.9860 C   0  0  0  0  0  0  0  0  0  0  0  0
  160.9310  209.9430  154.1880 C   0  0  2  0  0  3  0  0  0  0  0  0
  160.6010  213.2370  149.6030 C   0  0  2  0  0  3  0  0  0  0  0  0
  158.5100  214.4530  150.5470 C   0  0  0  0  0  2  0  0  0  0  0  0
  161.4610  210.0960  156.4560 C   0  0  1  0  0  3  0  0  0  0  0  0
  156.7850  213.3250  152.9110 C   0  0  0  0  0  2  0  0  0  0  0  0
  159.0130  213.8260  151.8470 C   0  0  1  0  0  3  0  0  0  0  0  0
  158.1240  214.0710  153.0720 C   0  0  2  0  0  3  0  0  0  0  0  0
  159.7800  212.5220  154.1610 C   0  0  1  0  0  3  0  0  0  0  0  0
  161.7630  208.7140  155.8760 C   0  0  0  0  0  2  0  0  0  0  0  0
  159.2180  213.8730  149.3020 C   0  0  2  0  0  3  0  0  0  0  0  0
  161.2190  208.7370  154.5290 N   0  0  0  0  0  2  0  0  0  0  0  0
  158.0170  213.6640  155.5140 C   0  0  0  0  0  2  0  0  0  0  0  0
  158.8620  213.6850  154.3070 N   0  0  2  0  0  0  0  0  0  0  0  0
  159.9970  211.7890  155.4180 N   0  0  0  0  0  2  0  0  0  0  0  0
  160.6000  212.2380  150.7820 C   0  0  0  0  0  2  0  0  0  0  0  0
  160.0540  209.4680  152.0360 O   0  0  0  0  0  0  0  0  0  0  0  0
  162.6700  210.6200  157.2020 C   0  0  0  0  0  1  0  0  0  0  0  0
  159.3940  211.5830  152.9910 C   0  0  1  0  0  3  0  0  0  0  0  0
  161.1860  210.9590  155.2350 C   0  0  2  0  0  3  0  0  0  0  0  0
  156.8580  213.2080  148.8840 C   0  0  0  0  0  2  0  0  0  0  0  0
  158.3090  212.8670  148.6120 C   0  0  1  0  0  3  0  0  0  0  0  0
  157.4830  213.5770  147.5570 C   0  0  1  0  0  3  0  0  0  0  0  0
  157.0680  212.5730  146.5000 C   0  0  0  0  0  2  0  0  0  0  0  0
  157.8910  212.7580  145.2740 C   0  0  0  0  0  0  0  0  0  0  0  0
  157.6590  213.8410  144.4370 O   0  0  0  0  0  0  0  0  0  0  0  0
  158.7760  211.9140  144.9770 O   0  0  0  0  0  1  0  0  0  0  0  0
  162.5480  214.4530  148.6260 C   0  0  0  0  0  1  0  0  0  0  0  0
  161.6530  214.3080  149.8430 C   0  0  0  0  0  2  0  0  0  0  0  0
  1 19  1  1  0  0  0
  1 10  1  0  0  0  0
  1 22  1  0  0  0  0
  2  3  1  0  0  0  0
  3 16  1  0  0  0  0
  5  4  1  1  0  0  0
  5 15  1  0  0  0  0
  5 23  1  0  0  0  0
  6 32  1  1  0  0  0
  6 19  1  0  0  0  0
  8 21  1  6  0  0  0
  9  2  1  0  0  0  0
 10  7  1  6  0  0  0
 10 11  1  0  0  0  0
 11  9  1  6  0  0  0
 11 17  1  0  0  0  0
 12 17  1  0  0  0  0
 12 18  1  1  0  0  0
 13  8  1  0  0  0  0
 14  6  1  0  0  0  0
 14  7  1  1  0  0  0
 15 13  1  0  0  0  0
 17 16  1  1  0  0  0
 20  4  2  0  0  0  0
 22  4  1  6  0  0  0
 22 12  1  0  0  0  0
 23 18  1  1  0  0  0
 23  8  1  0  0  0  0
 25 24  1  1  0  0  0
 25 14  1  0  0  0  0
 26 27  1  6  0  0  0
 26 25  1  0  0  0  0
 26 24  1  0  0  0  0
 28 27  1  0  0  0  0
 29 28  2  0  0  0  0
 30 28  1  0  0  0  0
 31 32  1  0  0  0  0
M  END
>  <MODEL>
2

>  <REMARK>
 VINA RESULT:      -3.8      3.323      7.677
  Name = 
  4 active torsions:
  status: ('A' for Active; 'I' for Inactive)
    1  A    between atoms: C_7  and  C_19
    2  A    between atoms: C_10  and  C_17
    3  A    between atoms: C_20  and  C_29
    4  A    between atoms: C_29  and  C_30
                            x       y       z     vdW  Elec       q    Type
                         _______ _______ _______ _____ _____    ______ ____

>  <TORSDO>
F 4

$$$$
=
 OpenBabel11122413013D

 32 37  0  0  1  0  0  0  0  0999 V2000
  159.7910  212.3740  150.5730 C   0  0  1  0  0  3  0  0  0  0  0  0
  156.1810  213.7020  152.6150 C   0  0  0  0  0  2  0  0  0  0  0  0
  156.8170  213.1550  153.8740 C   0  0  0  0  0  2  0  0  0  0  0  0
  160.3530  210.3650  152.1040 C   0  0  0  0  0  0  0  0  0  0  0  0
  160.9480  210.0570  153.4060 C   0  0  2  0  0  3  0  0  0  0  0  0
  161.3290  213.1030  148.6560 C   0  0  2  0  0  3  0  0  0  0  0  0
  159.1990  214.4530  149.2740 C   0  0  0  0  0  2  0  0  0  0  0  0
  161.2070  210.3130  155.7110 C   0  0  1  0  0  3  0  0  0  0  0  0
  157.1500  213.5280  151.4610 C   0  0  0  0  0  2  0  0  0  0  0  0
  159.5110  213.8780  150.6560 C   0  0  1  0  0  3  0  0  0  0  0  0
  158.4930  214.2270  151.7480 C   0  0  2  0  0  3  0  0  0  0  0  0
  159.9310  212.6750  153.1090 C   0  0  1  0  0  3  0  0  0  0  0  0
  161.5110  208.8900  155.2420 C   0  0  0  0  0  2  0  0  0  0  0  0
  160.0240  213.7760  148.1570 C   0  0  2  0  0  3  0  0  0  0  0  0
  161.1360  208.8610  153.8400 N   0  0  0  0  0  2  0  0  0  0  0  0
  158.0730  213.9600  154.1750 C   0  0  0  0  0  2  0  0  0  0  0  0
  159.0570  213.8800  153.0820 N   0  0  2  0  0  0  0  0  0  0  0  0
  159.9600  212.0040  154.4180 N   0  0  0  0  0  2  0  0  0  0  0  0
  161.1390  212.1720  149.8750 C   0  0  0  0  0  2  0  0  0  0  0  0
  160.3160  209.5000  151.1890 O   0  0  0  0  0  0  0  0  0  0  0  0
  162.3410  210.8290  156.5730 C   0  0  0  0  0  1  0  0  0  0  0  0
  159.6450  211.6890  151.9490 C   0  0  1  0  0  3  0  0  0  0  0  0
  161.1220  211.1180  154.4250 C   0  0  2  0  0  3  0  0  0  0  0  0
  157.7510  213.3120  147.2600 C   0  0  0  0  0  2  0  0  0  0  0  0
  159.1590  212.7720  147.4110 C   0  0  1  0  0  3  0  0  0  0  0  0
  158.7120  213.3740  146.0930 C   0  0  1  0  0  3  0  0  0  0  0  0
  158.4060  212.2530  145.1190 C   0  0  0  0  0  2  0  0  0  0  0  0
  159.3500  212.3080  143.9700 C   0  0  0  0  0  0  0  0  0  0  0  0
  158.9800  212.9530  142.7960 O   0  0  0  0  0  0  0  0  0  0  0  0
  160.4710  211.7430  144.0470 O   0  0  0  0  0  1  0  0  0  0  0  0
  163.2120  214.4530  147.7310 C   0  0  0  0  0  1  0  0  0  0  0  0
  162.3940  214.1420  148.9700 C   0  0  0  0  0  2  0  0  0  0  0  0
  1 19  1  1  0  0  0
  1 10  1  0  0  0  0
  1 22  1  0  0  0  0
  2  3  1  0  0  0  0
  3 16  1  0  0  0  0
  5  4  1  1  0  0  0
  5 15  1  0  0  0  0
  5 23  1  0  0  0  0
  6 32  1  1  0  0  0
  6 19  1  0  0  0  0
  8 21  1  1  0  0  0
  9  2  1  0  0  0  0
 10  7  1  6  0  0  0
 10 11  1  0  0  0  0
 11  9  1  6  0  0  0
 11 17  1  0  0  0  0
 12 18  1  1  0  0  0
 13  8  1  0  0  0  0
 14  6  1  0  0  0  0
 14  7  1  1  0  0  0
 15 13  1  0  0  0  0
 17 12  1  0  0  0  0
 17 16  1  1  0  0  0
 20  4  2  0  0  0  0
 22  4  1  6  0  0  0
 22 12  1  0  0  0  0
 23 18  1  1  0  0  0
 23  8  1  0  0  0  0
 25 24  1  1  0  0  0
 25 14  1  0  0  0  0
 26 27  1  6  0  0  0
 26 24  1  0  0  0  0
 26 25  1  0  0  0  0
 28 30  1  0  0  0  0
 28 27  1  0  0  0  0
 29 28  2  0  0  0  0
 31 32  1  0  0  0  0
M  END
>  <MODEL>
3

>  <REMARK>
 VINA RESULT:      -2.6      3.287      7.943
  Name = 
  4 active torsions:
  status: ('A' for Active; 'I' for Inactive)
    1  A    between atoms: C_7  and  C_19
    2  A    between atoms: C_10  and  C_17
    3  A    between atoms: C_20  and  C_29
    4  A    between atoms: C_29  and  C_30
                            x       y       z     vdW  Elec       q    Type
                         _______ _______ _______ _____ _____    ______ ____

>  <TORSDO>
F 4

$$$$
=
 OpenBabel11122413013D

 32 37  0  0  1  0  0  0  0  0999 V2000
  159.2610  210.7350  153.6510 C   0  0  1  0  0  3  0  0  0  0  0  0
  158.0480  213.0180  150.1470 C   0  0  0  0  0  2  0  0  0  0  0  0
  157.0180  213.6600  151.0510 C   0  0  0  0  0  2  0  0  0  0  0  0
  156.9640  210.6490  154.8390 C   0  0  0  0  0  0  0  0  0  0  0  0
  156.0730  211.4750  155.6570 C   0  0  2  0  0  3  0  0  0  0  0  0
  161.3880  209.7840  154.7200 C   0  0  2  0  0  3  0  0  0  0  0  0
  161.4580  211.0430  152.4500 C   0  0  0  0  0  2  0  0  0  0  0  0
  154.8860  213.4200  156.1610 C   0  0  1  0  0  3  0  0  0  0  0  0
  158.8870  212.0570  150.9660 C   0  0  0  0  0  2  0  0  0  0  0  0
  160.2480  211.7490  153.0630 C   0  0  1  0  0  3  0  0  0  0  0  0
  159.5640  212.7730  152.1500 C   0  0  2  0  0  3  0  0  0  0  0  0
  157.9330  212.8810  154.0620 C   0  0  1  0  0  3  0  0  0  0  0  0
  154.2060  212.1620  156.7030 C   0  0  0  0  0  2  0  0  0  0  0  0
  161.8660  209.7820  153.2440 C   0  0  2  0  0  3  0  0  0  0  0  0
  154.9670  211.0510  156.1570 N   0  0  0  0  0  2  0  0  0  0  0  0
  157.7430  214.4530  152.1290 C   0  0  0  0  0  2  0  0  0  0  0  0
  158.6170  213.5980  152.9510 N   0  0  2  0  0  0  0  0  0  0  0  0
  156.6260  213.4590  154.4130 N   0  0  0  0  0  2  0  0  0  0  0  0
  159.8910  210.1190  154.9030 C   0  0  0  0  0  2  0  0  0  0  0  0
  156.8880  209.3920  154.8680 O   0  0  0  0  0  0  0  0  0  0  0  0
  155.0150  214.4530  157.2610 C   0  0  0  0  0  1  0  0  0  0  0  0
  157.8580  211.3490  153.8450 C   0  0  1  0  0  3  0  0  0  0  0  0
  156.2630  212.9420  155.7310 C   0  0  2  0  0  3  0  0  0  0  0  0
  160.8920  208.8940  151.1350 C   0  0  0  0  0  2  0  0  0  0  0  0
  161.3720  208.5350  152.5270 C   0  0  1  0  0  3  0  0  0  0  0  0
  162.2540  208.2640  151.3240 C   0  0  1  0  0  3  0  0  0  0  0  0
  162.1860  206.7880  150.9870 C   0  0  0  0  0  2  0  0  0  0  0  0
  161.7280  206.6100  149.5820 C   0  0  0  0  0  0  0  0  0  0  0  0
  160.5590  205.9100  149.3140 O   0  0  0  0  0  1  0  0  0  0  0  0
  162.4190  207.0630  148.6330 O   0  0  0  0  0  0  0  0  0  0  0  0
  161.3860  211.3450  156.6670 C   0  0  0  0  0  1  0  0  0  0  0  0
  162.2280  210.7290  155.5650 C   0  0  0  0  0  2  0  0  0  0  0  0
  1 22  1  0  0  0  0
  1 19  1  1  0  0  0
  2  9  1  0  0  0  0
  2  3  1  0  0  0  0
  3 16  1  0  0  0  0
  4 20  2  0  0  0  0
  5  4  1  6  0  0  0
  5 23  1  0  0  0  0
  5 15  1  0  0  0  0
  6 19  1  0  0  0  0
  6 32  1  1  0  0  0
  8 13  1  0  0  0  0
  8 21  1  1  0  0  0
 10  7  1  6  0  0  0
 10  1  1  0  0  0  0
 11  9  1  6  0  0  0
 11 17  1  0  0  0  0
 11 10  1  0  0  0  0
 12 18  1  6  0  0  0
 14  7  1  6  0  0  0
 14  6  1  0  0  0  0
 15 13  1  0  0  0  0
 17 16  1  6  0  0  0
 17 12  1  0  0  0  0
 22 12  1  0  0  0  0
 22  4  1  1  0  0  0
 23 18  1  6  0  0  0
 23  8  1  0  0  0  0
 24 26  1  0  0  0  0
 25 24  1  6  0  0  0
 25 14  1  0  0  0  0
 26 27  1  6  0  0  0
 26 25  1  0  0  0  0
 28 27  1  0  0  0  0
 29 28  1  0  0  0  0
 30 28  2  0  0  0  0
 32 31  1  0  0  0  0
M  END
>  <MODEL>
4

>  <REMARK>
 VINA RESULT:      -2.2      3.348      6.975
  Name = 
  4 active torsions:
  status: ('A' for Active; 'I' for Inactive)
    1  A    between atoms: C_7  and  C_19
    2  A    between atoms: C_10  and  C_17
    3  A    between atoms: C_20  and  C_29
    4  A    between atoms: C_29  and  C_30
                            x       y       z     vdW  Elec       q    Type
                         _______ _______ _______ _____ _____    ______ ____

>  <TORSDO>
F 4

$$$$
=
 OpenBabel11122413013D

 32 37  0  0  1  0  0  0  0  0999 V2000
  159.3800  210.4430  153.1660 C   0  0  1  0  0  3  0  0  0  0  0  0
  158.3620  213.1440  149.9050 C   0  0  0  0  0  2  0  0  0  0  0  0
  157.4790  213.8540  150.9090 C   0  0  0  0  0  2  0  0  0  0  0  0
  157.1510  210.5950  154.4700 C   0  0  0  0  0  0  0  0  0  0  0  0
  156.4290  211.4740  155.3930 C   0  0  2  0  0  3  0  0  0  0  0  0
  161.3900  209.1160  154.0460 C   0  0  2  0  0  3  0  0  0  0  0  0
  161.5430  210.5250  151.8700 C   0  0  0  0  0  2  0  0  0  0  0  0
  155.5660  213.5240  156.0990 C   0  0  1  0  0  3  0  0  0  0  0  0
  159.0860  212.0110  150.6060 C   0  0  0  0  0  2  0  0  0  0  0  0
  160.4790  211.3470  152.5970 C   0  0  1  0  0  3  0  0  0  0  0  0
  159.9140  212.5280  151.7990 C   0  0  2  0  0  3  0  0  0  0  0  0
  158.4030  212.7190  153.8020 C   0  0  1  0  0  3  0  0  0  0  0  0
  154.7330  212.3380  156.5870 C   0  0  0  0  0  2  0  0  0  0  0  0
  161.7960  209.1600  152.5490 C   0  0  2  0  0  3  0  0  0  0  0  0
  155.2960  211.1760  155.9230 N   0  0  0  0  0  2  0  0  0  0  0  0
  158.3610  214.4480  151.9980 C   0  0  0  0  0  2  0  0  0  0  0  0
  159.1350  213.4150  152.7080 N   0  0  2  0  0  0  0  0  0  0  0  0
  157.2130  213.4500  154.2640 N   0  0  0  0  0  2  0  0  0  0  0  0
  159.9680  209.6470  154.3350 C   0  0  0  0  0  2  0  0  0  0  0  0
  156.8920  209.3630  154.4150 O   0  0  0  0  0  0  0  0  0  0  0  0
  155.8940  214.4390  157.2600 C   0  0  0  0  0  1  0  0  0  0  0  0
  158.0930  211.2350  153.4800 C   0  0  1  0  0  3  0  0  0  0  0  0
  156.8360  212.8880  155.5600 C   0  0  2  0  0  3  0  0  0  0  0  0
  161.6940  207.9320  150.3880 C   0  0  0  0  0  2  0  0  0  0  0  0
  161.0920  208.0570  151.7740 C   0  0  1  0  0  3  0  0  0  0  0  0
  162.0790  206.9470  151.4700 C   0  0  1  0  0  3  0  0  0  0  0  0
  161.3170  205.6510  151.2760 C   0  0  0  0  0  2  0  0  0  0  0  0
  161.1030  204.9870  152.5900 C   0  0  0  0  0  0  0  0  0  0  0  0
  160.6620  203.6710  152.6410 O   0  0  0  0  0  0  0  0  0  0  0  0
  161.2880  205.6280  153.6570 O   0  0  0  0  0  1  0  0  0  0  0  0
  161.7300  210.3910  156.1630 C   0  0  0  0  0  1  0  0  0  0  0  0
  162.3970  209.8600  154.9070 C   0  0  0  0  0  2  0  0  0  0  0  0
  1 22  1  0  0  0  0
  1 19  1  1  0  0  0
  2  9  1  0  0  0  0
  2  3  1  0  0  0  0
  3 16  1  0  0  0  0
  5  4  1  6  0  0  0
  5 23  1  0  0  0  0
  5 15  1  0  0  0  0
  6 19  1  0  0  0  0
  6 32  1  1  0  0  0
  8 13  1  0  0  0  0
  8 21  1  1  0  0  0
 10  7  1  6  0  0  0
 10  1  1  0  0  0  0
 11  9  1  6  0  0  0
 11 10  1  0  0  0  0
 11 17  1  0  0  0  0
 12 18  1  6  0  0  0
 14  7  1  6  0  0  0
 14  6  1  0  0  0  0
 15 13  1  0  0  0  0
 17 16  1  6  0  0  0
 17 12  1  0  0  0  0
 20  4  2  0  0  0  0
 22 12  1  0  0  0  0
 22  4  1  1  0  0  0
 23 18  1  6  0  0  0
 23  8  1  0  0  0  0
 24 26  1  0  0  0  0
 25 24  1  6  0  0  0
 25 14  1  0  0  0  0
 26 27  1  6  0  0  0
 26 25  1  0  0  0  0
 27 28  1  0  0  0  0
 28 29  2  0  0  0  0
 28 30  1  0  0  0  0
 32 31  1  0  0  0  0
M  END
>  <MODEL>
5

>  <REMARK>
 VINA RESULT:      -2.0      3.358      6.755
  Name = 
  4 active torsions:
  status: ('A' for Active; 'I' for Inactive)
    1  A    between atoms: C_7  and  C_19
    2  A    between atoms: C_10  and  C_17
    3  A    between atoms: C_20  and  C_29
    4  A    between atoms: C_29  and  C_30
                            x       y       z     vdW  Elec       q    Type
                         _______ _______ _______ _____ _____    ______ ____

>  <TORSDO>
F 4

$$$$
