=
 OpenBabel11122413163D

 31 35  0  0  1  0  0  0  0  0999 V2000
  160.8260  202.1030  150.7990 C   0  0  0  0  0  0  0  0  0  0  0  0
  161.3430  205.4990  149.2150 N   0  0  0  0  0  0  0  0  0  0  0  0
  161.4600  205.2860  147.7830 C   0  0  0  0  0  0  0  0  0  0  0  0
  161.1390  208.0750  153.9140 O   0  0  0  0  0  0  0  0  0  0  0  0
  161.3360  208.9070  152.9890 C   0  0  0  0  0  0  0  0  0  0  0  0
  161.5000  203.8600  145.8080 C   0  0  0  0  0  0  0  0  0  0  0  0
  161.1350  204.4460  150.1940 C   0  0  0  0  0  0  0  0  0  0  0  0
  160.7320  202.4520  152.1450 C   0  0  0  0  0  3  0  0  0  0  0  0
  161.3820  204.0150  147.1910 C   0  0  0  0  0  3  0  0  0  0  0  0
  161.3290  207.1300  151.1510 C   0  0  0  0  0  0  0  0  0  0  0  0
  160.7230  200.8060  150.4270 F   0  0  0  0  0  0  0  0  0  0  0  0
  161.7400  207.6690  147.5180 O   0  0  0  0  0  0  0  0  0  0  0  0
  161.4220  202.6250  145.2550 F   0  0  0  0  0  0  0  0  0  0  0  0
  161.1430  206.1480  151.9820 N   0  0  0  0  0  0  0  0  0  0  0  0
  161.4410  206.8590  149.7050 C   0  0  0  0  0  0  0  0  0  0  0  0
  161.4270  208.4790  151.6240 N   0  0  0  0  0  2  0  0  0  0  0  0
  161.0260  203.0930  149.8340 C   0  0  0  0  0  3  0  0  0  0  0  0
  161.6990  204.9770  144.9940 C   0  0  0  0  0  3  0  0  0  0  0  0
  161.0380  204.7840  151.5630 C   0  0  0  0  0  0  0  0  0  0  0  0
  160.8380  203.7910  152.5260 C   0  0  0  0  0  3  0  0  0  0  0  0
  161.6260  207.8500  148.8830 N   0  0  0  0  0  0  0  0  0  0  0  0
  161.6610  206.4010  146.9500 C   0  0  0  0  0  0  0  0  0  0  0  0
  161.7790  206.2480  145.5660 C   0  0  0  0  0  3  0  0  0  0  0  0
  160.4620  210.9500  156.0550 C   0  0  1  0  0  3  0  0  0  0  0  0
  162.4170  210.5790  154.5200 C   0  0  0  0  0  2  0  0  0  0  0  0
  159.1450  210.8730  152.4370 C   0  0  0  0  0  1  0  0  0  0  0  0
  159.8820  210.5600  157.2610 O   0  0  0  0  0  1  0  0  0  0  0  0
  161.7650  210.1820  155.8470 C   0  0  0  0  0  2  0  0  0  0  0  0
  160.1220  211.0790  153.5810 C   0  0  2  0  0  3  0  0  0  0  0  0
  161.4660  210.3640  153.3380 C   0  0  2  0  0  3  0  0  0  0  0  0
  159.4920  210.6730  154.9110 C   0  0  0  0  0  2  0  0  0  0  0  0
  1  8  1  0  0  0  0
  2 15  1  0  0  0  0
  2  7  1  0  0  0  0
  3  2  1  0  0  0  0
  5  4  2  0  0  0  0
  6  9  2  0  0  0  0
  7 19  2  0  0  0  0
  8 20  2  0  0  0  0
  9  3  1  0  0  0  0
 10 16  1  0  0  0  0
 10 14  2  0  0  0  0
 11  1  1  0  0  0  0
 12 21  1  0  0  0  0
 13  6  1  0  0  0  0
 15 10  1  0  0  0  0
 16  5  1  0  0  0  0
 17  7  1  0  0  0  0
 17  1  2  0  0  0  0
 18 23  2  0  0  0  0
 18  6  1  0  0  0  0
 19 14  1  0  0  0  0
 19 20  1  0  0  0  0
 21 15  2  0  0  0  0
 22 12  1  0  0  0  0
 22  3  2  0  0  0  0
 23 22  1  0  0  0  0
 24 27  1  1  0  0  0
 25 28  1  0  0  0  0
 28 24  1  0  0  0  0
 29 26  1  6  0  0  0
 29 31  1  0  0  0  0
 30  5  1  1  0  0  0
 30 29  1  0  0  0  0
 30 25  1  0  0  0  0
 31 24  1  0  0  0  0
M  END
>  <MODEL>
1

>  <REMARK>
 VINA RESULT:     -10.4      0.000      0.000
  Name = 
  1 active torsions:
  status: ('A' for Active; 'I' for Inactive)
    1  A    between atoms: C_5  and  C_30
                            x       y       z     vdW  Elec       q    Type
                         _______ _______ _______ _____ _____    ______ ____

>  <TORSDO>
F 1

$$$$
=
 OpenBabel11122413163D

 31 35  0  0  1  0  0  0  0  0999 V2000
  161.8360  206.9790  147.3020 C   0  0  0  0  0  0  0  0  0  0  0  0
  161.2580  205.2230  150.6020 N   0  0  0  0  0  0  0  0  0  0  0  0
  161.1270  203.8060  150.3120 C   0  0  0  0  0  0  0  0  0  0  0  0
  161.4800  209.7770  153.4260 O   0  0  0  0  0  0  0  0  0  0  0  0
  161.2610  208.8120  154.2050 C   0  0  0  0  0  0  0  0  0  0  0  0
  161.0830  201.9100  148.7820 C   0  0  0  0  0  0  0  0  0  0  0  0
  161.4900  206.2540  149.6050 C   0  0  0  0  0  0  0  0  0  0  0  0
  161.9410  208.3040  147.7230 C   0  0  0  0  0  3  0  0  0  0  0  0
  161.2150  203.2820  149.0120 C   0  0  0  0  0  3  0  0  0  0  0  0
  161.2720  207.0700  152.3330 C   0  0  0  0  0  0  0  0  0  0  0  0
  161.9520  206.6750  145.9870 F   0  0  0  0  0  0  0  0  0  0  0  0
  160.8130  203.4190  152.6730 O   0  0  0  0  0  0  0  0  0  0  0  0
  161.1710  201.4230  147.5210 F   0  0  0  0  0  0  0  0  0  0  0  0
  161.4790  207.9500  151.3990 N   0  0  0  0  0  0  0  0  0  0  0  0
  161.1470  205.6420  151.9840 C   0  0  0  0  0  0  0  0  0  0  0  0
  161.1610  207.4720  153.7050 N   0  0  0  0  0  2  0  0  0  0  0  0
  161.6130  205.9650  148.2360 C   0  0  0  0  0  3  0  0  0  0  0  0
  160.8610  201.0410  149.8520 C   0  0  0  0  0  3  0  0  0  0  0  0
  161.5980  207.6020  150.0160 C   0  0  0  0  0  0  0  0  0  0  0  0
  161.8220  208.6140  149.0790 C   0  0  0  0  0  3  0  0  0  0  0  0
  160.9400  204.7710  152.9280 N   0  0  0  0  0  0  0  0  0  0  0  0
  160.9020  202.9180  151.3780 C   0  0  0  0  0  0  0  0  0  0  0  0
  160.7700  201.5450  151.1500 C   0  0  0  0  0  3  0  0  0  0  0  0
  159.4020  211.4310  156.2090 C   0  0  1  0  0  3  0  0  0  0  0  0
  159.6630  208.9330  156.1380 C   0  0  0  0  0  2  0  0  0  0  0  0
  163.1310  210.6340  155.6740 C   0  0  0  0  0  1  0  0  0  0  0  0
  158.6120  212.4980  155.7830 O   0  0  0  0  0  1  0  0  0  0  0  0
  158.8060  210.1220  155.6980 C   0  0  0  0  0  2  0  0  0  0  0  0
  161.6960  210.4380  156.1300 C   0  0  2  0  0  3  0  0  0  0  0  0
  161.1170  209.0840  155.6760 C   0  0  2  0  0  3  0  0  0  0  0  0
  160.8230  211.6100  155.6850 C   0  0  0  0  0  2  0  0  0  0  0  0
  1  8  2  0  0  0  0
  1 17  1  0  0  0  0
  2 15  1  0  0  0  0
  3  2  1  0  0  0  0
  3 22  1  0  0  0  0
  4  5  2  0  0  0  0
  6  9  1  0  0  0  0
  6 18  2  0  0  0  0
  7 19  1  0  0  0  0
  7  2  1  0  0  0  0
  8 20  1  0  0  0  0
  9  3  2  0  0  0  0
 10 16  1  0  0  0  0
 11  1  1  0  0  0  0
 12 21  1  0  0  0  0
 13  6  1  0  0  0  0
 14 10  2  0  0  0  0
 15 10  1  0  0  0  0
 15 21  2  0  0  0  0
 16  5  1  0  0  0  0
 17  7  2  0  0  0  0
 18 23  1  0  0  0  0
 19 14  1  0  0  0  0
 20 19  2  0  0  0  0
 22 12  1  0  0  0  0
 23 22  2  0  0  0  0
 24 27  1  6  0  0  0
 28 25  1  0  0  0  0
 28 24  1  0  0  0  0
 29 26  1  6  0  0  0
 30  5  1  6  0  0  0
 30 29  1  0  0  0  0
 30 25  1  0  0  0  0
 31 29  1  0  0  0  0
 31 24  1  0  0  0  0
M  END
>  <MODEL>
2

>  <REMARK>
 VINA RESULT:      -9.3      2.111      4.177
  Name = 
  1 active torsions:
  status: ('A' for Active; 'I' for Inactive)
    1  A    between atoms: C_5  and  C_30
                            x       y       z     vdW  Elec       q    Type
                         _______ _______ _______ _____ _____    ______ ____

>  <TORSDO>
F 1

$$$$
=
 OpenBabel11122413163D

 31 35  0  0  1  0  0  0  0  0999 V2000
  161.8990  206.9400  147.2090 C   0  0  0  0  0  0  0  0  0  0  0  0
  161.3330  205.6970  150.7370 N   0  0  0  0  0  0  0  0  0  0  0  0
  161.1770  204.2550  150.6600 C   0  0  0  0  0  0  0  0  0  0  0  0
  161.6570  210.6120  152.8590 O   0  0  0  0  0  0  0  0  0  0  0  0
  161.4330  209.7750  153.7730 C   0  0  0  0  0  0  0  0  0  0  0  0
  161.0870  202.1560  149.4260 C   0  0  0  0  0  0  0  0  0  0  0  0
  161.5690  206.5670  149.5970 C   0  0  0  0  0  0  0  0  0  0  0  0
  162.0280  208.3100  147.4300 C   0  0  0  0  0  3  0  0  0  0  0  0
  161.2420  203.5440  149.4500 C   0  0  0  0  0  3  0  0  0  0  0  0
  161.3950  207.7780  152.1780 C   0  0  0  0  0  0  0  0  0  0  0  0
  161.9940  206.4440  145.9530 F   0  0  0  0  0  0  0  0  0  0  0  0
  160.8860  204.2240  153.0550 O   0  0  0  0  0  0  0  0  0  0  0  0
  161.1530  201.4870  148.2490 F   0  0  0  0  0  0  0  0  0  0  0  0
  161.6050  208.5070  151.1230 N   0  0  0  0  0  0  0  0  0  0  0  0
  161.2450  206.3160  152.0430 C   0  0  0  0  0  0  0  0  0  0  0  0
  161.3060  208.3790  153.4760 N   0  0  0  0  0  2  0  0  0  0  0  0
  161.6710  206.0770  148.2840 C   0  0  0  0  0  3  0  0  0  0  0  0
  160.8640  201.4570  150.6140 C   0  0  0  0  0  3  0  0  0  0  0  0
  161.7020  207.9580  149.8050 C   0  0  0  0  0  0  0  0  0  0  0  0
  161.9300  208.8180  148.7270 C   0  0  0  0  0  3  0  0  0  0  0  0
  161.0360  205.5970  153.1080 N   0  0  0  0  0  0  0  0  0  0  0  0
  160.9520  203.5370  151.8470 C   0  0  0  0  0  0  0  0  0  0  0  0
  160.7970  202.1480  151.8240 C   0  0  0  0  0  3  0  0  0  0  0  0
  160.3270  208.1540  157.0110 C   0  0  1  0  0  3  0  0  0  0  0  0
  162.2520  209.5070  156.1310 C   0  0  0  0  0  2  0  0  0  0  0  0
  158.9000  210.9830  154.8230 C   0  0  0  0  0  1  0  0  0  0  0  0
  159.8760  206.8590  157.2610 O   0  0  0  0  0  1  0  0  0  0  0  0
  161.7380  208.0970  156.4310 C   0  0  0  0  0  2  0  0  0  0  0  0
  159.8700  210.2580  155.7390 C   0  0  2  0  0  3  0  0  0  0  0  0
  161.3100  210.2630  155.1900 C   0  0  2  0  0  3  0  0  0  0  0  0
  159.3780  208.8430  156.0360 C   0  0  0  0  0  2  0  0  0  0  0  0
  1  8  2  0  0  0  0
  1 17  1  0  0  0  0
  2 15  1  0  0  0  0
  3  2  1  0  0  0  0
  3 22  1  0  0  0  0
  4  5  2  0  0  0  0
  6  9  1  0  0  0  0
  6 18  2  0  0  0  0
  7 19  1  0  0  0  0
  7  2  1  0  0  0  0
  8 20  1  0  0  0  0
  9  3  2  0  0  0  0
 10 16  1  0  0  0  0
 11  1  1  0  0  0  0
 12 21  1  0  0  0  0
 13  6  1  0  0  0  0
 14 10  2  0  0  0  0
 15 10  1  0  0  0  0
 15 21  2  0  0  0  0
 16  5  1  0  0  0  0
 17  7  2  0  0  0  0
 18 23  1  0  0  0  0
 19 14  1  0  0  0  0
 20 19  2  0  0  0  0
 22 12  1  0  0  0  0
 23 22  2  0  0  0  0
 24 27  1  6  0  0  0
 25 28  1  0  0  0  0
 28 24  1  0  0  0  0
 29 26  1  6  0  0  0
 29 31  1  0  0  0  0
 30  5  1  6  0  0  0
 30 29  1  0  0  0  0
 30 25  1  0  0  0  0
 31 24  1  0  0  0  0
M  END
>  <MODEL>
3

>  <REMARK>
 VINA RESULT:      -8.9      2.071      4.179
  Name = 
  1 active torsions:
  status: ('A' for Active; 'I' for Inactive)
    1  A    between atoms: C_5  and  C_30
                            x       y       z     vdW  Elec       q    Type
                         _______ _______ _______ _____ _____    ______ ____

>  <TORSDO>
F 1

$$$$
=
 OpenBabel11122413163D

 31 35  0  0  1  0  0  0  0  0999 V2000
  161.2030  204.7170  152.4310 C   0  0  0  0  0  0  0  0  0  0  0  0
  161.3860  205.8440  148.8250 N   0  0  0  0  0  0  0  0  0  0  0  0
  161.3220  204.6490  148.0030 C   0  0  0  0  0  0  0  0  0  0  0  0
  161.7120  211.0360  150.1320 O   0  0  0  0  0  0  0  0  0  0  0  0
  161.7570  210.9160  148.8800 C   0  0  0  0  0  0  0  0  0  0  0  0
  161.1520  202.2360  147.7100 C   0  0  0  0  0  0  0  0  0  0  0  0
  161.3460  205.8530  150.2780 C   0  0  0  0  0  0  0  0  0  0  0  0
  161.2740  205.9410  153.0940 C   0  0  0  0  0  3  0  0  0  0  0  0
  161.2110  203.3570  148.5420 C   0  0  0  0  0  3  0  0  0  0  0  0
  161.5700  208.3670  148.9400 C   0  0  0  0  0  0  0  0  0  0  0  0
  161.0970  203.5680  153.1400 F   0  0  0  0  0  0  0  0  0  0  0  0
  161.4800  206.0620  146.0530 O   0  0  0  0  0  0  0  0  0  0  0  0
  161.0460  200.9970  148.2480 F   0  0  0  0  0  0  0  0  0  0  0  0
  161.5300  208.3150  150.2380 N   0  0  0  0  0  0  0  0  0  0  0  0
  161.5000  207.1210  148.1510 C   0  0  0  0  0  0  0  0  0  0  0  0
  161.6820  209.6240  148.2620 N   0  0  0  0  0  2  0  0  0  0  0  0
  161.2390  204.6750  151.0360 C   0  0  0  0  0  3  0  0  0  0  0  0
  161.2030  202.3920  146.3230 C   0  0  0  0  0  3  0  0  0  0  0  0
  161.4180  207.0860  150.9640 C   0  0  0  0  0  0  0  0  0  0  0  0
  161.3820  207.1240  152.3610 C   0  0  0  0  0  3  0  0  0  0  0  0
  161.5410  207.1870  146.8530 N   0  0  0  0  0  0  0  0  0  0  0  0
  161.3720  204.7890  146.6050 C   0  0  0  0  0  0  0  0  0  0  0  0
  161.3130  203.6690  145.7710 C   0  0  0  0  0  3  0  0  0  0  0  0
  159.6920  214.0730  148.5520 C   0  0  1  0  0  3  0  0  0  0  0  0
  162.0900  213.4050  148.8960 C   0  0  0  0  0  2  0  0  0  0  0  0
  160.4670  211.1360  146.1850 C   0  0  0  0  0  1  0  0  0  0  0  0
  158.5200  214.4530  149.2030 O   0  0  0  0  0  1  0  0  0  0  0  0
  160.7940  213.8400  149.5830 C   0  0  0  0  0  2  0  0  0  0  0  0
  160.7190  212.3620  147.0440 C   0  0  2  0  0  3  0  0  0  0  0  0
  161.8800  212.1540  148.0360 C   0  0  2  0  0  3  0  0  0  0  0  0
  159.4370  212.8010  147.7490 C   0  0  0  0  0  2  0  0  0  0  0  0
  1  8  1  0  0  0  0
  1 11  1  0  0  0  0
  2  7  1  0  0  0  0
  3  9  1  0  0  0  0
  3  2  1  0  0  0  0
  5  4  2  0  0  0  0
  6 13  1  0  0  0  0
  6  9  2  0  0  0  0
  7 19  2  0  0  0  0
  7 17  1  0  0  0  0
 10 14  2  0  0  0  0
 12 22  1  0  0  0  0
 12 21  1  0  0  0  0
 14 19  1  0  0  0  0
 15  2  1  0  0  0  0
 15 10  1  0  0  0  0
 16  5  1  0  0  0  0
 16 10  1  0  0  0  0
 17  1  2  0  0  0  0
 18  6  1  0  0  0  0
 19 20  1  0  0  0  0
 20  8  2  0  0  0  0
 21 15  2  0  0  0  0
 22  3  2  0  0  0  0
 23 18  2  0  0  0  0
 23 22  1  0  0  0  0
 24 27  1  1  0  0  0
 24 28  1  0  0  0  0
 25 28  1  0  0  0  0
 29 26  1  1  0  0  0
 29 31  1  0  0  0  0
 29 30  1  0  0  0  0
 30  5  1  1  0  0  0
 30 25  1  0  0  0  0
 31 24  1  0  0  0  0
M  END
>  <MODEL>
4

>  <REMARK>
 VINA RESULT:      -8.7      3.297      4.396
  Name = 
  1 active torsions:
  status: ('A' for Active; 'I' for Inactive)
    1  A    between atoms: C_5  and  C_30
                            x       y       z     vdW  Elec       q    Type
                         _______ _______ _______ _____ _____    ______ ____

>  <TORSDO>
F 1

$$$$
=
 OpenBabel11122413163D

 31 35  0  0  1  0  0  0  0  0999 V2000
  162.0940  207.0170  147.4820 C   0  0  0  0  0  0  0  0  0  0  0  0
  161.1540  205.3280  150.7340 N   0  0  0  0  0  0  0  0  0  0  0  0
  161.1240  203.8980  150.4770 C   0  0  0  0  0  0  0  0  0  0  0  0
  160.8020  209.9630  153.4080 O   0  0  0  0  0  0  0  0  0  0  0  0
  160.5230  209.0110  154.1830 C   0  0  0  0  0  0  0  0  0  0  0  0
  161.3660  201.9600  149.0190 C   0  0  0  0  0  0  0  0  0  0  0  0
  161.4740  206.3410  149.7420 C   0  0  0  0  0  0  0  0  0  0  0  0
  162.0850  208.3560  147.8680 C   0  0  0  0  0  3  0  0  0  0  0  0
  161.4080  203.3430  149.2180 C   0  0  0  0  0  3  0  0  0  0  0  0
  160.8580  207.2200  152.3880 C   0  0  0  0  0  0  0  0  0  0  0  0
  162.3970  206.6820  146.2050 F   0  0  0  0  0  0  0  0  0  0  0  0
  160.5140  203.5630  152.7880 O   0  0  0  0  0  0  0  0  0  0  0  0
  161.6430  201.4430  147.7980 F   0  0  0  0  0  0  0  0  0  0  0  0
  161.1510  208.0830  151.4610 N   0  0  0  0  0  0  0  0  0  0  0  0
  160.8430  205.7780  152.0740 C   0  0  0  0  0  0  0  0  0  0  0  0
  160.5480  207.6550  153.7190 N   0  0  0  0  0  2  0  0  0  0  0  0
  161.7910  206.0190  148.4120 C   0  0  0  0  0  3  0  0  0  0  0  0
  161.0400  201.1120  150.0790 C   0  0  0  0  0  3  0  0  0  0  0  0
  161.4680  207.7030  150.1180 C   0  0  0  0  0  0  0  0  0  0  0  0
  161.7720  208.6980  149.1850 C   0  0  0  0  0  3  0  0  0  0  0  0
  160.5480  204.9260  153.0120 N   0  0  0  0  0  0  0  0  0  0  0  0
  160.7970  203.0300  151.5330 C   0  0  0  0  0  0  0  0  0  0  0  0
  160.7560  201.6480  151.3360 C   0  0  0  0  0  3  0  0  0  0  0  0
  162.4980  210.3080  157.1420 C   0  0  1  0  0  3  0  0  0  0  0  0
  160.3530  210.8040  155.9320 C   0  0  0  0  0  2  0  0  0  0  0  0
  160.7670  206.9600  156.3530 C   0  0  0  0  0  1  0  0  0  0  0  0
  163.8450  210.6530  157.2430 O   0  0  0  0  0  1  0  0  0  0  0  0
  161.8300  211.1740  156.0760 C   0  0  0  0  0  2  0  0  0  0  0  0
  160.9070  208.4430  156.6470 C   0  0  2  0  0  3  0  0  0  0  0  0
  160.1720  209.3170  155.6120 C   0  0  2  0  0  3  0  0  0  0  0  0
  162.3780  208.8310  156.7790 C   0  0  0  0  0  2  0  0  0  0  0  0
  1  8  2  0  0  0  0
  1 17  1  0  0  0  0
  2 15  1  0  0  0  0
  3  2  1  0  0  0  0
  3 22  1  0  0  0  0
  4  5  2  0  0  0  0
  6  9  1  0  0  0  0
  6 18  2  0  0  0  0
  7 19  1  0  0  0  0
  7  2  1  0  0  0  0
  8 20  1  0  0  0  0
  9  3  2  0  0  0  0
 10 16  1  0  0  0  0
 11  1  1  0  0  0  0
 12 21  1  0  0  0  0
 13  6  1  0  0  0  0
 14 10  2  0  0  0  0
 15 10  1  0  0  0  0
 15 21  2  0  0  0  0
 16  5  1  0  0  0  0
 17  7  2  0  0  0  0
 18 23  1  0  0  0  0
 19 14  1  0  0  0  0
 20 19  2  0  0  0  0
 22 12  1  0  0  0  0
 23 22  2  0  0  0  0
 24 27  1  6  0  0  0
 25 28  1  0  0  0  0
 28 24  1  0  0  0  0
 29 26  1  6  0  0  0
 29 31  1  0  0  0  0
 30  5  1  6  0  0  0
 30 25  1  0  0  0  0
 30 29  1  0  0  0  0
 31 24  1  0  0  0  0
M  END
>  <MODEL>
5

>  <REMARK>
 VINA RESULT:      -7.7      2.219      4.313
  Name = 
  1 active torsions:
  status: ('A' for Active; 'I' for Inactive)
    1  A    between atoms: C_5  and  C_30
                            x       y       z     vdW  Elec       q    Type
                         _______ _______ _______ _____ _____    ______ ____

>  <TORSDO>
F 1

$$$$
=
 OpenBabel11122413163D

 31 35  0  0  1  0  0  0  0  0999 V2000
  160.8390  207.1860  154.2150 C   0  0  0  0  0  0  0  0  0  0  0  0
  161.2830  207.6080  150.4820 N   0  0  0  0  0  0  0  0  0  0  0  0
  161.3300  206.2750  149.9070 C   0  0  0  0  0  0  0  0  0  0  0  0
  161.3150  212.9630  150.7710 O   0  0  0  0  0  0  0  0  0  0  0  0
  161.4680  212.6080  149.5730 C   0  0  0  0  0  0  0  0  0  0  0  0
  161.2710  203.8450  150.0790 C   0  0  0  0  0  0  0  0  0  0  0  0
  161.1220  207.8930  151.8980 C   0  0  0  0  0  0  0  0  0  0  0  0
  160.8120  208.5160  154.6290 C   0  0  0  0  0  3  0  0  0  0  0  0
  161.2210  205.1070  150.6780 C   0  0  0  0  0  3  0  0  0  0  0  0
  161.3670  210.1110  150.1160 C   0  0  0  0  0  0  0  0  0  0  0  0
  160.7160  206.1900  155.1250 F   0  0  0  0  0  0  0  0  0  0  0  0
  161.6010  207.2940  147.7360 O   0  0  0  0  0  0  0  0  0  0  0  0
  161.1640  202.7290  150.8390 F   0  0  0  0  0  0  0  0  0  0  0  0
  161.2210  210.3070  151.3920 N   0  0  0  0  0  0  0  0  0  0  0  0
  161.4080  208.7360  149.5830 C   0  0  0  0  0  0  0  0  0  0  0  0
  161.4910  211.2200  149.2160 N   0  0  0  0  0  2  0  0  0  0  0  0
  160.9930  206.8790  152.8610 C   0  0  0  0  0  3  0  0  0  0  0  0
  161.4320  203.7350  148.6960 C   0  0  0  0  0  3  0  0  0  0  0  0
  161.0930  209.2370  152.3340 C   0  0  0  0  0  0  0  0  0  0  0  0
  160.9380  209.5400  153.6890 C   0  0  0  0  0  3  0  0  0  0  0  0
  161.5540  208.5530  148.3030 N   0  0  0  0  0  0  0  0  0  0  0  0
  161.4920  206.1470  148.5160 C   0  0  0  0  0  0  0  0  0  0  0  0
  161.5420  204.8860  147.9150 C   0  0  0  0  0  3  0  0  0  0  0  0
  159.8550  213.1740  146.1950 C   0  0  1  0  0  3  0  0  0  0  0  0
  160.3150  214.4470  148.3110 C   0  0  0  0  0  2  0  0  0  0  0  0
  163.4400  212.3470  147.3330 C   0  0  0  0  0  1  0  0  0  0  0  0
  158.9010  212.4180  145.5150 O   0  0  0  0  0  1  0  0  0  0  0  0
  159.2820  213.6270  147.5350 C   0  0  0  0  0  2  0  0  0  0  0  0
  162.1580  213.1440  147.1700 C   0  0  2  0  0  3  0  0  0  0  0  0
  161.6170  213.6660  148.5150 C   0  0  2  0  0  3  0  0  0  0  0  0
  161.1100  212.3340  146.4090 C   0  0  0  0  0  2  0  0  0  0  0  0
  1  8  1  0  0  0  0
  1 11  1  0  0  0  0
  2  7  1  0  0  0  0
  3  2  1  0  0  0  0
  3  9  1  0  0  0  0
  5  4  2  0  0  0  0
  6  9  2  0  0  0  0
  6 13  1  0  0  0  0
  7 19  2  0  0  0  0
  7 17  1  0  0  0  0
 10 14  2  0  0  0  0
 12 21  1  0  0  0  0
 12 22  1  0  0  0  0
 14 19  1  0  0  0  0
 15 10  1  0  0  0  0
 15  2  1  0  0  0  0
 16  5  1  0  0  0  0
 16 10  1  0  0  0  0
 17  1  2  0  0  0  0
 18  6  1  0  0  0  0
 19 20  1  0  0  0  0
 20  8  2  0  0  0  0
 21 15  2  0  0  0  0
 22  3  2  0  0  0  0
 23 22  1  0  0  0  0
 23 18  2  0  0  0  0
 24 27  1  1  0  0  0
 24 31  1  0  0  0  0
 24 28  1  0  0  0  0
 25 30  1  0  0  0  0
 28 25  1  0  0  0  0
 29 26  1  1  0  0  0
 29 30  1  0  0  0  0
 30  5  1  1  0  0  0
 31 29  1  0  0  0  0
M  END
>  <MODEL>
6

>  <REMARK>
 VINA RESULT:      -7.4      3.782      5.756
  Name = 
  1 active torsions:
  status: ('A' for Active; 'I' for Inactive)
    1  A    between atoms: C_5  and  C_30
                            x       y       z     vdW  Elec       q    Type
                         _______ _______ _______ _____ _____    ______ ____

>  <TORSDO>
F 1

$$$$
