=
 OpenBabel11122414193D

 34 41  0  0  1  0  0  0  0  0999 V2000
  162.1500  207.9750  150.3050 C   0  0  0  0  0  0  0  0  0  0  0  0
  162.3610  210.2290  151.4650 C   0  0  0  0  0  2  0  0  0  0  0  0
  160.5150  201.4570  150.4330 C   0  0  2  0  0  3  0  0  0  0  0  0
  161.6160  205.8690  149.2650 C   0  0  0  0  0  0  0  0  0  0  0  0
  160.3300  204.0540  150.5560 C   0  0  1  0  0  3  0  0  0  0  0  0
  162.1670  202.4660  151.3740 C   0  0  0  0  0  2  0  0  0  0  0  0
  162.0110  201.2070  150.5330 C   0  0  0  0  0  2  0  0  0  0  0  0
  160.9260  202.3330  148.0260 C   0  0  0  0  0  2  0  0  0  0  0  0
  162.1110  208.2300  152.8080 C   0  0  2  0  0  3  0  0  0  0  0  0
  159.9150  208.6480  155.2570 C   0  0  0  0  0  2  0  0  0  0  0  0
  160.1020  205.1720  151.5830 C   0  0  0  0  0  2  0  0  0  0  0  0
  160.7100  203.8370  148.0840 C   0  0  0  0  0  2  0  0  0  0  0  0
  161.0230  207.1450  152.8130 C   0  0  1  0  0  3  0  0  0  0  0  0
  162.2970  210.6560  152.9250 C   0  0  0  0  0  2  0  0  0  0  0  0
  161.2710  204.4030  149.3780 C   0  0  1  0  0  3  0  0  0  0  0  0
  159.9960  201.5940  148.9870 C   0  0  0  0  0  2  0  0  0  0  0  0
  160.3620  209.6030  154.1380 C   0  0  1  0  0  3  0  0  0  0  0  0
  161.6980  206.6520  150.4240 C   0  0  0  0  0  0  0  0  0  0  0  0
  160.6710  202.7320  151.2630 C   0  0  2  0  0  3  0  0  0  0  0  0
  161.3310  206.0600  151.7670 C   0  0  2  0  0  3  0  0  0  0  0  0
  162.3730  207.7030  147.9690 C   0  0  0  0  0  3  0  0  0  0  0  0
  160.4560  207.2330  155.2460 C   0  0  0  0  0  3  0  0  0  0  0  0
  161.9700  206.4090  148.0670 N   0  0  0  0  0  0  0  0  0  0  0  0
  160.9180  206.5540  154.1850 C   0  0  0  0  0  3  0  0  0  0  0  0
  161.8370  209.4350  153.7210 C   0  0  1  0  0  3  0  0  0  0  0  0
  162.4610  208.4770  149.0810 N   0  0  0  0  0  0  0  0  0  0  0  0
  162.2680  208.7840  151.4800 N   0  0  0  0  0  0  0  0  0  0  0  0
  159.4920  209.5190  153.0450 O   0  0  0  0  0  0  0  0  0  0  0  0
  159.1060  210.8360  152.7820 C   0  0  0  0  0  2  0  0  0  0  0  0
  158.4680  213.5930  154.8530 N   0  0  0  0  0  2  0  0  0  0  0  0
  157.3370  211.5970  154.3490 C   0  0  0  0  0  2  0  0  0  0  0  0
  158.8160  211.5590  154.0860 C   0  0  2  0  0  3  0  0  0  0  0  0
  157.1390  213.0100  154.7890 C   0  0  0  0  0  2  0  0  0  0  0  0
  159.2600  212.8860  153.9990 O   0  0  0  0  0  0  0  0  0  0  0  0
  1 18  1  0  0  0  0
  1 27  1  0  0  0  0
  2 27  1  0  0  0  0
  2 14  1  0  0  0  0
  3 16  1  6  0  0  0
  3  7  1  0  0  0  0
  3 19  1  0  0  0  0
  4 15  1  0  0  0  0
  4 18  2  0  0  0  0
  5 19  1  0  0  0  0
  5 11  1  1  0  0  0
  7  6  1  0  0  0  0
  8 12  1  0  0  0  0
  8 16  1  0  0  0  0
  9 27  1  6  0  0  0
  9 13  1  0  0  0  0
  9 25  1  0  0  0  0
 13 24  1  1  0  0  0
 15 12  1  6  0  0  0
 15  5  1  0  0  0  0
 17 28  1  6  0  0  0
 17 10  1  0  0  0  0
 18 20  1  0  0  0  0
 19  6  1  6  0  0  0
 20 11  1  6  0  0  0
 20 13  1  0  0  0  0
 21 23  2  0  0  0  0
 21 26  1  0  0  0  0
 22 10  1  0  0  0  0
 23  4  1  0  0  0  0
 24 22  2  0  0  0  0
 25 14  1  6  0  0  0
 25 17  1  0  0  0  0
 26  1  2  0  0  0  0
 29 28  1  0  0  0  0
 31 33  1  0  0  0  0
 32 29  1  6  0  0  0
 32 31  1  0  0  0  0
 33 30  1  0  0  0  0
 34 32  1  0  0  0  0
 34 30  1  0  0  0  0
M  END
>  <MODEL>
1

>  <REMARK>
 VINA RESULT:      -7.3      0.000      0.000
  Name = 
  3 active torsions:
  status: ('A' for Active; 'I' for Inactive)
    1  A    between atoms: C_17  and  O_28
    2  A    between atoms: O_28  and  C_29
    3  A    between atoms: C_29  and  C_32
                            x       y       z     vdW  Elec       q    Type
                         _______ _______ _______ _____ _____    ______ ____

>  <TORSDO>
F 3

$$$$
=
 OpenBabel11122414193D

 34 41  0  0  1  0  0  0  0  0999 V2000
  160.8090  207.8030  154.1550 C   0  0  0  0  0  0  0  0  0  0  0  0
  162.1780  206.1110  152.8370 C   0  0  0  0  0  2  0  0  0  0  0  0
  157.9330  213.8530  154.7030 C   0  0  2  0  0  3  0  0  0  0  0  0
  159.2850  209.3780  155.1520 C   0  0  0  0  0  0  0  0  0  0  0  0
  158.5050  211.4560  153.8510 C   0  0  1  0  0  3  0  0  0  0  0  0
  160.0200  213.3290  154.7240 C   0  0  0  0  0  2  0  0  0  0  0  0
  159.1200  214.2040  155.5840 C   0  0  0  0  0  2  0  0  0  0  0  0
  157.1670  212.2140  156.5630 C   0  0  0  0  0  2  0  0  0  0  0  0
  162.2080  208.4360  152.1630 C   0  0  2  0  0  3  0  0  0  0  0  0
  161.8960  208.7800  148.8800 C   0  0  0  0  0  2  0  0  0  0  0  0
  159.1650  210.7570  152.6550 C   0  0  0  0  0  2  0  0  0  0  0  0
  157.4040  210.8160  156.0150 C   0  0  0  0  0  2  0  0  0  0  0  0
  161.0690  209.3930  151.7780 C   0  0  1  0  0  3  0  0  0  0  0  0
  163.0310  206.2190  151.5810 C   0  0  0  0  0  2  0  0  0  0  0  0
  158.7020  210.7700  155.2240 C   0  0  1  0  0  3  0  0  0  0  0  0
  156.7630  213.1900  155.4580 C   0  0  0  0  0  2  0  0  0  0  0  0
  161.8830  207.5210  149.7620 C   0  0  1  0  0  3  0  0  0  0  0  0
  160.1800  209.0560  154.1230 C   0  0  0  0  0  0  0  0  0  0  0  0
  158.8310  212.9590  153.8470 C   0  0  2  0  0  3  0  0  0  0  0  0
  160.4710  210.0590  153.0290 C   0  0  2  0  0  3  0  0  0  0  0  0
  159.6430  207.2520  156.1350 C   0  0  0  0  0  3  0  0  0  0  0  0
  161.9670  210.1300  149.5640 C   0  0  0  0  0  3  0  0  0  0  0  0
  159.0480  208.4740  156.1410 N   0  0  0  0  0  0  0  0  0  0  0  0
  161.5860  210.4190  150.8180 C   0  0  0  0  0  3  0  0  0  0  0  0
  162.7910  207.6140  151.0040 C   0  0  1  0  0  3  0  0  0  0  0  0
  160.5150  206.9220  155.1480 N   0  0  0  0  0  0  0  0  0  0  0  0
  161.7480  207.4630  153.1300 N   0  0  0  0  0  0  0  0  0  0  0  0
  160.5700  207.1680  150.0930 O   0  0  0  0  0  0  0  0  0  0  0  0
  160.2050  206.1940  149.1610 C   0  0  0  0  0  2  0  0  0  0  0  0
  160.8500  202.8100  149.8200 N   0  0  0  0  0  2  0  0  0  0  0  0
  161.3000  204.2700  148.0350 C   0  0  0  0  0  2  0  0  0  0  0  0
  161.0580  204.9510  149.3540 C   0  0  2  0  0  3  0  0  0  0  0  0
  161.0710  202.8360  148.3840 C   0  0  0  0  0  2  0  0  0  0  0  0
  160.3850  204.0400  150.1790 O   0  0  0  0  0  0  0  0  0  0  0  0
  1 26  1  0  0  0  0
  2 27  1  0  0  0  0
  3 16  1  1  0  0  0
  3  7  1  0  0  0  0
  4 15  1  0  0  0  0
  4 23  2  0  0  0  0
  5 11  1  6  0  0  0
  5 15  1  0  0  0  0
  6  7  1  0  0  0  0
  9 27  1  1  0  0  0
 10 22  1  0  0  0  0
 10 17  1  0  0  0  0
 12  8  1  0  0  0  0
 13 24  1  6  0  0  0
 13  9  1  0  0  0  0
 13 20  1  0  0  0  0
 14  2  1  0  0  0  0
 15 12  1  6  0  0  0
 16  8  1  0  0  0  0
 17 28  1  1  0  0  0
 17 25  1  0  0  0  0
 18  1  2  0  0  0  0
 18  4  1  0  0  0  0
 19  5  1  0  0  0  0
 19  3  1  0  0  0  0
 19  6  1  1  0  0  0
 20 11  1  6  0  0  0
 20 18  1  0  0  0  0
 21 23  1  0  0  0  0
 22 24  2  0  0  0  0
 25 14  1  1  0  0  0
 25  9  1  0  0  0  0
 26 21  2  0  0  0  0
 27  1  1  0  0  0  0
 29 28  1  0  0  0  0
 30 34  1  0  0  0  0
 31 33  1  0  0  0  0
 31 32  1  0  0  0  0
 32 29  1  6  0  0  0
 32 34  1  0  0  0  0
 33 30  1  0  0  0  0
M  END
>  <MODEL>
2

>  <REMARK>
 VINA RESULT:      -6.6      2.447      8.487
  Name = 
  3 active torsions:
  status: ('A' for Active; 'I' for Inactive)
    1  A    between atoms: C_17  and  O_28
    2  A    between atoms: O_28  and  C_29
    3  A    between atoms: C_29  and  C_32
                            x       y       z     vdW  Elec       q    Type
                         _______ _______ _______ _____ _____    ______ ____

>  <TORSDO>
F 3

$$$$
=
 OpenBabel11122414193D

 34 41  0  0  1  0  0  0  0  0999 V2000
  161.9030  208.8580  151.9530 C   0  0  0  0  0  0  0  0  0  0  0  0
  161.9420  210.8740  153.5050 C   0  0  0  0  0  2  0  0  0  0  0  0
  160.7550  202.3240  150.8730 C   0  0  2  0  0  3  0  0  0  0  0  0
  161.5300  206.9430  150.5410 C   0  0  0  0  0  0  0  0  0  0  0  0
  160.3770  204.8360  151.4610 C   0  0  1  0  0  3  0  0  0  0  0  0
  162.3230  203.2630  152.0090 C   0  0  0  0  0  2  0  0  0  0  0  0
  162.2640  202.1690  150.9530 C   0  0  0  0  0  2  0  0  0  0  0  0
  161.1080  203.6500  148.6720 C   0  0  0  0  0  2  0  0  0  0  0  0
  161.8350  208.6520  154.4600 C   0  0  2  0  0  3  0  0  0  0  0  0
  159.6060  208.4580  156.9060 C   0  0  0  0  0  2  0  0  0  0  0  0
  160.0630  205.7290  152.6680 C   0  0  0  0  0  2  0  0  0  0  0  0
  160.7810  205.0990  148.9970 C   0  0  0  0  0  2  0  0  0  0  0  0
  160.8310  207.5080  154.2500 C   0  0  1  0  0  3  0  0  0  0  0  0
  161.8400  211.0230  155.0170 C   0  0  0  0  0  2  0  0  0  0  0  0
  161.2940  205.4600  150.3810 C   0  0  1  0  0  3  0  0  0  0  0  0
  160.2320  202.6840  149.4680 C   0  0  0  0  0  2  0  0  0  0  0  0
  159.9850  209.6300  155.9860 C   0  0  1  0  0  3  0  0  0  0  0  0
  161.5490  207.5070  151.8240 C   0  0  0  0  0  0  0  0  0  0  0  0
  160.8120  203.4360  151.9230 C   0  0  2  0  0  3  0  0  0  0  0  0
  161.2220  206.6550  153.0310 C   0  0  2  0  0  3  0  0  0  0  0  0
  162.1540  209.0310  149.6110 C   0  0  0  0  0  3  0  0  0  0  0  0
  160.2500  207.1110  156.6490 C   0  0  0  0  0  3  0  0  0  0  0  0
  161.8470  207.7160  149.4660 N   0  0  0  0  0  0  0  0  0  0  0  0
  160.7650  206.6720  155.4910 C   0  0  0  0  0  3  0  0  0  0  0  0
  161.4700  209.6480  155.5710 C   0  0  1  0  0  3  0  0  0  0  0  0
  162.1800  209.5950  150.8460 N   0  0  0  0  0  0  0  0  0  0  0  0
  161.9560  209.4470  153.2560 N   0  0  0  0  0  0  0  0  0  0  0  0
  159.1270  209.6840  154.8820 O   0  0  0  0  0  0  0  0  0  0  0  0
  158.8370  211.0390  154.7080 C   0  0  0  0  0  2  0  0  0  0  0  0
  155.5130  210.7430  155.7880 N   0  0  0  0  0  2  0  0  0  0  0  0
  156.9510  212.5380  155.3100 C   0  0  0  0  0  2  0  0  0  0  0  0
  157.3320  211.2410  154.6520 C   0  0  2  0  0  3  0  0  0  0  0  0
  155.7670  212.1330  156.1250 C   0  0  0  0  0  2  0  0  0  0  0  0
  156.6910  210.2120  155.3540 O   0  0  0  0  0  0  0  0  0  0  0  0
  1 27  1  0  0  0  0
  2 14  1  0  0  0  0
  3 16  1  6  0  0  0
  3  7  1  0  0  0  0
  3 19  1  0  0  0  0
  4 18  2  0  0  0  0
  5 19  1  0  0  0  0
  5 11  1  1  0  0  0
  7  6  1  0  0  0  0
  8 12  1  0  0  0  0
  8 16  1  0  0  0  0
  9 27  1  6  0  0  0
  9 25  1  0  0  0  0
 13  9  1  0  0  0  0
 13 24  1  1  0  0  0
 15 12  1  6  0  0  0
 15  4  1  0  0  0  0
 15  5  1  0  0  0  0
 17 28  1  6  0  0  0
 17 10  1  0  0  0  0
 18  1  1  0  0  0  0
 18 20  1  0  0  0  0
 19  6  1  6  0  0  0
 20 11  1  6  0  0  0
 20 13  1  0  0  0  0
 21 26  1  0  0  0  0
 22 10  1  0  0  0  0
 23 21  2  0  0  0  0
 23  4  1  0  0  0  0
 24 22  2  0  0  0  0
 25 14  1  6  0  0  0
 25 17  1  0  0  0  0
 26  1  2  0  0  0  0
 27  2  1  0  0  0  0
 29 28  1  0  0  0  0
 30 33  1  0  0  0  0
 31 33  1  0  0  0  0
 32 29  1  1  0  0  0
 32 31  1  0  0  0  0
 32 34  1  0  0  0  0
 34 30  1  0  0  0  0
M  END
>  <MODEL>
3

>  <REMARK>
 VINA RESULT:      -5.6      1.504      1.885
  Name = 
  3 active torsions:
  status: ('A' for Active; 'I' for Inactive)
    1  A    between atoms: C_17  and  O_28
    2  A    between atoms: O_28  and  C_29
    3  A    between atoms: C_29  and  C_32
                            x       y       z     vdW  Elec       q    Type
                         _______ _______ _______ _____ _____    ______ ____

>  <TORSDO>
F 3

$$$$
