=
 OpenBabel11122414313D

 34 40  0  0  1  0  0  0  0  0999 V2000
  161.0010  205.1120  152.4230 C   0  0  0  0  0  0  0  0  0  0  0  0
  160.6740  206.3520  154.7260 C   0  0  0  0  0  2  0  0  0  0  0  0
  162.2540  204.8540  145.8920 C   0  0  2  0  0  3  0  0  0  0  0  0
  161.2560  204.1270  150.1960 C   0  0  0  0  0  0  0  0  0  0  0  0
  161.5460  205.6110  148.2830 C   0  0  0  0  0  0  0  0  0  0  0  0
  161.4230  207.0440  146.4010 O   0  0  0  0  0  0  0  0  0  0  0  0
  162.8510  205.4540  144.6300 C   0  0  0  0  0  1  0  0  0  0  0  0
  160.5140  203.1920  146.7500 C   0  0  0  0  0  2  0  0  0  0  0  0
  160.9880  207.5270  152.7340 C   0  0  0  0  0  0  0  0  0  0  0  0
  161.3840  210.7460  152.5580 C   0  0  0  0  0  2  0  0  0  0  0  0
  161.4570  206.6760  149.1280 N   0  0  0  0  0  0  0  0  0  0  0  0
  161.4780  203.0650  147.9250 C   0  0  0  0  0  2  0  0  0  0  0  0
  161.2070  207.7160  151.3150 N   0  0  0  0  0  0  0  0  0  0  0  0
  160.7960  207.8350  155.0750 C   0  0  0  0  0  2  0  0  0  0  0  0
  161.4280  204.2910  148.8050 C   0  0  0  0  0  0  0  0  0  0  0  0
  161.1880  203.8220  145.5280 C   0  0  0  0  0  2  0  0  0  0  0  0
  161.7870  209.7210  153.6290 C   0  0  2  0  0  3  0  0  0  0  0  0
  161.1770  205.2620  151.0320 C   0  0  0  0  0  0  0  0  0  0  0  0
  161.7290  205.9000  146.8380 C   0  0  0  0  0  0  0  0  0  0  0  0
  161.2790  206.5460  150.4690 C   0  0  0  0  0  0  0  0  0  0  0  0
  160.9800  202.7040  152.1560 C   0  0  0  0  0  3  0  0  0  0  0  0
  160.7660  210.1440  151.2970 C   0  0  0  0  0  2  0  0  0  0  0  0
  161.1540  202.8500  150.7760 C   0  0  0  0  0  3  0  0  0  0  0  0
  161.6160  209.0070  150.7570 C   0  0  0  0  0  2  0  0  0  0  0  0
  160.7430  208.5990  153.7450 C   0  0  1  0  0  3  0  0  0  0  0  0
  160.9030  203.8310  152.9770 C   0  0  0  0  0  3  0  0  0  0  0  0
  160.9050  206.3200  153.2620 C   0  0  0  0  0  0  0  0  0  0  0  0
  161.9910  210.4640  154.9460 C   0  0  0  0  0  2  0  0  0  0  0  0
  161.1110  211.5460  155.0250 O   0  0  0  0  0  0  0  0  0  0  0  0
  159.0780  213.2740  156.5880 O   0  0  0  0  0  0  0  0  0  0  0  0
  159.0400  210.9770  156.0160 C   0  0  0  0  0  2  0  0  0  0  0  0
  160.4640  211.3920  156.2530 C   0  0  2  0  0  3  0  0  0  0  0  0
  158.2270  212.1650  156.4810 C   0  0  0  0  0  2  0  0  0  0  0  0
  160.3300  212.7410  156.9190 C   0  0  0  0  0  2  0  0  0  0  0  0
  1 26  1  0  0  0  0
  1 27  1  0  0  0  0
  2 14  1  0  0  0  0
  3  7  1  6  0  0  0
  3 19  1  0  0  0  0
  4 23  2  0  0  0  0
  4 18  1  0  0  0  0
  5 15  2  0  0  0  0
  5 11  1  0  0  0  0
  6 19  2  0  0  0  0
  8 12  1  0  0  0  0
  9 27  2  0  0  0  0
  9 25  1  0  0  0  0
 10 17  1  0  0  0  0
 11 20  2  0  0  0  0
 12 15  1  0  0  0  0
 13  9  1  0  0  0  0
 15  4  1  0  0  0  0
 16  3  1  0  0  0  0
 16  8  1  0  0  0  0
 17 25  1  0  0  0  0
 17 28  1  1  0  0  0
 18  1  2  0  0  0  0
 19  5  1  0  0  0  0
 20 18  1  0  0  0  0
 20 13  1  0  0  0  0
 21 26  2  0  0  0  0
 22 10  1  0  0  0  0
 23 21  1  0  0  0  0
 24 22  1  0  0  0  0
 24 13  1  0  0  0  0
 25 14  1  1  0  0  0
 27  2  1  0  0  0  0
 28 29  1  0  0  0  0
 30 34  1  0  0  0  0
 31 32  1  0  0  0  0
 31 33  1  0  0  0  0
 32 29  1  6  0  0  0
 32 34  1  0  0  0  0
 33 30  1  0  0  0  0
M  END
>  <MODEL>
1

>  <REMARK>
 VINA RESULT:      -8.8      0.000      0.000
  Name = 
  3 active torsions:
  status: ('A' for Active; 'I' for Inactive)
    1  A    between atoms: C_17  and  C_28
    2  A    between atoms: C_28  and  O_29
    3  A    between atoms: O_29  and  C_32
                            x       y       z     vdW  Elec       q    Type
                         _______ _______ _______ _____ _____    ______ ____

>  <TORSDO>
F 3

$$$$
=
 OpenBabel11122414313D

 34 40  0  0  1  0  0  0  0  0999 V2000
  161.5150  208.8090  150.7760 C   0  0  0  0  0  0  0  0  0  0  0  0
  161.7150  210.8350  152.4490 C   0  0  0  0  0  2  0  0  0  0  0  0
  160.2310  202.4790  149.1700 C   0  0  2  0  0  3  0  0  0  0  0  0
  161.3560  206.8080  149.3730 C   0  0  0  0  0  0  0  0  0  0  0  0
  160.8690  204.6670  150.4330 C   0  0  0  0  0  0  0  0  0  0  0  0
  160.8000  202.5520  151.4980 O   0  0  0  0  0  0  0  0  0  0  0  0
  159.5530  201.1480  149.4530 C   0  0  0  0  0  1  0  0  0  0  0  0
  162.1670  203.5690  147.9080 C   0  0  0  0  0  2  0  0  0  0  0  0
  161.2420  208.6730  153.1920 C   0  0  0  0  0  0  0  0  0  0  0  0
  160.4620  207.9260  156.2540 C   0  0  0  0  0  2  0  0  0  0  0  0
  160.8390  205.3010  151.6400 N   0  0  0  0  0  0  0  0  0  0  0  0
  161.2380  204.7780  147.8900 C   0  0  0  0  0  2  0  0  0  0  0  0
  160.9870  207.2520  153.0880 N   0  0  0  0  0  0  0  0  0  0  0  0
  161.4210  210.9120  153.9470 C   0  0  0  0  0  2  0  0  0  0  0  0
  161.1500  205.4180  149.2550 C   0  0  0  0  0  0  0  0  0  0  0  0
  161.4100  202.2750  148.2200 C   0  0  0  0  0  2  0  0  0  0  0  0
  160.1960  209.1790  155.4050 C   0  0  2  0  0  3  0  0  0  0  0  0
  161.3070  207.4200  150.6440 C   0  0  0  0  0  0  0  0  0  0  0  0
  160.6380  203.2010  150.4270 C   0  0  0  0  0  0  0  0  0  0  0  0
  161.0460  206.6360  151.7810 C   0  0  0  0  0  0  0  0  0  0  0  0
  161.8200  208.9850  148.3780 C   0  0  0  0  0  3  0  0  0  0  0  0
  161.1340  206.7760  155.5050 C   0  0  0  0  0  2  0  0  0  0  0  0
  161.6150  207.6080  148.2450 C   0  0  0  0  0  3  0  0  0  0  0  0
  160.4200  206.4810  154.1980 C   0  0  0  0  0  2  0  0  0  0  0  0
  161.3680  209.4630  154.4530 C   0  0  1  0  0  3  0  0  0  0  0  0
  161.7710  209.5840  149.6400 C   0  0  0  0  0  3  0  0  0  0  0  0
  161.4740  209.4100  152.1210 C   0  0  0  0  0  0  0  0  0  0  0  0
  159.9180  210.3430  156.3510 C   0  0  0  0  0  2  0  0  0  0  0  0
  158.5410  210.4890  156.5380 O   0  0  0  0  0  0  0  0  0  0  0  0
  156.1000  212.2570  155.8470 O   0  0  0  0  0  0  0  0  0  0  0  0
  158.3990  212.5330  155.3550 C   0  0  0  0  0  2  0  0  0  0  0  0
  158.0780  211.0660  155.3530 C   0  0  2  0  0  3  0  0  0  0  0  0
  157.0480  213.2070  155.4400 C   0  0  0  0  0  2  0  0  0  0  0  0
  156.5680  211.0370  155.3420 C   0  0  0  0  0  2  0  0  0  0  0  0
  1 27  1  0  0  0  0
  2 14  1  0  0  0  0
  3  7  1  1  0  0  0
  3 19  1  0  0  0  0
  4 18  1  0  0  0  0
  5 11  2  0  0  0  0
  8 16  1  0  0  0  0
  9 25  1  0  0  0  0
 11 20  1  0  0  0  0
 12  8  1  0  0  0  0
 12 15  1  0  0  0  0
 13  9  1  0  0  0  0
 13 24  1  0  0  0  0
 15  4  2  0  0  0  0
 15  5  1  0  0  0  0
 16  3  1  0  0  0  0
 17 10  1  0  0  0  0
 17 28  1  1  0  0  0
 18  1  1  0  0  0  0
 18 20  2  0  0  0  0
 19  5  1  0  0  0  0
 19  6  2  0  0  0  0
 20 13  1  0  0  0  0
 21 26  1  0  0  0  0
 22 10  1  0  0  0  0
 23 21  2  0  0  0  0
 23  4  1  0  0  0  0
 24 22  1  0  0  0  0
 25 14  1  6  0  0  0
 25 17  1  0  0  0  0
 26  1  2  0  0  0  0
 27  2  1  0  0  0  0
 27  9  2  0  0  0  0
 28 29  1  0  0  0  0
 31 33  1  0  0  0  0
 32 31  1  0  0  0  0
 32 29  1  1  0  0  0
 33 30  1  0  0  0  0
 34 32  1  0  0  0  0
 34 30  1  0  0  0  0
M  END
>  <MODEL>
2

>  <REMARK>
 VINA RESULT:      -8.7      2.075      3.934
  Name = 
  3 active torsions:
  status: ('A' for Active; 'I' for Inactive)
    1  A    between atoms: C_17  and  C_28
    2  A    between atoms: C_28  and  O_29
    3  A    between atoms: O_29  and  C_32
                            x       y       z     vdW  Elec       q    Type
                         _______ _______ _______ _____ _____    ______ ____

>  <TORSDO>
F 3

$$$$
=
 OpenBabel11122414313D

 34 40  0  0  1  0  0  0  0  0999 V2000
  161.6490  208.0850  149.2560 C   0  0  0  0  0  0  0  0  0  0  0  0
  161.5620  206.6090  147.0740 C   0  0  0  0  0  2  0  0  0  0  0  0
  161.4520  209.0520  155.8380 C   0  0  2  0  0  3  0  0  0  0  0  0
  161.6270  209.3180  151.3720 C   0  0  0  0  0  0  0  0  0  0  0  0
  161.1350  208.1070  153.4300 C   0  0  0  0  0  0  0  0  0  0  0  0
  160.2690  207.0240  155.3510 O   0  0  0  0  0  0  0  0  0  0  0  0
  161.5990  208.5370  157.2610 C   0  0  0  0  0  1  0  0  0  0  0  0
  160.3790  210.8850  154.4180 C   0  0  0  0  0  2  0  0  0  0  0  0
  161.1460  205.7040  149.1850 C   0  0  0  0  0  0  0  0  0  0  0  0
  160.7350  202.5340  149.7620 C   0  0  0  0  0  2  0  0  0  0  0  0
  160.9900  206.9680  152.6950 N   0  0  0  0  0  0  0  0  0  0  0  0
  161.5820  210.6390  153.5140 C   0  0  0  0  0  2  0  0  0  0  0  0
  160.9960  205.6880  150.6250 N   0  0  0  0  0  0  0  0  0  0  0  0
  161.4110  205.0970  146.9100 C   0  0  0  0  0  2  0  0  0  0  0  0
  161.4450  209.3310  152.7700 C   0  0  0  0  0  0  0  0  0  0  0  0
  160.6010  210.3200  155.8250 C   0  0  0  0  0  2  0  0  0  0  0  0
  161.5920  203.2860  148.7310 C   0  0  2  0  0  3  0  0  0  0  0  0
  161.4740  208.1100  150.6550 C   0  0  0  0  0  0  0  0  0  0  0  0
  160.9210  208.0050  154.8960 C   0  0  0  0  0  0  0  0  0  0  0  0
  161.1480  206.9310  151.3460 C   0  0  0  0  0  0  0  0  0  0  0  0
  162.1300  210.4600  149.2770 C   0  0  0  0  0  3  0  0  0  0  0  0
  160.0110  203.4290  150.7660 C   0  0  0  0  0  2  0  0  0  0  0  0
  161.9560  210.4880  150.6650 C   0  0  0  0  0  3  0  0  0  0  0  0
  160.9610  204.4370  151.3880 C   0  0  0  0  0  2  0  0  0  0  0  0
  160.8890  204.5660  148.2520 C   0  0  1  0  0  3  0  0  0  0  0  0
  161.9770  209.2620  148.5750 C   0  0  0  0  0  3  0  0  0  0  0  0
  161.4640  206.8100  148.5390 C   0  0  0  0  0  0  0  0  0  0  0  0
  161.9040  202.3290  147.5840 C   0  0  0  0  0  2  0  0  0  0  0  0
  160.7320  201.7050  147.1490 O   0  0  0  0  0  0  0  0  0  0  0  0
  158.8070  201.9420  144.7420 O   0  0  0  0  0  0  0  0  0  0  0  0
  160.9330  202.9100  145.1240 C   0  0  0  0  0  2  0  0  0  0  0  0
  160.8970  201.5550  145.7710 C   0  0  2  0  0  3  0  0  0  0  0  0
  159.6630  202.9620  144.3040 C   0  0  0  0  0  2  0  0  0  0  0  0
  159.6570  200.9210  145.1870 C   0  0  0  0  0  2  0  0  0  0  0  0
  1 18  1  0  0  0  0
  2 27  1  0  0  0  0
  3  7  1  1  0  0  0
  4 15  1  0  0  0  0
  5 19  1  0  0  0  0
  8 16  1  0  0  0  0
  9 13  1  0  0  0  0
 10 22  1  0  0  0  0
 11  5  1  0  0  0  0
 12  8  1  0  0  0  0
 13 20  1  0  0  0  0
 13 24  1  0  0  0  0
 14  2  1  0  0  0  0
 15  5  2  0  0  0  0
 15 12  1  0  0  0  0
 16  3  1  0  0  0  0
 17 28  1  6  0  0  0
 17 10  1  0  0  0  0
 18 20  1  0  0  0  0
 18  4  2  0  0  0  0
 19  6  2  0  0  0  0
 19  3  1  0  0  0  0
 20 11  2  0  0  0  0
 21 23  2  0  0  0  0
 22 24  1  0  0  0  0
 23  4  1  0  0  0  0
 25 14  1  6  0  0  0
 25 17  1  0  0  0  0
 25  9  1  0  0  0  0
 26  1  2  0  0  0  0
 26 21  1  0  0  0  0
 27  9  2  0  0  0  0
 27  1  1  0  0  0  0
 29 28  1  0  0  0  0
 30 34  1  0  0  0  0
 31 32  1  0  0  0  0
 32 29  1  1  0  0  0
 33 30  1  0  0  0  0
 33 31  1  0  0  0  0
 34 32  1  0  0  0  0
M  END
>  <MODEL>
3

>  <REMARK>
 VINA RESULT:      -8.5      2.181      9.401
  Name = 
  3 active torsions:
  status: ('A' for Active; 'I' for Inactive)
    1  A    between atoms: C_17  and  C_28
    2  A    between atoms: C_28  and  O_29
    3  A    between atoms: O_29  and  C_32
                            x       y       z     vdW  Elec       q    Type
                         _______ _______ _______ _____ _____    ______ ____

>  <TORSDO>
F 3

$$$$
=
 OpenBabel11122414313D

 34 40  0  0  1  0  0  0  0  0999 V2000
  161.0550  204.8450  151.9560 C   0  0  0  0  0  0  0  0  0  0  0  0
  160.8910  206.2600  154.1730 C   0  0  0  0  0  2  0  0  0  0  0  0
  161.9460  204.0670  145.4070 C   0  0  2  0  0  3  0  0  0  0  0  0
  161.1590  203.6920  149.7980 C   0  0  0  0  0  0  0  0  0  0  0  0
  161.3910  205.0210  147.7670 C   0  0  0  0  0  0  0  0  0  0  0  0
  161.2100  206.3160  145.7920 O   0  0  0  0  0  0  0  0  0  0  0  0
  162.4910  204.5520  144.0730 C   0  0  0  0  0  1  0  0  0  0  0  0
  160.2050  202.5330  146.4760 C   0  0  0  0  0  2  0  0  0  0  0  0
  161.1330  207.2760  152.0850 C   0  0  0  0  0  0  0  0  0  0  0  0
  161.6160  210.4570  151.6480 C   0  0  0  0  0  2  0  0  0  0  0  0
  161.3800  206.1470  148.5340 N   0  0  0  0  0  0  0  0  0  0  0  0
  161.2270  202.4590  147.6050 C   0  0  0  0  0  2  0  0  0  0  0  0
  161.2800  207.3520  150.6470 N   0  0  0  0  0  0  0  0  0  0  0  0
  161.0770  207.7600  154.4040 C   0  0  0  0  0  2  0  0  0  0  0  0
  161.2610  203.7470  148.3920 C   0  0  0  0  0  0  0  0  0  0  0  0
  160.8300  203.0490  145.1760 C   0  0  0  0  0  2  0  0  0  0  0  0
  162.0450  209.5000  152.7710 C   0  0  2  0  0  3  0  0  0  0  0  0
  161.1610  204.8870  150.5500 C   0  0  0  0  0  0  0  0  0  0  0  0
  161.5040  205.1970  146.2970 C   0  0  0  0  0  0  0  0  0  0  0  0
  161.2710  206.1220  149.8880 C   0  0  0  0  0  0  0  0  0  0  0  0
  160.9470  202.4260  151.8710 C   0  0  0  0  0  3  0  0  0  0  0  0
  160.9130  209.7860  150.4690 C   0  0  0  0  0  2  0  0  0  0  0  0
  161.0510  202.4650  150.4770 C   0  0  0  0  0  3  0  0  0  0  0  0
  161.6980  208.5850  149.9730 C   0  0  0  0  0  2  0  0  0  0  0  0
  160.9750  208.4260  153.0240 C   0  0  1  0  0  3  0  0  0  0  0  0
  160.9490  203.6130  152.6090 C   0  0  0  0  0  3  0  0  0  0  0  0
  161.0420  206.1140  152.7060 C   0  0  0  0  0  0  0  0  0  0  0  0
  162.3420  210.3300  154.0160 C   0  0  0  0  0  2  0  0  0  0  0  0
  161.1570  210.8580  154.5330 O   0  0  0  0  0  0  0  0  0  0  0  0
  161.1290  209.3130  157.2110 O   0  0  0  0  0  0  0  0  0  0  0  0
  162.8100  210.6480  156.2120 C   0  0  0  0  0  2  0  0  0  0  0  0
  161.4660  211.2120  155.8490 C   0  0  2  0  0  3  0  0  0  0  0  0
  162.5000  209.6030  157.2610 C   0  0  0  0  0  2  0  0  0  0  0  0
  160.5220  210.5030  156.7910 C   0  0  0  0  0  2  0  0  0  0  0  0
  1 26  1  0  0  0  0
  1 27  1  0  0  0  0
  2 14  1  0  0  0  0
  3  7  1  6  0  0  0
  3 19  1  0  0  0  0
  4 23  2  0  0  0  0
  4 18  1  0  0  0  0
  5 15  2  0  0  0  0
  5 11  1  0  0  0  0
  6 19  2  0  0  0  0
  8 12  1  0  0  0  0
  9 27  2  0  0  0  0
  9 25  1  0  0  0  0
 10 17  1  0  0  0  0
 11 20  2  0  0  0  0
 12 15  1  0  0  0  0
 13  9  1  0  0  0  0
 15  4  1  0  0  0  0
 16  3  1  0  0  0  0
 16  8  1  0  0  0  0
 17 25  1  0  0  0  0
 17 28  1  1  0  0  0
 18  1  2  0  0  0  0
 19  5  1  0  0  0  0
 20 18  1  0  0  0  0
 20 13  1  0  0  0  0
 21 26  2  0  0  0  0
 22 10  1  0  0  0  0
 23 21  1  0  0  0  0
 24 22  1  0  0  0  0
 24 13  1  0  0  0  0
 25 14  1  1  0  0  0
 27  2  1  0  0  0  0
 28 29  1  0  0  0  0
 30 33  1  0  0  0  0
 31 33  1  0  0  0  0
 32 29  1  6  0  0  0
 32 31  1  0  0  0  0
 32 34  1  0  0  0  0
 34 30  1  0  0  0  0
M  END
>  <MODEL>
4

>  <REMARK>
 VINA RESULT:      -8.1      1.201      1.575
  Name = 
  3 active torsions:
  status: ('A' for Active; 'I' for Inactive)
    1  A    between atoms: C_17  and  C_28
    2  A    between atoms: C_28  and  O_29
    3  A    between atoms: O_29  and  C_32
                            x       y       z     vdW  Elec       q    Type
                         _______ _______ _______ _____ _____    ______ ____

>  <TORSDO>
F 3

$$$$
=
 OpenBabel11122414313D

 34 40  0  0  1  0  0  0  0  0999 V2000
  160.7450  206.8800  154.2880 C   0  0  0  0  0  0  0  0  0  0  0  0
  161.6220  204.7280  153.0430 C   0  0  0  0  0  2  0  0  0  0  0  0
  158.7180  213.2120  154.5870 C   0  0  2  0  0  3  0  0  0  0  0  0
  160.0070  208.9840  155.3010 C   0  0  0  0  0  0  0  0  0  0  0  0
  159.8580  210.9730  153.8970 C   0  0  0  0  0  0  0  0  0  0  0  0
  160.1000  212.9670  152.6430 O   0  0  0  0  0  0  0  0  0  0  0  0
  158.1390  214.4530  153.9280 C   0  0  0  0  0  1  0  0  0  0  0  0
  160.1010  212.3990  156.5760 C   0  0  0  0  0  2  0  0  0  0  0  0
  161.3680  206.7680  151.9370 C   0  0  0  0  0  0  0  0  0  0  0  0
  161.7310  207.1640  148.7340 C   0  0  0  0  0  2  0  0  0  0  0  0
  160.2950  210.2290  152.8420 N   0  0  0  0  0  0  0  0  0  0  0  0
  159.2770  211.1280  156.3980 C   0  0  0  0  0  2  0  0  0  0  0  0
  161.0370  208.1690  151.7780 N   0  0  0  0  0  0  0  0  0  0  0  0
  161.8980  204.4900  151.5590 C   0  0  0  0  0  2  0  0  0  0  0  0
  159.7190  210.3590  155.1750 C   0  0  0  0  0  0  0  0  0  0  0  0
  159.4590  213.5950  155.8660 C   0  0  0  0  0  2  0  0  0  0  0  0
  161.2230  205.9790  149.5690 C   0  0  2  0  0  3  0  0  0  0  0  0
  160.4490  208.2540  154.1750 C   0  0  0  0  0  0  0  0  0  0  0  0
  159.5830  212.4100  153.6510 C   0  0  0  0  0  0  0  0  0  0  0  0
  160.5910  208.9060  152.9380 C   0  0  0  0  0  0  0  0  0  0  0  0
  160.1610  206.9520  156.6390 C   0  0  0  0  0  3  0  0  0  0  0  0
  162.0370  208.4270  149.5370 C   0  0  0  0  0  2  0  0  0  0  0  0
  159.8680  208.3150  156.5300 C   0  0  0  0  0  3  0  0  0  0  0  0
  160.8840  208.7860  150.4580 C   0  0  0  0  0  2  0  0  0  0  0  0
  161.9760  205.8770  150.9040 C   0  0  1  0  0  3  0  0  0  0  0  0
  160.6000  206.2360  155.5220 C   0  0  0  0  0  3  0  0  0  0  0  0
  161.2220  206.1550  153.0970 C   0  0  0  0  0  0  0  0  0  0  0  0
  161.3550  204.7130  148.7280 C   0  0  0  0  0  2  0  0  0  0  0  0
  160.7760  204.9110  147.4720 O   0  0  0  0  0  0  0  0  0  0  0  0
  160.6970  204.0970  144.4900 O   0  0  0  0  0  0  0  0  0  0  0  0
  162.0640  205.6560  145.6330 C   0  0  0  0  0  2  0  0  0  0  0  0
  161.7550  204.5150  146.5590 C   0  0  2  0  0  3  0  0  0  0  0  0
  161.5540  205.1890  144.2880 C   0  0  0  0  0  2  0  0  0  0  0  0
  161.1840  203.4620  145.6400 C   0  0  0  0  0  2  0  0  0  0  0  0
  1 26  1  0  0  0  0
  2 27  1  0  0  0  0
  3  7  1  6  0  0  0
  3 16  1  0  0  0  0
  4 23  2  0  0  0  0
  5 15  2  0  0  0  0
  6 19  2  0  0  0  0
  9 27  2  0  0  0  0
 10 22  1  0  0  0  0
 10 17  1  0  0  0  0
 11 20  2  0  0  0  0
 11  5  1  0  0  0  0
 12  8  1  0  0  0  0
 13  9  1  0  0  0  0
 13 20  1  0  0  0  0
 14  2  1  0  0  0  0
 15  4  1  0  0  0  0
 15 12  1  0  0  0  0
 16  8  1  0  0  0  0
 17 28  1  6  0  0  0
 17 25  1  0  0  0  0
 18  1  2  0  0  0  0
 18  4  1  0  0  0  0
 19  5  1  0  0  0  0
 19  3  1  0  0  0  0
 20 18  1  0  0  0  0
 22 24  1  0  0  0  0
 23 21  1  0  0  0  0
 24 13  1  0  0  0  0
 25 14  1  1  0  0  0
 25  9  1  0  0  0  0
 26 21  2  0  0  0  0
 27  1  1  0  0  0  0
 29 28  1  0  0  0  0
 30 34  1  0  0  0  0
 31 32  1  0  0  0  0
 32 29  1  1  0  0  0
 33 30  1  0  0  0  0
 33 31  1  0  0  0  0
 34 32  1  0  0  0  0
M  END
>  <MODEL>
5

>  <REMARK>
 VINA RESULT:      -8.1      1.685      8.838
  Name = 
  3 active torsions:
  status: ('A' for Active; 'I' for Inactive)
    1  A    between atoms: C_17  and  C_28
    2  A    between atoms: C_28  and  O_29
    3  A    between atoms: O_29  and  C_32
                            x       y       z     vdW  Elec       q    Type
                         _______ _______ _______ _____ _____    ______ ____

>  <TORSDO>
F 3

$$$$
=
 OpenBabel11122414313D

 34 40  0  0  1  0  0  0  0  0999 V2000
  160.8940  207.6440  154.2960 C   0  0  0  0  0  0  0  0  0  0  0  0
  162.3320  205.9490  152.8790 C   0  0  0  0  0  2  0  0  0  0  0  0
  157.4690  213.2750  155.2150 C   0  0  2  0  0  3  0  0  0  0  0  0
  159.6200  209.3580  155.4930 C   0  0  0  0  0  0  0  0  0  0  0  0
  159.1380  211.4650  154.3620 C   0  0  0  0  0  0  0  0  0  0  0  0
  159.0220  213.6370  153.4240 O   0  0  0  0  0  0  0  0  0  0  0  0
  156.6790  214.4530  154.6680 C   0  0  0  0  0  1  0  0  0  0  0  0
  158.8350  212.4730  157.2190 C   0  0  0  0  0  2  0  0  0  0  0  0
  161.7130  208.0360  152.0360 C   0  0  0  0  0  0  0  0  0  0  0  0
  162.2340  208.9960  148.9780 C   0  0  0  0  0  2  0  0  0  0  0  0
  159.8150  211.0050  153.2730 N   0  0  0  0  0  0  0  0  0  0  0  0
  158.3370  211.1000  156.7800 C   0  0  0  0  0  2  0  0  0  0  0  0
  161.0880  209.3420  152.0320 N   0  0  0  0  0  0  0  0  0  0  0  0
  162.7730  206.0100  151.4170 C   0  0  0  0  0  2  0  0  0  0  0  0
  159.0380  210.6430  155.5220 C   0  0  0  0  0  0  0  0  0  0  0  0
  157.9990  213.6020  156.6100 C   0  0  0  0  0  2  0  0  0  0  0  0
  161.9420  207.6140  149.5830 C   0  0  2  0  0  3  0  0  0  0  0  0
  160.3050  208.9240  154.3370 C   0  0  0  0  0  0  0  0  0  0  0  0
  158.5660  212.8320  154.2830 C   0  0  0  0  0  0  0  0  0  0  0  0
  160.3950  209.7770  153.2230 C   0  0  0  0  0  0  0  0  0  0  0  0
  160.1210  207.2210  156.5530 C   0  0  0  0  0  3  0  0  0  0  0  0
  162.1810  210.1540  149.9730 C   0  0  0  0  0  2  0  0  0  0  0  0
  159.5370  208.4910  156.5970 C   0  0  0  0  0  3  0  0  0  0  0  0
  160.9060  210.1120  150.7980 C   0  0  0  0  0  2  0  0  0  0  0  0
  162.5880  207.4660  150.9690 C   0  0  1  0  0  3  0  0  0  0  0  0
  160.7990  206.7980  155.4070 C   0  0  0  0  0  3  0  0  0  0  0  0
  161.6170  207.2320  153.0790 C   0  0  0  0  0  0  0  0  0  0  0  0
  162.4240  206.5530  148.5990 C   0  0  0  0  0  2  0  0  0  0  0  0
  162.5220  207.0990  147.3160 O   0  0  0  0  0  0  0  0  0  0  0  0
  162.5830  204.6300  145.4580 O   0  0  0  0  0  0  0  0  0  0  0  0
  161.1590  205.1670  147.2710 C   0  0  0  0  0  2  0  0  0  0  0  0
  161.5460  206.4360  146.5690 C   0  0  2  0  0  3  0  0  0  0  0  0
  161.6660  204.0710  146.3590 C   0  0  0  0  0  2  0  0  0  0  0  0
  162.1540  205.9500  145.2750 C   0  0  0  0  0  2  0  0  0  0  0  0
  1 18  2  0  0  0  0
  1 26  1  0  0  0  0
  2 27  1  0  0  0  0
  3  7  1  6  0  0  0
  3 16  1  0  0  0  0
  4 15  1  0  0  0  0
  4 23  2  0  0  0  0
  5 15  2  0  0  0  0
  6 19  2  0  0  0  0
  9 27  2  0  0  0  0
 10 17  1  0  0  0  0
 10 22  1  0  0  0  0
 11  5  1  0  0  0  0
 12  8  1  0  0  0  0
 13  9  1  0  0  0  0
 13 20  1  0  0  0  0
 14  2  1  0  0  0  0
 15 12  1  0  0  0  0
 16  8  1  0  0  0  0
 17 28  1  6  0  0  0
 17 25  1  0  0  0  0
 18  4  1  0  0  0  0
 19  5  1  0  0  0  0
 19  3  1  0  0  0  0
 20 11  2  0  0  0  0
 20 18  1  0  0  0  0
 21 23  1  0  0  0  0
 22 24  1  0  0  0  0
 24 13  1  0  0  0  0
 25 14  1  1  0  0  0
 25  9  1  0  0  0  0
 26 21  2  0  0  0  0
 27  1  1  0  0  0  0
 29 28  1  0  0  0  0
 30 33  1  0  0  0  0
 32 31  1  0  0  0  0
 32 29  1  1  0  0  0
 33 31  1  0  0  0  0
 34 30  1  0  0  0  0
 34 32  1  0  0  0  0
M  END
>  <MODEL>
6

>  <REMARK>
 VINA RESULT:      -6.5      1.935      8.861
  Name = 
  3 active torsions:
  status: ('A' for Active; 'I' for Inactive)
    1  A    between atoms: C_17  and  C_28
    2  A    between atoms: C_28  and  O_29
    3  A    between atoms: O_29  and  C_32
                            x       y       z     vdW  Elec       q    Type
                         _______ _______ _______ _____ _____    ______ ____

>  <TORSDO>
F 3

$$$$
