=
 OpenBabel11122412413D

 30 35  0  0  1  0  0  0  0  0999 V2000
  161.4430  206.3100  150.4700 C   0  0  0  0  0  0  0  0  0  0  0  0
  161.0880  203.8590  150.2980 C   0  0  0  0  0  0  0  0  0  0  0  0
  160.8220  206.1710  155.0150 S   0  0  0  0  0  0  0  0  0  0  0  0
  161.4910  207.4820  151.2560 C   0  0  0  0  0  0  0  0  0  0  0  0
  161.6560  206.4110  149.0910 O   0  0  0  0  0  0  0  0  0  0  0  0
  162.2120  209.8880  148.6150 O   0  0  0  0  0  0  0  0  0  0  0  0
  160.1780  210.0490  152.1510 C   0  0  1  0  0  3  0  0  0  0  0  0
  162.0530  208.7870  149.2100 C   0  0  0  0  0  0  0  0  0  0  0  0
  160.3340  209.4550  153.4950 N   0  0  2  0  0  0  0  0  0  0  0  0
  161.4560  207.8400  154.9530 C   0  0  0  0  0  0  0  0  0  0  0  0
  162.3500  207.5020  148.4930 C   0  0  2  0  0  3  0  0  0  0  0  0
  161.6770  208.7610  150.6000 N   0  0  0  0  0  0  0  0  0  0  0  0
  160.8160  202.6410  150.9250 C   0  0  0  0  0  3  0  0  0  0  0  0
  160.5560  210.5910  154.3820 C   0  0  0  0  0  2  0  0  0  0  0  0
  159.6810  211.4710  152.3320 C   0  0  0  0  0  2  0  0  0  0  0  0
  161.2750  203.8590  148.9200 O   0  0  0  0  0  1  0  0  0  0  0  0
  161.0390  206.1410  153.2370 C   0  0  0  0  0  0  0  0  0  0  0  0
  160.6210  202.5800  152.3030 C   0  0  0  0  0  3  0  0  0  0  0  0
  161.1650  205.0510  151.0600 C   0  0  0  0  0  0  0  0  0  0  0  0
  161.3060  207.3720  152.6480 C   0  0  0  0  0  0  0  0  0  0  0  0
  161.9510  208.3690  155.9350 O   0  0  0  0  0  0  0  0  0  0  0  0
  161.4540  208.5070  153.6120 C   0  0  1  0  0  3  0  0  0  0  0  0
  159.7850  211.7570  153.8110 C   0  0  0  0  0  2  0  0  0  0  0  0
  162.7050  210.6040  151.9060 C   0  0  0  0  0  1  0  0  0  0  0  0
  160.6940  203.7420  153.0680 C   0  0  0  0  0  3  0  0  0  0  0  0
  160.9640  204.9760  152.4640 C   0  0  0  0  0  0  0  0  0  0  0  0
  161.4390  210.0500  151.2590 C   0  0  2  0  0  3  0  0  0  0  0  0
  161.9880  207.5870  147.0140 C   0  0  0  0  0  2  0  0  0  0  0  0
  160.4710  206.1830  145.6190 C   0  0  0  0  0  1  0  0  0  0  0  0
  161.7550  206.2050  146.4260 C   0  0  0  0  0  2  0  0  0  0  0  0
  1 19  2  0  0  0  0
  1  4  1  0  0  0  0
  2 13  2  0  0  0  0
  2 19  1  0  0  0  0
  4 20  2  0  0  0  0
  5  1  1  0  0  0  0
  6  8  2  0  0  0  0
  7 15  1  1  0  0  0
  7  9  1  0  0  0  0
  8 12  1  0  0  0  0
  9 22  1  0  0  0  0
  9 14  1  1  0  0  0
 10  3  1  0  0  0  0
 10 21  2  0  0  0  0
 11 28  1  6  0  0  0
 11  5  1  0  0  0  0
 11  8  1  0  0  0  0
 12  4  1  0  0  0  0
 12 27  1  0  0  0  0
 13 18  1  0  0  0  0
 15 23  1  0  0  0  0
 16  2  1  0  0  0  0
 17  3  1  0  0  0  0
 18 25  2  0  0  0  0
 19 26  1  0  0  0  0
 20 17  1  0  0  0  0
 22 20  1  6  0  0  0
 22 10  1  0  0  0  0
 23 14  1  0  0  0  0
 26 25  1  0  0  0  0
 26 17  2  0  0  0  0
 27 24  1  1  0  0  0
 27  7  1  0  0  0  0
 29 30  1  0  0  0  0
 30 28  1  0  0  0  0
M  END
>  <MODEL>
1

>  <REMARK>
 VINA RESULT:      -6.5      0.000      0.000
  Name = 
  2 active torsions:
  status: ('A' for Active; 'I' for Inactive)
    1  A    between atoms: C_11  and  C_28
    2  A    between atoms: C_28  and  C_30
                            x       y       z     vdW  Elec       q    Type
                         _______ _______ _______ _____ _____    ______ ____

>  <TORSDO>
F 2

$$$$
=
 OpenBabel11122412413D

 30 35  0  0  1  0  0  0  0  0999 V2000
  160.9350  210.3390  151.4970 C   0  0  0  0  0  0  0  0  0  0  0  0
  162.0530  208.3870  150.4470 C   0  0  0  0  0  0  0  0  0  0  0  0
  160.3360  208.0070  155.4050 S   0  0  0  0  0  0  0  0  0  0  0  0
  160.2750  210.9140  152.6050 C   0  0  0  0  0  0  0  0  0  0  0  0
  161.1040  211.1030  150.3380 O   0  0  0  0  0  0  0  0  0  0  0  0
  159.5880  214.2020  151.1900 O   0  0  0  0  0  0  0  0  0  0  0  0
  157.6970  211.8060  153.9000 C   0  0  1  0  0  3  0  0  0  0  0  0
  160.0650  213.0420  151.3270 C   0  0  0  0  0  0  0  0  0  0  0  0
  158.1140  210.8710  154.9660 N   0  0  2  0  0  0  0  0  0  0  0  0
  159.9030  209.6100  156.0630 C   0  0  0  0  0  0  0  0  0  0  0  0
  161.0710  212.5270  150.3390 C   0  0  2  0  0  3  0  0  0  0  0  0
  159.7200  212.2470  152.4770 N   0  0  0  0  0  0  0  0  0  0  0  0
  162.5040  207.0690  150.5460 C   0  0  0  0  0  3  0  0  0  0  0  0
  157.6130  211.4660  156.2000 C   0  0  0  0  0  2  0  0  0  0  0  0
  156.4690  212.5480  154.3940 C   0  0  0  0  0  2  0  0  0  0  0  0
  162.2580  209.0610  149.2490 O   0  0  0  0  0  1  0  0  0  0  0  0
  160.5980  208.8420  153.8420 C   0  0  0  0  0  0  0  0  0  0  0  0
  162.3270  206.3440  151.7230 C   0  0  0  0  0  3  0  0  0  0  0  0
  161.4060  209.0020  151.5480 C   0  0  0  0  0  0  0  0  0  0  0  0
  160.1340  210.1520  153.7820 C   0  0  0  0  0  0  0  0  0  0  0  0
  159.9690  209.8460  157.2580 O   0  0  0  0  0  0  0  0  0  0  0  0
  159.5700  210.6760  155.0640 C   0  0  1  0  0  3  0  0  0  0  0  0
  156.3360  212.1930  155.8550 C   0  0  0  0  0  2  0  0  0  0  0  0
  159.4590  213.6060  154.5380 C   0  0  0  0  0  1  0  0  0  0  0  0
  161.6940  206.9340  152.8150 C   0  0  0  0  0  3  0  0  0  0  0  0
  161.2320  208.2540  152.7410 C   0  0  0  0  0  0  0  0  0  0  0  0
  158.7630  212.8190  153.4310 C   0  0  2  0  0  3  0  0  0  0  0  0
  160.7810  213.0310  148.9290 C   0  0  0  0  0  2  0  0  0  0  0  0
  162.9890  212.6350  147.8400 C   0  0  0  0  0  1  0  0  0  0  0  0
  161.5320  212.2160  147.8890 C   0  0  0  0  0  2  0  0  0  0  0  0
  1 19  2  0  0  0  0
  1  4  1  0  0  0  0
  2 13  2  0  0  0  0
  2 19  1  0  0  0  0
  3 10  1  0  0  0  0
  4 20  2  0  0  0  0
  5 11  1  0  0  0  0
  5  1  1  0  0  0  0
  6  8  2  0  0  0  0
  7 15  1  1  0  0  0
  7  9  1  0  0  0  0
  8 12  1  0  0  0  0
  9 22  1  0  0  0  0
  9 14  1  1  0  0  0
 10 21  2  0  0  0  0
 11 28  1  6  0  0  0
 11  8  1  0  0  0  0
 12  4  1  0  0  0  0
 12 27  1  0  0  0  0
 13 18  1  0  0  0  0
 15 23  1  0  0  0  0
 16  2  1  0  0  0  0
 17  3  1  0  0  0  0
 18 25  2  0  0  0  0
 19 26  1  0  0  0  0
 20 17  1  0  0  0  0
 22 20  1  6  0  0  0
 22 10  1  0  0  0  0
 23 14  1  0  0  0  0
 26 25  1  0  0  0  0
 26 17  2  0  0  0  0
 27  7  1  0  0  0  0
 27 24  1  1  0  0  0
 29 30  1  0  0  0  0
 30 28  1  0  0  0  0
M  END
>  <MODEL>
2

>  <REMARK>
 VINA RESULT:      -6.4      2.727      4.388
  Name = 
  2 active torsions:
  status: ('A' for Active; 'I' for Inactive)
    1  A    between atoms: C_11  and  C_28
    2  A    between atoms: C_28  and  C_30
                            x       y       z     vdW  Elec       q    Type
                         _______ _______ _______ _____ _____    ______ ____

>  <TORSDO>
F 2

$$$$
=
 OpenBabel11122412413D

 30 35  0  0  1  0  0  0  0  0999 V2000
  161.1660  210.2880  151.1840 C   0  0  0  0  0  0  0  0  0  0  0  0
  161.8890  210.8910  148.8870 C   0  0  0  0  0  0  0  0  0  0  0  0
  159.3380  214.4530  151.7980 S   0  0  0  0  0  0  0  0  0  0  0  0
  160.5550  210.6530  152.4040 C   0  0  0  0  0  0  0  0  0  0  0  0
  161.6910  208.9990  151.0490 O   0  0  0  0  0  0  0  0  0  0  0  0
  160.9950  207.5110  154.2010 O   0  0  0  0  0  0  0  0  0  0  0  0
  160.8440  211.4380  155.3050 C   0  0  1  0  0  3  0  0  0  0  0  0
  160.9700  208.3490  153.2570 C   0  0  0  0  0  0  0  0  0  0  0  0
  160.0940  212.6360  154.8730 N   0  0  2  0  0  0  0  0  0  0  0  0
  158.6090  213.7020  153.2450 C   0  0  0  0  0  0  0  0  0  0  0  0
  161.2690  207.9030  151.8550 C   0  0  2  0  0  3  0  0  0  0  0  0
  160.5660  209.7080  153.5040 N   0  0  0  0  0  0  0  0  0  0  0  0
  161.9580  211.8370  147.8620 C   0  0  0  0  0  3  0  0  0  0  0  0
  159.2890  213.0090  156.0310 C   0  0  0  0  0  2  0  0  0  0  0  0
  160.9740  211.4980  156.8160 C   0  0  0  0  0  2  0  0  0  0  0  0
  162.4500  209.6380  148.6610 O   0  0  0  0  0  1  0  0  0  0  0  0
  160.0870  212.8560  151.4820 C   0  0  0  0  0  0  0  0  0  0  0  0
  161.4120  213.1080  148.0320 C   0  0  0  0  0  3  0  0  0  0  0  0
  161.2640  211.2160  150.1170 C   0  0  0  0  0  0  0  0  0  0  0  0
  160.0000  211.9410  152.5270 C   0  0  0  0  0  0  0  0  0  0  0  0
  157.6070  214.1660  153.7660 O   0  0  0  0  0  0  0  0  0  0  0  0
  159.2180  212.4150  153.7100 C   0  0  1  0  0  3  0  0  0  0  0  0
  160.0770  212.6270  157.2610 C   0  0  0  0  0  2  0  0  0  0  0  0
  158.7680  209.8790  155.2060 C   0  0  0  0  0  1  0  0  0  0  0  0
  160.7920  213.4440  149.2330 C   0  0  0  0  0  3  0  0  0  0  0  0
  160.7120  212.5140  150.2770 C   0  0  0  0  0  0  0  0  0  0  0  0
  160.2460  210.0770  154.8880 C   0  0  2  0  0  3  0  0  0  0  0  0
  162.3330  206.8100  151.8280 C   0  0  0  0  0  2  0  0  0  0  0  0
  160.8760  205.5150  150.2730 C   0  0  0  0  0  1  0  0  0  0  0  0
  161.7180  205.4520  151.5330 C   0  0  0  0  0  2  0  0  0  0  0  0
  1  4  1  0  0  0  0
  2 19  1  0  0  0  0
  3 10  1  0  0  0  0
  4 20  2  0  0  0  0
  4 12  1  0  0  0  0
  5  1  1  0  0  0  0
  5 11  1  0  0  0  0
  7 15  1  1  0  0  0
  8 12  1  0  0  0  0
  8  6  2  0  0  0  0
  9  7  1  0  0  0  0
  9 14  1  1  0  0  0
 10 22  1  0  0  0  0
 10 21  2  0  0  0  0
 11 28  1  1  0  0  0
 11  8  1  0  0  0  0
 12 27  1  0  0  0  0
 13 18  1  0  0  0  0
 13  2  2  0  0  0  0
 14 23  1  0  0  0  0
 15 23  1  0  0  0  0
 16  2  1  0  0  0  0
 17  3  1  0  0  0  0
 17 20  1  0  0  0  0
 18 25  2  0  0  0  0
 19 26  1  0  0  0  0
 19  1  2  0  0  0  0
 22 20  1  6  0  0  0
 22  9  1  0  0  0  0
 25 26  1  0  0  0  0
 26 17  2  0  0  0  0
 27 24  1  6  0  0  0
 27  7  1  0  0  0  0
 29 30  1  0  0  0  0
 30 28  1  0  0  0  0
M  END
>  <MODEL>
3

>  <REMARK>
 VINA RESULT:      -5.9      2.993      6.052
  Name = 
  2 active torsions:
  status: ('A' for Active; 'I' for Inactive)
    1  A    between atoms: C_11  and  C_28
    2  A    between atoms: C_28  and  C_30
                            x       y       z     vdW  Elec       q    Type
                         _______ _______ _______ _____ _____    ______ ____

>  <TORSDO>
F 2

$$$$
=
 OpenBabel11122412413D

 30 35  0  0  1  0  0  0  0  0999 V2000
  161.5390  208.0610  149.7990 C   0  0  0  0  0  0  0  0  0  0  0  0
  161.5230  206.1960  148.1600 C   0  0  0  0  0  0  0  0  0  0  0  0
  160.8770  205.1340  153.2720 S   0  0  0  0  0  0  0  0  0  0  0  0
  161.4160  208.5130  151.1310 C   0  0  0  0  0  0  0  0  0  0  0  0
  161.7560  208.9980  148.7830 O   0  0  0  0  0  0  0  0  0  0  0  0
  161.8420  212.0850  150.5400 O   0  0  0  0  0  0  0  0  0  0  0  0
  159.7530  209.8660  153.2570 C   0  0  1  0  0  3  0  0  0  0  0  0
  161.8240  210.8400  150.3390 C   0  0  0  0  0  0  0  0  0  0  0  0
  159.9690  208.5980  153.9840 N   0  0  2  0  0  0  0  0  0  0  0  0
  161.2790  206.5520  154.2810 C   0  0  0  0  0  0  0  0  0  0  0  0
  162.3050  210.2900  149.0260 C   0  0  2  0  0  3  0  0  0  0  0  0
  161.4360  209.9390  151.3920 N   0  0  0  0  0  0  0  0  0  0  0  0
  161.4110  204.8280  147.9040 C   0  0  0  0  0  3  0  0  0  0  0  0
  160.0220  208.9790  155.3910 C   0  0  0  0  0  2  0  0  0  0  0  0
  159.0640  210.8290  154.2060 C   0  0  0  0  0  2  0  0  0  0  0  0
  161.7290  207.0500  147.0820 O   0  0  0  0  0  1  0  0  0  0  0  0
  161.1220  206.2100  151.8600 C   0  0  0  0  0  0  0  0  0  0  0  0
  161.2050  203.9250  148.9450 C   0  0  0  0  0  3  0  0  0  0  0  0
  161.4260  206.6820  149.4880 C   0  0  0  0  0  0  0  0  0  0  0  0
  161.2270  207.5650  152.1550 C   0  0  0  0  0  0  0  0  0  0  0  0
  161.6830  206.4230  155.4250 O   0  0  0  0  0  0  0  0  0  0  0  0
  161.2060  207.8910  153.6140 C   0  0  1  0  0  3  0  0  0  0  0  0
  159.1070  210.1680  155.5630 C   0  0  0  0  0  2  0  0  0  0  0  0
  162.1840  210.7040  153.6310 C   0  0  0  0  0  1  0  0  0  0  0  0
  161.1100  204.3850  150.2560 C   0  0  0  0  0  3  0  0  0  0  0  0
  161.2170  205.7520  150.5400 C   0  0  0  0  0  0  0  0  0  0  0  0
  161.0150  210.5330  152.6670 C   0  0  2  0  0  3  0  0  0  0  0  0
  161.9560  211.2180  147.8670 C   0  0  0  0  0  2  0  0  0  0  0  0
  162.5260  213.6050  147.4240 C   0  0  0  0  0  1  0  0  0  0  0  0
  163.0800  212.2040  147.5970 C   0  0  0  0  0  2  0  0  0  0  0  0
  1  4  1  0  0  0  0
  2 19  1  0  0  0  0
  3 10  1  0  0  0  0
  4 12  1  0  0  0  0
  4 20  2  0  0  0  0
  5 11  1  0  0  0  0
  5  1  1  0  0  0  0
  7  9  1  0  0  0  0
  7 15  1  1  0  0  0
  8  6  2  0  0  0  0
  8 12  1  0  0  0  0
  9 14  1  1  0  0  0
 10 21  2  0  0  0  0
 11 28  1  6  0  0  0
 11  8  1  0  0  0  0
 12 27  1  0  0  0  0
 13  2  2  0  0  0  0
 13 18  1  0  0  0  0
 14 23  1  0  0  0  0
 15 23  1  0  0  0  0
 16  2  1  0  0  0  0
 17 20  1  0  0  0  0
 17  3  1  0  0  0  0
 18 25  2  0  0  0  0
 19  1  2  0  0  0  0
 19 26  1  0  0  0  0
 22 20  1  6  0  0  0
 22  9  1  0  0  0  0
 22 10  1  0  0  0  0
 25 26  1  0  0  0  0
 26 17  2  0  0  0  0
 27  7  1  0  0  0  0
 27 24  1  1  0  0  0
 29 30  1  0  0  0  0
 30 28  1  0  0  0  0
M  END
>  <MODEL>
4

>  <REMARK>
 VINA RESULT:      -5.7      1.918      2.924
  Name = 
  2 active torsions:
  status: ('A' for Active; 'I' for Inactive)
    1  A    between atoms: C_11  and  C_28
    2  A    between atoms: C_28  and  C_30
                            x       y       z     vdW  Elec       q    Type
                         _______ _______ _______ _____ _____    ______ ____

>  <TORSDO>
F 2

$$$$
=
 OpenBabel11122412413D

 30 35  0  0  1  0  0  0  0  0999 V2000
  160.3440  209.6710  153.2640 C   0  0  0  0  0  0  0  0  0  0  0  0
  159.2740  211.6860  154.2410 C   0  0  0  0  0  0  0  0  0  0  0  0
  161.2060  211.9150  149.3540 S   0  0  0  0  0  0  0  0  0  0  0  0
  160.9730  209.0340  152.1710 C   0  0  0  0  0  0  0  0  0  0  0  0
  160.1220  208.9410  154.4370 O   0  0  0  0  0  0  0  0  0  0  0  0
  161.4570  205.7410  153.6590 O   0  0  0  0  0  0  0  0  0  0  0  0
  160.8020  207.0950  149.8630 C   0  0  1  0  0  3  0  0  0  0  0  0
  161.1920  206.9700  153.5490 C   0  0  0  0  0  0  0  0  0  0  0  0
  161.2060  208.2750  149.0710 N   0  0  2  0  0  0  0  0  0  0  0  0
  162.2320  210.4960  148.9980 C   0  0  0  0  0  0  0  0  0  0  0  0
  160.8670  207.7750  154.7750 C   0  0  2  0  0  3  0  0  0  0  0  0
  161.2920  207.6230  152.2710 N   0  0  0  0  0  0  0  0  0  0  0  0
  158.8860  213.0210  154.1070 C   0  0  0  0  0  3  0  0  0  0  0  0
  162.0140  207.7340  147.9840 C   0  0  0  0  0  2  0  0  0  0  0  0
  160.8130  205.8930  148.9370 C   0  0  0  0  0  2  0  0  0  0  0  0
  159.0000  211.0430  155.4430 O   0  0  0  0  0  1  0  0  0  0  0  0
  160.8220  211.1080  150.9070 C   0  0  0  0  0  0  0  0  0  0  0  0
  159.1350  213.7170  152.9250 C   0  0  0  0  0  3  0  0  0  0  0  0
  159.9270  211.0220  153.1730 C   0  0  0  0  0  0  0  0  0  0  0  0
  161.2220  209.7790  151.0030 C   0  0  0  0  0  0  0  0  0  0  0  0
  163.1450  210.5580  148.1910 O   0  0  0  0  0  0  0  0  0  0  0  0
  161.9880  209.2700  149.8230 C   0  0  1  0  0  3  0  0  0  0  0  0
  161.4640  206.3660  147.6600 C   0  0  0  0  0  2  0  0  0  0  0  0
  163.1630  206.7510  150.8930 C   0  0  0  0  0  1  0  0  0  0  0  0
  159.7770  213.0810  151.8650 C   0  0  0  0  0  3  0  0  0  0  0  0
  160.1760  211.7420  151.9750 C   0  0  0  0  0  0  0  0  0  0  0  0
  161.6540  206.7940  151.1150 C   0  0  2  0  0  3  0  0  0  0  0  0
  160.0880  206.9520  155.7960 C   0  0  0  0  0  2  0  0  0  0  0  0
  161.4900  208.4050  157.2610 C   0  0  0  0  0  1  0  0  0  0  0  0
  160.2700  207.5050  157.2000 C   0  0  0  0  0  2  0  0  0  0  0  0
  1  5  1  0  0  0  0
  2 16  1  0  0  0  0
  3 17  1  0  0  0  0
  4 12  1  0  0  0  0
  4  1  2  0  0  0  0
  5 11  1  0  0  0  0
  7 15  1  6  0  0  0
  7 27  1  0  0  0  0
  8  6  2  0  0  0  0
  8 11  1  0  0  0  0
  9 14  1  6  0  0  0
  9 22  1  0  0  0  0
  9  7  1  0  0  0  0
 10  3  1  0  0  0  0
 11 28  1  1  0  0  0
 12  8  1  0  0  0  0
 13  2  1  0  0  0  0
 17 20  2  0  0  0  0
 17 26  1  0  0  0  0
 18 13  2  0  0  0  0
 19  1  1  0  0  0  0
 19  2  2  0  0  0  0
 20  4  1  0  0  0  0
 21 10  2  0  0  0  0
 22 10  1  6  0  0  0
 22 20  1  0  0  0  0
 23 14  1  0  0  0  0
 23 15  1  0  0  0  0
 25 26  2  0  0  0  0
 25 18  1  0  0  0  0
 26 19  1  0  0  0  0
 27 24  1  6  0  0  0
 27 12  1  0  0  0  0
 28 30  1  0  0  0  0
 30 29  1  0  0  0  0
M  END
>  <MODEL>
5

>  <REMARK>
 VINA RESULT:      -5.3      2.648      7.251
  Name = 
  2 active torsions:
  status: ('A' for Active; 'I' for Inactive)
    1  A    between atoms: C_11  and  C_28
    2  A    between atoms: C_28  and  C_30
                            x       y       z     vdW  Elec       q    Type
                         _______ _______ _______ _____ _____    ______ ____

>  <TORSDO>
F 2

$$$$
=
 OpenBabel11122412413D

 30 35  0  0  1  0  0  0  0  0999 V2000
  161.0200  209.6040  152.1470 C   0  0  0  0  0  0  0  0  0  0  0  0
  161.5930  207.3610  153.0420 C   0  0  0  0  0  0  0  0  0  0  0  0
  158.8500  210.7030  156.0400 S   0  0  0  0  0  0  0  0  0  0  0  0
  160.3800  210.8530  152.3070 C   0  0  0  0  0  0  0  0  0  0  0  0
  161.6790  209.3320  150.9440 O   0  0  0  0  0  0  0  0  0  0  0  0
  161.1770  212.3010  149.0580 O   0  0  0  0  0  0  0  0  0  0  0  0
  158.0540  212.6680  151.6620 C   0  0  1  0  0  3  0  0  0  0  0  0
  161.1860  211.5150  150.0450 C   0  0  0  0  0  0  0  0  0  0  0  0
  157.8920  212.6900  153.1310 N   0  0  2  0  0  0  0  0  0  0  0  0
  158.8670  212.3500  155.3500 C   0  0  0  0  0  0  0  0  0  0  0  0
  162.1380  210.3530  150.0640 C   0  0  2  0  0  3  0  0  0  0  0  0
  160.3570  211.7780  151.1910 N   0  0  0  0  0  0  0  0  0  0  0  0
  161.5330  206.4370  154.0880 C   0  0  0  0  0  3  0  0  0  0  0  0
  157.3780  214.0220  153.4280 C   0  0  0  0  0  2  0  0  0  0  0  0
  157.0810  213.6740  151.0760 C   0  0  0  0  0  2  0  0  0  0  0  0
  162.2640  206.9930  151.8810 O   0  0  0  0  0  1  0  0  0  0  0  0
  159.7050  210.1910  154.5500 C   0  0  0  0  0  0  0  0  0  0  0  0
  160.8750  206.7520  155.2760 C   0  0  0  0  0  3  0  0  0  0  0  0
  160.9810  208.6320  153.1780 C   0  0  0  0  0  0  0  0  0  0  0  0
  159.7420  211.1370  153.5310 C   0  0  0  0  0  0  0  0  0  0  0  0
  158.7570  213.3370  156.0600 O   0  0  0  0  0  0  0  0  0  0  0  0
  159.1370  212.4590  153.8810 C   0  0  1  0  0  3  0  0  0  0  0  0
  156.5310  214.4440  152.2520 C   0  0  0  0  0  2  0  0  0  0  0  0
  160.1520  214.2010  151.6890 C   0  0  0  0  0  1  0  0  0  0  0  0
  160.2690  207.9970  155.4270 C   0  0  0  0  0  3  0  0  0  0  0  0
  160.3140  208.9410  154.3930 C   0  0  0  0  0  0  0  0  0  0  0  0
  159.4770  212.9510  151.1320 C   0  0  2  0  0  3  0  0  0  0  0  0
  162.3410  209.7710  148.6690 C   0  0  0  0  0  2  0  0  0  0  0  0
  162.6390  207.3400  148.1960 C   0  0  0  0  0  1  0  0  0  0  0  0
  161.6380  208.4310  148.5260 C   0  0  0  0  0  2  0  0  0  0  0  0
  1  4  2  0  0  0  0
  1 19  1  0  0  0  0
  2 19  2  0  0  0  0
  2 13  1  0  0  0  0
  4 20  1  0  0  0  0
  5  1  1  0  0  0  0
  6  8  2  0  0  0  0
  7 15  1  6  0  0  0
  7  9  1  0  0  0  0
  8 11  1  0  0  0  0
  8 12  1  0  0  0  0
  9 14  1  1  0  0  0
  9 22  1  0  0  0  0
 10  3  1  0  0  0  0
 10 21  2  0  0  0  0
 11 28  1  6  0  0  0
 11  5  1  0  0  0  0
 12  4  1  0  0  0  0
 13 18  2  0  0  0  0
 15 23  1  0  0  0  0
 16  2  1  0  0  0  0
 17  3  1  0  0  0  0
 18 25  1  0  0  0  0
 19 26  1  0  0  0  0
 20 17  2  0  0  0  0
 22 20  1  6  0  0  0
 22 10  1  0  0  0  0
 23 14  1  0  0  0  0
 26 17  1  0  0  0  0
 26 25  2  0  0  0  0
 27 12  1  0  0  0  0
 27  7  1  0  0  0  0
 27 24  1  1  0  0  0
 29 30  1  0  0  0  0
 30 28  1  0  0  0  0
M  END
>  <MODEL>
6

>  <REMARK>
 VINA RESULT:      -5.2      2.763      4.167
  Name = 
  2 active torsions:
  status: ('A' for Active; 'I' for Inactive)
    1  A    between atoms: C_11  and  C_28
    2  A    between atoms: C_28  and  C_30
                            x       y       z     vdW  Elec       q    Type
                         _______ _______ _______ _____ _____    ______ ____

>  <TORSDO>
F 2

$$$$
=
 OpenBabel11122412413D

 30 35  0  0  1  0  0  0  0  0999 V2000
  161.4800  207.4610  151.2980 C   0  0  0  0  0  0  0  0  0  0  0  0
  161.5680  209.9060  150.8820 C   0  0  0  0  0  0  0  0  0  0  0  0
  162.2050  206.5870  146.8510 S   0  0  0  0  0  0  0  0  0  0  0  0
  161.5220  206.1380  150.8040 C   0  0  0  0  0  0  0  0  0  0  0  0
  161.2720  207.6650  152.6660 O   0  0  0  0  0  0  0  0  0  0  0  0
  160.9940  204.3600  153.9420 O   0  0  0  0  0  0  0  0  0  0  0  0
  160.0480  203.6160  150.0410 C   0  0  1  0  0  3  0  0  0  0  0  0
  161.2230  205.2990  153.1300 C   0  0  0  0  0  0  0  0  0  0  0  0
  160.6870  203.8490  148.7300 N   0  0  2  0  0  0  0  0  0  0  0  0
  162.4630  204.9160  147.4260 C   0  0  0  0  0  0  0  0  0  0  0  0
  161.5470  206.6710  153.6480 C   0  0  2  0  0  3  0  0  0  0  0  0
  161.2660  205.0400  151.7150 N   0  0  0  0  0  0  0  0  0  0  0  0
  161.7230  210.9640  149.9830 C   0  0  0  0  0  3  0  0  0  0  0  0
  160.9290  202.5150  148.1910 C   0  0  0  0  0  2  0  0  0  0  0  0
  159.3590  202.2650  149.9840 C   0  0  0  0  0  2  0  0  0  0  0  0
  161.3550  210.2120  152.2220 O   0  0  0  0  0  1  0  0  0  0  0  0
  161.9130  207.0140  148.5670 C   0  0  0  0  0  0  0  0  0  0  0  0
  161.9400  210.7180  148.6290 C   0  0  0  0  0  3  0  0  0  0  0  0
  161.6270  208.5660  150.4240 C   0  0  0  0  0  0  0  0  0  0  0  0
  161.7620  205.9340  149.4310 C   0  0  0  0  0  0  0  0  0  0  0  0
  163.1040  204.1100  146.7700 O   0  0  0  0  0  0  0  0  0  0  0  0
  161.9560  204.5930  148.7980 C   0  0  1  0  0  3  0  0  0  0  0  0
  159.8190  201.6250  148.6970 C   0  0  0  0  0  2  0  0  0  0  0  0
  162.2480  202.8250  151.1760 C   0  0  0  0  0  1  0  0  0  0  0  0
  162.0020  209.4070  148.1610 C   0  0  0  0  0  3  0  0  0  0  0  0
  161.8480  208.3290  149.0420 C   0  0  0  0  0  0  0  0  0  0  0  0
  160.9820  203.6710  151.2700 C   0  0  2  0  0  3  0  0  0  0  0  0
  160.7730  206.9860  154.9240 C   0  0  0  0  0  2  0  0  0  0  0  0
  161.6080  209.0060  156.1250 C   0  0  0  0  0  1  0  0  0  0  0  0
  160.6090  208.4860  155.1090 C   0  0  0  0  0  2  0  0  0  0  0  0
  1  5  1  0  0  0  0
  2 16  1  0  0  0  0
  3 10  1  0  0  0  0
  3 17  1  0  0  0  0
  4  1  1  0  0  0  0
  4 12  1  0  0  0  0
  5 11  1  0  0  0  0
  7 15  1  6  0  0  0
  7 27  1  0  0  0  0
  8 11  1  0  0  0  0
  8  6  2  0  0  0  0
  9 14  1  1  0  0  0
  9 22  1  0  0  0  0
  9  7  1  0  0  0  0
 11 28  1  1  0  0  0
 12  8  1  0  0  0  0
 13  2  2  0  0  0  0
 14 23  1  0  0  0  0
 17 26  2  0  0  0  0
 17 20  1  0  0  0  0
 18 13  1  0  0  0  0
 19  2  1  0  0  0  0
 19  1  2  0  0  0  0
 20  4  2  0  0  0  0
 21 10  2  0  0  0  0
 22 10  1  6  0  0  0
 22 20  1  0  0  0  0
 23 15  1  0  0  0  0
 25 18  2  0  0  0  0
 25 26  1  0  0  0  0
 26 19  1  0  0  0  0
 27 24  1  6  0  0  0
 27 12  1  0  0  0  0
 28 30  1  0  0  0  0
 30 29  1  0  0  0  0
M  END
>  <MODEL>
7

>  <REMARK>
 VINA RESULT:      -5.0      2.694      7.280
  Name = 
  2 active torsions:
  status: ('A' for Active; 'I' for Inactive)
    1  A    between atoms: C_11  and  C_28
    2  A    between atoms: C_28  and  C_30
                            x       y       z     vdW  Elec       q    Type
                         _______ _______ _______ _____ _____    ______ ____

>  <TORSDO>
F 2

$$$$
=
 OpenBabel11122412413D

 30 35  0  0  1  0  0  0  0  0999 V2000
  161.5020  208.1200  151.1510 C   0  0  0  0  0  0  0  0  0  0  0  0
  161.5810  208.4810  153.6060 C   0  0  0  0  0  0  0  0  0  0  0  0
  160.7450  203.6320  151.7460 S   0  0  0  0  0  0  0  0  0  0  0  0
  161.3740  207.2420  150.0520 C   0  0  0  0  0  0  0  0  0  0  0  0
  161.7150  209.4810  150.9080 O   0  0  0  0  0  0  0  0  0  0  0  0
  161.7630  209.6690  147.3600 O   0  0  0  0  0  0  0  0  0  0  0  0
  162.6790  205.7150  147.7990 C   0  0  1  0  0  3  0  0  0  0  0  0
  161.6030  209.1900  148.5170 C   0  0  0  0  0  0  0  0  0  0  0  0
  162.0640  204.5490  148.4670 N   0  0  2  0  0  0  0  0  0  0  0  0
  160.3720  203.6660  150.0000 C   0  0  0  0  0  0  0  0  0  0  0  0
  161.3680  210.1120  149.6790 C   0  0  2  0  0  3  0  0  0  0  0  0
  161.5500  207.7650  148.7120 N   0  0  0  0  0  0  0  0  0  0  0  0
  161.5020  207.9560  154.8970 C   0  0  0  0  0  3  0  0  0  0  0  0
  161.7370  203.6280  147.3850 C   0  0  0  0  0  2  0  0  0  0  0  0
  163.2770  205.2320  146.4900 C   0  0  0  0  0  2  0  0  0  0  0  0
  161.8060  209.8470  153.4670 O   0  0  0  0  0  1  0  0  0  0  0  0
  161.0550  205.3910  151.6010 C   0  0  0  0  0  0  0  0  0  0  0  0
  161.2770  206.5950  155.0970 C   0  0  0  0  0  3  0  0  0  0  0  0
  161.4350  207.6320  152.4800 C   0  0  0  0  0  0  0  0  0  0  0  0
  161.1290  205.8770  150.2990 C   0  0  0  0  0  0  0  0  0  0  0  0
  159.6820  202.8040  149.4800 O   0  0  0  0  0  0  0  0  0  0  0  0
  160.8490  204.8630  149.2360 C   0  0  1  0  0  3  0  0  0  0  0  0
  162.7810  203.8170  146.3110 C   0  0  0  0  0  2  0  0  0  0  0  0
  160.4250  206.5830  146.8410 C   0  0  0  0  0  1  0  0  0  0  0  0
  161.1290  205.7460  154.0030 C   0  0  0  0  0  3  0  0  0  0  0  0
  161.2050  206.2480  152.6970 C   0  0  0  0  0  0  0  0  0  0  0  0
  161.7440  206.9150  147.5320 C   0  0  2  0  0  3  0  0  0  0  0  0
  162.1550  211.4100  149.5330 C   0  0  0  0  0  2  0  0  0  0  0  0
  161.9250  213.3860  148.0280 C   0  0  0  0  0  1  0  0  0  0  0  0
  161.2510  212.5530  149.1010 C   0  0  0  0  0  2  0  0  0  0  0  0
  1 19  1  0  0  0  0
  2 13  1  0  0  0  0
  4 20  1  0  0  0  0
  4  1  2  0  0  0  0
  5  1  1  0  0  0  0
  6  8  2  0  0  0  0
  7 15  1  6  0  0  0
  7  9  1  0  0  0  0
  8 12  1  0  0  0  0
  8 11  1  0  0  0  0
  9 14  1  6  0  0  0
  9 22  1  0  0  0  0
 10  3  1  0  0  0  0
 11 28  1  6  0  0  0
 11  5  1  0  0  0  0
 12  4  1  0  0  0  0
 13 18  2  0  0  0  0
 16  2  1  0  0  0  0
 17  3  1  0  0  0  0
 17 26  1  0  0  0  0
 19 26  1  0  0  0  0
 19  2  2  0  0  0  0
 20 17  2  0  0  0  0
 21 10  2  0  0  0  0
 22 10  1  1  0  0  0
 22 20  1  0  0  0  0
 23 15  1  0  0  0  0
 23 14  1  0  0  0  0
 25 18  1  0  0  0  0
 26 25  2  0  0  0  0
 27 24  1  1  0  0  0
 27  7  1  0  0  0  0
 27 12  1  0  0  0  0
 29 30  1  0  0  0  0
 30 28  1  0  0  0  0
M  END
>  <MODEL>
8

>  <REMARK>
 VINA RESULT:      -4.7      2.211      5.770
  Name = 
  2 active torsions:
  status: ('A' for Active; 'I' for Inactive)
    1  A    between atoms: C_11  and  C_28
    2  A    between atoms: C_28  and  C_30
                            x       y       z     vdW  Elec       q    Type
                         _______ _______ _______ _____ _____    ______ ____

>  <TORSDO>
F 2

$$$$
