=
 OpenBabel11122414373D

 34 40  0  0  1  0  0  0  0  0999 V2000
  160.8070  207.2090  154.3620 C   0  0  0  0  0  0  0  0  0  0  0  0
  161.2360  205.0540  153.0860 C   0  0  0  0  0  2  0  0  0  0  0  0
  158.5530  213.3960  154.5170 C   0  0  0  0  0  0  0  0  0  0  0  0
  159.9790  209.2860  155.3220 C   0  0  0  0  0  0  0  0  0  0  0  0
  159.5290  211.2170  153.7690 C   0  0  0  0  0  0  0  0  0  0  0  0
  158.8460  212.8250  152.0440 C   0  0  0  0  0  1  0  0  0  0  0  0
  157.4090  214.2990  154.2070 C   0  0  0  0  0  1  0  0  0  0  0  0
  160.3650  212.8790  156.1900 C   0  0  0  0  0  3  0  0  0  0  0  0
  161.8130  207.1760  152.0520 C   0  0  2  0  0  3  0  0  0  0  0  0
  161.3420  207.4040  148.8410 C   0  0  0  0  0  2  0  0  0  0  0  0
  160.0170  210.3830  152.7030 N   0  0  0  0  0  0  0  0  0  0  0  0
  160.5870  211.5850  155.9640 C   0  0  0  0  0  3  0  0  0  0  0  0
  160.9000  208.3650  151.6670 C   0  0  1  0  0  3  0  0  0  0  0  0
  161.7770  204.7480  151.7010 C   0  0  0  0  0  2  0  0  0  0  0  0
  159.6200  210.7410  155.2000 C   0  0  0  0  0  0  0  0  0  0  0  0
  159.2030  213.6240  155.6690 C   0  0  0  0  0  2  0  0  0  0  0  0
  160.9760  206.2450  149.7880 C   0  0  2  0  0  3  0  0  0  0  0  0
  160.4470  208.5570  154.2140 C   0  0  0  0  0  0  0  0  0  0  0  0
  159.0030  212.4240  153.4790 C   0  0  0  0  0  0  0  0  0  0  0  0
  160.4900  209.1830  152.8740 C   0  0  0  0  0  0  0  0  0  0  0  0
  160.1830  207.2990  156.7020 C   0  0  0  0  0  3  0  0  0  0  0  0
  162.2220  208.4910  149.4610 C   0  0  0  0  0  2  0  0  0  0  0  0
  159.8440  208.6460  156.5610 C   0  0  0  0  0  3  0  0  0  0  0  0
  161.5280  209.2580  150.5860 C   0  0  0  0  0  2  0  0  0  0  0  0
  161.9620  206.0830  150.9710 C   0  0  1  0  0  3  0  0  0  0  0  0
  160.6640  206.5800  155.6050 C   0  0  0  0  0  3  0  0  0  0  0  0
  161.3060  206.4930  153.2270 N   0  0  0  0  0  0  0  0  0  0  0  0
  160.8600  204.9700  148.9600 C   0  0  0  0  0  2  0  0  0  0  0  0
  161.2170  205.2280  147.6350 O   0  0  0  0  0  0  0  0  0  0  0  0
  160.7870  202.0860  146.8460 O   0  0  0  0  0  0  0  0  0  0  0  0
  161.6460  203.8370  145.7770 C   0  0  0  0  0  3  0  0  0  0  0  0
  161.9100  204.0870  147.2250 C   0  0  2  0  0  3  0  0  0  0  0  0
  161.0080  202.6920  145.6250 C   0  0  0  0  0  3  0  0  0  0  0  0
  161.3150  202.8570  147.9080 C   0  0  0  0  0  2  0  0  0  0  0  0
  1 26  1  0  0  0  0
  2 27  1  0  0  0  0
  3 16  1  0  0  0  0
  4 23  2  0  0  0  0
  5 15  2  0  0  0  0
  6 19  1  0  0  0  0
  7  3  1  0  0  0  0
  9 27  1  1  0  0  0
 10 22  1  0  0  0  0
 10 17  1  0  0  0  0
 11 20  2  0  0  0  0
 11  5  1  0  0  0  0
 12  8  2  0  0  0  0
 13 24  1  6  0  0  0
 13  9  1  0  0  0  0
 13 20  1  0  0  0  0
 14  2  1  0  0  0  0
 15  4  1  0  0  0  0
 15 12  1  0  0  0  0
 16  8  1  0  0  0  0
 17 28  1  6  0  0  0
 17 25  1  0  0  0  0
 18  1  2  0  0  0  0
 18  4  1  0  0  0  0
 19  5  1  0  0  0  0
 19  3  2  0  0  0  0
 20 18  1  0  0  0  0
 22 24  1  0  0  0  0
 23 21  1  0  0  0  0
 25 14  1  1  0  0  0
 25  9  1  0  0  0  0
 26 21  2  0  0  0  0
 27  1  1  0  0  0  0
 29 28  1  0  0  0  0
 30 34  1  0  0  0  0
 31 32  1  0  0  0  0
 32 29  1  1  0  0  0
 32 34  1  0  0  0  0
 33 31  2  0  0  0  0
 33 30  1  0  0  0  0
M  END
>  <MODEL>
1

>  <REMARK>
 VINA RESULT:     -10.2      0.000      0.000
  Name = 
  3 active torsions:
  status: ('A' for Active; 'I' for Inactive)
    1  A    between atoms: C_17  and  C_28
    2  A    between atoms: C_28  and  O_29
    3  A    between atoms: O_29  and  C_32
                            x       y       z     vdW  Elec       q    Type
                         _______ _______ _______ _____ _____    ______ ____

>  <TORSDO>
F 3

$$$$
