=
 OpenBabel11122412493D

 32 37  0  0  1  0  0  0  0  0999 V2000
  160.4630  212.9780  146.8580 C   0  0  0  0  0  2  0  0  0  0  0  0
  160.8340  211.1170  151.8500 C   0  0  1  0  0  3  0  0  0  0  0  0
  162.3490  206.4460  151.0100 C   0  0  0  0  0  3  0  0  0  0  0  0
  161.7900  206.0360  152.2220 C   0  0  0  0  0  3  0  0  0  0  0  0
  159.2880  211.5410  153.7720 C   0  0  0  0  0  0  0  0  0  0  0  0
  160.0340  211.6840  155.0170 C   0  0  0  0  0  0  0  0  0  0  0  0
  161.1320  212.7210  150.0100 N   0  0  1  0  0  0  0  0  0  0  0  0
  162.3630  210.5930  149.9350 C   0  0  0  0  0  2  0  0  0  0  0  0
  161.7050  211.2840  156.5120 C   0  0  0  0  0  0  0  0  0  0  0  0
  162.5820  212.1630  148.0320 C   0  0  0  0  0  2  0  0  0  0  0  0
  162.2640  207.7850  150.6200 C   0  0  0  0  0  3  0  0  0  0  0  0
  161.5140  210.1070  151.0230 N   0  0  0  0  0  0  0  0  0  0  0  0
  161.6200  208.7300  151.4370 C   0  0  0  0  0  0  0  0  0  0  0  0
  160.3880  209.2810  153.5660 C   0  0  1  0  0  3  0  0  0  0  0  0
  161.1400  212.4030  156.8490 N   0  0  0  0  0  0  0  0  0  0  0  0
  159.6120  213.3470  148.0850 C   0  0  0  0  0  2  0  0  0  0  0  0
  161.6280  211.6510  149.1190 C   0  0  2  0  0  3  0  0  0  0  0  0
  160.0940  212.6750  155.8970 C   0  0  0  0  0  2  0  0  0  0  0  0
  160.4340  213.8080  149.3020 C   0  0  0  0  0  2  0  0  0  0  0  0
  161.9680  213.1850  147.0670 C   0  0  1  0  0  3  0  0  0  0  0  0
  161.1460  206.9640  153.0410 C   0  0  0  0  0  3  0  0  0  0  0  0
  161.0530  208.3060  152.6530 C   0  0  0  0  0  0  0  0  0  0  0  0
  161.2910  209.6650  154.6680 N   0  0  0  0  0  2  0  0  0  0  0  0
  160.1600  212.1410  150.9340 C   0  0  0  0  0  2  0  0  0  0  0  0
  158.3190  212.2940  153.4910 O   0  0  0  0  0  0  0  0  0  0  0  0
  162.8320  210.6680  157.2610 C   0  0  0  0  0  1  0  0  0  0  0  0
  159.7890  210.4980  152.7950 C   0  0  2  0  0  3  0  0  0  0  0  0
  161.0450  210.7380  155.3520 C   0  0  0  0  0  0  0  0  0  0  0  0
  162.6670  213.1210  145.7930 N   0  0  0  0  0  2  0  0  0  0  0  0
  162.1770  213.7620  144.6130 C   0  0  0  0  0  0  0  0  0  0  0  0
  161.1150  214.4400  144.6430 O   0  0  0  0  0  0  0  0  0  0  0  0
  162.9310  213.6330  143.3400 C   0  0  0  0  0  1  0  0  0  0  0  0
  1 20  1  0  0  0  0
  1 16  1  0  0  0  0
  2 24  1  6  0  0  0
  2 27  1  0  0  0  0
  3  4  1  0  0  0  0
  4 21  2  0  0  0  0
  5  6  1  0  0  0  0
  6 28  2  0  0  0  0
  6 18  1  0  0  0  0
  7 19  1  6  0  0  0
  7 24  1  0  0  0  0
  8 12  1  0  0  0  0
  9 15  2  0  0  0  0
  9 26  1  0  0  0  0
 11  3  2  0  0  0  0
 11 13  1  0  0  0  0
 12 13  1  0  0  0  0
 12  2  1  0  0  0  0
 13 22  2  0  0  0  0
 14 22  1  6  0  0  0
 14 23  1  0  0  0  0
 16 19  1  0  0  0  0
 17 10  1  6  0  0  0
 17  8  1  0  0  0  0
 17  7  1  0  0  0  0
 18 15  1  0  0  0  0
 20 29  1  6  0  0  0
 20 10  1  0  0  0  0
 22 21  1  0  0  0  0
 23 28  1  0  0  0  0
 25  5  2  0  0  0  0
 27 14  1  0  0  0  0
 27  5  1  1  0  0  0
 28  9  1  0  0  0  0
 30 31  2  0  0  0  0
 30 29  1  0  0  0  0
 32 30  1  0  0  0  0
M  END
>  <MODEL>
1

>  <REMARK>
 VINA RESULT:      -7.3      0.000      0.000
  Name = 
  1 active torsions:
  status: ('A' for Active; 'I' for Inactive)
    1  A    between atoms: C_20  and  N_29
                            x       y       z     vdW  Elec       q    Type
                         _______ _______ _______ _____ _____    ______ ____

>  <TORSDO>
F 1

$$$$
=
 OpenBabel11122412493D

 32 37  0  0  1  0  0  0  0  0999 V2000
  161.8880  202.4480  150.5950 C   0  0  0  0  0  2  0  0  0  0  0  0
  160.9020  207.4400  152.2180 C   0  0  1  0  0  3  0  0  0  0  0  0
  162.2640  210.0330  148.1890 C   0  0  0  0  0  3  0  0  0  0  0  0
  162.5280  211.1500  148.9840 C   0  0  0  0  0  3  0  0  0  0  0  0
  161.3180  208.4370  154.4750 C   0  0  0  0  0  0  0  0  0  0  0  0
  160.2450  209.3520  154.8450 C   0  0  0  0  0  0  0  0  0  0  0  0
  160.4590  205.0430  151.8890 N   0  0  1  0  0  0  0  0  0  0  0  0
  160.5450  206.5110  149.9170 C   0  0  0  0  0  2  0  0  0  0  0  0
  158.6130  210.9060  154.5140 C   0  0  0  0  0  0  0  0  0  0  0  0
  160.2040  204.0810  149.5790 C   0  0  0  0  0  2  0  0  0  0  0  0
  161.7950  208.8540  148.7740 C   0  0  0  0  0  3  0  0  0  0  0  0
  161.1200  207.5540  150.7670 N   0  0  0  0  0  0  0  0  0  0  0  0
  161.5830  208.7780  150.1610 C   0  0  0  0  0  0  0  0  0  0  0  0
  161.6170  209.8800  152.4290 C   0  0  1  0  0  3  0  0  0  0  0  0
  158.4050  210.3640  155.6750 N   0  0  0  0  0  0  0  0  0  0  0  0
  161.9960  203.0340  152.0120 C   0  0  0  0  0  2  0  0  0  0  0  0
  160.8770  205.1300  150.4740 C   0  0  2  0  0  3  0  0  0  0  0  0
  159.4220  209.3650  155.8860 C   0  0  0  0  0  2  0  0  0  0  0  0
  160.7110  203.7280  152.5030 C   0  0  0  0  0  2  0  0  0  0  0  0
  160.5040  202.6250  149.9580 C   0  0  1  0  0  3  0  0  0  0  0  0
  162.3240  211.0870  150.3640 C   0  0  0  0  0  3  0  0  0  0  0  0
  161.8590  209.9060  150.9560 C   0  0  0  0  0  0  0  0  0  0  0  0
  160.3440  210.5460  152.7610 N   0  0  0  0  0  2  0  0  0  0  0  0
  161.2330  206.0130  152.6610 C   0  0  0  0  0  2  0  0  0  0  0  0
  161.8180  207.6320  155.3050 O   0  0  0  0  0  0  0  0  0  0  0  0
  157.7680  211.9870  153.9410 C   0  0  0  0  0  1  0  0  0  0  0  0
  161.7460  208.4430  153.0220 C   0  0  2  0  0  3  0  0  0  0  0  0
  159.7900  210.3270  153.9130 C   0  0  0  0  0  0  0  0  0  0  0  0
  160.3830  201.7870  148.7750 N   0  0  0  0  0  2  0  0  0  0  0  0
  160.9350  202.1560  147.5090 C   0  0  0  0  0  0  0  0  0  0  0  0
  161.5800  203.2310  147.3770 O   0  0  0  0  0  0  0  0  0  0  0  0
  160.7510  201.2610  146.3390 C   0  0  0  0  0  1  0  0  0  0  0  0
  1 16  1  0  0  0  0
  2 24  1  1  0  0  0
  2 27  1  0  0  0  0
  3 11  2  0  0  0  0
  3  4  1  0  0  0  0
  4 21  2  0  0  0  0
  5  6  1  0  0  0  0
  5 25  2  0  0  0  0
  6 18  1  0  0  0  0
  7 19  1  1  0  0  0
  7 24  1  0  0  0  0
  8 17  1  0  0  0  0
  8 12  1  0  0  0  0
  9 15  2  0  0  0  0
 10 20  1  0  0  0  0
 11 13  1  0  0  0  0
 12  2  1  0  0  0  0
 13 12  1  0  0  0  0
 13 22  2  0  0  0  0
 14 22  1  6  0  0  0
 14 23  1  0  0  0  0
 14 27  1  0  0  0  0
 15 18  1  0  0  0  0
 16 19  1  0  0  0  0
 17 10  1  6  0  0  0
 17  7  1  0  0  0  0
 20 29  1  6  0  0  0
 20  1  1  0  0  0  0
 21 22  1  0  0  0  0
 23 28  1  0  0  0  0
 26  9  1  0  0  0  0
 27  5  1  1  0  0  0
 28  9  1  0  0  0  0
 28  6  2  0  0  0  0
 30 29  1  0  0  0  0
 31 30  2  0  0  0  0
 32 30  1  0  0  0  0
M  END
>  <MODEL>
2

>  <REMARK>
 VINA RESULT:      -6.7      3.863      7.047
  Name = 
  1 active torsions:
  status: ('A' for Active; 'I' for Inactive)
    1  A    between atoms: C_20  and  N_29
                            x       y       z     vdW  Elec       q    Type
                         _______ _______ _______ _____ _____    ______ ____

>  <TORSDO>
F 1

$$$$
=
 OpenBabel11122412493D

 32 37  0  0  1  0  0  0  0  0999 V2000
  158.9860  213.4670  146.9750 C   0  0  0  0  0  2  0  0  0  0  0  0
  159.9750  211.8220  151.9590 C   0  0  1  0  0  3  0  0  0  0  0  0
  162.3670  207.5400  151.0860 C   0  0  0  0  0  3  0  0  0  0  0  0
  161.9640  207.0490  152.3300 C   0  0  0  0  0  3  0  0  0  0  0  0
  158.4730  211.9630  153.9550 C   0  0  0  0  0  0  0  0  0  0  0  0
  159.2350  212.2790  155.1580 C   0  0  0  0  0  0  0  0  0  0  0  0
  159.8490  213.4150  150.0900 N   0  0  1  0  0  0  0  0  0  0  0  0
  161.4830  211.5800  149.9710 C   0  0  0  0  0  2  0  0  0  0  0  0
  161.0240  212.2570  156.5670 C   0  0  0  0  0  0  0  0  0  0  0  0
  161.2820  213.1230  148.0430 C   0  0  0  0  0  2  0  0  0  0  0  0
  161.9920  208.8250  150.6880 C   0  0  0  0  0  3  0  0  0  0  0  0
  160.8050  210.9540  151.1070 N   0  0  0  0  0  0  0  0  0  0  0  0
  161.2100  209.6360  151.5290 C   0  0  0  0  0  0  0  0  0  0  0  0
  159.9990  209.9700  153.7140 C   0  0  1  0  0  3  0  0  0  0  0  0
  160.2610  213.2450  156.9210 N   0  0  0  0  0  0  0  0  0  0  0  0
  158.1400  213.6800  148.2410 C   0  0  0  0  0  2  0  0  0  0  0  0
  160.5070  212.4500  149.1840 C   0  0  2  0  0  3  0  0  0  0  0  0
  159.1350  213.2800  156.0230 C   0  0  0  0  0  2  0  0  0  0  0  0
  158.9100  214.3230  149.4090 C   0  0  0  0  0  2  0  0  0  0  0  0
  160.4260  213.9790  147.1020 C   0  0  1  0  0  3  0  0  0  0  0  0
  161.1860  207.8440  153.1730 C   0  0  0  0  0  3  0  0  0  0  0  0
  160.8020  209.1310  152.7770 C   0  0  0  0  0  0  0  0  0  0  0  0
  160.8590  210.5510  154.7630 N   0  0  0  0  0  2  0  0  0  0  0  0
  159.0630  212.6690  151.0700 C   0  0  0  0  0  2  0  0  0  0  0  0
  157.3580  212.4970  153.7190 O   0  0  0  0  0  0  0  0  0  0  0  0
  162.2890  211.8990  157.2610 C   0  0  0  0  0  1  0  0  0  0  0  0
  159.1270  211.0230  152.9640 C   0  0  2  0  0  3  0  0  0  0  0  0
  160.4330  211.5660  155.4480 C   0  0  0  0  0  0  0  0  0  0  0  0
  161.0580  214.0320  145.7930 N   0  0  0  0  0  2  0  0  0  0  0  0
  160.7560  213.1000  144.7530 C   0  0  0  0  0  0  0  0  0  0  0  0
  159.8950  212.1970  144.9290 O   0  0  0  0  0  0  0  0  0  0  0  0
  161.4600  213.2010  143.4490 C   0  0  0  0  0  1  0  0  0  0  0  0
  1 20  1  0  0  0  0
  1 16  1  0  0  0  0
  2 24  1  6  0  0  0
  2 27  1  0  0  0  0
  3  4  1  0  0  0  0
  4 21  2  0  0  0  0
  5  6  1  0  0  0  0
  6 28  2  0  0  0  0
  6 18  1  0  0  0  0
  7 19  1  6  0  0  0
  7 24  1  0  0  0  0
  8 12  1  0  0  0  0
  9 15  2  0  0  0  0
  9 26  1  0  0  0  0
 11  3  2  0  0  0  0
 11 13  1  0  0  0  0
 12 13  1  0  0  0  0
 12  2  1  0  0  0  0
 13 22  2  0  0  0  0
 14 22  1  6  0  0  0
 14 23  1  0  0  0  0
 16 19  1  0  0  0  0
 17 10  1  6  0  0  0
 17  8  1  0  0  0  0
 17  7  1  0  0  0  0
 18 15  1  0  0  0  0
 20 29  1  6  0  0  0
 20 10  1  0  0  0  0
 22 21  1  0  0  0  0
 23 28  1  0  0  0  0
 25  5  2  0  0  0  0
 27 14  1  0  0  0  0
 27  5  1  1  0  0  0
 28  9  1  0  0  0  0
 30 31  2  0  0  0  0
 30 29  1  0  0  0  0
 32 30  1  0  0  0  0
M  END
>  <MODEL>
3

>  <REMARK>
 VINA RESULT:      -5.3      1.222      1.322
  Name = 
  1 active torsions:
  status: ('A' for Active; 'I' for Inactive)
    1  A    between atoms: C_20  and  N_29
                            x       y       z     vdW  Elec       q    Type
                         _______ _______ _______ _____ _____    ______ ____

>  <TORSDO>
F 1

$$$$
=
 OpenBabel11122412493D

 32 37  0  0  1  0  0  0  0  0999 V2000
  157.5410  214.4530  154.2740 C   0  0  0  0  0  2  0  0  0  0  0  0
  159.9330  209.8890  152.8700 C   0  0  1  0  0  3  0  0  0  0  0  0
  160.1410  207.5400  157.2580 C   0  0  0  0  0  3  0  0  0  0  0  0
  161.2470  206.8050  156.8240 C   0  0  0  0  0  3  0  0  0  0  0  0
  161.8180  209.5700  151.2560 C   0  0  0  0  0  0  0  0  0  0  0  0
  161.6360  208.3490  150.4790 C   0  0  0  0  0  0  0  0  0  0  0  0
  158.3340  211.7490  152.6900 N   0  0  1  0  0  0  0  0  0  0  0  0
  158.1010  210.1670  154.5590 C   0  0  0  0  0  2  0  0  0  0  0  0
  160.9930  206.2020  150.0770 C   0  0  0  0  0  0  0  0  0  0  0  0
  156.5580  212.1000  154.4360 C   0  0  0  0  0  2  0  0  0  0  0  0
  159.5400  208.4670  156.4040 C   0  0  0  0  0  3  0  0  0  0  0  0
  159.4280  209.6440  154.2310 N   0  0  0  0  0  0  0  0  0  0  0  0
  160.0360  208.6700  155.1040 C   0  0  0  0  0  0  0  0  0  0  0  0
  161.6930  208.0920  153.2960 C   0  0  1  0  0  3  0  0  0  0  0  0
  161.1640  206.7800  148.9270 N   0  0  0  0  0  0  0  0  0  0  0  0
  158.5940  214.2200  153.1780 C   0  0  0  0  0  2  0  0  0  0  0  0
  157.9810  211.6230  154.1200 C   0  0  2  0  0  3  0  0  0  0  0  0
  161.5520  208.1450  149.1710 C   0  0  0  0  0  3  0  0  0  0  0  0
  158.2140  213.1210  152.1680 C   0  0  0  0  0  2  0  0  0  0  0  0
  156.2910  213.5780  154.1250 C   0  0  1  0  0  3  0  0  0  0  0  0
  161.7500  206.9990  155.5370 C   0  0  0  0  0  3  0  0  0  0  0  0
  161.1550  207.9310  154.6780 C   0  0  0  0  0  0  0  0  0  0  0  0
  161.2300  206.9950  152.4240 N   0  0  0  0  0  0  0  0  0  0  0  0
  159.7340  211.3660  152.5230 C   0  0  0  0  0  2  0  0  0  0  0  0
  162.2230  210.6380  150.7260 O   0  0  0  0  0  0  0  0  0  0  0  0
  160.5890  204.7800  150.2360 C   0  0  0  0  0  1  0  0  0  0  0  0
  161.4160  209.5130  152.7160 C   0  0  2  0  0  3  0  0  0  0  0  0
  161.2920  207.1340  151.1360 C   0  0  0  0  0  0  0  0  0  0  0  0
  155.2280  214.0660  154.9900 N   0  0  0  0  0  2  0  0  0  0  0  0
  155.1900  213.7950  156.3930 C   0  0  0  0  0  0  0  0  0  0  0  0
  156.1080  213.1300  156.9440 O   0  0  0  0  0  0  0  0  0  0  0  0
  154.0600  214.3060  157.2100 C   0  0  0  0  0  1  0  0  0  0  0  0
  2 24  1  1  0  0  0
  2 12  1  0  0  0  0
  4  3  1  0  0  0  0
  6 28  1  0  0  0  0
  6  5  1  0  0  0  0
  7 19  1  1  0  0  0
  7 17  1  0  0  0  0
  9 26  1  0  0  0  0
  9 28  1  0  0  0  0
 11  3  2  0  0  0  0
 12  8  1  0  0  0  0
 12 13  1  0  0  0  0
 13 11  1  0  0  0  0
 14 23  1  6  0  0  0
 14 22  1  0  0  0  0
 15 18  1  0  0  0  0
 15  9  2  0  0  0  0
 16  1  1  0  0  0  0
 17 10  1  6  0  0  0
 17  8  1  0  0  0  0
 18  6  2  0  0  0  0
 19 16  1  0  0  0  0
 20  1  1  0  0  0  0
 20 10  1  0  0  0  0
 20 29  1  1  0  0  0
 21  4  2  0  0  0  0
 22 13  2  0  0  0  0
 22 21  1  0  0  0  0
 24  7  1  0  0  0  0
 25  5  2  0  0  0  0
 27  5  1  6  0  0  0
 27  2  1  0  0  0  0
 27 14  1  0  0  0  0
 28 23  2  0  0  0  0
 29 30  1  0  0  0  0
 30 31  2  0  0  0  0
 30 32  1  0  0  0  0
M  END
>  <MODEL>
4

>  <REMARK>
 VINA RESULT:      -5.1      3.855      7.376
  Name = 
  1 active torsions:
  status: ('A' for Active; 'I' for Inactive)
    1  A    between atoms: C_20  and  N_29
                            x       y       z     vdW  Elec       q    Type
                         _______ _______ _______ _____ _____    ______ ____

>  <TORSDO>
F 1

$$$$
