=
 OpenBabel11122412373D

 30 35  0  0  1  0  0  0  0  0999 V2000
  161.5440  207.7240  151.3060 C   0  0  0  0  0  0  0  0  0  0  0  0
  161.6170  210.2130  150.9470 C   0  0  0  0  0  0  0  0  0  0  0  0
  162.3000  207.0170  147.2380 N   0  0  0  0  0  0  0  0  0  0  0  0
  161.5790  206.4150  150.7420 C   0  0  0  0  0  0  0  0  0  0  0  0
  161.4080  207.8410  152.6950 C   0  0  0  0  0  3  0  0  0  0  0  0
  161.1380  204.3280  153.7840 O   0  0  0  0  0  1  0  0  0  0  0  0
  160.3470  203.7820  149.7650 C   0  0  1  0  0  3  0  0  0  0  0  0
  161.2920  205.4390  152.9580 C   0  0  0  0  0  0  0  0  0  0  0  0
  160.9500  204.1580  148.4710 N   0  0  2  0  0  0  0  0  0  0  0  0
  162.3750  205.7240  147.2210 C   0  0  0  0  0  0  0  0  0  0  0  0
  161.2980  206.7180  153.5250 C   0  0  0  0  0  0  0  0  0  0  0  0
  161.4120  205.2770  151.5660 C   0  0  0  0  0  0  0  0  0  0  0  0
  161.7750  211.2880  150.0680 C   0  0  0  0  0  3  0  0  0  0  0  0
  161.3900  202.8940  147.8940 C   0  0  0  0  0  2  0  0  0  0  0  0
  159.8310  202.3590  149.6380 C   0  0  0  0  0  2  0  0  0  0  0  0
  161.4010  210.5030  152.2900 O   0  0  0  0  0  1  0  0  0  0  0  0
  161.9620  207.3880  148.5630 C   0  0  0  0  0  0  0  0  0  0  0  0
  161.9920  211.0760  148.7090 C   0  0  0  0  0  3  0  0  0  0  0  0
  161.6760  208.8760  150.4620 C   0  0  0  0  0  0  0  0  0  0  0  0
  161.8100  206.2930  149.3640 C   0  0  0  0  0  0  0  0  0  0  0  0
  162.7710  204.9860  145.9890 C   0  0  0  0  0  1  0  0  0  0  0  0
  162.1090  205.0640  148.5570 C   0  0  1  0  0  3  0  0  0  0  0  0
  160.4190  201.8300  148.3530 C   0  0  0  0  0  2  0  0  0  0  0  0
  161.8900  202.9530  151.4320 O   0  0  0  0  0  0  0  0  0  0  0  0
  162.0510  209.7780  148.2090 C   0  0  0  0  0  3  0  0  0  0  0  0
  161.8890  208.6850  149.0650 C   0  0  0  0  0  0  0  0  0  0  0  0
  161.2590  203.9390  150.9630 C   0  0  0  0  0  0  0  0  0  0  0  0
  161.1660  206.8590  154.9470 N   0  0  0  0  0  0  0  0  0  0  0  0
  160.0310  207.4000  157.0020 C   0  0  0  0  0  1  0  0  0  0  0  0
  160.0870  207.2830  155.5230 C   0  0  0  0  0  3  0  0  0  0  0  0
  1  5  2  0  0  0  0
  2 16  1  0  0  0  0
  3 17  1  0  0  0  0
  4  1  1  0  0  0  0
  4 12  2  0  0  0  0
  5 11  1  0  0  0  0
  7 15  1  6  0  0  0
  7 27  1  0  0  0  0
  8 11  2  0  0  0  0
  8  6  1  0  0  0  0
  9 14  1  1  0  0  0
  9 22  1  0  0  0  0
  9  7  1  0  0  0  0
 10  3  2  0  0  0  0
 11 28  1  0  0  0  0
 12  8  1  0  0  0  0
 13  2  2  0  0  0  0
 14 23  1  0  0  0  0
 17 26  1  0  0  0  0
 17 20  2  0  0  0  0
 18 13  1  0  0  0  0
 19  2  1  0  0  0  0
 19  1  1  0  0  0  0
 20  4  1  0  0  0  0
 21 10  1  0  0  0  0
 22 10  1  6  0  0  0
 22 20  1  0  0  0  0
 23 15  1  0  0  0  0
 25 18  2  0  0  0  0
 25 26  1  0  0  0  0
 26 19  2  0  0  0  0
 27 24  2  0  0  0  0
 27 12  1  0  0  0  0
 28 30  2  0  0  0  0
 30 29  1  0  0  0  0
M  END
>  <MODEL>
1

>  <REMARK>
 VINA RESULT:      -9.1      0.000      0.000
  Name = 
  1 active torsions:
  status: ('A' for Active; 'I' for Inactive)
    1  A    between atoms: C_11  and  N_28
                            x       y       z     vdW  Elec       q    Type
                         _______ _______ _______ _____ _____    ______ ____

>  <TORSDO>
F 1

$$$$
=
 OpenBabel11122412373D

 30 35  0  0  1  0  0  0  0  0999 V2000
  161.1960  205.5240  149.8760 C   0  0  0  0  0  0  0  0  0  0  0  0
  160.7890  203.0420  149.8560 C   0  0  0  0  0  0  0  0  0  0  0  0
  161.2600  205.5780  154.0730 N   0  0  0  0  0  0  0  0  0  0  0  0
  161.3370  206.7240  150.6320 C   0  0  0  0  0  0  0  0  0  0  0  0
  161.3130  205.6030  148.4830 C   0  0  0  0  0  3  0  0  0  0  0  0
  161.8390  209.2090  147.9170 O   0  0  0  0  0  1  0  0  0  0  0  0
  160.3890  209.4050  151.7810 C   0  0  1  0  0  3  0  0  0  0  0  0
  161.6460  207.9980  148.5760 C   0  0  0  0  0  0  0  0  0  0  0  0
  160.6610  208.7690  153.0850 N   0  0  2  0  0  0  0  0  0  0  0  0
  161.5420  206.8220  154.3010 C   0  0  0  0  0  0  0  0  0  0  0  0
  161.5510  206.8190  147.8290 C   0  0  0  0  0  0  0  0  0  0  0  0
  161.5210  207.9650  149.9770 C   0  0  0  0  0  0  0  0  0  0  0  0
  160.5960  201.8570  150.5730 C   0  0  0  0  0  3  0  0  0  0  0  0
  161.1830  209.8470  153.9150 C   0  0  0  0  0  2  0  0  0  0  0  0
  160.0990  210.8750  152.0360 C   0  0  0  0  0  2  0  0  0  0  0  0
  160.7910  202.9620  148.4680 O   0  0  0  0  0  1  0  0  0  0  0  0
  161.1280  205.4410  152.6700 C   0  0  0  0  0  0  0  0  0  0  0  0
  160.5780  201.8590  151.9660 C   0  0  0  0  0  3  0  0  0  0  0  0
  160.9710  204.2740  150.5440 C   0  0  0  0  0  0  0  0  0  0  0  0
  161.3140  206.6340  152.0310 C   0  0  0  0  0  0  0  0  0  0  0  0
  161.8080  207.3170  155.6800 C   0  0  0  0  0  1  0  0  0  0  0  0
  161.6500  207.6760  153.0560 C   0  0  1  0  0  3  0  0  0  0  0  0
  160.5070  211.1230  153.4680 C   0  0  0  0  0  2  0  0  0  0  0  0
  162.3390  210.1230  150.5440 O   0  0  0  0  0  0  0  0  0  0  0  0
  160.7520  203.0520  152.6620 C   0  0  0  0  0  3  0  0  0  0  0  0
  160.9410  204.2520  151.9690 C   0  0  0  0  0  0  0  0  0  0  0  0
  161.4760  209.2250  150.7430 C   0  0  0  0  0  0  0  0  0  0  0  0
  161.6750  206.8790  146.4010 N   0  0  0  0  0  0  0  0  0  0  0  0
  161.4260  206.0780  144.1410 C   0  0  0  0  0  1  0  0  0  0  0  0
  161.2600  205.9400  145.6110 C   0  0  0  0  0  3  0  0  0  0  0  0
  1 19  1  0  0  0  0
  1  4  1  0  0  0  0
  2 19  2  0  0  0  0
  2 13  1  0  0  0  0
  3 10  2  0  0  0  0
  4 20  1  0  0  0  0
  5  1  2  0  0  0  0
  6  8  1  0  0  0  0
  7 15  1  1  0  0  0
  7  9  1  0  0  0  0
  8 12  1  0  0  0  0
  9 14  1  1  0  0  0
 10 21  1  0  0  0  0
 11  5  1  0  0  0  0
 11  8  2  0  0  0  0
 12  4  2  0  0  0  0
 12 27  1  0  0  0  0
 13 18  2  0  0  0  0
 15 23  1  0  0  0  0
 16  2  1  0  0  0  0
 17  3  1  0  0  0  0
 18 25  1  0  0  0  0
 19 26  1  0  0  0  0
 20 17  2  0  0  0  0
 22 20  1  6  0  0  0
 22  9  1  0  0  0  0
 22 10  1  0  0  0  0
 23 14  1  0  0  0  0
 24 27  2  0  0  0  0
 26 25  2  0  0  0  0
 26 17  1  0  0  0  0
 27  7  1  0  0  0  0
 28 11  1  0  0  0  0
 29 30  1  0  0  0  0
 30 28  2  0  0  0  0
M  END
>  <MODEL>
2

>  <REMARK>
 VINA RESULT:      -7.1      1.906      7.357
  Name = 
  1 active torsions:
  status: ('A' for Active; 'I' for Inactive)
    1  A    between atoms: C_11  and  N_28
                            x       y       z     vdW  Elec       q    Type
                         _______ _______ _______ _____ _____    ______ ____

>  <TORSDO>
F 1

$$$$
=
 OpenBabel11122412373D

 30 35  0  0  1  0  0  0  0  0999 V2000
  161.5980  207.9340  150.7020 C   0  0  0  0  0  0  0  0  0  0  0  0
  162.3020  208.9500  148.5110 C   0  0  0  0  0  0  0  0  0  0  0  0
  160.7580  211.7230  152.3020 N   0  0  0  0  0  0  0  0  0  0  0  0
  161.1750  208.1280  152.0490 C   0  0  0  0  0  0  0  0  0  0  0  0
  161.7310  206.6210  150.2340 C   0  0  0  0  0  3  0  0  0  0  0  0
  160.8810  204.6100  153.2070 O   0  0  0  0  0  1  0  0  0  0  0  0
  161.5610  208.2240  155.0910 C   0  0  1  0  0  3  0  0  0  0  0  0
  161.0960  205.7140  152.3860 C   0  0  0  0  0  0  0  0  0  0  0  0
  161.1330  209.6300  154.9460 N   0  0  2  0  0  0  0  0  0  0  0  0
  160.2880  211.4020  153.4660 C   0  0  0  0  0  0  0  0  0  0  0  0
  161.4700  205.5140  151.0520 C   0  0  0  0  0  0  0  0  0  0  0  0
  160.9650  207.0170  152.9000 C   0  0  0  0  0  0  0  0  0  0  0  0
  162.5040  210.0970  147.7370 C   0  0  0  0  0  3  0  0  0  0  0  0
  160.3400  209.8930  156.1400 C   0  0  0  0  0  2  0  0  0  0  0  0
  161.6170  207.9080  156.5750 C   0  0  0  0  0  2  0  0  0  0  0  0
  162.5650  207.7190  147.9220 O   0  0  0  0  0  1  0  0  0  0  0  0
  161.1610  210.5170  151.6790 C   0  0  0  0  0  0  0  0  0  0  0  0
  162.2640  211.3650  148.2600 C   0  0  0  0  0  3  0  0  0  0  0  0
  161.8470  209.0650  149.8550 C   0  0  0  0  0  0  0  0  0  0  0  0
  160.9510  209.4390  152.4920 C   0  0  0  0  0  0  0  0  0  0  0  0
  159.7150  212.4270  154.3810 C   0  0  0  0  0  1  0  0  0  0  0  0
  160.3070  209.9170  153.7600 C   0  0  1  0  0  3  0  0  0  0  0  0
  160.9250  209.0630  157.2600 C   0  0  0  0  0  2  0  0  0  0  0  0
  159.7980  206.5760  154.9230 O   0  0  0  0  0  0  0  0  0  0  0  0
  161.8210  211.5040  149.5720 C   0  0  0  0  0  3  0  0  0  0  0  0
  161.6180  210.3740  150.3710 C   0  0  0  0  0  0  0  0  0  0  0  0
  160.7130  207.2190  154.3390 C   0  0  0  0  0  0  0  0  0  0  0  0
  161.6050  204.1760  150.5530 N   0  0  0  0  0  0  0  0  0  0  0  0
  161.0800  202.3020  149.1320 C   0  0  0  0  0  1  0  0  0  0  0  0
  160.8790  203.6990  149.5910 C   0  0  0  0  0  3  0  0  0  0  0  0
  1  4  1  0  0  0  0
  2 19  1  0  0  0  0
  3 10  2  0  0  0  0
  4 20  1  0  0  0  0
  4 12  2  0  0  0  0
  5  1  2  0  0  0  0
  5 11  1  0  0  0  0
  7 15  1  1  0  0  0
  8 12  1  0  0  0  0
  8  6  1  0  0  0  0
  9  7  1  0  0  0  0
  9 14  1  1  0  0  0
 10 22  1  0  0  0  0
 10 21  1  0  0  0  0
 11  8  2  0  0  0  0
 12 27  1  0  0  0  0
 13 18  1  0  0  0  0
 13  2  2  0  0  0  0
 14 23  1  0  0  0  0
 15 23  1  0  0  0  0
 16  2  1  0  0  0  0
 17  3  1  0  0  0  0
 17 20  2  0  0  0  0
 18 25  2  0  0  0  0
 19 26  2  0  0  0  0
 19  1  1  0  0  0  0
 22 20  1  6  0  0  0
 22  9  1  0  0  0  0
 25 26  1  0  0  0  0
 26 17  1  0  0  0  0
 27 24  2  0  0  0  0
 27  7  1  0  0  0  0
 28 11  1  0  0  0  0
 29 30  1  0  0  0  0
 30 28  2  0  0  0  0
M  END
>  <MODEL>
3

>  <REMARK>
 VINA RESULT:      -7.0      2.199      6.071
  Name = 
  1 active torsions:
  status: ('A' for Active; 'I' for Inactive)
    1  A    between atoms: C_11  and  N_28
                            x       y       z     vdW  Elec       q    Type
                         _______ _______ _______ _____ _____    ______ ____

>  <TORSDO>
F 1

$$$$
=
 OpenBabel11122412373D

 30 35  0  0  1  0  0  0  0  0999 V2000
  161.4840  208.5740  151.4400 C   0  0  0  0  0  0  0  0  0  0  0  0
  161.5000  208.9490  153.9270 C   0  0  0  0  0  0  0  0  0  0  0  0
  160.6430  204.4950  151.9620 N   0  0  0  0  0  0  0  0  0  0  0  0
  161.3920  207.6580  150.3510 C   0  0  0  0  0  0  0  0  0  0  0  0
  161.6450  209.9340  151.1460 C   0  0  0  0  0  3  0  0  0  0  0  0
  161.7980  209.9580  147.4620 O   0  0  0  0  0  1  0  0  0  0  0  0
  162.5100  205.9340  148.0740 C   0  0  1  0  0  3  0  0  0  0  0  0
  161.6740  209.4910  148.7680 C   0  0  0  0  0  0  0  0  0  0  0  0
  161.9020  204.8190  148.8270 N   0  0  2  0  0  0  0  0  0  0  0  0
  160.5190  204.1080  150.7310 C   0  0  0  0  0  0  0  0  0  0  0  0
  161.7250  210.4030  149.8290 C   0  0  0  0  0  0  0  0  0  0  0  0
  161.5280  208.1150  149.0190 C   0  0  0  0  0  0  0  0  0  0  0  0
  161.3690  208.4220  155.2150 C   0  0  0  0  0  3  0  0  0  0  0  0
  161.4070  203.9130  147.7980 C   0  0  0  0  0  2  0  0  0  0  0  0
  162.9700  205.3900  146.7330 C   0  0  0  0  0  2  0  0  0  0  0  0
  161.7460  210.3130  153.8100 O   0  0  0  0  0  1  0  0  0  0  0  0
  161.0140  205.8610  151.9230 C   0  0  0  0  0  0  0  0  0  0  0  0
  161.1250  207.0650  155.4110 C   0  0  0  0  0  3  0  0  0  0  0  0
  161.3840  208.1010  152.7900 C   0  0  0  0  0  0  0  0  0  0  0  0
  161.1370  206.3100  150.6390 C   0  0  0  0  0  0  0  0  0  0  0  0
  160.0780  202.7260  150.3930 C   0  0  0  0  0  1  0  0  0  0  0  0
  160.7800  205.1910  149.7060 C   0  0  1  0  0  3  0  0  0  0  0  0
  162.3440  204.0210  146.6160 C   0  0  0  0  0  2  0  0  0  0  0  0
  160.9610  207.3300  146.8480 O   0  0  0  0  0  0  0  0  0  0  0  0
  161.0100  206.2130  154.3150 C   0  0  0  0  0  3  0  0  0  0  0  0
  161.1430  206.7140  153.0160 C   0  0  0  0  0  0  0  0  0  0  0  0
  161.6220  207.1490  147.9080 C   0  0  0  0  0  0  0  0  0  0  0  0
  161.8820  211.8010  149.5480 N   0  0  0  0  0  0  0  0  0  0  0  0
  161.1320  214.0400  149.0670 C   0  0  0  0  0  1  0  0  0  0  0  0
  160.8850  212.6040  149.3530 C   0  0  0  0  0  3  0  0  0  0  0  0
  1 19  1  0  0  0  0
  2 13  1  0  0  0  0
  4 20  1  0  0  0  0
  4  1  2  0  0  0  0
  5  1  1  0  0  0  0
  6  8  1  0  0  0  0
  7 15  1  6  0  0  0
  7  9  1  0  0  0  0
  8 12  2  0  0  0  0
  8 11  1  0  0  0  0
  9 14  1  6  0  0  0
  9 22  1  0  0  0  0
 10  3  2  0  0  0  0
 11  5  2  0  0  0  0
 12  4  1  0  0  0  0
 13 18  2  0  0  0  0
 16  2  1  0  0  0  0
 17  3  1  0  0  0  0
 17 26  1  0  0  0  0
 19 26  1  0  0  0  0
 19  2  2  0  0  0  0
 20 17  2  0  0  0  0
 21 10  1  0  0  0  0
 22 20  1  1  0  0  0
 22 10  1  0  0  0  0
 23 15  1  0  0  0  0
 23 14  1  0  0  0  0
 24 27  2  0  0  0  0
 25 18  1  0  0  0  0
 26 25  2  0  0  0  0
 27  7  1  0  0  0  0
 27 12  1  0  0  0  0
 28 11  1  0  0  0  0
 29 30  1  0  0  0  0
 30 28  2  0  0  0  0
M  END
>  <MODEL>
4

>  <REMARK>
 VINA RESULT:      -6.8      2.171      5.130
  Name = 
  1 active torsions:
  status: ('A' for Active; 'I' for Inactive)
    1  A    between atoms: C_11  and  N_28
                            x       y       z     vdW  Elec       q    Type
                         _______ _______ _______ _____ _____    ______ ____

>  <TORSDO>
F 1

$$$$
=
 OpenBabel11122412373D

 30 35  0  0  1  0  0  0  0  0999 V2000
  161.2710  208.1760  151.2480 C   0  0  0  0  0  0  0  0  0  0  0  0
  161.5950  205.9120  150.2000 C   0  0  0  0  0  0  0  0  0  0  0  0
  160.7290  206.4520  155.0370 N   0  0  0  0  0  0  0  0  0  0  0  0
  160.9560  208.9420  152.4080 C   0  0  0  0  0  0  0  0  0  0  0  0
  161.5530  208.8620  150.0600 C   0  0  0  0  0  3  0  0  0  0  0  0
  161.1030  212.3900  151.0330 O   0  0  0  0  0  1  0  0  0  0  0  0
  159.1320  210.6270  154.2080 C   0  0  1  0  0  3  0  0  0  0  0  0
  161.1730  211.0030  151.1220 C   0  0  0  0  0  0  0  0  0  0  0  0
  159.3900  209.5670  155.2020 N   0  0  2  0  0  0  0  0  0  0  0  0
  160.6100  207.5100  155.7760 C   0  0  0  0  0  0  0  0  0  0  0  0
  161.5240  210.2600  149.9880 C   0  0  0  0  0  0  0  0  0  0  0  0
  160.8680  210.3520  152.3310 C   0  0  0  0  0  0  0  0  0  0  0  0
  161.6490  204.5230  150.3500 C   0  0  0  0  0  3  0  0  0  0  0  0
  159.4610  210.2710  156.4760 C   0  0  0  0  0  2  0  0  0  0  0  0
  158.4030  211.7560  154.9160 C   0  0  0  0  0  2  0  0  0  0  0  0
  161.8140  206.4330  148.9290 O   0  0  0  0  0  1  0  0  0  0  0  0
  160.8390  206.9010  153.6980 C   0  0  0  0  0  0  0  0  0  0  0  0
  161.4380  203.9300  151.5920 C   0  0  0  0  0  3  0  0  0  0  0  0
  161.3210  206.7440  151.3210 C   0  0  0  0  0  0  0  0  0  0  0  0
  160.7650  208.2630  153.6190 C   0  0  0  0  0  0  0  0  0  0  0  0
  160.5290  207.4150  157.2600 C   0  0  0  0  0  1  0  0  0  0  0  0
  160.6430  208.8150  155.0090 C   0  0  1  0  0  3  0  0  0  0  0  0
  158.5190  211.4500  156.3890 C   0  0  0  0  0  2  0  0  0  0  0  0
  160.9500  212.1810  153.8470 O   0  0  0  0  0  0  0  0  0  0  0  0
  161.1650  204.7210  152.7040 C   0  0  0  0  0  3  0  0  0  0  0  0
  161.0990  206.1120  152.5800 C   0  0  0  0  0  0  0  0  0  0  0  0
  160.3600  211.1290  153.4780 C   0  0  0  0  0  0  0  0  0  0  0  0
  161.8230  210.9450  148.7640 N   0  0  0  0  0  0  0  0  0  0  0  0
  162.9500  212.5570  147.3700 C   0  0  0  0  0  1  0  0  0  0  0  0
  162.6980  211.8970  148.6770 C   0  0  0  0  0  3  0  0  0  0  0  0
  1 19  2  0  0  0  0
  1  4  1  0  0  0  0
  2 13  2  0  0  0  0
  2 19  1  0  0  0  0
  3 10  2  0  0  0  0
  4 20  2  0  0  0  0
  5  1  1  0  0  0  0
  6  8  1  0  0  0  0
  7 15  1  1  0  0  0
  7  9  1  0  0  0  0
  8 12  2  0  0  0  0
  9 14  1  1  0  0  0
 10 21  1  0  0  0  0
 11  5  2  0  0  0  0
 11  8  1  0  0  0  0
 12  4  1  0  0  0  0
 12 27  1  0  0  0  0
 13 18  1  0  0  0  0
 15 23  1  0  0  0  0
 16  2  1  0  0  0  0
 17  3  1  0  0  0  0
 18 25  2  0  0  0  0
 19 26  1  0  0  0  0
 20 17  1  0  0  0  0
 22 20  1  6  0  0  0
 22  9  1  0  0  0  0
 22 10  1  0  0  0  0
 23 14  1  0  0  0  0
 26 25  1  0  0  0  0
 26 17  2  0  0  0  0
 27 24  2  0  0  0  0
 27  7  1  0  0  0  0
 28 11  1  0  0  0  0
 29 30  1  0  0  0  0
 30 28  2  0  0  0  0
M  END
>  <MODEL>
5

>  <REMARK>
 VINA RESULT:      -6.6      2.599      7.649
  Name = 
  1 active torsions:
  status: ('A' for Active; 'I' for Inactive)
    1  A    between atoms: C_11  and  N_28
                            x       y       z     vdW  Elec       q    Type
                         _______ _______ _______ _____ _____    ______ ____

>  <TORSDO>
F 1

$$$$
=
 OpenBabel11122412373D

 30 35  0  0  1  0  0  0  0  0999 V2000
  161.2610  210.4090  150.7250 C   0  0  0  0  0  0  0  0  0  0  0  0
  161.3570  212.2740  149.0400 C   0  0  0  0  0  0  0  0  0  0  0  0
  159.3290  212.8900  153.5070 N   0  0  0  0  0  0  0  0  0  0  0  0
  160.9300  209.9810  152.0440 C   0  0  0  0  0  0  0  0  0  0  0  0
  161.7910  209.4640  149.8390 C   0  0  0  0  0  3  0  0  0  0  0  0
  161.9770  206.4190  151.9110 O   0  0  0  0  0  1  0  0  0  0  0  0
  161.5530  209.1940  154.9430 C   0  0  1  0  0  3  0  0  0  0  0  0
  161.7180  207.7320  151.5270 C   0  0  0  0  0  0  0  0  0  0  0  0
  160.6560  210.3170  155.2790 N   0  0  2  0  0  0  0  0  0  0  0  0
  159.1140  212.0560  154.4750 C   0  0  0  0  0  0  0  0  0  0  0  0
  162.0080  208.1330  150.2170 C   0  0  0  0  0  0  0  0  0  0  0  0
  161.1980  208.6530  152.4540 C   0  0  0  0  0  0  0  0  0  0  0  0
  161.0760  213.6040  148.7140 C   0  0  0  0  0  3  0  0  0  0  0  0
  159.9400  209.8700  156.4670 C   0  0  0  0  0  2  0  0  0  0  0  0
  161.8580  208.4450  156.2290 C   0  0  0  0  0  2  0  0  0  0  0  0
  161.9690  211.4870  148.0710 O   0  0  0  0  0  1  0  0  0  0  0  0
  160.0600  212.1860  152.5190 C   0  0  0  0  0  0  0  0  0  0  0  0
  160.4670  214.4530  149.6350 C   0  0  0  0  0  3  0  0  0  0  0  0
  161.0230  211.7660  150.3270 C   0  0  0  0  0  0  0  0  0  0  0  0
  160.3130  210.9000  152.9050 C   0  0  0  0  0  0  0  0  0  0  0  0
  158.3140  212.4440  155.6700 C   0  0  0  0  0  1  0  0  0  0  0  0
  159.6710  210.6680  154.2400 C   0  0  1  0  0  3  0  0  0  0  0  0
  160.8810  208.9810  157.2480 C   0  0  0  0  0  2  0  0  0  0  0  0
  160.4560  207.1820  154.1670 O   0  0  0  0  0  0  0  0  0  0  0  0
  160.1330  213.9820  150.9010 C   0  0  0  0  0  3  0  0  0  0  0  0
  160.4090  212.6570  151.2550 C   0  0  0  0  0  0  0  0  0  0  0  0
  161.0330  208.2630  153.8670 C   0  0  0  0  0  0  0  0  0  0  0  0
  162.5450  207.1780  149.2920 N   0  0  0  0  0  0  0  0  0  0  0  0
  162.5590  205.8210  147.3000 C   0  0  0  0  0  1  0  0  0  0  0  0
  161.9350  206.8180  148.2070 C   0  0  0  0  0  3  0  0  0  0  0  0
  1  4  1  0  0  0  0
  2 19  1  0  0  0  0
  3 10  2  0  0  0  0
  4 12  1  0  0  0  0
  4 20  2  0  0  0  0
  5 11  2  0  0  0  0
  5  1  1  0  0  0  0
  7  9  1  0  0  0  0
  7 15  1  1  0  0  0
  8  6  1  0  0  0  0
  8 12  2  0  0  0  0
  9 14  1  1  0  0  0
 10 21  1  0  0  0  0
 11  8  1  0  0  0  0
 12 27  1  0  0  0  0
 13  2  2  0  0  0  0
 13 18  1  0  0  0  0
 14 23  1  0  0  0  0
 15 23  1  0  0  0  0
 16  2  1  0  0  0  0
 17 20  1  0  0  0  0
 17  3  1  0  0  0  0
 18 25  2  0  0  0  0
 19  1  2  0  0  0  0
 19 26  1  0  0  0  0
 22 20  1  6  0  0  0
 22 10  1  0  0  0  0
 22  9  1  0  0  0  0
 25 26  1  0  0  0  0
 26 17  2  0  0  0  0
 27 24  2  0  0  0  0
 27  7  1  0  0  0  0
 28 11  1  0  0  0  0
 29 30  1  0  0  0  0
 30 28  2  0  0  0  0
M  END
>  <MODEL>
6

>  <REMARK>
 VINA RESULT:      -6.6      2.828      6.875
  Name = 
  1 active torsions:
  status: ('A' for Active; 'I' for Inactive)
    1  A    between atoms: C_11  and  N_28
                            x       y       z     vdW  Elec       q    Type
                         _______ _______ _______ _____ _____    ______ ____

>  <TORSDO>
F 1

$$$$
=
 OpenBabel11122412373D

 30 35  0  0  1  0  0  0  0  0999 V2000
  161.0420  210.2580  151.4030 C   0  0  0  0  0  0  0  0  0  0  0  0
  162.0840  208.2660  150.2760 C   0  0  0  0  0  0  0  0  0  0  0  0
  160.7050  208.1580  155.0220 N   0  0  0  0  0  0  0  0  0  0  0  0
  160.4270  210.8120  152.5640 C   0  0  0  0  0  0  0  0  0  0  0  0
  161.2140  211.0880  150.2880 C   0  0  0  0  0  3  0  0  0  0  0  0
  159.6970  214.2610  151.3950 O   0  0  0  0  0  1  0  0  0  0  0  0
  158.0560  211.7720  154.2560 C   0  0  1  0  0  3  0  0  0  0  0  0
  160.1530  212.9460  151.4170 C   0  0  0  0  0  0  0  0  0  0  0  0
  158.5240  210.7510  155.2140 N   0  0  2  0  0  0  0  0  0  0  0  0
  160.2290  209.0780  155.8000 C   0  0  0  0  0  0  0  0  0  0  0  0
  160.7920  212.4240  150.2870 C   0  0  0  0  0  0  0  0  0  0  0  0
  159.9470  212.1430  152.5540 C   0  0  0  0  0  0  0  0  0  0  0  0
  162.5200  206.9400  150.3580 C   0  0  0  0  0  3  0  0  0  0  0  0
  158.2860  211.3430  156.5240 C   0  0  0  0  0  2  0  0  0  0  0  0
  156.9800  212.5930  154.9450 C   0  0  0  0  0  2  0  0  0  0  0  0
  162.2490  208.9250  149.0630 O   0  0  0  0  0  1  0  0  0  0  0  0
  160.7920  208.7240  153.7270 C   0  0  0  0  0  0  0  0  0  0  0  0
  162.3860  206.2140  151.5390 C   0  0  0  0  0  3  0  0  0  0  0  0
  161.4930  208.8960  151.4060 C   0  0  0  0  0  0  0  0  0  0  0  0
  160.3390  210.0130  153.7130 C   0  0  0  0  0  0  0  0  0  0  0  0
  160.0560  208.8470  157.2610 C   0  0  0  0  0  1  0  0  0  0  0  0
  159.9510  210.3970  155.1100 C   0  0  1  0  0  3  0  0  0  0  0  0
  157.0570  212.2150  156.4050 C   0  0  0  0  0  2  0  0  0  0  0  0
  159.3790  213.7960  154.1640 O   0  0  0  0  0  0  0  0  0  0  0  0
  161.8080  206.8070  152.6580 C   0  0  0  0  0  3  0  0  0  0  0  0
  161.3570  208.1300  152.6010 C   0  0  0  0  0  0  0  0  0  0  0  0
  159.1460  212.6530  153.6820 C   0  0  0  0  0  0  0  0  0  0  0  0
  160.9840  213.2600  149.1380 N   0  0  0  0  0  0  0  0  0  0  0  0
  162.0470  213.9730  147.0960 C   0  0  0  0  0  1  0  0  0  0  0  0
  161.9150  213.0590  148.2590 C   0  0  0  0  0  3  0  0  0  0  0  0
  1 19  2  0  0  0  0
  1  4  1  0  0  0  0
  2 13  2  0  0  0  0
  2 19  1  0  0  0  0
  3 10  2  0  0  0  0
  4 20  2  0  0  0  0
  5  1  1  0  0  0  0
  6  8  1  0  0  0  0
  7 15  1  1  0  0  0
  7  9  1  0  0  0  0
  8 12  2  0  0  0  0
  9 14  1  1  0  0  0
 10 21  1  0  0  0  0
 11  5  2  0  0  0  0
 11  8  1  0  0  0  0
 12  4  1  0  0  0  0
 12 27  1  0  0  0  0
 13 18  1  0  0  0  0
 15 23  1  0  0  0  0
 16  2  1  0  0  0  0
 17  3  1  0  0  0  0
 18 25  2  0  0  0  0
 19 26  1  0  0  0  0
 20 17  1  0  0  0  0
 22 20  1  6  0  0  0
 22  9  1  0  0  0  0
 22 10  1  0  0  0  0
 23 14  1  0  0  0  0
 26 25  1  0  0  0  0
 26 17  2  0  0  0  0
 27 24  2  0  0  0  0
 27  7  1  0  0  0  0
 28 11  1  0  0  0  0
 29 30  1  0  0  0  0
 30 28  2  0  0  0  0
M  END
>  <MODEL>
7

>  <REMARK>
 VINA RESULT:      -6.5      3.559      8.280
  Name = 
  1 active torsions:
  status: ('A' for Active; 'I' for Inactive)
    1  A    between atoms: C_11  and  N_28
                            x       y       z     vdW  Elec       q    Type
                         _______ _______ _______ _____ _____    ______ ____

>  <TORSDO>
F 1

$$$$
=
 OpenBabel11122412373D

 30 35  0  0  1  0  0  0  0  0999 V2000
  161.4060  208.1430  150.3930 C   0  0  0  0  0  0  0  0  0  0  0  0
  161.5630  206.0150  149.0620 C   0  0  0  0  0  0  0  0  0  0  0  0
  160.8310  205.9920  153.9510 N   0  0  0  0  0  0  0  0  0  0  0  0
  161.1650  208.7750  151.6480 C   0  0  0  0  0  0  0  0  0  0  0  0
  161.7080  208.9550  149.2930 C   0  0  0  0  0  3  0  0  0  0  0  0
  161.5060  212.3530  150.7110 O   0  0  0  0  0  1  0  0  0  0  0  0
  159.4900  210.3280  153.6940 C   0  0  1  0  0  3  0  0  0  0  0  0
  161.4890  210.9640  150.6240 C   0  0  0  0  0  0  0  0  0  0  0  0
  159.6990  209.1370  154.5410 N   0  0  2  0  0  0  0  0  0  0  0  0
  160.7950  206.9530  154.8200 C   0  0  0  0  0  0  0  0  0  0  0  0
  161.7680  210.3510  149.3970 C   0  0  0  0  0  0  0  0  0  0  0  0
  161.1670  210.1860  151.7510 C   0  0  0  0  0  0  0  0  0  0  0  0
  161.5300  204.6170  149.0370 C   0  0  0  0  0  3  0  0  0  0  0  0
  159.8410  209.6680  155.8900 C   0  0  0  0  0  2  0  0  0  0  0  0
  158.8490  211.4010  154.5580 C   0  0  0  0  0  2  0  0  0  0  0  0
  161.7890  206.6770  147.8610 O   0  0  0  0  0  1  0  0  0  0  0  0
  160.9430  206.5990  152.6760 C   0  0  0  0  0  0  0  0  0  0  0  0
  161.3060  203.8850  150.2000 C   0  0  0  0  0  3  0  0  0  0  0  0
  161.3650  206.7130  150.2860 C   0  0  0  0  0  0  0  0  0  0  0  0
  160.9550  207.9610  152.7700 C   0  0  0  0  0  0  0  0  0  0  0  0
  160.7380  206.6770  156.2810 C   0  0  0  0  0  1  0  0  0  0  0  0
  160.8970  208.3400  154.2210 C   0  0  1  0  0  3  0  0  0  0  0  0
  158.9750  210.9040  155.9780 C   0  0  0  0  0  2  0  0  0  0  0  0
  161.3970  211.8000  153.4800 O   0  0  0  0  0  0  0  0  0  0  0  0
  161.1070  204.5450  151.4090 C   0  0  0  0  0  3  0  0  0  0  0  0
  161.1280  205.9430  151.4620 C   0  0  0  0  0  0  0  0  0  0  0  0
  160.7330  210.8420  152.9990 C   0  0  0  0  0  0  0  0  0  0  0  0
  162.0860  211.1650  148.2600 N   0  0  0  0  0  0  0  0  0  0  0  0
  161.6130  212.6630  146.4320 C   0  0  0  0  0  1  0  0  0  0  0  0
  161.2010  211.8440  147.6000 C   0  0  0  0  0  3  0  0  0  0  0  0
  1  4  1  0  0  0  0
  2 19  1  0  0  0  0
  3 10  2  0  0  0  0
  4 12  1  0  0  0  0
  4 20  2  0  0  0  0
  5 11  2  0  0  0  0
  5  1  1  0  0  0  0
  7  9  1  0  0  0  0
  7 15  1  1  0  0  0
  8  6  1  0  0  0  0
  8 12  2  0  0  0  0
  9 14  1  1  0  0  0
 10 21  1  0  0  0  0
 11  8  1  0  0  0  0
 12 27  1  0  0  0  0
 13  2  2  0  0  0  0
 13 18  1  0  0  0  0
 14 23  1  0  0  0  0
 15 23  1  0  0  0  0
 16  2  1  0  0  0  0
 17 20  1  0  0  0  0
 17  3  1  0  0  0  0
 18 25  2  0  0  0  0
 19  1  2  0  0  0  0
 19 26  1  0  0  0  0
 22 20  1  6  0  0  0
 22  9  1  0  0  0  0
 22 10  1  0  0  0  0
 25 26  1  0  0  0  0
 26 17  2  0  0  0  0
 27 24  2  0  0  0  0
 27  7  1  0  0  0  0
 28 11  1  0  0  0  0
 29 30  1  0  0  0  0
 30 28  2  0  0  0  0
M  END
>  <MODEL>
8

>  <REMARK>
 VINA RESULT:      -6.3      2.408      7.322
  Name = 
  1 active torsions:
  status: ('A' for Active; 'I' for Inactive)
    1  A    between atoms: C_11  and  N_28
                            x       y       z     vdW  Elec       q    Type
                         _______ _______ _______ _____ _____    ______ ____

>  <TORSDO>
F 1

$$$$
=
 OpenBabel11122412373D

 30 35  0  0  1  0  0  0  0  0999 V2000
  161.3390  209.8170  151.1770 C   0  0  0  0  0  0  0  0  0  0  0  0
  162.0520  210.4850  148.8590 C   0  0  0  0  0  0  0  0  0  0  0  0
  159.5920  213.5780  151.8300 N   0  0  0  0  0  0  0  0  0  0  0  0
  160.7460  210.1890  152.4190 C   0  0  0  0  0  0  0  0  0  0  0  0
  161.7810  208.4970  151.0260 C   0  0  0  0  0  3  0  0  0  0  0  0
  161.0430  207.0110  154.3190 O   0  0  0  0  0  1  0  0  0  0  0  0
  160.7820  210.9960  155.3780 C   0  0  1  0  0  3  0  0  0  0  0  0
  161.1170  207.9400  153.2850 C   0  0  0  0  0  0  0  0  0  0  0  0
  160.0990  212.2130  154.8960 N   0  0  2  0  0  0  0  0  0  0  0  0
  159.0770  213.4110  153.0070 C   0  0  0  0  0  0  0  0  0  0  0  0
  161.6630  207.5540  152.0550 C   0  0  0  0  0  0  0  0  0  0  0  0
  160.6740  209.2600  153.4840 C   0  0  0  0  0  0  0  0  0  0  0  0
  162.1000  211.4620  147.8600 C   0  0  0  0  0  3  0  0  0  0  0  0
  159.1470  212.5390  155.9510 C   0  0  0  0  0  2  0  0  0  0  0  0
  160.7430  211.0160  156.8960 C   0  0  0  0  0  2  0  0  0  0  0  0
  162.6170  209.2460  148.5790 O   0  0  0  0  0  1  0  0  0  0  0  0
  160.2930  212.3870  151.5200 C   0  0  0  0  0  0  0  0  0  0  0  0
  161.5580  212.7270  148.0690 C   0  0  0  0  0  3  0  0  0  0  0  0
  161.4440  210.7740  150.1130 C   0  0  0  0  0  0  0  0  0  0  0  0
  160.2180  211.4820  152.5410 C   0  0  0  0  0  0  0  0  0  0  0  0
  158.2160  214.4530  153.6320 C   0  0  0  0  0  1  0  0  0  0  0  0
  159.3620  212.0600  153.6280 C   0  0  1  0  0  3  0  0  0  0  0  0
  159.7660  212.1070  157.2610 C   0  0  0  0  0  2  0  0  0  0  0  0
  159.4130  209.0050  155.4820 O   0  0  0  0  0  0  0  0  0  0  0  0
  160.9600  213.0350  149.2870 C   0  0  0  0  0  3  0  0  0  0  0  0
  160.9040  212.0790  150.3070 C   0  0  0  0  0  0  0  0  0  0  0  0
  160.2370  209.6970  154.8230 C   0  0  0  0  0  0  0  0  0  0  0  0
  162.1150  206.2040  151.8790 N   0  0  0  0  0  0  0  0  0  0  0  0
  161.8600  203.8240  151.6010 C   0  0  0  0  0  1  0  0  0  0  0  0
  161.3120  205.1920  151.7820 C   0  0  0  0  0  3  0  0  0  0  0  0
  1  4  1  0  0  0  0
  2 19  1  0  0  0  0
  3 10  2  0  0  0  0
  4 20  1  0  0  0  0
  4 12  2  0  0  0  0
  5  1  2  0  0  0  0
  5 11  1  0  0  0  0
  7 15  1  1  0  0  0
  8 12  1  0  0  0  0
  8  6  1  0  0  0  0
  9  7  1  0  0  0  0
  9 14  1  1  0  0  0
 10 22  1  0  0  0  0
 10 21  1  0  0  0  0
 11  8  2  0  0  0  0
 12 27  1  0  0  0  0
 13 18  1  0  0  0  0
 13  2  2  0  0  0  0
 14 23  1  0  0  0  0
 15 23  1  0  0  0  0
 16  2  1  0  0  0  0
 17  3  1  0  0  0  0
 17 20  2  0  0  0  0
 18 25  2  0  0  0  0
 19 26  2  0  0  0  0
 19  1  1  0  0  0  0
 22 20  1  6  0  0  0
 22  9  1  0  0  0  0
 25 26  1  0  0  0  0
 26 17  1  0  0  0  0
 27  7  1  0  0  0  0
 27 24  2  0  0  0  0
 28 11  1  0  0  0  0
 29 30  1  0  0  0  0
 30 28  2  0  0  0  0
M  END
>  <MODEL>
9

>  <REMARK>
 VINA RESULT:      -6.3      3.296      7.016
  Name = 
  1 active torsions:
  status: ('A' for Active; 'I' for Inactive)
    1  A    between atoms: C_11  and  N_28
                            x       y       z     vdW  Elec       q    Type
                         _______ _______ _______ _____ _____    ______ ____

>  <TORSDO>
F 1

$$$$
