=
 OpenBabel11122414173D

 34 40  0  0  1  0  0  0  0  0999 V2000
  161.4730  204.9740  151.9630 C   0  0  2  0  0  3  0  0  0  0  0  0
  160.9580  205.9830  154.2630 C   0  0  0  0  0  2  0  0  0  0  0  0
  162.3090  205.6330  145.4840 C   0  0  0  0  0  0  0  0  0  0  0  0
  161.1750  204.1970  149.5400 C   0  0  0  0  0  0  0  0  0  0  0  0
  161.1760  205.8900  147.7180 C   0  0  0  0  0  0  0  0  0  0  0  0
  159.8360  205.9520  145.6310 C   0  0  0  0  0  1  0  0  0  0  0  0
  162.4640  205.9180  144.3080 O   0  0  0  0  0  0  0  0  0  0  0  0
  162.6130  203.3200  146.4610 C   0  0  0  0  0  2  0  0  0  0  0  0
  160.9310  207.3760  152.3810 C   0  0  0  0  0  0  0  0  0  0  0  0
  162.0680  210.3290  152.5850 C   0  0  0  0  0  2  0  0  0  0  0  0
  161.1310  206.8700  148.6320 C   0  0  0  0  0  3  0  0  0  0  0  0
  161.2410  203.4370  147.1330 C   0  0  0  0  0  2  0  0  0  0  0  0
  161.0670  207.6850  151.0780 C   0  0  0  0  0  0  0  0  0  0  0  0
  160.6770  207.4170  154.7290 C   0  0  0  0  0  2  0  0  0  0  0  0
  161.2180  204.5030  148.1350 N   0  0  0  0  0  0  0  0  0  0  0  0
  163.2640  204.6660  146.1280 C   0  0  0  0  0  2  0  0  0  0  0  0
  162.0990  209.1960  153.6090 C   0  0  2  0  0  3  0  0  0  0  0  0
  161.2400  205.3040  150.5070 C   0  0  0  0  0  0  0  0  0  0  0  0
  161.1810  206.2710  146.2620 C   0  0  2  0  0  3  0  0  0  0  0  0
  161.1610  206.5810  150.0850 C   0  0  0  0  0  0  0  0  0  0  0  0
  160.7380  202.7150  151.4370 C   0  0  0  0  0  3  0  0  0  0  0  0
  162.3170  209.8340  151.1660 C   0  0  0  0  0  2  0  0  0  0  0  0
  160.9400  202.9590  149.9920 C   0  0  0  0  0  3  0  0  0  0  0  0
  161.0910  209.1130  150.6220 C   0  0  0  0  0  2  0  0  0  0  0  0
  160.8260  208.3420  153.5090 C   0  0  1  0  0  3  0  0  0  0  0  0
  160.9290  203.6590  152.3160 N   0  0  0  0  0  0  0  0  0  0  0  0
  160.9350  206.0290  152.8170 N   0  0  0  0  0  0  0  0  0  0  0  0
  162.2080  209.7580  154.8850 O   0  0  0  0  0  0  0  0  0  0  0  0
  161.7100  211.0550  154.7490 C   0  0  0  0  0  2  0  0  0  0  0  0
  158.9070  210.1430  156.1230 O   0  0  0  0  0  0  0  0  0  0  0  0
  161.0670  210.3880  157.0390 C   0  0  0  0  0  2  0  0  0  0  0  0
  160.8910  211.4280  155.9710 C   0  0  2  0  0  3  0  0  0  0  0  0
  159.6730  209.8550  157.2600 C   0  0  0  0  0  2  0  0  0  0  0  0
  159.4190  211.3540  155.6330 C   0  0  0  0  0  2  0  0  0  0  0  0
  1 18  1  6  0  0  0
  1 26  1  0  0  0  0
  1 27  1  0  0  0  0
  2 14  1  0  0  0  0
  3 16  1  0  0  0  0
  3 19  1  0  0  0  0
  4 23  2  0  0  0  0
  4 18  1  0  0  0  0
  5 15  1  0  0  0  0
  5 11  2  0  0  0  0
  7  3  2  0  0  0  0
  8 12  1  0  0  0  0
  9 27  1  0  0  0  0
  9 25  1  0  0  0  0
 10 17  1  0  0  0  0
 11 20  1  0  0  0  0
 12 15  1  0  0  0  0
 13  9  2  0  0  0  0
 15  4  1  0  0  0  0
 16  8  1  0  0  0  0
 17 28  1  1  0  0  0
 19  6  1  6  0  0  0
 19  5  1  0  0  0  0
 20 18  2  0  0  0  0
 20 13  1  0  0  0  0
 21 26  2  0  0  0  0
 22 10  1  0  0  0  0
 23 21  1  0  0  0  0
 24 13  1  0  0  0  0
 24 22  1  0  0  0  0
 25 17  1  0  0  0  0
 25 14  1  1  0  0  0
 27  2  1  0  0  0  0
 29 28  1  0  0  0  0
 30 33  1  0  0  0  0
 31 33  1  0  0  0  0
 32 29  1  6  0  0  0
 32 31  1  0  0  0  0
 34 32  1  0  0  0  0
 34 30  1  0  0  0  0
M  END
>  <MODEL>
1

>  <REMARK>
 VINA RESULT:      -8.4      0.000      0.000
  Name = 
  3 active torsions:
  status: ('A' for Active; 'I' for Inactive)
    1  A    between atoms: C_17  and  O_28
    2  A    between atoms: O_28  and  C_29
    3  A    between atoms: C_29  and  C_32
                            x       y       z     vdW  Elec       q    Type
                         _______ _______ _______ _____ _____    ______ ____

>  <TORSDO>
F 3

$$$$
=
 OpenBabel11122414173D

 34 40  0  0  1  0  0  0  0  0999 V2000
  160.4250  208.9730  152.4830 C   0  0  2  0  0  3  0  0  0  0  0  0
  160.7920  206.6930  153.5990 C   0  0  0  0  0  2  0  0  0  0  0  0
  160.9540  212.9490  147.2860 C   0  0  0  0  0  0  0  0  0  0  0  0
  160.9130  211.2390  151.3930 C   0  0  0  0  0  0  0  0  0  0  0  0
  161.7040  211.3020  149.0360 C   0  0  0  0  0  0  0  0  0  0  0  0
  163.3520  212.8230  147.9730 C   0  0  0  0  0  1  0  0  0  0  0  0
  161.0930  213.5530  146.2340 O   0  0  0  0  0  0  0  0  0  0  0  0
  159.8480  213.8910  149.3560 C   0  0  0  0  0  2  0  0  0  0  0  0
  161.5360  207.0150  151.4020 C   0  0  0  0  0  0  0  0  0  0  0  0
  161.2540  204.6750  149.2810 C   0  0  0  0  0  2  0  0  0  0  0  0
  161.8610  209.9710  149.0560 C   0  0  0  0  0  3  0  0  0  0  0  0
  161.0590  213.4530  150.1870 C   0  0  0  0  0  2  0  0  0  0  0  0
  161.7230  207.6910  150.2530 C   0  0  0  0  0  0  0  0  0  0  0  0
  161.3770  205.3700  153.0900 C   0  0  0  0  0  2  0  0  0  0  0  0
  161.2030  211.9970  150.2050 N   0  0  0  0  0  0  0  0  0  0  0  0
  159.6690  213.1110  148.0500 C   0  0  0  0  0  2  0  0  0  0  0  0
  160.7290  204.7660  150.7130 C   0  0  2  0  0  3  0  0  0  0  0  0
  160.9930  209.7720  151.3330 C   0  0  0  0  0  0  0  0  0  0  0  0
  162.0610  212.0450  147.7770 C   0  0  2  0  0  3  0  0  0  0  0  0
  161.4980  209.1620  150.2430 C   0  0  0  0  0  0  0  0  0  0  0  0
  160.5790  211.0100  153.8050 C   0  0  0  0  0  3  0  0  0  0  0  0
  161.1290  205.9960  148.5320 C   0  0  0  0  0  2  0  0  0  0  0  0
  160.7090  211.8260  152.5790 C   0  0  0  0  0  3  0  0  0  0  0  0
  162.1790  206.9900  149.0100 C   0  0  0  0  0  2  0  0  0  0  0  0
  161.7090  205.5500  151.5990 C   0  0  1  0  0  3  0  0  0  0  0  0
  160.5090  209.7090  153.7490 N   0  0  0  0  0  0  0  0  0  0  0  0
  161.0790  207.6700  152.5710 N   0  0  0  0  0  0  0  0  0  0  0  0
  160.5600  203.4680  151.2040 O   0  0  0  0  0  0  0  0  0  0  0  0
  161.5420  202.7120  150.5610 C   0  0  0  0  0  2  0  0  0  0  0  0
  159.9180  201.6640  147.9460 O   0  0  0  0  0  0  0  0  0  0  0  0
  161.8410  200.8090  149.0140 C   0  0  0  0  0  2  0  0  0  0  0  0
  160.9490  201.4070  150.0630 C   0  0  2  0  0  3  0  0  0  0  0  0
  160.9650  200.7460  147.7860 C   0  0  0  0  0  2  0  0  0  0  0  0
  159.6600  201.6890  149.3250 C   0  0  0  0  0  2  0  0  0  0  0  0
  1 18  1  6  0  0  0
  1 27  1  0  0  0  0
  1 26  1  0  0  0  0
  3 19  1  0  0  0  0
  3 16  1  0  0  0  0
  4 23  2  0  0  0  0
  5 11  2  0  0  0  0
  5 15  1  0  0  0  0
  7  3  2  0  0  0  0
  8 12  1  0  0  0  0
  9 25  1  0  0  0  0
  9 27  1  0  0  0  0
 10 17  1  0  0  0  0
 11 20  1  0  0  0  0
 12 15  1  0  0  0  0
 13  9  2  0  0  0  0
 14  2  1  0  0  0  0
 15  4  1  0  0  0  0
 16  8  1  0  0  0  0
 17 28  1  1  0  0  0
 17 25  1  0  0  0  0
 18  4  1  0  0  0  0
 19  6  1  1  0  0  0
 19  5  1  0  0  0  0
 20 13  1  0  0  0  0
 20 18  2  0  0  0  0
 22 24  1  0  0  0  0
 22 10  1  0  0  0  0
 23 21  1  0  0  0  0
 24 13  1  0  0  0  0
 25 14  1  1  0  0  0
 26 21  2  0  0  0  0
 27  2  1  0  0  0  0
 29 28  1  0  0  0  0
 30 34  1  0  0  0  0
 31 32  1  0  0  0  0
 32 29  1  6  0  0  0
 33 30  1  0  0  0  0
 33 31  1  0  0  0  0
 34 32  1  0  0  0  0
M  END
>  <MODEL>
2

>  <REMARK>
 VINA RESULT:      -7.0      3.422      7.595
  Name = 
  3 active torsions:
  status: ('A' for Active; 'I' for Inactive)
    1  A    between atoms: C_17  and  O_28
    2  A    between atoms: O_28  and  C_29
    3  A    between atoms: C_29  and  C_32
                            x       y       z     vdW  Elec       q    Type
                         _______ _______ _______ _____ _____    ______ ____

>  <TORSDO>
F 3

$$$$
=
 OpenBabel11122414173D

 34 40  0  0  1  0  0  0  0  0999 V2000
  160.0410  209.6470  153.3990 C   0  0  2  0  0  3  0  0  0  0  0  0
  160.8880  207.4560  154.4300 C   0  0  0  0  0  2  0  0  0  0  0  0
  159.6310  213.8030  148.3330 C   0  0  0  0  0  0  0  0  0  0  0  0
  160.0350  211.9970  152.3800 C   0  0  0  0  0  0  0  0  0  0  0  0
  160.7400  212.2900  150.0130 C   0  0  0  0  0  0  0  0  0  0  0  0
  162.0210  214.1440  148.9730 C   0  0  0  0  0  1  0  0  0  0  0  0
  159.6200  214.4530  147.3010 O   0  0  0  0  0  0  0  0  0  0  0  0
  158.4080  214.4380  150.4540 C   0  0  0  0  0  2  0  0  0  0  0  0
  161.4990  207.9880  152.2320 C   0  0  0  0  0  0  0  0  0  0  0  0
  161.6420  205.7040  150.0370 C   0  0  0  0  0  2  0  0  0  0  0  0
  161.1630  211.0180  149.9840 C   0  0  0  0  0  3  0  0  0  0  0  0
  159.7020  214.2300  151.2480 C   0  0  0  0  0  2  0  0  0  0  0  0
  161.5170  208.7220  151.1040 C   0  0  0  0  0  0  0  0  0  0  0  0
  161.7150  206.2950  153.8650 C   0  0  0  0  0  2  0  0  0  0  0  0
  160.1380  212.8330  151.2130 N   0  0  0  0  0  0  0  0  0  0  0  0
  158.3590  213.6770  149.1250 C   0  0  0  0  0  2  0  0  0  0  0  0
  161.1450  205.6440  151.4810 C   0  0  2  0  0  3  0  0  0  0  0  0
  160.4080  210.5780  152.2680 C   0  0  0  0  0  0  0  0  0  0  0  0
  160.9090  213.1270  148.7740 C   0  0  2  0  0  3  0  0  0  0  0  0
  160.9990  210.1170  151.1480 C   0  0  0  0  0  0  0  0  0  0  0  0
  159.8130  211.6320  154.7880 C   0  0  0  0  0  3  0  0  0  0  0  0
  161.2360  206.9940  149.3370 C   0  0  0  0  0  2  0  0  0  0  0  0
  159.7460  212.4940  153.5890 C   0  0  0  0  0  3  0  0  0  0  0  0
  162.0750  208.1650  149.8300 C   0  0  0  0  0  2  0  0  0  0  0  0
  161.9680  206.5830  152.3760 C   0  0  1  0  0  3  0  0  0  0  0  0
  160.0060  210.3470  154.6880 N   0  0  0  0  0  0  0  0  0  0  0  0
  160.9470  208.5020  153.4310 N   0  0  0  0  0  0  0  0  0  0  0  0
  161.2540  204.3240  151.9300 O   0  0  0  0  0  0  0  0  0  0  0  0
  160.4370  203.5860  151.0710 C   0  0  0  0  0  2  0  0  0  0  0  0
  159.9800  200.9460  149.2270 O   0  0  0  0  0  0  0  0  0  0  0  0
  161.0960  202.9750  148.7700 C   0  0  0  0  0  2  0  0  0  0  0  0
  161.2850  202.6540  150.2240 C   0  0  2  0  0  3  0  0  0  0  0  0
  160.5410  201.6990  148.1850 C   0  0  0  0  0  2  0  0  0  0  0  0
  160.7620  201.2410  150.3530 C   0  0  0  0  0  2  0  0  0  0  0  0
  1 18  1  6  0  0  0
  1 27  1  0  0  0  0
  1 26  1  0  0  0  0
  3 19  1  0  0  0  0
  3 16  1  0  0  0  0
  4 23  2  0  0  0  0
  5 15  1  0  0  0  0
  7  3  2  0  0  0  0
  8 12  1  0  0  0  0
  9 25  1  0  0  0  0
  9 27  1  0  0  0  0
 10 17  1  0  0  0  0
 11  5  2  0  0  0  0
 11 20  1  0  0  0  0
 13 20  1  0  0  0  0
 13  9  2  0  0  0  0
 14  2  1  0  0  0  0
 15 12  1  0  0  0  0
 15  4  1  0  0  0  0
 16  8  1  0  0  0  0
 17 28  1  1  0  0  0
 17 25  1  0  0  0  0
 18  4  1  0  0  0  0
 19  6  1  1  0  0  0
 19  5  1  0  0  0  0
 20 18  2  0  0  0  0
 22 24  1  0  0  0  0
 22 10  1  0  0  0  0
 23 21  1  0  0  0  0
 24 13  1  0  0  0  0
 25 14  1  1  0  0  0
 26 21  2  0  0  0  0
 27  2  1  0  0  0  0
 29 28  1  0  0  0  0
 30 34  1  0  0  0  0
 31 32  1  0  0  0  0
 32 34  1  0  0  0  0
 32 29  1  1  0  0  0
 33 31  1  0  0  0  0
 33 30  1  0  0  0  0
M  END
>  <MODEL>
3

>  <REMARK>
 VINA RESULT:      -6.3      3.724      7.840
  Name = 
  3 active torsions:
  status: ('A' for Active; 'I' for Inactive)
    1  A    between atoms: C_17  and  O_28
    2  A    between atoms: O_28  and  C_29
    3  A    between atoms: C_29  and  C_32
                            x       y       z     vdW  Elec       q    Type
                         _______ _______ _______ _____ _____    ______ ____

>  <TORSDO>
F 3

$$$$
=
 OpenBabel11122414173D

 34 40  0  0  1  0  0  0  0  0999 V2000
  161.1570  208.3240  150.8490 C   0  0  2  0  0  3  0  0  0  0  0  0
  161.4380  210.4960  152.1850 C   0  0  0  0  0  2  0  0  0  0  0  0
  160.4170  201.8050  150.6190 C   0  0  0  0  0  0  0  0  0  0  0  0
  161.6460  206.0140  149.8590 C   0  0  0  0  0  0  0  0  0  0  0  0
  161.4290  204.0050  151.3100 C   0  0  0  0  0  0  0  0  0  0  0  0
  162.8020  201.9390  151.3480 C   0  0  0  0  0  1  0  0  0  0  0  0
  160.2530  200.6020  150.7390 O   0  0  0  0  0  0  0  0  0  0  0  0
  160.4560  203.0440  148.4150 C   0  0  0  0  0  2  0  0  0  0  0  0
  161.2980  208.4630  153.3390 C   0  0  0  0  0  0  0  0  0  0  0  0
  159.7000  208.3070  156.0730 C   0  0  0  0  0  2  0  0  0  0  0  0
  161.2910  204.7980  152.3810 C   0  0  0  0  0  3  0  0  0  0  0  0
  161.7720  203.7120  148.8270 C   0  0  0  0  0  2  0  0  0  0  0  0
  161.1530  207.1310  153.4710 C   0  0  0  0  0  0  0  0  0  0  0  0
  161.4740  210.7920  153.6890 C   0  0  0  0  0  2  0  0  0  0  0  0
  161.5960  204.5820  149.9910 N   0  0  0  0  0  0  0  0  0  0  0  0
  159.6100  202.5480  149.5910 C   0  0  0  0  0  2  0  0  0  0  0  0
  159.8210  209.4570  155.0750 C   0  0  2  0  0  3  0  0  0  0  0  0
  161.3780  206.8430  151.0430 C   0  0  0  0  0  0  0  0  0  0  0  0
  161.4060  202.5150  151.5150 C   0  0  2  0  0  3  0  0  0  0  0  0
  161.2640  206.2740  152.2600 C   0  0  0  0  0  0  0  0  0  0  0  0
  162.2580  208.0750  148.6940 C   0  0  0  0  0  3  0  0  0  0  0  0
  159.5750  206.9530  155.3860 C   0  0  0  0  0  2  0  0  0  0  0  0
  162.0610  206.6100  148.7340 C   0  0  0  0  0  3  0  0  0  0  0  0
  160.9150  206.5110  154.8150 C   0  0  0  0  0  2  0  0  0  0  0  0
  161.2160  209.4710  154.4320 C   0  0  1  0  0  3  0  0  0  0  0  0
  161.8940  208.8350  149.6880 N   0  0  0  0  0  0  0  0  0  0  0  0
  161.4960  209.0550  152.0680 N   0  0  0  0  0  0  0  0  0  0  0  0
  159.5870  210.6570  155.7540 O   0  0  0  0  0  0  0  0  0  0  0  0
  158.1970  210.7850  155.7840 C   0  0  0  0  0  2  0  0  0  0  0  0
  156.0810  213.1130  154.9620 O   0  0  0  0  0  0  0  0  0  0  0  0
  158.3440  212.8060  154.3710 C   0  0  0  0  0  2  0  0  0  0  0  0
  157.7090  211.4530  154.5120 C   0  0  2  0  0  3  0  0  0  0  0  0
  157.1730  213.7580  154.3660 C   0  0  0  0  0  2  0  0  0  0  0  0
  156.2340  211.7570  154.6360 C   0  0  0  0  0  2  0  0  0  0  0  0
  1 26  1  6  0  0  0
  1 18  1  0  0  0  0
  1 27  1  0  0  0  0
  2 14  1  0  0  0  0
  3  7  2  0  0  0  0
  3 19  1  0  0  0  0
  4 15  1  0  0  0  0
  4 18  1  0  0  0  0
  5 19  1  0  0  0  0
  5 11  2  0  0  0  0
  8 12  1  0  0  0  0
  8 16  1  0  0  0  0
  9 13  2  0  0  0  0
  9 25  1  0  0  0  0
 12 15  1  0  0  0  0
 13 24  1  0  0  0  0
 15  5  1  0  0  0  0
 16  3  1  0  0  0  0
 17 28  1  1  0  0  0
 17 10  1  0  0  0  0
 18 20  2  0  0  0  0
 19  6  1  6  0  0  0
 20 11  1  0  0  0  0
 20 13  1  0  0  0  0
 21 23  1  0  0  0  0
 21 26  2  0  0  0  0
 22 10  1  0  0  0  0
 23  4  2  0  0  0  0
 24 22  1  0  0  0  0
 25 14  1  6  0  0  0
 25 17  1  0  0  0  0
 27  2  1  0  0  0  0
 27  9  1  0  0  0  0
 28 29  1  0  0  0  0
 31 32  1  0  0  0  0
 32 34  1  0  0  0  0
 32 29  1  1  0  0  0
 33 31  1  0  0  0  0
 33 30  1  0  0  0  0
 34 30  1  0  0  0  0
M  END
>  <MODEL>
4

>  <REMARK>
 VINA RESULT:      -6.2      2.404      4.444
  Name = 
  3 active torsions:
  status: ('A' for Active; 'I' for Inactive)
    1  A    between atoms: C_17  and  O_28
    2  A    between atoms: O_28  and  C_29
    3  A    between atoms: C_29  and  C_32
                            x       y       z     vdW  Elec       q    Type
                         _______ _______ _______ _____ _____    ______ ____

>  <TORSDO>
F 3

$$$$
=
 OpenBabel11122414173D

 34 40  0  0  1  0  0  0  0  0999 V2000
  160.4450  207.3950  154.0300 C   0  0  2  0  0  3  0  0  0  0  0  0
  161.9910  205.8810  152.6540 C   0  0  0  0  0  2  0  0  0  0  0  0
  157.8850  213.3030  155.3140 C   0  0  0  0  0  0  0  0  0  0  0  0
  159.6580  209.2340  155.6300 C   0  0  0  0  0  0  0  0  0  0  0  0
  159.6820  211.5990  154.8600 C   0  0  0  0  0  0  0  0  0  0  0  0
  160.2170  213.6600  156.1350 C   0  0  0  0  0  1  0  0  0  0  0  0
  157.4770  214.4490  155.4090 O   0  0  0  0  0  0  0  0  0  0  0  0
  157.1010  211.3670  156.7400 C   0  0  0  0  0  2  0  0  0  0  0  0
  161.9140  208.1690  152.1640 C   0  0  0  0  0  0  0  0  0  0  0  0
  162.0370  209.1440  149.1500 C   0  0  0  0  0  2  0  0  0  0  0  0
  160.3630  211.2320  153.7650 C   0  0  0  0  0  3  0  0  0  0  0  0
  158.5610  211.0160  157.0440 C   0  0  0  0  0  2  0  0  0  0  0  0
  161.4900  209.4410  152.2920 C   0  0  0  0  0  0  0  0  0  0  0  0
  162.8980  206.1460  151.4470 C   0  0  0  0  0  2  0  0  0  0  0  0
  159.2820  210.6070  155.8380 N   0  0  0  0  0  0  0  0  0  0  0  0
  156.9060  212.1700  155.4500 C   0  0  0  0  0  2  0  0  0  0  0  0
  161.9310  207.7290  149.7170 C   0  0  2  0  0  3  0  0  0  0  0  0
  160.3050  208.8620  154.3630 C   0  0  0  0  0  0  0  0  0  0  0  0
  159.3510  213.0550  155.0420 C   0  0  2  0  0  3  0  0  0  0  0  0
  160.6960  209.8150  153.4940 C   0  0  0  0  0  0  0  0  0  0  0  0
  160.1150  206.9580  156.4010 C   0  0  0  0  0  3  0  0  0  0  0  0
  161.1900  210.1440  149.9250 C   0  0  0  0  0  2  0  0  0  0  0  0
  159.5640  208.3160  156.6010 C   0  0  0  0  0  3  0  0  0  0  0  0
  161.8340  210.4760  151.2640 C   0  0  0  0  0  2  0  0  0  0  0  0
  162.7110  207.6160  151.0360 C   0  0  1  0  0  3  0  0  0  0  0  0
  160.5650  206.5740  155.2400 N   0  0  0  0  0  0  0  0  0  0  0  0
  161.5670  207.1830  153.1200 N   0  0  0  0  0  0  0  0  0  0  0  0
  162.4420  206.8350  148.7710 O   0  0  0  0  0  0  0  0  0  0  0  0
  161.7590  207.1340  147.5910 C   0  0  0  0  0  2  0  0  0  0  0  0
  161.5990  204.9100  145.2230 O   0  0  0  0  0  0  0  0  0  0  0  0
  161.5160  204.6750  147.5700 C   0  0  0  0  0  2  0  0  0  0  0  0
  160.8580  205.9750  147.2050 C   0  0  2  0  0  3  0  0  0  0  0  0
  161.6570  203.9580  146.2490 C   0  0  0  0  0  2  0  0  0  0  0  0
  160.7370  205.9100  145.7000 C   0  0  0  0  0  2  0  0  0  0  0  0
  1 18  1  1  0  0  0
  1 26  1  0  0  0  0
  2 27  1  0  0  0  0
  3  7  2  0  0  0  0
  3 16  1  0  0  0  0
  4 15  1  0  0  0  0
  4 23  2  0  0  0  0
  5 19  1  0  0  0  0
  5 15  1  0  0  0  0
  8 12  1  0  0  0  0
  9 13  2  0  0  0  0
  9 27  1  0  0  0  0
 10 17  1  0  0  0  0
 10 22  1  0  0  0  0
 11  5  2  0  0  0  0
 13 20  1  0  0  0  0
 14  2  1  0  0  0  0
 15 12  1  0  0  0  0
 16  8  1  0  0  0  0
 17 28  1  6  0  0  0
 17 25  1  0  0  0  0
 18  4  1  0  0  0  0
 19  3  1  0  0  0  0
 19  6  1  1  0  0  0
 20 11  1  0  0  0  0
 20 18  2  0  0  0  0
 21 23  1  0  0  0  0
 22 24  1  0  0  0  0
 24 13  1  0  0  0  0
 25 14  1  1  0  0  0
 25  9  1  0  0  0  0
 26 21  2  0  0  0  0
 27  1  1  0  0  0  0
 29 28  1  0  0  0  0
 30 34  1  0  0  0  0
 30 33  1  0  0  0  0
 32 31  1  0  0  0  0
 32 29  1  6  0  0  0
 33 31  1  0  0  0  0
 34 32  1  0  0  0  0
M  END
>  <MODEL>
5

>  <REMARK>
 VINA RESULT:      -6.1      2.361      8.734
  Name = 
  3 active torsions:
  status: ('A' for Active; 'I' for Inactive)
    1  A    between atoms: C_17  and  O_28
    2  A    between atoms: O_28  and  C_29
    3  A    between atoms: C_29  and  C_32
                            x       y       z     vdW  Elec       q    Type
                         _______ _______ _______ _____ _____    ______ ____

>  <TORSDO>
F 3

$$$$
=
 OpenBabel11122414173D

 34 40  0  0  1  0  0  0  0  0999 V2000
  162.0990  208.2340  149.5590 C   0  0  2  0  0  3  0  0  0  0  0  0
  161.7720  206.8730  147.4100 C   0  0  0  0  0  2  0  0  0  0  0  0
  161.4110  208.9290  156.0510 C   0  0  0  0  0  0  0  0  0  0  0  0
  161.5730  209.6070  151.6570 C   0  0  0  0  0  0  0  0  0  0  0  0
  160.7160  208.4430  153.6800 C   0  0  0  0  0  0  0  0  0  0  0  0
  159.0340  209.2070  155.3370 C   0  0  0  0  0  1  0  0  0  0  0  0
  161.2400  208.8980  157.2590 O   0  0  0  0  0  0  0  0  0  0  0  0
  162.5710  210.7970  154.8040 C   0  0  0  0  0  2  0  0  0  0  0  0
  160.9640  206.0120  149.4330 C   0  0  0  0  0  0  0  0  0  0  0  0
  161.1950  202.9070  150.0320 C   0  0  0  0  0  2  0  0  0  0  0  0
  160.5640  207.3190  152.9660 C   0  0  0  0  0  3  0  0  0  0  0  0
  161.3860  210.8700  153.8350 C   0  0  0  0  0  2  0  0  0  0  0  0
  160.7440  205.9940  150.7610 C   0  0  0  0  0  0  0  0  0  0  0  0
  161.1770  205.4850  147.1410 C   0  0  0  0  0  2  0  0  0  0  0  0
  161.2470  209.6380  153.0580 N   0  0  0  0  0  0  0  0  0  0  0  0
  162.7160  209.4490  155.5160 C   0  0  0  0  0  2  0  0  0  0  0  0
  161.7600  203.7240  148.8710 C   0  0  2  0  0  3  0  0  0  0  0  0
  161.4970  208.3240  150.9420 C   0  0  0  0  0  0  0  0  0  0  0  0
  160.3210  208.4260  155.1320 C   0  0  2  0  0  3  0  0  0  0  0  0
  160.9630  207.2420  151.5420 C   0  0  0  0  0  0  0  0  0  0  0  0
  161.9760  210.6630  149.4870 C   0  0  0  0  0  3  0  0  0  0  0  0
  161.2940  203.6430  151.3620 C   0  0  0  0  0  2  0  0  0  0  0  0
  161.8090  210.7230  150.9560 C   0  0  0  0  0  3  0  0  0  0  0  0
  160.2550  204.7530  151.4450 C   0  0  0  0  0  2  0  0  0  0  0  0
  160.8020  204.8660  148.4980 C   0  0  1  0  0  3  0  0  0  0  0  0
  162.0480  209.5220  148.8600 N   0  0  0  0  0  0  0  0  0  0  0  0
  161.4520  207.1750  148.7890 N   0  0  0  0  0  0  0  0  0  0  0  0
  161.9470  202.8700  147.7800 O   0  0  0  0  0  0  0  0  0  0  0  0
  161.7450  201.5870  148.2920 C   0  0  0  0  0  2  0  0  0  0  0  0
  160.5660  201.5770  145.2620 O   0  0  0  0  0  0  0  0  0  0  0  0
  161.2060  199.7990  146.6740 C   0  0  0  0  0  2  0  0  0  0  0  0
  160.6330  200.8920  147.5280 C   0  0  2  0  0  3  0  0  0  0  0  0
  160.8300  200.2010  145.2690 C   0  0  0  0  0  2  0  0  0  0  0  0
  160.0320  201.8540  146.5290 C   0  0  0  0  0  2  0  0  0  0  0  0
  1 26  1  6  0  0  0
  1 18  1  0  0  0  0
  2 27  1  0  0  0  0
  3  7  2  0  0  0  0
  4 15  1  0  0  0  0
  5 19  1  0  0  0  0
  8 16  1  0  0  0  0
  9 13  2  0  0  0  0
 10 22  1  0  0  0  0
 11  5  2  0  0  0  0
 12  8  1  0  0  0  0
 13 24  1  0  0  0  0
 13 20  1  0  0  0  0
 14  2  1  0  0  0  0
 15  5  1  0  0  0  0
 15 12  1  0  0  0  0
 16  3  1  0  0  0  0
 17 28  1  6  0  0  0
 17 10  1  0  0  0  0
 18 20  2  0  0  0  0
 18  4  1  0  0  0  0
 19  6  1  6  0  0  0
 19  3  1  0  0  0  0
 20 11  1  0  0  0  0
 21 23  1  0  0  0  0
 22 24  1  0  0  0  0
 23  4  2  0  0  0  0
 25 14  1  6  0  0  0
 25 17  1  0  0  0  0
 25  9  1  0  0  0  0
 26 21  2  0  0  0  0
 27  9  1  0  0  0  0
 27  1  1  0  0  0  0
 28 29  1  0  0  0  0
 30 33  1  0  0  0  0
 30 34  1  0  0  0  0
 31 32  1  0  0  0  0
 32 29  1  6  0  0  0
 33 31  1  0  0  0  0
 34 32  1  0  0  0  0
M  END
>  <MODEL>
6

>  <REMARK>
 VINA RESULT:      -5.7      2.285      9.028
  Name = 
  3 active torsions:
  status: ('A' for Active; 'I' for Inactive)
    1  A    between atoms: C_17  and  O_28
    2  A    between atoms: O_28  and  C_29
    3  A    between atoms: C_29  and  C_32
                            x       y       z     vdW  Elec       q    Type
                         _______ _______ _______ _____ _____    ______ ____

>  <TORSDO>
F 3

$$$$
=
 OpenBabel11122414173D

 34 40  0  0  1  0  0  0  0  0999 V2000
  161.3090  207.5250  148.8450 C   0  0  2  0  0  3  0  0  0  0  0  0
  161.9580  209.9190  149.4980 C   0  0  0  0  0  2  0  0  0  0  0  0
  160.0290  201.2970  150.4800 C   0  0  0  0  0  0  0  0  0  0  0  0
  161.4600  204.9970  148.4650 C   0  0  0  0  0  0  0  0  0  0  0  0
  161.3030  203.4680  150.4200 C   0  0  0  0  0  0  0  0  0  0  0  0
  162.4990  201.3360  150.8470 C   0  0  0  0  0  1  0  0  0  0  0  0
  159.7900  200.1930  150.9410 O   0  0  0  0  0  0  0  0  0  0  0  0
  159.8360  201.9160  148.0360 C   0  0  0  0  0  2  0  0  0  0  0  0
  161.8310  208.2820  151.1680 C   0  0  0  0  0  0  0  0  0  0  0  0
  160.6520  209.0200  154.0170 C   0  0  0  0  0  2  0  0  0  0  0  0
  161.3900  204.5210  151.2460 C   0  0  0  0  0  3  0  0  0  0  0  0
  161.2480  202.5090  148.0870 C   0  0  0  0  0  2  0  0  0  0  0  0
  161.6020  207.0550  151.6720 C   0  0  0  0  0  0  0  0  0  0  0  0
  162.2410  210.5860  150.8500 C   0  0  0  0  0  2  0  0  0  0  0  0
  161.3170  203.6630  148.9850 N   0  0  0  0  0  0  0  0  0  0  0  0
  159.1380  201.8400  149.3970 C   0  0  0  0  0  2  0  0  0  0  0  0
  160.7130  209.8530  152.7380 C   0  0  2  0  0  3  0  0  0  0  0  0
  161.4390  206.1280  149.4050 C   0  0  0  0  0  0  0  0  0  0  0  0
  161.1940  202.0940  151.0230 C   0  0  2  0  0  3  0  0  0  0  0  0
  161.4630  205.9080  150.7340 C   0  0  0  0  0  0  0  0  0  0  0  0
  162.0520  206.6050  146.7190 C   0  0  0  0  0  3  0  0  0  0  0  0
  160.3190  207.5590  153.7430 C   0  0  0  0  0  2  0  0  0  0  0  0
  161.7490  205.2320  147.1780 C   0  0  0  0  0  3  0  0  0  0  0  0
  161.5190  206.8320  153.1520 C   0  0  0  0  0  2  0  0  0  0  0  0
  161.9930  209.5390  151.9490 C   0  0  1  0  0  3  0  0  0  0  0  0
  161.9020  207.6320  147.5080 N   0  0  0  0  0  0  0  0  0  0  0  0
  161.8830  208.5000  149.7690 N   0  0  0  0  0  0  0  0  0  0  0  0
  160.6790  211.2060  153.0900 O   0  0  0  0  0  0  0  0  0  0  0  0
  159.3910  211.6300  152.7550 C   0  0  0  0  0  2  0  0  0  0  0  0
  158.1050  210.9190  155.6560 O   0  0  0  0  0  0  0  0  0  0  0  0
  159.7630  212.4830  155.0440 C   0  0  0  0  0  2  0  0  0  0  0  0
  158.7740  212.3840  153.9190 C   0  0  2  0  0  3  0  0  0  0  0  0
  159.0840  211.7690  156.1880 C   0  0  0  0  0  2  0  0  0  0  0  0
  157.6420  211.5690  154.5020 C   0  0  0  0  0  2  0  0  0  0  0  0
  1 26  1  6  0  0  0
  1 18  1  0  0  0  0
  1 27  1  0  0  0  0
  2 27  1  0  0  0  0
  2 14  1  0  0  0  0
  3  7  2  0  0  0  0
  3 19  1  0  0  0  0
  4 15  1  0  0  0  0
  4 18  1  0  0  0  0
  5 19  1  0  0  0  0
  5 11  2  0  0  0  0
  8 12  1  0  0  0  0
  8 16  1  0  0  0  0
  9 13  2  0  0  0  0
  9 25  1  0  0  0  0
 12 15  1  0  0  0  0
 13 24  1  0  0  0  0
 15  5  1  0  0  0  0
 16  3  1  0  0  0  0
 17 28  1  1  0  0  0
 17 10  1  0  0  0  0
 18 20  2  0  0  0  0
 19  6  1  6  0  0  0
 20 11  1  0  0  0  0
 20 13  1  0  0  0  0
 21 23  1  0  0  0  0
 21 26  2  0  0  0  0
 22 10  1  0  0  0  0
 23  4  2  0  0  0  0
 24 22  1  0  0  0  0
 25 14  1  6  0  0  0
 25 17  1  0  0  0  0
 27  9  1  0  0  0  0
 29 28  1  0  0  0  0
 30 33  1  0  0  0  0
 31 33  1  0  0  0  0
 32 29  1  6  0  0  0
 32 34  1  0  0  0  0
 32 31  1  0  0  0  0
 34 30  1  0  0  0  0
M  END
>  <MODEL>
7

>  <REMARK>
 VINA RESULT:      -5.6      2.312      4.187
  Name = 
  3 active torsions:
  status: ('A' for Active; 'I' for Inactive)
    1  A    between atoms: C_17  and  O_28
    2  A    between atoms: O_28  and  C_29
    3  A    between atoms: C_29  and  C_32
                            x       y       z     vdW  Elec       q    Type
                         _______ _______ _______ _____ _____    ______ ____

>  <TORSDO>
F 3

$$$$
=
 OpenBabel11122414173D

 34 40  0  0  1  0  0  0  0  0999 V2000
  161.3140  207.5670  148.9610 C   0  0  2  0  0  3  0  0  0  0  0  0
  161.9960  209.9370  149.6650 C   0  0  0  0  0  2  0  0  0  0  0  0
  160.0290  201.3040  150.4500 C   0  0  0  0  0  0  0  0  0  0  0  0
  161.4370  205.0500  148.5050 C   0  0  0  0  0  0  0  0  0  0  0  0
  161.3180  203.4670  150.4200 C   0  0  0  0  0  0  0  0  0  0  0  0
  162.5080  201.3160  150.7550 C   0  0  0  0  0  1  0  0  0  0  0  0
  159.7940  200.1880  150.8860 O   0  0  0  0  0  0  0  0  0  0  0  0
  159.7790  201.9930  148.0300 C   0  0  0  0  0  2  0  0  0  0  0  0
  161.9000  208.2540  151.2900 C   0  0  0  0  0  0  0  0  0  0  0  0
  160.7990  208.9180  154.1880 C   0  0  0  0  0  2  0  0  0  0  0  0
  161.4330  204.4950  151.2730 C   0  0  0  0  0  3  0  0  0  0  0  0
  161.1960  202.5750  148.0620 C   0  0  0  0  0  2  0  0  0  0  0  0
  161.6750  207.0140  151.7650 C   0  0  0  0  0  0  0  0  0  0  0  0
  162.3180  210.5630  151.0280 C   0  0  0  0  0  2  0  0  0  0  0  0
  161.2960  203.7030  148.9900 N   0  0  0  0  0  0  0  0  0  0  0  0
  159.1160  201.8830  149.4060 C   0  0  0  0  0  2  0  0  0  0  0  0
  160.8330  209.7860  152.9320 C   0  0  2  0  0  3  0  0  0  0  0  0
  161.4470  206.1540  149.4770 C   0  0  0  0  0  0  0  0  0  0  0  0
  161.2130  202.0770  150.9850 C   0  0  2  0  0  3  0  0  0  0  0  0
  161.5040  205.8960  150.7980 C   0  0  0  0  0  0  0  0  0  0  0  0
  161.9960  206.7030  146.7910 C   0  0  0  0  0  3  0  0  0  0  0  0
  160.4480  207.4680  153.8810 C   0  0  0  0  0  2  0  0  0  0  0  0
  161.6940  205.3200  147.2190 C   0  0  0  0  0  3  0  0  0  0  0  0
  161.6270  206.7500  153.2400 C   0  0  0  0  0  2  0  0  0  0  0  0
  162.0910  209.4870  152.1020 C   0  0  1  0  0  3  0  0  0  0  0  0
  161.8740  207.7080  147.6130 N   0  0  0  0  0  0  0  0  0  0  0  0
  161.9180  208.5110  149.8980 N   0  0  0  0  0  0  0  0  0  0  0  0
  160.8180  211.1290  153.3230 O   0  0  0  0  0  0  0  0  0  0  0  0
  159.5230  211.3480  153.8000 C   0  0  0  0  0  2  0  0  0  0  0  0
  158.0310  214.1790  153.2250 O   0  0  0  0  0  0  0  0  0  0  0  0
  159.4870  212.9010  151.8790 C   0  0  0  0  0  2  0  0  0  0  0  0
  158.6650  211.9570  152.7060 C   0  0  2  0  0  3  0  0  0  0  0  0
  158.7970  214.2320  152.0530 C   0  0  0  0  0  2  0  0  0  0  0  0
  157.6120  212.8450  153.3290 C   0  0  0  0  0  2  0  0  0  0  0  0
  1 26  1  6  0  0  0
  1 18  1  0  0  0  0
  1 27  1  0  0  0  0
  2 27  1  0  0  0  0
  2 14  1  0  0  0  0
  3  7  2  0  0  0  0
  3 19  1  0  0  0  0
  4 15  1  0  0  0  0
  4 18  1  0  0  0  0
  5 19  1  0  0  0  0
  5 11  2  0  0  0  0
  8 12  1  0  0  0  0
  8 16  1  0  0  0  0
  9 13  2  0  0  0  0
  9 25  1  0  0  0  0
 12 15  1  0  0  0  0
 13 24  1  0  0  0  0
 15  5  1  0  0  0  0
 16  3  1  0  0  0  0
 17 28  1  1  0  0  0
 17 10  1  0  0  0  0
 18 20  2  0  0  0  0
 19  6  1  6  0  0  0
 20 11  1  0  0  0  0
 20 13  1  0  0  0  0
 21 23  1  0  0  0  0
 21 26  2  0  0  0  0
 22 10  1  0  0  0  0
 23  4  2  0  0  0  0
 24 22  1  0  0  0  0
 25 14  1  6  0  0  0
 25 17  1  0  0  0  0
 27  9  1  0  0  0  0
 28 29  1  0  0  0  0
 30 34  1  0  0  0  0
 31 33  1  0  0  0  0
 31 32  1  0  0  0  0
 32 34  1  0  0  0  0
 32 29  1  1  0  0  0
 33 30  1  0  0  0  0
M  END
>  <MODEL>
8

>  <REMARK>
 VINA RESULT:      -5.5      2.661      4.504
  Name = 
  3 active torsions:
  status: ('A' for Active; 'I' for Inactive)
    1  A    between atoms: C_17  and  O_28
    2  A    between atoms: O_28  and  C_29
    3  A    between atoms: C_29  and  C_32
                            x       y       z     vdW  Elec       q    Type
                         _______ _______ _______ _____ _____    ______ ____

>  <TORSDO>
F 3

$$$$
