=
 OpenBabel11122414073D

 28 32  0  0  1  0  0  0  0  0999 V2000
  160.9810  208.8670  155.9970 C   0  0  0  0  0  0  0  0  0  0  0  0
  157.4960  211.0720  153.1600 F   0  0  0  0  0  0  0  0  0  0  0  0
  162.7650  207.8050  151.8690 O   0  0  0  0  0  0  0  0  0  0  0  0
  163.0600  210.7400  156.1520 C   0  0  0  0  0  3  0  0  0  0  0  0
  161.8070  209.9850  151.4660 C   0  0  1  0  0  3  0  0  0  0  0  0
  159.9350  207.8010  155.9020 C   0  0  0  0  0  2  0  0  0  0  0  0
  157.7110  212.3300  155.0260 O   0  0  0  0  0  1  0  0  0  0  0  0
  158.2430  212.0780  153.7610 C   0  0  1  0  0  0  0  0  0  0  0  0
  158.8440  213.1060  151.6270 C   0  0  1  0  0  3  0  0  0  0  0  0
  159.6720  211.7020  153.9050 N   0  0  2  0  0  0  0  0  0  0  0  0
  161.5810  205.3170  153.8860 O   0  0  0  0  0  0  0  0  0  0  0  0
  159.8500  209.5170  152.8940 C   0  0  1  0  0  3  0  0  0  0  0  0
  160.2150  212.9970  151.9000 O   0  0  0  0  0  0  0  0  0  0  0  0
  158.0930  213.3340  152.9210 C   0  0  0  0  0  2  0  0  0  0  0  0
  160.8110  206.2750  154.1530 C   0  0  0  0  0  0  0  0  0  0  0  0
  160.9410  210.0210  155.1850 C   0  0  0  0  0  0  0  0  0  0  0  0
  161.8490  208.6420  152.0850 C   0  0  0  0  0  0  0  0  0  0  0  0
  158.6100  214.2780  150.6970 C   0  0  0  0  0  1  0  0  0  0  0  0
  160.1740  207.0270  153.0300 C   0  0  0  0  0  2  0  0  0  0  0  0
  161.9990  210.9430  155.2690 C   0  0  0  0  0  3  0  0  0  0  0  0
  162.0470  208.6750  156.8860 C   0  0  0  0  0  3  0  0  0  0  0  0
  163.0810  209.6080  156.9660 C   0  0  0  0  0  3  0  0  0  0  0  0
  160.5380  206.5780  155.4910 O   0  0  0  0  0  0  0  0  0  0  0  0
  160.4150  210.5140  151.8830 C   0  0  1  0  0  3  0  0  0  0  0  0
  160.7330  208.3650  152.9100 N   0  0  0  0  0  0  0  0  0  0  0  0
  160.4560  211.8250  152.6580 C   0  0  2  0  0  3  0  0  0  0  0  0
  162.8480  210.7650  151.9780 O   0  0  0  0  0  1  0  0  0  0  0  0
  159.7790  210.2750  154.2370 C   0  0  1  0  0  3  0  0  0  0  0  0
  1 21  1  0  0  0  0
  3 17  2  0  0  0  0
  4 22  1  0  0  0  0
  5 24  1  0  0  0  0
  5 27  1  1  0  0  0
  5 17  1  0  0  0  0
  6  1  1  0  0  0  0
  8  2  1  6  0  0  0
  8 10  1  0  0  0  0
  8  7  1  0  0  0  0
  9 18  1  6  0  0  0
  9 13  1  0  0  0  0
  9 14  1  0  0  0  0
 10 28  1  0  0  0  0
 11 15  2  0  0  0  0
 12 25  1  0  0  0  0
 12 28  1  0  0  0  0
 13 26  1  0  0  0  0
 14  8  1  0  0  0  0
 15 23  1  0  0  0  0
 16 20  1  0  0  0  0
 16  1  2  0  0  0  0
 17 25  1  0  0  0  0
 19 15  1  0  0  0  0
 20  4  2  0  0  0  0
 21 22  2  0  0  0  0
 23  6  1  0  0  0  0
 24 26  1  0  0  0  0
 24 12  1  0  0  0  0
 25 19  1  0  0  0  0
 26 10  1  0  0  0  0
 28 16  1  0  0  0  0
M  END
>  <MODEL>
1

>  <REMARK>
 VINA RESULT:      -2.6      0.000      0.000
  Name = 
  0 active torsions:
  status: ('A' for Active; 'I' for Inactive)
                            x       y       z     vdW  Elec       q    Type
                         _______ _______ _______ _____ _____    ______ ____

>  <TORSDO>
F 0

$$$$
=
 OpenBabel11122414073D

 28 32  0  0  1  0  0  0  0  0999 V2000
  161.0960  209.1000  156.6000 C   0  0  0  0  0  0  0  0  0  0  0  0
  156.5040  210.4370  155.1220 F   0  0  0  0  0  0  0  0  0  0  0  0
  161.9380  209.3330  152.0620 O   0  0  0  0  0  0  0  0  0  0  0  0
  162.5230  211.5080  156.7510 C   0  0  0  0  0  3  0  0  0  0  0  0
  160.3310  211.1090  152.3760 C   0  0  1  0  0  3  0  0  0  0  0  0
  160.4090  207.7770  156.4790 C   0  0  0  0  0  2  0  0  0  0  0  0
  156.8440  211.3930  157.1420 O   0  0  0  0  0  1  0  0  0  0  0  0
  157.0680  211.5290  155.7720 C   0  0  1  0  0  0  0  0  0  0  0  0
  156.7610  213.0120  153.8530 C   0  0  1  0  0  3  0  0  0  0  0  0
  158.5290  211.6280  155.5280 N   0  0  2  0  0  0  0  0  0  0  0  0
  162.0900  206.3160  153.6530 O   0  0  0  0  0  0  0  0  0  0  0  0
  159.0420  209.8070  154.0290 C   0  0  1  0  0  3  0  0  0  0  0  0
  158.1280  213.3210  153.8060 O   0  0  0  0  0  0  0  0  0  0  0  0
  156.3510  212.7780  155.2910 C   0  0  0  0  0  2  0  0  0  0  0  0
  161.1810  206.9130  154.2860 C   0  0  0  0  0  0  0  0  0  0  0  0
  160.5160  210.2860  156.1000 C   0  0  0  0  0  0  0  0  0  0  0  0
  160.9150  209.7780  152.6480 C   0  0  0  0  0  0  0  0  0  0  0  0
  155.9650  214.1680  153.2860 C   0  0  0  0  0  1  0  0  0  0  0  0
  160.0810  207.5750  153.5200 C   0  0  0  0  0  2  0  0  0  0  0  0
  161.2520  211.4820  156.1750 C   0  0  0  0  0  3  0  0  0  0  0  0
  162.3700  209.1370  157.1820 C   0  0  0  0  0  3  0  0  0  0  0  0
  163.0800  210.3360  157.2610 C   0  0  0  0  0  3  0  0  0  0  0  0
  161.2010  206.9000  155.6840 O   0  0  0  0  0  0  0  0  0  0  0  0
  159.0100  211.0780  153.1800 C   0  0  1  0  0  3  0  0  0  0  0  0
  160.1850  209.0240  153.5980 N   0  0  0  0  0  0  0  0  0  0  0  0
  158.8840  212.1940  154.2100 C   0  0  2  0  0  3  0  0  0  0  0  0
  161.2060  212.1010  152.8280 O   0  0  0  0  0  1  0  0  0  0  0  0
  159.1200  210.2840  155.4950 C   0  0  1  0  0  3  0  0  0  0  0  0
  1 21  1  0  0  0  0
  3 17  2  0  0  0  0
  4 22  1  0  0  0  0
  5 17  1  0  0  0  0
  5 27  1  1  0  0  0
  5 24  1  0  0  0  0
  6  1  1  0  0  0  0
  8  2  1  6  0  0  0
  8  7  1  0  0  0  0
  9 18  1  1  0  0  0
  9 14  1  0  0  0  0
 10  8  1  0  0  0  0
 11 15  2  0  0  0  0
 12 28  1  0  0  0  0
 13  9  1  0  0  0  0
 13 26  1  0  0  0  0
 14  8  1  0  0  0  0
 15 23  1  0  0  0  0
 16 20  1  0  0  0  0
 16  1  2  0  0  0  0
 17 25  1  0  0  0  0
 19 25  1  0  0  0  0
 19 15  1  0  0  0  0
 20  4  2  0  0  0  0
 21 22  2  0  0  0  0
 23  6  1  0  0  0  0
 24 12  1  0  0  0  0
 24 26  1  0  0  0  0
 25 12  1  0  0  0  0
 26 10  1  0  0  0  0
 28 10  1  0  0  0  0
 28 16  1  0  0  0  0
M  END
>  <MODEL>
2

>  <REMARK>
 VINA RESULT:      -2.2      1.491      1.884
  Name = 
  0 active torsions:
  status: ('A' for Active; 'I' for Inactive)
                            x       y       z     vdW  Elec       q    Type
                         _______ _______ _______ _____ _____    ______ ____

>  <TORSDO>
F 0

$$$$
=
 OpenBabel11122414073D

 28 32  0  0  1  0  0  0  0  0999 V2000
  161.3550  210.1650  156.5890 C   0  0  0  0  0  0  0  0  0  0  0  0
  157.7660  212.2020  153.7550 F   0  0  0  0  0  0  0  0  0  0  0  0
  161.4650  207.1000  153.1340 O   0  0  0  0  0  0  0  0  0  0  0  0
  163.7520  211.1280  155.4990 C   0  0  0  0  0  3  0  0  0  0  0  0
  160.9590  209.1570  151.9750 C   0  0  1  0  0  3  0  0  0  0  0  0
  160.1160  209.5690  157.1780 C   0  0  0  0  0  2  0  0  0  0  0  0
  158.8370  213.9090  154.7800 O   0  0  0  0  0  1  0  0  0  0  0  0
  158.8740  213.0380  153.6910 C   0  0  1  0  0  0  0  0  0  0  0  0
  158.9980  212.9230  151.2530 C   0  0  1  0  0  3  0  0  0  0  0  0
  160.1490  212.2780  153.7240 N   0  0  2  0  0  0  0  0  0  0  0  0
  160.4300  206.1110  156.2340 O   0  0  0  0  0  0  0  0  0  0  0  0
  159.4940  209.9560  153.7920 C   0  0  1  0  0  3  0  0  0  0  0  0
  160.3220  212.4610  151.2890 O   0  0  0  0  0  0  0  0  0  0  0  0
  158.7630  213.8590  152.4180 C   0  0  0  0  0  2  0  0  0  0  0  0
  160.0250  207.3000  156.1770 C   0  0  0  0  0  0  0  0  0  0  0  0
  161.3310  210.8720  155.3670 C   0  0  0  0  0  0  0  0  0  0  0  0
  160.8820  208.2160  153.1130 C   0  0  0  0  0  0  0  0  0  0  0  0
  158.7620  213.6670  149.9550 C   0  0  0  0  0  1  0  0  0  0  0  0
  159.2600  207.7480  154.9730 C   0  0  0  0  0  2  0  0  0  0  0  0
  162.5450  211.3360  154.8310 C   0  0  0  0  0  3  0  0  0  0  0  0
  162.5710  209.9660  157.2560 C   0  0  0  0  0  3  0  0  0  0  0  0
  163.7640  210.4470  156.7160 C   0  0  0  0  0  3  0  0  0  0  0  0
  160.2620  208.1540  157.2590 O   0  0  0  0  0  0  0  0  0  0  0  0
  159.9280  210.2460  152.3560 C   0  0  1  0  0  3  0  0  0  0  0  0
  160.0460  208.6660  154.1630 N   0  0  0  0  0  0  0  0  0  0  0  0
  160.5110  211.6510  152.4350 C   0  0  2  0  0  3  0  0  0  0  0  0
  162.2580  209.6650  151.8800 O   0  0  0  0  0  1  0  0  0  0  0  0
  160.0220  211.1340  154.6370 C   0  0  1  0  0  3  0  0  0  0  0  0
  1  6  1  0  0  0  0
  1 21  1  0  0  0  0
  4 22  1  0  0  0  0
  5 27  1  1  0  0  0
  5 24  1  0  0  0  0
  5 17  1  0  0  0  0
  6 23  1  0  0  0  0
  8 10  1  0  0  0  0
  8  2  1  1  0  0  0
  8  7  1  0  0  0  0
  9 18  1  6  0  0  0
  9 13  1  0  0  0  0
  9 14  1  0  0  0  0
 10 28  1  0  0  0  0
 12 25  1  0  0  0  0
 12 28  1  0  0  0  0
 13 26  1  0  0  0  0
 14  8  1  0  0  0  0
 15 11  2  0  0  0  0
 15 23  1  0  0  0  0
 16  1  2  0  0  0  0
 17  3  2  0  0  0  0
 17 25  1  0  0  0  0
 19 15  1  0  0  0  0
 20 16  1  0  0  0  0
 20  4  2  0  0  0  0
 22 21  2  0  0  0  0
 24 26  1  0  0  0  0
 24 12  1  0  0  0  0
 25 19  1  0  0  0  0
 26 10  1  0  0  0  0
 28 16  1  0  0  0  0
M  END
>  <MODEL>
3

>  <REMARK>
 VINA RESULT:      -0.7      1.208      1.478
  Name = 
  0 active torsions:
  status: ('A' for Active; 'I' for Inactive)
                            x       y       z     vdW  Elec       q    Type
                         _______ _______ _______ _____ _____    ______ ____

>  <TORSDO>
F 0

$$$$
=
 OpenBabel11122414073D

 28 32  0  0  1  0  0  0  0  0999 V2000
  157.2380  212.3650  153.1340 C   0  0  0  0  0  0  0  0  0  0  0  0
  159.2910  208.5650  155.6660 F   0  0  0  0  0  0  0  0  0  0  0  0
  157.5590  214.4470  157.2460 O   0  0  0  0  0  0  0  0  0  0  0  0
  159.4060  213.9860  152.4060 C   0  0  0  0  0  3  0  0  0  0  0  0
  159.5310  213.0540  157.2250 C   0  0  1  0  0  3  0  0  0  0  0  0
  156.0350  211.5770  153.5450 C   0  0  0  0  0  2  0  0  0  0  0  0
  160.0920  208.4520  153.5550 O   0  0  0  0  0  1  0  0  0  0  0  0
  160.2580  209.0600  154.8000 C   0  0  1  0  0  0  0  0  0  0  0  0
  161.8570  209.4840  156.5990 C   0  0  1  0  0  3  0  0  0  0  0  0
  160.1570  210.5320  154.6350 N   0  0  2  0  0  0  0  0  0  0  0  0
  154.4810  213.7740  155.9320 O   0  0  0  0  0  0  0  0  0  0  0  0
  158.3530  211.2050  156.0910 C   0  0  1  0  0  3  0  0  0  0  0  0
  161.9680  210.8380  156.2530 O   0  0  0  0  0  0  0  0  0  0  0  0
  161.6180  208.6670  155.3480 C   0  0  0  0  0  2  0  0  0  0  0  0
  155.1720  212.8080  155.5170 C   0  0  0  0  0  0  0  0  0  0  0  0
  158.5180  212.0990  153.6690 C   0  0  0  0  0  0  0  0  0  0  0  0
  158.1180  213.3670  156.9190 C   0  0  0  0  0  0  0  0  0  0  0  0
  163.1420  209.0270  157.2590 C   0  0  0  0  0  1  0  0  0  0  0  0
  156.0200  212.0550  156.4900 C   0  0  0  0  0  2  0  0  0  0  0  0
  159.5900  212.9300  153.3000 C   0  0  0  0  0  3  0  0  0  0  0  0
  157.0650  213.4220  152.2320 C   0  0  0  0  0  3  0  0  0  0  0  0
  158.1440  214.2280  151.8670 C   0  0  0  0  0  3  0  0  0  0  0  0
  155.0910  212.4400  154.1710 O   0  0  0  0  0  0  0  0  0  0  0  0
  159.6530  211.5690  156.8080 C   0  0  1  0  0  3  0  0  0  0  0  0
  157.4340  212.3150  156.2660 N   0  0  0  0  0  0  0  0  0  0  0  0
  160.7260  211.3050  155.7590 C   0  0  2  0  0  3  0  0  0  0  0  0
  160.3650  213.8880  156.4740 O   0  0  0  0  0  1  0  0  0  0  0  0
  158.7450  210.9350  154.6230 C   0  0  1  0  0  3  0  0  0  0  0  0
  1  6  1  0  0  0  0
  1 16  1  0  0  0  0
  4 20  1  0  0  0  0
  5 27  1  6  0  0  0
  6 23  1  0  0  0  0
  8  7  1  6  0  0  0
  8 14  1  0  0  0  0
  8  2  1  0  0  0  0
  9 18  1  6  0  0  0
 10  8  1  0  0  0  0
 10 26  1  0  0  0  0
 12 25  1  0  0  0  0
 12 24  1  0  0  0  0
 13  9  1  0  0  0  0
 14  9  1  0  0  0  0
 15 11  2  0  0  0  0
 15 19  1  0  0  0  0
 16 28  1  0  0  0  0
 17  5  1  0  0  0  0
 17  3  2  0  0  0  0
 20 16  2  0  0  0  0
 21  1  2  0  0  0  0
 22 21  1  0  0  0  0
 22  4  2  0  0  0  0
 23 15  1  0  0  0  0
 24  5  1  0  0  0  0
 25 19  1  0  0  0  0
 25 17  1  0  0  0  0
 26 13  1  0  0  0  0
 26 24  1  0  0  0  0
 28 10  1  0  0  0  0
 28 12  1  0  0  0  0
M  END
>  <MODEL>
4

>  <REMARK>
 VINA RESULT:      -0.2      2.556      6.522
  Name = 
  0 active torsions:
  status: ('A' for Active; 'I' for Inactive)
                            x       y       z     vdW  Elec       q    Type
                         _______ _______ _______ _____ _____    ______ ____

>  <TORSDO>
F 0

$$$$
