=
 OpenBabel11122412343D

 30 35  0  0  1  0  0  0  0  0999 V2000
  161.2140  206.2000  149.6060 C   0  0  1  0  0  3  0  0  0  0  0  0
  161.3130  203.5700  149.2070 C   0  0  0  0  0  0  0  0  0  0  0  0
  161.3150  205.5930  153.8610 C   0  0  0  0  0  2  0  0  0  0  0  0
  161.5390  207.1850  150.7410 C   0  0  1  0  0  3  0  0  0  0  0  0
  162.1890  206.3330  148.6000 O   0  0  0  0  0  0  0  0  0  0  0  0
  161.9540  209.8920  148.3170 O   0  0  0  0  0  0  0  0  0  0  0  0
  160.4390  210.0280  151.9080 C   0  0  1  0  0  3  0  0  0  0  0  0
  161.8180  208.7360  148.8030 C   0  0  0  0  0  0  0  0  0  0  0  0
  160.2410  209.1450  153.1500 C   0  0  2  0  0  3  0  0  0  0  0  0
  161.2950  207.0370  154.1450 C   0  0  0  0  0  0  0  0  0  0  0  0
  161.9310  207.5360  147.8940 C   0  0  2  0  0  3  0  0  0  0  0  0
  161.5380  208.5590  150.2060 N   0  0  0  0  0  0  0  0  0  0  0  0
  161.1060  202.3420  149.6950 C   0  0  0  0  0  3  0  0  0  0  0  0
  160.7470  209.9900  154.2710 C   0  0  0  0  0  2  0  0  0  0  0  0
  160.5230  211.4440  152.4650 C   0  0  0  0  0  2  0  0  0  0  0  0
  161.7930  203.7060  147.8000 C   0  0  0  0  0  1  0  0  0  0  0  0
  160.6750  205.5070  152.4780 C   0  0  1  0  0  3  0  0  0  0  0  0
  160.5870  202.1730  151.0950 C   0  0  0  0  0  2  0  0  0  0  0  0
  161.0230  204.7530  150.1100 C   0  0  1  0  0  3  0  0  0  0  0  0
  160.5760  206.9620  151.9230 C   0  0  1  0  0  3  0  0  0  0  0  0
  161.6060  207.5110  155.2690 O   0  0  0  0  0  0  0  0  0  0  0  0
  160.9020  207.8400  153.0370 N   0  0  0  0  0  0  0  0  0  0  0  0
  160.8860  211.2530  153.8960 C   0  0  0  0  0  2  0  0  0  0  0  0
  163.0100  209.6720  151.8590 C   0  0  0  0  0  1  0  0  0  0  0  0
  161.3520  203.0860  152.0590 C   0  0  0  0  0  2  0  0  0  0  0  0
  161.4620  204.5470  151.5720 C   0  0  2  0  0  3  0  0  0  0  0  0
  161.7000  209.7260  151.0740 C   0  0  2  0  0  3  0  0  0  0  0  0
  160.7160  207.4170  146.9780 C   0  0  0  0  0  2  0  0  0  0  0  0
  159.9830  206.4140  144.9640 F   0  0  0  0  0  0  0  0  0  0  0  0
  160.9280  206.3080  145.9660 C   0  0  0  0  0  2  0  0  0  0  0  0
  1  5  1  6  0  0  0
  1 19  1  0  0  0  0
  1  4  1  0  0  0  0
  2 13  2  0  0  0  0
  3 10  1  0  0  0  0
  4 12  1  6  0  0  0
  4 20  1  0  0  0  0
  6  8  2  0  0  0  0
  7 15  1  1  0  0  0
  7  9  1  0  0  0  0
  8 12  1  0  0  0  0
  9 14  1  1  0  0  0
 10 21  2  0  0  0  0
 11 28  1  1  0  0  0
 11  5  1  0  0  0  0
 11  8  1  0  0  0  0
 12 27  1  0  0  0  0
 13 18  1  0  0  0  0
 15 23  1  0  0  0  0
 16  2  1  0  0  0  0
 17  3  1  1  0  0  0
 18 25  1  0  0  0  0
 19  2  1  6  0  0  0
 19 26  1  0  0  0  0
 20 17  1  0  0  0  0
 20 22  1  1  0  0  0
 22  9  1  0  0  0  0
 22 10  1  0  0  0  0
 23 14  1  0  0  0  0
 26 25  1  1  0  0  0
 26 17  1  0  0  0  0
 27 24  1  1  0  0  0
 27  7  1  0  0  0  0
 29 30  1  0  0  0  0
 30 28  1  0  0  0  0
M  END
>  <MODEL>
1

>  <REMARK>
 VINA RESULT:      -8.2      0.000      0.000
  Name = 
  2 active torsions:
  status: ('A' for Active; 'I' for Inactive)
    1  A    between atoms: C_11  and  C_28
    2  A    between atoms: C_28  and  C_30
                            x       y       z     vdW  Elec       q    Type
                         _______ _______ _______ _____ _____    ______ ____

>  <TORSDO>
F 2

$$$$
=
 OpenBabel11122412343D

 30 35  0  0  1  0  0  0  0  0999 V2000
  161.4230  208.0200  149.7410 C   0  0  1  0  0  3  0  0  0  0  0  0
  161.6290  205.7630  148.3470 C   0  0  0  0  0  0  0  0  0  0  0  0
  161.2330  205.7820  153.4060 C   0  0  0  0  0  2  0  0  0  0  0  0
  161.6350  208.4770  151.1940 C   0  0  1  0  0  3  0  0  0  0  0  0
  162.4640  208.5390  148.9480 O   0  0  0  0  0  0  0  0  0  0  0  0
  162.1440  211.9200  150.0730 O   0  0  0  0  0  0  0  0  0  0  0  0
  160.3700  210.6280  153.2960 C   0  0  1  0  0  3  0  0  0  0  0  0
  162.0070  210.6670  150.0520 C   0  0  0  0  0  0  0  0  0  0  0  0
  160.1090  209.3270  154.0710 C   0  0  2  0  0  3  0  0  0  0  0  0
  161.1490  206.9960  154.2340 C   0  0  0  0  0  0  0  0  0  0  0  0
  162.2220  209.9230  148.7550 C   0  0  2  0  0  3  0  0  0  0  0  0
  161.6320  209.9500  151.2450 N   0  0  0  0  0  0  0  0  0  0  0  0
  161.4240  204.4420  148.2940 C   0  0  0  0  0  3  0  0  0  0  0  0
  160.5060  209.6590  155.4700 C   0  0  0  0  0  2  0  0  0  0  0  0
  160.3710  211.7090  154.3710 C   0  0  0  0  0  2  0  0  0  0  0  0
  162.2060  206.4430  147.1500 C   0  0  0  0  0  1  0  0  0  0  0  0
  160.6980  206.2500  152.0560 C   0  0  1  0  0  3  0  0  0  0  0  0
  160.8100  203.7340  149.4680 C   0  0  0  0  0  2  0  0  0  0  0  0
  161.2390  206.4920  149.6180 C   0  0  1  0  0  3  0  0  0  0  0  0
  160.5970  207.8060  152.1140 C   0  0  1  0  0  3  0  0  0  0  0  0
  161.3640  206.9870  155.4750 O   0  0  0  0  0  0  0  0  0  0  0  0
  160.8150  208.1720  153.5050 N   0  0  0  0  0  0  0  0  0  0  0  0
  160.6340  210.9670  155.6350 C   0  0  0  0  0  2  0  0  0  0  0  0
  162.9460  210.3170  153.3130 C   0  0  0  0  0  1  0  0  0  0  0  0
  161.4760  204.1900  150.7710 C   0  0  0  0  0  2  0  0  0  0  0  0
  161.5770  205.7250  150.9090 C   0  0  2  0  0  3  0  0  0  0  0  0
  161.6960  210.6790  152.5130 C   0  0  2  0  0  3  0  0  0  0  0  0
  161.0810  210.1780  147.7750 C   0  0  0  0  0  2  0  0  0  0  0  0
  159.9300  211.8960  146.6240 F   0  0  0  0  0  0  0  0  0  0  0  0
  161.0920  211.6240  147.3210 C   0  0  0  0  0  2  0  0  0  0  0  0
  1  5  1  6  0  0  0
  1  4  1  0  0  0  0
  3 10  1  0  0  0  0
  4 12  1  6  0  0  0
  4 20  1  0  0  0  0
  7  9  1  0  0  0  0
  7 15  1  1  0  0  0
  8  6  2  0  0  0  0
  8 12  1  0  0  0  0
  9 14  1  1  0  0  0
 10 21  2  0  0  0  0
 11 28  1  6  0  0  0
 11  5  1  0  0  0  0
 11  8  1  0  0  0  0
 12 27  1  0  0  0  0
 13  2  2  0  0  0  0
 13 18  1  0  0  0  0
 14 23  1  0  0  0  0
 15 23  1  0  0  0  0
 16  2  1  0  0  0  0
 17 20  1  0  0  0  0
 17  3  1  1  0  0  0
 18 25  1  0  0  0  0
 19  2  1  6  0  0  0
 19  1  1  0  0  0  0
 19 26  1  0  0  0  0
 20 22  1  1  0  0  0
 22  9  1  0  0  0  0
 22 10  1  0  0  0  0
 26 25  1  6  0  0  0
 26 17  1  0  0  0  0
 27  7  1  0  0  0  0
 27 24  1  1  0  0  0
 29 30  1  0  0  0  0
 30 28  1  0  0  0  0
M  END
>  <MODEL>
2

>  <REMARK>
 VINA RESULT:      -5.9      1.718      2.286
  Name = 
  2 active torsions:
  status: ('A' for Active; 'I' for Inactive)
    1  A    between atoms: C_11  and  C_28
    2  A    between atoms: C_28  and  C_30
                            x       y       z     vdW  Elec       q    Type
                         _______ _______ _______ _____ _____    ______ ____

>  <TORSDO>
F 2

$$$$
=
 OpenBabel11122412343D

 30 35  0  0  1  0  0  0  0  0999 V2000
  161.3170  207.3810  151.4510 C   0  0  1  0  0  3  0  0  0  0  0  0
  161.9120  209.9290  150.9660 C   0  0  0  0  0  0  0  0  0  0  0  0
  162.2350  206.3540  147.3790 C   0  0  0  0  0  2  0  0  0  0  0  0
  161.6020  206.0110  150.8140 C   0  0  1  0  0  3  0  0  0  0  0  0
  162.0640  207.4910  152.6390 O   0  0  0  0  0  0  0  0  0  0  0  0
  161.0270  204.3600  154.0260 O   0  0  0  0  0  0  0  0  0  0  0  0
  160.1220  203.1270  150.4390 C   0  0  1  0  0  3  0  0  0  0  0  0
  161.2230  205.2610  153.1660 C   0  0  0  0  0  0  0  0  0  0  0  0
  160.3230  203.5070  148.9640 C   0  0  2  0  0  3  0  0  0  0  0  0
  161.9510  204.9260  147.5940 C   0  0  0  0  0  0  0  0  0  0  0  0
  161.4430  206.6830  153.6260 C   0  0  2  0  0  3  0  0  0  0  0  0
  161.2190  204.9470  151.7600 N   0  0  0  0  0  0  0  0  0  0  0  0
  162.0560  210.9060  150.0640 C   0  0  0  0  0  3  0  0  0  0  0  0
  160.8100  202.2460  148.3340 C   0  0  0  0  0  2  0  0  0  0  0  0
  159.9890  201.6080  150.4190 C   0  0  0  0  0  2  0  0  0  0  0  0
  162.1170  210.2550  152.4080 C   0  0  0  0  0  1  0  0  0  0  0  0
  161.4130  207.0350  148.4700 C   0  0  1  0  0  3  0  0  0  0  0  0
  161.8190  210.6200  148.6080 C   0  0  0  0  0  2  0  0  0  0  0  0
  161.5250  208.5510  150.4650 C   0  0  1  0  0  3  0  0  0  0  0  0
  160.9150  205.9170  149.4380 C   0  0  1  0  0  3  0  0  0  0  0  0
  162.3310  204.0310  146.7930 O   0  0  0  0  0  0  0  0  0  0  0  0
  161.2210  204.6530  148.7840 N   0  0  0  0  0  0  0  0  0  0  0  0
  160.6120  201.2040  149.1280 C   0  0  0  0  0  2  0  0  0  0  0  0
  162.6660  203.1050  150.9520 C   0  0  0  0  0  1  0  0  0  0  0  0
  162.5170  209.3170  148.2040 C   0  0  0  0  0  2  0  0  0  0  0  0
  162.2300  208.1380  149.1600 C   0  0  2  0  0  3  0  0  0  0  0  0
  161.2660  203.5310  151.3890 C   0  0  2  0  0  3  0  0  0  0  0  0
  160.1490  207.3030  154.1470 C   0  0  0  0  0  2  0  0  0  0  0  0
  158.9950  206.9730  156.1860 F   0  0  0  0  0  0  0  0  0  0  0  0
  160.1930  207.4140  155.6580 C   0  0  0  0  0  2  0  0  0  0  0  0
  1  5  1  1  0  0  0
  2 16  1  0  0  0  0
  3 10  1  0  0  0  0
  4  1  1  0  0  0  0
  4 12  1  1  0  0  0
  5 11  1  0  0  0  0
  7 15  1  6  0  0  0
  7 27  1  0  0  0  0
  8 11  1  0  0  0  0
  8  6  2  0  0  0  0
  9 14  1  6  0  0  0
  9  7  1  0  0  0  0
 10 22  1  0  0  0  0
 11 28  1  6  0  0  0
 12  8  1  0  0  0  0
 13  2  2  0  0  0  0
 14 23  1  0  0  0  0
 17  3  1  6  0  0  0
 17 26  1  0  0  0  0
 17 20  1  0  0  0  0
 18 13  1  0  0  0  0
 19  2  1  1  0  0  0
 19  1  1  0  0  0  0
 20 22  1  6  0  0  0
 20  4  1  0  0  0  0
 21 10  2  0  0  0  0
 22  9  1  0  0  0  0
 23 15  1  0  0  0  0
 25 18  1  0  0  0  0
 26 25  1  6  0  0  0
 26 19  1  0  0  0  0
 27 24  1  6  0  0  0
 27 12  1  0  0  0  0
 28 30  1  0  0  0  0
 30 29  1  0  0  0  0
M  END
>  <MODEL>
3

>  <REMARK>
 VINA RESULT:      -5.8      2.811      7.134
  Name = 
  2 active torsions:
  status: ('A' for Active; 'I' for Inactive)
    1  A    between atoms: C_11  and  C_28
    2  A    between atoms: C_28  and  C_30
                            x       y       z     vdW  Elec       q    Type
                         _______ _______ _______ _____ _____    ______ ____

>  <TORSDO>
F 2

$$$$
=
 OpenBabel11122412343D

 30 35  0  0  1  0  0  0  0  0999 V2000
  161.1870  203.8070  148.1800 C   0  0  1  0  0  3  0  0  0  0  0  0
  160.7350  201.2980  148.9410 C   0  0  0  0  0  0  0  0  0  0  0  0
  161.4690  205.0400  152.2890 C   0  0  0  0  0  2  0  0  0  0  0  0
  161.7810  205.0870  148.7930 C   0  0  1  0  0  3  0  0  0  0  0  0
  162.0940  203.2970  147.2330 O   0  0  0  0  0  0  0  0  0  0  0  0
  162.5490  206.3690  145.4550 O   0  0  0  0  0  0  0  0  0  0  0  0
  161.3520  208.3170  148.6140 C   0  0  1  0  0  3  0  0  0  0  0  0
  162.2220  205.5820  146.3850 C   0  0  0  0  0  0  0  0  0  0  0  0
  161.0730  208.1020  150.1100 C   0  0  2  0  0  3  0  0  0  0  0  0
  161.7560  206.4390  151.9300 C   0  0  0  0  0  0  0  0  0  0  0  0
  162.0300  204.1160  146.0760 C   0  0  2  0  0  3  0  0  0  0  0  0
  162.0130  206.0740  147.7230 N   0  0  0  0  0  0  0  0  0  0  0  0
  160.3240  200.4630  149.9020 C   0  0  0  0  0  3  0  0  0  0  0  0
  161.8140  209.2130  150.7740 C   0  0  0  0  0  2  0  0  0  0  0  0
  161.7540  209.7840  148.5160 C   0  0  0  0  0  2  0  0  0  0  0  0
  161.1300  200.7250  147.6210 C   0  0  0  0  0  1  0  0  0  0  0  0
  160.7280  204.5170  151.0610 C   0  0  1  0  0  3  0  0  0  0  0  0
  159.8830  201.0110  151.2300 C   0  0  0  0  0  2  0  0  0  0  0  0
  160.7490  202.7820  149.2490 C   0  0  1  0  0  3  0  0  0  0  0  0
  160.8800  205.5890  149.9380 C   0  0  1  0  0  3  0  0  0  0  0  0
  162.2340  207.2650  152.7510 O   0  0  0  0  0  0  0  0  0  0  0  0
  161.4520  206.7640  150.5780 N   0  0  0  0  0  0  0  0  0  0  0  0
  162.1730  210.1410  149.9000 C   0  0  0  0  0  2  0  0  0  0  0  0
  163.7910  207.4440  148.7740 C   0  0  0  0  0  1  0  0  0  0  0  0
  160.8810  202.0610  151.7280 C   0  0  0  0  0  2  0  0  0  0  0  0
  161.2420  203.1230  150.6670 C   0  0  2  0  0  3  0  0  0  0  0  0
  162.4650  207.4360  148.0150 C   0  0  2  0  0  3  0  0  0  0  0  0
  160.7530  203.8810  145.2740 C   0  0  0  0  0  2  0  0  0  0  0  0
  159.2670  202.1800  144.5700 F   0  0  0  0  0  0  0  0  0  0  0  0
  160.5480  202.3980  145.0380 C   0  0  0  0  0  2  0  0  0  0  0  0
  1  5  1  6  0  0  0
  1  4  1  0  0  0  0
  1 19  1  0  0  0  0
  2 13  2  0  0  0  0
  4 12  1  6  0  0  0
  4 20  1  0  0  0  0
  6  8  2  0  0  0  0
  7 15  1  1  0  0  0
  7  9  1  0  0  0  0
  8 12  1  0  0  0  0
  9 22  1  0  0  0  0
  9 14  1  1  0  0  0
 10  3  1  0  0  0  0
 10 21  2  0  0  0  0
 11 28  1  1  0  0  0
 11  8  1  0  0  0  0
 11  5  1  0  0  0  0
 12 27  1  0  0  0  0
 13 18  1  0  0  0  0
 15 23  1  0  0  0  0
 16  2  1  0  0  0  0
 17  3  1  1  0  0  0
 18 25  1  0  0  0  0
 19  2  1  6  0  0  0
 19 26  1  0  0  0  0
 20 22  1  1  0  0  0
 20 17  1  0  0  0  0
 22 10  1  0  0  0  0
 23 14  1  0  0  0  0
 26 17  1  0  0  0  0
 26 25  1  1  0  0  0
 27  7  1  0  0  0  0
 27 24  1  1  0  0  0
 29 30  1  0  0  0  0
 30 28  1  0  0  0  0
M  END
>  <MODEL>
4

>  <REMARK>
 VINA RESULT:      -5.5      2.205      3.225
  Name = 
  2 active torsions:
  status: ('A' for Active; 'I' for Inactive)
    1  A    between atoms: C_11  and  C_28
    2  A    between atoms: C_28  and  C_30
                            x       y       z     vdW  Elec       q    Type
                         _______ _______ _______ _____ _____    ______ ____

>  <TORSDO>
F 2

$$$$
