=
 OpenBabel11122414303D

 34 39  0  0  1  0  0  0  0  0999 V2000
  161.6560  205.6120  151.8690 C   0  0  2  0  0  3  0  0  0  0  0  0
  161.3080  207.2750  153.8430 C   0  0  0  0  0  2  0  0  0  0  0  0
  162.5710  205.7500  145.0880 C   0  0  0  0  0  2  0  0  0  0  0  0
  161.2980  204.4380  149.7200 C   0  0  0  0  0  0  0  0  0  0  0  0
  160.6690  205.7040  147.6820 C   0  0  0  0  0  0  0  0  0  0  0  0
  160.2090  206.5080  145.3450 C   0  0  0  0  0  2  0  0  0  0  0  0
  161.1710  205.6830  144.5030 C   0  0  0  0  0  2  0  0  0  0  0  0
  162.4040  203.5040  146.2160 C   0  0  0  0  0  2  0  0  0  0  0  0
  161.1110  208.0580  151.5750 C   0  0  2  0  0  3  0  0  0  0  0  0
  160.9850  206.8510  148.3060 C   0  0  0  0  0  3  0  0  0  0  0  0
  162.5560  204.0580  147.6220 C   0  0  0  0  0  2  0  0  0  0  0  0
  161.9380  208.1740  150.2950 C   0  0  1  0  0  3  0  0  0  0  0  0
  160.9780  208.7620  153.8830 C   0  0  0  0  0  2  0  0  0  0  0  0
  161.1890  204.3830  148.2140 C   0  0  1  0  0  3  0  0  0  0  0  0
  163.1700  204.3570  145.2110 C   0  0  0  0  0  2  0  0  0  0  0  0
  161.6810  205.5840  150.3420 C   0  0  0  0  0  0  0  0  0  0  0  0
  159.6940  205.7140  146.5430 C   0  0  0  0  0  2  0  0  0  0  0  0
  161.9230  206.8410  149.4940 C   0  0  1  0  0  3  0  0  0  0  0  0
  160.0820  203.7240  151.7560 C   0  0  0  0  0  3  0  0  0  0  0  0
  160.8430  203.2540  150.5380 C   0  0  0  0  0  2  0  0  0  0  0  0
  161.1120  209.2890  152.4580 C   0  0  0  0  0  2  0  0  0  0  0  0
  160.4610  204.8450  152.3880 C   0  0  0  0  0  3  0  0  0  0  0  0
  161.7930  207.0290  152.4310 C   0  0  2  0  0  3  0  0  0  0  0  0
  161.5790  209.4000  149.4510 C   0  0  0  0  0  2  0  0  0  0  0  0
  162.3540  210.6260  149.9050 C   0  0  0  0  0  2  0  0  0  0  0  0
  161.9890  211.8260  149.0540 C   0  0  0  0  0  2  0  0  0  0  0  0
  161.5250  211.3890  147.8150 O   0  0  0  0  0  0  0  0  0  0  0  0
  161.2140  212.5600  147.1240 C   0  0  0  0  0  2  0  0  0  0  0  0
  162.4460  213.0840  146.4030 C   0  0  0  0  0  2  0  0  0  0  0  0
  162.3130  212.6190  142.9410 C   0  0  0  0  0  2  0  0  0  0  0  0
  160.8000  213.0460  144.5200 C   0  0  0  0  0  2  0  0  0  0  0  0
  162.0800  213.6680  145.0460 C   0  0  2  0  0  3  0  0  0  0  0  0
  161.1200  212.1390  143.4980 O   0  0  0  0  0  0  0  0  0  0  0  0
  163.1150  213.2640  144.0420 C   0  0  0  0  0  2  0  0  0  0  0  0
  1 22  1  6  0  0  0
  1 23  1  0  0  0  0
  2 13  1  0  0  0  0
  3 15  1  0  0  0  0
  4 16  2  0  0  0  0
  4 20  1  0  0  0  0
  5 14  1  0  0  0  0
  5 10  2  0  0  0  0
  6 17  1  0  0  0  0
  7  3  1  0  0  0  0
  7  6  1  0  0  0  0
  8 11  1  0  0  0  0
  9 23  1  0  0  0  0
  9 21  1  1  0  0  0
 12 24  1  6  0  0  0
 12  9  1  0  0  0  0
 14 11  1  6  0  0  0
 14  4  1  0  0  0  0
 15  8  1  0  0  0  0
 16  1  1  0  0  0  0
 17  5  1  0  0  0  0
 18 10  1  6  0  0  0
 18 12  1  0  0  0  0
 18 16  1  0  0  0  0
 19 22  2  0  0  0  0
 20 19  1  0  0  0  0
 21 13  1  0  0  0  0
 23  2  1  1  0  0  0
 24 25  1  0  0  0  0
 26 25  1  0  0  0  0
 27 26  1  0  0  0  0
 28 27  1  0  0  0  0
 29 28  1  0  0  0  0
 30 33  1  0  0  0  0
 30 34  1  0  0  0  0
 31 32  1  0  0  0  0
 32 29  1  1  0  0  0
 33 31  1  0  0  0  0
 34 32  1  0  0  0  0
M  END
>  <MODEL>
1

>  <REMARK>
 VINA RESULT:      -7.5      0.000      0.000
  Name = 
  7 active torsions:
  status: ('A' for Active; 'I' for Inactive)
    1  A    between atoms: C_10  and  O_17
    2  A    between atoms: C_10  and  C_22
    3  A    between atoms: C_13  and  C_24
    4  A    between atoms: O_17  and  C_28
    5  A    between atoms: C_22  and  C_24
    6  A    between atoms: C_28  and  C_29
    7  A    between atoms: C_29  and  C_32
                            x       y       z     vdW  Elec       q    Type
                         _______ _______ _______ _____ _____    ______ ____

>  <TORSDO>
F 7

$$$$
=
 OpenBabel11122414303D

 34 39  0  0  1  0  0  0  0  0999 V2000
  158.4440  211.8630  154.8470 C   0  0  2  0  0  3  0  0  0  0  0  0
  159.6240  210.3490  156.6070 C   0  0  0  0  0  2  0  0  0  0  0  0
  158.5070  212.9590  148.0920 C   0  0  0  0  0  2  0  0  0  0  0  0
  158.1290  213.5100  153.0260 C   0  0  0  0  0  0  0  0  0  0  0  0
  159.6320  213.5120  151.0540 C   0  0  0  0  0  0  0  0  0  0  0  0
  160.7310  213.8230  148.8150 C   0  0  0  0  0  2  0  0  0  0  0  0
  159.5510  214.0430  147.8810 C   0  0  0  0  0  2  0  0  0  0  0  0
  157.0220  214.4140  149.5150 C   0  0  0  0  0  2  0  0  0  0  0  0
  160.5080  210.4920  154.3720 C   0  0  2  0  0  3  0  0  0  0  0  0
  160.1060  212.3100  151.4240 C   0  0  0  0  0  3  0  0  0  0  0  0
  157.1450  213.5450  150.7550 C   0  0  0  0  0  2  0  0  0  0  0  0
  160.0970  210.2220  152.9260 C   0  0  1  0  0  3  0  0  0  0  0  0
  160.8570  209.4580  156.5280 C   0  0  0  0  0  2  0  0  0  0  0  0
  158.3150  214.0120  151.6140 C   0  0  1  0  0  3  0  0  0  0  0  0
  157.1220  213.5700  148.2490 C   0  0  0  0  0  2  0  0  0  0  0  0
  158.5520  212.2670  153.3780 C   0  0  0  0  0  0  0  0  0  0  0  0
  160.4670  214.4150  150.1970 C   0  0  0  0  0  2  0  0  0  0  0  0
  159.2940  211.4170  152.3370 C   0  0  1  0  0  3  0  0  0  0  0  0
  158.3540  214.2650  155.3740 C   0  0  0  0  0  3  0  0  0  0  0  0
  157.5950  214.4490  154.0810 C   0  0  0  0  0  2  0  0  0  0  0  0
  161.2460  209.3600  155.0570 C   0  0  0  0  0  2  0  0  0  0  0  0
  158.7630  213.0400  155.7390 C   0  0  0  0  0  3  0  0  0  0  0  0
  159.2360  210.5920  155.1650 C   0  0  2  0  0  3  0  0  0  0  0  0
  161.2630  209.7710  152.0390 C   0  0  0  0  0  2  0  0  0  0  0  0
  161.0370  208.3650  151.5090 C   0  0  0  0  0  2  0  0  0  0  0  0
  162.3610  207.6500  151.3290 C   0  0  0  0  0  2  0  0  0  0  0  0
  162.3290  206.4370  152.0150 O   0  0  0  0  0  0  0  0  0  0  0  0
  161.1950  205.7880  151.5270 C   0  0  0  0  0  2  0  0  0  0  0  0
  161.6020  204.5950  150.6750 C   0  0  0  0  0  2  0  0  0  0  0  0
  161.7560  204.9440  147.2010 C   0  0  0  0  0  2  0  0  0  0  0  0
  161.1360  203.3090  148.5820 C   0  0  0  0  0  2  0  0  0  0  0  0
  160.8490  204.5830  149.3540 C   0  0  2  0  0  3  0  0  0  0  0  0
  162.0080  203.6040  147.5220 O   0  0  0  0  0  0  0  0  0  0  0  0
  161.3870  205.6670  148.4710 C   0  0  0  0  0  2  0  0  0  0  0  0
  1 23  1  0  0  0  0
  1 22  1  1  0  0  0
  3 15  1  0  0  0  0
  4 16  2  0  0  0  0
  4 20  1  0  0  0  0
  5 10  2  0  0  0  0
  5 14  1  0  0  0  0
  6 17  1  0  0  0  0
  7  3  1  0  0  0  0
  7  6  1  0  0  0  0
  8 11  1  0  0  0  0
  9 21  1  1  0  0  0
  9 23  1  0  0  0  0
 12 24  1  6  0  0  0
 12  9  1  0  0  0  0
 13  2  1  0  0  0  0
 14 11  1  6  0  0  0
 14  4  1  0  0  0  0
 15  8  1  0  0  0  0
 16  1  1  0  0  0  0
 17  5  1  0  0  0  0
 18 10  1  1  0  0  0
 18 12  1  0  0  0  0
 18 16  1  0  0  0  0
 19 22  2  0  0  0  0
 20 19  1  0  0  0  0
 21 13  1  0  0  0  0
 23  2  1  1  0  0  0
 25 24  1  0  0  0  0
 26 25  1  0  0  0  0
 26 27  1  0  0  0  0
 28 27  1  0  0  0  0
 29 28  1  0  0  0  0
 30 33  1  0  0  0  0
 30 34  1  0  0  0  0
 31 32  1  0  0  0  0
 32 29  1  1  0  0  0
 33 31  1  0  0  0  0
 34 32  1  0  0  0  0
M  END
>  <MODEL>
2

>  <REMARK>
 VINA RESULT:      -7.4      3.729      8.347
  Name = 
  7 active torsions:
  status: ('A' for Active; 'I' for Inactive)
    1  A    between atoms: C_10  and  O_17
    2  A    between atoms: C_10  and  C_22
    3  A    between atoms: C_13  and  C_24
    4  A    between atoms: O_17  and  C_28
    5  A    between atoms: C_22  and  C_24
    6  A    between atoms: C_28  and  C_29
    7  A    between atoms: C_29  and  C_32
                            x       y       z     vdW  Elec       q    Type
                         _______ _______ _______ _____ _____    ______ ____

>  <TORSDO>
F 7

$$$$
=
 OpenBabel11122414303D

 34 39  0  0  1  0  0  0  0  0999 V2000
  158.8690  211.2560  155.6260 C   0  0  2  0  0  3  0  0  0  0  0  0
  160.2740  209.5110  156.9530 C   0  0  0  0  0  2  0  0  0  0  0  0
  157.7280  213.1260  149.1430 C   0  0  0  0  0  2  0  0  0  0  0  0
  158.3080  213.1120  154.0880 C   0  0  0  0  0  0  0  0  0  0  0  0
  159.4150  213.2950  151.8760 C   0  0  0  0  0  0  0  0  0  0  0  0
  160.0920  213.8280  149.5150 C   0  0  0  0  0  2  0  0  0  0  0  0
  158.7710  214.1920  148.8530 C   0  0  0  0  0  2  0  0  0  0  0  0
  156.6150  214.4530  150.9720 C   0  0  0  0  0  2  0  0  0  0  0  0
  160.7320  209.8840  154.6200 C   0  0  2  0  0  3  0  0  0  0  0  0
  159.8840  212.0440  152.0160 C   0  0  0  0  0  3  0  0  0  0  0  0
  156.9210  213.4420  152.0640 C   0  0  0  0  0  2  0  0  0  0  0  0
  160.0440  209.7970  153.2580 C   0  0  1  0  0  3  0  0  0  0  0  0
  161.4220  208.5960  156.5440 C   0  0  0  0  0  2  0  0  0  0  0  0
  158.2540  213.7690  152.7290 C   0  0  1  0  0  3  0  0  0  0  0  0
  156.4320  213.7590  149.6270 C   0  0  0  0  0  2  0  0  0  0  0  0
  158.7220  211.8250  154.2160 C   0  0  0  0  0  0  0  0  0  0  0  0
  160.1220  214.2640  150.9770 C   0  0  0  0  0  2  0  0  0  0  0  0
  159.2110  211.0770  152.9660 C   0  0  1  0  0  3  0  0  0  0  0  0
  159.0080  213.5820  156.4160 C   0  0  0  0  0  3  0  0  0  0  0  0
  158.0320  213.9390  155.3200 C   0  0  0  0  0  2  0  0  0  0  0  0
  161.5230  208.6570  155.0240 C   0  0  0  0  0  2  0  0  0  0  0  0
  159.4120  212.3110  156.5620 C   0  0  0  0  0  3  0  0  0  0  0  0
  159.6380  209.9320  155.6470 C   0  0  2  0  0  3  0  0  0  0  0  0
  160.9980  209.4150  152.1210 C   0  0  0  0  0  2  0  0  0  0  0  0
  160.9590  207.9200  151.8520 C   0  0  0  0  0  2  0  0  0  0  0  0
  162.0500  207.5320  150.8740 C   0  0  0  0  0  2  0  0  0  0  0  0
  161.5740  207.6710  149.5720 O   0  0  0  0  0  0  0  0  0  0  0  0
  160.6150  206.6670  149.4380 C   0  0  0  0  0  2  0  0  0  0  0  0
  161.2930  205.3090  149.3310 C   0  0  0  0  0  2  0  0  0  0  0  0
  161.1510  202.0740  150.6480 C   0  0  0  0  0  2  0  0  0  0  0  0
  160.7050  204.1070  151.4440 C   0  0  0  0  0  2  0  0  0  0  0  0
  160.4350  204.2180  149.9550 C   0  0  2  0  0  3  0  0  0  0  0  0
  161.4770  202.9600  151.6830 O   0  0  0  0  0  0  0  0  0  0  0  0
  160.8610  202.8880  149.4120 C   0  0  0  0  0  2  0  0  0  0  0  0
  1 23  1  0  0  0  0
  1 22  1  1  0  0  0
  3 15  1  0  0  0  0
  4 16  2  0  0  0  0
  4 20  1  0  0  0  0
  5 10  2  0  0  0  0
  5 14  1  0  0  0  0
  6 17  1  0  0  0  0
  7  3  1  0  0  0  0
  7  6  1  0  0  0  0
  8 11  1  0  0  0  0
  9 21  1  1  0  0  0
  9 23  1  0  0  0  0
 12 24  1  6  0  0  0
 12  9  1  0  0  0  0
 13  2  1  0  0  0  0
 14 11  1  6  0  0  0
 14  4  1  0  0  0  0
 15  8  1  0  0  0  0
 16  1  1  0  0  0  0
 17  5  1  0  0  0  0
 18 10  1  1  0  0  0
 18 12  1  0  0  0  0
 18 16  1  0  0  0  0
 19 22  2  0  0  0  0
 20 19  1  0  0  0  0
 21 13  1  0  0  0  0
 23  2  1  1  0  0  0
 25 24  1  0  0  0  0
 26 25  1  0  0  0  0
 27 26  1  0  0  0  0
 28 27  1  0  0  0  0
 29 28  1  0  0  0  0
 30 33  1  0  0  0  0
 31 33  1  0  0  0  0
 32 29  1  6  0  0  0
 32 31  1  0  0  0  0
 34 32  1  0  0  0  0
 34 30  1  0  0  0  0
M  END
>  <MODEL>
3

>  <REMARK>
 VINA RESULT:      -7.2      3.845      8.773
  Name = 
  7 active torsions:
  status: ('A' for Active; 'I' for Inactive)
    1  A    between atoms: C_10  and  O_17
    2  A    between atoms: C_10  and  C_22
    3  A    between atoms: C_13  and  C_24
    4  A    between atoms: O_17  and  C_28
    5  A    between atoms: C_22  and  C_24
    6  A    between atoms: C_28  and  C_29
    7  A    between atoms: C_29  and  C_32
                            x       y       z     vdW  Elec       q    Type
                         _______ _______ _______ _____ _____    ______ ____

>  <TORSDO>
F 7

$$$$
=
 OpenBabel11122414303D

 34 39  0  0  1  0  0  0  0  0999 V2000
  161.5980  205.1420  151.9190 C   0  0  2  0  0  3  0  0  0  0  0  0
  161.2080  206.6370  154.0160 C   0  0  0  0  0  2  0  0  0  0  0  0
  162.4800  205.8290  145.1670 C   0  0  0  0  0  2  0  0  0  0  0  0
  161.2660  204.1270  149.6860 C   0  0  0  0  0  0  0  0  0  0  0  0
  160.5910  205.5260  147.7530 C   0  0  0  0  0  0  0  0  0  0  0  0
  160.0980  206.4930  145.4860 C   0  0  0  0  0  2  0  0  0  0  0  0
  161.0800  205.7650  144.5810 C   0  0  0  0  0  2  0  0  0  0  0  0
  162.3850  203.4990  146.1190 C   0  0  0  0  0  2  0  0  0  0  0  0
  160.9790  207.5860  151.8150 C   0  0  2  0  0  3  0  0  0  0  0  0
  160.8750  206.6310  148.4630 C   0  0  0  0  0  3  0  0  0  0  0  0
  162.5270  203.9470  147.5640 C   0  0  0  0  0  2  0  0  0  0  0  0
  161.7960  207.8250  150.5470 C   0  0  1  0  0  3  0  0  0  0  0  0
  160.8330  208.1060  154.1700 C   0  0  0  0  0  2  0  0  0  0  0  0
  161.1530  204.1840  148.1810 C   0  0  1  0  0  3  0  0  0  0  0  0
  163.1210  204.4490  145.1810 C   0  0  0  0  0  2  0  0  0  0  0  0
  161.6170  205.2320  150.3950 C   0  0  0  0  0  0  0  0  0  0  0  0
  159.6120  205.5940  146.6200 C   0  0  0  0  0  2  0  0  0  0  0  0
  161.8170  206.5570  149.6450 C   0  0  1  0  0  3  0  0  0  0  0  0
  160.0810  203.2220  151.6630 C   0  0  0  0  0  3  0  0  0  0  0  0
  160.8500  202.8700  150.4120 C   0  0  0  0  0  2  0  0  0  0  0  0
  160.9460  208.7440  152.7910 C   0  0  0  0  0  2  0  0  0  0  0  0
  160.4290  204.3020  152.3790 C   0  0  0  0  0  3  0  0  0  0  0  0
  161.6940  206.5160  152.5880 C   0  0  2  0  0  3  0  0  0  0  0  0
  161.3970  209.1010  149.8000 C   0  0  0  0  0  2  0  0  0  0  0  0
  162.3310  210.2510  150.1390 C   0  0  0  0  0  2  0  0  0  0  0  0
  162.3300  211.2770  149.0230 C   0  0  0  0  0  2  0  0  0  0  0  0
  161.4460  212.3060  149.3430 O   0  0  0  0  0  0  0  0  0  0  0  0
  161.4990  213.1680  148.2480 C   0  0  0  0  0  2  0  0  0  0  0  0
  160.7860  212.5450  147.0580 C   0  0  0  0  0  2  0  0  0  0  0  0
  157.4460  212.5760  146.0250 C   0  0  0  0  0  2  0  0  0  0  0  0
  158.5550  213.4340  147.7570 C   0  0  0  0  0  2  0  0  0  0  0  0
  159.5830  213.3790  146.6420 C   0  0  2  0  0  3  0  0  0  0  0  0
  157.4770  212.5990  147.4260 O   0  0  0  0  0  0  0  0  0  0  0  0
  158.8650  212.6830  145.5260 C   0  0  0  0  0  2  0  0  0  0  0  0
  1 22  1  6  0  0  0
  1 23  1  0  0  0  0
  2 13  1  0  0  0  0
  3 15  1  0  0  0  0
  4 16  2  0  0  0  0
  4 20  1  0  0  0  0
  5 14  1  0  0  0  0
  5 10  2  0  0  0  0
  6 17  1  0  0  0  0
  7  3  1  0  0  0  0
  7  6  1  0  0  0  0
  8 11  1  0  0  0  0
  9 23  1  0  0  0  0
  9 21  1  1  0  0  0
 12 24  1  6  0  0  0
 12  9  1  0  0  0  0
 14 11  1  6  0  0  0
 14  4  1  0  0  0  0
 15  8  1  0  0  0  0
 16  1  1  0  0  0  0
 17  5  1  0  0  0  0
 18 10  1  6  0  0  0
 18 16  1  0  0  0  0
 18 12  1  0  0  0  0
 19 22  2  0  0  0  0
 20 19  1  0  0  0  0
 21 13  1  0  0  0  0
 23  2  1  1  0  0  0
 24 25  1  0  0  0  0
 26 27  1  0  0  0  0
 26 25  1  0  0  0  0
 28 27  1  0  0  0  0
 29 28  1  0  0  0  0
 30 33  1  0  0  0  0
 32 29  1  1  0  0  0
 32 31  1  0  0  0  0
 33 31  1  0  0  0  0
 34 30  1  0  0  0  0
 34 32  1  0  0  0  0
M  END
>  <MODEL>
4

>  <REMARK>
 VINA RESULT:      -7.2      1.590      1.881
  Name = 
  7 active torsions:
  status: ('A' for Active; 'I' for Inactive)
    1  A    between atoms: C_10  and  O_17
    2  A    between atoms: C_10  and  C_22
    3  A    between atoms: C_13  and  C_24
    4  A    between atoms: O_17  and  C_28
    5  A    between atoms: C_22  and  C_24
    6  A    between atoms: C_28  and  C_29
    7  A    between atoms: C_29  and  C_32
                            x       y       z     vdW  Elec       q    Type
                         _______ _______ _______ _____ _____    ______ ____

>  <TORSDO>
F 7

$$$$
=
 OpenBabel11122414303D

 34 39  0  0  1  0  0  0  0  0999 V2000
  162.5300  208.5440  149.4950 C   0  0  2  0  0  3  0  0  0  0  0  0
  162.1180  206.9480  147.4780 C   0  0  0  0  0  2  0  0  0  0  0  0
  161.5730  208.6690  156.2700 C   0  0  0  0  0  2  0  0  0  0  0  0
  162.0860  209.9460  151.4850 C   0  0  0  0  0  0  0  0  0  0  0  0
  160.5450  209.1620  153.2620 C   0  0  0  0  0  0  0  0  0  0  0  0
  159.2460  208.7740  155.3790 C   0  0  0  0  0  2  0  0  0  0  0  0
  160.1920  209.2760  156.4590 C   0  0  0  0  0  2  0  0  0  0  0  0
  162.5240  210.7250  155.1690 C   0  0  0  0  0  2  0  0  0  0  0  0
  161.0800  206.4810  149.5990 C   0  0  2  0  0  3  0  0  0  0  0  0
  160.5710  207.9290  152.7300 C   0  0  0  0  0  3  0  0  0  0  0  0
  162.8180  210.0360  153.8480 C   0  0  0  0  0  2  0  0  0  0  0  0
  161.4530  206.1910  151.0520 C   0  0  1  0  0  3  0  0  0  0  0  0
  161.2930  205.6760  147.3310 C   0  0  0  0  0  2  0  0  0  0  0  0
  161.6260  210.1650  152.9070 C   0  0  1  0  0  3  0  0  0  0  0  0
  162.6460  209.7460  156.3310 C   0  0  0  0  0  2  0  0  0  0  0  0
  162.1740  208.6910  150.9730 C   0  0  0  0  0  0  0  0  0  0  0  0
  159.3770  209.5930  154.0970 C   0  0  0  0  0  2  0  0  0  0  0  0
  161.7180  207.5070  151.8380 C   0  0  1  0  0  3  0  0  0  0  0  0
  161.7750  210.8670  149.2070 C   0  0  0  0  0  3  0  0  0  0  0  0
  162.3160  211.1410  150.5910 C   0  0  0  0  0  2  0  0  0  0  0  0
  160.8600  205.2590  148.7320 C   0  0  0  0  0  2  0  0  0  0  0  0
  161.8690  209.6350  148.6850 C   0  0  0  0  0  3  0  0  0  0  0  0
  162.2820  207.1260  148.9710 C   0  0  2  0  0  3  0  0  0  0  0  0
  160.4710  205.2460  151.7520 C   0  0  0  0  0  2  0  0  0  0  0  0
  161.2050  204.2390  152.6220 C   0  0  0  0  0  2  0  0  0  0  0  0
  161.4220  202.9460  151.8610 C   0  0  0  0  0  2  0  0  0  0  0  0
  160.3460  202.7280  151.0020 O   0  0  0  0  0  0  0  0  0  0  0  0
  160.7860  201.7300  150.1330 C   0  0  0  0  0  2  0  0  0  0  0  0
  160.2530  201.9850  148.7320 C   0  0  0  0  0  2  0  0  0  0  0  0
  161.2080  199.8940  146.0990 C   0  0  0  0  0  2  0  0  0  0  0  0
  160.8310  202.0810  146.3000 C   0  0  0  0  0  2  0  0  0  0  0  0
  161.2980  201.6500  147.6780 C   0  0  2  0  0  3  0  0  0  0  0  0
  160.4430  200.9440  145.5750 O   0  0  0  0  0  0  0  0  0  0  0  0
  161.4240  200.1620  147.5660 C   0  0  0  0  0  2  0  0  0  0  0  0
  1 22  1  6  0  0  0
  1 16  1  0  0  0  0
  3 15  1  0  0  0  0
  3  7  1  0  0  0  0
  4 14  1  0  0  0  0
  5 17  1  0  0  0  0
  6  7  1  0  0  0  0
  8 15  1  0  0  0  0
  9 21  1  6  0  0  0
  9 12  1  0  0  0  0
 10  5  2  0  0  0  0
 11  8  1  0  0  0  0
 12 24  1  1  0  0  0
 12 18  1  0  0  0  0
 13  2  1  0  0  0  0
 13 21  1  0  0  0  0
 14  5  1  0  0  0  0
 14 11  1  1  0  0  0
 16  4  2  0  0  0  0
 16 18  1  0  0  0  0
 17  6  1  0  0  0  0
 18 10  1  6  0  0  0
 19 20  1  0  0  0  0
 20  4  1  0  0  0  0
 22 19  2  0  0  0  0
 23  2  1  6  0  0  0
 23  1  1  0  0  0  0
 23  9  1  0  0  0  0
 24 25  1  0  0  0  0
 26 25  1  0  0  0  0
 27 26  1  0  0  0  0
 28 27  1  0  0  0  0
 29 28  1  0  0  0  0
 30 34  1  0  0  0  0
 31 32  1  0  0  0  0
 32 29  1  1  0  0  0
 33 30  1  0  0  0  0
 33 31  1  0  0  0  0
 34 32  1  0  0  0  0
M  END
>  <MODEL>
5

>  <REMARK>
 VINA RESULT:      -7.1      3.557      8.742
  Name = 
  7 active torsions:
  status: ('A' for Active; 'I' for Inactive)
    1  A    between atoms: C_10  and  O_17
    2  A    between atoms: C_10  and  C_22
    3  A    between atoms: C_13  and  C_24
    4  A    between atoms: O_17  and  C_28
    5  A    between atoms: C_22  and  C_24
    6  A    between atoms: C_28  and  C_29
    7  A    between atoms: C_29  and  C_32
                            x       y       z     vdW  Elec       q    Type
                         _______ _______ _______ _____ _____    ______ ____

>  <TORSDO>
F 7

$$$$
=
 OpenBabel11122414303D

 34 39  0  0  1  0  0  0  0  0999 V2000
  158.7130  211.8860  154.8240 C   0  0  2  0  0  3  0  0  0  0  0  0
  159.9870  210.4040  156.5450 C   0  0  0  0  0  2  0  0  0  0  0  0
  158.5040  212.9490  148.0660 C   0  0  0  0  0  2  0  0  0  0  0  0
  158.2990  213.5170  153.0090 C   0  0  0  0  0  0  0  0  0  0  0  0
  159.7280  213.5380  150.9820 C   0  0  0  0  0  0  0  0  0  0  0  0
  160.7370  213.8590  148.7030 C   0  0  0  0  0  2  0  0  0  0  0  0
  159.5180  214.0510  147.8120 C   0  0  0  0  0  2  0  0  0  0  0  0
  157.0450  214.3820  149.5370 C   0  0  0  0  0  2  0  0  0  0  0  0
  160.7850  210.5530  154.2790 C   0  0  2  0  0  3  0  0  0  0  0  0
  160.2390  212.3480  151.3390 C   0  0  0  0  0  3  0  0  0  0  0  0
  157.2310  213.5220  150.7750 C   0  0  0  0  0  2  0  0  0  0  0  0
  160.3260  210.2680  152.8500 C   0  0  1  0  0  3  0  0  0  0  0  0
  161.2340  209.5370  156.4240 C   0  0  0  0  0  2  0  0  0  0  0  0
  158.4220  214.0160  151.5880 C   0  0  1  0  0  3  0  0  0  0  0  0
  157.1150  213.5340  148.2720 C   0  0  0  0  0  2  0  0  0  0  0  0
  158.7590  212.2850  153.3500 C   0  0  0  0  0  0  0  0  0  0  0  0
  160.5120  214.4530  150.0910 C   0  0  0  0  0  2  0  0  0  0  0  0
  159.4790  211.4440  152.2860 C   0  0  1  0  0  3  0  0  0  0  0  0
  158.5960  214.2890  155.3430 C   0  0  0  0  0  3  0  0  0  0  0  0
  157.7860  214.4510  154.0780 C   0  0  0  0  0  2  0  0  0  0  0  0
  161.5700  209.4390  154.9400 C   0  0  0  0  0  2  0  0  0  0  0  0
  159.0430  213.0740  155.6990 C   0  0  0  0  0  3  0  0  0  0  0  0
  159.5420  210.6330  155.1170 C   0  0  2  0  0  3  0  0  0  0  0  0
  161.4660  209.8350  151.9220 C   0  0  0  0  0  2  0  0  0  0  0  0
  161.2450  208.4240  151.4030 C   0  0  0  0  0  2  0  0  0  0  0  0
  162.3200  208.0570  150.3990 C   0  0  0  0  0  2  0  0  0  0  0  0
  162.3020  206.6800  150.1840 O   0  0  0  0  0  0  0  0  0  0  0  0
  160.9610  206.3210  150.3270 C   0  0  0  0  0  2  0  0  0  0  0  0
  160.4900  205.5630  149.0950 C   0  0  0  0  0  2  0  0  0  0  0  0
  161.5860  204.1310  146.1000 C   0  0  0  0  0  2  0  0  0  0  0  0
  161.2570  206.2190  146.8060 C   0  0  0  0  0  2  0  0  0  0  0  0
  161.6040  205.4460  148.0650 C   0  0  2  0  0  3  0  0  0  0  0  0
  160.8930  205.3110  145.7990 O   0  0  0  0  0  0  0  0  0  0  0  0
  161.6950  204.0240  147.6000 C   0  0  0  0  0  2  0  0  0  0  0  0
  1 23  1  0  0  0  0
  1 22  1  1  0  0  0
  3 15  1  0  0  0  0
  4 16  2  0  0  0  0
  4 20  1  0  0  0  0
  5 10  2  0  0  0  0
  5 14  1  0  0  0  0
  6 17  1  0  0  0  0
  7  3  1  0  0  0  0
  7  6  1  0  0  0  0
  8 11  1  0  0  0  0
  9 21  1  1  0  0  0
  9 23  1  0  0  0  0
 12 24  1  6  0  0  0
 12  9  1  0  0  0  0
 13  2  1  0  0  0  0
 14 11  1  6  0  0  0
 14  4  1  0  0  0  0
 15  8  1  0  0  0  0
 16  1  1  0  0  0  0
 17  5  1  0  0  0  0
 18 10  1  1  0  0  0
 18 12  1  0  0  0  0
 18 16  1  0  0  0  0
 19 22  2  0  0  0  0
 20 19  1  0  0  0  0
 21 13  1  0  0  0  0
 23  2  1  1  0  0  0
 25 24  1  0  0  0  0
 26 25  1  0  0  0  0
 27 28  1  0  0  0  0
 27 26  1  0  0  0  0
 29 28  1  0  0  0  0
 30 34  1  0  0  0  0
 31 32  1  0  0  0  0
 32 29  1  1  0  0  0
 33 30  1  0  0  0  0
 33 31  1  0  0  0  0
 34 32  1  0  0  0  0
M  END
>  <MODEL>
6

>  <REMARK>
 VINA RESULT:      -7.0      3.540      8.031
  Name = 
  7 active torsions:
  status: ('A' for Active; 'I' for Inactive)
    1  A    between atoms: C_10  and  O_17
    2  A    between atoms: C_10  and  C_22
    3  A    between atoms: C_13  and  C_24
    4  A    between atoms: O_17  and  C_28
    5  A    between atoms: C_22  and  C_24
    6  A    between atoms: C_28  and  C_29
    7  A    between atoms: C_29  and  C_32
                            x       y       z     vdW  Elec       q    Type
                         _______ _______ _______ _____ _____    ______ ____

>  <TORSDO>
F 7

$$$$
=
 OpenBabel11122414303D

 34 39  0  0  1  0  0  0  0  0999 V2000
  160.8470  207.9460  150.7560 C   0  0  2  0  0  3  0  0  0  0  0  0
  161.1030  207.8130  153.3450 C   0  0  0  0  0  2  0  0  0  0  0  0
  160.7970  203.7620  145.3410 C   0  0  0  0  0  2  0  0  0  0  0  0
  161.3570  207.6910  148.3480 C   0  0  0  0  0  0  0  0  0  0  0  0
  162.3500  205.5890  147.4850 C   0  0  0  0  0  0  0  0  0  0  0  0
  163.1700  203.6570  146.1010 C   0  0  0  0  0  2  0  0  0  0  0  0
  162.2470  203.6850  144.8930 C   0  0  0  0  0  2  0  0  0  0  0  0
  160.6110  206.2390  144.9260 C   0  0  0  0  0  2  0  0  0  0  0  0
  161.6530  205.8990  151.9920 C   0  0  2  0  0  3  0  0  0  0  0  0
  162.0690  204.9860  148.6520 C   0  0  0  0  0  3  0  0  0  0  0  0
  160.3380  206.5900  146.3790 C   0  0  0  0  0  2  0  0  0  0  0  0
  161.0060  204.9400  150.9940 C   0  0  1  0  0  3  0  0  0  0  0  0
  161.5650  206.6960  154.2720 C   0  0  0  0  0  2  0  0  0  0  0  0
  161.6450  206.8780  147.1080 C   0  0  1  0  0  3  0  0  0  0  0  0
  160.0590  204.8590  144.5880 C   0  0  0  0  0  2  0  0  0  0  0  0
  161.0090  207.0790  149.5100 C   0  0  0  0  0  0  0  0  0  0  0  0
  163.4550  205.0650  146.6180 C   0  0  0  0  0  2  0  0  0  0  0  0
  160.9950  205.5440  149.5600 C   0  0  1  0  0  3  0  0  0  0  0  0
  162.2370  209.6270  149.6170 C   0  0  0  0  0  3  0  0  0  0  0  0
  161.5930  209.1820  148.3250 C   0  0  0  0  0  2  0  0  0  0  0  0
  161.6590  205.4270  153.4310 C   0  0  0  0  0  2  0  0  0  0  0  0
  161.8900  209.0400  150.7730 C   0  0  0  0  0  3  0  0  0  0  0  0
  160.7760  207.1170  152.0420 C   0  0  2  0  0  3  0  0  0  0  0  0
  161.5810  203.5220  151.0570 C   0  0  0  0  0  2  0  0  0  0  0  0
  160.4930  202.5000  151.3410 C   0  0  0  0  0  2  0  0  0  0  0  0
  160.4860  201.4260  150.2720 C   0  0  0  0  0  2  0  0  0  0  0  0
  159.4630  201.6870  149.3620 O   0  0  0  0  0  0  0  0  0  0  0  0
  160.0910  201.6890  148.1170 C   0  0  0  0  0  2  0  0  0  0  0  0
  161.1330  200.5820  148.0560 C   0  0  0  0  0  2  0  0  0  0  0  0
  161.1310  198.4830  145.2610 C   0  0  0  0  0  2  0  0  0  0  0  0
  160.4740  200.5780  145.6440 C   0  0  0  0  0  2  0  0  0  0  0  0
  161.6060  200.3520  146.6290 C   0  0  2  0  0  3  0  0  0  0  0  0
  160.0210  199.3340  145.1760 O   0  0  0  0  0  0  0  0  0  0  0  0
  161.9520  198.9050  146.4530 C   0  0  0  0  0  2  0  0  0  0  0  0
  1 22  1  1  0  0  0
  1 23  1  0  0  0  0
  2 13  1  0  0  0  0
  4 16  2  0  0  0  0
  5 10  2  0  0  0  0
  6 17  1  0  0  0  0
  7  3  1  0  0  0  0
  7  6  1  0  0  0  0
  8 11  1  0  0  0  0
  9 23  1  0  0  0  0
  9 21  1  1  0  0  0
 12 24  1  6  0  0  0
 12  9  1  0  0  0  0
 14 11  1  1  0  0  0
 14  5  1  0  0  0  0
 14  4  1  0  0  0  0
 15  8  1  0  0  0  0
 15  3  1  0  0  0  0
 16 18  1  0  0  0  0
 16  1  1  0  0  0  0
 17  5  1  0  0  0  0
 18 10  1  6  0  0  0
 18 12  1  0  0  0  0
 19 22  2  0  0  0  0
 20  4  1  0  0  0  0
 20 19  1  0  0  0  0
 21 13  1  0  0  0  0
 23  2  1  1  0  0  0
 24 25  1  0  0  0  0
 26 25  1  0  0  0  0
 27 26  1  0  0  0  0
 28 27  1  0  0  0  0
 29 28  1  0  0  0  0
 30 34  1  0  0  0  0
 31 32  1  0  0  0  0
 32 29  1  1  0  0  0
 33 30  1  0  0  0  0
 33 31  1  0  0  0  0
 34 32  1  0  0  0  0
M  END
>  <MODEL>
7

>  <REMARK>
 VINA RESULT:      -6.4      3.668      7.266
  Name = 
  7 active torsions:
  status: ('A' for Active; 'I' for Inactive)
    1  A    between atoms: C_10  and  O_17
    2  A    between atoms: C_10  and  C_22
    3  A    between atoms: C_13  and  C_24
    4  A    between atoms: O_17  and  C_28
    5  A    between atoms: C_22  and  C_24
    6  A    between atoms: C_28  and  C_29
    7  A    between atoms: C_29  and  C_32
                            x       y       z     vdW  Elec       q    Type
                         _______ _______ _______ _____ _____    ______ ____

>  <TORSDO>
F 7

$$$$
=
 OpenBabel11122414303D

 34 39  0  0  1  0  0  0  0  0999 V2000
  161.6600  205.0460  152.0110 C   0  0  2  0  0  3  0  0  0  0  0  0
  161.3420  206.5160  154.1370 C   0  0  0  0  0  2  0  0  0  0  0  0
  162.5270  205.8230  145.2670 C   0  0  0  0  0  2  0  0  0  0  0  0
  161.2760  204.0860  149.7620 C   0  0  0  0  0  0  0  0  0  0  0  0
  160.6440  205.5450  147.8590 C   0  0  0  0  0  0  0  0  0  0  0  0
  160.1740  206.5720  145.6140 C   0  0  0  0  0  2  0  0  0  0  0  0
  161.1210  205.8230  144.6890 C   0  0  0  0  0  2  0  0  0  0  0  0
  162.3470  203.4810  146.1760 C   0  0  0  0  0  2  0  0  0  0  0  0
  161.1360  207.5140  151.9560 C   0  0  2  0  0  3  0  0  0  0  0  0
  160.9740  206.6250  148.5870 C   0  0  0  0  0  3  0  0  0  0  0  0
  162.5150  203.8970  147.6280 C   0  0  0  0  0  2  0  0  0  0  0  0
  161.9540  207.7440  150.6860 C   0  0  1  0  0  3  0  0  0  0  0  0
  161.0250  207.9950  154.3210 C   0  0  0  0  0  2  0  0  0  0  0  0
  161.1560  204.1750  148.2590 C   0  0  1  0  0  3  0  0  0  0  0  0
  163.1140  204.4190  145.2510 C   0  0  0  0  0  2  0  0  0  0  0  0
  161.6740  205.1630  150.4880 C   0  0  0  0  0  0  0  0  0  0  0  0
  159.6600  205.6720  146.7350 C   0  0  0  0  0  2  0  0  0  0  0  0
  161.9200  206.4940  149.7610 C   0  0  1  0  0  3  0  0  0  0  0  0
  160.0690  203.1910  151.7310 C   0  0  0  0  0  3  0  0  0  0  0  0
  160.8160  202.8330  150.4680 C   0  0  0  0  0  2  0  0  0  0  0  0
  161.1540  208.6540  152.9520 C   0  0  0  0  0  2  0  0  0  0  0  0
  160.4630  204.2430  152.4640 C   0  0  0  0  0  3  0  0  0  0  0  0
  161.8150  206.4030  152.7040 C   0  0  2  0  0  3  0  0  0  0  0  0
  161.5990  209.0490  149.9650 C   0  0  0  0  0  2  0  0  0  0  0  0
  162.3270  210.2310  150.5820 C   0  0  0  0  0  2  0  0  0  0  0  0
  161.4880  211.4880  150.4620 C   0  0  0  0  0  2  0  0  0  0  0  0
  160.5670  211.5290  151.5070 O   0  0  0  0  0  0  0  0  0  0  0  0
  159.8910  212.7370  151.3330 C   0  0  0  0  0  2  0  0  0  0  0  0
  159.2530  213.1730  152.6430 C   0  0  0  0  0  2  0  0  0  0  0  0
  157.8780  211.4740  155.3700 C   0  0  0  0  0  2  0  0  0  0  0  0
  157.0600  212.8160  153.7910 C   0  0  0  0  0  2  0  0  0  0  0  0
  158.2490  212.1410  153.1330 C   0  0  2  0  0  3  0  0  0  0  0  0
  157.1610  212.6620  155.1820 O   0  0  0  0  0  0  0  0  0  0  0  0
  158.8660  211.3410  154.2400 C   0  0  0  0  0  2  0  0  0  0  0  0
  1 22  1  6  0  0  0
  1 23  1  0  0  0  0
  2 13  1  0  0  0  0
  4 20  1  0  0  0  0
  4 16  2  0  0  0  0
  5 14  1  0  0  0  0
  5 10  2  0  0  0  0
  6 17  1  0  0  0  0
  7  3  1  0  0  0  0
  7  6  1  0  0  0  0
  8 11  1  0  0  0  0
  9 23  1  0  0  0  0
  9 21  1  1  0  0  0
 12 24  1  6  0  0  0
 12  9  1  0  0  0  0
 14 11  1  6  0  0  0
 14  4  1  0  0  0  0
 15  3  1  0  0  0  0
 15  8  1  0  0  0  0
 16  1  1  0  0  0  0
 17  5  1  0  0  0  0
 18 10  1  6  0  0  0
 18 16  1  0  0  0  0
 18 12  1  0  0  0  0
 19 22  2  0  0  0  0
 20 19  1  0  0  0  0
 21 13  1  0  0  0  0
 23  2  1  1  0  0  0
 24 25  1  0  0  0  0
 26 25  1  0  0  0  0
 26 27  1  0  0  0  0
 28 27  1  0  0  0  0
 28 29  1  0  0  0  0
 31 33  1  0  0  0  0
 32 29  1  1  0  0  0
 32 31  1  0  0  0  0
 32 34  1  0  0  0  0
 33 30  1  0  0  0  0
 34 30  1  0  0  0  0
M  END
>  <MODEL>
8

>  <REMARK>
 VINA RESULT:      -6.3      2.913      4.628
  Name = 
  7 active torsions:
  status: ('A' for Active; 'I' for Inactive)
    1  A    between atoms: C_10  and  O_17
    2  A    between atoms: C_10  and  C_22
    3  A    between atoms: C_13  and  C_24
    4  A    between atoms: O_17  and  C_28
    5  A    between atoms: C_22  and  C_24
    6  A    between atoms: C_28  and  C_29
    7  A    between atoms: C_29  and  C_32
                            x       y       z     vdW  Elec       q    Type
                         _______ _______ _______ _____ _____    ______ ____

>  <TORSDO>
F 7

$$$$
=
 OpenBabel11122414303D

 34 39  0  0  1  0  0  0  0  0999 V2000
  160.6040  208.7020  152.9340 C   0  0  2  0  0  3  0  0  0  0  0  0
  161.2180  206.2660  153.6230 C   0  0  0  0  0  2  0  0  0  0  0  0
  160.4540  212.6060  147.3150 C   0  0  0  0  0  2  0  0  0  0  0  0
  160.8230  210.9870  152.0090 C   0  0  0  0  0  0  0  0  0  0  0  0
  161.9910  211.3690  149.8550 C   0  0  0  0  0  0  0  0  0  0  0  0
  162.8960  212.2620  147.6860 C   0  0  0  0  0  2  0  0  0  0  0  0
  161.8270  213.2530  147.2510 C   0  0  0  0  0  2  0  0  0  0  0  0
  159.8520  213.6730  149.5150 C   0  0  0  0  0  2  0  0  0  0  0  0
  161.8580  207.0890  151.4530 C   0  0  2  0  0  3  0  0  0  0  0  0
  161.9590  210.0480  149.6110 C   0  0  0  0  0  3  0  0  0  0  0  0
  159.7250  212.3560  150.2630 C   0  0  0  0  0  2  0  0  0  0  0  0
  161.2330  207.6460  150.1750 C   0  0  1  0  0  3  0  0  0  0  0  0
  161.9570  205.1510  152.8930 C   0  0  0  0  0  2  0  0  0  0  0  0
  161.0610  211.9730  150.8900 C   0  0  1  0  0  3  0  0  0  0  0  0
  159.4690  213.5030  148.0490 C   0  0  0  0  0  2  0  0  0  0  0  0
  160.7260  209.6570  151.7480 C   0  0  0  0  0  0  0  0  0  0  0  0
  163.0370  212.2250  149.2060 C   0  0  0  0  0  2  0  0  0  0  0  0
  160.9440  209.1690  150.3090 C   0  0  1  0  0  3  0  0  0  0  0  0
  161.5700  210.4920  154.3180 C   0  0  0  0  0  3  0  0  0  0  0  0
  160.8330  211.4740  153.4380 C   0  0  0  0  0  2  0  0  0  0  0  0
  162.1240  205.5970  151.4450 C   0  0  0  0  0  2  0  0  0  0  0  0
  161.4690  209.1760  154.0790 C   0  0  0  0  0  3  0  0  0  0  0  0
  160.8260  207.2410  152.5330 C   0  0  2  0  0  3  0  0  0  0  0  0
  162.0140  207.2800  148.9090 C   0  0  0  0  0  2  0  0  0  0  0  0
  161.0900  206.7320  147.8340 C   0  0  0  0  0  2  0  0  0  0  0  0
  161.8900  206.0040  146.7720 C   0  0  0  0  0  2  0  0  0  0  0  0
  161.0510  205.1360  146.0750 O   0  0  0  0  0  0  0  0  0  0  0  0
  161.6820  203.8950  146.1590 C   0  0  0  0  0  2  0  0  0  0  0  0
  161.9570  203.5470  147.6140 C   0  0  0  0  0  2  0  0  0  0  0  0
  160.9140  200.9580  149.7190 C   0  0  0  0  0  2  0  0  0  0  0  0
  160.6050  203.1650  149.6840 C   0  0  0  0  0  2  0  0  0  0  0  0
  160.7890  202.7870  148.2260 C   0  0  2  0  0  3  0  0  0  0  0  0
  161.0770  202.1170  150.4900 O   0  0  0  0  0  0  0  0  0  0  0  0
  161.1240  201.3270  148.2730 C   0  0  0  0  0  2  0  0  0  0  0  0
  1 22  1  1  0  0  0
  3 15  1  0  0  0  0
  4 20  1  0  0  0  0
  5 14  1  0  0  0  0
  6 17  1  0  0  0  0
  7  3  1  0  0  0  0
  7  6  1  0  0  0  0
  8 11  1  0  0  0  0
  9 21  1  6  0  0  0
  9 23  1  0  0  0  0
 10  5  2  0  0  0  0
 12 24  1  6  0  0  0
 12 18  1  0  0  0  0
 12  9  1  0  0  0  0
 13  2  1  0  0  0  0
 14 11  1  6  0  0  0
 14  4  1  0  0  0  0
 15  8  1  0  0  0  0
 16  4  2  0  0  0  0
 16  1  1  0  0  0  0
 17  5  1  0  0  0  0
 18 10  1  1  0  0  0
 18 16  1  0  0  0  0
 20 19  1  0  0  0  0
 21 13  1  0  0  0  0
 22 19  2  0  0  0  0
 23  1  1  0  0  0  0
 23  2  1  1  0  0  0
 25 24  1  0  0  0  0
 26 25  1  0  0  0  0
 27 28  1  0  0  0  0
 27 26  1  0  0  0  0
 28 29  1  0  0  0  0
 30 33  1  0  0  0  0
 31 33  1  0  0  0  0
 32 29  1  1  0  0  0
 32 34  1  0  0  0  0
 32 31  1  0  0  0  0
 34 30  1  0  0  0  0
M  END
>  <MODEL>
9

>  <REMARK>
 VINA RESULT:      -6.0      2.488      7.588
  Name = 
  7 active torsions:
  status: ('A' for Active; 'I' for Inactive)
    1  A    between atoms: C_10  and  O_17
    2  A    between atoms: C_10  and  C_22
    3  A    between atoms: C_13  and  C_24
    4  A    between atoms: O_17  and  C_28
    5  A    between atoms: C_22  and  C_24
    6  A    between atoms: C_28  and  C_29
    7  A    between atoms: C_29  and  C_32
                            x       y       z     vdW  Elec       q    Type
                         _______ _______ _______ _____ _____    ______ ____

>  <TORSDO>
F 7

$$$$
