=
 OpenBabel11122412593D

 32 38  0  0  1  0  0  0  0  0999 V2000
  161.4030  210.0570  154.6470 C   0  0  1  0  0  3  0  0  0  0  0  0
  161.3920  206.8390  150.5180 C   0  0  0  0  0  0  0  0  0  0  0  0
  160.6320  202.3920  152.3780 C   0  0  0  0  0  3  0  0  0  0  0  0
  160.6840  201.8380  151.1020 C   0  0  0  0  0  3  0  0  0  0  0  0
  161.4010  207.1150  148.0900 C   0  0  1  0  0  3  0  0  0  0  0  0
  161.3620  206.4900  146.7690 C   0  0  2  0  0  3  0  0  0  0  0  0
  161.0610  208.7810  151.9920 N   0  0  1  0  0  0  0  0  0  0  0  0
  161.1150  206.5640  153.0270 C   0  0  0  0  0  2  0  0  0  0  0  0
  161.0410  204.7770  145.3610 C   0  0  0  0  0  0  0  0  0  0  0  0
  161.1990  208.5540  154.5070 C   0  0  2  0  0  3  0  0  0  0  0  0
  160.8040  203.7650  152.5480 C   0  0  0  0  0  3  0  0  0  0  0  0
  161.2150  205.9880  151.6310 C   0  0  0  0  0  0  0  0  0  0  0  0
  161.0250  204.6090  151.4440 C   0  0  0  0  0  0  0  0  0  0  0  0
  161.2990  204.8820  149.0260 C   0  0  0  0  0  0  0  0  0  0  0  0
  160.3910  205.8070  144.9310 N   0  0  0  0  0  0  0  0  0  0  0  0
  161.9940  210.6930  153.3780 C   0  0  0  0  0  2  0  0  0  0  0  0
  161.6000  208.0060  153.1220 C   0  0  2  0  0  3  0  0  0  0  0  0
  160.5550  206.8630  145.8330 N   0  0  0  0  0  2  0  0  0  0  0  0
  161.3730  210.2190  152.0550 C   0  0  0  0  0  2  0  0  0  0  0  0
  159.9990  209.4940  154.4710 C   0  0  1  0  0  3  0  0  0  0  0  0
  160.9040  202.6600  149.9960 C   0  0  0  0  0  3  0  0  0  0  0  0
  161.0730  204.0510  150.1450 C   0  0  0  0  0  0  0  0  0  0  0  0
  161.4150  204.3110  147.7990 C   0  0  0  0  0  2  0  0  0  0  0  0
  161.7130  208.2920  150.7840 C   0  0  0  0  0  2  0  0  0  0  0  0
  161.3570  208.5040  148.1610 O   0  0  0  0  0  1  0  0  0  0  0  0
  161.1060  203.4920  144.6150 C   0  0  0  0  0  1  0  0  0  0  0  0
  161.3970  206.3080  149.1950 C   0  0  0  0  0  0  0  0  0  0  0  0
  161.8200  205.0970  146.5900 C   0  0  2  0  0  3  0  0  0  0  0  0
  159.3550  209.4650  155.7080 O   0  0  0  0  0  0  0  0  0  0  0  0
  158.8400  210.7520  155.8720 C   0  0  2  0  0  3  0  0  0  0  0  0
  159.1720  211.2580  157.2610 C   0  0  0  0  0  1  0  0  0  0  0  0
  157.4550  210.7240  155.7100 O   0  0  0  0  0  1  0  0  0  0  0  0
  1 16  1  6  0  0  0
  2 24  1  0  0  0  0
  2 12  1  0  0  0  0
  3 11  2  0  0  0  0
  4  3  1  0  0  0  0
  5 25  1  1  0  0  0
  5 27  1  0  0  0  0
  6 18  1  1  0  0  0
  6  5  1  0  0  0  0
  7 24  1  6  0  0  0
  7 19  1  0  0  0  0
  7 17  1  0  0  0  0
  8 17  1  0  0  0  0
  9 28  1  0  0  0  0
 10  1  1  0  0  0  0
 12  8  1  0  0  0  0
 13 12  2  0  0  0  0
 13 11  1  0  0  0  0
 14 27  1  0  0  0  0
 14 22  2  0  0  0  0
 15  9  2  0  0  0  0
 15 18  1  0  0  0  0
 17 10  1  0  0  0  0
 19 16  1  0  0  0  0
 20 10  1  0  0  0  0
 20  1  1  0  0  0  0
 20 29  1  0  0  0  0
 21 22  1  0  0  0  0
 21  4  2  0  0  0  0
 22 13  1  0  0  0  0
 23 14  1  0  0  0  0
 26  9  1  0  0  0  0
 27  2  2  0  0  0  0
 28  6  1  0  0  0  0
 28 23  1  0  0  0  0
 29 30  1  0  0  0  0
 30 31  1  0  0  0  0
 32 30  1  0  0  0  0
M  END
>  <MODEL>
1

>  <REMARK>
 VINA RESULT:      -9.9      0.000      0.000
  Name = 
  2 active torsions:
  status: ('A' for Active; 'I' for Inactive)
    1  A    between atoms: C_20  and  O_29
    2  A    between atoms: O_29  and  C_30
                            x       y       z     vdW  Elec       q    Type
                         _______ _______ _______ _____ _____    ______ ____

>  <TORSDO>
F 2

$$$$
=
 OpenBabel11122412593D

 32 38  0  0  1  0  0  0  0  0999 V2000
  162.3250  210.6550  151.1460 C   0  0  1  0  0  3  0  0  0  0  0  0
  161.5350  206.0730  148.7420 C   0  0  0  0  0  0  0  0  0  0  0  0
  161.0260  202.8220  152.3460 C   0  0  0  0  0  3  0  0  0  0  0  0
  160.8440  201.8030  151.4150 C   0  0  0  0  0  3  0  0  0  0  0  0
  161.1250  205.3560  146.4430 C   0  0  1  0  0  3  0  0  0  0  0  0
  160.8450  204.2630  145.5140 C   0  0  2  0  0  3  0  0  0  0  0  0
  161.5020  208.4630  149.3280 N   0  0  1  0  0  0  0  0  0  0  0  0
  161.6940  206.8470  151.1560 C   0  0  0  0  0  2  0  0  0  0  0  0
  160.2520  202.1670  144.9930 C   0  0  0  0  0  0  0  0  0  0  0  0
  162.0720  209.2470  151.6640 C   0  0  2  0  0  3  0  0  0  0  0  0
  161.2510  204.1280  151.9130 C   0  0  0  0  0  3  0  0  0  0  0  0
  161.5380  205.7550  150.1190 C   0  0  0  0  0  0  0  0  0  0  0  0
  161.2920  204.4390  150.5410 C   0  0  0  0  0  0  0  0  0  0  0  0
  161.1460  203.7000  148.2110 C   0  0  0  0  0  0  0  0  0  0  0  0
  159.5560  202.9920  144.2840 N   0  0  0  0  0  0  0  0  0  0  0  0
  162.6980  210.6790  149.6550 C   0  0  0  0  0  2  0  0  0  0  0  0
  162.2150  208.1580  150.5800 C   0  0  2  0  0  3  0  0  0  0  0  0
  159.8940  204.3010  144.6410 N   0  0  0  0  0  2  0  0  0  0  0  0
  161.8470  209.7730  148.7510 C   0  0  0  0  0  2  0  0  0  0  0  0
  160.9020  210.1950  151.4300 C   0  0  1  0  0  3  0  0  0  0  0  0
  160.8840  202.0930  150.0510 C   0  0  0  0  0  3  0  0  0  0  0  0
  161.1030  203.4080  149.5920 C   0  0  0  0  0  0  0  0  0  0  0  0
  161.0350  202.6800  147.3220 C   0  0  0  0  0  2  0  0  0  0  0  0
  161.9240  207.4770  148.3410 C   0  0  0  0  0  2  0  0  0  0  0  0
  161.1200  206.6570  145.9460 O   0  0  0  0  0  1  0  0  0  0  0  0
  160.1610  200.6900  144.8360 C   0  0  0  0  0  1  0  0  0  0  0  0
  161.2980  205.0600  147.7670 C   0  0  0  0  0  0  0  0  0  0  0  0
  161.2390  202.8800  145.8510 C   0  0  2  0  0  3  0  0  0  0  0  0
  160.4820  210.7190  152.6540 O   0  0  0  0  0  0  0  0  0  0  0  0
  159.3130  211.4220  152.3580 C   0  0  2  0  0  3  0  0  0  0  0  0
  159.6570  212.8610  152.0320 C   0  0  0  0  0  1  0  0  0  0  0  0
  158.4590  211.3900  153.4600 O   0  0  0  0  0  1  0  0  0  0  0  0
  1 16  1  6  0  0  0
  1 20  1  0  0  0  0
  1 10  1  0  0  0  0
  2 12  1  0  0  0  0
  4  3  1  0  0  0  0
  5 25  1  1  0  0  0
  5 27  1  0  0  0  0
  6 18  1  1  0  0  0
  6 28  1  0  0  0  0
  6  5  1  0  0  0  0
  7 24  1  6  0  0  0
  7 17  1  0  0  0  0
  9 28  1  0  0  0  0
 11  3  2  0  0  0  0
 12 13  2  0  0  0  0
 12  8  1  0  0  0  0
 13 11  1  0  0  0  0
 14 22  2  0  0  0  0
 15 18  1  0  0  0  0
 15  9  2  0  0  0  0
 17  8  1  0  0  0  0
 17 10  1  0  0  0  0
 19  7  1  0  0  0  0
 19 16  1  0  0  0  0
 20 10  1  0  0  0  0
 20 29  1  0  0  0  0
 21  4  2  0  0  0  0
 22 21  1  0  0  0  0
 22 13  1  0  0  0  0
 23 14  1  0  0  0  0
 24  2  1  0  0  0  0
 26  9  1  0  0  0  0
 27 14  1  0  0  0  0
 27  2  2  0  0  0  0
 28 23  1  0  0  0  0
 30 29  1  0  0  0  0
 30 32  1  0  0  0  0
 31 30  1  0  0  0  0
M  END
>  <MODEL>
2

>  <REMARK>
 VINA RESULT:      -9.6      2.035      2.649
  Name = 
  2 active torsions:
  status: ('A' for Active; 'I' for Inactive)
    1  A    between atoms: C_20  and  O_29
    2  A    between atoms: O_29  and  C_30
                            x       y       z     vdW  Elec       q    Type
                         _______ _______ _______ _____ _____    ______ ____

>  <TORSDO>
F 2

$$$$
=
 OpenBabel11122412593D

 32 38  0  0  1  0  0  0  0  0999 V2000
  160.8920  210.3100  157.1080 C   0  0  1  0  0  3  0  0  0  0  0  0
  161.0030  207.4300  152.7390 C   0  0  0  0  0  0  0  0  0  0  0  0
  162.2100  210.5560  149.1910 C   0  0  0  0  0  3  0  0  0  0  0  0
  162.1530  209.5290  148.2520 C   0  0  0  0  0  3  0  0  0  0  0  0
  160.8710  205.0470  152.2150 C   0  0  1  0  0  3  0  0  0  0  0  0
  160.9080  203.9940  151.2010 C   0  0  2  0  0  3  0  0  0  0  0  0
  161.2310  208.1830  155.0700 N   0  0  1  0  0  0  0  0  0  0  0  0
  161.4050  209.8720  153.3070 C   0  0  0  0  0  2  0  0  0  0  0  0
  161.3130  203.1870  149.1510 C   0  0  0  0  0  0  0  0  0  0  0  0
  161.2150  210.6430  155.6590 C   0  0  2  0  0  3  0  0  0  0  0  0
  161.9300  210.2900  150.5300 C   0  0  0  0  0  3  0  0  0  0  0  0
  161.2970  208.7420  152.3060 C   0  0  0  0  0  0  0  0  0  0  0  0
  161.5940  208.9920  150.9560 C   0  0  0  0  0  0  0  0  0  0  0  0
  161.1990  206.6360  150.4150 C   0  0  0  0  0  0  0  0  0  0  0  0
  161.8570  202.4100  150.0270 N   0  0  0  0  0  0  0  0  0  0  0  0
  160.1980  208.9460  157.2610 C   0  0  0  0  0  2  0  0  0  0  0  0
  160.8050  209.5340  154.6670 C   0  0  2  0  0  3  0  0  0  0  0  0
  161.6430  202.9370  151.3040 N   0  0  0  0  0  2  0  0  0  0  0  0
  160.8020  207.8050  156.4270 C   0  0  0  0  0  2  0  0  0  0  0  0
  162.3300  210.2300  156.6130 C   0  0  1  0  0  3  0  0  0  0  0  0
  161.8190  208.2360  148.6560 C   0  0  0  0  0  3  0  0  0  0  0  0
  161.5390  207.9450  150.0070 C   0  0  0  0  0  0  0  0  0  0  0  0
  161.0810  205.6660  149.4730 C   0  0  0  0  0  2  0  0  0  0  0  0
  160.5730  207.2400  154.1750 C   0  0  0  0  0  2  0  0  0  0  0  0
  160.8020  204.6680  153.5520 O   0  0  0  0  0  1  0  0  0  0  0  0
  161.3260  202.8960  147.6930 C   0  0  0  0  0  1  0  0  0  0  0  0
  160.9890  206.3480  151.8100 C   0  0  0  0  0  0  0  0  0  0  0  0
  160.5620  204.2990  149.7980 C   0  0  2  0  0  3  0  0  0  0  0  0
  163.0250  211.3670  157.0280 O   0  0  0  0  0  0  0  0  0  0  0  0
  164.3510  211.1260  156.6640 C   0  0  2  0  0  3  0  0  0  0  0  0
  165.2400  212.2050  157.2490 C   0  0  0  0  0  1  0  0  0  0  0  0
  164.4620  211.1400  155.2740 O   0  0  0  0  0  1  0  0  0  0  0  0
  1 16  1  6  0  0  0
  2 24  1  0  0  0  0
  3 11  2  0  0  0  0
  4 21  2  0  0  0  0
  4  3  1  0  0  0  0
  5 25  1  1  0  0  0
  6 18  1  6  0  0  0
  6  5  1  0  0  0  0
  7 24  1  6  0  0  0
  7 19  1  0  0  0  0
  8 17  1  0  0  0  0
  9 28  1  0  0  0  0
  9 15  2  0  0  0  0
 10 20  1  0  0  0  0
 10  1  1  0  0  0  0
 11 13  1  0  0  0  0
 12  2  1  0  0  0  0
 12  8  1  0  0  0  0
 13 12  2  0  0  0  0
 14 27  1  0  0  0  0
 15 18  1  0  0  0  0
 17  7  1  0  0  0  0
 17 10  1  0  0  0  0
 19 16  1  0  0  0  0
 20 29  1  0  0  0  0
 20  1  1  0  0  0  0
 21 22  1  0  0  0  0
 22 14  2  0  0  0  0
 22 13  1  0  0  0  0
 23 28  1  0  0  0  0
 23 14  1  0  0  0  0
 26  9  1  0  0  0  0
 27  5  1  0  0  0  0
 27  2  2  0  0  0  0
 28  6  1  0  0  0  0
 30 29  1  0  0  0  0
 30 31  1  0  0  0  0
 32 30  1  0  0  0  0
M  END
>  <MODEL>
3

>  <REMARK>
 VINA RESULT:      -7.8      2.818      4.872
  Name = 
  2 active torsions:
  status: ('A' for Active; 'I' for Inactive)
    1  A    between atoms: C_20  and  O_29
    2  A    between atoms: O_29  and  C_30
                            x       y       z     vdW  Elec       q    Type
                         _______ _______ _______ _____ _____    ______ ____

>  <TORSDO>
F 2

$$$$
=
 OpenBabel11122412593D

 32 38  0  0  1  0  0  0  0  0999 V2000
  160.5570  209.3940  155.4690 C   0  0  1  0  0  3  0  0  0  0  0  0
  160.8200  205.9060  151.5750 C   0  0  0  0  0  0  0  0  0  0  0  0
  162.2510  208.4660  147.6750 C   0  0  0  0  0  3  0  0  0  0  0  0
  162.2190  207.3140  146.8930 C   0  0  0  0  0  3  0  0  0  0  0  0
  160.6680  203.4740  151.3970 C   0  0  1  0  0  3  0  0  0  0  0  0
  160.7330  202.2840  150.5500 C   0  0  2  0  0  3  0  0  0  0  0  0
  160.9510  206.9890  153.7810 N   0  0  1  0  0  0  0  0  0  0  0  0
  161.2410  208.4000  151.8020 C   0  0  0  0  0  2  0  0  0  0  0  0
  161.2190  201.1820  148.6610 C   0  0  0  0  0  0  0  0  0  0  0  0
  160.9540  209.5080  154.0040 C   0  0  2  0  0  3  0  0  0  0  0  0
  161.9040  208.4020  149.0230 C   0  0  0  0  0  3  0  0  0  0  0  0
  161.1580  207.1370  150.9710 C   0  0  0  0  0  0  0  0  0  0  0  0
  161.5230  207.1840  149.6160 C   0  0  0  0  0  0  0  0  0  0  0  0
  161.1100  204.7790  149.4040 C   0  0  0  0  0  0  0  0  0  0  0  0
  161.7060  200.5340  149.6670 N   0  0  0  0  0  0  0  0  0  0  0  0
  159.8310  208.0760  155.7830 C   0  0  0  0  0  2  0  0  0  0  0  0
  160.5710  208.2710  153.1650 C   0  0  2  0  0  3  0  0  0  0  0  0
  161.4420  201.2450  150.8410 N   0  0  0  0  0  2  0  0  0  0  0  0
  160.4520  206.8180  155.1550 C   0  0  0  0  0  2  0  0  0  0  0  0
  162.0150  209.2260  155.0630 C   0  0  1  0  0  3  0  0  0  0  0  0
  161.8420  206.0980  147.4640 C   0  0  0  0  0  3  0  0  0  0  0  0
  161.4940  206.0100  148.8280 C   0  0  0  0  0  0  0  0  0  0  0  0
  161.0180  203.6840  148.6080 C   0  0  0  0  0  2  0  0  0  0  0  0
  160.3180  205.9330  153.0000 C   0  0  0  0  0  2  0  0  0  0  0  0
  160.5280  203.2950  152.7700 O   0  0  0  0  0  1  0  0  0  0  0  0
  161.2950  200.6810  147.2630 C   0  0  0  0  0  1  0  0  0  0  0  0
  160.8290  204.7010  150.8130 C   0  0  0  0  0  0  0  0  0  0  0  0
  160.4590  202.3850  149.1020 C   0  0  2  0  0  3  0  0  0  0  0  0
  162.7100  210.4030  155.3420 O   0  0  0  0  0  0  0  0  0  0  0  0
  162.7830  210.4510  156.7350 C   0  0  2  0  0  3  0  0  0  0  0  0
  164.0370  211.1920  157.1510 C   0  0  0  0  0  1  0  0  0  0  0  0
  162.8220  209.1540  157.2450 O   0  0  0  0  0  1  0  0  0  0  0  0
  1 16  1  6  0  0  0
  2 24  1  0  0  0  0
  3 11  2  0  0  0  0
  4 21  2  0  0  0  0
  4  3  1  0  0  0  0
  5 25  1  1  0  0  0
  6 18  1  6  0  0  0
  6  5  1  0  0  0  0
  7 24  1  6  0  0  0
  7 19  1  0  0  0  0
  8 17  1  0  0  0  0
  9 28  1  0  0  0  0
  9 15  2  0  0  0  0
 10 20  1  0  0  0  0
 10  1  1  0  0  0  0
 11 13  1  0  0  0  0
 12  2  1  0  0  0  0
 12  8  1  0  0  0  0
 13 12  2  0  0  0  0
 14 27  1  0  0  0  0
 15 18  1  0  0  0  0
 17  7  1  0  0  0  0
 17 10  1  0  0  0  0
 19 16  1  0  0  0  0
 20 29  1  0  0  0  0
 20  1  1  0  0  0  0
 21 22  1  0  0  0  0
 22 14  2  0  0  0  0
 22 13  1  0  0  0  0
 23 28  1  0  0  0  0
 23 14  1  0  0  0  0
 26  9  1  0  0  0  0
 27  5  1  0  0  0  0
 27  2  2  0  0  0  0
 28  6  1  0  0  0  0
 29 30  1  0  0  0  0
 30 31  1  0  0  0  0
 30 32  1  0  0  0  0
M  END
>  <MODEL>
4

>  <REMARK>
 VINA RESULT:      -7.4      2.874      4.403
  Name = 
  2 active torsions:
  status: ('A' for Active; 'I' for Inactive)
    1  A    between atoms: C_20  and  O_29
    2  A    between atoms: O_29  and  C_30
                            x       y       z     vdW  Elec       q    Type
                         _______ _______ _______ _____ _____    ______ ____

>  <TORSDO>
F 2

$$$$
=
 OpenBabel11122412593D

 32 38  0  0  1  0  0  0  0  0999 V2000
  161.5480  214.1080  146.7910 C   0  0  1  0  0  3  0  0  0  0  0  0
  160.7260  211.4730  151.2390 C   0  0  0  0  0  0  0  0  0  0  0  0
  157.0410  213.8040  153.4310 C   0  0  0  0  0  3  0  0  0  0  0  0
  157.0880  212.9030  154.4920 C   0  0  0  0  0  3  0  0  0  0  0  0
  161.5290  209.3750  152.1990 C   0  0  1  0  0  3  0  0  0  0  0  0
  161.4780  208.4110  153.2960 C   0  0  2  0  0  3  0  0  0  0  0  0
  161.2290  212.0480  148.8990 N   0  0  1  0  0  0  0  0  0  0  0  0
  159.6960  213.5100  150.1250 C   0  0  0  0  0  2  0  0  0  0  0  0
  160.5930  207.5170  155.1500 C   0  0  0  0  0  0  0  0  0  0  0  0
  160.5440  214.2780  147.9230 C   0  0  2  0  0  3  0  0  0  0  0  0
  157.9360  213.6770  152.3700 C   0  0  0  0  0  3  0  0  0  0  0  0
  159.7980  212.5380  151.2810 C   0  0  0  0  0  0  0  0  0  0  0  0
  158.8910  212.6430  152.3470 C   0  0  0  0  0  0  0  0  0  0  0  0
  159.8930  210.6810  153.4180 C   0  0  0  0  0  0  0  0  0  0  0  0
  160.8130  206.5780  154.2910 N   0  0  0  0  0  0  0  0  0  0  0  0
  162.7060  213.1690  147.1640 C   0  0  0  0  0  2  0  0  0  0  0  0
  160.8910  213.4530  149.1800 C   0  0  2  0  0  3  0  0  0  0  0  0
  161.3240  207.1410  153.1170 N   0  0  0  0  0  2  0  0  0  0  0  0
  162.2970  211.8830  147.9000 C   0  0  0  0  0  2  0  0  0  0  0  0
  160.1880  213.4260  146.7100 C   0  0  1  0  0  3  0  0  0  0  0  0
  158.0300  211.8730  154.4870 C   0  0  0  0  0  3  0  0  0  0  0  0
  158.9390  211.7230  153.4200 C   0  0  0  0  0  0  0  0  0  0  0  0
  159.9670  209.8580  154.4940 C   0  0  0  0  0  2  0  0  0  0  0  0
  161.7570  211.4780  150.1330 C   0  0  0  0  0  2  0  0  0  0  0  0
  162.2950  209.0560  151.0800 O   0  0  0  0  0  1  0  0  0  0  0  0
  160.0810  207.2540  156.5210 C   0  0  0  0  0  1  0  0  0  0  0  0
  160.7630  210.5040  152.2840 C   0  0  0  0  0  0  0  0  0  0  0  0
  161.0550  208.8400  154.6450 C   0  0  2  0  0  3  0  0  0  0  0  0
  159.3550  214.1580  145.8630 O   0  0  0  0  0  0  0  0  0  0  0  0
  158.5810  213.1980  145.2090 C   0  0  2  0  0  3  0  0  0  0  0  0
  157.6070  212.5780  146.1900 C   0  0  0  0  0  1  0  0  0  0  0  0
  159.4120  212.2030  144.6920 O   0  0  0  0  0  1  0  0  0  0  0  0
  1 16  1  1  0  0  0
  1 10  1  0  0  0  0
  2 12  2  0  0  0  0
  2 27  1  0  0  0  0
  3  4  1  0  0  0  0
  5 25  1  6  0  0  0
  5 27  1  0  0  0  0
  5  6  1  0  0  0  0
  6 18  1  6  0  0  0
  6 28  1  0  0  0  0
  7 19  1  6  0  0  0
  7 17  1  0  0  0  0
  7 24  1  0  0  0  0
  8 12  1  0  0  0  0
  9 26  1  0  0  0  0
 10 17  1  0  0  0  0
 11  3  2  0  0  0  0
 12 13  1  0  0  0  0
 13 11  1  0  0  0  0
 13 22  2  0  0  0  0
 14 22  1  0  0  0  0
 14 23  1  0  0  0  0
 15  9  2  0  0  0  0
 16 19  1  0  0  0  0
 17  8  1  0  0  0  0
 18 15  1  0  0  0  0
 20  1  1  0  0  0  0
 20 10  1  0  0  0  0
 21  4  2  0  0  0  0
 22 21  1  0  0  0  0
 23 28  1  0  0  0  0
 24  2  1  0  0  0  0
 27 14  2  0  0  0  0
 28  9  1  0  0  0  0
 29 20  1  0  0  0  0
 30 29  1  0  0  0  0
 30 31  1  0  0  0  0
 32 30  1  0  0  0  0
M  END
>  <MODEL>
5

>  <REMARK>
 VINA RESULT:      -7.1      4.867      8.601
  Name = 
  2 active torsions:
  status: ('A' for Active; 'I' for Inactive)
    1  A    between atoms: C_20  and  O_29
    2  A    between atoms: O_29  and  C_30
                            x       y       z     vdW  Elec       q    Type
                         _______ _______ _______ _____ _____    ______ ____

>  <TORSDO>
F 2

$$$$
