=
 OpenBabel11122414153D

 34 42  0  0  1  0  0  0  0  0999 V2000
  161.1330  204.9800  151.9180 C   0  0  0  0  0  0  0  0  0  0  0  0
  161.2870  206.4870  153.8290 C   0  0  0  0  0  3  0  0  0  0  0  0
  161.3140  203.8950  145.2980 C   0  0  2  0  0  0  0  0  0  0  0  0
  161.0090  203.6780  149.8420 C   0  0  0  0  0  0  0  0  0  0  0  0
  161.3370  204.8070  147.7030 C   0  0  0  0  0  0  0  0  0  0  0  0
  161.6600  205.7980  145.2890 C   0  0  2  0  0  3  0  0  0  0  0  0
  161.5510  204.8680  144.2770 O   0  0  0  0  0  0  0  0  0  0  0  0
  160.8720  201.8520  146.5140 C   0  0  0  0  0  3  0  0  0  0  0  0
  161.5430  207.3300  151.8500 C   0  0  0  0  0  0  0  0  0  0  0  0
  162.3190  210.3280  151.2760 C   0  0  0  0  0  2  0  0  0  0  0  0
  161.5150  206.0150  148.3820 C   0  0  0  0  0  3  0  0  0  0  0  0
  160.8800  202.3290  147.8360 C   0  0  0  0  0  2  0  0  0  0  0  0
  161.6270  207.3360  150.4390 C   0  0  0  0  0  0  0  0  0  0  0  0
  161.4790  207.8080  154.0260 N   0  0  0  0  0  0  0  0  0  0  0  0
  161.0760  203.6050  148.4240 C   0  0  0  0  0  0  0  0  0  0  0  0
  161.0670  202.5460  145.3270 C   0  0  0  0  0  3  0  0  0  0  0  0
  161.7870  209.8170  152.5670 C   0  0  0  0  0  0  0  0  0  0  0  0
  161.1910  204.9160  150.5080 C   0  0  2  0  0  3  0  0  0  0  0  0
  161.4260  204.8460  146.3270 C   0  0  2  0  0  3  0  0  0  0  0  0
  161.4450  206.0970  149.7740 C   0  0  0  0  0  0  0  0  0  0  0  0
  160.7030  202.6010  152.0150 C   0  0  0  0  0  3  0  0  0  0  0  0
  161.4660  209.8440  150.1280 C   0  0  0  0  0  2  0  0  0  0  0  0
  160.7630  202.5300  150.6230 C   0  0  0  0  0  3  0  0  0  0  0  0
  162.0460  208.5390  149.6330 C   0  0  0  0  0  2  0  0  0  0  0  0
  161.6300  208.3520  152.7960 C   0  0  0  0  0  0  0  0  0  0  0  0
  160.8870  203.8210  152.6630 C   0  0  0  0  0  3  0  0  0  0  0  0
  161.3140  206.1850  152.5180 N   0  0  0  0  0  0  0  0  0  0  0  0
  161.4880  210.7100  153.4680 N   0  0  0  0  0  0  0  0  0  0  0  0
  160.9100  210.4560  154.7830 C   0  0  0  0  0  2  0  0  0  0  0  0
  158.2020  211.7960  153.5410 O   0  0  0  0  0  0  0  0  0  0  0  0
  158.6590  210.9440  155.6920 C   0  0  0  0  0  2  0  0  0  0  0  0
  159.9220  211.5520  155.1530 C   0  0  2  0  0  3  0  0  0  0  0  0
  157.5890  211.4350  154.7480 C   0  0  0  0  0  2  0  0  0  0  0  0
  159.4720  212.2710  153.9020 C   0  0  0  0  0  2  0  0  0  0  0  0
  1 27  1  0  0  0  0
  1 26  2  0  0  0  0
  2 14  2  0  0  0  0
  3 16  1  6  0  0  0
  3 19  1  0  0  0  0
  4 18  1  0  0  0  0
  4 23  1  0  0  0  0
  5 11  2  0  0  0  0
  5 15  1  0  0  0  0
  6  7  1  1  0  0  0
  6  3  1  0  0  0  0
  6 19  1  0  0  0  0
  7  3  1  0  0  0  0
  8 12  1  0  0  0  0
  9 27  1  0  0  0  0
  9 25  2  0  0  0  0
 10 17  1  0  0  0  0
 11 20  1  0  0  0  0
 12 15  1  0  0  0  0
 13  9  1  0  0  0  0
 15  4  2  0  0  0  0
 16  8  2  0  0  0  0
 17 25  1  0  0  0  0
 17 28  2  0  0  0  0
 18 20  1  1  0  0  0
 18  1  1  0  0  0  0
 19  5  1  6  0  0  0
 20 13  2  0  0  0  0
 21 26  1  0  0  0  0
 22 10  1  0  0  0  0
 23 21  2  0  0  0  0
 24 22  1  0  0  0  0
 24 13  1  0  0  0  0
 25 14  1  0  0  0  0
 27  2  1  0  0  0  0
 28 29  1  0  0  0  0
 30 34  1  0  0  0  0
 30 33  1  0  0  0  0
 32 29  1  6  0  0  0
 32 31  1  0  0  0  0
 33 31  1  0  0  0  0
 34 32  1  0  0  0  0
M  END
>  <MODEL>
1

>  <REMARK>
 VINA RESULT:     -12.2      0.000      0.000
  Name = 
  2 active torsions:
  status: ('A' for Active; 'I' for Inactive)
    1  A    between atoms: N_28  and  C_29
    2  A    between atoms: C_29  and  C_32
                            x       y       z     vdW  Elec       q    Type
                         _______ _______ _______ _____ _____    ______ ____

>  <TORSDO>
F 2

$$$$
=
 OpenBabel11122414153D

 34 42  0  0  1  0  0  0  0  0999 V2000
  161.0420  205.1570  151.8270 C   0  0  0  0  0  0  0  0  0  0  0  0
  161.1050  206.7550  153.6670 C   0  0  0  0  0  3  0  0  0  0  0  0
  161.4300  203.7650  145.2740 C   0  0  2  0  0  0  0  0  0  0  0  0
  161.0080  203.7540  149.8140 C   0  0  0  0  0  0  0  0  0  0  0  0
  161.3640  204.7900  147.6320 C   0  0  0  0  0  0  0  0  0  0  0  0
  161.7270  205.6740  145.1820 C   0  0  2  0  0  3  0  0  0  0  0  0
  161.6700  204.6950  144.2130 O   0  0  0  0  0  0  0  0  0  0  0  0
  161.0090  201.7710  146.5750 C   0  0  0  0  0  3  0  0  0  0  0  0
  161.3920  207.5110  151.6570 C   0  0  0  0  0  0  0  0  0  0  0  0
  162.1060  210.4990  150.9600 C   0  0  0  0  0  2  0  0  0  0  0  0
  161.4930  206.0330  148.2570 C   0  0  0  0  0  3  0  0  0  0  0  0
  160.9690  202.3100  147.8710 C   0  0  0  0  0  2  0  0  0  0  0  0
  161.5150  207.4530  150.2500 C   0  0  0  0  0  0  0  0  0  0  0  0
  161.2570  208.0890  153.8060 N   0  0  0  0  0  0  0  0  0  0  0  0
  161.1160  203.6170  148.4030 C   0  0  0  0  0  0  0  0  0  0  0  0
  161.2180  202.4130  145.3610 C   0  0  0  0  0  3  0  0  0  0  0  0
  161.5530  210.0340  152.2600 C   0  0  0  0  0  0  0  0  0  0  0  0
  161.1400  205.0270  150.4240 C   0  0  2  0  0  3  0  0  0  0  0  0
  161.4900  204.7670  146.2580 C   0  0  2  0  0  3  0  0  0  0  0  0
  161.3830  206.1790  149.6410 C   0  0  0  0  0  0  0  0  0  0  0  0
  160.6710  202.7740  152.0270 C   0  0  0  0  0  3  0  0  0  0  0  0
  161.2970  209.9370  149.8150 C   0  0  0  0  0  2  0  0  0  0  0  0
  160.7710  202.6380  150.6420 C   0  0  0  0  0  3  0  0  0  0  0  0
  161.9240  208.6270  149.3990 C   0  0  0  0  0  2  0  0  0  0  0  0
  161.4270  208.5780  152.5550 C   0  0  0  0  0  0  0  0  0  0  0  0
  160.8060  204.0280  152.6200 C   0  0  0  0  0  3  0  0  0  0  0  0
  161.1750  206.3930  152.3730 N   0  0  0  0  0  0  0  0  0  0  0  0
  161.2060  210.9610  153.1100 N   0  0  0  0  0  0  0  0  0  0  0  0
  160.5990  210.7530  154.4190 C   0  0  0  0  0  2  0  0  0  0  0  0
  161.8520  209.7360  157.2610 O   0  0  0  0  0  0  0  0  0  0  0  0
  162.8790  210.7310  155.3840 C   0  0  0  0  0  2  0  0  0  0  0  0
  161.4980  211.3020  155.5170 C   0  0  2  0  0  3  0  0  0  0  0  0
  163.1030  210.0150  156.6940 C   0  0  0  0  0  2  0  0  0  0  0  0
  161.0230  210.7960  156.8600 C   0  0  0  0  0  2  0  0  0  0  0  0
  1 27  1  0  0  0  0
  1 26  2  0  0  0  0
  2 14  2  0  0  0  0
  3 16  1  6  0  0  0
  3 19  1  0  0  0  0
  4 18  1  0  0  0  0
  4 23  1  0  0  0  0
  5 11  2  0  0  0  0
  5 15  1  0  0  0  0
  6  7  1  1  0  0  0
  6  3  1  0  0  0  0
  6 19  1  0  0  0  0
  7  3  1  0  0  0  0
  8 12  1  0  0  0  0
  9 27  1  0  0  0  0
  9 25  2  0  0  0  0
 10 17  1  0  0  0  0
 11 20  1  0  0  0  0
 12 15  1  0  0  0  0
 13  9  1  0  0  0  0
 15  4  2  0  0  0  0
 16  8  2  0  0  0  0
 17 25  1  0  0  0  0
 17 28  2  0  0  0  0
 18 20  1  1  0  0  0
 18  1  1  0  0  0  0
 19  5  1  6  0  0  0
 20 13  2  0  0  0  0
 21 26  1  0  0  0  0
 22 10  1  0  0  0  0
 23 21  2  0  0  0  0
 24 22  1  0  0  0  0
 24 13  1  0  0  0  0
 25 14  1  0  0  0  0
 27  2  1  0  0  0  0
 28 29  1  0  0  0  0
 31 32  1  0  0  0  0
 31 33  1  0  0  0  0
 32 29  1  6  0  0  0
 32 34  1  0  0  0  0
 33 30  1  0  0  0  0
 34 30  1  0  0  0  0
M  END
>  <MODEL>
2

>  <REMARK>
 VINA RESULT:     -11.4      1.263      1.748
  Name = 
  2 active torsions:
  status: ('A' for Active; 'I' for Inactive)
    1  A    between atoms: N_28  and  C_29
    2  A    between atoms: C_29  and  C_32
                            x       y       z     vdW  Elec       q    Type
                         _______ _______ _______ _____ _____    ______ ____

>  <TORSDO>
F 2

$$$$
=
 OpenBabel11122414153D

 34 42  0  0  1  0  0  0  0  0999 V2000
  161.6530  208.1100  149.9890 C   0  0  0  0  0  0  0  0  0  0  0  0
  161.6510  209.8540  151.6920 C   0  0  0  0  0  3  0  0  0  0  0  0
  160.9640  201.6770  148.2070 C   0  0  2  0  0  0  0  0  0  0  0  0
  161.6130  206.1830  148.4710 C   0  0  0  0  0  0  0  0  0  0  0  0
  161.1280  203.9650  149.3700 C   0  0  0  0  0  0  0  0  0  0  0  0
  160.6270  201.4900  150.1020 C   0  0  2  0  0  3  0  0  0  0  0  0
  160.6540  200.5780  149.0680 O   0  0  0  0  0  0  0  0  0  0  0  0
  161.4880  203.0690  146.3000 C   0  0  0  0  0  3  0  0  0  0  0  0
  161.2500  207.8220  152.3230 C   0  0  0  0  0  0  0  0  0  0  0  0
  160.4460  206.9890  155.2530 C   0  0  0  0  0  2  0  0  0  0  0  0
  161.0070  204.5230  150.6460 C   0  0  0  0  0  3  0  0  0  0  0  0
  161.5820  204.3290  146.9150 C   0  0  0  0  0  2  0  0  0  0  0  0
  161.0580  206.4280  152.1800 C   0  0  0  0  0  0  0  0  0  0  0  0
  161.4810  209.9230  153.0290 N   0  0  0  0  0  0  0  0  0  0  0  0
  161.4370  204.7900  148.2490 C   0  0  0  0  0  0  0  0  0  0  0  0
  161.2050  201.8320  146.8660 C   0  0  0  0  0  3  0  0  0  0  0  0
  161.0720  208.2840  154.8750 C   0  0  0  0  0  0  0  0  0  0  0  0
  161.4870  206.7240  149.7750 C   0  0  0  0  0  0  0  0  0  0  0  0
  160.9340  202.6040  149.2640 C   0  0  2  0  0  3  0  0  0  0  0  0
  161.1840  205.8880  150.8750 C   0  0  0  0  0  0  0  0  0  0  0  0
  162.0780  208.4290  147.6280 C   0  0  0  0  0  3  0  0  0  0  0  0
  161.2060  205.8390  154.6380 C   0  0  0  0  0  2  0  0  0  0  0  0
  161.9120  207.0610  147.4100 C   0  0  0  0  0  2  0  0  0  0  0  0
  160.5840  205.5320  153.2950 C   0  0  0  0  0  2  0  0  0  0  0  0
  161.2390  208.6560  153.4410 C   0  0  0  0  0  0  0  0  0  0  0  0
  161.9490  208.9540  148.9130 C   0  0  0  0  0  3  0  0  0  0  0  0
  161.5240  208.5890  151.2530 N   0  0  0  0  0  0  0  0  0  0  0  0
  161.4430  209.0590  155.8560 N   0  0  0  0  0  0  0  0  0  0  0  0
  162.1180  210.3460  155.7350 C   0  0  0  0  0  2  0  0  0  0  0  0
  159.1420  211.6290  155.3160 O   0  0  0  0  0  0  0  0  0  0  0  0
  160.2380  210.8640  157.2600 C   0  0  0  0  0  2  0  0  0  0  0  0
  161.2700  211.4530  156.3440 C   0  0  2  0  0  3  0  0  0  0  0  0
  158.9260  211.3140  156.6640 C   0  0  0  0  0  2  0  0  0  0  0  0
  160.4560  212.1210  155.2610 C   0  0  0  0  0  2  0  0  0  0  0  0
  1 27  1  0  0  0  0
  2 14  2  0  0  0  0
  3 16  1  1  0  0  0
  3  7  1  0  0  0  0
  3 19  1  0  0  0  0
  3  6  1  0  0  0  0
  4 18  1  0  0  0  0
  5 11  2  0  0  0  0
  6  7  1  6  0  0  0
  8 16  2  0  0  0  0
  8 12  1  0  0  0  0
  9 25  2  0  0  0  0
 11 20  1  0  0  0  0
 12 15  1  0  0  0  0
 13  9  1  0  0  0  0
 13 24  1  0  0  0  0
 14 25  1  0  0  0  0
 15  4  2  0  0  0  0
 15  5  1  0  0  0  0
 17 10  1  0  0  0  0
 17 28  2  0  0  0  0
 18  1  2  0  0  0  0
 18 20  1  0  0  0  0
 19  5  1  1  0  0  0
 19  6  1  0  0  0  0
 20 13  2  0  0  0  0
 21 26  2  0  0  0  0
 22 10  1  0  0  0  0
 23 21  1  0  0  0  0
 23  4  1  0  0  0  0
 24 22  1  0  0  0  0
 25 17  1  0  0  0  0
 26  1  1  0  0  0  0
 27  2  1  0  0  0  0
 27  9  1  0  0  0  0
 29 28  1  0  0  0  0
 30 33  1  0  0  0  0
 32 29  1  6  0  0  0
 32 31  1  0  0  0  0
 33 31  1  0  0  0  0
 34 30  1  0  0  0  0
 34 32  1  0  0  0  0
M  END
>  <MODEL>
3

>  <REMARK>
 VINA RESULT:     -10.8      1.738      3.666
  Name = 
  2 active torsions:
  status: ('A' for Active; 'I' for Inactive)
    1  A    between atoms: N_28  and  C_29
    2  A    between atoms: C_29  and  C_32
                            x       y       z     vdW  Elec       q    Type
                         _______ _______ _______ _____ _____    ______ ____

>  <TORSDO>
F 2

$$$$
=
 OpenBabel11122414153D

 34 42  0  0  1  0  0  0  0  0999 V2000
  161.5910  207.4310  149.6870 C   0  0  0  0  0  0  0  0  0  0  0  0
  161.5450  205.7440  147.9270 C   0  0  0  0  0  3  0  0  0  0  0  0
  161.1130  209.1450  156.1570 C   0  0  2  0  0  0  0  0  0  0  0  0
  161.5770  208.9340  151.6260 C   0  0  0  0  0  0  0  0  0  0  0  0
  161.2060  208.0060  153.8540 C   0  0  0  0  0  0  0  0  0  0  0  0
  160.8330  207.2410  156.3410 C   0  0  2  0  0  3  0  0  0  0  0  0
  160.8740  208.2680  157.2610 O   0  0  0  0  0  0  0  0  0  0  0  0
  161.5270  211.0770  154.7620 C   0  0  0  0  0  3  0  0  0  0  0  0
  161.2220  205.0900  149.9660 C   0  0  0  0  0  0  0  0  0  0  0  0
  160.9140  202.0810  150.8470 C   0  0  0  0  0  2  0  0  0  0  0  0
  161.0920  206.7320  153.2900 C   0  0  0  0  0  3  0  0  0  0  0  0
  161.5820  210.4750  153.4940 C   0  0  0  0  0  2  0  0  0  0  0  0
  161.0870  205.2170  151.3690 C   0  0  0  0  0  0  0  0  0  0  0  0
  161.3370  204.4130  147.8460 N   0  0  0  0  0  0  0  0  0  0  0  0
  161.4500  209.1410  153.0270 C   0  0  0  0  0  0  0  0  0  0  0  0
  161.3130  210.4940  156.0050 C   0  0  0  0  0  3  0  0  0  0  0  0
  160.7710  202.5820  149.4540 C   0  0  0  0  0  0  0  0  0  0  0  0
  161.4550  207.6320  151.0790 C   0  0  0  0  0  0  0  0  0  0  0  0
  161.0710  208.0960  155.2230 C   0  0  2  0  0  3  0  0  0  0  0  0
  161.2090  206.5200  151.9150 C   0  0  0  0  0  0  0  0  0  0  0  0
  161.9560  209.8020  149.3730 C   0  0  0  0  0  3  0  0  0  0  0  0
  160.0960  202.9270  151.7950 C   0  0  0  0  0  2  0  0  0  0  0  0
  161.8270  210.0080  150.7470 C   0  0  0  0  0  2  0  0  0  0  0  0
  160.9790  204.0420  152.3060 C   0  0  0  0  0  2  0  0  0  0  0  0
  161.1220  203.9900  149.1140 C   0  0  0  0  0  0  0  0  0  0  0  0
  161.8400  208.5190  148.8430 C   0  0  0  0  0  3  0  0  0  0  0  0
  161.4690  206.1680  149.2020 N   0  0  0  0  0  0  0  0  0  0  0  0
  160.3430  201.7250  148.5690 N   0  0  0  0  0  0  0  0  0  0  0  0
  160.0790  201.9940  147.1600 C   0  0  0  0  0  2  0  0  0  0  0  0
  161.2060  198.9740  146.6220 O   0  0  0  0  0  0  0  0  0  0  0  0
  160.4560  200.6350  145.1250 C   0  0  0  0  0  2  0  0  0  0  0  0
  161.1230  201.3180  146.2830 C   0  0  2  0  0  3  0  0  0  0  0  0
  160.8480  199.1870  145.2840 C   0  0  0  0  0  2  0  0  0  0  0  0
  161.7710  200.1870  147.0480 C   0  0  0  0  0  2  0  0  0  0  0  0
  1 18  2  0  0  0  0
  2 27  1  0  0  0  0
  3 16  1  6  0  0  0
  3  6  1  0  0  0  0
  3  7  1  0  0  0  0
  4 15  2  0  0  0  0
  6  7  1  1  0  0  0
  8 16  2  0  0  0  0
  9 13  1  0  0  0  0
 10 22  1  0  0  0  0
 11  5  2  0  0  0  0
 12  8  1  0  0  0  0
 13 20  2  0  0  0  0
 13 24  1  0  0  0  0
 14  2  2  0  0  0  0
 14 25  1  0  0  0  0
 15 12  1  0  0  0  0
 15  5  1  0  0  0  0
 17 10  1  0  0  0  0
 18  4  1  0  0  0  0
 18 20  1  0  0  0  0
 19  5  1  6  0  0  0
 19  3  1  0  0  0  0
 19  6  1  0  0  0  0
 20 11  1  0  0  0  0
 21 23  1  0  0  0  0
 22 24  1  0  0  0  0
 23  4  1  0  0  0  0
 25 17  1  0  0  0  0
 25  9  2  0  0  0  0
 26 21  2  0  0  0  0
 26  1  1  0  0  0  0
 27  1  1  0  0  0  0
 27  9  1  0  0  0  0
 28 17  2  0  0  0  0
 29 28  1  0  0  0  0
 30 34  1  0  0  0  0
 31 33  1  0  0  0  0
 31 32  1  0  0  0  0
 32 34  1  0  0  0  0
 32 29  1  1  0  0  0
 33 30  1  0  0  0  0
M  END
>  <MODEL>
4

>  <REMARK>
 VINA RESULT:      -9.6      2.514      9.354
  Name = 
  2 active torsions:
  status: ('A' for Active; 'I' for Inactive)
    1  A    between atoms: N_28  and  C_29
    2  A    between atoms: C_29  and  C_32
                            x       y       z     vdW  Elec       q    Type
                         _______ _______ _______ _____ _____    ______ ____

>  <TORSDO>
F 2

$$$$
