=
 OpenBabel11122412563D

 32 37  0  0  1  0  0  0  0  0999 V2000
  160.1080  208.3060  157.0830 C   0  0  0  0  0  2  0  0  0  0  0  0
  161.1150  206.3180  152.1200 C   0  0  0  0  0  0  0  0  0  0  0  0
  162.0040  209.8030  148.6670 C   0  0  0  0  0  2  0  0  0  0  0  0
  162.3870  208.6960  147.7000 C   0  0  0  0  0  2  0  0  0  0  0  0
  161.1770  203.8850  151.3360 C   0  0  0  0  0  0  0  0  0  0  0  0
  161.0350  203.0500  150.2960 C   0  0  0  0  0  0  0  0  0  0  0  0
  160.5470  207.0470  154.3500 N   0  0  2  0  0  0  0  0  0  0  0  0
  161.5220  208.6430  152.7500 C   0  0  0  0  0  2  0  0  0  0  0  0
  160.7900  202.4220  148.1810 N   0  0  0  0  0  0  0  0  0  0  0  0
  160.5460  209.4820  154.8380 C   0  0  0  0  0  2  0  0  0  0  0  0
  162.3230  209.3460  150.0860 C   0  0  0  0  0  2  0  0  0  0  0  0
  161.4700  207.7110  151.7880 C   0  0  0  0  0  0  0  0  0  0  0  0
  161.7020  208.0530  150.4100 N   0  0  0  0  0  0  0  0  0  0  0  0
  161.2390  205.7690  149.6930 C   0  0  0  0  0  0  0  0  0  0  0  0
  160.8070  201.3120  148.9480 C   0  0  0  0  0  3  0  0  0  0  0  0
  159.2680  207.5590  156.2470 O   0  0  0  0  0  0  0  0  0  0  0  0
  161.2890  208.3140  154.1980 C   0  0  1  0  0  3  0  0  0  0  0  0
  160.9610  201.6630  150.2900 C   0  0  0  0  0  3  0  0  0  0  0  0
  160.1070  206.6000  155.6670 C   0  0  0  0  0  2  0  0  0  0  0  0
  160.7310  209.5090  156.3560 C   0  0  1  0  0  3  0  0  0  0  0  0
  161.4870  207.4920  147.9300 C   0  0  0  0  0  2  0  0  0  0  0  0
  161.4950  207.0570  149.3760 C   0  0  0  0  0  0  0  0  0  0  0  0
  161.0410  204.7530  148.6290 C   0  0  0  0  0  3  0  0  0  0  0  0
  160.6370  206.0390  153.3370 C   0  0  0  0  0  2  0  0  0  0  0  0
  161.3980  203.3210  152.7060 C   0  0  0  0  0  1  0  0  0  0  0  0
  160.6590  202.4440  146.7330 C   0  0  0  0  0  1  0  0  0  0  0  0
  161.1930  205.3210  151.0790 N   0  0  0  0  0  0  0  0  0  0  0  0
  160.9370  203.4770  148.9970 C   0  0  0  0  0  0  0  0  0  0  0  0
  160.1880  210.7440  156.9000 N   0  0  0  0  0  2  0  0  0  0  0  0
  158.8930  211.2240  156.5390 C   0  0  0  0  0  0  0  0  0  0  0  0
  158.1840  210.5970  155.7080 O   0  0  0  0  0  0  0  0  0  0  0  0
  158.3740  212.4770  157.1470 C   0  0  0  0  0  1  0  0  0  0  0  0
  2 24  1  0  0  0  0
  3 11  1  0  0  0  0
  4 21  1  0  0  0  0
  4  3  1  0  0  0  0
  5 25  1  0  0  0  0
  6  5  2  0  0  0  0
  7 24  1  1  0  0  0
  7 19  1  0  0  0  0
  9 15  1  0  0  0  0
  9 28  1  0  0  0  0
 10 20  1  0  0  0  0
 11 13  1  0  0  0  0
 12  2  2  0  0  0  0
 12  8  1  0  0  0  0
 13 12  1  0  0  0  0
 14 27  1  0  0  0  0
 15 18  2  0  0  0  0
 16  1  1  0  0  0  0
 17  8  1  6  0  0  0
 17  7  1  0  0  0  0
 17 10  1  0  0  0  0
 18  6  1  0  0  0  0
 19 16  1  0  0  0  0
 20 29  1  1  0  0  0
 20  1  1  0  0  0  0
 21 22  1  0  0  0  0
 22 14  2  0  0  0  0
 22 13  1  0  0  0  0
 23 28  2  0  0  0  0
 23 14  1  0  0  0  0
 26  9  1  0  0  0  0
 27  5  1  0  0  0  0
 27  2  1  0  0  0  0
 28  6  1  0  0  0  0
 30 29  1  0  0  0  0
 30 32  1  0  0  0  0
 31 30  2  0  0  0  0
M  END
>  <MODEL>
1

>  <REMARK>
 VINA RESULT:      -7.9      0.000      0.000
  Name = 
  1 active torsions:
  status: ('A' for Active; 'I' for Inactive)
    1  A    between atoms: C_20  and  N_29
                            x       y       z     vdW  Elec       q    Type
                         _______ _______ _______ _____ _____    ______ ____

>  <TORSDO>
F 1

$$$$
=
 OpenBabel11122412563D

 32 37  0  0  1  0  0  0  0  0999 V2000
  159.9500  210.4130  157.1520 C   0  0  0  0  0  2  0  0  0  0  0  0
  161.1020  207.6590  152.6020 C   0  0  0  0  0  0  0  0  0  0  0  0
  162.0440  210.5500  148.6510 C   0  0  0  0  0  2  0  0  0  0  0  0
  162.4620  209.3060  147.8860 C   0  0  0  0  0  2  0  0  0  0  0  0
  161.2070  205.1330  152.2260 C   0  0  0  0  0  0  0  0  0  0  0  0
  161.0990  204.1380  151.3330 C   0  0  0  0  0  0  0  0  0  0  0  0
  160.4700  208.7320  154.6700 N   0  0  2  0  0  0  0  0  0  0  0  0
  161.4700  210.0610  152.8560 C   0  0  0  0  0  2  0  0  0  0  0  0
  160.9130  203.1720  149.3420 N   0  0  0  0  0  0  0  0  0  0  0  0
  160.4340  211.2140  154.7560 C   0  0  0  0  0  2  0  0  0  0  0  0
  162.3320  210.3330  150.1320 C   0  0  0  0  0  2  0  0  0  0  0  0
  161.4510  208.9840  152.0570 C   0  0  0  0  0  0  0  0  0  0  0  0
  161.7150  209.1010  150.6470 N   0  0  0  0  0  0  0  0  0  0  0  0
  161.2920  206.7260  150.3010 C   0  0  0  0  0  0  0  0  0  0  0  0
  160.9220  202.2010  150.2800 C   0  0  0  0  0  3  0  0  0  0  0  0
  159.1390  209.5280  156.4290 O   0  0  0  0  0  0  0  0  0  0  0  0
  161.2040  209.9680  154.3320 C   0  0  1  0  0  3  0  0  0  0  0  0
  161.0380  202.7680  151.5500 C   0  0  0  0  0  3  0  0  0  0  0  0
  160.0010  208.4990  156.0320 C   0  0  0  0  0  2  0  0  0  0  0  0
  160.5800  211.4890  156.2540 C   0  0  1  0  0  3  0  0  0  0  0  0
  161.5680  208.1430  148.2870 C   0  0  0  0  0  2  0  0  0  0  0  0
  161.5430  207.9480  149.7840 C   0  0  0  0  0  0  0  0  0  0  0  0
  161.1310  205.5480  149.4120 C   0  0  0  0  0  3  0  0  0  0  0  0
  160.5950  207.5750  153.8370 C   0  0  0  0  0  2  0  0  0  0  0  0
  161.3970  204.8010  153.6750 C   0  0  0  0  0  1  0  0  0  0  0  0
  160.8190  202.9570  147.9070 C   0  0  0  0  0  1  0  0  0  0  0  0
  161.2150  206.5080  151.7390 N   0  0  0  0  0  0  0  0  0  0  0  0
  161.0300  204.3470  149.9800 C   0  0  0  0  0  0  0  0  0  0  0  0
  160.0120  212.7890  156.5770 N   0  0  0  0  0  2  0  0  0  0  0  0
  158.6580  213.1210  156.2660 C   0  0  0  0  0  0  0  0  0  0  0  0
  157.9150  212.2960  155.6710 O   0  0  0  0  0  0  0  0  0  0  0  0
  158.1190  214.4530  156.6450 C   0  0  0  0  0  1  0  0  0  0  0  0
  2 24  1  0  0  0  0
  3 11  1  0  0  0  0
  4 21  1  0  0  0  0
  4  3  1  0  0  0  0
  5 25  1  0  0  0  0
  6 18  1  0  0  0  0
  6  5  2  0  0  0  0
  7 24  1  1  0  0  0
  7 19  1  0  0  0  0
  9 28  1  0  0  0  0
  9 15  1  0  0  0  0
 10 20  1  0  0  0  0
 11 13  1  0  0  0  0
 12  2  2  0  0  0  0
 12  8  1  0  0  0  0
 13 12  1  0  0  0  0
 14 27  1  0  0  0  0
 15 18  2  0  0  0  0
 16  1  1  0  0  0  0
 17  8  1  6  0  0  0
 17  7  1  0  0  0  0
 17 10  1  0  0  0  0
 19 16  1  0  0  0  0
 20 29  1  6  0  0  0
 20  1  1  0  0  0  0
 21 22  1  0  0  0  0
 22 14  2  0  0  0  0
 22 13  1  0  0  0  0
 23 28  2  0  0  0  0
 23 14  1  0  0  0  0
 26  9  1  0  0  0  0
 27  5  1  0  0  0  0
 27  2  1  0  0  0  0
 28  6  1  0  0  0  0
 30 29  1  0  0  0  0
 30 32  1  0  0  0  0
 31 30  2  0  0  0  0
M  END
>  <MODEL>
2

>  <REMARK>
 VINA RESULT:      -7.8      1.264      1.540
  Name = 
  1 active torsions:
  status: ('A' for Active; 'I' for Inactive)
    1  A    between atoms: C_20  and  N_29
                            x       y       z     vdW  Elec       q    Type
                         _______ _______ _______ _____ _____    ______ ____

>  <TORSDO>
F 1

$$$$
=
 OpenBabel11122412563D

 32 37  0  0  1  0  0  0  0  0999 V2000
  160.7060  201.3280  150.3150 C   0  0  0  0  0  2  0  0  0  0  0  0
  161.1220  206.4360  152.1430 C   0  0  0  0  0  0  0  0  0  0  0  0
  162.3310  209.7660  148.6360 C   0  0  0  0  0  2  0  0  0  0  0  0
  162.0820  210.8700  149.6490 C   0  0  0  0  0  2  0  0  0  0  0  0
  160.8010  207.3340  154.5150 C   0  0  0  0  0  0  0  0  0  0  0  0
  161.1150  208.3040  155.3870 C   0  0  0  0  0  0  0  0  0  0  0  0
  161.0030  204.1110  151.5090 N   0  0  2  0  0  0  0  0  0  0  0  0
  161.0490  205.8540  149.7720 C   0  0  0  0  0  2  0  0  0  0  0  0
  161.9530  210.2300  156.1080 N   0  0  0  0  0  0  0  0  0  0  0  0
  161.3750  203.5100  149.1270 C   0  0  0  0  0  2  0  0  0  0  0  0
  161.4320  208.5820  148.9710 C   0  0  0  0  0  2  0  0  0  0  0  0
  161.2310  206.7890  150.7150 C   0  0  0  0  0  0  0  0  0  0  0  0
  161.5900  208.1370  150.3640 N   0  0  0  0  0  0  0  0  0  0  0  0
  161.7550  208.7780  152.7100 C   0  0  0  0  0  0  0  0  0  0  0  0
  161.4150  209.5860  157.1640 C   0  0  0  0  0  3  0  0  0  0  0  0
  161.5990  201.8570  151.2570 O   0  0  0  0  0  0  0  0  0  0  0  0
  160.6680  204.4390  150.1090 C   0  0  1  0  0  3  0  0  0  0  0  0
  160.8740  208.3670  156.7530 C   0  0  0  0  0  3  0  0  0  0  0  0
  160.8310  202.7520  152.0110 C   0  0  0  0  0  2  0  0  0  0  0  0
  160.6700  202.1560  149.0210 C   0  0  1  0  0  3  0  0  0  0  0  0
  162.5470  210.4100  151.0210 C   0  0  0  0  0  2  0  0  0  0  0  0
  161.9250  209.0880  151.4060 C   0  0  0  0  0  0  0  0  0  0  0  0
  162.0870  209.7620  153.7710 C   0  0  0  0  0  3  0  0  0  0  0  0
  161.0580  205.1470  152.4940 C   0  0  0  0  0  2  0  0  0  0  0  0
  159.9850  206.1670  154.9790 C   0  0  0  0  0  1  0  0  0  0  0  0
  162.5940  211.5340  156.1530 C   0  0  0  0  0  1  0  0  0  0  0  0
  161.2000  207.4950  153.1210 N   0  0  0  0  0  0  0  0  0  0  0  0
  161.7640  209.4570  155.0270 C   0  0  0  0  0  0  0  0  0  0  0  0
  161.2440  201.3830  147.9300 N   0  0  0  0  0  2  0  0  0  0  0  0
  160.5620  201.2090  146.6870 C   0  0  0  0  0  0  0  0  0  0  0  0
  159.4180  201.7030  146.5070 O   0  0  0  0  0  0  0  0  0  0  0  0
  161.2060  200.4340  145.5940 C   0  0  0  0  0  1  0  0  0  0  0  0
  1 16  1  0  0  0  0
  2 24  1  0  0  0  0
  2 27  1  0  0  0  0
  3 11  1  0  0  0  0
  3  4  1  0  0  0  0
  4 21  1  0  0  0  0
  5 25  1  0  0  0  0
  5  6  2  0  0  0  0
  6 18  1  0  0  0  0
  7 19  1  1  0  0  0
  7 24  1  0  0  0  0
  8 17  1  0  0  0  0
  8 12  1  0  0  0  0
  9 26  1  0  0  0  0
  9 15  1  0  0  0  0
 11 13  1  0  0  0  0
 12  2  2  0  0  0  0
 13 12  1  0  0  0  0
 13 22  1  0  0  0  0
 14 27  1  0  0  0  0
 14 23  1  0  0  0  0
 16 19  1  0  0  0  0
 17 10  1  6  0  0  0
 17  7  1  0  0  0  0
 18 15  2  0  0  0  0
 20 29  1  6  0  0  0
 20 10  1  0  0  0  0
 20  1  1  0  0  0  0
 21 22  1  0  0  0  0
 22 14  2  0  0  0  0
 23 28  2  0  0  0  0
 27  5  1  0  0  0  0
 28  6  1  0  0  0  0
 28  9  1  0  0  0  0
 30 29  1  0  0  0  0
 31 30  2  0  0  0  0
 32 30  1  0  0  0  0
M  END
>  <MODEL>
3

>  <REMARK>
 VINA RESULT:      -6.4      2.747      8.024
  Name = 
  1 active torsions:
  status: ('A' for Active; 'I' for Inactive)
    1  A    between atoms: C_20  and  N_29
                            x       y       z     vdW  Elec       q    Type
                         _______ _______ _______ _____ _____    ______ ____

>  <TORSDO>
F 1

$$$$
=
 OpenBabel11122412563D

 32 37  0  0  1  0  0  0  0  0999 V2000
  161.5090  204.7730  148.3600 C   0  0  0  0  0  2  0  0  0  0  0  0
  160.7600  208.7020  152.0490 C   0  0  0  0  0  0  0  0  0  0  0  0
  160.4290  207.0580  156.7430 C   0  0  0  0  0  2  0  0  0  0  0  0
  160.4560  208.5020  157.2130 C   0  0  0  0  0  2  0  0  0  0  0  0
  160.5440  211.2250  151.6990 C   0  0  0  0  0  0  0  0  0  0  0  0
  160.0530  212.3760  152.1850 C   0  0  0  0  0  0  0  0  0  0  0  0
  160.9870  207.0690  150.2860 N   0  0  2  0  0  0  0  0  0  0  0  0
  161.3630  206.4070  152.6270 C   0  0  0  0  0  2  0  0  0  0  0  0
  159.1000  213.7530  153.6430 N   0  0  0  0  0  0  0  0  0  0  0  0
  161.1600  204.6700  150.9070 C   0  0  0  0  0  2  0  0  0  0  0  0
  161.2110  206.9530  155.4400 C   0  0  0  0  0  2  0  0  0  0  0  0
  160.9840  207.6270  153.0330 C   0  0  0  0  0  0  0  0  0  0  0  0
  160.7330  207.9020  154.4230 N   0  0  0  0  0  0  0  0  0  0  0  0
  160.0470  210.1860  153.9180 C   0  0  0  0  0  0  0  0  0  0  0  0
  159.3740  214.4530  152.5230 C   0  0  0  0  0  3  0  0  0  0  0  0
  160.4330  205.6590  148.4960 O   0  0  0  0  0  0  0  0  0  0  0  0
  161.6370  206.0920  151.1820 C   0  0  1  0  0  3  0  0  0  0  0  0
  159.9770  213.6220  151.5780 C   0  0  0  0  0  3  0  0  0  0  0  0
  161.0210  206.8820  148.8400 C   0  0  0  0  0  2  0  0  0  0  0  0
  161.8510  204.0670  149.6820 C   0  0  1  0  0  3  0  0  0  0  0  0
  159.6840  209.3670  156.2290 C   0  0  0  0  0  2  0  0  0  0  0  0
  160.1830  209.1850  154.8160 C   0  0  0  0  0  0  0  0  0  0  0  0
  159.4950  211.5010  154.3310 C   0  0  0  0  0  3  0  0  0  0  0  0
  160.7240  208.3980  150.7460 C   0  0  0  0  0  2  0  0  0  0  0  0
  161.2160  211.2220  150.3600 C   0  0  0  0  0  1  0  0  0  0  0  0
  158.4840  214.2910  154.8450 C   0  0  0  0  0  1  0  0  0  0  0  0
  160.4750  210.0310  152.5340 N   0  0  0  0  0  0  0  0  0  0  0  0
  159.5200  212.4940  153.4420 C   0  0  0  0  0  0  0  0  0  0  0  0
  161.5300  202.6520  149.5790 N   0  0  0  0  0  2  0  0  0  0  0  0
  161.2330  202.0340  148.3250 C   0  0  0  0  0  0  0  0  0  0  0  0
  161.2130  202.7120  147.2640 O   0  0  0  0  0  0  0  0  0  0  0  0
  160.9400  200.5780  148.2710 C   0  0  0  0  0  1  0  0  0  0  0  0
  1 16  1  0  0  0  0
  1 20  1  0  0  0  0
  2 27  1  0  0  0  0
  2 12  2  0  0  0  0
  3  4  1  0  0  0  0
  5  6  2  0  0  0  0
  5 27  1  0  0  0  0
  6 28  1  0  0  0  0
  7 19  1  6  0  0  0
  7 24  1  0  0  0  0
  7 17  1  0  0  0  0
  8 12  1  0  0  0  0
  9 26  1  0  0  0  0
 11  3  1  0  0  0  0
 12 13  1  0  0  0  0
 13 22  1  0  0  0  0
 13 11  1  0  0  0  0
 14 23  1  0  0  0  0
 14 22  2  0  0  0  0
 15  9  1  0  0  0  0
 16 19  1  0  0  0  0
 17 10  1  6  0  0  0
 17  8  1  0  0  0  0
 18  6  1  0  0  0  0
 18 15  2  0  0  0  0
 20 29  1  6  0  0  0
 20 10  1  0  0  0  0
 21  4  1  0  0  0  0
 22 21  1  0  0  0  0
 24  2  1  0  0  0  0
 25  5  1  0  0  0  0
 27 14  1  0  0  0  0
 28  9  1  0  0  0  0
 28 23  2  0  0  0  0
 30 29  1  0  0  0  0
 31 30  2  0  0  0  0
 32 30  1  0  0  0  0
M  END
>  <MODEL>
4

>  <REMARK>
 VINA RESULT:      -5.8      3.226      8.876
  Name = 
  1 active torsions:
  status: ('A' for Active; 'I' for Inactive)
    1  A    between atoms: C_20  and  N_29
                            x       y       z     vdW  Elec       q    Type
                         _______ _______ _______ _____ _____    ______ ____

>  <TORSDO>
F 1

$$$$
=
 OpenBabel11122412563D

 32 37  0  0  1  0  0  0  0  0999 V2000
  161.3150  213.9220  147.7810 C   0  0  0  0  0  2  0  0  0  0  0  0
  161.4000  209.9070  151.4520 C   0  0  0  0  0  0  0  0  0  0  0  0
  161.3480  205.3320  149.4730 C   0  0  0  0  0  2  0  0  0  0  0  0
  161.5900  204.7670  150.8620 C   0  0  0  0  0  2  0  0  0  0  0  0
  161.4460  210.0530  154.0040 C   0  0  0  0  0  0  0  0  0  0  0  0
  161.1440  209.4360  155.1570 C   0  0  0  0  0  0  0  0  0  0  0  0
  161.2580  211.7940  149.9540 N   0  0  2  0  0  0  0  0  0  0  0  0
  161.7860  209.5610  149.0650 C   0  0  0  0  0  2  0  0  0  0  0  0
  160.5080  207.7910  156.5050 N   0  0  0  0  0  0  0  0  0  0  0  0
  161.2110  211.3660  147.5070 C   0  0  0  0  0  2  0  0  0  0  0  0
  161.9790  206.7170  149.3910 C   0  0  0  0  0  2  0  0  0  0  0  0
  161.5940  209.0310  150.2810 C   0  0  0  0  0  0  0  0  0  0  0  0
  161.5170  207.6060  150.4670 N   0  0  0  0  0  0  0  0  0  0  0  0
  161.0550  207.8720  152.8460 C   0  0  0  0  0  0  0  0  0  0  0  0
  160.7500  208.8820  157.2610 C   0  0  0  0  0  3  0  0  0  0  0  0
  160.3680  213.6090  148.7650 O   0  0  0  0  0  0  0  0  0  0  0  0
  161.8760  211.0450  148.8420 C   0  0  1  0  0  3  0  0  0  0  0  0
  161.1540  209.9430  156.4500 C   0  0  0  0  0  3  0  0  0  0  0  0
  161.1260  213.2450  149.8840 C   0  0  0  0  0  2  0  0  0  0  0  0
  161.7010  212.6980  146.9360 C   0  0  1  0  0  3  0  0  0  0  0  0
  160.8310  205.5980  151.8840 C   0  0  0  0  0  2  0  0  0  0  0  0
  161.1620  207.0670  151.7650 C   0  0  0  0  0  0  0  0  0  0  0  0
  160.7050  207.3100  154.1740 C   0  0  0  0  0  3  0  0  0  0  0  0
  161.1990  211.2160  151.2620 C   0  0  0  0  0  2  0  0  0  0  0  0
  161.9770  211.4530  154.0370 C   0  0  0  0  0  1  0  0  0  0  0  0
  160.0820  206.4940  157.0070 C   0  0  0  0  0  1  0  0  0  0  0  0
  161.3220  209.3010  152.7600 N   0  0  0  0  0  0  0  0  0  0  0  0
  160.7560  208.1240  155.2280 C   0  0  0  0  0  0  0  0  0  0  0  0
  161.2090  212.8660  145.5770 N   0  0  0  0  0  2  0  0  0  0  0  0
  162.0930  212.9740  144.4610 C   0  0  0  0  0  0  0  0  0  0  0  0
  163.3410  212.9550  144.6260 O   0  0  0  0  0  0  0  0  0  0  0  0
  161.5370  213.1150  143.0900 C   0  0  0  0  0  1  0  0  0  0  0  0
  1 16  1  0  0  0  0
  2 27  1  0  0  0  0
  3  4  1  0  0  0  0
  4 21  1  0  0  0  0
  5 25  1  0  0  0  0
  5  6  2  0  0  0  0
  6 28  1  0  0  0  0
  6 18  1  0  0  0  0
  7 19  1  1  0  0  0
  7 24  1  0  0  0  0
  8 12  1  0  0  0  0
  9 26  1  0  0  0  0
  9 15  1  0  0  0  0
 11  3  1  0  0  0  0
 11 13  1  0  0  0  0
 12 13  1  0  0  0  0
 12  2  2  0  0  0  0
 13 22  1  0  0  0  0
 14 23  1  0  0  0  0
 16 19  1  0  0  0  0
 17 10  1  6  0  0  0
 17  8  1  0  0  0  0
 17  7  1  0  0  0  0
 18 15  2  0  0  0  0
 20 29  1  6  0  0  0
 20 10  1  0  0  0  0
 20  1  1  0  0  0  0
 22 21  1  0  0  0  0
 22 14  2  0  0  0  0
 23 28  2  0  0  0  0
 24  2  1  0  0  0  0
 27 14  1  0  0  0  0
 27  5  1  0  0  0  0
 28  9  1  0  0  0  0
 30 31  2  0  0  0  0
 30 29  1  0  0  0  0
 32 30  1  0  0  0  0
M  END
>  <MODEL>
5

>  <REMARK>
 VINA RESULT:      -5.7      3.701      8.082
  Name = 
  1 active torsions:
  status: ('A' for Active; 'I' for Inactive)
    1  A    between atoms: C_20  and  N_29
                            x       y       z     vdW  Elec       q    Type
                         _______ _______ _______ _____ _____    ______ ____

>  <TORSDO>
F 1

$$$$
=
 OpenBabel11122412563D

 32 37  0  0  1  0  0  0  0  0999 V2000
  161.7700  204.4750  146.7100 C   0  0  0  0  0  2  0  0  0  0  0  0
  161.2060  208.5020  150.3250 C   0  0  0  0  0  0  0  0  0  0  0  0
  160.4970  206.9540  155.0110 C   0  0  0  0  0  2  0  0  0  0  0  0
  160.6340  208.3950  155.4700 C   0  0  0  0  0  2  0  0  0  0  0  0
  161.2410  211.0300  149.9460 C   0  0  0  0  0  0  0  0  0  0  0  0
  160.8350  212.2260  150.3980 C   0  0  0  0  0  0  0  0  0  0  0  0
  161.3680  206.8330  148.5890 N   0  0  2  0  0  0  0  0  0  0  0  0
  161.5670  206.1680  150.9510 C   0  0  0  0  0  2  0  0  0  0  0  0
  159.9420  213.7020  151.7960 N   0  0  0  0  0  0  0  0  0  0  0  0
  161.2890  204.4360  149.2370 C   0  0  0  0  0  2  0  0  0  0  0  0
  161.3290  206.7610  153.7480 C   0  0  0  0  0  2  0  0  0  0  0  0
  161.2820  207.4230  151.3280 C   0  0  0  0  0  0  0  0  0  0  0  0
  160.9900  207.7370  152.7010 N   0  0  0  0  0  0  0  0  0  0  0  0
  160.5430  210.0680  152.1450 C   0  0  0  0  0  0  0  0  0  0  0  0
  160.3340  214.3610  150.6850 C   0  0  0  0  0  3  0  0  0  0  0  0
  160.7750  205.4580  146.7850 O   0  0  0  0  0  0  0  0  0  0  0  0
  161.8810  205.8120  149.5250 C   0  0  1  0  0  3  0  0  0  0  0  0
  160.9030  213.4670  149.7770 C   0  0  0  0  0  3  0  0  0  0  0  0
  161.4550  206.6260  147.1480 C   0  0  0  0  0  2  0  0  0  0  0  0
  161.9810  203.7570  148.0530 C   0  0  1  0  0  3  0  0  0  0  0  0
  159.9940  209.3150  154.4420 C   0  0  0  0  0  2  0  0  0  0  0  0
  160.5420  209.0700  153.0560 C   0  0  0  0  0  0  0  0  0  0  0  0
  160.0950  211.4330  152.5200 C   0  0  0  0  0  3  0  0  0  0  0  0
  161.2060  208.1870  149.0250 C   0  0  0  0  0  2  0  0  0  0  0  0
  161.9740  210.9480  148.6420 C   0  0  0  0  0  1  0  0  0  0  0  0
  159.3200  214.3100  152.9610 C   0  0  0  0  0  1  0  0  0  0  0  0
  161.0220  209.8570  150.7860 N   0  0  0  0  0  0  0  0  0  0  0  0
  160.2540  212.4080  151.6260 C   0  0  0  0  0  0  0  0  0  0  0  0
  161.5370  202.3760  147.9450 N   0  0  0  0  0  2  0  0  0  0  0  0
  161.1760  201.7940  146.6910 C   0  0  0  0  0  0  0  0  0  0  0  0
  161.2060  202.4780  145.6340 O   0  0  0  0  0  0  0  0  0  0  0  0
  160.7570  200.3700  146.6310 C   0  0  0  0  0  1  0  0  0  0  0  0
  1 16  1  0  0  0  0
  1 20  1  0  0  0  0
  2 27  1  0  0  0  0
  2 12  2  0  0  0  0
  3  4  1  0  0  0  0
  5  6  2  0  0  0  0
  5 27  1  0  0  0  0
  6 28  1  0  0  0  0
  7 19  1  6  0  0  0
  7 24  1  0  0  0  0
  7 17  1  0  0  0  0
  8 12  1  0  0  0  0
  9 26  1  0  0  0  0
 11  3  1  0  0  0  0
 12 13  1  0  0  0  0
 13 22  1  0  0  0  0
 13 11  1  0  0  0  0
 14 23  1  0  0  0  0
 14 22  2  0  0  0  0
 15  9  1  0  0  0  0
 16 19  1  0  0  0  0
 17 10  1  6  0  0  0
 17  8  1  0  0  0  0
 18  6  1  0  0  0  0
 18 15  2  0  0  0  0
 20 29  1  6  0  0  0
 20 10  1  0  0  0  0
 21  4  1  0  0  0  0
 22 21  1  0  0  0  0
 24  2  1  0  0  0  0
 25  5  1  0  0  0  0
 27 14  1  0  0  0  0
 28  9  1  0  0  0  0
 28 23  2  0  0  0  0
 30 29  1  0  0  0  0
 31 30  2  0  0  0  0
 32 30  1  0  0  0  0
M  END
>  <MODEL>
6

>  <REMARK>
 VINA RESULT:      -5.1      3.622      8.999
  Name = 
  1 active torsions:
  status: ('A' for Active; 'I' for Inactive)
    1  A    between atoms: C_20  and  N_29
                            x       y       z     vdW  Elec       q    Type
                         _______ _______ _______ _____ _____    ______ ____

>  <TORSDO>
F 1

$$$$
=
 OpenBabel11122412563D

 32 37  0  0  1  0  0  0  0  0999 V2000
  162.8080  212.9930  145.9620 C   0  0  0  0  0  2  0  0  0  0  0  0
  159.6630  212.7420  150.3950 C   0  0  0  0  0  0  0  0  0  0  0  0
  155.0300  214.4500  149.7100 C   0  0  0  0  0  2  0  0  0  0  0  0
  154.6750  213.9390  151.0960 C   0  0  0  0  0  2  0  0  0  0  0  0
  160.2390  211.8960  152.7380 C   0  0  0  0  0  0  0  0  0  0  0  0
  159.9540  211.9710  154.0470 C   0  0  0  0  0  0  0  0  0  0  0  0
  161.2110  212.8850  148.5490 N   0  0  2  0  0  0  0  0  0  0  0  0
  158.8010  213.1850  148.1530 C   0  0  0  0  0  2  0  0  0  0  0  0
  158.8340  212.5360  155.8790 N   0  0  0  0  0  0  0  0  0  0  0  0
  160.3890  213.7660  146.3770 C   0  0  0  0  0  2  0  0  0  0  0  0
  156.1310  213.5690  149.1310 C   0  0  0  0  0  2  0  0  0  0  0  0
  158.5760  213.1190  149.4730 C   0  0  0  0  0  0  0  0  0  0  0  0
  157.2930  213.4660  150.0250 N   0  0  0  0  0  0  0  0  0  0  0  0
  158.1000  213.1140  152.2990 C   0  0  0  0  0  0  0  0  0  0  0  0
  159.9220  211.8310  156.2540 C   0  0  0  0  0  3  0  0  0  0  0  0
  162.9660  213.6440  147.1920 O   0  0  0  0  0  0  0  0  0  0  0  0
  160.1280  212.8230  147.5480 C   0  0  1  0  0  3  0  0  0  0  0  0
  160.6560  211.4540  155.1280 C   0  0  0  0  0  3  0  0  0  0  0  0
  162.6010  212.6910  148.1490 C   0  0  0  0  0  2  0  0  0  0  0  0
  161.3940  213.1750  145.3860 C   0  0  1  0  0  3  0  0  0  0  0  0
  155.8610  214.1400  152.0270 C   0  0  0  0  0  2  0  0  0  0  0  0
  157.1210  213.5280  151.4640 C   0  0  0  0  0  0  0  0  0  0  0  0
  157.9120  213.1680  153.7700 C   0  0  0  0  0  3  0  0  0  0  0  0
  160.9180  212.6800  149.9350 C   0  0  0  0  0  2  0  0  0  0  0  0
  161.4040  211.0690  152.2870 C   0  0  0  0  0  1  0  0  0  0  0  0
  157.8310  213.0810  156.7800 C   0  0  0  0  0  1  0  0  0  0  0  0
  159.3490  212.5600  151.7920 N   0  0  0  0  0  0  0  0  0  0  0  0
  158.8480  212.6140  154.5390 C   0  0  0  0  0  0  0  0  0  0  0  0
  161.4560  214.0000  144.1900 N   0  0  0  0  0  2  0  0  0  0  0  0
  161.7620  213.4510  142.9070 C   0  0  0  0  0  0  0  0  0  0  0  0
  162.0180  212.2250  142.7790 O   0  0  0  0  0  0  0  0  0  0  0  0
  161.7830  214.3340  141.7130 C   0  0  0  0  0  1  0  0  0  0  0  0
  1 16  1  0  0  0  0
  2 27  1  0  0  0  0
  3  4  1  0  0  0  0
  4 21  1  0  0  0  0
  5  6  2  0  0  0  0
  6 28  1  0  0  0  0
  6 18  1  0  0  0  0
  7 19  1  6  0  0  0
  7 24  1  0  0  0  0
  8 12  1  0  0  0  0
  9 15  1  0  0  0  0
  9 26  1  0  0  0  0
 11  3  1  0  0  0  0
 11 13  1  0  0  0  0
 12 13  1  0  0  0  0
 12  2  2  0  0  0  0
 13 22  1  0  0  0  0
 14 23  1  0  0  0  0
 16 19  1  0  0  0  0
 17 10  1  6  0  0  0
 17  8  1  0  0  0  0
 17  7  1  0  0  0  0
 18 15  2  0  0  0  0
 20 29  1  6  0  0  0
 20  1  1  0  0  0  0
 20 10  1  0  0  0  0
 22 21  1  0  0  0  0
 22 14  2  0  0  0  0
 23 28  2  0  0  0  0
 24  2  1  0  0  0  0
 25  5  1  0  0  0  0
 27 14  1  0  0  0  0
 27  5  1  0  0  0  0
 28  9  1  0  0  0  0
 30 29  1  0  0  0  0
 31 30  2  0  0  0  0
 32 30  1  0  0  0  0
M  END
>  <MODEL>
7

>  <REMARK>
 VINA RESULT:      -5.0      6.446     10.351
  Name = 
  1 active torsions:
  status: ('A' for Active; 'I' for Inactive)
    1  A    between atoms: C_20  and  N_29
                            x       y       z     vdW  Elec       q    Type
                         _______ _______ _______ _____ _____    ______ ____

>  <TORSDO>
F 1

$$$$
