=
 OpenBabel11122412503D

 32 37  0  0  1  0  0  0  0  0999 V2000
  161.5770  208.1070  154.2300 C   0  0  0  0  0  2  0  0  0  0  0  0
  160.2690  212.3050  150.8220 C   0  0  1  0  0  3  0  0  0  0  0  0
  163.5850  212.1380  147.0880 C   0  0  0  0  0  2  0  0  0  0  0  0
  162.6340  213.1970  146.5240 C   0  0  0  0  0  2  0  0  0  0  0  0
  158.7910  214.4530  151.0800 C   0  0  1  0  0  3  0  0  0  0  0  0
  157.7800  214.1070  150.0360 C   0  0  0  0  0  0  0  0  0  0  0  0
  160.0540  210.3570  152.3940 C   0  0  1  0  0  3  0  0  0  0  0  0
  161.4830  210.3260  150.3370 C   0  0  0  0  0  2  0  0  0  0  0  0
  156.9610  213.5590  148.0250 C   0  0  0  0  0  0  0  0  0  0  0  0
  161.3440  208.2420  151.6800 C   0  0  0  0  0  2  0  0  0  0  0  0
  163.2540  211.7160  148.5280 C   0  0  0  0  0  2  0  0  0  0  0  0
  161.5820  211.7900  150.3640 N   0  0  1  0  0  0  0  0  0  0  0  0
  161.8790  212.2240  148.9890 C   0  0  1  0  0  3  0  0  0  0  0  0
  160.5060  214.3010  149.2590 C   0  0  1  0  0  3  0  0  0  0  0  0
  156.2870  212.9460  148.9400 N   0  0  0  0  0  0  0  0  0  0  0  0
  161.1600  209.5480  154.5630 C   0  0  0  0  0  2  0  0  0  0  0  0
  161.3260  209.7720  151.7470 C   0  0  2  0  0  3  0  0  0  0  0  0
  156.8200  213.2560  150.1920 N   0  0  0  0  0  0  0  0  0  0  0  0
  159.8610  209.9780  153.8720 C   0  0  0  0  0  2  0  0  0  0  0  0
  160.9180  207.5310  152.9720 C   0  0  1  0  0  3  0  0  0  0  0  0
  162.3740  214.3040  147.5440 C   0  0  0  0  0  2  0  0  0  0  0  0
  161.8760  213.7570  148.8940 C   0  0  2  0  0  3  0  0  0  0  0  0
  159.4280  213.8460  148.2440 C   0  0  0  0  0  2  0  0  0  0  0  0
  160.0650  211.8760  152.2790 C   0  0  0  0  0  2  0  0  0  0  0  0
  158.3470  214.1010  152.4200 N   0  0  0  0  0  1  0  0  0  0  0  0
  156.6440  213.4480  146.5760 C   0  0  0  0  0  1  0  0  0  0  0  0
  160.1660  213.8530  150.6990 C   0  0  2  0  0  3  0  0  0  0  0  0
  158.0480  214.4020  148.6040 C   0  0  2  0  0  3  0  0  0  0  0  0
  161.2170  206.0450  152.8790 C   0  0  0  0  0  2  0  0  0  0  0  0
  162.0030  205.7360  151.6510 C   0  0  0  0  0  0  0  0  0  0  0  0
  161.3580  205.2680  150.5130 O   0  0  0  0  0  0  0  0  0  0  0  0
  163.2470  205.9280  151.6340 O   0  0  0  0  0  1  0  0  0  0  0  0
  1 16  1  0  0  0  0
  2 24  1  1  0  0  0
  3 11  1  0  0  0  0
  4  3  1  0  0  0  0
  4 21  1  0  0  0  0
  5 25  1  1  0  0  0
  6 18  2  0  0  0  0
  6  5  1  0  0  0  0
  7 24  1  1  0  0  0
  7 19  1  0  0  0  0
  9 28  1  0  0  0  0
  9 15  2  0  0  0  0
 10 17  1  0  0  0  0
 10 20  1  0  0  0  0
 12  8  1  6  0  0  0
 12  2  1  0  0  0  0
 13 11  1  1  0  0  0
 13 12  1  0  0  0  0
 14 23  1  6  0  0  0
 14 27  1  0  0  0  0
 15 18  1  0  0  0  0
 17  8  1  6  0  0  0
 17  7  1  0  0  0  0
 19 16  1  0  0  0  0
 20 29  1  6  0  0  0
 20  1  1  0  0  0  0
 22 21  1  6  0  0  0
 22 13  1  0  0  0  0
 22 14  1  0  0  0  0
 23 28  1  0  0  0  0
 26  9  1  0  0  0  0
 27  2  1  0  0  0  0
 27  5  1  0  0  0  0
 28  6  1  0  0  0  0
 30 29  1  0  0  0  0
 31 30  2  0  0  0  0
 32 30  1  0  0  0  0
M  END
>  <MODEL>
1

>  <REMARK>
 VINA RESULT:      -4.7      0.000      0.000
  Name = 
  2 active torsions:
  status: ('A' for Active; 'I' for Inactive)
    1  A    between atoms: C_20  and  C_29
    2  A    between atoms: C_29  and  C_30
                            x       y       z     vdW  Elec       q    Type
                         _______ _______ _______ _____ _____    ______ ____

>  <TORSDO>
F 2

$$$$
=
 OpenBabel11122412503D

 32 37  0  0  1  0  0  0  0  0999 V2000
  160.1380  213.9070  147.9960 C   0  0  0  0  0  2  0  0  0  0  0  0
  160.3350  210.6860  152.5280 C   0  0  1  0  0  3  0  0  0  0  0  0
  162.7640  206.5350  151.1680 C   0  0  0  0  0  2  0  0  0  0  0  0
  162.6870  206.2910  152.6780 C   0  0  0  0  0  2  0  0  0  0  0  0
  159.0340  210.6790  154.8020 C   0  0  1  0  0  3  0  0  0  0  0  0
  160.2100  210.9320  155.6870 C   0  0  0  0  0  0  0  0  0  0  0  0
  160.3820  212.7090  151.0390 C   0  0  1  0  0  3  0  0  0  0  0  0
  161.7460  210.6490  150.6210 C   0  0  0  0  0  2  0  0  0  0  0  0
  162.2220  210.6250  156.6230 C   0  0  0  0  0  0  0  0  0  0  0  0
  162.0410  212.5660  149.0710 C   0  0  0  0  0  2  0  0  0  0  0  0
  161.9780  207.7720  150.7030 C   0  0  0  0  0  2  0  0  0  0  0  0
  160.7960  209.8430  151.3970 N   0  0  1  0  0  0  0  0  0  0  0  0
  161.5290  208.6600  151.8740 C   0  0  1  0  0  3  0  0  0  0  0  0
  160.2470  208.6280  154.0250 C   0  0  1  0  0  3  0  0  0  0  0  0
  162.0130  211.8900  156.4700 N   0  0  0  0  0  0  0  0  0  0  0  0
  159.0510  213.6190  149.0440 C   0  0  0  0  0  2  0  0  0  0  0  0
  161.0380  211.8240  149.9590 C   0  0  2  0  0  3  0  0  0  0  0  0
  160.7760  212.0820  155.8510 N   0  0  0  0  0  0  0  0  0  0  0  0
  159.5200  213.8540  150.4840 C   0  0  0  0  0  2  0  0  0  0  0  0
  161.5650  213.9310  148.5540 C   0  0  1  0  0  3  0  0  0  0  0  0
  161.2570  206.4570  153.1910 C   0  0  0  0  0  2  0  0  0  0  0  0
  160.6470  207.8160  152.8050 C   0  0  2  0  0  3  0  0  0  0  0  0
  161.4800  208.9970  154.8870 C   0  0  0  0  0  2  0  0  0  0  0  0
  159.5210  211.8520  151.9580 C   0  0  0  0  0  2  0  0  0  0  0  0
  158.3000  211.8970  154.4940 N   0  0  0  0  0  1  0  0  0  0  0  0
  163.4500  210.0800  157.2610 C   0  0  0  0  0  1  0  0  0  0  0  0
  159.4800  209.8840  153.5510 C   0  0  2  0  0  3  0  0  0  0  0  0
  161.0790  209.8070  156.1220 C   0  0  2  0  0  3  0  0  0  0  0  0
  162.5160  214.4530  147.4900 C   0  0  0  0  0  2  0  0  0  0  0  0
  162.2880  213.7620  146.1890 C   0  0  0  0  0  0  0  0  0  0  0  0
  161.4300  214.3180  145.2480 O   0  0  0  0  0  0  0  0  0  0  0  0
  162.8950  212.6910  145.9300 O   0  0  0  0  0  1  0  0  0  0  0  0
  1 20  1  0  0  0  0
  1 16  1  0  0  0  0
  2 24  1  6  0  0  0
  2 27  1  0  0  0  0
  3  4  1  0  0  0  0
  4 21  1  0  0  0  0
  5 25  1  6  0  0  0
  5  6  1  0  0  0  0
  6 18  2  0  0  0  0
  6 28  1  0  0  0  0
  7 19  1  6  0  0  0
  7 24  1  0  0  0  0
  9 26  1  0  0  0  0
 11  3  1  0  0  0  0
 12  8  1  6  0  0  0
 12 13  1  0  0  0  0
 12  2  1  0  0  0  0
 13 11  1  6  0  0  0
 13 22  1  0  0  0  0
 14 23  1  6  0  0  0
 15  9  2  0  0  0  0
 16 19  1  0  0  0  0
 17 10  1  1  0  0  0
 17  8  1  0  0  0  0
 17  7  1  0  0  0  0
 18 15  1  0  0  0  0
 20 29  1  6  0  0  0
 20 10  1  0  0  0  0
 22 21  1  1  0  0  0
 22 14  1  0  0  0  0
 23 28  1  0  0  0  0
 27 14  1  0  0  0  0
 27  5  1  0  0  0  0
 28  9  1  0  0  0  0
 30 29  1  0  0  0  0
 31 30  2  0  0  0  0
 32 30  1  0  0  0  0
M  END
>  <MODEL>
2

>  <REMARK>
 VINA RESULT:      -4.2      3.066      7.329
  Name = 
  2 active torsions:
  status: ('A' for Active; 'I' for Inactive)
    1  A    between atoms: C_20  and  C_29
    2  A    between atoms: C_29  and  C_30
                            x       y       z     vdW  Elec       q    Type
                         _______ _______ _______ _____ _____    ______ ____

>  <TORSDO>
F 2

$$$$
=
 OpenBabel11122412503D

 32 37  0  0  1  0  0  0  0  0999 V2000
  162.3400  206.5260  152.0230 C   0  0  0  0  0  2  0  0  0  0  0  0
  160.8730  211.6120  150.3080 C   0  0  1  0  0  3  0  0  0  0  0  0
  163.5320  212.4940  146.1700 C   0  0  0  0  0  2  0  0  0  0  0  0
  162.5970  213.7060  146.1240 C   0  0  0  0  0  2  0  0  0  0  0  0
  159.6420  213.6230  151.4500 C   0  0  1  0  0  3  0  0  0  0  0  0
  158.4540  213.6490  150.5460 C   0  0  0  0  0  0  0  0  0  0  0  0
  160.7430  209.2820  151.2400 C   0  0  1  0  0  3  0  0  0  0  0  0
  161.8230  209.8400  149.0480 C   0  0  0  0  0  2  0  0  0  0  0  0
  157.2840  213.7750  148.6390 C   0  0  0  0  0  0  0  0  0  0  0  0
  161.7200  207.4490  149.7120 C   0  0  0  0  0  2  0  0  0  0  0  0
  163.3980  211.6610  147.4540 C   0  0  0  0  0  2  0  0  0  0  0  0
  162.0480  211.2200  149.4930 N   0  0  1  0  0  0  0  0  0  0  0  0
  162.1610  212.0460  148.2800 C   0  0  1  0  0  3  0  0  0  0  0  0
  161.0300  213.9830  149.3940 C   0  0  1  0  0  3  0  0  0  0  0  0
  156.7130  212.9320  149.4340 N   0  0  0  0  0  0  0  0  0  0  0  0
  162.1040  207.8080  152.8380 C   0  0  0  0  0  2  0  0  0  0  0  0
  161.8430  208.8830  150.2340 C   0  0  2  0  0  3  0  0  0  0  0  0
  157.4620  212.8230  150.6070 N   0  0  0  0  0  0  0  0  0  0  0  0
  160.7540  208.4720  152.5470 C   0  0  0  0  0  2  0  0  0  0  0  0
  161.4430  206.3890  150.7870 C   0  0  1  0  0  3  0  0  0  0  0  0
  162.5970  214.4530  147.4570 C   0  0  0  0  0  2  0  0  0  0  0  0
  162.2730  213.5330  148.6480 C   0  0  2  0  0  3  0  0  0  0  0  0
  159.7700  213.8990  148.4960 C   0  0  0  0  0  2  0  0  0  0  0  0
  160.8660  210.7610  151.5820 C   0  0  0  0  0  2  0  0  0  0  0  0
  159.3870  212.8900  152.6800 N   0  0  0  0  0  1  0  0  0  0  0  0
  156.7340  214.1260  147.3030 C   0  0  0  0  0  1  0  0  0  0  0  0
  160.8830  213.1240  150.6710 C   0  0  2  0  0  3  0  0  0  0  0  0
  158.5160  214.3610  149.2420 C   0  0  2  0  0  3  0  0  0  0  0  0
  161.5970  204.9940  150.2040 C   0  0  0  0  0  2  0  0  0  0  0  0
  160.8660  203.9910  151.0290 C   0  0  0  0  0  0  0  0  0  0  0  0
  160.8210  204.1270  152.4110 O   0  0  0  0  0  1  0  0  0  0  0  0
  160.2650  203.0350  150.4730 O   0  0  0  0  0  0  0  0  0  0  0  0
  1 16  1  0  0  0  0
  2 27  1  0  0  0  0
  2 24  1  1  0  0  0
  3 11  1  0  0  0  0
  4  3  1  0  0  0  0
  4 21  1  0  0  0  0
  5 25  1  1  0  0  0
  6 18  2  0  0  0  0
  6  5  1  0  0  0  0
  7 24  1  1  0  0  0
  7 19  1  0  0  0  0
  9 28  1  0  0  0  0
  9 15  2  0  0  0  0
 10 17  1  0  0  0  0
 10 20  1  0  0  0  0
 12  8  1  6  0  0  0
 12  2  1  0  0  0  0
 13 11  1  1  0  0  0
 13 22  1  0  0  0  0
 13 12  1  0  0  0  0
 14 23  1  6  0  0  0
 14 27  1  0  0  0  0
 15 18  1  0  0  0  0
 17  8  1  6  0  0  0
 17  7  1  0  0  0  0
 19 16  1  0  0  0  0
 20 29  1  6  0  0  0
 20  1  1  0  0  0  0
 22 21  1  6  0  0  0
 22 14  1  0  0  0  0
 23 28  1  0  0  0  0
 26  9  1  0  0  0  0
 27  5  1  0  0  0  0
 28  6  1  0  0  0  0
 29 30  1  0  0  0  0
 30 31  1  0  0  0  0
 32 30  2  0  0  0  0
M  END
>  <MODEL>
3

>  <REMARK>
 VINA RESULT:      -4.0      1.301      1.717
  Name = 
  2 active torsions:
  status: ('A' for Active; 'I' for Inactive)
    1  A    between atoms: C_20  and  C_29
    2  A    between atoms: C_29  and  C_30
                            x       y       z     vdW  Elec       q    Type
                         _______ _______ _______ _____ _____    ______ ____

>  <TORSDO>
F 2

$$$$
=
 OpenBabel11122412503D

 32 37  0  0  1  0  0  0  0  0999 V2000
  162.5090  205.6630  152.2240 C   0  0  0  0  0  2  0  0  0  0  0  0
  160.0610  210.5260  153.3700 C   0  0  1  0  0  3  0  0  0  0  0  0
  160.4540  213.2820  149.2190 C   0  0  0  0  0  2  0  0  0  0  0  0
  159.5180  214.1860  150.0270 C   0  0  0  0  0  2  0  0  0  0  0  0
  159.3530  211.7170  155.5930 C   0  0  1  0  0  3  0  0  0  0  0  0
  157.8840  211.7450  155.3270 C   0  0  0  0  0  0  0  0  0  0  0  0
  160.5400  208.0610  153.2860 C   0  0  1  0  0  3  0  0  0  0  0  0
  160.4500  209.5250  151.2540 C   0  0  0  0  0  2  0  0  0  0  0  0
  155.9640  212.1860  154.2610 C   0  0  0  0  0  0  0  0  0  0  0  0
  160.8330  207.0950  150.9140 C   0  0  0  0  0  2  0  0  0  0  0  0
  160.9830  212.0770  150.0130 C   0  0  0  0  0  2  0  0  0  0  0  0
  160.7560  210.7050  152.0720 N   0  0  1  0  0  0  0  0  0  0  0  0
  160.2400  211.8750  151.3430 C   0  0  1  0  0  3  0  0  0  0  0  0
  159.6120  213.0310  153.4740 C   0  0  1  0  0  3  0  0  0  0  0  0
  155.8820  211.0250  154.8190 N   0  0  0  0  0  0  0  0  0  0  0  0
  162.5840  206.5250  153.4950 C   0  0  0  0  0  2  0  0  0  0  0  0
  161.0800  208.2760  151.8570 C   0  0  2  0  0  3  0  0  0  0  0  0
  157.0920  210.7310  155.4520 N   0  0  0  0  0  0  0  0  0  0  0  0
  161.2070  206.9060  154.0500 C   0  0  0  0  0  2  0  0  0  0  0  0
  161.1580  205.7150  151.5020 C   0  0  1  0  0  3  0  0  0  0  0  0
  160.0770  214.4490  151.4250 C   0  0  0  0  0  2  0  0  0  0  0  0
  160.4030  213.1500  152.1830 C   0  0  2  0  0  3  0  0  0  0  0  0
  158.0900  212.9380  153.1990 C   0  0  0  0  0  2  0  0  0  0  0  0
  160.7000  209.3400  154.0980 C   0  0  0  0  0  2  0  0  0  0  0  0
  159.7440  210.5930  156.4300 N   0  0  0  0  0  1  0  0  0  0  0  0
  154.8380  212.8020  153.5080 C   0  0  0  0  0  1  0  0  0  0  0  0
  160.1300  211.8020  154.2570 C   0  0  2  0  0  3  0  0  0  0  0  0
  157.2900  212.8270  154.4990 C   0  0  2  0  0  3  0  0  0  0  0  0
  161.1250  204.6570  150.4140 C   0  0  0  0  0  2  0  0  0  0  0  0
  160.8310  203.3130  150.9880 C   0  0  0  0  0  0  0  0  0  0  0  0
  160.4650  203.1920  152.3230 O   0  0  0  0  0  1  0  0  0  0  0  0
  160.8860  202.2900  150.2570 O   0  0  0  0  0  0  0  0  0  0  0  0
  1 16  1  0  0  0  0
  2 24  1  1  0  0  0
  2 27  1  0  0  0  0
  3 11  1  0  0  0  0
  3  4  1  0  0  0  0
  4 21  1  0  0  0  0
  5 25  1  6  0  0  0
  6 18  2  0  0  0  0
  6  5  1  0  0  0  0
  7 19  1  1  0  0  0
  7 24  1  0  0  0  0
  8 17  1  0  0  0  0
  9 28  1  0  0  0  0
  9 15  2  0  0  0  0
 10 20  1  0  0  0  0
 12  8  1  6  0  0  0
 12  2  1  0  0  0  0
 13 11  1  6  0  0  0
 13 12  1  0  0  0  0
 13 22  1  0  0  0  0
 14 23  1  6  0  0  0
 14 27  1  0  0  0  0
 15 18  1  0  0  0  0
 16 19  1  0  0  0  0
 17 10  1  6  0  0  0
 17  7  1  0  0  0  0
 20 29  1  6  0  0  0
 20  1  1  0  0  0  0
 22 21  1  6  0  0  0
 22 14  1  0  0  0  0
 23 28  1  0  0  0  0
 26  9  1  0  0  0  0
 27  5  1  0  0  0  0
 28  6  1  0  0  0  0
 29 30  1  0  0  0  0
 30 31  1  0  0  0  0
 32 30  2  0  0  0  0
M  END
>  <MODEL>
4

>  <REMARK>
 VINA RESULT:      -3.9      2.562      4.224
  Name = 
  2 active torsions:
  status: ('A' for Active; 'I' for Inactive)
    1  A    between atoms: C_20  and  C_29
    2  A    between atoms: C_29  and  C_30
                            x       y       z     vdW  Elec       q    Type
                         _______ _______ _______ _____ _____    ______ ____

>  <TORSDO>
F 2

$$$$
=
 OpenBabel11122412503D

 32 37  0  0  1  0  0  0  0  0999 V2000
  161.6510  202.9860  151.0010 C   0  0  0  0  0  2  0  0  0  0  0  0
  161.3050  208.4080  152.1960 C   0  0  1  0  0  3  0  0  0  0  0  0
  161.8930  210.8190  147.8580 C   0  0  0  0  0  2  0  0  0  0  0  0
  161.4920  212.0020  148.7450 C   0  0  0  0  0  2  0  0  0  0  0  0
  161.4660  209.7860  154.4190 C   0  0  1  0  0  3  0  0  0  0  0  0
  160.0770  210.3340  154.3960 C   0  0  0  0  0  0  0  0  0  0  0  0
  160.8680  205.9340  152.2050 C   0  0  1  0  0  3  0  0  0  0  0  0
  160.9370  207.3220  150.1200 C   0  0  0  0  0  2  0  0  0  0  0  0
  158.2760  211.4250  153.6320 C   0  0  0  0  0  0  0  0  0  0  0  0
  160.3790  204.9130  149.8880 C   0  0  0  0  0  2  0  0  0  0  0  0
  162.0990  209.5090  148.6360 C   0  0  0  0  0  2  0  0  0  0  0  0
  161.7760  208.3200  150.7930 N   0  0  1  0  0  0  0  0  0  0  0  0
  161.5810  209.5930  150.0800 C   0  0  1  0  0  3  0  0  0  0  0  0
  161.7870  210.9080  152.2010 C   0  0  1  0  0  3  0  0  0  0  0  0
  157.8940  210.3720  154.2740 N   0  0  0  0  0  0  0  0  0  0  0  0
  162.2480  203.7710  152.1800 C   0  0  0  0  0  2  0  0  0  0  0  0
  161.1870  205.9340  150.6950 C   0  0  2  0  0  3  0  0  0  0  0  0
  159.0160  209.6700  154.7190 N   0  0  0  0  0  0  0  0  0  0  0  0
  161.2140  204.6210  152.9270 C   0  0  0  0  0  2  0  0  0  0  0  0
  160.2990  203.5120  150.5090 C   0  0  1  0  0  3  0  0  0  0  0  0
  162.3470  212.0560  150.0110 C   0  0  0  0  0  2  0  0  0  0  0  0
  162.3270  210.7310  150.7920 C   0  0  2  0  0  3  0  0  0  0  0  0
  160.3060  211.3630  152.1860 C   0  0  0  0  0  2  0  0  0  0  0  0
  161.6080  207.0760  152.8900 C   0  0  0  0  0  2  0  0  0  0  0  0
  161.5810  208.6010  155.2550 N   0  0  0  0  0  1  0  0  0  0  0  0
  157.3230  212.3970  153.0340 C   0  0  0  0  0  1  0  0  0  0  0  0
  161.9730  209.5800  152.9710 C   0  0  2  0  0  3  0  0  0  0  0  0
  159.7620  211.5520  153.6040 C   0  0  2  0  0  3  0  0  0  0  0  0
  159.7050  202.5280  149.5160 C   0  0  0  0  0  2  0  0  0  0  0  0
  160.7530  202.0060  148.5930 C   0  0  0  0  0  0  0  0  0  0  0  0
  161.2060  200.7000  148.7250 O   0  0  0  0  0  1  0  0  0  0  0  0
  161.2060  202.7390  147.6760 O   0  0  0  0  0  0  0  0  0  0  0  0
  1 16  1  0  0  0  0
  2 24  1  1  0  0  0
  2 27  1  0  0  0  0
  3 11  1  0  0  0  0
  3  4  1  0  0  0  0
  4 21  1  0  0  0  0
  5 25  1  1  0  0  0
  6  5  1  0  0  0  0
  6 18  2  0  0  0  0
  7 24  1  1  0  0  0
  7 19  1  0  0  0  0
  8 17  1  0  0  0  0
  9 15  2  0  0  0  0
 10 20  1  0  0  0  0
 12  8  1  6  0  0  0
 12  2  1  0  0  0  0
 13 11  1  6  0  0  0
 13 22  1  0  0  0  0
 13 12  1  0  0  0  0
 14 23  1  6  0  0  0
 14 27  1  0  0  0  0
 15 18  1  0  0  0  0
 16 19  1  0  0  0  0
 17 10  1  6  0  0  0
 17  7  1  0  0  0  0
 20 29  1  6  0  0  0
 20  1  1  0  0  0  0
 22 21  1  6  0  0  0
 22 14  1  0  0  0  0
 23 28  1  0  0  0  0
 26  9  1  0  0  0  0
 27  5  1  0  0  0  0
 28  9  1  0  0  0  0
 28  6  1  0  0  0  0
 30 31  1  0  0  0  0
 30 29  1  0  0  0  0
 32 30  2  0  0  0  0
M  END
>  <MODEL>
5

>  <REMARK>
 VINA RESULT:      -3.6      3.036      4.985
  Name = 
  2 active torsions:
  status: ('A' for Active; 'I' for Inactive)
    1  A    between atoms: C_20  and  C_29
    2  A    between atoms: C_29  and  C_30
                            x       y       z     vdW  Elec       q    Type
                         _______ _______ _______ _____ _____    ______ ____

>  <TORSDO>
F 2

$$$$
=
 OpenBabel11122412503D

 32 37  0  0  1  0  0  0  0  0999 V2000
  162.4910  209.5440  137.0120 C   0  0  0  0  0  2  0  0  0  0  0  0
  159.7460  212.6690  140.7070 C   0  0  1  0  0  3  0  0  0  0  0  0
  154.9480  212.5580  139.3170 C   0  0  0  0  0  2  0  0  0  0  0  0
  154.7950  213.2630  140.6670 C   0  0  0  0  0  2  0  0  0  0  0  0
  160.4900  214.4530  142.4760 C   0  0  1  0  0  3  0  0  0  0  0  0
  160.0300  213.7120  143.6890 C   0  0  0  0  0  0  0  0  0  0  0  0
  161.3770  211.0380  139.7100 C   0  0  1  0  0  3  0  0  0  0  0  0
  158.9060  210.9490  139.3070 C   0  0  0  0  0  2  0  0  0  0  0  0
  158.6340  212.6440  145.0770 C   0  0  0  0  0  0  0  0  0  0  0  0
  160.3080  209.1620  138.3010 C   0  0  0  0  0  2  0  0  0  0  0  0
  156.4100  212.3410  138.8960 C   0  0  0  0  0  2  0  0  0  0  0  0
  158.7880  212.3790  139.6130 N   0  0  1  0  0  0  0  0  0  0  0  0
  157.3990  212.6110  140.0400 C   0  0  1  0  0  3  0  0  0  0  0  0
  158.1100  214.3530  141.6930 C   0  0  1  0  0  3  0  0  0  0  0  0
  159.7920  212.0740  145.1180 N   0  0  0  0  0  0  0  0  0  0  0  0
  162.8770  210.8960  137.6340 C   0  0  0  0  0  2  0  0  0  0  0  0
  160.2730  210.6380  138.7100 C   0  0  2  0  0  3  0  0  0  0  0  0
  160.6530  212.7150  144.2240 N   0  0  0  0  0  0  0  0  0  0  0  0
  162.8080  210.8990  139.1650 C   0  0  0  0  0  2  0  0  0  0  0  0
  161.6980  208.6210  137.9440 C   0  0  1  0  0  3  0  0  0  0  0  0
  155.7480  214.4530  140.7780 C   0  0  0  0  0  2  0  0  0  0  0  0
  157.2110  214.0630  140.5040 C   0  0  2  0  0  3  0  0  0  0  0  0
  157.7140  213.4980  142.9230 C   0  0  0  0  0  2  0  0  0  0  0  0
  161.1660  212.4760  140.1660 C   0  0  0  0  0  2  0  0  0  0  0  0
  161.9070  214.2610  142.2130 N   0  0  0  0  0  1  0  0  0  0  0  0
  157.4880  212.2070  145.9190 C   0  0  0  0  0  1  0  0  0  0  0  0
  159.5780  214.1080  141.2730 C   0  0  2  0  0  3  0  0  0  0  0  0
  158.6110  213.7940  144.1270 C   0  0  2  0  0  3  0  0  0  0  0  0
  161.5830  207.2440  137.3130 C   0  0  0  0  0  2  0  0  0  0  0  0
  162.4190  206.2520  138.0450 C   0  0  0  0  0  0  0  0  0  0  0  0
  162.5670  206.3490  139.4230 O   0  0  0  0  0  1  0  0  0  0  0  0
  162.9690  205.3080  137.4200 O   0  0  0  0  0  0  0  0  0  0  0  0
  1 16  1  0  0  0  0
  1 20  1  0  0  0  0
  2 24  1  6  0  0  0
  2 27  1  0  0  0  0
  3  4  1  0  0  0  0
  4 21  1  0  0  0  0
  5 25  1  6  0  0  0
  5  6  1  0  0  0  0
  6 28  1  0  0  0  0
  6 18  2  0  0  0  0
  7 19  1  6  0  0  0
  7 24  1  0  0  0  0
  9 15  2  0  0  0  0
  9 26  1  0  0  0  0
 11  3  1  0  0  0  0
 12  8  1  1  0  0  0
 12 13  1  0  0  0  0
 12  2  1  0  0  0  0
 13 11  1  6  0  0  0
 13 22  1  0  0  0  0
 14 23  1  1  0  0  0
 16 19  1  0  0  0  0
 17 10  1  1  0  0  0
 17  8  1  0  0  0  0
 17  7  1  0  0  0  0
 18 15  1  0  0  0  0
 20 29  1  6  0  0  0
 20 10  1  0  0  0  0
 22 21  1  1  0  0  0
 22 14  1  0  0  0  0
 23 28  1  0  0  0  0
 27 14  1  0  0  0  0
 27  5  1  0  0  0  0
 28  9  1  0  0  0  0
 29 30  1  0  0  0  0
 30 31  1  0  0  0  0
 32 30  2  0  0  0  0
M  END
>  <MODEL>
6

>  <REMARK>
 VINA RESULT:      -3.2      7.680     11.196
  Name = 
  2 active torsions:
  status: ('A' for Active; 'I' for Inactive)
    1  A    between atoms: C_20  and  C_29
    2  A    between atoms: C_29  and  C_30
                            x       y       z     vdW  Elec       q    Type
                         _______ _______ _______ _____ _____    ______ ____

>  <TORSDO>
F 2

$$$$
=
 OpenBabel11122412503D

 32 37  0  0  1  0  0  0  0  0999 V2000
  159.2630  214.2470  148.3840 C   0  0  0  0  0  2  0  0  0  0  0  0
  159.9200  211.7390  153.3060 C   0  0  1  0  0  3  0  0  0  0  0  0
  156.0520  213.1840  156.1210 C   0  0  0  0  0  2  0  0  0  0  0  0
  156.6380  212.1100  157.0420 C   0  0  0  0  0  2  0  0  0  0  0  0
  161.9430  210.5570  154.4810 C   0  0  1  0  0  3  0  0  0  0  0  0
  161.3370  209.1950  154.5630 C   0  0  0  0  0  0  0  0  0  0  0  0
  159.8900  212.1520  150.8280 C   0  0  1  0  0  3  0  0  0  0  0  0
  157.9320  212.5900  152.3300 C   0  0  0  0  0  2  0  0  0  0  0  0
  159.8580  207.5960  155.0880 C   0  0  0  0  0  0  0  0  0  0  0  0
  157.6300  212.9730  149.8960 C   0  0  0  0  0  2  0  0  0  0  0  0
  156.9180  213.4750  154.8850 C   0  0  0  0  0  2  0  0  0  0  0  0
  158.8290  212.7260  153.4850 N   0  0  1  0  0  0  0  0  0  0  0  0
  158.0280  212.4320  154.6840 C   0  0  1  0  0  3  0  0  0  0  0  0
  159.9790  211.3500  155.8220 C   0  0  1  0  0  3  0  0  0  0  0  0
  160.3520  207.3510  153.9210 N   0  0  0  0  0  0  0  0  0  0  0  0
  160.5370  214.0430  149.2200 C   0  0  0  0  0  2  0  0  0  0  0  0
  158.6350  213.0230  151.0500 C   0  0  2  0  0  3  0  0  0  0  0  0
  161.2450  208.3670  153.5750 N   0  0  0  0  0  0  0  0  0  0  0  0
  160.7610  212.5860  149.6380 C   0  0  0  0  0  2  0  0  0  0  0  0
  158.2430  213.1080  148.4950 C   0  0  1  0  0  3  0  0  0  0  0  0
  158.1350  212.3290  157.2610 C   0  0  0  0  0  2  0  0  0  0  0  0
  158.9150  212.4270  155.9380 C   0  0  2  0  0  3  0  0  0  0  0  0
  159.3490  209.9350  155.7860 C   0  0  0  0  0  2  0  0  0  0  0  0
  160.7490  212.1520  152.0860 C   0  0  0  0  0  2  0  0  0  0  0  0
  162.8190  210.7060  153.3290 N   0  0  0  0  0  1  0  0  0  0  0  0
  158.8770  206.7000  155.7560 C   0  0  0  0  0  1  0  0  0  0  0  0
  160.8310  211.6320  154.5630 C   0  0  2  0  0  3  0  0  0  0  0  0
  160.4190  208.8460  155.6800 C   0  0  2  0  0  3  0  0  0  0  0  0
  157.1520  213.3050  147.4580 C   0  0  0  0  0  2  0  0  0  0  0  0
  157.7200  213.3000  146.0800 C   0  0  0  0  0  0  0  0  0  0  0  0
  158.4440  212.2030  145.6310 O   0  0  0  0  0  1  0  0  0  0  0  0
  157.5210  214.2780  145.3130 O   0  0  0  0  0  0  0  0  0  0  0  0
  1 20  1  0  0  0  0
  1 16  1  0  0  0  0
  2 24  1  6  0  0  0
  2 12  1  0  0  0  0
  2 27  1  0  0  0  0
  3  4  1  0  0  0  0
  4 21  1  0  0  0  0
  5 25  1  6  0  0  0
  5 27  1  0  0  0  0
  5  6  1  0  0  0  0
  6 28  1  0  0  0  0
  7 19  1  6  0  0  0
  7 17  1  0  0  0  0
  7 24  1  0  0  0  0
  9 28  1  0  0  0  0
  9 26  1  0  0  0  0
 11  3  1  0  0  0  0
 12  8  1  6  0  0  0
 12 13  1  0  0  0  0
 13 11  1  1  0  0  0
 13 22  1  0  0  0  0
 14 23  1  6  0  0  0
 14 22  1  0  0  0  0
 15  9  2  0  0  0  0
 16 19  1  0  0  0  0
 17 10  1  6  0  0  0
 17  8  1  0  0  0  0
 18 15  1  0  0  0  0
 18  6  2  0  0  0  0
 20 29  1  6  0  0  0
 20 10  1  0  0  0  0
 22 21  1  1  0  0  0
 27 14  1  0  0  0  0
 28 23  1  0  0  0  0
 30 29  1  0  0  0  0
 31 30  1  0  0  0  0
 32 30  2  0  0  0  0
M  END
>  <MODEL>
7

>  <REMARK>
 VINA RESULT:      -2.9      3.701      8.017
  Name = 
  2 active torsions:
  status: ('A' for Active; 'I' for Inactive)
    1  A    between atoms: C_20  and  C_29
    2  A    between atoms: C_29  and  C_30
                            x       y       z     vdW  Elec       q    Type
                         _______ _______ _______ _____ _____    ______ ____

>  <TORSDO>
F 2

$$$$
