=
 OpenBabel11122412433D

 30 35  0  0  1  0  0  0  0  0999 V2000
  161.3580  204.7910  148.8280 C   0  0  2  0  0  3  0  0  0  0  0  0
  160.7980  202.2390  148.6770 C   0  0  0  0  0  0  0  0  0  0  0  0
  161.1270  204.5690  152.9010 N   0  0  0  0  0  2  0  0  0  0  0  0
  161.0020  205.8990  149.8290 C   0  0  2  0  0  3  0  0  0  0  0  0
  160.5700  204.9180  147.6700 O   0  0  0  0  0  0  0  0  0  0  0  0
  160.9610  208.4580  147.0320 O   0  0  0  0  0  1  0  0  0  0  0  0
  161.8230  208.8630  150.9580 C   0  0  0  0  0  0  0  0  0  0  0  0
  160.5280  207.3030  147.6910 C   0  0  1  0  0  3  0  0  0  0  0  0
  161.5610  208.1610  152.0560 C   0  0  1  0  0  3  0  0  0  0  0  0
  161.0170  205.9630  153.1270 C   0  0  0  0  0  0  0  0  0  0  0  0
  161.0500  206.0490  146.9900 C   0  0  2  0  0  3  0  0  0  0  0  0
  160.9370  207.3090  149.1770 C   0  0  2  0  0  3  0  0  0  0  0  0
  160.2960  200.9960  149.3490 C   0  0  0  0  0  2  0  0  0  0  0  0
  161.3180  209.0160  153.1630 N   0  0  0  0  0  0  0  0  0  0  0  0
  161.7430  210.3120  151.2870 C   0  0  0  0  0  3  0  0  0  0  0  0
  160.8890  202.2560  147.4220 O   0  0  0  0  0  0  0  0  0  0  0  0
  161.8990  204.3980  151.6780 C   0  0  2  0  0  3  0  0  0  0  0  0
  160.7890  200.8850  150.7630 C   0  0  0  0  0  3  0  0  0  0  0  0
  161.1480  203.4360  149.4850 C   0  0  0  0  0  0  0  0  0  0  0  0
  161.9520  205.7940  151.0270 C   0  0  2  0  0  3  0  0  0  0  0  0
  160.4400  206.5010  154.3130 N   0  0  0  0  0  1  0  0  0  0  0  0
  161.4910  206.6870  152.1260 C   0  0  0  0  0  0  0  0  0  0  0  0
  161.4200  210.2360  152.7460 C   0  0  0  0  0  3  0  0  0  0  0  0
  163.4410  207.8290  149.3320 C   0  0  0  0  0  1  0  0  0  0  0  0
  161.2560  201.9390  151.4340 C   0  0  0  0  0  3  0  0  0  0  0  0
  161.3740  203.2750  150.8120 C   0  0  0  0  0  0  0  0  0  0  0  0
  162.0240  208.3330  149.5650 C   0  0  2  0  0  3  0  0  0  0  0  0
  160.5630  206.0210  145.5460 C   0  0  0  0  0  2  0  0  0  0  0  0
  160.4880  203.8610  144.5310 O   0  0  0  0  0  1  0  0  0  0  0  0
  161.3060  204.9700  144.7420 C   0  0  0  0  0  2  0  0  0  0  0  0
  1  5  1  6  0  0  0
  1 19  1  0  0  0  0
  1  4  1  0  0  0  0
  2 13  1  0  0  0  0
  2 19  1  0  0  0  0
  3 10  1  0  0  0  0
  4 20  1  0  0  0  0
  6  8  1  0  0  0  0
  7 15  2  0  0  0  0
  7  9  1  0  0  0  0
  8 12  1  0  0  0  0
  9 22  1  0  0  0  0
  9 14  1  0  0  0  0
 10 21  1  0  0  0  0
 11  5  1  0  0  0  0
 11  8  1  0  0  0  0
 12 27  1  0  0  0  0
 12  4  1  0  0  0  0
 13 18  1  0  0  0  0
 15 23  1  0  0  0  0
 16  2  2  0  0  0  0
 17  3  1  0  0  0  0
 18 25  2  0  0  0  0
 19 26  2  0  0  0  0
 20 17  1  0  0  0  0
 20 22  1  0  0  0  0
 22 10  2  0  0  0  0
 23 14  2  0  0  0  0
 24 27  1  0  0  0  0
 26 25  1  0  0  0  0
 26 17  1  0  0  0  0
 27  7  1  0  0  0  0
 28 11  1  0  0  0  0
 29 30  1  0  0  0  0
 30 28  1  0  0  0  0
M  END
>  <MODEL>
1

>  <REMARK>
 VINA RESULT:      -6.8      0.000      0.000
  Name = 
  2 active torsions:
  status: ('A' for Active; 'I' for Inactive)
    1  A    between atoms: C_11  and  C_28
    2  A    between atoms: C_28  and  C_30
                            x       y       z     vdW  Elec       q    Type
                         _______ _______ _______ _____ _____    ______ ____

>  <TORSDO>
F 2

$$$$
=
 OpenBabel11122412433D

 30 35  0  0  1  0  0  0  0  0999 V2000
  160.4660  212.0030  151.7380 C   0  0  2  0  0  3  0  0  0  0  0  0
  160.4420  213.4550  149.5620 C   0  0  0  0  0  0  0  0  0  0  0  0
  161.9990  208.8780  149.6000 N   0  0  0  0  0  2  0  0  0  0  0  0
  160.3330  210.4980  152.0120 C   0  0  2  0  0  3  0  0  0  0  0  0
  159.2600  212.6560  152.0530 O   0  0  0  0  0  0  0  0  0  0  0  0
  158.5970  211.2170  155.3060 O   0  0  0  0  0  1  0  0  0  0  0  0
  160.9060  208.1020  154.1720 C   0  0  0  0  0  0  0  0  0  0  0  0
  158.7310  211.2610  153.9150 C   0  0  1  0  0  3  0  0  0  0  0  0
  161.2780  207.5810  153.0070 C   0  0  0  0  0  0  0  0  0  0  0  0
  161.7030  207.8750  150.5560 C   0  0  0  0  0  0  0  0  0  0  0  0
  159.1650  212.6530  153.4550 C   0  0  2  0  0  3  0  0  0  0  0  0
  159.7090  210.1860  153.4020 C   0  0  2  0  0  3  0  0  0  0  0  0
  160.5380  213.5240  148.0670 C   0  0  0  0  0  2  0  0  0  0  0  0
  161.3430  206.1650  153.0770 N   0  0  0  0  0  0  0  0  0  0  0  0
  160.6680  206.9930  155.1350 C   0  0  0  0  0  2  0  0  0  0  0  0
  159.9980  214.4520  150.1880 O   0  0  0  0  0  0  0  0  0  0  0  0
  162.2100  210.1160  150.3380 C   0  0  2  0  0  3  0  0  0  0  0  0
  161.5860  212.5920  147.5290 C   0  0  0  0  0  3  0  0  0  0  0  0
  160.8370  212.2160  150.2800 C   0  0  0  0  0  0  0  0  0  0  0  0
  161.6930  209.8380  151.7630 C   0  0  2  0  0  3  0  0  0  0  0  0
  161.5720  206.5010  150.2050 N   0  0  0  0  0  1  0  0  0  0  0  0
  161.5550  208.3560  151.7790 C   0  0  0  0  0  0  0  0  0  0  0  0
  161.0040  205.8160  154.2750 C   0  0  0  0  0  3  0  0  0  0  0  0
  161.8800  210.3480  154.7520 C   0  0  0  0  0  1  0  0  0  0  0  0
  162.0570  211.5690  148.2440 C   0  0  0  0  0  3  0  0  0  0  0  0
  161.6210  211.3180  149.6340 C   0  0  0  0  0  0  0  0  0  0  0  0
  160.6170  209.5470  154.4730 C   0  0  2  0  0  3  0  0  0  0  0  0
  158.1400  213.6890  153.8990 C   0  0  0  0  0  2  0  0  0  0  0  0
  155.7950  213.2820  153.7060 O   0  0  0  0  0  1  0  0  0  0  0  0
  156.9250  213.6760  152.9900 C   0  0  0  0  0  2  0  0  0  0  0  0
  1 19  1  6  0  0  0
  1  4  1  0  0  0  0
  1  5  1  0  0  0  0
  2 16  2  0  0  0  0
  2 19  1  0  0  0  0
  3 17  1  0  0  0  0
  3 10  1  0  0  0  0
  4 12  1  0  0  0  0
  5 11  1  0  0  0  0
  7 27  1  0  0  0  0
  7 15  1  0  0  0  0
  8  6  1  0  0  0  0
  9 14  1  0  0  0  0
  9  7  2  0  0  0  0
 10 22  2  0  0  0  0
 11 28  1  0  0  0  0
 11  8  1  0  0  0  0
 12  8  1  0  0  0  0
 12 27  1  0  0  0  0
 13  2  1  0  0  0  0
 14 23  2  0  0  0  0
 17 20  1  0  0  0  0
 18 13  1  0  0  0  0
 18 25  2  0  0  0  0
 20 22  1  0  0  0  0
 20  4  1  0  0  0  0
 21 10  1  0  0  0  0
 22  9  1  0  0  0  0
 23 15  1  0  0  0  0
 25 26  1  0  0  0  0
 26 19  2  0  0  0  0
 26 17  1  0  0  0  0
 27 24  1  0  0  0  0
 30 29  1  0  0  0  0
 30 28  1  0  0  0  0
M  END
>  <MODEL>
2

>  <REMARK>
 VINA RESULT:      -6.6      4.953      8.174
  Name = 
  2 active torsions:
  status: ('A' for Active; 'I' for Inactive)
    1  A    between atoms: C_11  and  C_28
    2  A    between atoms: C_28  and  C_30
                            x       y       z     vdW  Elec       q    Type
                         _______ _______ _______ _____ _____    ______ ____

>  <TORSDO>
F 2

$$$$
=
 OpenBabel11122412433D

 30 35  0  0  1  0  0  0  0  0999 V2000
  161.2760  207.9290  151.0010 C   0  0  2  0  0  3  0  0  0  0  0  0
  161.4820  209.1760  153.2920 C   0  0  0  0  0  0  0  0  0  0  0  0
  161.0320  204.3710  152.9920 N   0  0  0  0  0  2  0  0  0  0  0  0
  161.6760  206.5290  150.5130 C   0  0  2  0  0  3  0  0  0  0  0  0
  162.1940  208.8840  150.5260 O   0  0  0  0  0  0  0  0  0  0  0  0
  162.3820  207.9000  147.0500 O   0  0  0  0  0  1  0  0  0  0  0  0
  161.1670  204.2340  148.2320 C   0  0  0  0  0  0  0  0  0  0  0  0
  162.5720  207.8060  148.4320 C   0  0  1  0  0  3  0  0  0  0  0  0
  161.2060  203.5510  149.3720 C   0  0  1  0  0  3  0  0  0  0  0  0
  161.3140  203.5470  151.8750 C   0  0  0  0  0  0  0  0  0  0  0  0
  161.9560  209.0080  149.1480 C   0  0  2  0  0  3  0  0  0  0  0  0
  162.0100  206.4870  148.9950 C   0  0  2  0  0  3  0  0  0  0  0  0
  161.7260  209.1070  154.7700 C   0  0  0  0  0  2  0  0  0  0  0  0
  161.4470  202.1730  149.1350 N   0  0  0  0  0  0  0  0  0  0  0  0
  161.4160  203.2940  147.1060 C   0  0  0  0  0  3  0  0  0  0  0  0
  161.5300  210.2960  152.7200 O   0  0  0  0  0  0  0  0  0  0  0  0
  160.3800  205.5690  152.4820 C   0  0  2  0  0  3  0  0  0  0  0  0
  161.0720  207.9060  155.3910 C   0  0  0  0  0  3  0  0  0  0  0  0
  161.2190  207.9340  152.5190 C   0  0  0  0  0  0  0  0  0  0  0  0
  160.5970  205.5350  150.9560 C   0  0  2  0  0  3  0  0  0  0  0  0
  161.8300  202.2260  152.0110 N   0  0  0  0  0  1  0  0  0  0  0  0
  161.0580  204.1390  150.7200 C   0  0  0  0  0  0  0  0  0  0  0  0
  161.5650  202.0090  147.8580 C   0  0  0  0  0  3  0  0  0  0  0  0
  159.6030  206.2030  148.1630 C   0  0  0  0  0  1  0  0  0  0  0  0
  160.6900  206.8540  154.6660 C   0  0  0  0  0  3  0  0  0  0  0  0
  160.8310  206.8240  153.1940 C   0  0  0  0  0  0  0  0  0  0  0  0
  161.0450  205.7230  148.0660 C   0  0  2  0  0  3  0  0  0  0  0  0
  162.5870  210.2970  148.6360 C   0  0  0  0  0  2  0  0  0  0  0  0
  162.2080  212.6520  148.5350 O   0  0  0  0  0  1  0  0  0  0  0  0
  161.9560  211.5100  149.2940 C   0  0  0  0  0  2  0  0  0  0  0  0
  1  5  1  1  0  0  0
  1 19  1  0  0  0  0
  2 13  1  0  0  0  0
  4 20  1  0  0  0  0
  4  1  1  0  0  0  0
  6  8  1  0  0  0  0
  7  9  1  0  0  0  0
  8 12  1  0  0  0  0
  8 11  1  0  0  0  0
  9 22  1  0  0  0  0
 10 21  1  0  0  0  0
 10  3  1  0  0  0  0
 11  5  1  0  0  0  0
 12  4  1  0  0  0  0
 13 18  1  0  0  0  0
 14  9  1  0  0  0  0
 15 23  1  0  0  0  0
 15  7  2  0  0  0  0
 16  2  2  0  0  0  0
 17  3  1  0  0  0  0
 17 26  1  0  0  0  0
 19 26  2  0  0  0  0
 19  2  1  0  0  0  0
 20 17  1  0  0  0  0
 22 20  1  0  0  0  0
 22 10  2  0  0  0  0
 23 14  2  0  0  0  0
 25 18  2  0  0  0  0
 26 25  1  0  0  0  0
 27 24  1  0  0  0  0
 27  7  1  0  0  0  0
 27 12  1  0  0  0  0
 28 11  1  0  0  0  0
 28 30  1  0  0  0  0
 29 30  1  0  0  0  0
M  END
>  <MODEL>
3

>  <REMARK>
 VINA RESULT:      -6.5      2.307      5.853
  Name = 
  2 active torsions:
  status: ('A' for Active; 'I' for Inactive)
    1  A    between atoms: C_11  and  C_28
    2  A    between atoms: C_28  and  C_30
                            x       y       z     vdW  Elec       q    Type
                         _______ _______ _______ _____ _____    ______ ____

>  <TORSDO>
F 2

$$$$
=
 OpenBabel11122412433D

 30 35  0  0  1  0  0  0  0  0999 V2000
  161.5860  208.8120  151.7160 C   0  0  2  0  0  3  0  0  0  0  0  0
  161.4300  211.3280  151.0120 C   0  0  0  0  0  0  0  0  0  0  0  0
  161.4500  207.7330  147.7790 N   0  0  0  0  0  2  0  0  0  0  0  0
  161.0740  207.5030  151.0990 C   0  0  2  0  0  3  0  0  0  0  0  0
  160.7710  209.1820  152.8020 O   0  0  0  0  0  0  0  0  0  0  0  0
  160.5920  206.0230  154.5560 O   0  0  0  0  0  1  0  0  0  0  0  0
  161.4360  204.2480  151.0270 C   0  0  0  0  0  0  0  0  0  0  0  0
  160.3560  206.9510  153.5380 C   0  0  1  0  0  3  0  0  0  0  0  0
  161.3030  204.5850  149.7490 C   0  0  0  0  0  0  0  0  0  0  0  0
  161.1260  206.3720  148.0020 C   0  0  0  0  0  0  0  0  0  0  0  0
  161.0580  208.2760  153.8360 C   0  0  2  0  0  3  0  0  0  0  0  0
  160.7800  206.4060  152.1610 C   0  0  2  0  0  3  0  0  0  0  0  0
  161.1390  212.3440  149.9480 C   0  0  0  0  0  2  0  0  0  0  0  0
  160.9440  203.4620  148.9580 N   0  0  0  0  0  0  0  0  0  0  0  0
  161.1340  202.7980  151.1720 C   0  0  0  0  0  2  0  0  0  0  0  0
  161.5000  211.7060  152.2100 O   0  0  0  0  0  0  0  0  0  0  0  0
  162.2220  208.1780  148.9310 C   0  0  2  0  0  3  0  0  0  0  0  0
  161.6640  211.9190  148.6080 C   0  0  0  0  0  3  0  0  0  0  0  0
  161.6000  209.8960  150.6510 C   0  0  0  0  0  0  0  0  0  0  0  0
  162.0460  207.0760  149.9940 C   0  0  2  0  0  3  0  0  0  0  0  0
  160.4880  205.5670  147.0140 N   0  0  0  0  0  1  0  0  0  0  0  0
  161.4660  205.9520  149.2090 C   0  0  0  0  0  0  0  0  0  0  0  0
  160.8480  202.4420  149.7470 C   0  0  0  0  0  3  0  0  0  0  0  0
  163.1730  205.5080  152.3400 C   0  0  0  0  0  1  0  0  0  0  0  0
  161.9700  210.6490  148.3380 C   0  0  0  0  0  3  0  0  0  0  0  0
  161.8670  209.5840  149.3590 C   0  0  0  0  0  0  0  0  0  0  0  0
  161.6980  205.1660  152.1890 C   0  0  2  0  0  3  0  0  0  0  0  0
  160.5610  208.8400  155.1610 C   0  0  0  0  0  2  0  0  0  0  0  0
  162.1020  210.6380  155.4710 O   0  0  0  0  0  1  0  0  0  0  0  0
  161.7110  209.4000  155.9790 C   0  0  0  0  0  2  0  0  0  0  0  0
  1 19  1  6  0  0  0
  1  5  1  0  0  0  0
  2 16  2  0  0  0  0
  3 10  1  0  0  0  0
  3 17  1  0  0  0  0
  4  1  1  0  0  0  0
  4 12  1  0  0  0  0
  5 11  1  0  0  0  0
  7 15  1  0  0  0  0
  7 27  1  0  0  0  0
  8 11  1  0  0  0  0
  8  6  1  0  0  0  0
  9  7  2  0  0  0  0
 10 22  2  0  0  0  0
 11 28  1  0  0  0  0
 12 27  1  0  0  0  0
 12  8  1  0  0  0  0
 13  2  1  0  0  0  0
 14 23  2  0  0  0  0
 14  9  1  0  0  0  0
 17 26  1  0  0  0  0
 17 20  1  0  0  0  0
 18 13  1  0  0  0  0
 19  2  1  0  0  0  0
 20  4  1  0  0  0  0
 21 10  1  0  0  0  0
 22  9  1  0  0  0  0
 22 20  1  0  0  0  0
 23 15  1  0  0  0  0
 25 18  2  0  0  0  0
 25 26  1  0  0  0  0
 26 19  2  0  0  0  0
 27 24  1  0  0  0  0
 28 30  1  0  0  0  0
 29 30  1  0  0  0  0
M  END
>  <MODEL>
4

>  <REMARK>
 VINA RESULT:      -6.3      3.521      7.469
  Name = 
  2 active torsions:
  status: ('A' for Active; 'I' for Inactive)
    1  A    between atoms: C_11  and  C_28
    2  A    between atoms: C_28  and  C_30
                            x       y       z     vdW  Elec       q    Type
                         _______ _______ _______ _____ _____    ______ ____

>  <TORSDO>
F 2

$$$$
=
 OpenBabel11122412433D

 30 35  0  0  1  0  0  0  0  0999 V2000
  160.8200  203.6760  147.9780 C   0  0  2  0  0  3  0  0  0  0  0  0
  161.0970  203.8050  145.3800 C   0  0  0  0  0  0  0  0  0  0  0  0
  161.3390  207.7210  148.2050 N   0  0  0  0  0  2  0  0  0  0  0  0
  161.3670  204.5070  149.1470 C   0  0  2  0  0  3  0  0  0  0  0  0
  161.5250  202.4620  147.8810 O   0  0  0  0  0  0  0  0  0  0  0  0
  161.4600  201.4180  151.3440 O   0  0  0  0  0  1  0  0  0  0  0  0
  160.9500  205.3110  152.2960 C   0  0  0  0  0  0  0  0  0  0  0  0
  161.8190  202.1860  150.2320 C   0  0  1  0  0  3  0  0  0  0  0  0
  161.2200  206.4680  151.7010 C   0  0  0  0  0  0  0  0  0  0  0  0
  161.6110  207.7660  149.5940 C   0  0  0  0  0  0  0  0  0  0  0  0
  161.1160  201.6800  148.9720 C   0  0  2  0  0  3  0  0  0  0  0  0
  161.5280  203.6830  150.4560 C   0  0  2  0  0  3  0  0  0  0  0  0
  161.5160  204.5930  144.1740 C   0  0  0  0  0  2  0  0  0  0  0  0
  161.6360  207.4430  152.6460 N   0  0  0  0  0  0  0  0  0  0  0  0
  161.2060  205.4530  153.7550 C   0  0  0  0  0  2  0  0  0  0  0  0
  160.9120  202.5660  145.2610 O   0  0  0  0  0  0  0  0  0  0  0  0
  160.4620  206.5800  147.9820 C   0  0  2  0  0  3  0  0  0  0  0  0
  161.1240  206.0380  144.2840 C   0  0  0  0  0  3  0  0  0  0  0  0
  160.9370  204.4800  146.6940 C   0  0  0  0  0  0  0  0  0  0  0  0
  160.5060  205.7670  149.2910 C   0  0  2  0  0  3  0  0  0  0  0  0
  162.3310  208.8370  150.1980 N   0  0  0  0  0  1  0  0  0  0  0  0
  161.1410  206.7150  150.2460 C   0  0  0  0  0  0  0  0  0  0  0  0
  161.6310  206.8860  153.8120 C   0  0  0  0  0  3  0  0  0  0  0  0
  159.1120  203.9320  151.2710 C   0  0  0  0  0  1  0  0  0  0  0  0
  160.8230  206.6020  145.4550 C   0  0  0  0  0  3  0  0  0  0  0  0
  160.7990  205.8280  146.7140 C   0  0  0  0  0  0  0  0  0  0  0  0
  160.5880  204.0100  151.6340 C   0  0  2  0  0  3  0  0  0  0  0  0
  161.4850  200.2230  148.7220 C   0  0  0  0  0  2  0  0  0  0  0  0
  161.2060  199.4530  146.4790 O   0  0  0  0  0  1  0  0  0  0  0  0
  162.1140  200.0490  147.3530 C   0  0  0  0  0  2  0  0  0  0  0  0
  1 19  1  6  0  0  0
  1  4  1  0  0  0  0
  2 19  1  0  0  0  0
  3 10  1  0  0  0  0
  4 20  1  0  0  0  0
  4 12  1  0  0  0  0
  5  1  1  0  0  0  0
  5 11  1  0  0  0  0
  7 15  1  0  0  0  0
  8 12  1  0  0  0  0
  8  6  1  0  0  0  0
  9  7  2  0  0  0  0
  9 14  1  0  0  0  0
 10 21  1  0  0  0  0
 10 22  2  0  0  0  0
 11  8  1  0  0  0  0
 12 27  1  0  0  0  0
 13 18  1  0  0  0  0
 13  2  1  0  0  0  0
 14 23  2  0  0  0  0
 15 23  1  0  0  0  0
 16  2  2  0  0  0  0
 17  3  1  0  0  0  0
 17 20  1  0  0  0  0
 18 25  2  0  0  0  0
 19 26  2  0  0  0  0
 20 22  1  0  0  0  0
 22  9  1  0  0  0  0
 24 27  1  0  0  0  0
 25 26  1  0  0  0  0
 26 17  1  0  0  0  0
 27  7  1  0  0  0  0
 28 11  1  0  0  0  0
 29 30  1  0  0  0  0
 30 28  1  0  0  0  0
M  END
>  <MODEL>
5

>  <REMARK>
 VINA RESULT:      -5.4      1.925      4.832
  Name = 
  2 active torsions:
  status: ('A' for Active; 'I' for Inactive)
    1  A    between atoms: C_11  and  C_28
    2  A    between atoms: C_28  and  C_30
                            x       y       z     vdW  Elec       q    Type
                         _______ _______ _______ _____ _____    ______ ____

>  <TORSDO>
F 2

$$$$
=
 OpenBabel11122412433D

 30 35  0  0  1  0  0  0  0  0999 V2000
  161.6920  208.0110  151.0290 C   0  0  2  0  0  3  0  0  0  0  0  0
  161.5480  205.8610  149.5450 C   0  0  0  0  0  0  0  0  0  0  0  0
  160.4810  205.8260  154.2610 N   0  0  0  0  0  2  0  0  0  0  0  0
  160.9450  208.4890  152.2820 C   0  0  2  0  0  3  0  0  0  0  0  0
  161.2090  208.6900  149.8950 O   0  0  0  0  0  0  0  0  0  0  0  0
  161.2500  212.0890  151.1330 O   0  0  0  0  0  1  0  0  0  0  0  0
  161.0350  210.5210  154.8500 C   0  0  0  0  0  0  0  0  0  0  0  0
  160.8310  210.7600  151.0190 C   0  0  1  0  0  3  0  0  0  0  0  0
  160.6070  209.3730  155.3640 C   0  0  0  0  0  0  0  0  0  0  0  0
  160.1240  206.9320  155.0710 C   0  0  0  0  0  0  0  0  0  0  0  0
  161.6820  210.0090  149.9940 C   0  0  2  0  0  3  0  0  0  0  0  0
  160.8500  210.0380  152.3800 C   0  0  2  0  0  3  0  0  0  0  0  0
  161.0720  204.4480  149.3800 C   0  0  0  0  0  2  0  0  0  0  0  0
  159.9780  209.5770  156.6190 N   0  0  0  0  0  0  0  0  0  0  0  0
  160.6740  211.6240  155.7820 C   0  0  0  0  0  2  0  0  0  0  0  0
  161.9480  206.4890  148.5310 O   0  0  0  0  0  0  0  0  0  0  0  0
  161.5500  206.2750  153.3800 C   0  0  2  0  0  3  0  0  0  0  0  0
  161.2060  203.6600  150.6510 C   0  0  0  0  0  3  0  0  0  0  0  0
  161.5150  206.5100  150.8820 C   0  0  0  0  0  0  0  0  0  0  0  0
  161.5690  207.8110  153.5060 C   0  0  2  0  0  3  0  0  0  0  0  0
  159.1990  206.8220  156.1490 N   0  0  0  0  0  1  0  0  0  0  0  0
  160.7280  208.0520  154.7110 C   0  0  0  0  0  0  0  0  0  0  0  0
  160.0100  210.8440  156.8720 C   0  0  0  0  0  3  0  0  0  0  0  0
  163.1370  210.4130  153.4720 C   0  0  0  0  0  1  0  0  0  0  0  0
  161.3380  204.2500  151.8400 C   0  0  0  0  0  3  0  0  0  0  0  0
  161.4200  205.7190  151.9790 C   0  0  0  0  0  0  0  0  0  0  0  0
  161.6510  210.7400  153.4950 C   0  0  2  0  0  3  0  0  0  0  0  0
  161.5810  210.6910  148.6360 C   0  0  0  0  0  2  0  0  0  0  0  0
  162.3640  212.8770  148.0790 O   0  0  0  0  0  1  0  0  0  0  0  0
  162.7830  211.5830  148.3850 C   0  0  0  0  0  2  0  0  0  0  0  0
  1  5  1  6  0  0  0
  1  4  1  0  0  0  0
  2 19  1  0  0  0  0
  3 10  1  0  0  0  0
  4 12  1  0  0  0  0
  4 20  1  0  0  0  0
  5 11  1  0  0  0  0
  7  9  2  0  0  0  0
  7 15  1  0  0  0  0
  8  6  1  0  0  0  0
  8 12  1  0  0  0  0
  9 14  1  0  0  0  0
 10 21  1  0  0  0  0
 11  8  1  0  0  0  0
 12 27  1  0  0  0  0
 13  2  1  0  0  0  0
 13 18  1  0  0  0  0
 14 23  2  0  0  0  0
 15 23  1  0  0  0  0
 16  2  2  0  0  0  0
 17 20  1  0  0  0  0
 17  3  1  0  0  0  0
 18 25  2  0  0  0  0
 19  1  1  0  0  0  0
 19 26  2  0  0  0  0
 20 22  1  0  0  0  0
 22 10  2  0  0  0  0
 22  9  1  0  0  0  0
 24 27  1  0  0  0  0
 25 26  1  0  0  0  0
 26 17  1  0  0  0  0
 27  7  1  0  0  0  0
 28 11  1  0  0  0  0
 29 30  1  0  0  0  0
 30 28  1  0  0  0  0
M  END
>  <MODEL>
6

>  <REMARK>
 VINA RESULT:      -5.4      2.413      4.420
  Name = 
  2 active torsions:
  status: ('A' for Active; 'I' for Inactive)
    1  A    between atoms: C_11  and  C_28
    2  A    between atoms: C_28  and  C_30
                            x       y       z     vdW  Elec       q    Type
                         _______ _______ _______ _____ _____    ______ ____

>  <TORSDO>
F 2

$$$$
=
 OpenBabel11122412433D

 30 35  0  0  1  0  0  0  0  0999 V2000
  161.5860  209.8240  151.2600 C   0  0  2  0  0  3  0  0  0  0  0  0
  161.9380  209.3240  148.7160 C   0  0  0  0  0  0  0  0  0  0  0  0
  161.7580  205.8180  152.0410 N   0  0  0  0  0  2  0  0  0  0  0  0
  160.9440  209.0450  152.4160 C   0  0  2  0  0  3  0  0  0  0  0  0
  160.7170  210.8420  150.8240 O   0  0  0  0  0  0  0  0  0  0  0  0
  159.8010  212.2900  154.0100 O   0  0  0  0  0  1  0  0  0  0  0  0
  160.7660  208.7370  155.6730 C   0  0  0  0  0  0  0  0  0  0  0  0
  159.8490  211.3350  152.9910 C   0  0  1  0  0  3  0  0  0  0  0  0
  160.8490  207.4850  155.2350 C   0  0  0  0  0  0  0  0  0  0  0  0
  161.1880  205.8880  153.3350 C   0  0  0  0  0  0  0  0  0  0  0  0
  160.7200  211.8200  151.8320 C   0  0  2  0  0  3  0  0  0  0  0  0
  160.3430  209.9710  153.5120 C   0  0  2  0  0  3  0  0  0  0  0  0
  161.9530  208.3250  147.5970 C   0  0  0  0  0  2  0  0  0  0  0  0
  160.4090  206.5670  156.2240 N   0  0  0  0  0  0  0  0  0  0  0  0
  160.2120  208.7240  157.0540 C   0  0  0  0  0  2  0  0  0  0  0  0
  161.9220  210.5500  148.4340 O   0  0  0  0  0  0  0  0  0  0  0  0
  162.4450  207.0820  151.8130 C   0  0  2  0  0  3  0  0  0  0  0  0
  162.5610  207.0190  148.0200 C   0  0  0  0  0  3  0  0  0  0  0  0
  161.9110  208.8630  150.1280 C   0  0  0  0  0  0  0  0  0  0  0  0
  161.9590  208.0220  152.9340 C   0  0  2  0  0  3  0  0  0  0  0  0
  160.5510  204.7710  153.9510 N   0  0  0  0  0  1  0  0  0  0  0  0
  161.3020  207.0850  153.8860 C   0  0  0  0  0  0  0  0  0  0  0  0
  160.0480  207.2510  157.2610 C   0  0  0  0  0  3  0  0  0  0  0  0
  162.5140  210.3350  154.8240 C   0  0  0  0  0  1  0  0  0  0  0  0
  162.6820  206.6770  149.3030 C   0  0  0  0  0  3  0  0  0  0  0  0
  162.2790  207.5870  150.3970 C   0  0  0  0  0  0  0  0  0  0  0  0
  161.0320  209.9950  154.8920 C   0  0  2  0  0  3  0  0  0  0  0  0
  160.1650  213.1250  151.2770 C   0  0  0  0  0  2  0  0  0  0  0  0
  160.9450  214.2950  149.3470 O   0  0  0  0  0  1  0  0  0  0  0  0
  160.2580  213.1560  149.7620 C   0  0  0  0  0  2  0  0  0  0  0  0
  1 19  1  6  0  0  0
  1  4  1  0  0  0  0
  2 19  1  0  0  0  0
  3 10  1  0  0  0  0
  4 20  1  0  0  0  0
  4 12  1  0  0  0  0
  5  1  1  0  0  0  0
  5 11  1  0  0  0  0
  7 15  1  0  0  0  0
  8 12  1  0  0  0  0
  8  6  1  0  0  0  0
  9  7  2  0  0  0  0
  9 14  1  0  0  0  0
 10 22  2  0  0  0  0
 10 21  1  0  0  0  0
 11  8  1  0  0  0  0
 12 27  1  0  0  0  0
 13 18  1  0  0  0  0
 13  2  1  0  0  0  0
 14 23  2  0  0  0  0
 15 23  1  0  0  0  0
 16  2  2  0  0  0  0
 17  3  1  0  0  0  0
 17 20  1  0  0  0  0
 18 25  2  0  0  0  0
 19 26  2  0  0  0  0
 20 22  1  0  0  0  0
 22  9  1  0  0  0  0
 24 27  1  0  0  0  0
 25 26  1  0  0  0  0
 26 17  1  0  0  0  0
 27  7  1  0  0  0  0
 28 11  1  0  0  0  0
 29 30  1  0  0  0  0
 30 28  1  0  0  0  0
M  END
>  <MODEL>
7

>  <REMARK>
 VINA RESULT:      -4.1      3.616      6.106
  Name = 
  2 active torsions:
  status: ('A' for Active; 'I' for Inactive)
    1  A    between atoms: C_11  and  C_28
    2  A    between atoms: C_28  and  C_30
                            x       y       z     vdW  Elec       q    Type
                         _______ _______ _______ _____ _____    ______ ____

>  <TORSDO>
F 2

$$$$
=
 OpenBabel11122412433D

 30 35  0  0  1  0  0  0  0  0999 V2000
  161.3100  208.4780  153.1750 C   0  0  2  0  0  3  0  0  0  0  0  0
  160.6550  207.3200  155.4280 C   0  0  0  0  0  0  0  0  0  0  0  0
  159.4560  211.8960  154.4270 N   0  0  0  0  0  2  0  0  0  0  0  0
  160.6730  209.5880  152.3270 C   0  0  2  0  0  3  0  0  0  0  0  0
  161.0630  207.2230  152.5880 O   0  0  0  0  0  0  0  0  0  0  0  0
  161.9560  207.9490  149.1580 O   0  0  0  0  0  1  0  0  0  0  0  0
  161.2090  211.8290  149.9980 C   0  0  0  0  0  0  0  0  0  0  0  0
  161.2060  208.0000  150.3370 C   0  0  1  0  0  3  0  0  0  0  0  0
  160.4760  212.4720  150.9010 C   0  0  1  0  0  3  0  0  0  0  0  0
  159.3760  212.5060  153.1520 C   0  0  0  0  0  0  0  0  0  0  0  0
  161.8630  207.1640  151.4350 C   0  0  2  0  0  3  0  0  0  0  0  0
  160.9870  209.4490  150.8100 C   0  0  2  0  0  3  0  0  0  0  0  0
  159.8290  207.3290  156.6800 C   0  0  0  0  0  2  0  0  0  0  0  0
  159.8800  213.6330  150.3430 N   0  0  0  0  0  0  0  0  0  0  0  0
  161.1200  212.5590  148.7040 C   0  0  0  0  0  3  0  0  0  0  0  0
  161.2400  206.2570  155.0940 O   0  0  0  0  0  0  0  0  0  0  0  0
  160.6350  211.0410  154.4150 C   0  0  2  0  0  3  0  0  0  0  0  0
  159.7070  208.7080  157.2610 C   0  0  0  0  0  3  0  0  0  0  0  0
  160.7480  208.5400  154.5850 C   0  0  0  0  0  0  0  0  0  0  0  0
  161.0550  210.9420  152.9350 C   0  0  2  0  0  3  0  0  0  0  0  0
  158.4190  213.5160  152.8460 N   0  0  0  0  0  1  0  0  0  0  0  0
  160.2660  212.0310  152.2960 C   0  0  0  0  0  0  0  0  0  0  0  0
  160.2370  213.6990  149.1020 C   0  0  0  0  0  3  0  0  0  0  0  0
  163.2540  210.6430  150.8600 C   0  0  0  0  0  1  0  0  0  0  0  0
  159.9490  209.8040  156.5400 C   0  0  0  0  0  3  0  0  0  0  0  0
  160.4110  209.7320  155.1370 C   0  0  0  0  0  0  0  0  0  0  0  0
  161.9060  210.5070  150.1650 C   0  0  2  0  0  3  0  0  0  0  0  0
  161.9920  205.7160  150.9780 C   0  0  0  0  0  2  0  0  0  0  0  0
  161.5800  203.4480  151.6000 O   0  0  0  0  0  1  0  0  0  0  0  0
  161.3660  204.7700  151.9860 C   0  0  0  0  0  2  0  0  0  0  0  0
  1  5  1  6  0  0  0
  1 19  1  0  0  0  0
  2 13  1  0  0  0  0
  4 20  1  0  0  0  0
  4  1  1  0  0  0  0
  6  8  1  0  0  0  0
  7 27  1  0  0  0  0
  7  9  1  0  0  0  0
  8 12  1  0  0  0  0
  8 11  1  0  0  0  0
  9 22  1  0  0  0  0
 10  3  1  0  0  0  0
 11  5  1  0  0  0  0
 12  4  1  0  0  0  0
 13 18  1  0  0  0  0
 14  9  1  0  0  0  0
 15 23  1  0  0  0  0
 15  7  2  0  0  0  0
 16  2  2  0  0  0  0
 17  3  1  0  0  0  0
 17 26  1  0  0  0  0
 19 26  2  0  0  0  0
 19  2  1  0  0  0  0
 20 17  1  0  0  0  0
 21 10  1  0  0  0  0
 22 20  1  0  0  0  0
 22 10  2  0  0  0  0
 23 14  2  0  0  0  0
 25 18  2  0  0  0  0
 26 25  1  0  0  0  0
 27 12  1  0  0  0  0
 27 24  1  0  0  0  0
 28 11  1  0  0  0  0
 28 30  1  0  0  0  0
 29 30  1  0  0  0  0
M  END
>  <MODEL>
8

>  <REMARK>
 VINA RESULT:      -3.9      3.532      6.323
  Name = 
  2 active torsions:
  status: ('A' for Active; 'I' for Inactive)
    1  A    between atoms: C_11  and  C_28
    2  A    between atoms: C_28  and  C_30
                            x       y       z     vdW  Elec       q    Type
                         _______ _______ _______ _____ _____    ______ ____

>  <TORSDO>
F 2

$$$$
