=
 OpenBabel11122412393D

 30 35  0  0  1  0  0  0  0  0999 V2000
  161.1100  205.9350  150.0290 C   0  0  0  0  0  0  0  0  0  0  0  0
  161.1170  203.4140  149.8230 C   0  0  0  0  0  0  0  0  0  0  0  0
  160.9040  205.6550  154.0840 N   0  0  0  0  0  0  0  0  0  0  0  0
  161.1530  207.0880  150.8640 C   0  0  0  0  0  0  0  0  0  0  0  0
  160.9500  206.1560  148.5510 C   0  0  0  0  0  2  0  0  0  0  0  0
  161.6720  209.6290  148.2870 O   0  0  0  0  0  0  0  0  0  0  0  0
  160.4870  209.8930  152.0320 C   0  0  1  0  0  3  0  0  0  0  0  0
  161.6030  208.4990  148.8460 C   0  0  0  0  0  0  0  0  0  0  0  0
  160.7130  209.1750  153.2650 N   0  0  0  0  0  0  0  0  0  0  0  0
  160.8410  206.9480  154.4500 C   0  0  0  0  0  0  0  0  0  0  0  0
  161.8590  207.2600  148.0470 C   0  0  2  0  0  3  0  0  0  0  0  0
  161.3650  208.4010  150.2640 N   0  0  0  0  0  0  0  0  0  0  0  0
  161.0900  202.1720  150.4640 C   0  0  0  0  0  3  0  0  0  0  0  0
  160.7010  210.0390  154.4300 C   0  0  0  0  0  2  0  0  0  0  0  0
  160.4580  211.3640  152.4060 C   0  0  0  0  0  2  0  0  0  0  0  0
  161.2110  203.3680  148.3340 C   0  0  0  0  0  1  0  0  0  0  0  0
  161.0150  205.6260  152.7640 N   0  0  0  0  0  0  0  0  0  0  0  0
  161.0400  202.0820  151.8510 C   0  0  0  0  0  3  0  0  0  0  0  0
  161.0920  204.6180  150.5900 C   0  0  0  0  0  0  0  0  0  0  0  0
  161.0380  206.8730  152.2550 C   0  0  0  0  0  0  0  0  0  0  0  0
  160.6530  207.3830  155.8620 C   0  0  0  0  0  1  0  0  0  0  0  0
  160.9080  207.7560  153.3210 C   0  0  0  0  0  0  0  0  0  0  0  0
  160.3200  211.4160  153.9200 C   0  0  0  0  0  2  0  0  0  0  0  0
  163.0080  209.6450  151.6260 C   0  0  0  0  0  1  0  0  0  0  0  0
  161.0210  203.2410  152.6180 C   0  0  0  0  0  3  0  0  0  0  0  0
  161.0530  204.5010  152.0070 C   0  0  0  0  0  0  0  0  0  0  0  0
  161.6010  209.6220  151.0320 C   0  0  2  0  0  3  0  0  0  0  0  0
  161.6070  207.4830  146.6910 O   0  0  0  0  0  0  0  0  0  0  0  0
  161.9760  205.6270  145.2520 C   0  0  0  0  0  1  0  0  0  0  0  0
  161.0350  206.2950  146.2330 C   0  0  0  0  0  2  0  0  0  0  0  0
  1 19  1  0  0  0  0
  1  4  2  0  0  0  0
  2 13  2  0  0  0  0
  2 19  1  0  0  0  0
  3 10  2  0  0  0  0
  4 20  1  0  0  0  0
  5  1  1  0  0  0  0
  6  8  2  0  0  0  0
  7 15  1  1  0  0  0
  7  9  1  0  0  0  0
  8 12  1  0  0  0  0
  9 22  1  0  0  0  0
  9 14  1  0  0  0  0
 10 21  1  0  0  0  0
 11 28  1  6  0  0  0
 11  5  1  0  0  0  0
 11  8  1  0  0  0  0
 12  4  1  0  0  0  0
 12 27  1  0  0  0  0
 13 18  1  0  0  0  0
 15 23  1  0  0  0  0
 16  2  1  0  0  0  0
 17  3  1  0  0  0  0
 18 25  2  0  0  0  0
 19 26  2  0  0  0  0
 20 17  1  0  0  0  0
 20 22  2  0  0  0  0
 22 10  1  0  0  0  0
 23 14  1  0  0  0  0
 26 25  1  0  0  0  0
 26 17  1  0  0  0  0
 27 24  1  1  0  0  0
 27  7  1  0  0  0  0
 29 30  1  0  0  0  0
 30 28  1  0  0  0  0
M  END
>  <MODEL>
1

>  <REMARK>
 VINA RESULT:      -9.0      0.000      0.000
  Name = 
  2 active torsions:
  status: ('A' for Active; 'I' for Inactive)
    1  A    between atoms: C_11  and  O_28
    2  A    between atoms: O_28  and  C_30
                            x       y       z     vdW  Elec       q    Type
                         _______ _______ _______ _____ _____    ______ ____

>  <TORSDO>
F 2

$$$$
=
 OpenBabel11122412393D

 30 35  0  0  1  0  0  0  0  0999 V2000
  161.6780  208.3990  151.5740 C   0  0  0  0  0  0  0  0  0  0  0  0
  161.3200  208.9600  154.0150 C   0  0  0  0  0  0  0  0  0  0  0  0
  160.7680  204.4960  152.2840 N   0  0  0  0  0  0  0  0  0  0  0  0
  161.6040  207.4420  150.5220 C   0  0  0  0  0  0  0  0  0  0  0  0
  162.2520  209.7480  151.2440 C   0  0  0  0  0  2  0  0  0  0  0  0
  162.1930  209.6770  147.6880 O   0  0  0  0  0  0  0  0  0  0  0  0
  162.3830  205.7590  148.0250 C   0  0  1  0  0  3  0  0  0  0  0  0
  161.9310  209.2860  148.8590 C   0  0  0  0  0  0  0  0  0  0  0  0
  161.7300  204.7320  148.8030 N   0  0  0  0  0  0  0  0  0  0  0  0
  160.9410  203.9440  151.0690 C   0  0  0  0  0  0  0  0  0  0  0  0
  161.6960  210.2910  149.9420 C   0  0  2  0  0  3  0  0  0  0  0  0
  161.7700  207.8810  149.1400 N   0  0  0  0  0  0  0  0  0  0  0  0
  160.9780  208.5150  155.2950 C   0  0  0  0  0  3  0  0  0  0  0  0
  161.5760  203.4870  148.0760 C   0  0  0  0  0  2  0  0  0  0  0  0
  162.5500  205.1830  146.6300 C   0  0  0  0  0  2  0  0  0  0  0  0
  161.6120  210.4180  153.8950 C   0  0  0  0  0  1  0  0  0  0  0  0
  161.0040  205.7940  152.1610 N   0  0  0  0  0  0  0  0  0  0  0  0
  160.6480  207.1840  155.5280 C   0  0  0  0  0  3  0  0  0  0  0  0
  161.3370  208.0440  152.9180 C   0  0  0  0  0  0  0  0  0  0  0  0
  161.3150  206.1100  150.8890 C   0  0  0  0  0  0  0  0  0  0  0  0
  160.8200  202.4810  150.8190 C   0  0  0  0  0  1  0  0  0  0  0  0
  161.3020  204.9290  150.1570 C   0  0  0  0  0  0  0  0  0  0  0  0
  162.2930  203.6880  146.7540 C   0  0  0  0  0  2  0  0  0  0  0  0
  160.0510  206.7890  147.7430 C   0  0  0  0  0  1  0  0  0  0  0  0
  160.6520  206.2770  154.4750 C   0  0  0  0  0  3  0  0  0  0  0  0
  160.9840  206.6920  153.1790 C   0  0  0  0  0  0  0  0  0  0  0  0
  161.5410  207.0250  147.9770 C   0  0  2  0  0  3  0  0  0  0  0  0
  162.3260  211.5010  149.6400 O   0  0  0  0  0  0  0  0  0  0  0  0
  161.6910  213.3000  148.2220 C   0  0  0  0  0  1  0  0  0  0  0  0
  161.2850  212.3880  149.3610 C   0  0  0  0  0  2  0  0  0  0  0  0
  1 19  1  0  0  0  0
  2 13  1  0  0  0  0
  4 20  1  0  0  0  0
  4  1  2  0  0  0  0
  5  1  1  0  0  0  0
  6  8  2  0  0  0  0
  7 15  1  6  0  0  0
  7  9  1  0  0  0  0
  8 12  1  0  0  0  0
  8 11  1  0  0  0  0
  9 22  1  0  0  0  0
 10  3  2  0  0  0  0
 11 28  1  6  0  0  0
 11  5  1  0  0  0  0
 12  4  1  0  0  0  0
 13 18  2  0  0  0  0
 14  9  1  0  0  0  0
 15 23  1  0  0  0  0
 16  2  1  0  0  0  0
 17  3  1  0  0  0  0
 17 26  1  0  0  0  0
 19 26  1  0  0  0  0
 19  2  2  0  0  0  0
 20 17  1  0  0  0  0
 21 10  1  0  0  0  0
 22 20  2  0  0  0  0
 22 10  1  0  0  0  0
 23 14  1  0  0  0  0
 25 18  1  0  0  0  0
 26 25  2  0  0  0  0
 27 24  1  1  0  0  0
 27  7  1  0  0  0  0
 27 12  1  0  0  0  0
 29 30  1  0  0  0  0
 30 28  1  0  0  0  0
M  END
>  <MODEL>
2

>  <REMARK>
 VINA RESULT:      -7.5      1.659      5.633
  Name = 
  2 active torsions:
  status: ('A' for Active; 'I' for Inactive)
    1  A    between atoms: C_11  and  O_28
    2  A    between atoms: O_28  and  C_30
                            x       y       z     vdW  Elec       q    Type
                         _______ _______ _______ _____ _____    ______ ____

>  <TORSDO>
F 2

$$$$
=
 OpenBabel11122412393D

 30 35  0  0  1  0  0  0  0  0999 V2000
  161.2360  207.6870  151.4700 C   0  0  0  0  0  0  0  0  0  0  0  0
  161.6460  210.1480  151.0490 C   0  0  0  0  0  0  0  0  0  0  0  0
  161.9300  206.8470  147.5500 N   0  0  0  0  0  0  0  0  0  0  0  0
  161.2460  206.3510  150.9800 C   0  0  0  0  0  0  0  0  0  0  0  0
  160.7350  207.9070  152.8710 C   0  0  0  0  0  2  0  0  0  0  0  0
  160.7600  204.5870  154.1460 O   0  0  0  0  0  0  0  0  0  0  0  0
  160.3520  203.4270  150.4060 C   0  0  1  0  0  3  0  0  0  0  0  0
  161.0090  205.5160  153.3290 C   0  0  0  0  0  0  0  0  0  0  0  0
  160.9530  203.7410  149.1300 N   0  0  0  0  0  0  0  0  0  0  0  0
  161.7160  205.5190  147.5070 C   0  0  0  0  0  0  0  0  0  0  0  0
  161.3090  206.8910  153.8380 C   0  0  2  0  0  3  0  0  0  0  0  0
  161.0930  205.2410  151.9170 N   0  0  0  0  0  0  0  0  0  0  0  0
  161.9730  211.1560  150.1380 C   0  0  0  0  0  3  0  0  0  0  0  0
  161.0300  202.5940  148.2470 C   0  0  0  0  0  2  0  0  0  0  0  0
  160.1410  201.9240  150.4080 C   0  0  0  0  0  2  0  0  0  0  0  0
  161.4350  210.5960  152.4570 C   0  0  0  0  0  1  0  0  0  0  0  0
  161.7670  207.2290  148.8080 N   0  0  0  0  0  0  0  0  0  0  0  0
  162.2290  210.8600  148.8030 C   0  0  0  0  0  3  0  0  0  0  0  0
  161.5680  208.7880  150.6180 C   0  0  0  0  0  0  0  0  0  0  0  0
  161.4620  206.1800  149.5950 C   0  0  0  0  0  0  0  0  0  0  0  0
  161.7530  204.7320  146.2440 C   0  0  0  0  0  1  0  0  0  0  0  0
  161.4030  205.0560  148.7800 C   0  0  0  0  0  0  0  0  0  0  0  0
  160.3150  201.4670  148.9670 C   0  0  0  0  0  2  0  0  0  0  0  0
  162.7360  203.4860  151.3510 C   0  0  0  0  0  1  0  0  0  0  0  0
  162.1660  209.5430  148.3620 C   0  0  0  0  0  3  0  0  0  0  0  0
  161.8460  208.5090  149.2520 C   0  0  0  0  0  0  0  0  0  0  0  0
  161.2640  203.8360  151.5530 C   0  0  2  0  0  3  0  0  0  0  0  0
  160.7460  207.0860  155.1020 O   0  0  0  0  0  0  0  0  0  0  0  0
  161.8480  208.4930  156.6670 C   0  0  0  0  0  1  0  0  0  0  0  0
  161.0090  208.4220  155.4090 C   0  0  0  0  0  2  0  0  0  0  0  0
  1  5  1  0  0  0  0
  2 16  1  0  0  0  0
  3 17  1  0  0  0  0
  4  1  2  0  0  0  0
  4 12  1  0  0  0  0
  5 11  1  0  0  0  0
  7 15  1  6  0  0  0
  7 27  1  0  0  0  0
  8 11  1  0  0  0  0
  8  6  2  0  0  0  0
  9  7  1  0  0  0  0
 10  3  2  0  0  0  0
 10 22  1  0  0  0  0
 11 28  1  1  0  0  0
 12  8  1  0  0  0  0
 13  2  2  0  0  0  0
 14 23  1  0  0  0  0
 14  9  1  0  0  0  0
 17 26  1  0  0  0  0
 17 20  1  0  0  0  0
 18 13  1  0  0  0  0
 19  2  1  0  0  0  0
 19  1  1  0  0  0  0
 20  4  1  0  0  0  0
 21 10  1  0  0  0  0
 22  9  1  0  0  0  0
 22 20  2  0  0  0  0
 23 15  1  0  0  0  0
 25 18  2  0  0  0  0
 25 26  1  0  0  0  0
 26 19  2  0  0  0  0
 27 24  1  6  0  0  0
 27 12  1  0  0  0  0
 28 30  1  0  0  0  0
 30 29  1  0  0  0  0
M  END
>  <MODEL>
3

>  <REMARK>
 VINA RESULT:      -7.2      2.489      7.246
  Name = 
  2 active torsions:
  status: ('A' for Active; 'I' for Inactive)
    1  A    between atoms: C_11  and  O_28
    2  A    between atoms: O_28  and  C_30
                            x       y       z     vdW  Elec       q    Type
                         _______ _______ _______ _____ _____    ______ ____

>  <TORSDO>
F 2

$$$$
=
 OpenBabel11122412393D

 30 35  0  0  1  0  0  0  0  0999 V2000
  161.0220  208.8520  151.5370 C   0  0  0  0  0  0  0  0  0  0  0  0
  161.2580  211.2970  150.9300 C   0  0  0  0  0  0  0  0  0  0  0  0
  162.0630  207.7600  147.7580 N   0  0  0  0  0  0  0  0  0  0  0  0
  161.1770  207.4860  151.1670 C   0  0  0  0  0  0  0  0  0  0  0  0
  160.4060  209.1410  152.8780 C   0  0  0  0  0  2  0  0  0  0  0  0
  160.6100  205.9500  154.4360 O   0  0  0  0  0  0  0  0  0  0  0  0
  160.5700  204.4590  150.7930 C   0  0  1  0  0  3  0  0  0  0  0  0
  160.8410  206.8280  153.5590 C   0  0  0  0  0  0  0  0  0  0  0  0
  161.2330  204.7190  149.5360 N   0  0  0  0  0  0  0  0  0  0  0  0
  161.9630  206.4190  147.8170 C   0  0  0  0  0  0  0  0  0  0  0  0
  160.9900  208.2600  153.9640 C   0  0  2  0  0  3  0  0  0  0  0  0
  161.0490  206.4480  152.1840 N   0  0  0  0  0  0  0  0  0  0  0  0
  161.5660  212.2520  149.9570 C   0  0  0  0  0  3  0  0  0  0  0  0
  161.4680  203.5160  148.7620 C   0  0  0  0  0  2  0  0  0  0  0  0
  160.4840  202.9480  150.9120 C   0  0  0  0  0  2  0  0  0  0  0  0
  160.9110  211.8380  152.2770 C   0  0  0  0  0  1  0  0  0  0  0  0
  161.7800  208.2280  148.9640 N   0  0  0  0  0  0  0  0  0  0  0  0
  161.9410  211.8720  148.6730 C   0  0  0  0  0  3  0  0  0  0  0  0
  161.3230  209.9050  150.6150 C   0  0  0  0  0  0  0  0  0  0  0  0
  161.5060  207.2230  149.8190 C   0  0  0  0  0  0  0  0  0  0  0  0
  162.1550  205.5390  146.6320 C   0  0  0  0  0  1  0  0  0  0  0  0
  161.5980  206.0360  149.1020 C   0  0  0  0  0  0  0  0  0  0  0  0
  160.7970  202.3930  149.5300 C   0  0  0  0  0  2  0  0  0  0  0  0
  162.8670  204.8040  151.8810 C   0  0  0  0  0  1  0  0  0  0  0  0
  162.0180  210.5240  148.3460 C   0  0  0  0  0  3  0  0  0  0  0  0
  161.7210  209.5420  149.2990 C   0  0  0  0  0  0  0  0  0  0  0  0
  161.3600  205.0380  151.9560 C   0  0  2  0  0  3  0  0  0  0  0  0
  160.3230  208.5070  155.1670 O   0  0  0  0  0  0  0  0  0  0  0  0
  162.0620  209.7640  156.1900 C   0  0  0  0  0  1  0  0  0  0  0  0
  160.7010  209.8020  155.5280 C   0  0  0  0  0  2  0  0  0  0  0  0
  1  5  1  0  0  0  0
  2 16  1  0  0  0  0
  3 10  2  0  0  0  0
  3 17  1  0  0  0  0
  4  1  2  0  0  0  0
  4 12  1  0  0  0  0
  5 11  1  0  0  0  0
  7 15  1  1  0  0  0
  7 27  1  0  0  0  0
  8 11  1  0  0  0  0
  8  6  2  0  0  0  0
  9  7  1  0  0  0  0
 10 22  1  0  0  0  0
 11 28  1  1  0  0  0
 12  8  1  0  0  0  0
 13  2  2  0  0  0  0
 14 23  1  0  0  0  0
 14  9  1  0  0  0  0
 17 26  1  0  0  0  0
 17 20  1  0  0  0  0
 18 13  1  0  0  0  0
 19  2  1  0  0  0  0
 19  1  1  0  0  0  0
 20  4  1  0  0  0  0
 21 10  1  0  0  0  0
 22  9  1  0  0  0  0
 22 20  2  0  0  0  0
 23 15  1  0  0  0  0
 25 18  2  0  0  0  0
 25 26  1  0  0  0  0
 26 19  2  0  0  0  0
 27 24  1  6  0  0  0
 27 12  1  0  0  0  0
 28 30  1  0  0  0  0
 30 29  1  0  0  0  0
M  END
>  <MODEL>
4

>  <REMARK>
 VINA RESULT:      -6.5      2.410      7.201
  Name = 
  2 active torsions:
  status: ('A' for Active; 'I' for Inactive)
    1  A    between atoms: C_11  and  O_28
    2  A    between atoms: O_28  and  C_30
                            x       y       z     vdW  Elec       q    Type
                         _______ _______ _______ _____ _____    ______ ____

>  <TORSDO>
F 2

$$$$
=
 OpenBabel11122412393D

 30 35  0  0  1  0  0  0  0  0999 V2000
  161.1530  207.6370  150.9600 C   0  0  0  0  0  0  0  0  0  0  0  0
  161.3280  205.3490  149.8960 C   0  0  0  0  0  0  0  0  0  0  0  0
  160.6580  205.9510  154.6300 N   0  0  0  0  0  0  0  0  0  0  0  0
  161.0630  208.4260  152.1420 C   0  0  0  0  0  0  0  0  0  0  0  0
  161.0930  208.3570  149.6410 C   0  0  0  0  0  2  0  0  0  0  0  0
  161.6210  211.7230  150.6620 O   0  0  0  0  0  0  0  0  0  0  0  0
  160.1430  210.6240  154.1410 C   0  0  1  0  0  3  0  0  0  0  0  0
  161.5780  210.4670  150.7860 C   0  0  0  0  0  0  0  0  0  0  0  0
  160.3170  209.5280  155.0660 N   0  0  0  0  0  0  0  0  0  0  0  0
  160.4890  207.0320  155.4140 C   0  0  0  0  0  0  0  0  0  0  0  0
  161.9680  209.5940  149.6360 C   0  0  2  0  0  3  0  0  0  0  0  0
  161.2400  209.8720  152.0550 N   0  0  0  0  0  0  0  0  0  0  0  0
  161.3270  203.9610  150.0630 C   0  0  0  0  0  3  0  0  0  0  0  0
  160.1650  209.9290  156.4500 C   0  0  0  0  0  2  0  0  0  0  0  0
  159.9970  211.8700  154.9960 C   0  0  0  0  0  2  0  0  0  0  0  0
  161.5370  205.8290  148.4990 C   0  0  0  0  0  1  0  0  0  0  0  0
  160.8700  206.3890  153.3980 N   0  0  0  0  0  0  0  0  0  0  0  0
  161.1780  203.3910  151.3230 C   0  0  0  0  0  3  0  0  0  0  0  0
  161.1720  206.2080  151.0270 C   0  0  0  0  0  0  0  0  0  0  0  0
  160.8560  207.7360  153.3560 C   0  0  0  0  0  0  0  0  0  0  0  0
  160.1700  206.9400  156.8650 C   0  0  0  0  0  1  0  0  0  0  0  0
  160.5930  208.1860  154.6440 C   0  0  0  0  0  0  0  0  0  0  0  0
  159.7420  211.3850  156.4150 C   0  0  0  0  0  2  0  0  0  0  0  0
  162.6970  210.6110  153.9080 C   0  0  0  0  0  1  0  0  0  0  0  0
  161.0320  204.2070  152.4380 C   0  0  0  0  0  3  0  0  0  0  0  0
  161.0340  205.6010  152.3050 C   0  0  0  0  0  0  0  0  0  0  0  0
  161.3440  210.7540  153.2170 C   0  0  2  0  0  3  0  0  0  0  0  0
  161.8070  210.2690  148.4240 O   0  0  0  0  0  0  0  0  0  0  0  0
  162.4900  212.3690  147.5440 C   0  0  0  0  0  1  0  0  0  0  0  0
  162.8830  211.1570  148.3620 C   0  0  0  0  0  2  0  0  0  0  0  0
  1 19  1  0  0  0  0
  1  4  2  0  0  0  0
  2 13  2  0  0  0  0
  2 19  1  0  0  0  0
  3 10  2  0  0  0  0
  4 20  1  0  0  0  0
  5  1  1  0  0  0  0
  6  8  2  0  0  0  0
  7 15  1  1  0  0  0
  7  9  1  0  0  0  0
  8 12  1  0  0  0  0
  9 14  1  0  0  0  0
 10 21  1  0  0  0  0
 11 28  1  6  0  0  0
 11  5  1  0  0  0  0
 11  8  1  0  0  0  0
 12  4  1  0  0  0  0
 12 27  1  0  0  0  0
 13 18  1  0  0  0  0
 15 23  1  0  0  0  0
 16  2  1  0  0  0  0
 17  3  1  0  0  0  0
 18 25  2  0  0  0  0
 19 26  2  0  0  0  0
 20 17  1  0  0  0  0
 20 22  2  0  0  0  0
 22  9  1  0  0  0  0
 22 10  1  0  0  0  0
 23 14  1  0  0  0  0
 26 25  1  0  0  0  0
 26 17  1  0  0  0  0
 27 24  1  1  0  0  0
 27  7  1  0  0  0  0
 29 30  1  0  0  0  0
 30 28  1  0  0  0  0
M  END
>  <MODEL>
5

>  <REMARK>
 VINA RESULT:      -6.4      1.614      2.615
  Name = 
  2 active torsions:
  status: ('A' for Active; 'I' for Inactive)
    1  A    between atoms: C_11  and  O_28
    2  A    between atoms: O_28  and  C_30
                            x       y       z     vdW  Elec       q    Type
                         _______ _______ _______ _____ _____    ______ ____

>  <TORSDO>
F 2

$$$$
