=
 OpenBabel11122412373D

 30 34  0  0  1  0  0  0  0  0999 V2000
  161.5920  205.3620  149.4860 C   0  0  2  0  0  3  0  0  0  0  0  0
  161.3320  202.8270  149.2690 C   0  0  0  0  0  0  0  0  0  0  0  0
  160.8620  205.0400  153.5550 N   0  0  0  0  0  2  0  0  0  0  0  0
  161.3970  206.5390  150.4610 C   0  0  2  0  0  3  0  0  0  0  0  0
  160.6660  205.6250  148.2970 C   0  0  0  0  0  2  0  0  0  0  0  0
  161.5330  209.1850  147.9410 O   0  0  0  0  0  0  0  0  0  0  0  0
  160.9630  209.3230  151.7640 C   0  0  2  0  0  3  0  0  0  0  0  0
  161.4480  208.0380  148.4610 C   0  0  0  0  0  0  0  0  0  0  0  0
  160.4440  208.1270  152.4400 N   0  0  0  0  0  2  0  0  0  0  0  0
  161.0090  206.3790  153.9870 C   0  0  0  0  0  0  0  0  0  0  0  0
  160.9130  206.9380  147.6940 N   0  0  0  0  0  0  0  0  0  0  0  0
  162.0180  207.7930  149.8360 C   0  0  1  0  0  3  0  0  0  0  0  0
  161.0950  201.5670  149.8270 C   0  0  0  0  0  3  0  0  0  0  0  0
  161.5510  202.9210  147.8990 O   0  0  0  0  0  1  0  0  0  0  0  0
  161.3460  204.9800  152.3610 C   0  0  2  0  0  3  0  0  0  0  0  0
  160.9040  201.4260  151.2000 C   0  0  0  0  0  3  0  0  0  0  0  0
  161.3500  203.9780  150.0890 C   0  0  0  0  0  0  0  0  0  0  0  0
  161.9480  206.2490  151.8590 C   0  0  2  0  0  3  0  0  0  0  0  0
  160.6840  206.7610  155.1420 O   0  0  0  0  0  0  0  0  0  0  0  0
  161.5360  207.2800  152.9310 C   0  0  1  0  0  3  0  0  0  0  0  0
  162.8960  209.8630  150.5030 O   0  0  0  0  0  0  0  0  0  0  0  0
  160.9720  202.5440  152.0310 C   0  0  0  0  0  3  0  0  0  0  0  0
  161.2180  203.8110  151.4890 C   0  0  0  0  0  0  0  0  0  0  0  0
  162.0230  209.0330  150.7100 C   0  0  0  0  0  0  0  0  0  0  0  0
  161.4270  210.3570  152.7880 C   0  0  0  0  0  2  0  0  0  0  0  0
  159.2050  211.4440  152.7620 C   0  0  0  0  0  1  0  0  0  0  0  0
  160.2610  210.8130  153.6450 C   0  0  0  0  0  2  0  0  0  0  0  0
  160.5490  207.1110  146.2930 C   0  0  0  0  0  2  0  0  0  0  0  0
  162.3220  205.6570  145.3060 C   0  0  0  0  0  1  0  0  0  0  0  0
  160.8290  205.8430  145.4960 C   0  0  0  0  0  2  0  0  0  0  0  0
  1  5  1  6  0  0  0
  1 17  1  0  0  0  0
  1  4  1  0  0  0  0
  2 13  2  0  0  0  0
  2 17  1  0  0  0  0
  3 10  1  0  0  0  0
  4 18  1  0  0  0  0
  6  8  2  0  0  0  0
  7  9  1  0  0  0  0
  7 25  1  0  0  0  0
  8 12  1  0  0  0  0
  9 20  1  0  0  0  0
 10 19  2  0  0  0  0
 11  5  1  0  0  0  0
 11  8  1  0  0  0  0
 12  4  1  0  0  0  0
 12 24  1  0  0  0  0
 13 16  1  0  0  0  0
 14  2  1  0  0  0  0
 15  3  1  0  0  0  0
 16 22  2  0  0  0  0
 17 23  2  0  0  0  0
 18 15  1  0  0  0  0
 18 20  1  0  0  0  0
 20 10  1  0  0  0  0
 21 24  2  0  0  0  0
 23 22  1  0  0  0  0
 23 15  1  0  0  0  0
 24  7  1  0  0  0  0
 25 27  1  0  0  0  0
 26 27  1  0  0  0  0
 28 11  1  0  0  0  0
 29 30  1  0  0  0  0
 30 28  1  0  0  0  0
M  END
>  <MODEL>
1

>  <REMARK>
 VINA RESULT:      -7.7      0.000      0.000
  Name = 
  4 active torsions:
  status: ('A' for Active; 'I' for Inactive)
    1  A    between atoms: C_7  and  C_15
    2  A    between atoms: N_11  and  C_28
    3  A    between atoms: C_15  and  C_23
    4  A    between atoms: C_28  and  C_30
                            x       y       z     vdW  Elec       q    Type
                         _______ _______ _______ _____ _____    ______ ____

>  <TORSDO>
F 4

$$$$
=
 OpenBabel11122412373D

 30 34  0  0  1  0  0  0  0  0999 V2000
  161.8740  207.6780  151.4510 C   0  0  2  0  0  3  0  0  0  0  0  0
  162.0830  210.1790  150.9570 C   0  0  0  0  0  0  0  0  0  0  0  0
  161.4320  206.9600  147.3930 N   0  0  0  0  0  2  0  0  0  0  0  0
  161.5120  206.3240  150.8120 C   0  0  2  0  0  3  0  0  0  0  0  0
  160.8550  207.9180  152.5670 C   0  0  0  0  0  2  0  0  0  0  0  0
  161.0180  204.5090  153.9470 O   0  0  0  0  0  0  0  0  0  0  0  0
  160.6330  203.3980  150.2620 C   0  0  2  0  0  3  0  0  0  0  0  0
  161.1770  205.4610  153.1340 C   0  0  0  0  0  0  0  0  0  0  0  0
  160.3840  204.4250  149.2420 N   0  0  0  0  0  2  0  0  0  0  0  0
  161.3470  205.5490  147.3510 C   0  0  0  0  0  0  0  0  0  0  0  0
  160.8180  206.8050  153.5200 N   0  0  0  0  0  0  0  0  0  0  0  0
  161.8530  205.2110  151.8090 C   0  0  1  0  0  3  0  0  0  0  0  0
  162.1170  211.2530  150.0620 C   0  0  0  0  0  3  0  0  0  0  0  0
  162.2100  210.4390  152.3170 O   0  0  0  0  0  1  0  0  0  0  0  0
  161.8550  207.2730  148.5700 C   0  0  2  0  0  3  0  0  0  0  0  0
  162.0280  211.0310  148.6890 C   0  0  0  0  0  3  0  0  0  0  0  0
  161.9290  208.8580  150.4790 C   0  0  0  0  0  0  0  0  0  0  0  0
  162.1800  206.1140  149.4510 C   0  0  2  0  0  3  0  0  0  0  0  0
  161.0170  204.9170  146.3130 O   0  0  0  0  0  0  0  0  0  0  0  0
  161.6390  204.9060  148.6570 C   0  0  1  0  0  3  0  0  0  0  0  0
  162.3620  202.9210  151.8120 O   0  0  0  0  0  0  0  0  0  0  0  0
  161.9290  209.7300  148.1970 C   0  0  0  0  0  3  0  0  0  0  0  0
  161.9030  208.6440  149.0800 C   0  0  0  0  0  0  0  0  0  0  0  0
  161.6720  203.7930  151.3030 C   0  0  0  0  0  0  0  0  0  0  0  0
  160.9480  202.0560  149.6040 C   0  0  0  0  0  2  0  0  0  0  0  0
  160.8240  201.5280  147.1910 C   0  0  0  0  0  1  0  0  0  0  0  0
  160.0110  201.8070  148.4380 C   0  0  0  0  0  2  0  0  0  0  0  0
  160.3560  207.0960  154.8720 C   0  0  0  0  0  2  0  0  0  0  0  0
  161.6580  208.7800  156.1760 C   0  0  0  0  0  1  0  0  0  0  0  0
  160.5170  208.5750  155.1980 C   0  0  0  0  0  2  0  0  0  0  0  0
  1  5  1  1  0  0  0
  2 14  1  0  0  0  0
  3 15  1  0  0  0  0
  4  1  1  0  0  0  0
  4 12  1  0  0  0  0
  5 11  1  0  0  0  0
  7 24  1  0  0  0  0
  8 11  1  0  0  0  0
  8  6  2  0  0  0  0
  9  7  1  0  0  0  0
 10  3  1  0  0  0  0
 10 20  1  0  0  0  0
 11 28  1  0  0  0  0
 12  8  1  0  0  0  0
 13  2  2  0  0  0  0
 15 23  1  0  0  0  0
 15 18  1  0  0  0  0
 16 13  1  0  0  0  0
 17  2  1  0  0  0  0
 17  1  1  0  0  0  0
 18  4  1  0  0  0  0
 19 10  2  0  0  0  0
 20  9  1  0  0  0  0
 20 18  1  0  0  0  0
 22 16  2  0  0  0  0
 22 23  1  0  0  0  0
 23 17  2  0  0  0  0
 24 12  1  0  0  0  0
 24 21  2  0  0  0  0
 25  7  1  0  0  0  0
 26 27  1  0  0  0  0
 27 25  1  0  0  0  0
 28 30  1  0  0  0  0
 30 29  1  0  0  0  0
M  END
>  <MODEL>
2

>  <REMARK>
 VINA RESULT:      -7.6      1.860      7.291
  Name = 
  4 active torsions:
  status: ('A' for Active; 'I' for Inactive)
    1  A    between atoms: C_7  and  C_15
    2  A    between atoms: N_11  and  C_28
    3  A    between atoms: C_15  and  C_23
    4  A    between atoms: C_28  and  C_30
                            x       y       z     vdW  Elec       q    Type
                         _______ _______ _______ _____ _____    ______ ____

>  <TORSDO>
F 4

$$$$
=
 OpenBabel11122412373D

 30 34  0  0  1  0  0  0  0  0999 V2000
  161.0600  208.4520  151.5380 C   0  0  2  0  0  3  0  0  0  0  0  0
  161.0840  209.3660  153.9260 C   0  0  0  0  0  0  0  0  0  0  0  0
  161.2240  204.5990  153.0610 N   0  0  0  0  0  2  0  0  0  0  0  0
  161.2480  207.1650  150.7120 C   0  0  2  0  0  3  0  0  0  0  0  0
  162.1530  209.4220  151.0860 C   0  0  0  0  0  2  0  0  0  0  0  0
  161.7100  208.8150  147.4820 O   0  0  0  0  0  0  0  0  0  0  0  0
  161.7950  205.0790  148.4790 C   0  0  2  0  0  3  0  0  0  0  0  0
  161.6090  208.6430  148.7280 C   0  0  0  0  0  0  0  0  0  0  0  0
  162.0970  204.7310  149.8730 N   0  0  0  0  0  2  0  0  0  0  0  0
  161.1600  203.8150  151.8860 C   0  0  0  0  0  0  0  0  0  0  0  0
  162.1220  209.6410  149.6370 N   0  0  0  0  0  0  0  0  0  0  0  0
  160.8450  207.4570  149.2620 C   0  0  1  0  0  3  0  0  0  0  0  0
  161.1160  209.1760  155.3110 C   0  0  0  0  0  3  0  0  0  0  0  0
  161.0530  210.6650  153.4310 O   0  0  0  0  0  1  0  0  0  0  0  0
  160.8940  205.8000  152.7250 C   0  0  2  0  0  3  0  0  0  0  0  0
  161.1130  207.8900  155.8480 C   0  0  0  0  0  3  0  0  0  0  0  0
  161.0780  208.2540  153.0540 C   0  0  0  0  0  0  0  0  0  0  0  0
  160.4950  205.9680  151.2980 C   0  0  2  0  0  3  0  0  0  0  0  0
  161.3720  202.5740  151.8840 O   0  0  0  0  0  0  0  0  0  0  0  0
  160.8700  204.6110  150.6670 C   0  0  1  0  0  3  0  0  0  0  0  0
  160.1050  206.3060  147.3570 O   0  0  0  0  0  0  0  0  0  0  0  0
  161.0540  206.7820  155.0040 C   0  0  0  0  0  3  0  0  0  0  0  0
  161.0120  206.9560  153.6160 C   0  0  0  0  0  0  0  0  0  0  0  0
  160.8540  206.2670  148.3220 C   0  0  0  0  0  0  0  0  0  0  0  0
  161.3110  203.8490  147.7130 C   0  0  0  0  0  2  0  0  0  0  0  0
  163.1080  204.7450  146.2690 C   0  0  0  0  0  1  0  0  0  0  0  0
  161.9040  203.8280  146.3170 C   0  0  0  0  0  2  0  0  0  0  0  0
  162.6790  210.8920  149.1360 C   0  0  0  0  0  2  0  0  0  0  0  0
  161.3060  212.3050  147.6030 C   0  0  0  0  0  1  0  0  0  0  0  0
  161.6070  211.9710  149.0520 C   0  0  0  0  0  2  0  0  0  0  0  0
  1  5  1  1  0  0  0
  1 17  1  0  0  0  0
  2 13  1  0  0  0  0
  4 18  1  0  0  0  0
  4  1  1  0  0  0  0
  6  8  2  0  0  0  0
  7  9  1  0  0  0  0
  8 12  1  0  0  0  0
  8 11  1  0  0  0  0
  9 20  1  0  0  0  0
 10  3  1  0  0  0  0
 11  5  1  0  0  0  0
 12  4  1  0  0  0  0
 13 16  2  0  0  0  0
 14  2  1  0  0  0  0
 15  3  1  0  0  0  0
 15 23  1  0  0  0  0
 17 23  1  0  0  0  0
 17  2  2  0  0  0  0
 18 15  1  0  0  0  0
 19 10  2  0  0  0  0
 20 18  1  0  0  0  0
 20 10  1  0  0  0  0
 21 24  2  0  0  0  0
 22 16  1  0  0  0  0
 23 22  2  0  0  0  0
 24  7  1  0  0  0  0
 24 12  1  0  0  0  0
 25  7  1  0  0  0  0
 26 27  1  0  0  0  0
 27 25  1  0  0  0  0
 28 11  1  0  0  0  0
 29 30  1  0  0  0  0
 30 28  1  0  0  0  0
M  END
>  <MODEL>
3

>  <REMARK>
 VINA RESULT:      -7.4      2.139      5.730
  Name = 
  4 active torsions:
  status: ('A' for Active; 'I' for Inactive)
    1  A    between atoms: C_7  and  C_15
    2  A    between atoms: N_11  and  C_28
    3  A    between atoms: C_15  and  C_23
    4  A    between atoms: C_28  and  C_30
                            x       y       z     vdW  Elec       q    Type
                         _______ _______ _______ _____ _____    ______ ____

>  <TORSDO>
F 4

$$$$
=
 OpenBabel11122412373D

 30 34  0  0  1  0  0  0  0  0999 V2000
  160.4170  211.7130  152.0040 C   0  0  2  0  0  3  0  0  0  0  0  0
  160.2860  213.6470  150.3360 C   0  0  0  0  0  0  0  0  0  0  0  0
  162.0660  209.3290  149.0410 N   0  0  0  0  0  2  0  0  0  0  0  0
  160.6930  210.2010  152.1160 C   0  0  2  0  0  3  0  0  0  0  0  0
  158.9730  211.9250  152.4640 C   0  0  0  0  0  2  0  0  0  0  0  0
  159.2110  209.7560  155.4290 O   0  0  0  0  0  0  0  0  0  0  0  0
  160.8220  207.2240  152.9880 C   0  0  2  0  0  3  0  0  0  0  0  0
  159.5180  210.2780  154.3210 C   0  0  0  0  0  0  0  0  0  0  0  0
  160.8570  207.5540  151.5570 N   0  0  0  0  0  2  0  0  0  0  0  0
  162.3180  208.1240  149.7370 C   0  0  0  0  0  0  0  0  0  0  0  0
  158.7410  211.3790  153.8040 N   0  0  0  0  0  0  0  0  0  0  0  0
  160.7660  209.8310  153.6010 C   0  0  1  0  0  3  0  0  0  0  0  0
  160.4970  214.1830  149.0620 C   0  0  0  0  0  3  0  0  0  0  0  0
  159.7100  214.4520  151.3120 O   0  0  0  0  0  1  0  0  0  0  0  0
  161.8190  210.2290  149.9310 C   0  0  2  0  0  3  0  0  0  0  0  0
  161.1020  213.4190  148.0660 C   0  0  0  0  0  3  0  0  0  0  0  0
  160.6580  212.3130  150.6190 C   0  0  0  0  0  0  0  0  0  0  0  0
  161.9420  209.7680  151.3440 C   0  0  2  0  0  3  0  0  0  0  0  0
  162.6490  207.0580  149.1560 O   0  0  0  0  0  0  0  0  0  0  0  0
  162.1040  208.2400  151.2020 C   0  0  1  0  0  3  0  0  0  0  0  0
  161.6960  208.1730  154.9760 O   0  0  0  0  0  0  0  0  0  0  0  0
  161.5240  212.1200  148.3430 C   0  0  0  0  0  3  0  0  0  0  0  0
  161.3290  211.5730  149.6160 C   0  0  0  0  0  0  0  0  0  0  0  0
  161.1500  208.3950  153.9050 C   0  0  0  0  0  0  0  0  0  0  0  0
  161.6860  205.9990  153.2760 C   0  0  0  0  0  2  0  0  0  0  0  0
  161.8000  204.1570  151.6290 C   0  0  0  0  0  1  0  0  0  0  0  0
  161.0020  204.7410  152.7750 C   0  0  0  0  0  2  0  0  0  0  0  0
  157.6560  211.9600  154.5860 C   0  0  0  0  0  2  0  0  0  0  0  0
  155.7980  213.4580  153.8530 C   0  0  0  0  0  1  0  0  0  0  0  0
  157.2950  213.3480  154.0710 C   0  0  0  0  0  2  0  0  0  0  0  0
  1  4  1  0  0  0  0
  1  5  1  6  0  0  0
  2 17  1  0  0  0  0
  2 14  1  0  0  0  0
  3 10  1  0  0  0  0
  3 15  1  0  0  0  0
  4 12  1  0  0  0  0
  5 11  1  0  0  0  0
  7 25  1  0  0  0  0
  7 24  1  0  0  0  0
  8  6  2  0  0  0  0
  9  7  1  0  0  0  0
 10 20  1  0  0  0  0
 11  8  1  0  0  0  0
 11 28  1  0  0  0  0
 12 24  1  0  0  0  0
 12  8  1  0  0  0  0
 13  2  2  0  0  0  0
 15 18  1  0  0  0  0
 16 22  2  0  0  0  0
 16 13  1  0  0  0  0
 17  1  1  0  0  0  0
 18  4  1  0  0  0  0
 19 10  2  0  0  0  0
 20 18  1  0  0  0  0
 20  9  1  0  0  0  0
 22 23  1  0  0  0  0
 23 15  1  0  0  0  0
 23 17  2  0  0  0  0
 24 21  2  0  0  0  0
 26 27  1  0  0  0  0
 27 25  1  0  0  0  0
 29 30  1  0  0  0  0
 30 28  1  0  0  0  0
M  END
>  <MODEL>
4

>  <REMARK>
 VINA RESULT:      -6.5      2.698      7.887
  Name = 
  4 active torsions:
  status: ('A' for Active; 'I' for Inactive)
    1  A    between atoms: C_7  and  C_15
    2  A    between atoms: N_11  and  C_28
    3  A    between atoms: C_15  and  C_23
    4  A    between atoms: C_28  and  C_30
                            x       y       z     vdW  Elec       q    Type
                         _______ _______ _______ _____ _____    ______ ____

>  <TORSDO>
F 4

$$$$
=
 OpenBabel11122412373D

 30 34  0  0  1  0  0  0  0  0999 V2000
  161.3960  208.5670  152.3630 C   0  0  2  0  0  3  0  0  0  0  0  0
  161.0190  207.0680  154.4010 C   0  0  0  0  0  0  0  0  0  0  0  0
  159.4060  211.6380  154.3120 N   0  0  0  0  0  2  0  0  0  0  0  0
  160.9980  209.9190  151.7400 C   0  0  2  0  0  3  0  0  0  0  0  0
  160.9130  207.4840  151.3960 C   0  0  0  0  0  2  0  0  0  0  0  0
  162.1230  209.1540  148.3460 O   0  0  0  0  0  0  0  0  0  0  0  0
  160.3970  212.2850  149.8230 C   0  0  2  0  0  3  0  0  0  0  0  0
  161.7900  209.0010  149.5540 C   0  0  0  0  0  0  0  0  0  0  0  0
  159.6010  212.1360  151.0480 N   0  0  0  0  0  2  0  0  0  0  0  0
  159.5150  212.6970  153.3810 C   0  0  0  0  0  0  0  0  0  0  0  0
  161.4370  207.6880  150.0430 N   0  0  0  0  0  0  0  0  0  0  0  0
  161.8790  210.1640  150.5110 C   0  0  1  0  0  3  0  0  0  0  0  0
  160.5230  206.8550  155.6900 C   0  0  0  0  0  3  0  0  0  0  0  0
  161.6630  206.0210  153.7520 O   0  0  0  0  0  1  0  0  0  0  0  0
  160.2330  210.7230  153.9340 C   0  0  2  0  0  3  0  0  0  0  0  0
  159.9010  207.8890  156.3880 C   0  0  0  0  0  3  0  0  0  0  0  0
  160.8700  208.3280  153.7790 C   0  0  0  0  0  0  0  0  0  0  0  0
  161.0590  211.0740  152.7420 C   0  0  2  0  0  3  0  0  0  0  0  0
  158.8760  213.7750  153.4990 O   0  0  0  0  0  0  0  0  0  0  0  0
  160.4140  212.3840  152.2420 C   0  0  1  0  0  3  0  0  0  0  0  0
  162.6640  211.9540  149.2140 O   0  0  0  0  0  0  0  0  0  0  0  0
  159.7920  209.1530  155.8110 C   0  0  0  0  0  3  0  0  0  0  0  0
  160.2930  209.3840  154.5250 C   0  0  0  0  0  0  0  0  0  0  0  0
  161.7080  211.5100  149.8330 C   0  0  0  0  0  0  0  0  0  0  0  0
  160.5970  213.7620  149.4920 C   0  0  0  0  0  2  0  0  0  0  0  0
  159.4950  213.1120  147.3750 C   0  0  0  0  0  1  0  0  0  0  0  0
  159.6180  214.2010  148.4190 C   0  0  0  0  0  2  0  0  0  0  0  0
  161.5450  206.5160  149.1820 C   0  0  0  0  0  2  0  0  0  0  0  0
  161.1280  204.0620  149.0050 C   0  0  0  0  0  1  0  0  0  0  0  0
  160.8290  205.3210  149.7960 C   0  0  0  0  0  2  0  0  0  0  0  0
  1  5  1  6  0  0  0
  1 17  1  0  0  0  0
  2 13  1  0  0  0  0
  4  1  1  0  0  0  0
  4 18  1  0  0  0  0
  6  8  2  0  0  0  0
  7 24  1  0  0  0  0
  7  9  1  0  0  0  0
  8 11  1  0  0  0  0
  8 12  1  0  0  0  0
  9 20  1  0  0  0  0
 10 19  2  0  0  0  0
 10  3  1  0  0  0  0
 11  5  1  0  0  0  0
 12  4  1  0  0  0  0
 13 16  2  0  0  0  0
 14  2  1  0  0  0  0
 15  3  1  0  0  0  0
 15 23  1  0  0  0  0
 17  2  2  0  0  0  0
 17 23  1  0  0  0  0
 18 15  1  0  0  0  0
 20 18  1  0  0  0  0
 20 10  1  0  0  0  0
 21 24  2  0  0  0  0
 22 16  1  0  0  0  0
 23 22  2  0  0  0  0
 24 12  1  0  0  0  0
 25  7  1  0  0  0  0
 26 27  1  0  0  0  0
 27 25  1  0  0  0  0
 28 30  1  0  0  0  0
 28 11  1  0  0  0  0
 29 30  1  0  0  0  0
M  END
>  <MODEL>
5

>  <REMARK>
 VINA RESULT:      -6.0      2.748      5.267
  Name = 
  4 active torsions:
  status: ('A' for Active; 'I' for Inactive)
    1  A    between atoms: C_7  and  C_15
    2  A    between atoms: N_11  and  C_28
    3  A    between atoms: C_15  and  C_23
    4  A    between atoms: C_28  and  C_30
                            x       y       z     vdW  Elec       q    Type
                         _______ _______ _______ _____ _____    ______ ____

>  <TORSDO>
F 4

$$$$
=
 OpenBabel11122412373D

 30 34  0  0  1  0  0  0  0  0999 V2000
  160.9440  207.5690  150.9970 C   0  0  2  0  0  3  0  0  0  0  0  0
  160.8520  208.4360  153.4010 C   0  0  0  0  0  0  0  0  0  0  0  0
  161.1310  203.6910  152.4520 N   0  0  0  0  0  2  0  0  0  0  0  0
  161.1940  206.3030  150.1540 C   0  0  2  0  0  3  0  0  0  0  0  0
  162.0330  208.5710  150.6080 C   0  0  0  0  0  2  0  0  0  0  0  0
  161.7490  208.0270  146.9780 O   0  0  0  0  0  0  0  0  0  0  0  0
  161.8760  204.2740  147.9060 C   0  0  2  0  0  3  0  0  0  0  0  0
  161.6020  207.8280  148.2160 C   0  0  0  0  0  0  0  0  0  0  0  0
  162.1290  203.9050  149.3050 N   0  0  0  0  0  2  0  0  0  0  0  0
  161.1320  202.9290  151.2600 C   0  0  0  0  0  0  0  0  0  0  0  0
  162.0560  208.8180  149.1630 N   0  0  0  0  0  0  0  0  0  0  0  0
  160.8430  206.6150  148.6960 C   0  0  1  0  0  3  0  0  0  0  0  0
  160.8320  208.2190  154.7820 C   0  0  0  0  0  3  0  0  0  0  0  0
  160.8120  209.7430  152.9300 O   0  0  0  0  0  1  0  0  0  0  0  0
  160.7880  204.8910  152.1260 C   0  0  2  0  0  3  0  0  0  0  0  0
  160.8360  206.9230  155.2940 C   0  0  0  0  0  3  0  0  0  0  0  0
  160.9060  207.3410  152.5090 C   0  0  0  0  0  0  0  0  0  0  0  0
  160.4450  205.0790  150.6860 C   0  0  2  0  0  3  0  0  0  0  0  0
  161.3710  201.6930  151.2430 O   0  0  0  0  0  0  0  0  0  0  0  0
  160.8740  203.7430  150.0450 C   0  0  1  0  0  3  0  0  0  0  0  0
  160.2070  205.4880  146.7400 O   0  0  0  0  0  0  0  0  0  0  0  0
  160.8350  205.8310  154.4280 C   0  0  0  0  0  3  0  0  0  0  0  0
  160.8460  206.0320  153.0420 C   0  0  0  0  0  0  0  0  0  0  0  0
  160.9170  205.4450  147.7340 C   0  0  0  0  0  0  0  0  0  0  0  0
  161.4510  203.0490  147.0980 C   0  0  0  0  0  2  0  0  0  0  0  0
  161.1790  200.6130  147.4240 C   0  0  0  0  0  1  0  0  0  0  0  0
  160.8980  201.9760  148.0170 C   0  0  0  0  0  2  0  0  0  0  0  0
  162.6050  210.0900  148.7100 C   0  0  0  0  0  2  0  0  0  0  0  0
  161.2970  211.9090  147.6090 C   0  0  0  0  0  1  0  0  0  0  0  0
  161.6090  211.2220  148.9250 C   0  0  0  0  0  2  0  0  0  0  0  0
  1  5  1  1  0  0  0
  1 17  1  0  0  0  0
  2 13  1  0  0  0  0
  4 18  1  0  0  0  0
  4  1  1  0  0  0  0
  6  8  2  0  0  0  0
  7  9  1  0  0  0  0
  8 12  1  0  0  0  0
  8 11  1  0  0  0  0
  9 20  1  0  0  0  0
 10  3  1  0  0  0  0
 11  5  1  0  0  0  0
 12  4  1  0  0  0  0
 13 16  2  0  0  0  0
 14  2  1  0  0  0  0
 15  3  1  0  0  0  0
 15 23  1  0  0  0  0
 17 23  1  0  0  0  0
 17  2  2  0  0  0  0
 18 15  1  0  0  0  0
 19 10  2  0  0  0  0
 20 18  1  0  0  0  0
 20 10  1  0  0  0  0
 21 24  2  0  0  0  0
 22 16  1  0  0  0  0
 23 22  2  0  0  0  0
 24  7  1  0  0  0  0
 24 12  1  0  0  0  0
 25  7  1  0  0  0  0
 25 27  1  0  0  0  0
 26 27  1  0  0  0  0
 28 30  1  0  0  0  0
 28 11  1  0  0  0  0
 29 30  1  0  0  0  0
M  END
>  <MODEL>
6

>  <REMARK>
 VINA RESULT:      -5.7      2.024      5.752
  Name = 
  4 active torsions:
  status: ('A' for Active; 'I' for Inactive)
    1  A    between atoms: C_7  and  C_15
    2  A    between atoms: N_11  and  C_28
    3  A    between atoms: C_15  and  C_23
    4  A    between atoms: C_28  and  C_30
                            x       y       z     vdW  Elec       q    Type
                         _______ _______ _______ _____ _____    ______ ____

>  <TORSDO>
F 4

$$$$
=
 OpenBabel11122412373D

 30 34  0  0  1  0  0  0  0  0999 V2000
  160.8510  205.0410  151.0770 C   0  0  2  0  0  3  0  0  0  0  0  0
  160.5920  202.4980  151.1420 C   0  0  0  0  0  0  0  0  0  0  0  0
  161.8490  204.7900  147.0610 N   0  0  0  0  0  2  0  0  0  0  0  0
  161.3550  206.2040  150.2010 C   0  0  2  0  0  3  0  0  0  0  0  0
  161.7050  205.0520  152.3470 C   0  0  0  0  0  2  0  0  0  0  0  0
  161.5230  208.6900  152.8770 O   0  0  0  0  0  0  0  0  0  0  0  0
  162.4340  208.9090  149.1240 C   0  0  2  0  0  3  0  0  0  0  0  0
  161.4270  207.5780  152.2890 C   0  0  0  0  0  0  0  0  0  0  0  0
  162.7650  207.6690  148.4090 N   0  0  0  0  0  2  0  0  0  0  0  0
  162.0030  206.1520  146.7110 C   0  0  0  0  0  0  0  0  0  0  0  0
  161.6700  206.3550  153.0170 N   0  0  0  0  0  0  0  0  0  0  0  0
  160.9400  207.5230  150.8620 C   0  0  1  0  0  3  0  0  0  0  0  0
  160.6250  201.2460  150.5200 C   0  0  0  0  0  3  0  0  0  0  0  0
  160.2790  202.5630  152.4950 O   0  0  0  0  0  1  0  0  0  0  0  0
  161.2620  204.7660  148.2100 C   0  0  2  0  0  3  0  0  0  0  0  0
  160.9010  201.1410  149.1580 C   0  0  0  0  0  3  0  0  0  0  0  0
  160.8690  203.6690  150.4020 C   0  0  0  0  0  0  0  0  0  0  0  0
  160.8800  206.1030  148.7500 C   0  0  2  0  0  3  0  0  0  0  0  0
  162.4940  206.5200  145.6110 O   0  0  0  0  0  0  0  0  0  0  0  0
  161.5750  207.0840  147.7830 C   0  0  1  0  0  3  0  0  0  0  0  0
  160.5420  209.7590  150.2730 O   0  0  0  0  0  0  0  0  0  0  0  0
  161.1240  202.2910  148.4010 C   0  0  0  0  0  3  0  0  0  0  0  0
  161.0850  203.5510  149.0080 C   0  0  0  0  0  0  0  0  0  0  0  0
  161.2510  208.7820  150.0760 C   0  0  0  0  0  0  0  0  0  0  0  0
  162.2690  210.0660  148.1410 C   0  0  0  0  0  2  0  0  0  0  0  0
  162.9560  212.4170  147.8010 C   0  0  0  0  0  1  0  0  0  0  0  0
  162.5420  211.3890  148.8310 C   0  0  0  0  0  2  0  0  0  0  0  0
  161.9390  206.3790  154.4500 C   0  0  0  0  0  2  0  0  0  0  0  0
  161.0940  207.8450  156.2850 C   0  0  0  0  0  1  0  0  0  0  0  0
  160.7090  206.8270  155.2290 C   0  0  0  0  0  2  0  0  0  0  0  0
  1  5  1  1  0  0  0
  2 14  1  0  0  0  0
  3 15  1  0  0  0  0
  4 12  1  0  0  0  0
  4  1  1  0  0  0  0
  5 11  1  0  0  0  0
  7 24  1  0  0  0  0
  8  6  2  0  0  0  0
  8 11  1  0  0  0  0
  9  7  1  0  0  0  0
 10  3  1  0  0  0  0
 10 20  1  0  0  0  0
 11 28  1  0  0  0  0
 12  8  1  0  0  0  0
 13  2  1  0  0  0  0
 15 18  1  0  0  0  0
 15 23  1  0  0  0  0
 16 13  2  0  0  0  0
 17  1  1  0  0  0  0
 17  2  2  0  0  0  0
 18  4  1  0  0  0  0
 19 10  2  0  0  0  0
 20  9  1  0  0  0  0
 20 18  1  0  0  0  0
 22 23  2  0  0  0  0
 22 16  1  0  0  0  0
 23 17  1  0  0  0  0
 24 21  2  0  0  0  0
 24 12  1  0  0  0  0
 25 27  1  0  0  0  0
 25  7  1  0  0  0  0
 26 27  1  0  0  0  0
 28 30  1  0  0  0  0
 30 29  1  0  0  0  0
M  END
>  <MODEL>
7

>  <REMARK>
 VINA RESULT:      -5.6      2.048      5.197
  Name = 
  4 active torsions:
  status: ('A' for Active; 'I' for Inactive)
    1  A    between atoms: C_7  and  C_15
    2  A    between atoms: N_11  and  C_28
    3  A    between atoms: C_15  and  C_23
    4  A    between atoms: C_28  and  C_30
                            x       y       z     vdW  Elec       q    Type
                         _______ _______ _______ _____ _____    ______ ____

>  <TORSDO>
F 4

$$$$
=
 OpenBabel11122412373D

 30 34  0  0  1  0  0  0  0  0999 V2000
  162.1270  207.5700  149.1510 C   0  0  2  0  0  3  0  0  0  0  0  0
  161.9960  205.7550  147.3540 C   0  0  0  0  0  0  0  0  0  0  0  0
  160.9590  204.7800  151.9860 N   0  0  0  0  0  2  0  0  0  0  0  0
  161.7760  207.8740  150.6200 C   0  0  2  0  0  3  0  0  0  0  0  0
  161.3300  208.5620  148.3000 C   0  0  0  0  0  2  0  0  0  0  0  0
  162.0860  211.5080  150.3740 O   0  0  0  0  0  0  0  0  0  0  0  0
  161.0860  209.2230  153.3300 C   0  0  2  0  0  3  0  0  0  0  0  0
  161.9900  210.2950  150.0380 C   0  0  0  0  0  0  0  0  0  0  0  0
  160.5430  207.8900  153.0340 N   0  0  0  0  0  2  0  0  0  0  0  0
  161.0030  205.5370  153.1800 C   0  0  0  0  0  0  0  0  0  0  0  0
  161.5890  209.9490  148.6950 N   0  0  0  0  0  0  0  0  0  0  0  0
  162.4110  209.2150  151.0030 C   0  0  1  0  0  3  0  0  0  0  0  0
  161.7500  204.4360  146.9590 C   0  0  0  0  0  3  0  0  0  0  0  0
  162.3640  206.6840  146.3870 O   0  0  0  0  0  1  0  0  0  0  0  0
  161.5760  205.4680  151.0870 C   0  0  2  0  0  3  0  0  0  0  0  0
  161.4120  203.4680  147.9020 C   0  0  0  0  0  3  0  0  0  0  0  0
  161.8760  206.1270  148.7120 C   0  0  0  0  0  0  0  0  0  0  0  0
  162.1780  206.7440  151.5720 C   0  0  2  0  0  3  0  0  0  0  0  0
  160.5340  205.1170  154.2710 O   0  0  0  0  0  0  0  0  0  0  0  0
  161.6070  206.8820  152.9990 C   0  0  1  0  0  3  0  0  0  0  0  0
  163.1250  210.3610  152.9210 O   0  0  0  0  0  0  0  0  0  0  0  0
  161.3410  203.8050  149.2530 C   0  0  0  0  0  3  0  0  0  0  0  0
  161.5940  205.1190  149.6650 C   0  0  0  0  0  0  0  0  0  0  0  0
  162.2690  209.6220  152.4570 C   0  0  0  0  0  0  0  0  0  0  0  0
  161.3900  209.3580  154.8200 C   0  0  0  0  0  2  0  0  0  0  0  0
  160.5540  207.8660  156.6070 C   0  0  0  0  0  1  0  0  0  0  0  0
  160.1770  208.9720  155.6440 C   0  0  0  0  0  2  0  0  0  0  0  0
  161.3780  210.9830  147.6880 C   0  0  0  0  0  2  0  0  0  0  0  0
  162.2370  213.1110  146.7070 C   0  0  0  0  0  1  0  0  0  0  0  0
  162.4580  212.0540  147.7710 C   0  0  0  0  0  2  0  0  0  0  0  0
  1  5  1  6  0  0  0
  1  4  1  0  0  0  0
  2 17  1  0  0  0  0
  3 10  1  0  0  0  0
  4 12  1  0  0  0  0
  4 18  1  0  0  0  0
  5 11  1  0  0  0  0
  7 25  1  0  0  0  0
  8  6  2  0  0  0  0
  8 12  1  0  0  0  0
  9  7  1  0  0  0  0
 10 19  2  0  0  0  0
 11  8  1  0  0  0  0
 12 24  1  0  0  0  0
 13  2  2  0  0  0  0
 13 16  1  0  0  0  0
 14  2  1  0  0  0  0
 15 18  1  0  0  0  0
 15  3  1  0  0  0  0
 16 22  2  0  0  0  0
 17  1  1  0  0  0  0
 17 23  2  0  0  0  0
 18 20  1  0  0  0  0
 20  9  1  0  0  0  0
 20 10  1  0  0  0  0
 22 23  1  0  0  0  0
 23 15  1  0  0  0  0
 24 21  2  0  0  0  0
 24  7  1  0  0  0  0
 25 27  1  0  0  0  0
 27 26  1  0  0  0  0
 28 30  1  0  0  0  0
 28 11  1  0  0  0  0
 29 30  1  0  0  0  0
M  END
>  <MODEL>
8

>  <REMARK>
 VINA RESULT:      -5.2      2.121      3.261
  Name = 
  4 active torsions:
  status: ('A' for Active; 'I' for Inactive)
    1  A    between atoms: C_7  and  C_15
    2  A    between atoms: N_11  and  C_28
    3  A    between atoms: C_15  and  C_23
    4  A    between atoms: C_28  and  C_30
                            x       y       z     vdW  Elec       q    Type
                         _______ _______ _______ _____ _____    ______ ____

>  <TORSDO>
F 4

$$$$
=
 OpenBabel11122412373D

 30 34  0  0  1  0  0  0  0  0999 V2000
  160.8330  204.3960  148.7170 C   0  0  2  0  0  3  0  0  0  0  0  0
  160.8270  203.6430  146.2730 C   0  0  0  0  0  0  0  0  0  0  0  0
  161.9750  208.1900  147.4960 N   0  0  0  0  0  2  0  0  0  0  0  0
  161.2460  205.5540  149.6460 C   0  0  2  0  0  3  0  0  0  0  0  0
  161.6420  203.1750  149.1590 C   0  0  0  0  0  2  0  0  0  0  0  0
  161.0820  203.6550  152.7660 O   0  0  0  0  0  0  0  0  0  0  0  0
  162.0830  207.3240  152.0560 C   0  0  2  0  0  3  0  0  0  0  0  0
  161.1150  203.9190  151.5320 C   0  0  0  0  0  0  0  0  0  0  0  0
  162.5580  207.6740  150.7110 N   0  0  0  0  0  2  0  0  0  0  0  0
  162.0040  208.8970  148.7200 C   0  0  0  0  0  0  0  0  0  0  0  0
  161.4560  202.8850  150.5840 N   0  0  0  0  0  0  0  0  0  0  0  0
  160.6810  205.2790  151.0440 C   0  0  1  0  0  3  0  0  0  0  0  0
  161.0030  203.9020  144.9100 C   0  0  0  0  0  3  0  0  0  0  0  0
  160.4670  202.3600  146.6680 O   0  0  0  0  0  1  0  0  0  0  0  0
  161.3590  207.0800  147.7220 C   0  0  2  0  0  3  0  0  0  0  0  0
  161.3310  205.1830  144.4710 C   0  0  0  0  0  3  0  0  0  0  0  0
  161.0080  204.6730  147.2230 C   0  0  0  0  0  0  0  0  0  0  0  0
  160.8280  206.9250  149.1070 C   0  0  2  0  0  3  0  0  0  0  0  0
  162.4900  210.0540  148.8270 O   0  0  0  0  0  0  0  0  0  0  0  0
  161.4520  208.1200  149.8580 C   0  0  1  0  0  3  0  0  0  0  0  0
  160.0810  206.4540  152.9820 O   0  0  0  0  0  0  0  0  0  0  0  0
  161.4610  206.2230  145.3900 C   0  0  0  0  0  3  0  0  0  0  0  0
  161.2790  205.9820  146.7560 C   0  0  0  0  0  0  0  0  0  0  0  0
  160.8890  206.3770  152.0680 C   0  0  0  0  0  0  0  0  0  0  0  0
  161.8340  208.5850  152.8810 C   0  0  0  0  0  2  0  0  0  0  0  0
  160.8260  210.7920  152.4000 C   0  0  0  0  0  1  0  0  0  0  0  0
  160.5870  209.2970  152.3930 C   0  0  0  0  0  2  0  0  0  0  0  0
  161.6770  201.5120  151.0220 C   0  0  0  0  0  2  0  0  0  0  0  0
  159.5950  200.9540  149.7620 C   0  0  0  0  0  1  0  0  0  0  0  0
  161.0160  200.5230  150.0710 C   0  0  0  0  0  2  0  0  0  0  0  0
  1  5  1  1  0  0  0
  1  4  1  0  0  0  0
  2 14  1  0  0  0  0
  2 17  1  0  0  0  0
  3 15  1  0  0  0  0
  3 10  1  0  0  0  0
  4 12  1  0  0  0  0
  5 11  1  0  0  0  0
  7 24  1  0  0  0  0
  7 25  1  0  0  0  0
  8  6  2  0  0  0  0
  9  7  1  0  0  0  0
 10 19  2  0  0  0  0
 10 20  1  0  0  0  0
 11 28  1  0  0  0  0
 11  8  1  0  0  0  0
 12  8  1  0  0  0  0
 12 24  1  0  0  0  0
 13  2  2  0  0  0  0
 15 18  1  0  0  0  0
 16 13  1  0  0  0  0
 16 22  2  0  0  0  0
 17  1  1  0  0  0  0
 18  4  1  0  0  0  0
 18 20  1  0  0  0  0
 20  9  1  0  0  0  0
 22 23  1  0  0  0  0
 23 17  2  0  0  0  0
 23 15  1  0  0  0  0
 24 21  2  0  0  0  0
 27 26  1  0  0  0  0
 27 25  1  0  0  0  0
 29 30  1  0  0  0  0
 30 28  1  0  0  0  0
M  END
>  <MODEL>
9

>  <REMARK>
 VINA RESULT:      -5.1      1.686      4.892
  Name = 
  4 active torsions:
  status: ('A' for Active; 'I' for Inactive)
    1  A    between atoms: C_7  and  C_15
    2  A    between atoms: N_11  and  C_28
    3  A    between atoms: C_15  and  C_23
    4  A    between atoms: C_28  and  C_30
                            x       y       z     vdW  Elec       q    Type
                         _______ _______ _______ _____ _____    ______ ____

>  <TORSDO>
F 4

$$$$
