=
 OpenBabel11122414103D

 28 32  0  0  1  0  0  0  0  0999 V2000
  160.2450  210.0890  156.2060 C   0  0  0  0  0  0  0  0  0  0  0  0
  155.3310  210.7660  154.9400 C   0  0  0  0  0  1  0  0  0  0  0  0
  161.1030  211.8330  151.7750 O   0  0  0  0  0  0  0  0  0  0  0  0
  161.3040  212.5750  156.9430 C   0  0  0  0  0  3  0  0  0  0  0  0
  159.1810  213.0990  152.5030 C   0  0  1  0  0  3  0  0  0  0  0  0
  159.7300  208.7550  155.7590 C   0  0  0  0  0  2  0  0  0  0  0  0
  155.5750  211.6000  157.2280 C   0  0  0  0  0  1  0  0  0  0  0  0
  155.7670  211.9770  155.7730 C   0  0  0  0  0  0  0  0  0  0  0  0
  155.2140  213.5460  154.2050 C   0  0  1  0  0  3  0  0  0  0  0  0
  157.2620  212.3640  155.5930 C   0  0  2  0  0  3  0  0  0  0  0  0
  161.9920  209.8130  153.7640 O   0  0  0  0  0  1  0  0  0  0  0  0
  158.2160  211.1540  153.6990 C   0  0  1  0  0  3  0  0  0  0  0  0
  156.4200  214.2650  154.2200 O   0  0  0  0  0  0  0  0  0  0  0  0
  154.9220  213.0770  155.5000 O   0  0  0  0  0  0  0  0  0  0  0  0
  161.0190  208.8420  153.5130 C   0  0  2  0  0  3  0  0  0  0  0  0
  159.5210  211.2650  155.9250 C   0  0  0  0  0  0  0  0  0  0  0  0
  160.0370  211.8930  152.4440 C   0  0  0  0  0  0  0  0  0  0  0  0
  154.0950  214.4500  153.7330 C   0  0  0  0  0  1  0  0  0  0  0  0
  159.8060  209.4080  152.7690 C   0  0  0  0  0  2  0  0  0  0  0  0
  160.0750  212.5060  156.2830 C   0  0  0  0  0  3  0  0  0  0  0  0
  161.4690  210.1640  156.8840 C   0  0  0  0  0  3  0  0  0  0  0  0
  161.9960  211.4040  157.2510 C   0  0  0  0  0  3  0  0  0  0  0  0
  160.6750  208.0520  154.7800 C   0  0  0  0  0  2  0  0  0  0  0  0
  157.9080  212.5780  153.2130 C   0  0  1  0  0  3  0  0  0  0  0  0
  159.5110  210.7840  153.1530 N   0  0  0  0  0  0  0  0  0  0  0  0
  157.4840  213.3650  154.4530 C   0  0  2  0  0  3  0  0  0  0  0  0
  159.9150  214.2100  153.2470 C   0  0  0  0  0  1  0  0  0  0  0  0
  158.1680  211.1820  155.2400 C   0  0  1  0  0  3  0  0  0  0  0  0
  1 21  1  0  0  0  0
  2  8  1  0  0  0  0
  3 17  2  0  0  0  0
  4 22  1  0  0  0  0
  5 24  1  0  0  0  0
  5 27  1  1  0  0  0
  6  1  1  0  0  0  0
  8  7  1  0  0  0  0
  9 18  1  1  0  0  0
  9 13  1  0  0  0  0
  9 14  1  0  0  0  0
 10  8  1  6  0  0  0
 12 25  1  1  0  0  0
 12 28  1  0  0  0  0
 13 26  1  0  0  0  0
 14  8  1  0  0  0  0
 15 11  1  1  0  0  0
 15 23  1  0  0  0  0
 16  1  2  0  0  0  0
 16 20  1  0  0  0  0
 17  5  1  0  0  0  0
 17 25  1  0  0  0  0
 19 25  1  0  0  0  0
 19 15  1  0  0  0  0
 20  4  2  0  0  0  0
 21 22  2  0  0  0  0
 23  6  1  0  0  0  0
 24 12  1  0  0  0  0
 24 26  1  0  0  0  0
 26 10  1  0  0  0  0
 28 10  1  0  0  0  0
 28 16  1  0  0  0  0
M  END
>  <MODEL>
1

>  <REMARK>
 VINA RESULT:      -2.4      0.000      0.000
  Name = 
  0 active torsions:
  status: ('A' for Active; 'I' for Inactive)
                            x       y       z     vdW  Elec       q    Type
                         _______ _______ _______ _____ _____    ______ ____

>  <TORSDO>
F 0

$$$$
=
 OpenBabel11122414103D

 28 32  0  0  1  0  0  0  0  0999 V2000
  161.0480  211.9950  142.0020 C   0  0  0  0  0  0  0  0  0  0  0  0
  163.6110  207.8390  140.4610 C   0  0  0  0  0  1  0  0  0  0  0  0
  162.1800  213.7000  137.6180 O   0  0  0  0  0  0  0  0  0  0  0  0
  158.4920  211.9150  140.8590 C   0  0  0  0  0  3  0  0  0  0  0  0
  161.7900  211.3520  137.2130 C   0  0  1  0  0  3  0  0  0  0  0  0
  162.4270  212.1030  142.5800 C   0  0  0  0  0  2  0  0  0  0  0  0
  161.5750  207.0290  141.5540 C   0  0  0  0  0  1  0  0  0  0  0  0
  162.1170  207.5700  140.2460 C   0  0  0  0  0  0  0  0  0  0  0  0
  162.2840  207.1150  138.0120 C   0  0  1  0  0  3  0  0  0  0  0  0
  161.2890  208.8400  139.8970 C   0  0  2  0  0  3  0  0  0  0  0  0
  161.9010  214.4530  140.4780 O   0  0  0  0  0  1  0  0  0  0  0  0
  162.7860  210.6990  139.3880 C   0  0  1  0  0  3  0  0  0  0  0  0
  161.2540  207.9590  137.5670 O   0  0  0  0  0  0  0  0  0  0  0  0
  161.9460  206.5680  139.2640 O   0  0  0  0  0  0  0  0  0  0  0  0
  163.1320  213.9750  140.9330 C   0  0  2  0  0  3  0  0  0  0  0  0
  160.7780  211.0790  140.9660 C   0  0  0  0  0  0  0  0  0  0  0  0
  162.2250  212.5090  138.0270 C   0  0  0  0  0  0  0  0  0  0  0  0
  162.4870  205.9970  137.0110 C   0  0  0  0  0  1  0  0  0  0  0  0
  163.7630  212.9700  139.9660 C   0  0  0  0  0  2  0  0  0  0  0  0
  159.4960  211.0650  140.3890 C   0  0  0  0  0  3  0  0  0  0  0  0
  160.0320  212.8330  142.4810 C   0  0  0  0  0  3  0  0  0  0  0  0
  158.7580  212.7920  141.9110 C   0  0  0  0  0  3  0  0  0  0  0  0
  163.0450  213.4900  142.3850 C   0  0  0  0  0  2  0  0  0  0  0  0
  162.2860  210.1450  138.0450 C   0  0  1  0  0  3  0  0  0  0  0  0
  162.7650  212.1490  139.2870 N   0  0  0  0  0  0  0  0  0  0  0  0
  161.2170  209.1070  138.3890 C   0  0  2  0  0  3  0  0  0  0  0  0
  160.2800  211.4090  137.0110 C   0  0  0  0  0  1  0  0  0  0  0  0
  161.8620  210.1320  140.4840 C   0  0  1  0  0  3  0  0  0  0  0  0
  1 21  1  0  0  0  0
  1  6  1  0  0  0  0
  3 17  2  0  0  0  0
  4 22  1  0  0  0  0
  5 27  1  1  0  0  0
  5 17  1  0  0  0  0
  5 24  1  0  0  0  0
  8  2  1  0  0  0  0
  8  7  1  0  0  0  0
  9 18  1  6  0  0  0
  9 14  1  0  0  0  0
 10  8  1  6  0  0  0
 10 28  1  0  0  0  0
 12 25  1  6  0  0  0
 12 28  1  0  0  0  0
 13  9  1  0  0  0  0
 13 26  1  0  0  0  0
 14  8  1  0  0  0  0
 15 11  1  6  0  0  0
 15 23  1  0  0  0  0
 16  1  2  0  0  0  0
 17 25  1  0  0  0  0
 19 15  1  0  0  0  0
 20  4  2  0  0  0  0
 20 16  1  0  0  0  0
 22 21  2  0  0  0  0
 23  6  1  0  0  0  0
 24 26  1  0  0  0  0
 24 12  1  0  0  0  0
 25 19  1  0  0  0  0
 26 10  1  0  0  0  0
 28 16  1  0  0  0  0
M  END
>  <MODEL>
2

>  <REMARK>
 VINA RESULT:      -1.5     13.169     15.986
  Name = 
  0 active torsions:
  status: ('A' for Active; 'I' for Inactive)
                            x       y       z     vdW  Elec       q    Type
                         _______ _______ _______ _____ _____    ______ ____

>  <TORSDO>
F 0

$$$$
