=
 OpenBabel11122412493D

 32 37  0  0  1  0  0  0  0  0999 V2000
  161.5820  201.6470  150.3260 C   0  0  0  0  0  2  0  0  0  0  0  0
  160.9640  206.7650  152.2400 C   0  0  1  0  0  3  0  0  0  0  0  0
  162.1790  209.8390  148.4970 C   0  0  0  0  0  3  0  0  0  0  0  0
  162.0450  210.9300  149.3570 C   0  0  0  0  0  3  0  0  0  0  0  0
  161.2130  207.7070  154.6410 C   0  0  0  0  0  0  0  0  0  0  0  0
  161.6580  208.8720  155.4690 C   0  0  2  0  0  3  0  0  0  0  0  0
  160.4800  204.3500  151.7920 C   0  0  1  0  0  3  0  0  0  0  0  0
  160.8470  205.9720  149.8750 C   0  0  0  0  0  2  0  0  0  0  0  0
  161.4700  211.0850  155.9050 C   0  0  2  0  0  3  0  0  0  0  0  0
  160.2780  203.6110  149.3240 C   0  0  0  0  0  2  0  0  0  0  0  0
  162.0070  208.5420  148.9840 C   0  0  0  0  0  3  0  0  0  0  0  0
  161.5900  206.8940  150.8420 C   0  0  1  0  0  3  0  0  0  0  0  0
  161.6870  208.3180  150.3320 C   0  0  0  0  0  0  0  0  0  0  0  0
  161.2170  209.2180  152.6570 C   0  0  2  0  0  3  0  0  0  0  0  0
  161.4250  210.3740  157.2580 C   0  0  0  0  0  2  0  0  0  0  0  0
  161.8330  202.1730  151.7500 C   0  0  0  0  0  2  0  0  0  0  0  0
  160.9800  204.5210  150.3360 C   0  0  2  0  0  3  0  0  0  0  0  0
  161.3260  208.8900  156.9360 C   0  0  0  0  0  2  0  0  0  0  0  0
  160.6430  202.9300  152.3510 C   0  0  0  0  0  2  0  0  0  0  0  0
  160.2640  202.1260  149.6990 C   0  0  1  0  0  3  0  0  0  0  0  0
  161.7560  210.7220  150.7070 C   0  0  0  0  0  3  0  0  0  0  0  0
  161.6100  209.4220  151.2160 C   0  0  0  0  0  0  0  0  0  0  0  0
  161.7200  210.3170  153.6190 C   0  0  0  0  0  2  0  0  0  0  0  0
  161.1920  205.3330  152.7210 C   0  0  0  0  0  2  0  0  0  0  0  0
  160.6020  206.7640  155.1180 O   0  0  0  0  0  0  0  0  0  0  0  0
  160.4690  212.2240  155.8970 C   0  0  0  0  0  1  0  0  0  0  0  0
  161.5840  207.8080  153.1740 C   0  0  2  0  0  3  0  0  0  0  0  0
  161.0940  210.0870  154.9200 N   0  0  1  0  0  0  0  0  0  0  0  0
  159.9310  201.3040  148.4650 C   0  0  0  0  0  2  0  0  0  0  0  0
  161.0730  201.3010  147.5070 C   0  0  0  0  0  0  0  0  0  0  0  0
  161.9220  200.2040  147.4420 O   0  0  0  0  0  1  0  0  0  0  0  0
  161.2500  202.2790  146.7350 O   0  0  0  0  0  0  0  0  0  0  0  0
  1 16  1  0  0  0  0
  2 24  1  1  0  0  0
  2 27  1  0  0  0  0
  3 11  2  0  0  0  0
  3  4  1  0  0  0  0
  4 21  2  0  0  0  0
  5 25  2  0  0  0  0
  5  6  1  0  0  0  0
  6 18  1  1  0  0  0
  7 19  1  1  0  0  0
  7 24  1  0  0  0  0
  8 17  1  0  0  0  0
  9 26  1  1  0  0  0
  9 15  1  0  0  0  0
 10 20  1  0  0  0  0
 11 13  1  0  0  0  0
 12  8  1  6  0  0  0
 12  2  1  0  0  0  0
 13 12  1  0  0  0  0
 13 22  2  0  0  0  0
 14 27  1  0  0  0  0
 14 23  1  1  0  0  0
 16 19  1  0  0  0  0
 17 10  1  6  0  0  0
 17  7  1  0  0  0  0
 18 15  1  0  0  0  0
 20 29  1  6  0  0  0
 20  1  1  0  0  0  0
 21 22  1  0  0  0  0
 22 14  1  0  0  0  0
 27  5  1  1  0  0  0
 28 23  1  6  0  0  0
 28  6  1  0  0  0  0
 28  9  1  0  0  0  0
 30 29  1  0  0  0  0
 31 30  1  0  0  0  0
 32 30  2  0  0  0  0
M  END
>  <MODEL>
1

>  <REMARK>
 VINA RESULT:      -9.9      0.000      0.000
  Name = 
  2 active torsions:
  status: ('A' for Active; 'I' for Inactive)
    1  A    between atoms: C_20  and  C_29
    2  A    between atoms: C_29  and  C_30
                            x       y       z     vdW  Elec       q    Type
                         _______ _______ _______ _____ _____    ______ ____

>  <TORSDO>
F 2

$$$$
=
 OpenBabel11122412493D

 32 37  0  0  1  0  0  0  0  0999 V2000
  162.4620  209.9930  153.7590 C   0  0  0  0  0  2  0  0  0  0  0  0
  161.0210  206.3580  149.8920 C   0  0  1  0  0  3  0  0  0  0  0  0
  161.4310  201.8350  151.9670 C   0  0  0  0  0  3  0  0  0  0  0  0
  161.1490  201.2490  150.7330 C   0  0  0  0  0  3  0  0  0  0  0  0
  161.2300  206.4730  147.3120 C   0  0  0  0  0  0  0  0  0  0  0  0
  161.4990  205.6970  146.0600 C   0  0  2  0  0  3  0  0  0  0  0  0
  160.9660  208.4110  151.3240 C   0  0  1  0  0  3  0  0  0  0  0  0
  160.9170  206.1020  152.3740 C   0  0  0  0  0  2  0  0  0  0  0  0
  160.9310  203.9470  144.7410 C   0  0  2  0  0  3  0  0  0  0  0  0
  160.7640  208.0800  153.8780 C   0  0  0  0  0  2  0  0  0  0  0  0
  161.5310  203.2240  152.0740 C   0  0  0  0  0  3  0  0  0  0  0  0
  161.5320  205.5410  151.0900 C   0  0  1  0  0  3  0  0  0  0  0  0
  161.3350  204.0460  150.9530 C   0  0  0  0  0  0  0  0  0  0  0  0
  160.8410  204.3030  148.4780 C   0  0  2  0  0  3  0  0  0  0  0  0
  161.0960  205.1520  143.8130 C   0  0  0  0  0  2  0  0  0  0  0  0
  162.6930  210.0700  152.2400 C   0  0  0  0  0  2  0  0  0  0  0  0
  161.3420  207.5570  152.5600 C   0  0  2  0  0  3  0  0  0  0  0  0
  161.2540  206.3560  144.7300 C   0  0  0  0  0  2  0  0  0  0  0  0
  161.4200  209.8750  151.4080 C   0  0  0  0  0  2  0  0  0  0  0  0
  161.0450  209.5580  154.1620 C   0  0  1  0  0  3  0  0  0  0  0  0
  160.9800  202.0520  149.6030 C   0  0  0  0  0  3  0  0  0  0  0  0
  161.1060  203.4470  149.6910 C   0  0  0  0  0  0  0  0  0  0  0  0
  161.1880  203.6310  147.1310 C   0  0  0  0  0  2  0  0  0  0  0  0
  161.5370  207.7880  150.0500 C   0  0  0  0  0  2  0  0  0  0  0  0
  160.8320  207.6270  147.2900 O   0  0  0  0  0  0  0  0  0  0  0  0
  159.7380  203.1240  144.2960 C   0  0  0  0  0  1  0  0  0  0  0  0
  161.4910  205.7020  148.5910 C   0  0  2  0  0  3  0  0  0  0  0  0
  160.6900  204.4970  146.0640 N   0  0  1  0  0  0  0  0  0  0  0  0
  160.7990  209.8390  155.6350 C   0  0  0  0  0  2  0  0  0  0  0  0
  161.9120  209.3040  156.4690 C   0  0  0  0  0  0  0  0  0  0  0  0
  162.9080  210.1560  156.9280 O   0  0  0  0  0  1  0  0  0  0  0  0
  161.9350  208.0850  156.7820 O   0  0  0  0  0  0  0  0  0  0  0  0
  1 20  1  0  0  0  0
  2 24  1  1  0  0  0
  2 12  1  0  0  0  0
  3 11  1  0  0  0  0
  4  3  2  0  0  0  0
  6 18  1  6  0  0  0
  6 28  1  0  0  0  0
  6  5  1  0  0  0  0
  7 24  1  6  0  0  0
  7 19  1  0  0  0  0
  7 17  1  0  0  0  0
  9 26  1  6  0  0  0
  9 28  1  0  0  0  0
 10 20  1  0  0  0  0
 12  8  1  1  0  0  0
 13 12  1  0  0  0  0
 13 11  2  0  0  0  0
 14 23  1  6  0  0  0
 14 27  1  0  0  0  0
 14 22  1  0  0  0  0
 15 18  1  0  0  0  0
 15  9  1  0  0  0  0
 16  1  1  0  0  0  0
 17  8  1  6  0  0  0
 17 10  1  0  0  0  0
 19 16  1  0  0  0  0
 20 29  1  1  0  0  0
 21 22  2  0  0  0  0
 21  4  1  0  0  0  0
 22 13  1  0  0  0  0
 25  5  2  0  0  0  0
 27  5  1  6  0  0  0
 27  2  1  0  0  0  0
 28 23  1  1  0  0  0
 29 30  1  0  0  0  0
 30 32  2  0  0  0  0
 30 31  1  0  0  0  0
M  END
>  <MODEL>
2

>  <REMARK>
 VINA RESULT:      -8.8      3.040      8.924
  Name = 
  2 active torsions:
  status: ('A' for Active; 'I' for Inactive)
    1  A    between atoms: C_20  and  C_29
    2  A    between atoms: C_29  and  C_30
                            x       y       z     vdW  Elec       q    Type
                         _______ _______ _______ _____ _____    ______ ____

>  <TORSDO>
F 2

$$$$
=
 OpenBabel11122412493D

 32 37  0  0  1  0  0  0  0  0999 V2000
  162.2660  209.9180  153.9640 C   0  0  0  0  0  2  0  0  0  0  0  0
  160.9630  206.3400  149.9970 C   0  0  1  0  0  3  0  0  0  0  0  0
  161.4240  201.7830  151.9840 C   0  0  0  0  0  3  0  0  0  0  0  0
  161.1740  201.2180  150.7330 C   0  0  0  0  0  3  0  0  0  0  0  0
  161.2140  206.5130  147.4240 C   0  0  0  0  0  0  0  0  0  0  0  0
  161.5200  205.7690  146.1610 C   0  0  2  0  0  3  0  0  0  0  0  0
  160.8440  208.3600  151.4700 C   0  0  1  0  0  3  0  0  0  0  0  0
  160.8210  206.0290  152.4700 C   0  0  0  0  0  2  0  0  0  0  0  0
  161.0090  204.0370  144.7960 C   0  0  2  0  0  3  0  0  0  0  0  0
  160.6030  207.9720  154.0130 C   0  0  0  0  0  2  0  0  0  0  0  0
  161.4950  203.1700  152.1220 C   0  0  0  0  0  3  0  0  0  0  0  0
  161.4690  205.5080  151.1870 C   0  0  1  0  0  3  0  0  0  0  0  0
  161.3030  204.0120  151.0150 C   0  0  0  0  0  0  0  0  0  0  0  0
  160.8470  204.3120  148.5380 C   0  0  2  0  0  3  0  0  0  0  0  0
  161.1670  205.2640  143.8960 C   0  0  0  0  0  2  0  0  0  0  0  0
  162.5230  210.0320  152.4510 C   0  0  0  0  0  2  0  0  0  0  0  0
  161.2150  207.4880  152.6950 C   0  0  2  0  0  3  0  0  0  0  0  0
  161.2860  206.4510  144.8410 C   0  0  0  0  0  2  0  0  0  0  0  0
  161.2680  209.8310  151.5930 C   0  0  0  0  0  2  0  0  0  0  0  0
  160.8510  209.4490  154.3320 C   0  0  1  0  0  3  0  0  0  0  0  0
  161.0100  202.0400  149.6170 C   0  0  0  0  0  3  0  0  0  0  0  0
  161.1080  203.4360  149.7360 C   0  0  0  0  0  0  0  0  0  0  0  0
  161.2300  203.6750  147.1830 C   0  0  0  0  0  2  0  0  0  0  0  0
  161.4490  207.7750  150.1940 C   0  0  0  0  0  2  0  0  0  0  0  0
  160.7940  207.6600  147.4190 O   0  0  0  0  0  0  0  0  0  0  0  0
  159.8400  203.2010  144.3130 C   0  0  0  0  0  1  0  0  0  0  0  0
  161.4680  205.7200  148.6910 C   0  0  2  0  0  3  0  0  0  0  0  0
  160.7340  204.5540  146.1250 N   0  0  1  0  0  0  0  0  0  0  0  0
  160.5740  209.6930  155.8060 C   0  0  0  0  0  2  0  0  0  0  0  0
  159.3620  210.5420  155.9830 C   0  0  0  0  0  0  0  0  0  0  0  0
  159.0820  211.1020  157.2230 O   0  0  0  0  0  1  0  0  0  0  0  0
  158.6080  210.7770  155.0030 O   0  0  0  0  0  0  0  0  0  0  0  0
  1 20  1  0  0  0  0
  2 24  1  1  0  0  0
  2 12  1  0  0  0  0
  3 11  1  0  0  0  0
  4  3  2  0  0  0  0
  6 18  1  6  0  0  0
  6  5  1  0  0  0  0
  7 24  1  6  0  0  0
  7 19  1  0  0  0  0
  7 17  1  0  0  0  0
  9 26  1  6  0  0  0
  9 28  1  0  0  0  0
 10 20  1  0  0  0  0
 12  8  1  1  0  0  0
 13 12  1  0  0  0  0
 13 11  2  0  0  0  0
 14 23  1  6  0  0  0
 14 27  1  0  0  0  0
 14 22  1  0  0  0  0
 15  9  1  0  0  0  0
 15 18  1  0  0  0  0
 16  1  1  0  0  0  0
 17  8  1  6  0  0  0
 17 10  1  0  0  0  0
 19 16  1  0  0  0  0
 20 29  1  1  0  0  0
 21 22  2  0  0  0  0
 21  4  1  0  0  0  0
 22 13  1  0  0  0  0
 25  5  2  0  0  0  0
 27  5  1  6  0  0  0
 27  2  1  0  0  0  0
 28  6  1  0  0  0  0
 28 23  1  1  0  0  0
 29 30  1  0  0  0  0
 30 31  1  0  0  0  0
 32 30  2  0  0  0  0
M  END
>  <MODEL>
3

>  <REMARK>
 VINA RESULT:      -8.7      3.138      8.989
  Name = 
  2 active torsions:
  status: ('A' for Active; 'I' for Inactive)
    1  A    between atoms: C_20  and  C_29
    2  A    between atoms: C_29  and  C_30
                            x       y       z     vdW  Elec       q    Type
                         _______ _______ _______ _____ _____    ______ ____

>  <TORSDO>
F 2

$$$$
