=
 OpenBabel11122413223D

 31 35  0  0  0  0  0  0  0  0999 V2000
  161.1130  201.6450  150.3480 C   0  0  0  0  0  0  0  0  0  0  0  0
  161.1350  205.3210  149.5760 C   0  0  0  0  0  0  0  0  0  0  0  0
  161.2120  205.4400  148.1640 C   0  0  0  0  0  0  0  0  0  0  0  0
  160.8520  206.7720  154.6190 O   0  0  0  0  0  0  0  0  0  0  0  0
  160.8850  207.8110  153.9060 C   0  0  0  0  0  0  0  0  0  0  0  0
  161.3350  204.4620  145.9910 C   0  0  0  0  0  0  0  0  0  0  0  0
  161.1040  204.0830  150.2750 C   0  0  0  0  0  0  0  0  0  0  0  0
  161.0370  201.6750  151.7410 C   0  0  0  0  0  3  0  0  0  0  0  0
  161.2620  204.3490  147.3450 N   0  0  0  0  0  0  0  0  0  0  0  0
  161.0110  206.4730  151.7280 C   0  0  0  0  0  0  0  0  0  0  0  0
  161.1550  200.4570  149.6990 F   0  0  0  0  0  0  0  0  0  0  0  0
  161.1870  207.8250  148.3720 N   0  0  0  0  0  0  0  0  0  0  0  0
  161.3970  203.0220  145.0000 Cl  0  0  0  0  0  0  0  0  0  0  0  0
  160.9840  205.2730  152.3620 N   0  0  0  0  0  0  0  0  0  0  0  0
  161.0870  206.5210  150.3290 C   0  0  0  0  0  0  0  0  0  0  0  0
  160.9640  207.6970  152.4780 N   0  0  0  0  0  2  0  0  0  0  0  0
  161.1460  202.8380  149.6240 C   0  0  0  0  0  3  0  0  0  0  0  0
  161.3600  205.7210  145.3920 C   0  0  0  0  0  3  0  0  0  0  0  0
  161.0270  204.0980  151.6900 C   0  0  0  0  0  0  0  0  0  0  0  0
  160.9940  202.8990  152.4090 C   0  0  0  0  0  3  0  0  0  0  0  0
  161.1150  207.7250  149.6970 N   0  0  0  0  0  0  0  0  0  0  0  0
  161.2360  206.7250  147.5840 C   0  0  0  0  0  0  0  0  0  0  0  0
  161.3100  206.8590  146.1980 C   0  0  0  0  0  3  0  0  0  0  0  0
  160.6980  211.7760  155.5640 C   0  0  0  0  0  0  0  0  0  0  0  0
  160.3020  210.2110  153.7680 C   0  0  0  0  0  3  0  0  0  0  0  0
  162.0240  208.2340  156.8980 Cl  0  0  0  0  0  0  0  0  0  0  0  0
  160.6270  213.0330  156.0630 F   0  0  0  0  0  0  0  0  0  0  0  0
  160.2280  211.5080  154.2800 C   0  0  0  0  0  3  0  0  0  0  0  0
  161.3200  209.4440  155.8330 C   0  0  0  0  0  0  0  0  0  0  0  0
  160.8440  209.1610  154.5250 C   0  0  0  0  0  0  0  0  0  0  0  0
  161.2400  210.7480  156.3350 C   0  0  0  0  0  3  0  0  0  0  0  0
  1  8  1  0  0  0  0
  2  7  1  0  0  0  0
  2 15  1  0  0  0  0
  3  2  2  0  0  0  0
  5 30  1  0  0  0  0
  5  4  2  0  0  0  0
  6  9  2  0  0  0  0
  7 19  2  0  0  0  0
  8 20  2  0  0  0  0
  9  3  1  0  0  0  0
 10 14  2  0  0  0  0
 10 16  1  0  0  0  0
 11  1  1  0  0  0  0
 12 21  1  0  0  0  0
 13  6  1  0  0  0  0
 15 10  1  0  0  0  0
 16  5  1  0  0  0  0
 17  7  1  0  0  0  0
 17  1  2  0  0  0  0
 18  6  1  0  0  0  0
 18 23  2  0  0  0  0
 19 14  1  0  0  0  0
 19 20  1  0  0  0  0
 21 15  2  0  0  0  0
 22  3  1  0  0  0  0
 22 12  2  0  0  0  0
 23 22  1  0  0  0  0
 24 27  1  0  0  0  0
 24 31  1  0  0  0  0
 25 28  1  0  0  0  0
 25 30  2  0  0  0  0
 28 24  2  0  0  0  0
 29 31  2  0  0  0  0
 29 26  1  0  0  0  0
 30 29  1  0  0  0  0
M  END
>  <MODEL>
1

>  <REMARK>
 VINA RESULT:      -9.8      0.000      0.000
  Name = 
  1 active torsions:
  status: ('A' for Active; 'I' for Inactive)
    1  A    between atoms: C_5  and  C_30
                            x       y       z     vdW  Elec       q    Type
                         _______ _______ _______ _____ _____    ______ ____

>  <TORSDO>
F 1

$$$$
=
 OpenBabel11122413223D

 31 35  0  0  0  0  0  0  0  0999 V2000
  161.0540  201.6610  150.2350 C   0  0  0  0  0  0  0  0  0  0  0  0
  161.1710  205.3650  149.6190 C   0  0  0  0  0  0  0  0  0  0  0  0
  161.2450  205.5420  148.2130 C   0  0  0  0  0  0  0  0  0  0  0  0
  160.9510  206.6070  154.7210 O   0  0  0  0  0  0  0  0  0  0  0  0
  161.0080  207.6740  154.0530 C   0  0  0  0  0  0  0  0  0  0  0  0
  161.3320  204.6540  146.0010 C   0  0  0  0  0  0  0  0  0  0  0  0
  161.1100  204.0990  150.2660 C   0  0  0  0  0  0  0  0  0  0  0  0
  160.9850  201.6340  151.6290 C   0  0  0  0  0  3  0  0  0  0  0  0
  161.2620  204.4860  147.3480 N   0  0  0  0  0  0  0  0  0  0  0  0
  161.0880  206.4270  151.8190 C   0  0  0  0  0  0  0  0  0  0  0  0
  161.0610  200.5010  149.5360 F   0  0  0  0  0  0  0  0  0  0  0  0
  161.2860  207.9150  148.5230 N   0  0  0  0  0  0  0  0  0  0  0  0
  161.3500  203.2570  144.9480 Cl  0  0  0  0  0  0  0  0  0  0  0  0
  161.0310  205.2030  152.4020 N   0  0  0  0  0  0  0  0  0  0  0  0
  161.1600  206.5330  150.4230 C   0  0  0  0  0  0  0  0  0  0  0  0
  161.0780  207.6180  152.6210 N   0  0  0  0  0  2  0  0  0  0  0  0
  161.1160  202.8830  149.5620 C   0  0  0  0  0  3  0  0  0  0  0  0
  161.3890  205.9370  145.4560 C   0  0  0  0  0  3  0  0  0  0  0  0
  161.0390  204.0560  151.6800 C   0  0  0  0  0  0  0  0  0  0  0  0
  160.9770  202.8290  152.3480 C   0  0  0  0  0  3  0  0  0  0  0  0
  161.2170  207.7620  149.8430 N   0  0  0  0  0  0  0  0  0  0  0  0
  161.3010  206.8490  147.6890 C   0  0  0  0  0  0  0  0  0  0  0  0
  161.3730  207.0400  146.3090 C   0  0  0  0  0  3  0  0  0  0  0  0
  161.0640  211.4320  156.1440 C   0  0  0  0  0  0  0  0  0  0  0  0
  161.4620  209.0520  156.0560 C   0  0  0  0  0  3  0  0  0  0  0  0
  159.9780  210.2870  152.4570 Cl  0  0  0  0  0  0  0  0  0  0  0  0
  161.0920  212.6030  156.8250 F   0  0  0  0  0  0  0  0  0  0  0  0
  161.4920  210.2580  156.7600 C   0  0  0  0  0  3  0  0  0  0  0  0
  160.5730  210.2000  154.1100 C   0  0  0  0  0  0  0  0  0  0  0  0
  161.0060  208.9970  154.7290 C   0  0  0  0  0  0  0  0  0  0  0  0
  160.6080  211.4010  154.8270 C   0  0  0  0  0  3  0  0  0  0  0  0
  1  8  1  0  0  0  0
  2  7  1  0  0  0  0
  2 15  1  0  0  0  0
  3  2  2  0  0  0  0
  5  4  2  0  0  0  0
  5 30  1  0  0  0  0
  6  9  2  0  0  0  0
  7 19  2  0  0  0  0
  8 20  2  0  0  0  0
  9  3  1  0  0  0  0
 10 14  2  0  0  0  0
 10 16  1  0  0  0  0
 11  1  1  0  0  0  0
 12 21  1  0  0  0  0
 13  6  1  0  0  0  0
 15 10  1  0  0  0  0
 16  5  1  0  0  0  0
 17  1  2  0  0  0  0
 17  7  1  0  0  0  0
 18  6  1  0  0  0  0
 18 23  2  0  0  0  0
 19 20  1  0  0  0  0
 19 14  1  0  0  0  0
 21 15  2  0  0  0  0
 22  3  1  0  0  0  0
 22 12  2  0  0  0  0
 23 22  1  0  0  0  0
 24 28  1  0  0  0  0
 24 27  1  0  0  0  0
 25 28  2  0  0  0  0
 26 29  1  0  0  0  0
 29 30  2  0  0  0  0
 29 31  1  0  0  0  0
 30 25  1  0  0  0  0
 31 24  2  0  0  0  0
M  END
>  <MODEL>
2

>  <REMARK>
 VINA RESULT:      -9.7      1.012      1.330
  Name = 
  1 active torsions:
  status: ('A' for Active; 'I' for Inactive)
    1  A    between atoms: C_5  and  C_30
                            x       y       z     vdW  Elec       q    Type
                         _______ _______ _______ _____ _____    ______ ____

>  <TORSDO>
F 1

$$$$
=
 OpenBabel11122413223D

 31 35  0  0  0  0  0  0  0  0999 V2000
  161.2060  205.6360  153.4520 C   0  0  0  0  0  0  0  0  0  0  0  0
  161.3030  205.9430  149.7090 C   0  0  0  0  0  0  0  0  0  0  0  0
  161.2320  204.6240  149.1910 C   0  0  0  0  0  0  0  0  0  0  0  0
  161.6270  211.1880  149.7640 O   0  0  0  0  0  0  0  0  0  0  0  0
  161.6270  210.8010  148.5650 C   0  0  0  0  0  0  0  0  0  0  0  0
  161.0790  202.2640  149.5050 C   0  0  0  0  0  0  0  0  0  0  0  0
  161.2940  206.2610  151.0960 C   0  0  0  0  0  0  0  0  0  0  0  0
  161.2820  206.9790  153.8220 C   0  0  0  0  0  3  0  0  0  0  0  0
  161.1470  203.5290  150.0000 N   0  0  0  0  0  0  0  0  0  0  0  0
  161.4610  208.3330  149.2220 C   0  0  0  0  0  0  0  0  0  0  0  0
  161.1270  204.6760  154.4040 F   0  0  0  0  0  0  0  0  0  0  0  0
  161.3330  205.5030  146.9660 N   0  0  0  0  0  0  0  0  0  0  0  0
  160.9720  200.9040  150.6000 Cl  0  0  0  0  0  0  0  0  0  0  0  0
  161.4500  208.5990  150.5530 N   0  0  0  0  0  0  0  0  0  0  0  0
  161.3880  207.0070  148.7760 C   0  0  0  0  0  0  0  0  0  0  0  0
  161.5470  209.4000  148.2650 N   0  0  0  0  0  2  0  0  0  0  0  0
  161.2120  205.2820  152.1020 C   0  0  0  0  0  3  0  0  0  0  0  0
  161.0940  202.0490  148.1260 C   0  0  0  0  0  3  0  0  0  0  0  0
  161.3700  207.6200  151.4870 C   0  0  0  0  0  0  0  0  0  0  0  0
  161.3630  207.9680  152.8420 C   0  0  0  0  0  3  0  0  0  0  0  0
  161.3990  206.7440  147.4410 N   0  0  0  0  0  0  0  0  0  0  0  0
  161.2490  204.4350  147.7940 C   0  0  0  0  0  0  0  0  0  0  0  0
  161.1790  203.1440  147.2680 C   0  0  0  0  0  3  0  0  0  0  0  0
  161.7230  213.5850  145.2870 C   0  0  0  0  0  0  0  0  0  0  0  0
  160.6210  211.8590  146.5680 C   0  0  0  0  0  3  0  0  0  0  0  0
  164.2610  212.6430  148.2470 Cl  0  0  0  0  0  0  0  0  0  0  0  0
  161.7290  214.4530  144.2480 F   0  0  0  0  0  0  0  0  0  0  0  0
  160.6250  212.7540  145.4960 C   0  0  0  0  0  3  0  0  0  0  0  0
  162.8260  212.6310  147.2290 C   0  0  0  0  0  0  0  0  0  0  0  0
  161.7110  211.7790  147.4490 C   0  0  0  0  0  0  0  0  0  0  0  0
  162.8160  213.5220  146.1510 C   0  0  0  0  0  3  0  0  0  0  0  0
  1  8  1  0  0  0  0
  1 11  1  0  0  0  0
  2  7  1  0  0  0  0
  3  2  1  0  0  0  0
  3  9  1  0  0  0  0
  5  4  2  0  0  0  0
  6  9  2  0  0  0  0
  6 13  1  0  0  0  0
  7 19  2  0  0  0  0
  7 17  1  0  0  0  0
 10 14  2  0  0  0  0
 12 21  2  0  0  0  0
 12 22  1  0  0  0  0
 14 19  1  0  0  0  0
 15 10  1  0  0  0  0
 15  2  2  0  0  0  0
 16  5  1  0  0  0  0
 16 10  1  0  0  0  0
 17  1  2  0  0  0  0
 18  6  1  0  0  0  0
 19 20  1  0  0  0  0
 20  8  2  0  0  0  0
 21 15  1  0  0  0  0
 22  3  2  0  0  0  0
 23 22  1  0  0  0  0
 23 18  2  0  0  0  0
 24 28  2  0  0  0  0
 24 31  1  0  0  0  0
 25 30  2  0  0  0  0
 27 24  1  0  0  0  0
 28 25  1  0  0  0  0
 29 30  1  0  0  0  0
 29 26  1  0  0  0  0
 30  5  1  0  0  0  0
 31 29  2  0  0  0  0
M  END
>  <MODEL>
3

>  <REMARK>
 VINA RESULT:      -9.2      4.531      6.079
  Name = 
  1 active torsions:
  status: ('A' for Active; 'I' for Inactive)
    1  A    between atoms: C_5  and  C_30
                            x       y       z     vdW  Elec       q    Type
                         _______ _______ _______ _____ _____    ______ ____

>  <TORSDO>
F 1

$$$$
=
 OpenBabel11122413223D

 31 35  0  0  0  0  0  0  0  0999 V2000
  161.8610  211.0140  150.0700 C   0  0  0  0  0  0  0  0  0  0  0  0
  161.3560  207.5710  151.4860 C   0  0  0  0  0  0  0  0  0  0  0  0
  161.2190  207.7240  152.8900 C   0  0  0  0  0  0  0  0  0  0  0  0
  161.6230  205.1920  146.8070 O   0  0  0  0  0  0  0  0  0  0  0  0
  161.4360  204.3130  147.6910 C   0  0  0  0  0  0  0  0  0  0  0  0
  161.1450  209.0940  154.8420 C   0  0  0  0  0  0  0  0  0  0  0  0
  161.5640  208.6470  150.5780 C   0  0  0  0  0  0  0  0  0  0  0  0
  161.9800  210.7190  148.7120 C   0  0  0  0  0  3  0  0  0  0  0  0
  161.2770  208.9450  153.4960 N   0  0  0  0  0  0  0  0  0  0  0  0
  161.4060  206.0350  149.5840 C   0  0  0  0  0  0  0  0  0  0  0  0
  161.9460  212.2980  150.4930 F   0  0  0  0  0  0  0  0  0  0  0  0
  160.9520  205.3550  153.1130 N   0  0  0  0  0  0  0  0  0  0  0  0
  161.2300  210.6890  155.5550 Cl  0  0  0  0  0  0  0  0  0  0  0  0
  161.6040  207.0860  148.7480 N   0  0  0  0  0  0  0  0  0  0  0  0
  161.2780  206.2560  150.9630 C   0  0  0  0  0  0  0  0  0  0  0  0
  161.3260  204.6980  149.0690 N   0  0  0  0  0  2  0  0  0  0  0  0
  161.6560  209.9870  150.9930 C   0  0  0  0  0  3  0  0  0  0  0  0
  160.9420  207.9770  155.6540 C   0  0  0  0  0  3  0  0  0  0  0  0
  161.6860  208.3630  149.1960 C   0  0  0  0  0  0  0  0  0  0  0  0
  161.8910  209.3960  148.2770 C   0  0  0  0  0  3  0  0  0  0  0  0
  161.0790  205.2000  151.7970 N   0  0  0  0  0  0  0  0  0  0  0  0
  161.0140  206.5800  153.6870 C   0  0  0  0  0  0  0  0  0  0  0  0
  160.8770  206.7130  155.0690 C   0  0  0  0  0  3  0  0  0  0  0  0
  161.1710  200.1170  146.7870 C   0  0  0  0  0  0  0  0  0  0  0  0
  161.6150  201.9280  148.3210 C   0  0  0  0  0  3  0  0  0  0  0  0
  160.5700  203.4840  144.6930 Cl  0  0  0  0  0  0  0  0  0  0  0  0
  161.0940  198.7890  146.5280 F   0  0  0  0  0  0  0  0  0  0  0  0
  161.5370  200.5590  148.0560 C   0  0  0  0  0  3  0  0  0  0  0  0
  160.9560  202.4160  146.0360 C   0  0  0  0  0  0  0  0  0  0  0  0
  161.3290  202.8770  147.3260 C   0  0  0  0  0  0  0  0  0  0  0  0
  160.8820  201.0420  145.7840 C   0  0  0  0  0  3  0  0  0  0  0  0
  1 11  1  0  0  0  0
  1 17  1  0  0  0  0
  2  3  1  0  0  0  0
  3  9  2  0  0  0  0
  3 22  1  0  0  0  0
  4  5  2  0  0  0  0
  5 16  1  0  0  0  0
  6 13  1  0  0  0  0
  6 18  2  0  0  0  0
  7 17  2  0  0  0  0
  7  2  1  0  0  0  0
  8  1  2  0  0  0  0
  9  6  1  0  0  0  0
 10 15  1  0  0  0  0
 12 22  1  0  0  0  0
 14 19  1  0  0  0  0
 14 10  2  0  0  0  0
 15  2  2  0  0  0  0
 15 21  1  0  0  0  0
 16 10  1  0  0  0  0
 19  7  1  0  0  0  0
 20  8  1  0  0  0  0
 20 19  2  0  0  0  0
 21 12  2  0  0  0  0
 22 23  2  0  0  0  0
 23 18  1  0  0  0  0
 24 28  1  0  0  0  0
 26 29  1  0  0  0  0
 27 24  1  0  0  0  0
 28 25  2  0  0  0  0
 29 30  2  0  0  0  0
 30  5  1  0  0  0  0
 30 25  1  0  0  0  0
 31 29  1  0  0  0  0
 31 24  2  0  0  0  0
M  END
>  <MODEL>
4

>  <REMARK>
 VINA RESULT:      -9.2      2.817      9.254
  Name = 
  1 active torsions:
  status: ('A' for Active; 'I' for Inactive)
    1  A    between atoms: C_5  and  C_30
                            x       y       z     vdW  Elec       q    Type
                         _______ _______ _______ _____ _____    ______ ____

>  <TORSDO>
F 1

$$$$
=
 OpenBabel11122413223D

 31 35  0  0  0  0  0  0  0  0999 V2000
  161.8450  211.1350  150.0150 C   0  0  0  0  0  0  0  0  0  0  0  0
  161.3480  207.7380  151.5410 C   0  0  0  0  0  0  0  0  0  0  0  0
  161.2180  207.9360  152.9410 C   0  0  0  0  0  0  0  0  0  0  0  0
  161.5920  205.2130  146.9400 O   0  0  0  0  0  0  0  0  0  0  0  0
  161.4100  204.3620  147.8520 C   0  0  0  0  0  0  0  0  0  0  0  0
  161.1530  209.3670  154.8490 C   0  0  0  0  0  0  0  0  0  0  0  0
  161.5510  208.7850  150.6000 C   0  0  0  0  0  0  0  0  0  0  0  0
  161.9570  210.7970  148.6660 C   0  0  0  0  0  3  0  0  0  0  0  0
  161.2780  209.1760  153.5080 N   0  0  0  0  0  0  0  0  0  0  0  0
  161.3890  206.1430  149.6900 C   0  0  0  0  0  0  0  0  0  0  0  0
  161.9320  212.4320  150.3970 F   0  0  0  0  0  0  0  0  0  0  0  0
  160.9530  205.5760  153.2400 N   0  0  0  0  0  0  0  0  0  0  0  0
  161.2420  210.9840  155.5100 Cl  0  0  0  0  0  0  0  0  0  0  0  0
  161.5830  207.1670  148.8200 N   0  0  0  0  0  0  0  0  0  0  0  0
  161.2680  206.4070  151.0610 C   0  0  0  0  0  0  0  0  0  0  0  0
  161.3070  204.7900  149.2180 N   0  0  0  0  0  2  0  0  0  0  0  0
  161.6450  210.1380  150.9710 C   0  0  0  0  0  3  0  0  0  0  0  0
  160.9550  208.2770  155.6970 C   0  0  0  0  0  3  0  0  0  0  0  0
  161.6660  208.4570  149.2260 C   0  0  0  0  0  0  0  0  0  0  0  0
  161.8670  209.4610  148.2730 C   0  0  0  0  0  3  0  0  0  0  0  0
  161.0740  205.3790  151.9300 N   0  0  0  0  0  0  0  0  0  0  0  0
  161.0180  206.8180  153.7750 C   0  0  0  0  0  0  0  0  0  0  0  0
  160.8870  206.9950  155.1530 C   0  0  0  0  0  3  0  0  0  0  0  0
  161.0970  200.2110  146.7720 C   0  0  0  0  0  0  0  0  0  0  0  0
  161.2400  202.5470  146.1800 C   0  0  0  0  0  3  0  0  0  0  0  0
  161.3300  202.1980  150.2480 Cl  0  0  0  0  0  0  0  0  0  0  0  0
  160.9990  198.9100  146.4060 F   0  0  0  0  0  0  0  0  0  0  0  0
  161.1380  201.2080  145.8000 C   0  0  0  0  0  3  0  0  0  0  0  0
  161.2600  201.8920  148.5170 C   0  0  0  0  0  0  0  0  0  0  0  0
  161.3020  202.9150  147.5340 C   0  0  0  0  0  0  0  0  0  0  0  0
  161.1590  200.5530  148.1230 C   0  0  0  0  0  3  0  0  0  0  0  0
  1 11  1  0  0  0  0
  1 17  1  0  0  0  0
  2  3  1  0  0  0  0
  3  9  2  0  0  0  0
  3 22  1  0  0  0  0
  4  5  2  0  0  0  0
  5 16  1  0  0  0  0
  6 13  1  0  0  0  0
  6 18  2  0  0  0  0
  7 17  2  0  0  0  0
  7  2  1  0  0  0  0
  8  1  2  0  0  0  0
  9  6  1  0  0  0  0
 10 15  1  0  0  0  0
 12 22  1  0  0  0  0
 14 19  1  0  0  0  0
 14 10  2  0  0  0  0
 15  2  2  0  0  0  0
 15 21  1  0  0  0  0
 16 10  1  0  0  0  0
 19  7  1  0  0  0  0
 20  8  1  0  0  0  0
 20 19  2  0  0  0  0
 21 12  2  0  0  0  0
 22 23  2  0  0  0  0
 23 18  1  0  0  0  0
 24 31  1  0  0  0  0
 25 30  2  0  0  0  0
 27 24  1  0  0  0  0
 28 25  1  0  0  0  0
 28 24  2  0  0  0  0
 29 26  1  0  0  0  0
 30  5  1  0  0  0  0
 30 29  1  0  0  0  0
 31 29  2  0  0  0  0
M  END
>  <MODEL>
5

>  <REMARK>
 VINA RESULT:      -8.8      2.968      9.057
  Name = 
  1 active torsions:
  status: ('A' for Active; 'I' for Inactive)
    1  A    between atoms: C_5  and  C_30
                            x       y       z     vdW  Elec       q    Type
                         _______ _______ _______ _____ _____    ______ ____

>  <TORSDO>
F 1

$$$$
=
 OpenBabel11122413223D

 31 35  0  0  0  0  0  0  0  0999 V2000
  160.9130  210.4840  154.3110 C   0  0  0  0  0  0  0  0  0  0  0  0
  161.2890  209.3350  150.7540 C   0  0  0  0  0  0  0  0  0  0  0  0
  161.4230  210.5050  149.9610 C   0  0  0  0  0  0  0  0  0  0  0  0
  160.9670  204.2320  151.9660 O   0  0  0  0  0  0  0  0  0  0  0  0
  161.1170  204.3370  150.7190 C   0  0  0  0  0  0  0  0  0  0  0  0
  161.5330  212.8770  149.7440 C   0  0  0  0  0  0  0  0  0  0  0  0
  161.1240  209.3400  152.1680 C   0  0  0  0  0  0  0  0  0  0  0  0
  160.7930  209.2580  154.9670 C   0  0  0  0  0  3  0  0  0  0  0  0
  161.4050  211.7560  150.5030 N   0  0  0  0  0  0  0  0  0  0  0  0
  161.1970  206.8930  150.8110 C   0  0  0  0  0  0  0  0  0  0  0  0
  160.8710  211.6380  155.0210 F   0  0  0  0  0  0  0  0  0  0  0  0
  161.6050  209.1420  148.0010 N   0  0  0  0  0  0  0  0  0  0  0  0
  161.5000  214.4530  150.5050 Cl  0  0  0  0  0  0  0  0  0  0  0  0
  161.0400  206.9360  152.1590 N   0  0  0  0  0  0  0  0  0  0  0  0
  161.3240  208.0860  150.0860 C   0  0  0  0  0  0  0  0  0  0  0  0
  161.2330  205.6360  150.1200 N   0  0  0  0  0  2  0  0  0  0  0  0
  161.0770  210.5230  152.9260 C   0  0  0  0  0  3  0  0  0  0  0  0
  161.6910  212.7740  148.3620 C   0  0  0  0  0  3  0  0  0  0  0  0
  161.0010  208.1030  152.8460 C   0  0  0  0  0  0  0  0  0  0  0  0
  160.8370  208.0720  154.2350 C   0  0  0  0  0  3  0  0  0  0  0  0
  161.4800  208.0390  148.7350 N   0  0  0  0  0  0  0  0  0  0  0  0
  161.5820  210.3720  148.5670 C   0  0  0  0  0  0  0  0  0  0  0  0
  161.7160  211.5110  147.7720 C   0  0  0  0  0  3  0  0  0  0  0  0
  161.2820  200.7500  148.3510 C   0  0  0  0  0  0  0  0  0  0  0  0
  161.1780  201.8750  150.4850 C   0  0  0  0  0  3  0  0  0  0  0  0
  161.2310  204.6710  147.5090 Cl  0  0  0  0  0  0  0  0  0  0  0  0
  161.3320  199.6060  147.6280 F   0  0  0  0  0  0  0  0  0  0  0  0
  161.2300  200.6940  149.7420 C   0  0  0  0  0  3  0  0  0  0  0  0
  161.2280  203.1760  148.4370 C   0  0  0  0  0  0  0  0  0  0  0  0
  161.1760  203.1300  149.8550 C   0  0  0  0  0  0  0  0  0  0  0  0
  161.2800  201.9850  147.7040 C   0  0  0  0  0  3  0  0  0  0  0  0
  1  8  1  0  0  0  0
  1 11  1  0  0  0  0
  2  7  1  0  0  0  0
  3  9  1  0  0  0  0
  3  2  2  0  0  0  0
  5  4  2  0  0  0  0
  6  9  2  0  0  0  0
  6 13  1  0  0  0  0
  7 19  2  0  0  0  0
  7 17  1  0  0  0  0
 10 14  2  0  0  0  0
 12 22  2  0  0  0  0
 12 21  1  0  0  0  0
 14 19  1  0  0  0  0
 15  2  1  0  0  0  0
 15 10  1  0  0  0  0
 16  5  1  0  0  0  0
 16 10  1  0  0  0  0
 17  1  2  0  0  0  0
 18  6  1  0  0  0  0
 19 20  1  0  0  0  0
 20  8  2  0  0  0  0
 21 15  2  0  0  0  0
 22  3  1  0  0  0  0
 23 18  2  0  0  0  0
 23 22  1  0  0  0  0
 24 28  1  0  0  0  0
 26 29  1  0  0  0  0
 27 24  1  0  0  0  0
 28 25  2  0  0  0  0
 29 30  2  0  0  0  0
 30 25  1  0  0  0  0
 30  5  1  0  0  0  0
 31 24  2  0  0  0  0
 31 29  1  0  0  0  0
M  END
>  <MODEL>
6

>  <REMARK>
 VINA RESULT:      -7.0      3.013      8.081
  Name = 
  1 active torsions:
  status: ('A' for Active; 'I' for Inactive)
    1  A    between atoms: C_5  and  C_30
                            x       y       z     vdW  Elec       q    Type
                         _______ _______ _______ _____ _____    ______ ____

>  <TORSDO>
F 1

$$$$
