=
 OpenBabel11122414093D

 28 32  0  0  1  0  0  0  0  0999 V2000
  160.5320  209.6680  156.3020 C   0  0  0  0  0  0  0  0  0  0  0  0
  155.6280  210.4820  154.7050 C   0  0  0  0  0  1  0  0  0  0  0  0
  161.5490  211.0760  151.8240 O   0  0  0  0  0  0  0  0  0  0  0  0
  161.6290  212.1940  156.8170 C   0  0  0  0  0  3  0  0  0  0  0  0
  159.4720  212.1850  152.2640 C   0  0  0  0  0  0  0  0  0  0  0  0
  160.0080  208.3060  155.9640 C   0  0  0  0  0  2  0  0  0  0  0  0
  155.9360  211.2300  157.0260 C   0  0  0  0  0  1  0  0  0  0  0  0
  156.1320  211.6300  155.5780 C   0  0  0  0  0  0  0  0  0  0  0  0
  155.4980  213.3960  153.9070 C   0  0  1  0  0  3  0  0  0  0  0  0
  157.6370  211.9560  155.3600 C   0  0  2  0  0  3  0  0  0  0  0  0
  162.3330  209.1830  154.0010 F   0  0  0  0  0  0  0  0  0  0  0  0
  158.5720  210.4720  153.6590 C   0  0  1  0  0  3  0  0  0  0  0  0
  156.9320  213.8860  153.7820 C   0  0  0  0  0  2  0  0  0  0  0  0
  155.2670  212.8620  155.3150 C   0  0  0  0  0  2  0  0  0  0  0  0
  161.3940  208.1890  153.7810 C   0  0  2  0  0  3  0  0  0  0  0  0
  159.8420  210.8260  155.8870 C   0  0  0  0  0  0  0  0  0  0  0  0
  160.4250  211.1170  152.3900 C   0  0  0  0  0  0  0  0  0  0  0  0
  154.6240  214.4530  153.6620 O   0  0  0  0  0  1  0  0  0  0  0  0
  160.2210  208.6720  152.9290 C   0  0  0  0  0  2  0  0  0  0  0  0
  160.4160  212.0840  156.1340 C   0  0  0  0  0  3  0  0  0  0  0  0
  161.7400  209.7880  157.0030 C   0  0  0  0  0  3  0  0  0  0  0  0
  162.2860  211.0450  157.2610 C   0  0  0  0  0  3  0  0  0  0  0  0
  160.9730  207.5030  155.0860 C   0  0  0  0  0  2  0  0  0  0  0  0
  158.2200  211.8200  152.9810 C   0  0  1  0  0  3  0  0  0  0  0  0
  159.9010  210.0720  153.1900 N   0  0  0  0  0  0  0  0  0  0  0  0
  157.9480  212.7920  154.1150 C   0  0  2  0  0  3  0  0  0  0  0  0
  159.6530  213.2440  151.6070 O   0  0  0  0  0  0  0  0  0  0  0  0
  158.4990  210.7050  155.1850 C   0  0  1  0  0  3  0  0  0  0  0  0
  1 21  1  0  0  0  0
  2  8  1  0  0  0  0
  3 17  2  0  0  0  0
  4 22  1  0  0  0  0
  5 17  1  0  0  0  0
  6  1  1  0  0  0  0
  8  7  1  0  0  0  0
  9 18  1  1  0  0  0
  9 14  1  0  0  0  0
 10  8  1  6  0  0  0
 12 25  1  1  0  0  0
 12 28  1  0  0  0  0
 13  9  1  0  0  0  0
 14  8  1  0  0  0  0
 15 11  1  1  0  0  0
 15 23  1  0  0  0  0
 16 20  1  0  0  0  0
 16  1  2  0  0  0  0
 17 25  1  0  0  0  0
 19 25  1  0  0  0  0
 19 15  1  0  0  0  0
 20  4  2  0  0  0  0
 21 22  2  0  0  0  0
 23  6  1  0  0  0  0
 24  5  1  1  0  0  0
 24 12  1  0  0  0  0
 24 26  1  0  0  0  0
 26 13  1  6  0  0  0
 26 10  1  0  0  0  0
 27  5  2  0  0  0  0
 28 10  1  0  0  0  0
 28 16  1  6  0  0  0
M  END
>  <MODEL>
1

>  <REMARK>
 VINA RESULT:      -3.5      0.000      0.000
  Name = 
  0 active torsions:
  status: ('A' for Active; 'I' for Inactive)
                            x       y       z     vdW  Elec       q    Type
                         _______ _______ _______ _____ _____    ______ ____

>  <TORSDO>
F 0

$$$$
=
 OpenBabel11122414093D

 28 32  0  0  1  0  0  0  0  0999 V2000
  160.9110  209.9880  156.2150 C   0  0  0  0  0  0  0  0  0  0  0  0
  158.1690  211.6990  152.1140 C   0  0  0  0  0  1  0  0  0  0  0  0
  162.3770  206.6860  153.0480 O   0  0  0  0  0  0  0  0  0  0  0  0
  163.5520  210.8310  155.8120 C   0  0  0  0  0  3  0  0  0  0  0  0
  161.8500  208.5580  151.6500 C   0  0  0  0  0  0  0  0  0  0  0  0
  159.5280  209.4520  156.4280 C   0  0  0  0  0  2  0  0  0  0  0  0
  159.0650  213.5770  153.4230 C   0  0  0  0  0  1  0  0  0  0  0  0
  159.4100  212.5570  152.3570 C   0  0  0  0  0  0  0  0  0  0  0  0
  160.2090  212.3640  149.9830 C   0  0  1  0  0  3  0  0  0  0  0  0
  160.6400  211.7390  152.8440 C   0  0  2  0  0  3  0  0  0  0  0  0
  161.6120  207.1270  155.9050 F   0  0  0  0  0  0  0  0  0  0  0  0
  160.0560  209.3700  152.9950 C   0  0  1  0  0  3  0  0  0  0  0  0
  161.5190  211.7190  150.4070 C   0  0  0  0  0  2  0  0  0  0  0  0
  159.7380  213.3180  151.0740 C   0  0  0  0  0  2  0  0  0  0  0  0
  160.2350  207.0480  155.7820 C   0  0  2  0  0  3  0  0  0  0  0  0
  161.2910  210.5130  154.9630 C   0  0  0  0  0  0  0  0  0  0  0  0
  161.6940  207.7150  152.8030 C   0  0  0  0  0  0  0  0  0  0  0  0
  160.4020  213.0720  148.7980 O   0  0  0  0  0  1  0  0  0  0  0  0
  159.7670  207.2240  154.3380 C   0  0  0  0  0  2  0  0  0  0  0  0
  162.6250  210.9110  154.7710 C   0  0  0  0  0  3  0  0  0  0  0  0
  161.8430  209.9260  157.2600 C   0  0  0  0  0  3  0  0  0  0  0  0
  163.1570  210.3470  157.0600 C   0  0  0  0  0  3  0  0  0  0  0  0
  159.5200  207.9620  156.7830 C   0  0  0  0  0  2  0  0  0  0  0  0
  160.7880  209.6000  151.6500 C   0  0  1  0  0  3  0  0  0  0  0  0
  160.6130  208.1590  153.6040 N   0  0  0  0  0  0  0  0  0  0  0  0
  161.3970  210.9870  151.7440 C   0  0  2  0  0  3  0  0  0  0  0  0
  162.7220  208.4060  150.7540 O   0  0  0  0  0  0  0  0  0  0  0  0
  160.2690  210.6430  153.8450 C   0  0  1  0  0  3  0  0  0  0  0  0
  1  6  1  0  0  0  0
  1 21  1  0  0  0  0
  2  8  1  0  0  0  0
  4 22  1  0  0  0  0
  5 17  1  0  0  0  0
  6 23  1  0  0  0  0
  8  7  1  0  0  0  0
  9 18  1  6  0  0  0
  9 13  1  0  0  0  0
  9 14  1  0  0  0  0
 10  8  1  6  0  0  0
 10 28  1  0  0  0  0
 12 25  1  1  0  0  0
 12 28  1  0  0  0  0
 14  8  1  0  0  0  0
 15 11  1  6  0  0  0
 15 23  1  0  0  0  0
 16  1  2  0  0  0  0
 17  3  2  0  0  0  0
 17 25  1  0  0  0  0
 19 15  1  0  0  0  0
 20 16  1  0  0  0  0
 20  4  2  0  0  0  0
 22 21  2  0  0  0  0
 24  5  1  1  0  0  0
 24 26  1  0  0  0  0
 24 12  1  0  0  0  0
 25 19  1  0  0  0  0
 26 13  1  6  0  0  0
 26 10  1  0  0  0  0
 27  5  2  0  0  0  0
 28 16  1  1  0  0  0
M  END
>  <MODEL>
2

>  <REMARK>
 VINA RESULT:      -1.3      2.741      3.935
  Name = 
  0 active torsions:
  status: ('A' for Active; 'I' for Inactive)
                            x       y       z     vdW  Elec       q    Type
                         _______ _______ _______ _____ _____    ______ ____

>  <TORSDO>
F 0

$$$$
