=
 OpenBabel11122414203D

 34 40  0  0  1  0  0  0  0  0999 V2000
  160.9070  207.6890  154.0960 C   0  0  0  0  0  0  0  0  0  0  0  0
  162.3250  206.1290  152.6720 C   0  0  0  0  0  2  0  0  0  0  0  0
  157.4890  213.1320  154.2730 C   0  0  2  0  0  3  0  0  0  0  0  0
  159.8890  209.4270  155.4310 C   0  0  0  0  0  0  0  0  0  0  0  0
  159.5950  211.6800  154.3890 C   0  0  2  0  0  3  0  0  0  0  0  0
  159.3890  213.7230  155.6740 O   0  0  0  0  0  1  0  0  0  0  0  0
  157.0870  214.4530  153.6520 C   0  0  0  0  0  1  0  0  0  0  0  0
  157.1140  211.7480  156.4400 C   0  0  0  0  0  2  0  0  0  0  0  0
  161.8720  208.3590  152.0120 N   0  0  2  0  0  0  0  0  0  0  0  0
  161.8610  209.2590  148.9250 C   0  0  0  0  0  2  0  0  0  0  0  0
  159.3050  211.0500  153.0210 C   0  0  0  0  0  2  0  0  0  0  0  0
  157.6920  210.5630  155.6870 C   0  0  0  0  0  2  0  0  0  0  0  0
  160.7980  209.3220  151.6650 C   0  0  1  0  0  3  0  0  0  0  0  0
  162.9020  206.2970  151.2830 C   0  0  0  0  0  2  0  0  0  0  0  0
  159.2000  210.7530  155.5550 C   0  0  1  0  0  3  0  0  0  0  0  0
  156.6360  212.8760  155.5230 C   0  0  0  0  0  2  0  0  0  0  0  0
  161.8530  207.8410  149.5290 C   0  0  2  0  0  3  0  0  0  0  0  0
  160.2270  208.9090  154.1710 C   0  0  0  0  0  0  0  0  0  0  0  0
  159.0080  213.0950  154.4850 C   0  0  2  0  0  3  0  0  0  0  0  0
  159.8680  209.6250  152.8830 C   0  0  1  0  0  3  0  0  0  0  0  0
  160.8640  207.4670  156.4560 C   0  0  0  0  0  3  0  0  0  0  0  0
  162.3380  210.3540  149.8830 C   0  0  0  0  0  2  0  0  0  0  0  0
  160.2050  208.6950  156.5800 C   0  0  0  0  0  3  0  0  0  0  0  0
  161.3660  210.6040  151.0360 C   0  0  0  0  0  2  0  0  0  0  0  0
  162.5990  207.7450  150.8830 C   0  0  1  0  0  3  0  0  0  0  0  0
  161.2030  206.9920  155.2270 N   0  0  0  0  0  0  0  0  0  0  0  0
  161.3000  207.2280  152.7310 C   0  0  2  0  0  3  0  0  0  0  0  0
  162.4180  206.9180  148.5560 N   0  0  0  0  0  2  0  0  0  0  0  0
  161.3020  206.3210  147.8410 C   0  0  0  0  0  2  0  0  0  0  0  0
  161.3580  202.6860  147.8140 N   0  0  0  0  0  0  0  0  0  0  0  0
  160.8680  204.2400  149.2600 C   0  0  0  0  0  3  0  0  0  0  0  0
  161.2690  204.8570  148.0970 C   0  0  0  0  0  0  0  0  0  0  0  0
  160.9400  202.9120  149.0510 N   0  0  0  0  0  2  0  0  0  0  0  0
  161.5640  203.8630  147.1930 C   0  0  0  0  0  3  0  0  0  0  0  0
  1 18  2  0  0  0  0
  1 26  1  0  0  0  0
  2 27  1  0  0  0  0
  3  7  1  1  0  0  0
  3 19  1  0  0  0  0
  3 16  1  0  0  0  0
  4 15  1  0  0  0  0
  4 23  2  0  0  0  0
  5 11  1  6  0  0  0
  5 19  1  0  0  0  0
  5 15  1  0  0  0  0
  9 27  1  0  0  0  0
 10 17  1  0  0  0  0
 10 22  1  0  0  0  0
 12  8  1  0  0  0  0
 13  9  1  0  0  0  0
 13 20  1  0  0  0  0
 14  2  1  0  0  0  0
 15 12  1  0  0  0  0
 16  8  1  0  0  0  0
 17 25  1  0  0  0  0
 18  4  1  0  0  0  0
 19  6  1  0  0  0  0
 20 11  1  0  0  0  0
 20 18  1  0  0  0  0
 21 23  1  0  0  0  0
 22 24  1  0  0  0  0
 24 13  1  0  0  0  0
 25 14  1  0  0  0  0
 25  9  1  0  0  0  0
 26 21  2  0  0  0  0
 27  1  1  0  0  0  0
 28 17  1  0  0  0  0
 29 32  1  0  0  0  0
 29 28  1  0  0  0  0
 30 33  1  0  0  0  0
 32 31  2  0  0  0  0
 33 31  1  0  0  0  0
 34 30  2  0  0  0  0
 34 32  1  0  0  0  0
M  END
>  <MODEL>
1

>  <REMARK>
 VINA RESULT:      -8.2      0.000      0.000
  Name = 
  3 active torsions:
  status: ('A' for Active; 'I' for Inactive)
    1  A    between atoms: C_17  and  N_28
    2  A    between atoms: N_28  and  C_29
    3  A    between atoms: C_29  and  C_32
                            x       y       z     vdW  Elec       q    Type
                         _______ _______ _______ _____ _____    ______ ____

>  <TORSDO>
F 3

$$$$
=
 OpenBabel11122414203D

 34 40  0  0  1  0  0  0  0  0999 V2000
  161.9780  208.6390  149.5820 C   0  0  0  0  0  0  0  0  0  0  0  0
  161.9250  207.3150  147.4100 C   0  0  0  0  0  2  0  0  0  0  0  0
  161.5510  208.4030  155.9930 C   0  0  2  0  0  3  0  0  0  0  0  0
  161.6160  209.8240  151.6570 C   0  0  0  0  0  0  0  0  0  0  0  0
  160.6820  208.5410  153.5880 C   0  0  2  0  0  3  0  0  0  0  0  0
  159.4970  209.5810  155.4270 O   0  0  0  0  0  1  0  0  0  0  0  0
  161.1880  207.6580  157.2610 C   0  0  0  0  0  1  0  0  0  0  0  0
  162.3740  210.7430  155.2190 C   0  0  0  0  0  2  0  0  0  0  0  0
  161.0820  206.4250  149.4380 N   0  0  2  0  0  0  0  0  0  0  0  0
  160.9700  203.2610  149.9990 C   0  0  0  0  0  2  0  0  0  0  0  0
  161.4570  207.2840  153.1760 C   0  0  0  0  0  2  0  0  0  0  0  0
  162.6930  210.0990  153.8810 C   0  0  0  0  0  2  0  0  0  0  0  0
  161.4330  206.0420  150.8280 C   0  0  1  0  0  3  0  0  0  0  0  0
  161.5440  205.8780  147.1290 C   0  0  0  0  0  2  0  0  0  0  0  0
  161.3860  209.8360  153.1380 C   0  0  1  0  0  3  0  0  0  0  0  0
  162.2230  209.7340  156.3590 C   0  0  0  0  0  2  0  0  0  0  0  0
  161.7200  204.0300  148.8940 C   0  0  2  0  0  3  0  0  0  0  0  0
  161.8080  208.6150  150.9710 C   0  0  0  0  0  0  0  0  0  0  0  0
  160.3220  208.5070  155.0800 C   0  0  2  0  0  3  0  0  0  0  0  0
  161.8490  207.2790  151.6880 C   0  0  1  0  0  3  0  0  0  0  0  0
  161.8360  211.0050  149.5590 C   0  0  0  0  0  3  0  0  0  0  0  0
  159.8280  204.0420  150.6530 C   0  0  0  0  0  2  0  0  0  0  0  0
  161.6380  211.0270  150.9440 C   0  0  0  0  0  3  0  0  0  0  0  0
  160.3150  205.2230  151.4920 C   0  0  0  0  0  2  0  0  0  0  0  0
  161.0000  205.3290  148.4520 C   0  0  1  0  0  3  0  0  0  0  0  0
  161.9970  209.8210  148.9080 N   0  0  0  0  0  0  0  0  0  0  0  0
  162.1050  207.3150  148.9030 C   0  0  2  0  0  3  0  0  0  0  0  0
  161.9260  203.1380  147.7640 N   0  0  0  0  0  2  0  0  0  0  0  0
  161.2060  201.9100  148.0560 C   0  0  0  0  0  2  0  0  0  0  0  0
  160.1970  200.6610  144.7950 N   0  0  0  0  0  0  0  0  0  0  0  0
  161.2330  199.8570  146.5340 C   0  0  0  0  0  3  0  0  0  0  0  0
  160.9340  201.1750  146.7930 C   0  0  0  0  0  0  0  0  0  0  0  0
  160.7720  199.5790  145.3000 N   0  0  0  0  0  0  0  0  0  0  0  0
  160.2710  201.6630  145.6910 C   0  0  0  0  0  2  0  0  0  0  0  0
  1 18  1  0  0  0  0
  2 27  1  0  0  0  0
  3 16  1  0  0  0  0
  3  7  1  1  0  0  0
  4 15  1  0  0  0  0
  5 11  1  1  0  0  0
  5 19  1  0  0  0  0
  8 16  1  0  0  0  0
  9 13  1  0  0  0  0
 10 22  1  0  0  0  0
 12  8  1  0  0  0  0
 13 24  1  0  0  0  0
 13 20  1  0  0  0  0
 14  2  1  0  0  0  0
 14 25  1  0  0  0  0
 15  5  1  0  0  0  0
 15 12  1  0  0  0  0
 17 10  1  0  0  0  0
 18  4  2  0  0  0  0
 18 20  1  0  0  0  0
 19  6  1  0  0  0  0
 19  3  1  0  0  0  0
 20 11  1  0  0  0  0
 21 23  2  0  0  0  0
 22 24  1  0  0  0  0
 23  4  1  0  0  0  0
 25 17  1  0  0  0  0
 25  9  1  0  0  0  0
 26 21  1  0  0  0  0
 26  1  2  0  0  0  0
 27  9  1  0  0  0  0
 27  1  1  0  0  0  0
 28 29  1  0  0  0  0
 28 17  1  0  0  0  0
 30 33  2  0  0  0  0
 30 34  1  0  0  0  0
 31 32  2  0  0  0  0
 32 29  1  0  0  0  0
 33 31  1  0  0  0  0
 34 32  1  0  0  0  0
M  END
>  <MODEL>
2

>  <REMARK>
 VINA RESULT:      -8.0      2.782      5.056
  Name = 
  3 active torsions:
  status: ('A' for Active; 'I' for Inactive)
    1  A    between atoms: C_17  and  N_28
    2  A    between atoms: N_28  and  C_29
    3  A    between atoms: C_29  and  C_32
                            x       y       z     vdW  Elec       q    Type
                         _______ _______ _______ _____ _____    ______ ____

>  <TORSDO>
F 3

$$$$
=
 OpenBabel11122414203D

 34 40  0  0  1  0  0  0  0  0999 V2000
  160.7470  207.9140  154.8200 C   0  0  0  0  0  0  0  0  0  0  0  0
  161.9570  205.8780  153.8910 C   0  0  0  0  0  2  0  0  0  0  0  0
  157.6410  213.3720  153.4400 C   0  0  2  0  0  3  0  0  0  0  0  0
  159.9380  210.0600  155.5810 C   0  0  0  0  0  0  0  0  0  0  0  0
  159.6720  211.8780  153.8860 C   0  0  2  0  0  3  0  0  0  0  0  0
  159.6820  214.2330  154.4490 O   0  0  0  0  0  1  0  0  0  0  0  0
  157.2570  214.4530  152.4520 C   0  0  0  0  0  1  0  0  0  0  0  0
  157.3810  212.7850  155.9580 C   0  0  0  0  0  2  0  0  0  0  0  0
  161.5660  207.8090  152.5740 N   0  0  2  0  0  0  0  0  0  0  0  0
  161.3390  207.6740  149.3700 C   0  0  0  0  0  2  0  0  0  0  0  0
  159.2360  210.8680  152.8170 C   0  0  0  0  0  2  0  0  0  0  0  0
  157.8320  211.3810  155.5950 C   0  0  0  0  0  2  0  0  0  0  0  0
  160.5170  208.6890  152.0030 C   0  0  1  0  0  3  0  0  0  0  0  0
  162.4220  205.5500  152.4890 C   0  0  0  0  0  2  0  0  0  0  0  0
  159.3310  211.4040  155.3120 C   0  0  1  0  0  3  0  0  0  0  0  0
  156.8860  213.5950  154.7570 C   0  0  0  0  0  2  0  0  0  0  0  0
  161.3090  206.5280  150.3990 C   0  0  2  0  0  3  0  0  0  0  0  0
  160.1400  209.1430  154.5390 C   0  0  0  0  0  0  0  0  0  0  0  0
  159.1700  213.2890  153.5550 C   0  0  2  0  0  3  0  0  0  0  0  0
  159.7110  209.4350  153.1130 C   0  0  1  0  0  3  0  0  0  0  0  0
  160.8930  208.4610  157.1220 C   0  0  0  0  0  3  0  0  0  0  0  0
  161.9510  208.9770  149.8880 C   0  0  0  0  0  2  0  0  0  0  0  0
  160.3120  209.7110  156.8830 C   0  0  0  0  0  3  0  0  0  0  0  0
  161.0950  209.6560  150.9570 C   0  0  0  0  0  2  0  0  0  0  0  0
  162.1610  206.8120  151.6620 C   0  0  1  0  0  3  0  0  0  0  0  0
  161.1030  207.5940  156.0940 N   0  0  0  0  0  0  0  0  0  0  0  0
  161.0000  207.0130  153.6560 C   0  0  2  0  0  3  0  0  0  0  0  0
  161.7410  205.3020  149.7450 N   0  0  0  0  0  2  0  0  0  0  0  0
  160.6010  204.4020  149.7350 C   0  0  0  0  0  2  0  0  0  0  0  0
  161.3560  201.1040  148.4040 N   0  0  0  0  0  0  0  0  0  0  0  0
  161.3310  203.1420  147.6350 C   0  0  0  0  0  3  0  0  0  0  0  0
  160.9300  203.1830  148.9510 C   0  0  0  0  0  0  0  0  0  0  0  0
  161.5770  201.8530  147.3340 N   0  0  0  0  0  0  0  0  0  0  0  0
  160.9630  201.8910  149.4230 C   0  0  0  0  0  2  0  0  0  0  0  0
  1 26  1  0  0  0  0
  3  7  1  6  0  0  0
  3 19  1  0  0  0  0
  3 16  1  0  0  0  0
  4 23  2  0  0  0  0
  5 11  1  6  0  0  0
  5 15  1  0  0  0  0
  9 27  1  0  0  0  0
 10 22  1  0  0  0  0
 10 17  1  0  0  0  0
 11 20  1  0  0  0  0
 12  8  1  0  0  0  0
 13  9  1  0  0  0  0
 13 20  1  0  0  0  0
 14  2  1  0  0  0  0
 15  4  1  0  0  0  0
 15 12  1  0  0  0  0
 16  8  1  0  0  0  0
 17 25  1  0  0  0  0
 18  1  2  0  0  0  0
 18  4  1  0  0  0  0
 19  5  1  0  0  0  0
 19  6  1  0  0  0  0
 20 18  1  0  0  0  0
 22 24  1  0  0  0  0
 23 21  1  0  0  0  0
 24 13  1  0  0  0  0
 25 14  1  0  0  0  0
 25  9  1  0  0  0  0
 26 21  2  0  0  0  0
 27  2  1  0  0  0  0
 27  1  1  0  0  0  0
 28 17  1  0  0  0  0
 29 28  1  0  0  0  0
 30 34  1  0  0  0  0
 31 32  2  0  0  0  0
 32 34  1  0  0  0  0
 32 29  1  0  0  0  0
 33 31  1  0  0  0  0
 33 30  2  0  0  0  0
M  END
>  <MODEL>
3

>  <REMARK>
 VINA RESULT:      -6.4      1.096      1.407
  Name = 
  3 active torsions:
  status: ('A' for Active; 'I' for Inactive)
    1  A    between atoms: C_17  and  N_28
    2  A    between atoms: N_28  and  C_29
    3  A    between atoms: C_29  and  C_32
                            x       y       z     vdW  Elec       q    Type
                         _______ _______ _______ _____ _____    ______ ____

>  <TORSDO>
F 3

$$$$
=
 OpenBabel11122414203D

 34 40  0  0  1  0  0  0  0  0999 V2000
  161.2380  207.7880  151.7480 C   0  0  0  0  0  0  0  0  0  0  0  0
  161.1230  205.2780  152.1460 C   0  0  0  0  0  2  0  0  0  0  0  0
  161.5510  212.4940  147.3780 C   0  0  2  0  0  3  0  0  0  0  0  0
  161.7440  210.1000  151.2580 C   0  0  0  0  0  0  0  0  0  0  0  0
  162.4590  210.6730  148.9320 C   0  0  2  0  0  3  0  0  0  0  0  0
  163.7610  212.6410  148.3880 O   0  0  0  0  0  1  0  0  0  0  0  0
  161.7860  212.9530  145.9540 C   0  0  0  0  0  1  0  0  0  0  0  0
  161.0870  213.4710  149.7400 C   0  0  0  0  0  2  0  0  0  0  0  0
  161.8040  206.1840  150.0650 N   0  0  2  0  0  0  0  0  0  0  0  0
  161.4480  204.5760  147.3040 C   0  0  0  0  0  2  0  0  0  0  0  0
  161.5140  209.6180  148.3430 C   0  0  0  0  0  2  0  0  0  0  0  0
  160.6930  212.0650  150.1570 C   0  0  0  0  0  2  0  0  0  0  0  0
  161.3840  207.0290  148.9210 C   0  0  1  0  0  3  0  0  0  0  0  0
  161.2950  204.1100  151.1990 C   0  0  0  0  0  2  0  0  0  0  0  0
  161.9560  211.2190  150.2840 C   0  0  1  0  0  3  0  0  0  0  0  0
  161.0760  213.6820  148.2250 C   0  0  0  0  0  2  0  0  0  0  0  0
  160.8310  204.2890  148.6860 C   0  0  2  0  0  3  0  0  0  0  0  0
  161.3870  208.8180  150.8130 C   0  0  0  0  0  0  0  0  0  0  0  0
  162.7930  211.7590  147.9010 C   0  0  2  0  0  3  0  0  0  0  0  0
  161.1440  208.5130  149.3470 C   0  0  1  0  0  3  0  0  0  0  0  0
  161.7240  209.2740  153.5300 C   0  0  0  0  0  3  0  0  0  0  0  0
  162.6840  205.4780  147.3350 C   0  0  0  0  0  2  0  0  0  0  0  0
  161.9060  210.3280  152.6290 C   0  0  0  0  0  3  0  0  0  0  0  0
  162.3640  206.9160  147.7420 C   0  0  0  0  0  2  0  0  0  0  0  0
  161.7370  204.7220  149.8660 C   0  0  1  0  0  3  0  0  0  0  0  0
  161.3990  208.0320  153.0770 N   0  0  0  0  0  0  0  0  0  0  0  0
  160.9280  206.4330  151.2030 C   0  0  2  0  0  3  0  0  0  0  0  0
  160.5110  202.8720  148.7680 N   0  0  0  0  0  2  0  0  0  0  0  0
  161.6520  202.1480  148.2330 C   0  0  0  0  0  2  0  0  0  0  0  0
  160.9650  199.5160  145.8220 N   0  0  0  0  0  0  0  0  0  0  0  0
  160.4560  201.6220  146.0360 C   0  0  0  0  0  3  0  0  0  0  0  0
  161.2070  201.2560  147.1300 C   0  0  0  0  0  0  0  0  0  0  0  0
  160.3240  200.5300  145.2610 N   0  0  0  0  0  0  0  0  0  0  0  0
  161.5280  199.9280  146.9730 C   0  0  0  0  0  2  0  0  0  0  0  0
  1 26  1  0  0  0  0
  3  7  1  6  0  0  0
  3 19  1  0  0  0  0
  3 16  1  0  0  0  0
  4 23  2  0  0  0  0
  5 11  1  6  0  0  0
  5 15  1  0  0  0  0
  8 12  1  0  0  0  0
  9 27  1  0  0  0  0
 10 22  1  0  0  0  0
 10 17  1  0  0  0  0
 11 20  1  0  0  0  0
 12 15  1  0  0  0  0
 13 20  1  0  0  0  0
 13  9  1  0  0  0  0
 14  2  1  0  0  0  0
 15  4  1  0  0  0  0
 16  8  1  0  0  0  0
 17 28  1  0  0  0  0
 17 25  1  0  0  0  0
 18  4  1  0  0  0  0
 18  1  2  0  0  0  0
 19  6  1  0  0  0  0
 19  5  1  0  0  0  0
 20 18  1  0  0  0  0
 22 24  1  0  0  0  0
 23 21  1  0  0  0  0
 24 13  1  0  0  0  0
 25  9  1  0  0  0  0
 25 14  1  0  0  0  0
 26 21  2  0  0  0  0
 27  1  1  0  0  0  0
 27  2  1  0  0  0  0
 29 28  1  0  0  0  0
 30 34  1  0  0  0  0
 31 32  2  0  0  0  0
 32 29  1  0  0  0  0
 33 30  2  0  0  0  0
 33 31  1  0  0  0  0
 34 32  1  0  0  0  0
M  END
>  <MODEL>
4

>  <REMARK>
 VINA RESULT:      -6.1      3.233      5.194
  Name = 
  3 active torsions:
  status: ('A' for Active; 'I' for Inactive)
    1  A    between atoms: C_17  and  N_28
    2  A    between atoms: N_28  and  C_29
    3  A    between atoms: C_29  and  C_32
                            x       y       z     vdW  Elec       q    Type
                         _______ _______ _______ _____ _____    ______ ____

>  <TORSDO>
F 3

$$$$
=
 OpenBabel11122414203D

 34 40  0  0  1  0  0  0  0  0999 V2000
  160.5960  210.9910  152.0360 C   0  0  0  0  0  0  0  0  0  0  0  0
  160.0030  212.9790  153.5090 C   0  0  0  0  0  2  0  0  0  0  0  0
  161.1720  204.5980  151.6720 C   0  0  2  0  0  3  0  0  0  0  0  0
  161.5040  209.0780  150.8720 C   0  0  0  0  0  0  0  0  0  0  0  0
  161.9130  206.9940  152.1890 C   0  0  2  0  0  3  0  0  0  0  0  0
  163.5010  205.2900  151.5240 O   0  0  0  0  0  1  0  0  0  0  0  0
  161.2520  203.2440  152.3460 C   0  0  0  0  0  1  0  0  0  0  0  0
  161.3500  205.6660  149.3100 C   0  0  0  0  0  2  0  0  0  0  0  0
  160.4950  210.8490  154.4230 N   0  0  2  0  0  0  0  0  0  0  0  0
  159.3220  209.8950  157.2610 C   0  0  0  0  0  2  0  0  0  0  0  0
  160.6720  207.2520  153.0530 C   0  0  0  0  0  2  0  0  0  0  0  0
  160.7360  206.9150  149.9170 C   0  0  0  0  0  2  0  0  0  0  0  0
  160.0800  209.4250  154.4600 C   0  0  1  0  0  3  0  0  0  0  0  0
  159.7480  213.0750  154.9980 C   0  0  0  0  0  2  0  0  0  0  0  0
  161.7840  207.6080  150.7820 C   0  0  1  0  0  3  0  0  0  0  0  0
  161.1230  204.4070  150.1500 C   0  0  0  0  0  2  0  0  0  0  0  0
  158.9060  211.0940  156.3860 C   0  0  2  0  0  3  0  0  0  0  0  0
  160.8020  209.6090  151.9650 C   0  0  0  0  0  0  0  0  0  0  0  0
  162.2940  205.5070  152.1930 C   0  0  2  0  0  3  0  0  0  0  0  0
  160.2480  208.7310  153.0700 C   0  0  1  0  0  3  0  0  0  0  0  0
  161.6970  211.3090  149.9610 C   0  0  0  0  0  3  0  0  0  0  0  0
  160.7120  209.3350  156.9500 C   0  0  0  0  0  2  0  0  0  0  0  0
  161.9470  209.9360  149.8600 C   0  0  0  0  0  3  0  0  0  0  0  0
  160.7910  208.6550  155.5840 C   0  0  0  0  0  2  0  0  0  0  0  0
  160.0760  211.6890  155.5620 C   0  0  1  0  0  3  0  0  0  0  0  0
  161.0340  211.8080  151.0400 N   0  0  0  0  0  0  0  0  0  0  0  0
  159.9060  211.5000  153.2590 C   0  0  2  0  0  3  0  0  0  0  0  0
  158.3020  212.1050  157.2390 N   0  0  0  0  0  2  0  0  0  0  0  0
  156.8610  211.9530  157.1220 C   0  0  0  0  0  2  0  0  0  0  0  0
  155.6450  213.2900  153.9670 N   0  0  0  0  0  0  0  0  0  0  0  0
  156.2920  214.1120  155.8780 C   0  0  0  0  0  3  0  0  0  0  0  0
  156.3670  212.7400  155.9610 C   0  0  0  0  0  0  0  0  0  0  0  0
  155.8420  214.4110  154.6450 N   0  0  0  0  0  0  0  0  0  0  0  0
  155.9660  212.2390  154.7450 C   0  0  0  0  0  2  0  0  0  0  0  0
  1 27  1  0  0  0  0
  2 14  1  0  0  0  0
  3 19  1  0  0  0  0
  3  7  1  1  0  0  0
  4 18  2  0  0  0  0
  5 19  1  0  0  0  0
  5 11  1  6  0  0  0
  6 19  1  0  0  0  0
  8 12  1  0  0  0  0
  8 16  1  0  0  0  0
  9 13  1  0  0  0  0
  9 25  1  0  0  0  0
 11 20  1  0  0  0  0
 12 15  1  0  0  0  0
 13 24  1  0  0  0  0
 14 25  1  0  0  0  0
 15  4  1  0  0  0  0
 15  5  1  0  0  0  0
 16  3  1  0  0  0  0
 17 28  1  0  0  0  0
 17 10  1  0  0  0  0
 18  1  1  0  0  0  0
 18 20  1  0  0  0  0
 20 13  1  0  0  0  0
 21 26  1  0  0  0  0
 22 10  1  0  0  0  0
 23 21  2  0  0  0  0
 23  4  1  0  0  0  0
 24 22  1  0  0  0  0
 25 17  1  0  0  0  0
 26  1  2  0  0  0  0
 27  2  1  0  0  0  0
 27  9  1  0  0  0  0
 29 28  1  0  0  0  0
 30 33  2  0  0  0  0
 30 34  1  0  0  0  0
 31 32  2  0  0  0  0
 32 29  1  0  0  0  0
 33 31  1  0  0  0  0
 34 32  1  0  0  0  0
M  END
>  <MODEL>
5

>  <REMARK>
 VINA RESULT:      -5.5      3.380      8.590
  Name = 
  3 active torsions:
  status: ('A' for Active; 'I' for Inactive)
    1  A    between atoms: C_17  and  N_28
    2  A    between atoms: N_28  and  C_29
    3  A    between atoms: C_29  and  C_32
                            x       y       z     vdW  Elec       q    Type
                         _______ _______ _______ _____ _____    ______ ____

>  <TORSDO>
F 3

$$$$
