=
 OpenBabel11122414133D

 28 32  0  0  1  0  0  0  0  0999 V2000
  157.7850  212.3190  139.4110 C   0  0  0  0  0  0  0  0  0  0  0  0
  159.5000  209.5600  139.3020 F   0  0  0  0  0  0  0  0  0  0  0  0
  163.5080  214.4530  137.9430 C   0  0  0  0  0  1  0  0  0  0  0  0
  156.0350  212.6350  137.2360 C   0  0  0  0  0  3  0  0  0  0  0  0
  163.0890  212.0210  138.2610 C   0  0  2  0  0  3  0  0  0  0  0  0
  158.6430  212.1850  140.6350 C   0  0  0  0  0  2  0  0  0  0  0  0
  157.9680  209.1080  137.5660 C   0  0  0  0  0  1  0  0  0  0  0  0
  159.4240  209.3090  137.9420 C   0  0  1  0  0  0  0  0  0  0  0  0
  161.5510  208.0220  137.5400 C   0  0  0  0  0  0  0  0  0  0  0  0
  160.0230  210.4840  137.1200 C   0  0  2  0  0  3  0  0  0  0  0  0
  161.2820  213.7860  141.7670 O   0  0  0  0  0  0  0  0  0  0  0  0
  160.7930  212.1250  138.7170 C   0  0  1  0  0  3  0  0  0  0  0  0
  162.2880  209.2060  137.0110 C   0  0  0  0  0  2  0  0  0  0  0  0
  160.1330  208.0680  137.6690 N   0  0  0  0  0  2  0  0  0  0  0  0
  160.3710  213.9430  140.9140 C   0  0  0  0  0  0  0  0  0  0  0  0
  158.2740  212.1750  138.0810 C   0  0  0  0  0  0  0  0  0  0  0  0
  162.7880  213.4140  138.7800 C   0  0  2  0  0  3  0  0  0  0  0  0
  162.1480  206.8770  137.5620 N   0  0  0  0  0  2  0  0  0  0  0  0
  160.6900  214.4050  139.5990 N   0  0  0  0  0  2  0  0  0  0  0  0
  157.3820  212.3440  137.0120 C   0  0  0  0  0  3  0  0  0  0  0  0
  156.4290  212.6090  139.6170 C   0  0  0  0  0  3  0  0  0  0  0  0
  155.5590  212.7650  138.5390 C   0  0  0  0  0  3  0  0  0  0  0  0
  158.9690  213.5490  141.2380 C   0  0  0  0  0  2  0  0  0  0  0  0
  161.8990  211.1960  138.4690 N   0  0  1  0  0  0  0  0  0  0  0  0
  161.3020  213.5430  138.5930 C   0  0  2  0  0  3  0  0  0  0  0  0
  161.5500  210.5330  137.2130 C   0  0  2  0  0  3  0  0  0  0  0  0
  164.2620  211.4300  139.0220 C   0  0  0  0  0  1  0  0  0  0  0  0
  159.7050  211.8570  137.6980 C   0  0  2  0  0  3  0  0  0  0  0  0
  1 21  1  0  0  0  0
  1  6  1  0  0  0  0
  3 17  1  0  0  0  0
  4 22  1  0  0  0  0
  5 24  1  0  0  0  0
  5 17  1  0  0  0  0
  5 27  1  1  0  0  0
  6 23  1  0  0  0  0
  8  7  1  6  0  0  0
  8  2  1  0  0  0  0
  9 18  2  0  0  0  0
  9 14  1  0  0  0  0
 10 26  1  0  0  0  0
 10 28  1  0  0  0  0
 10  8  1  0  0  0  0
 13 26  1  0  0  0  0
 13  9  1  0  0  0  0
 14  8  1  0  0  0  0
 15 23  1  0  0  0  0
 15 11  2  0  0  0  0
 16  1  2  0  0  0  0
 19 15  1  0  0  0  0
 20  4  2  0  0  0  0
 20 16  1  0  0  0  0
 22 21  2  0  0  0  0
 24 12  1  0  0  0  0
 25 12  1  0  0  0  0
 25 17  1  0  0  0  0
 25 19  1  0  0  0  0
 26 24  1  0  0  0  0
 28 16  1  0  0  0  0
 28 12  1  0  0  0  0
M  END
>  <MODEL>
1

>  <REMARK>
 VINA RESULT:      -4.5      0.000      0.000
  Name = 
  0 active torsions:
  status: ('A' for Active; 'I' for Inactive)
                            x       y       z     vdW  Elec       q    Type
                         _______ _______ _______ _____ _____    ______ ____

>  <TORSDO>
F 0

$$$$
=
 OpenBabel11122414133D

 28 32  0  0  1  0  0  0  0  0999 V2000
  160.8610  209.0590  153.5030 C   0  0  0  0  0  0  0  0  0  0  0  0
  158.2980  210.8410  152.5950 F   0  0  0  0  0  0  0  0  0  0  0  0
  163.2020  212.2270  148.6090 C   0  0  0  0  0  1  0  0  0  0  0  0
  162.0440  209.9390  155.8940 C   0  0  0  0  0  3  0  0  0  0  0  0
  160.8480  212.5610  149.3460 C   0  0  2  0  0  3  0  0  0  0  0  0
  160.2390  208.4910  152.2600 C   0  0  0  0  0  2  0  0  0  0  0  0
  158.5960  211.7090  154.7680 C   0  0  0  0  0  1  0  0  0  0  0  0
  158.5900  212.0080  153.2810 C   0  0  1  0  0  0  0  0  0  0  0  0
  157.4840  213.7430  151.8280 C   0  0  0  0  0  0  0  0  0  0  0  0
  159.9690  212.5810  152.8520 C   0  0  2  0  0  3  0  0  0  0  0  0
  161.1950  208.2600  149.1230 O   0  0  0  0  0  0  0  0  0  0  0  0
  160.8470  211.0870  151.1680 C   0  0  1  0  0  3  0  0  0  0  0  0
  158.7550  214.1360  151.1530 C   0  0  0  0  0  2  0  0  0  0  0  0
  157.5250  212.9660  153.0210 N   0  0  0  0  0  2  0  0  0  0  0  0
  161.6980  208.4900  150.2540 C   0  0  0  0  0  0  0  0  0  0  0  0
  161.2200  210.4290  153.6540 C   0  0  0  0  0  0  0  0  0  0  0  0
  161.9460  211.5410  149.1110 C   0  0  2  0  0  3  0  0  0  0  0  0
  156.3990  214.3740  151.5260 N   0  0  0  0  0  2  0  0  0  0  0  0
  162.6170  209.5720  150.4240 N   0  0  0  0  0  2  0  0  0  0  0  0
  161.8160  210.8410  154.8540 C   0  0  0  0  0  3  0  0  0  0  0  0
  161.0940  208.1670  154.5580 C   0  0  0  0  0  3  0  0  0  0  0  0
  161.6800  208.6020  155.7470 C   0  0  0  0  0  3  0  0  0  0  0  0
  161.2570  207.7010  151.4410 C   0  0  0  0  0  2  0  0  0  0  0  0
  160.0470  212.1070  150.4820 N   0  0  1  0  0  0  0  0  0  0  0  0
  162.1860  210.9650  150.4780 C   0  0  2  0  0  3  0  0  0  0  0  0
  159.9280  213.1960  151.4510 C   0  0  2  0  0  3  0  0  0  0  0  0
  159.9720  212.6700  148.1110 C   0  0  0  0  0  1  0  0  0  0  0  0
  161.0260  211.5110  152.6110 C   0  0  2  0  0  3  0  0  0  0  0  0
  1 16  2  0  0  0  0
  1 21  1  0  0  0  0
  2  8  1  0  0  0  0
  3 17  1  0  0  0  0
  5 27  1  6  0  0  0
  5 24  1  0  0  0  0
  6  1  1  0  0  0  0
  8  7  1  1  0  0  0
  9 14  1  0  0  0  0
 10  8  1  0  0  0  0
 11 15  2  0  0  0  0
 12 28  1  0  0  0  0
 13 26  1  0  0  0  0
 13  9  1  0  0  0  0
 14  8  1  0  0  0  0
 15 19  1  0  0  0  0
 15 23  1  0  0  0  0
 16 20  1  0  0  0  0
 17  5  1  0  0  0  0
 17 25  1  0  0  0  0
 18  9  2  0  0  0  0
 19 25  1  0  0  0  0
 20  4  2  0  0  0  0
 21 22  2  0  0  0  0
 22  4  1  0  0  0  0
 23  6  1  0  0  0  0
 24 12  1  0  0  0  0
 24 26  1  0  0  0  0
 25 12  1  0  0  0  0
 26 10  1  0  0  0  0
 28 10  1  0  0  0  0
 28 16  1  0  0  0  0
M  END
>  <MODEL>
2

>  <REMARK>
 VINA RESULT:      -3.6     11.846     14.432
  Name = 
  0 active torsions:
  status: ('A' for Active; 'I' for Inactive)
                            x       y       z     vdW  Elec       q    Type
                         _______ _______ _______ _____ _____    ______ ____

>  <TORSDO>
F 0

$$$$
=
 OpenBabel11122414133D

 28 32  0  0  1  0  0  0  0  0999 V2000
  161.0930  209.5960  156.0610 C   0  0  0  0  0  0  0  0  0  0  0  0
  162.4900  210.4760  153.2610 F   0  0  0  0  0  0  0  0  0  0  0  0
  156.9140  213.7100  153.8090 C   0  0  0  0  0  1  0  0  0  0  0  0
  160.0300  206.9950  156.0110 C   0  0  0  0  0  3  0  0  0  0  0  0
  158.9880  213.1670  152.5450 C   0  0  2  0  0  3  0  0  0  0  0  0
  161.6980  210.9630  156.1830 C   0  0  0  0  0  2  0  0  0  0  0  0
  162.1890  208.1800  152.8140 C   0  0  0  0  0  1  0  0  0  0  0  0
  161.8410  209.5990  152.4080 C   0  0  1  0  0  0  0  0  0  0  0  0
  161.8730  210.8800  150.2390 C   0  0  0  0  0  0  0  0  0  0  0  0
  160.3010  209.8010  152.4620 C   0  0  2  0  0  3  0  0  0  0  0  0
  160.4610  213.9910  156.5230 O   0  0  0  0  0  0  0  0  0  0  0  0
  159.8900  211.5930  154.0290 C   0  0  1  0  0  3  0  0  0  0  0  0
  160.4680  211.3600  150.3850 C   0  0  0  0  0  2  0  0  0  0  0  0
  162.3470  209.8180  151.0620 N   0  0  0  0  0  2  0  0  0  0  0  0
  160.0880  212.7950  156.6410 C   0  0  0  0  0  0  0  0  0  0  0  0
  160.2160  209.2070  155.0070 C   0  0  0  0  0  0  0  0  0  0  0  0
  158.4020  213.4420  153.9180 C   0  0  2  0  0  3  0  0  0  0  0  0
  162.5300  211.1910  149.1720 N   0  0  0  0  0  2  0  0  0  0  0  0
  158.8360  212.3760  156.0920 N   0  0  0  0  0  2  0  0  0  0  0  0
  159.6930  207.9070  155.0090 C   0  0  0  0  0  3  0  0  0  0  0  0
  161.4220  208.6660  157.0570 C   0  0  0  0  0  3  0  0  0  0  0  0
  160.8970  207.3750  157.0330 C   0  0  0  0  0  3  0  0  0  0  0  0
  160.9970  211.7870  157.2610 C   0  0  0  0  0  2  0  0  0  0  0  0
  160.0690  212.1950  152.7040 N   0  0  1  0  0  0  0  0  0  0  0  0
  158.6400  212.1580  154.6620 C   0  0  2  0  0  3  0  0  0  0  0  0
  159.8640  211.0920  151.7660 C   0  0  2  0  0  3  0  0  0  0  0  0
  159.5350  214.4520  151.9520 C   0  0  0  0  0  1  0  0  0  0  0  0
  159.7720  210.0930  153.8600 C   0  0  2  0  0  3  0  0  0  0  0  0
  1  6  1  0  0  0  0
  1 21  1  0  0  0  0
  3 17  1  0  0  0  0
  4 22  1  0  0  0  0
  5 27  1  1  0  0  0
  5 24  1  0  0  0  0
  5 17  1  0  0  0  0
  6 23  1  0  0  0  0
  8 10  1  0  0  0  0
  8  7  1  1  0  0  0
  8  2  1  0  0  0  0
  9 13  1  0  0  0  0
  9 14  1  0  0  0  0
 10 28  1  0  0  0  0
 11 15  2  0  0  0  0
 12 25  1  0  0  0  0
 13 26  1  0  0  0  0
 14  8  1  0  0  0  0
 15 23  1  0  0  0  0
 16 20  1  0  0  0  0
 16  1  2  0  0  0  0
 17 25  1  0  0  0  0
 18  9  2  0  0  0  0
 19 15  1  0  0  0  0
 20  4  2  0  0  0  0
 22 21  2  0  0  0  0
 24 12  1  0  0  0  0
 25 19  1  0  0  0  0
 26 10  1  0  0  0  0
 26 24  1  0  0  0  0
 28 12  1  0  0  0  0
 28 16  1  0  0  0  0
M  END
>  <MODEL>
3

>  <REMARK>
 VINA RESULT:      -2.9     13.686     15.935
  Name = 
  0 active torsions:
  status: ('A' for Active; 'I' for Inactive)
                            x       y       z     vdW  Elec       q    Type
                         _______ _______ _______ _____ _____    ______ ____

>  <TORSDO>
F 0

$$$$
=
 OpenBabel11122414133D

 28 32  0  0  1  0  0  0  0  0999 V2000
  161.1700  209.4300  155.2640 C   0  0  0  0  0  0  0  0  0  0  0  0
  158.1150  210.5400  155.2180 F   0  0  0  0  0  0  0  0  0  0  0  0
  161.1960  212.9710  150.0760 C   0  0  0  0  0  1  0  0  0  0  0  0
  162.7580  210.6090  157.2610 C   0  0  0  0  0  3  0  0  0  0  0  0
  159.1460  212.7540  151.4700 C   0  0  2  0  0  3  0  0  0  0  0  0
  160.3650  208.7090  154.2240 C   0  0  0  0  0  2  0  0  0  0  0  0
  158.8200  211.4930  157.2570 C   0  0  0  0  0  1  0  0  0  0  0  0
  158.3140  211.7550  155.8510 C   0  0  1  0  0  0  0  0  0  0  0  0
  156.4660  213.1530  154.8660 C   0  0  0  0  0  0  0  0  0  0  0  0
  159.3390  212.6300  155.0770 C   0  0  2  0  0  3  0  0  0  0  0  0
  160.3990  208.6530  150.9360 O   0  0  0  0  0  0  0  0  0  0  0  0
  160.0130  211.3550  153.1380 C   0  0  1  0  0  3  0  0  0  0  0  0
  157.3610  213.8220  153.8770 C   0  0  0  0  0  2  0  0  0  0  0  0
  157.0290  212.4290  155.9550 N   0  0  0  0  0  2  0  0  0  0  0  0
  161.1400  209.0160  151.8870 C   0  0  0  0  0  0  0  0  0  0  0  0
  161.2310  210.8490  155.3770 C   0  0  0  0  0  0  0  0  0  0  0  0
  160.3340  212.0170  150.8790 C   0  0  2  0  0  3  0  0  0  0  0  0
  155.2250  213.5040  154.9180 N   0  0  0  0  0  2  0  0  0  0  0  0
  161.7930  210.2870  151.8430 N   0  0  0  0  0  2  0  0  0  0  0  0
  162.0360  211.4130  156.3770 C   0  0  0  0  0  3  0  0  0  0  0  0
  161.8990  208.6380  156.1620 C   0  0  0  0  0  3  0  0  0  0  0  0
  162.6870  209.2210  157.1540 C   0  0  0  0  0  3  0  0  0  0  0  0
  161.2560  208.1670  153.1080 C   0  0  0  0  0  2  0  0  0  0  0  0
  158.8360  212.1440  152.7620 N   0  0  1  0  0  0  0  0  0  0  0  0
  161.0850  211.5400  152.0890 C   0  0  2  0  0  3  0  0  0  0  0  0
  158.7530  213.1910  153.7790 C   0  0  2  0  0  3  0  0  0  0  0  0
  157.9500  212.6300  150.5430 C   0  0  0  0  0  1  0  0  0  0  0  0
  160.4990  211.8350  154.4890 C   0  0  2  0  0  3  0  0  0  0  0  0
  1 16  2  0  0  0  0
  1 21  1  0  0  0  0
  2  8  1  0  0  0  0
  3 17  1  0  0  0  0
  5 27  1  6  0  0  0
  5 24  1  0  0  0  0
  6  1  1  0  0  0  0
  8 14  1  0  0  0  0
  8  7  1  1  0  0  0
  9 18  2  0  0  0  0
  9 14  1  0  0  0  0
 10  8  1  0  0  0  0
 11 15  2  0  0  0  0
 12 28  1  0  0  0  0
 13  9  1  0  0  0  0
 15 23  1  0  0  0  0
 16 20  1  0  0  0  0
 17  5  1  0  0  0  0
 17 25  1  0  0  0  0
 19 15  1  0  0  0  0
 19 25  1  0  0  0  0
 20  4  2  0  0  0  0
 21 22  2  0  0  0  0
 22  4  1  0  0  0  0
 23  6  1  0  0  0  0
 24 12  1  0  0  0  0
 24 26  1  0  0  0  0
 25 12  1  0  0  0  0
 26 13  1  0  0  0  0
 26 10  1  0  0  0  0
 28 10  1  0  0  0  0
 28 16  1  0  0  0  0
M  END
>  <MODEL>
4

>  <REMARK>
 VINA RESULT:      -2.6     13.735     16.429
  Name = 
  0 active torsions:
  status: ('A' for Active; 'I' for Inactive)
                            x       y       z     vdW  Elec       q    Type
                         _______ _______ _______ _____ _____    ______ ____

>  <TORSDO>
F 0

$$$$
=
 OpenBabel11122414133D

 28 32  0  0  1  0  0  0  0  0999 V2000
  160.4350  211.1470  151.3870 C   0  0  0  0  0  0  0  0  0  0  0  0
  159.7360  207.9780  151.5790 F   0  0  0  0  0  0  0  0  0  0  0  0
  162.6280  209.7210  157.0980 C   0  0  0  0  0  1  0  0  0  0  0  0
  162.5580  211.7190  149.6380 C   0  0  0  0  0  3  0  0  0  0  0  0
  161.5690  207.9860  155.6610 C   0  0  2  0  0  3  0  0  0  0  0  0
  159.2500  210.9230  152.2800 C   0  0  0  0  0  2  0  0  0  0  0  0
  161.2110  207.9160  149.7400 C   0  0  0  0  0  1  0  0  0  0  0  0
  160.9510  207.4610  151.1630 C   0  0  1  0  0  0  0  0  0  0  0  0
  160.9920  205.2370  152.3460 C   0  0  0  0  0  0  0  0  0  0  0  0
  162.1080  207.9320  152.0870 C   0  0  2  0  0  3  0  0  0  0  0  0
  158.7300  211.2390  155.5110 O   0  0  0  0  0  0  0  0  0  0  0  0
  161.1100  209.3230  153.7920 C   0  0  1  0  0  3  0  0  0  0  0  0
  161.8760  205.7230  153.4450 C   0  0  0  0  0  2  0  0  0  0  0  0
  160.8490  206.0090  151.1570 N   0  0  0  0  0  2  0  0  0  0  0  0
  159.5670  211.6030  154.6450 C   0  0  0  0  0  0  0  0  0  0  0  0
  161.6690  210.4460  151.5150 C   0  0  0  0  0  0  0  0  0  0  0  0
  161.4950  209.4260  156.1340 C   0  0  2  0  0  3  0  0  0  0  0  0
  160.6350  203.9970  152.3380 N   0  0  0  0  0  2  0  0  0  0  0  0
  160.9680  211.4940  154.9110 N   0  0  0  0  0  2  0  0  0  0  0  0
  162.7150  210.7550  150.6350 C   0  0  0  0  0  3  0  0  0  0  0  0
  160.2940  212.1090  150.3770 C   0  0  0  0  0  3  0  0  0  0  0  0
  161.3470  212.3940  149.5080 C   0  0  0  0  0  3  0  0  0  0  0  0
  159.1030  212.0500  153.2990 C   0  0  0  0  0  2  0  0  0  0  0  0
  161.0900  207.9410  154.2800 N   0  0  1  0  0  0  0  0  0  0  0  0
  161.6760  210.2190  154.8700 C   0  0  2  0  0  3  0  0  0  0  0  0
  162.0720  207.2430  153.4530 C   0  0  2  0  0  3  0  0  0  0  0  0
  160.6940  207.1100  156.5370 C   0  0  0  0  0  1  0  0  0  0  0  0
  161.9710  209.3780  152.5470 C   0  0  2  0  0  3  0  0  0  0  0  0
  1 16  1  0  0  0  0
  1  6  1  0  0  0  0
  4 20  1  0  0  0  0
  5 17  1  0  0  0  0
  5 27  1  1  0  0  0
  6 23  1  0  0  0  0
  8  7  1  6  0  0  0
  8  2  1  0  0  0  0
  8 10  1  0  0  0  0
  9 13  1  0  0  0  0
 10 28  1  0  0  0  0
 10 26  1  0  0  0  0
 12 24  1  0  0  0  0
 12 25  1  0  0  0  0
 13 26  1  0  0  0  0
 14  8  1  0  0  0  0
 14  9  1  0  0  0  0
 15 19  1  0  0  0  0
 15 11  2  0  0  0  0
 16 28  1  0  0  0  0
 17  3  1  0  0  0  0
 18  9  2  0  0  0  0
 20 16  2  0  0  0  0
 21  1  2  0  0  0  0
 22  4  2  0  0  0  0
 22 21  1  0  0  0  0
 23 15  1  0  0  0  0
 24  5  1  0  0  0  0
 25 19  1  0  0  0  0
 25 17  1  0  0  0  0
 26 24  1  0  0  0  0
 28 12  1  0  0  0  0
M  END
>  <MODEL>
5

>  <REMARK>
 VINA RESULT:      -2.2     13.260     14.967
  Name = 
  0 active torsions:
  status: ('A' for Active; 'I' for Inactive)
                            x       y       z     vdW  Elec       q    Type
                         _______ _______ _______ _____ _____    ______ ____

>  <TORSDO>
F 0

$$$$
=
 OpenBabel11122414133D

 28 32  0  0  1  0  0  0  0  0999 V2000
  158.4580  213.1040  151.0470 C   0  0  0  0  0  0  0  0  0  0  0  0
  159.1000  210.1540  152.2530 F   0  0  0  0  0  0  0  0  0  0  0  0
  158.7900  214.3060  157.2040 C   0  0  0  0  0  1  0  0  0  0  0  0
  160.6370  214.2630  149.7050 C   0  0  0  0  0  3  0  0  0  0  0  0
  159.1390  212.0040  156.3260 C   0  0  2  0  0  3  0  0  0  0  0  0
  157.2320  212.5190  151.6860 C   0  0  0  0  0  2  0  0  0  0  0  0
  161.0300  210.4360  150.9270 C   0  0  0  0  0  1  0  0  0  0  0  0
  160.4800  210.2440  152.3270 C   0  0  1  0  0  0  0  0  0  0  0  0
  160.9920  208.6790  154.2320 C   0  0  0  0  0  0  0  0  0  0  0  0
  160.9170  211.4300  153.2320 C   0  0  2  0  0  3  0  0  0  0  0  0
  155.4880  213.2440  154.3770 O   0  0  0  0  0  0  0  0  0  0  0  0
  158.8900  212.4660  154.0430 C   0  0  1  0  0  3  0  0  0  0  0  0
  161.1310  209.7770  155.2320 C   0  0  0  0  0  2  0  0  0  0  0  0
  160.9910  208.9820  152.8400 N   0  0  0  0  0  2  0  0  0  0  0  0
  156.3550  213.7760  153.6370 C   0  0  0  0  0  0  0  0  0  0  0  0
  159.7290  213.1740  151.6860 C   0  0  0  0  0  0  0  0  0  0  0  0
  158.3150  213.2720  156.2020 C   0  0  2  0  0  3  0  0  0  0  0  0
  161.2050  207.4630  154.6110 N   0  0  0  0  0  2  0  0  0  0  0  0
  157.4740  214.4530  154.2150 N   0  0  0  0  0  2  0  0  0  0  0  0
  160.7990  213.7630  150.9980 C   0  0  0  0  0  3  0  0  0  0  0  0
  158.3140  213.6080  149.7470 C   0  0  0  0  0  3  0  0  0  0  0  0
  159.3950  214.1830  149.0790 C   0  0  0  0  0  3  0  0  0  0  0  0
  156.2750  213.6120  152.1560 C   0  0  0  0  0  2  0  0  0  0  0  0
  159.2610  211.4140  154.9940 N   0  0  1  0  0  0  0  0  0  0  0  0
  158.6030  213.7400  154.8040 C   0  0  2  0  0  3  0  0  0  0  0  0
  160.6700  211.1440  154.7150 C   0  0  2  0  0  3  0  0  0  0  0  0
  158.4460  211.0270  157.2590 C   0  0  0  0  0  1  0  0  0  0  0  0
  160.0420  212.6680  153.0800 C   0  0  2  0  0  3  0  0  0  0  0  0
  1  6  1  0  0  0  0
  1 16  1  0  0  0  0
  2  8  1  0  0  0  0
  4 20  1  0  0  0  0
  5 27  1  1  0  0  0
  6 23  1  0  0  0  0
  8  7  1  6  0  0  0
  8 14  1  0  0  0  0
  8 10  1  0  0  0  0
  9 18  2  0  0  0  0
  9 13  1  0  0  0  0
 10 26  1  0  0  0  0
 12 25  1  0  0  0  0
 12 24  1  0  0  0  0
 14  9  1  0  0  0  0
 15 19  1  0  0  0  0
 15 11  2  0  0  0  0
 16 28  1  0  0  0  0
 17  5  1  0  0  0  0
 17  3  1  0  0  0  0
 19 25  1  0  0  0  0
 20 16  2  0  0  0  0
 21  1  2  0  0  0  0
 22  4  2  0  0  0  0
 22 21  1  0  0  0  0
 23 15  1  0  0  0  0
 24  5  1  0  0  0  0
 25 17  1  0  0  0  0
 26 24  1  0  0  0  0
 26 13  1  0  0  0  0
 28 10  1  0  0  0  0
 28 12  1  0  0  0  0
M  END
>  <MODEL>
6

>  <REMARK>
 VINA RESULT:      -1.8     12.942     15.257
  Name = 
  0 active torsions:
  status: ('A' for Active; 'I' for Inactive)
                            x       y       z     vdW  Elec       q    Type
                         _______ _______ _______ _____ _____    ______ ____

>  <TORSDO>
F 0

$$$$
=
 OpenBabel11122414133D

 28 32  0  0  1  0  0  0  0  0999 V2000
  160.9330  211.5110  150.9960 C   0  0  0  0  0  0  0  0  0  0  0  0
  162.3960  210.5110  153.7210 F   0  0  0  0  0  0  0  0  0  0  0  0
  160.1390  205.2900  150.6390 C   0  0  0  0  0  1  0  0  0  0  0  0
  158.4720  212.7870  151.4510 C   0  0  0  0  0  3  0  0  0  0  0  0
  161.3270  206.3230  152.5670 C   0  0  2  0  0  3  0  0  0  0  0  0
  162.2700  210.9050  150.6830 C   0  0  0  0  0  2  0  0  0  0  0  0
  160.6920  211.8280  154.6820 C   0  0  0  0  0  1  0  0  0  0  0  0
  161.2890  210.4400  154.5500 C   0  0  1  0  0  0  0  0  0  0  0  0
  161.9830  208.6480  156.1780 C   0  0  0  0  0  0  0  0  0  0  0  0
  160.2240  209.4610  153.9820 C   0  0  2  0  0  3  0  0  0  0  0  0
  163.2340  208.1590  149.1520 O   0  0  0  0  0  0  0  0  0  0  0  0
  161.1300  208.5680  151.9270 C   0  0  1  0  0  3  0  0  0  0  0  0
  161.2050  207.5780  155.4880 C   0  0  0  0  0  2  0  0  0  0  0  0
  161.7350  210.0160  155.8680 N   0  0  0  0  0  2  0  0  0  0  0  0
  162.2010  208.8680  149.2680 C   0  0  0  0  0  0  0  0  0  0  0  0
  159.9440  210.8780  151.8010 C   0  0  0  0  0  0  0  0  0  0  0  0
  161.1310  206.3550  151.0630 C   0  0  2  0  0  3  0  0  0  0  0  0
  162.6210  208.3540  157.2610 N   0  0  0  0  0  2  0  0  0  0  0  0
  160.9330  208.2530  149.5090 N   0  0  0  0  0  2  0  0  0  0  0  0
  158.7210  211.5320  152.0080 C   0  0  0  0  0  3  0  0  0  0  0  0
  160.6670  212.7730  150.4470 C   0  0  0  0  0  3  0  0  0  0  0  0
  159.4460  213.4090  150.6730 C   0  0  0  0  0  3  0  0  0  0  0  0
  162.3110  210.3550  149.2590 C   0  0  0  0  0  2  0  0  0  0  0  0
  161.5640  207.6930  153.0200 N   0  0  1  0  0  0  0  0  0  0  0  0
  160.5550  207.7210  150.8150 C   0  0  2  0  0  3  0  0  0  0  0  0
  160.6540  207.9980  154.1220 C   0  0  2  0  0  3  0  0  0  0  0  0
  162.5220  205.4530  152.9120 C   0  0  0  0  0  1  0  0  0  0  0  0
  160.0850  209.5230  152.4660 C   0  0  2  0  0  3  0  0  0  0  0  0
  1 16  1  0  0  0  0
  2  8  1  0  0  0  0
  3 17  1  0  0  0  0
  4 20  1  0  0  0  0
  5 27  1  6  0  0  0
  5 24  1  0  0  0  0
  6  1  1  0  0  0  0
  8  7  1  1  0  0  0
  8 14  1  0  0  0  0
  9 18  2  0  0  0  0
 10 26  1  0  0  0  0
 10  8  1  0  0  0  0
 11 15  2  0  0  0  0
 12 28  1  0  0  0  0
 12 24  1  0  0  0  0
 13  9  1  0  0  0  0
 14  9  1  0  0  0  0
 15 19  1  0  0  0  0
 16 20  2  0  0  0  0
 16 28  1  0  0  0  0
 17  5  1  0  0  0  0
 19 25  1  0  0  0  0
 21 22  1  0  0  0  0
 21  1  2  0  0  0  0
 22  4  2  0  0  0  0
 23 15  1  0  0  0  0
 23  6  1  0  0  0  0
 24 26  1  0  0  0  0
 25 17  1  0  0  0  0
 25 12  1  0  0  0  0
 26 13  1  0  0  0  0
 28 10  1  0  0  0  0
M  END
>  <MODEL>
7

>  <REMARK>
 VINA RESULT:      -1.7     12.794     14.824
  Name = 
  0 active torsions:
  status: ('A' for Active; 'I' for Inactive)
                            x       y       z     vdW  Elec       q    Type
                         _______ _______ _______ _____ _____    ______ ____

>  <TORSDO>
F 0

$$$$
