=
 OpenBabel11122413253D

 31 35  0  0  1  0  0  0  0  0999 V2000
  160.8880  207.7550  156.3610 C   0  0  0  0  0  0  0  0  0  0  0  0
  161.8720  208.9040  152.8710 C   0  0  2  0  0  3  0  0  0  0  0  0
  161.4500  207.8000  151.9140 C   0  0  0  0  0  0  0  0  0  0  0  0
  160.7930  205.4960  151.4860 C   0  0  0  0  0  0  0  0  0  0  0  0
  161.1580  208.8360  154.2020 C   0  0  0  0  0  0  0  0  0  0  0  0
  159.8060  208.5880  156.6490 C   0  0  0  0  0  3  0  0  0  0  0  0
  161.1460  206.5090  152.3790 C   0  0  0  0  0  3  0  0  0  0  0  0
  160.2460  210.7040  152.1850 C   0  0  2  0  0  3  0  0  0  0  0  0
  161.2820  206.8220  157.2610 F   0  0  0  0  0  0  0  0  0  0  0  0
  161.7780  209.3030  150.0230 O   0  0  0  0  0  0  0  0  0  0  0  0
  160.4890  204.2600  151.9500 F   0  0  0  0  0  0  0  0  0  0  0  0
  159.6780  210.8230  153.6000 C   0  0  0  0  0  2  0  0  0  0  0  0
  161.7260  210.3030  152.2390 C   0  0  2  0  0  3  0  0  0  0  0  0
  161.5620  207.8790  155.1440 C   0  0  0  0  0  3  0  0  0  0  0  0
  160.7530  205.7560  150.1150 C   0  0  0  0  0  3  0  0  0  0  0  0
  160.0650  209.6820  154.4980 C   0  0  0  0  0  0  0  0  0  0  0  0
  159.4020  209.5550  155.7240 C   0  0  0  0  0  3  0  0  0  0  0  0
  162.3650  210.3050  150.8490 C   0  0  0  0  0  2  0  0  0  0  0  0
  161.4420  208.0420  150.5240 C   0  0  0  0  0  0  0  0  0  0  0  0
  161.0790  207.0270  149.6340 C   0  0  0  0  0  3  0  0  0  0  0  0
  157.8820  212.3010  152.1950 O   0  0  0  0  0  0  0  0  0  0  0  0
  158.8760  212.7320  151.5480 C   0  0  0  0  0  0  0  0  0  0  0  0
  160.0870  211.9770  151.4950 N   0  0  0  0  0  2  0  0  0  0  0  0
  157.5770  213.9340  148.1090 C   0  0  1  0  0  3  0  0  0  0  0  0
  157.3460  214.4530  150.5480 C   0  0  0  0  0  2  0  0  0  0  0  0
  160.9160  214.2280  149.5900 C   0  0  0  0  0  2  0  0  0  0  0  0
  156.9910  213.2790  147.0280 O   0  0  0  0  0  1  0  0  0  0  0  0
  156.7430  213.6940  149.3640 C   0  0  0  0  0  2  0  0  0  0  0  0
  159.6040  214.0170  149.5420 C   0  0  0  0  0  0  0  0  0  0  0  0
  158.7980  214.0380  150.8150 C   0  0  2  0  0  3  0  0  0  0  0  0
  159.0020  213.4200  148.3040 C   0  0  0  0  0  2  0  0  0  0  0  0
  1  6  1  0  0  0  0
  1  9  1  0  0  0  0
  2  3  1  6  0  0  0
  2  5  1  0  0  0  0
  3  7  1  0  0  0  0
  4 11  1  0  0  0  0
  4  7  2  0  0  0  0
  5 16  2  0  0  0  0
  5 14  1  0  0  0  0
  8 23  1  1  0  0  0
  8 13  1  0  0  0  0
  8 12  1  0  0  0  0
 10 19  1  0  0  0  0
 10 18  1  0  0  0  0
 12 16  1  0  0  0  0
 13 18  1  6  0  0  0
 13  2  1  0  0  0  0
 14  1  2  0  0  0  0
 15  4  1  0  0  0  0
 16 17  1  0  0  0  0
 17  6  2  0  0  0  0
 19  3  2  0  0  0  0
 20 15  2  0  0  0  0
 20 19  1  0  0  0  0
 22 21  2  0  0  0  0
 23 22  1  0  0  0  0
 24 27  1  6  0  0  0
 24 31  1  0  0  0  0
 24 28  1  0  0  0  0
 25 30  1  0  0  0  0
 28 25  1  0  0  0  0
 29 26  2  0  0  0  0
 29 30  1  0  0  0  0
 30 22  1  6  0  0  0
 31 29  1  0  0  0  0
M  END
>  <MODEL>
1

>  <REMARK>
 VINA RESULT:      -7.2      0.000      0.000
  Name = 
  2 active torsions:
  status: ('A' for Active; 'I' for Inactive)
    1  A    between atoms: C_5  and  C_30
    2  A    between atoms: C_10  and  N_16
                            x       y       z     vdW  Elec       q    Type
                         _______ _______ _______ _____ _____    ______ ____

>  <TORSDO>
F 2

$$$$
=
 OpenBabel11122413253D

 31 35  0  0  1  0  0  0  0  0999 V2000
  161.0290  203.8780  145.3380 C   0  0  0  0  0  0  0  0  0  0  0  0
  160.4440  205.2460  148.8390 C   0  0  2  0  0  3  0  0  0  0  0  0
  160.8270  204.1380  149.8090 C   0  0  0  0  0  0  0  0  0  0  0  0
  161.2810  201.7960  150.2860 C   0  0  0  0  0  0  0  0  0  0  0  0
  161.0400  205.0570  147.4630 C   0  0  0  0  0  0  0  0  0  0  0  0
  162.1620  204.5840  144.9350 C   0  0  0  0  0  3  0  0  0  0  0  0
  160.9620  202.8080  149.3790 C   0  0  0  0  0  3  0  0  0  0  0  0
  162.2920  206.8910  149.3220 C   0  0  2  0  0  3  0  0  0  0  0  0
  160.4720  202.9590  144.5120 F   0  0  0  0  0  0  0  0  0  0  0  0
  160.8020  205.7340  151.6530 O   0  0  0  0  0  0  0  0  0  0  0  0
  161.4220  200.5200  149.8550 F   0  0  0  0  0  0  0  0  0  0  0  0
  162.7540  206.9010  147.8660 C   0  0  0  0  0  2  0  0  0  0  0  0
  160.7790  206.6440  149.3970 C   0  0  2  0  0  3  0  0  0  0  0  0
  160.4690  204.1140  146.5960 C   0  0  0  0  0  3  0  0  0  0  0  0
  161.4550  202.0990  151.6380 C   0  0  0  0  0  3  0  0  0  0  0  0
  162.1860  205.7740  147.0490 C   0  0  0  0  0  0  0  0  0  0  0  0
  162.7330  205.5360  145.7840 C   0  0  0  0  0  3  0  0  0  0  0  0
  160.2550  206.7610  150.8300 C   0  0  0  0  0  2  0  0  0  0  0  0
  160.9700  204.4280  151.1830 C   0  0  0  0  0  0  0  0  0  0  0  0
  161.2980  203.4120  152.0860 C   0  0  0  0  0  3  0  0  0  0  0  0
  161.4440  209.4540  148.4000 O   0  0  0  0  0  0  0  0  0  0  0  0
  162.1660  209.4150  149.4340 C   0  0  0  0  0  0  0  0  0  0  0  0
  162.6320  208.1640  149.9430 N   0  0  0  0  0  2  0  0  0  0  0  0
  160.3360  212.1900  151.4110 C   0  0  1  0  0  3  0  0  0  0  0  0
  162.2620  210.6040  151.6410 C   0  0  0  0  0  2  0  0  0  0  0  0
  162.4530  212.4380  148.4290 C   0  0  0  0  0  2  0  0  0  0  0  0
  158.9990  212.4060  151.7380 O   0  0  0  0  0  1  0  0  0  0  0  0
  160.7800  210.8320  151.9460 C   0  0  0  0  0  2  0  0  0  0  0  0
  161.9130  211.8910  149.5150 C   0  0  0  0  0  0  0  0  0  0  0  0
  162.5550  210.6790  150.1380 C   0  0  2  0  0  3  0  0  0  0  0  0
  160.5070  212.2510  149.8950 C   0  0  0  0  0  2  0  0  0  0  0  0
  1 14  1  0  0  0  0
  2  5  1  6  0  0  0
  2 13  1  0  0  0  0
  2  3  1  0  0  0  0
  3 19  1  0  0  0  0
  4 15  2  0  0  0  0
  6  1  2  0  0  0  0
  6 17  1  0  0  0  0
  7  3  2  0  0  0  0
  7  4  1  0  0  0  0
  8 13  1  0  0  0  0
  8 23  1  6  0  0  0
  9  1  1  0  0  0  0
 11  4  1  0  0  0  0
 12  8  1  0  0  0  0
 13 18  1  1  0  0  0
 14  5  2  0  0  0  0
 15 20  1  0  0  0  0
 16  5  1  0  0  0  0
 16 12  1  0  0  0  0
 17 16  2  0  0  0  0
 18 10  1  0  0  0  0
 19 10  1  0  0  0  0
 19 20  2  0  0  0  0
 21 22  2  0  0  0  0
 22 23  1  0  0  0  0
 24 27  1  6  0  0  0
 24 28  1  0  0  0  0
 25 28  1  0  0  0  0
 26 29  2  0  0  0  0
 29 31  1  0  0  0  0
 29 30  1  0  0  0  0
 30 22  1  6  0  0  0
 30 25  1  0  0  0  0
 31 24  1  0  0  0  0
M  END
>  <MODEL>
2

>  <REMARK>
 VINA RESULT:      -6.9      3.467      6.656
  Name = 
  2 active torsions:
  status: ('A' for Active; 'I' for Inactive)
    1  A    between atoms: C_5  and  C_30
    2  A    between atoms: C_10  and  N_16
                            x       y       z     vdW  Elec       q    Type
                         _______ _______ _______ _____ _____    ______ ____

>  <TORSDO>
F 2

$$$$
=
 OpenBabel11122413253D

 31 35  0  0  1  0  0  0  0  0999 V2000
  161.6290  206.1870  152.4380 C   0  0  0  0  0  0  0  0  0  0  0  0
  160.0540  209.5360  153.3170 C   0  0  2  0  0  3  0  0  0  0  0  0
  160.7710  210.0420  154.5600 C   0  0  0  0  0  0  0  0  0  0  0  0
  162.1710  209.6500  156.5120 C   0  0  0  0  0  0  0  0  0  0  0  0
  160.8390  208.4810  152.5720 C   0  0  0  0  0  0  0  0  0  0  0  0
  162.3620  206.5010  151.2930 C   0  0  0  0  0  3  0  0  0  0  0  0
  161.5460  209.1800  155.3550 C   0  0  0  0  0  3  0  0  0  0  0  0
  160.8810  211.2210  151.6360 C   0  0  2  0  0  3  0  0  0  0  0  0
  161.6570  204.9280  152.9370 F   0  0  0  0  0  0  0  0  0  0  0  0
  159.7960  212.2520  154.2330 O   0  0  0  0  0  0  0  0  0  0  0  0
  162.9270  208.8120  157.2610 F   0  0  0  0  0  0  0  0  0  0  0  0
  161.4680  210.1340  150.7360 C   0  0  0  0  0  2  0  0  0  0  0  0
  159.6480  210.6880  152.3760 C   0  0  2  0  0  3  0  0  0  0  0  0
  160.8700  207.1720  153.0740 C   0  0  0  0  0  3  0  0  0  0  0  0
  162.0180  210.9830  156.8960 C   0  0  0  0  0  3  0  0  0  0  0  0
  161.5780  208.7940  151.4090 C   0  0  0  0  0  0  0  0  0  0  0  0
  162.3280  207.7980  150.7750 C   0  0  0  0  0  3  0  0  0  0  0  0
  158.9520  211.7860  153.1830 C   0  0  0  0  0  2  0  0  0  0  0  0
  160.5930  211.3780  154.9770 C   0  0  0  0  0  0  0  0  0  0  0  0
  161.2290  211.8450  156.1310 C   0  0  0  0  0  3  0  0  0  0  0  0
  161.9720  211.8310  149.0710 O   0  0  0  0  0  0  0  0  0  0  0  0
  161.1070  212.6210  149.5410 C   0  0  0  0  0  0  0  0  0  0  0  0
  160.5280  212.3780  150.8240 N   0  0  0  0  0  2  0  0  0  0  0  0
  159.2730  213.3000  146.2040 C   0  0  1  0  0  3  0  0  0  0  0  0
  159.1550  213.9100  148.6310 C   0  0  0  0  0  2  0  0  0  0  0  0
  162.5880  214.3900  147.3250 C   0  0  0  0  0  2  0  0  0  0  0  0
  158.7490  212.4690  145.2170 O   0  0  0  0  0  1  0  0  0  0  0  0
  158.6280  212.9680  147.5460 C   0  0  0  0  0  2  0  0  0  0  0  0
  161.3530  213.9020  147.4200 C   0  0  0  0  0  0  0  0  0  0  0  0
  160.6810  213.8310  148.7660 C   0  0  2  0  0  3  0  0  0  0  0  0
  160.7870  213.1150  146.2750 C   0  0  0  0  0  2  0  0  0  0  0  0
  1  9  1  0  0  0  0
  1 14  1  0  0  0  0
  2  5  1  6  0  0  0
  2  3  1  0  0  0  0
  3 19  2  0  0  0  0
  3  7  1  0  0  0  0
  4 15  1  0  0  0  0
  4 11  1  0  0  0  0
  5 14  2  0  0  0  0
  6  1  2  0  0  0  0
  7  4  2  0  0  0  0
  8 23  1  6  0  0  0
  8 13  1  0  0  0  0
 10 19  1  0  0  0  0
 12 16  1  0  0  0  0
 12  8  1  0  0  0  0
 13 18  1  1  0  0  0
 13  2  1  0  0  0  0
 16  5  1  0  0  0  0
 17  6  1  0  0  0  0
 17 16  2  0  0  0  0
 18 10  1  0  0  0  0
 19 20  1  0  0  0  0
 20 15  2  0  0  0  0
 21 22  2  0  0  0  0
 22 23  1  0  0  0  0
 24 27  1  6  0  0  0
 24 31  1  0  0  0  0
 24 28  1  0  0  0  0
 25 30  1  0  0  0  0
 26 29  2  0  0  0  0
 28 25  1  0  0  0  0
 29 30  1  0  0  0  0
 30 22  1  6  0  0  0
 31 29  1  0  0  0  0
M  END
>  <MODEL>
3

>  <REMARK>
 VINA RESULT:      -6.9      1.834      4.414
  Name = 
  2 active torsions:
  status: ('A' for Active; 'I' for Inactive)
    1  A    between atoms: C_5  and  C_30
    2  A    between atoms: C_10  and  N_16
                            x       y       z     vdW  Elec       q    Type
                         _______ _______ _______ _____ _____    ______ ____

>  <TORSDO>
F 2

$$$$
=
 OpenBabel11122413253D

 31 35  0  0  1  0  0  0  0  0999 V2000
  160.9800  206.3820  146.5030 C   0  0  0  0  0  0  0  0  0  0  0  0
  160.2410  204.9780  149.9600 C   0  0  2  0  0  3  0  0  0  0  0  0
  160.7270  203.5360  149.9570 C   0  0  0  0  0  0  0  0  0  0  0  0
  161.4090  201.5270  148.7650 C   0  0  0  0  0  0  0  0  0  0  0  0
  160.8610  205.8110  148.8610 C   0  0  0  0  0  0  0  0  0  0  0  0
  162.0400  207.2520  146.7620 C   0  0  0  0  0  3  0  0  0  0  0  0
  160.9960  202.8600  148.7550 C   0  0  0  0  0  3  0  0  0  0  0  0
  161.9130  205.9850  151.5540 C   0  0  2  0  0  3  0  0  0  0  0  0
  160.5230  206.2290  145.2370 F   0  0  0  0  0  0  0  0  0  0  0  0
  160.5320  203.4570  152.3860 O   0  0  0  0  0  0  0  0  0  0  0  0
  161.6780  200.8920  147.5990 F   0  0  0  0  0  0  0  0  0  0  0  0
  162.3810  207.0090  150.5210 C   0  0  0  0  0  2  0  0  0  0  0  0
  160.4320  205.6480  151.3350 C   0  0  2  0  0  3  0  0  0  0  0  0
  160.3920  205.6660  147.5480 C   0  0  0  0  0  3  0  0  0  0  0  0
  161.5440  200.8470  149.9770 C   0  0  0  0  0  3  0  0  0  0  0  0
  161.9320  206.6960  149.1210 C   0  0  0  0  0  0  0  0  0  0  0  0
  162.5080  207.4150  148.0680 C   0  0  0  0  0  3  0  0  0  0  0  0
  159.8900  204.7290  152.4320 C   0  0  0  0  0  2  0  0  0  0  0  0
  160.8310  202.8290  151.1740 C   0  0  0  0  0  0  0  0  0  0  0  0
  161.2540  201.4960  151.1790 C   0  0  0  0  0  3  0  0  0  0  0  0
  160.5620  208.2450  152.6520 O   0  0  0  0  0  0  0  0  0  0  0  0
  161.4030  207.6550  153.3840 C   0  0  0  0  0  0  0  0  0  0  0  0
  162.1210  206.5220  152.8920 N   0  0  0  0  0  2  0  0  0  0  0  0
  159.4830  209.6940  156.0510 C   0  0  1  0  0  3  0  0  0  0  0  0
  160.6990  207.5200  155.7890 C   0  0  0  0  0  2  0  0  0  0  0  0
  162.7490  210.3290  154.5130 C   0  0  0  0  0  2  0  0  0  0  0  0
  158.2270  210.2950  156.0710 O   0  0  0  0  0  1  0  0  0  0  0  0
  159.3310  208.2040  155.7610 C   0  0  0  0  0  2  0  0  0  0  0  0
  161.6620  209.6440  154.8610 C   0  0  0  0  0  0  0  0  0  0  0  0
  161.6710  208.1390  154.7770 C   0  0  2  0  0  3  0  0  0  0  0  0
  160.3520  210.3630  154.9890 C   0  0  0  0  0  2  0  0  0  0  0  0
  1  6  2  0  0  0  0
  1 14  1  0  0  0  0
  2  5  1  6  0  0  0
  2 13  1  0  0  0  0
  3  2  1  0  0  0  0
  3 19  1  0  0  0  0
  4 15  2  0  0  0  0
  5 16  1  0  0  0  0
  6 17  1  0  0  0  0
  7  4  1  0  0  0  0
  7  3  2  0  0  0  0
  8 23  1  1  0  0  0
  9  1  1  0  0  0  0
 10 18  1  0  0  0  0
 11  4  1  0  0  0  0
 12  8  1  0  0  0  0
 13  8  1  0  0  0  0
 13 18  1  1  0  0  0
 14  5  2  0  0  0  0
 15 20  1  0  0  0  0
 16 12  1  0  0  0  0
 17 16  2  0  0  0  0
 19 20  2  0  0  0  0
 19 10  1  0  0  0  0
 21 22  2  0  0  0  0
 23 22  1  0  0  0  0
 24 27  1  6  0  0  0
 26 29  2  0  0  0  0
 28 25  1  0  0  0  0
 28 24  1  0  0  0  0
 29 31  1  0  0  0  0
 30 22  1  6  0  0  0
 30 29  1  0  0  0  0
 30 25  1  0  0  0  0
 31 24  1  0  0  0  0
M  END
>  <MODEL>
4

>  <REMARK>
 VINA RESULT:      -6.3      4.723      7.160
  Name = 
  2 active torsions:
  status: ('A' for Active; 'I' for Inactive)
    1  A    between atoms: C_5  and  C_30
    2  A    between atoms: C_10  and  N_16
                            x       y       z     vdW  Elec       q    Type
                         _______ _______ _______ _____ _____    ______ ____

>  <TORSDO>
F 2

$$$$
=
 OpenBabel11122413253D

 31 35  0  0  1  0  0  0  0  0999 V2000
  160.7150  208.3820  154.9040 C   0  0  0  0  0  0  0  0  0  0  0  0
  162.1020  209.2960  151.4810 C   0  0  2  0  0  3  0  0  0  0  0  0
  161.5770  208.2520  150.5060 C   0  0  0  0  0  0  0  0  0  0  0  0
  160.5960  206.0720  150.0530 C   0  0  0  0  0  0  0  0  0  0  0  0
  161.2980  209.3660  152.7600 C   0  0  0  0  0  0  0  0  0  0  0  0
  159.7610  209.3800  155.1080 C   0  0  0  0  0  3  0  0  0  0  0  0
  161.0440  207.0350  150.9600 C   0  0  0  0  0  3  0  0  0  0  0  0
  160.8300  211.3140  150.6680 C   0  0  2  0  0  3  0  0  0  0  0  0
  160.8960  207.4170  155.8360 F   0  0  0  0  0  0  0  0  0  0  0  0
  162.2660  209.6490  148.6300 O   0  0  0  0  0  0  0  0  0  0  0  0
  160.0710  204.9080  150.5050 F   0  0  0  0  0  0  0  0  0  0  0  0
  160.1940  211.5480  152.0380 C   0  0  0  0  0  2  0  0  0  0  0  0
  162.2210  210.6880  150.8290 C   0  0  2  0  0  3  0  0  0  0  0  0
  161.4810  208.3760  153.7360 C   0  0  0  0  0  3  0  0  0  0  0  0
  160.6910  206.3080  148.6800 C   0  0  0  0  0  3  0  0  0  0  0  0
  160.3340  210.3780  152.9710 C   0  0  0  0  0  0  0  0  0  0  0  0
  159.5790  210.3800  154.1490 C   0  0  0  0  0  3  0  0  0  0  0  0
  162.9460  210.5630  149.4870 C   0  0  0  0  0  2  0  0  0  0  0  0
  161.7020  208.4660  149.1170 C   0  0  0  0  0  0  0  0  0  0  0  0
  161.2440  207.5030  148.2130 C   0  0  0  0  0  3  0  0  0  0  0  0
  160.1320  211.7250  147.9320 O   0  0  0  0  0  0  0  0  0  0  0  0
  160.5460  212.7220  148.5860 C   0  0  0  0  0  0  0  0  0  0  0  0
  160.9200  212.5820  149.9570 N   0  0  0  0  0  2  0  0  0  0  0  0
  160.6140  214.0680  144.9610 C   0  0  1  0  0  3  0  0  0  0  0  0
  159.4040  214.4150  147.1270 C   0  0  0  0  0  2  0  0  0  0  0  0
  163.0690  214.4530  147.6550 C   0  0  0  0  0  2  0  0  0  0  0  0
  160.5520  213.4530  143.7130 O   0  0  0  0  0  1  0  0  0  0  0  0
  159.3760  213.7020  145.7730 C   0  0  0  0  0  2  0  0  0  0  0  0
  161.9020  214.1730  147.0820 C   0  0  0  0  0  0  0  0  0  0  0  0
  160.6620  214.0650  147.9320 C   0  0  2  0  0  3  0  0  0  0  0  0
  161.8820  213.6250  145.6860 C   0  0  0  0  0  2  0  0  0  0  0  0
  1  6  1  0  0  0  0
  1  9  1  0  0  0  0
  2  3  1  6  0  0  0
  2  5  1  0  0  0  0
  3  7  1  0  0  0  0
  4 11  1  0  0  0  0
  4  7  2  0  0  0  0
  5 16  2  0  0  0  0
  5 14  1  0  0  0  0
  8 23  1  1  0  0  0
  8 13  1  0  0  0  0
  8 12  1  0  0  0  0
 10 19  1  0  0  0  0
 10 18  1  0  0  0  0
 12 16  1  0  0  0  0
 13 18  1  6  0  0  0
 13  2  1  0  0  0  0
 14  1  2  0  0  0  0
 15  4  1  0  0  0  0
 16 17  1  0  0  0  0
 17  6  2  0  0  0  0
 19  3  2  0  0  0  0
 20 15  2  0  0  0  0
 20 19  1  0  0  0  0
 21 22  2  0  0  0  0
 22 23  1  0  0  0  0
 24 27  1  6  0  0  0
 24 31  1  0  0  0  0
 24 28  1  0  0  0  0
 25 30  1  0  0  0  0
 28 25  1  0  0  0  0
 29 26  2  0  0  0  0
 29 30  1  0  0  0  0
 30 22  1  6  0  0  0
 31 29  1  0  0  0  0
M  END
>  <MODEL>
5

>  <REMARK>
 VINA RESULT:      -5.7      2.022      2.631
  Name = 
  2 active torsions:
  status: ('A' for Active; 'I' for Inactive)
    1  A    between atoms: C_5  and  C_30
    2  A    between atoms: C_10  and  N_16
                            x       y       z     vdW  Elec       q    Type
                         _______ _______ _______ _____ _____    ______ ____

>  <TORSDO>
F 2

$$$$
=
 OpenBabel11122413253D

 31 35  0  0  1  0  0  0  0  0999 V2000
  162.2640  211.7910  148.5850 C   0  0  0  0  0  0  0  0  0  0  0  0
  159.9020  212.2900  145.6460 C   0  0  2  0  0  3  0  0  0  0  0  0
  158.7080  213.0720  146.1750 C   0  0  0  0  0  0  0  0  0  0  0  0
  157.3390  213.8650  148.0230 C   0  0  0  0  0  0  0  0  0  0  0  0
  161.1220  212.4060  146.5310 C   0  0  0  0  0  0  0  0  0  0  0  0
  163.3110  212.6580  148.2670 C   0  0  0  0  0  3  0  0  0  0  0  0
  158.4560  213.1730  147.5530 C   0  0  0  0  0  3  0  0  0  0  0  0
  160.9240  214.0400  144.1470 C   0  0  2  0  0  3  0  0  0  0  0  0
  162.3020  211.0750  149.7340 F   0  0  0  0  0  0  0  0  0  0  0  0
  157.9820  213.5230  143.8910 O   0  0  0  0  0  0  0  0  0  0  0  0
  157.1160  213.9660  149.3550 F   0  0  0  0  0  0  0  0  0  0  0  0
  162.2610  213.9870  144.8850 C   0  0  0  0  0  2  0  0  0  0  0  0
  160.2390  212.6670  144.1890 C   0  0  2  0  0  3  0  0  0  0  0  0
  161.1750  211.6650  147.7190 C   0  0  0  0  0  3  0  0  0  0  0  0
  156.4510  214.4530  147.1200 C   0  0  0  0  0  3  0  0  0  0  0  0
  162.1860  213.2800  146.2100 C   0  0  0  0  0  0  0  0  0  0  0  0
  163.2760  213.3920  147.0800 C   0  0  0  0  0  3  0  0  0  0  0  0
  158.9630  212.6430  143.3460 C   0  0  0  0  0  2  0  0  0  0  0  0
  157.7850  213.6390  145.2700 C   0  0  0  0  0  0  0  0  0  0  0  0
  156.6720  214.3390  145.7460 C   0  0  0  0  0  3  0  0  0  0  0  0
  162.2700  212.4930  142.1630 O   0  0  0  0  0  0  0  0  0  0  0  0
  161.8280  213.6250  141.8210 C   0  0  0  0  0  0  0  0  0  0  0  0
  161.1520  214.4530  142.7690 N   0  0  0  0  0  2  0  0  0  0  0  0
  162.3580  212.0330  138.3370 C   0  0  1  0  0  3  0  0  0  0  0  0
  160.8690  213.6750  139.5020 C   0  0  0  0  0  2  0  0  0  0  0  0
  164.4330  214.4450  140.1550 C   0  0  0  0  0  2  0  0  0  0  0  0
  162.4680  210.7150  137.8960 O   0  0  0  0  0  1  0  0  0  0  0  0
  161.0280  212.2190  139.0590 C   0  0  0  0  0  2  0  0  0  0  0  0
  163.3540  213.7270  139.8550 C   0  0  0  0  0  0  0  0  0  0  0  0
  162.0140  214.1230  140.4200 C   0  0  2  0  0  3  0  0  0  0  0  0
  163.5250  212.3580  139.2670 C   0  0  0  0  0  2  0  0  0  0  0  0
  1  9  1  0  0  0  0
  2  3  1  1  0  0  0
  2  5  1  0  0  0  0
  3  7  1  0  0  0  0
  4 11  1  0  0  0  0
  5 14  1  0  0  0  0
  6  1  1  0  0  0  0
  7  4  2  0  0  0  0
  8 23  1  6  0  0  0
  8 13  1  0  0  0  0
  8 12  1  0  0  0  0
 10 19  1  0  0  0  0
 12 16  1  0  0  0  0
 13 18  1  6  0  0  0
 13  2  1  0  0  0  0
 14  1  2  0  0  0  0
 15  4  1  0  0  0  0
 16  5  2  0  0  0  0
 16 17  1  0  0  0  0
 17  6  2  0  0  0  0
 18 10  1  0  0  0  0
 19 20  1  0  0  0  0
 19  3  2  0  0  0  0
 20 15  2  0  0  0  0
 22 21  2  0  0  0  0
 22 23  1  0  0  0  0
 24 27  1  1  0  0  0
 24 28  1  0  0  0  0
 24 31  1  0  0  0  0
 25 30  1  0  0  0  0
 28 25  1  0  0  0  0
 29 26  2  0  0  0  0
 29 30  1  0  0  0  0
 30 22  1  1  0  0  0
 31 29  1  0  0  0  0
M  END
>  <MODEL>
6

>  <REMARK>
 VINA RESULT:      -5.2      6.504      9.660
  Name = 
  2 active torsions:
  status: ('A' for Active; 'I' for Inactive)
    1  A    between atoms: C_5  and  C_30
    2  A    between atoms: C_10  and  N_16
                            x       y       z     vdW  Elec       q    Type
                         _______ _______ _______ _____ _____    ______ ____

>  <TORSDO>
F 2

$$$$
=
 OpenBabel11122413253D

 31 35  0  0  1  0  0  0  0  0999 V2000
  160.7290  201.5440  148.9380 C   0  0  0  0  0  0  0  0  0  0  0  0
  162.2770  204.8740  149.9310 C   0  0  2  0  0  3  0  0  0  0  0  0
  161.7400  205.9110  148.9560 C   0  0  0  0  0  0  0  0  0  0  0  0
  160.6770  206.4930  146.8460 C   0  0  0  0  0  0  0  0  0  0  0  0
  161.4320  203.6210  149.9840 C   0  0  0  0  0  0  0  0  0  0  0  0
  159.8150  201.3280  149.9710 C   0  0  0  0  0  3  0  0  0  0  0  0
  161.1350  205.5300  147.7470 C   0  0  0  0  0  3  0  0  0  0  0  0
  161.1290  205.6390  152.0390 C   0  0  2  0  0  3  0  0  0  0  0  0
  160.8320  200.6490  147.9260 F   0  0  0  0  0  0  0  0  0  0  0  0
  162.5580  207.7000  150.3970 O   0  0  0  0  0  0  0  0  0  0  0  0
  160.0830  206.1110  145.6900 F   0  0  0  0  0  0  0  0  0  0  0  0
  160.4560  204.2820  152.2450 C   0  0  0  0  0  2  0  0  0  0  0  0
  162.4840  205.4600  151.3420 C   0  0  2  0  0  3  0  0  0  0  0  0
  161.5350  202.6840  148.9460 C   0  0  0  0  0  3  0  0  0  0  0  0
  160.8310  207.8500  147.1360 C   0  0  0  0  0  3  0  0  0  0  0  0
  160.5090  203.3970  151.0300 C   0  0  0  0  0  0  0  0  0  0  0  0
  159.7130  202.2470  151.0180 C   0  0  0  0  0  3  0  0  0  0  0  0
  163.2490  206.7810  151.2400 C   0  0  0  0  0  2  0  0  0  0  0  0
  161.9240  207.2850  149.2230 C   0  0  0  0  0  0  0  0  0  0  0  0
  161.4550  208.2450  148.3210 C   0  0  0  0  0  3  0  0  0  0  0  0
  160.4570  208.3490  152.6250 O   0  0  0  0  0  0  0  0  0  0  0  0
  160.9370  207.6510  153.5600 C   0  0  0  0  0  0  0  0  0  0  0  0
  161.3030  206.2890  153.3310 N   0  0  0  0  0  2  0  0  0  0  0  0
  158.9810  210.0340  155.8960 C   0  0  1  0  0  3  0  0  0  0  0  0
  160.0640  207.7750  155.9100 C   0  0  0  0  0  2  0  0  0  0  0  0
  162.3790  210.3280  154.5540 C   0  0  0  0  0  2  0  0  0  0  0  0
  157.7690  210.7100  155.7710 O   0  0  0  0  0  1  0  0  0  0  0  0
  158.7500  208.5360  155.7230 C   0  0  0  0  0  2  0  0  0  0  0  0
  161.2280  209.7440  154.8780 C   0  0  0  0  0  0  0  0  0  0  0  0
  161.1420  208.2410  154.9230 C   0  0  2  0  0  3  0  0  0  0  0  0
  159.9630  210.5500  154.8470 C   0  0  0  0  0  2  0  0  0  0  0  0
  1 14  2  0  0  0  0
  1  6  1  0  0  0  0
  2  3  1  6  0  0  0
  2  5  1  0  0  0  0
  2 13  1  0  0  0  0
  3 19  1  0  0  0  0
  4 15  2  0  0  0  0
  4  7  1  0  0  0  0
  5 16  2  0  0  0  0
  6 17  2  0  0  0  0
  7  3  2  0  0  0  0
  8 12  1  0  0  0  0
  8 23  1  1  0  0  0
  9  1  1  0  0  0  0
 10 18  1  0  0  0  0
 11  4  1  0  0  0  0
 13 18  1  6  0  0  0
 13  8  1  0  0  0  0
 14  5  1  0  0  0  0
 15 20  1  0  0  0  0
 16 12  1  0  0  0  0
 17 16  1  0  0  0  0
 19 10  1  0  0  0  0
 20 19  2  0  0  0  0
 21 22  2  0  0  0  0
 23 22  1  0  0  0  0
 24 27  1  6  0  0  0
 26 29  2  0  0  0  0
 28 24  1  0  0  0  0
 28 25  1  0  0  0  0
 29 30  1  0  0  0  0
 30 22  1  6  0  0  0
 30 25  1  0  0  0  0
 31 29  1  0  0  0  0
 31 24  1  0  0  0  0
M  END
>  <MODEL>
7

>  <REMARK>
 VINA RESULT:      -5.2      4.457      6.764
  Name = 
  2 active torsions:
  status: ('A' for Active; 'I' for Inactive)
    1  A    between atoms: C_5  and  C_30
    2  A    between atoms: C_10  and  N_16
                            x       y       z     vdW  Elec       q    Type
                         _______ _______ _______ _____ _____    ______ ____

>  <TORSDO>
F 2

$$$$
=
 OpenBabel11122413253D

 31 35  0  0  1  0  0  0  0  0999 V2000
  160.7740  209.9060  154.5830 C   0  0  0  0  0  0  0  0  0  0  0  0
  162.2560  209.8900  151.0800 C   0  0  2  0  0  3  0  0  0  0  0  0
  161.7150  208.6500  150.3840 C   0  0  0  0  0  0  0  0  0  0  0  0
  160.6690  206.4550  150.4650 C   0  0  0  0  0  0  0  0  0  0  0  0
  161.4310  210.3020  152.2780 C   0  0  0  0  0  0  0  0  0  0  0  0
  159.8510  210.9500  154.5040 C   0  0  0  0  0  3  0  0  0  0  0  0
  161.1310  207.6020  151.1130 C   0  0  0  0  0  3  0  0  0  0  0  0
  161.0700  211.6740  149.7530 C   0  0  2  0  0  3  0  0  0  0  0  0
  160.9040  209.2010  155.7330 F   0  0  0  0  0  0  0  0  0  0  0  0
  162.4860  209.5100  148.2360 O   0  0  0  0  0  0  0  0  0  0  0  0
  160.0960  205.4570  151.1800 F   0  0  0  0  0  0  0  0  0  0  0  0
  160.4160  212.2630  151.0020 C   0  0  0  0  0  2  0  0  0  0  0  0
  162.4360  211.0690  150.1030 C   0  0  2  0  0  3  0  0  0  0  0  0
  161.5620  209.5840  153.4750 C   0  0  0  0  0  3  0  0  0  0  0  0
  160.7980  206.3360  149.0800 C   0  0  0  0  0  3  0  0  0  0  0  0
  160.4980  211.3610  152.2020 C   0  0  0  0  0  0  0  0  0  0  0  0
  159.7210  211.6810  153.3210 C   0  0  0  0  0  3  0  0  0  0  0  0
  163.1810  210.5900  148.8550 C   0  0  0  0  0  2  0  0  0  0  0  0
  161.8730  208.5050  148.9890 C   0  0  0  0  0  0  0  0  0  0  0  0
  161.4000  207.3580  148.3430 C   0  0  0  0  0  3  0  0  0  0  0  0
  160.5840  211.3600  146.9590 O   0  0  0  0  0  0  0  0  0  0  0  0
  160.9490  212.4980  147.3640 C   0  0  0  0  0  0  0  0  0  0  0  0
  161.2170  212.7200  148.7490 N   0  0  0  0  0  2  0  0  0  0  0  0
  159.6260  213.3870  143.8410 C   0  0  1  0  0  3  0  0  0  0  0  0
  159.7930  214.3600  146.1420 C   0  0  0  0  0  2  0  0  0  0  0  0
  163.0730  213.0450  145.0360 C   0  0  0  0  0  2  0  0  0  0  0  0
  158.7830  212.7320  142.9440 O   0  0  0  0  0  1  0  0  0  0  0  0
  158.8980  213.5940  145.1650 C   0  0  0  0  0  2  0  0  0  0  0  0
  161.7520  213.1810  145.1080 C   0  0  0  0  0  0  0  0  0  0  0  0
  161.1180  213.6310  146.3980 C   0  0  2  0  0  3  0  0  0  0  0  0
  160.8920  212.5590  144.0470 C   0  0  0  0  0  2  0  0  0  0  0  0
  1  9  1  0  0  0  0
  2  3  1  6  0  0  0
  2  5  1  0  0  0  0
  3  7  1  0  0  0  0
  4  7  2  0  0  0  0
  4 11  1  0  0  0  0
  5 14  1  0  0  0  0
  6  1  1  0  0  0  0
  8 23  1  6  0  0  0
  8 13  1  0  0  0  0
  8 12  1  0  0  0  0
 10 18  1  0  0  0  0
 10 19  1  0  0  0  0
 12 16  1  0  0  0  0
 13 18  1  6  0  0  0
 13  2  1  0  0  0  0
 14  1  2  0  0  0  0
 15  4  1  0  0  0  0
 16  5  2  0  0  0  0
 16 17  1  0  0  0  0
 17  6  2  0  0  0  0
 19  3  2  0  0  0  0
 20 19  1  0  0  0  0
 20 15  2  0  0  0  0
 21 22  2  0  0  0  0
 22 23  1  0  0  0  0
 24 27  1  6  0  0  0
 24 31  1  0  0  0  0
 24 28  1  0  0  0  0
 25 30  1  0  0  0  0
 26 29  2  0  0  0  0
 28 25  1  0  0  0  0
 29 30  1  0  0  0  0
 30 22  1  1  0  0  0
 31 29  1  0  0  0  0
M  END
>  <MODEL>
8

>  <REMARK>
 VINA RESULT:      -4.9      2.543      3.429
  Name = 
  2 active torsions:
  status: ('A' for Active; 'I' for Inactive)
    1  A    between atoms: C_5  and  C_30
    2  A    between atoms: C_10  and  N_16
                            x       y       z     vdW  Elec       q    Type
                         _______ _______ _______ _____ _____    ______ ____

>  <TORSDO>
F 2

$$$$
=
 OpenBabel11122413253D

 31 35  0  0  1  0  0  0  0  0999 V2000
  161.8340  202.9200  151.8140 C   0  0  0  0  0  0  0  0  0  0  0  0
  162.4150  206.4390  150.4910 C   0  0  2  0  0  3  0  0  0  0  0  0
  161.8320  206.4780  149.0870 C   0  0  0  0  0  0  0  0  0  0  0  0
  161.0340  205.3460  147.0860 C   0  0  0  0  0  0  0  0  0  0  0  0
  161.8730  205.2990  151.3240 C   0  0  0  0  0  0  0  0  0  0  0  0
  160.8310  203.1270  152.7630 C   0  0  0  0  0  3  0  0  0  0  0  0
  161.5370  205.2960  148.3870 C   0  0  0  0  0  3  0  0  0  0  0  0
  160.7900  207.9630  151.6680 C   0  0  2  0  0  3  0  0  0  0  0  0
  162.3010  201.6700  151.5840 F   0  0  0  0  0  0  0  0  0  0  0  0
  161.9800  208.9120  149.0850 O   0  0  0  0  0  0  0  0  0  0  0  0
  160.7410  204.1980  146.4290 F   0  0  0  0  0  0  0  0  0  0  0  0
  160.4110  206.8850  152.6830 C   0  0  0  0  0  2  0  0  0  0  0  0
  162.2470  207.7850  151.2240 C   0  0  2  0  0  3  0  0  0  0  0  0
  162.3530  204.0010  151.0990 C   0  0  0  0  0  3  0  0  0  0  0  0
  160.8320  206.5780  146.4620 C   0  0  0  0  0  3  0  0  0  0  0  0
  160.8610  205.5070  152.2890 C   0  0  0  0  0  0  0  0  0  0  0  0
  160.3540  204.4170  153.0060 C   0  0  0  0  0  3  0  0  0  0  0  0
  162.7060  208.9240  150.3110 C   0  0  0  0  0  2  0  0  0  0  0  0
  161.6580  207.7170  148.4340 C   0  0  0  0  0  0  0  0  0  0  0  0
  161.1450  207.7620  147.1340 C   0  0  0  0  0  3  0  0  0  0  0  0
  161.5780  208.7030  154.3080 O   0  0  0  0  0  0  0  0  0  0  0  0
  161.0230  209.5850  153.5960 C   0  0  0  0  0  0  0  0  0  0  0  0
  160.5960  209.2770  152.2680 N   0  0  0  0  0  2  0  0  0  0  0  0
  158.0630  211.5160  155.1640 C   0  0  1  0  0  3  0  0  0  0  0  0
  160.4550  210.9410  155.6300 C   0  0  0  0  0  2  0  0  0  0  0  0
  160.0790  212.3080  152.2080 C   0  0  0  0  0  2  0  0  0  0  0  0
  156.7400  211.1750  155.4390 O   0  0  0  0  0  1  0  0  0  0  0  0
  158.9980  210.5460  155.8800 C   0  0  0  0  0  2  0  0  0  0  0  0
  159.7460  211.7080  153.3480 C   0  0  0  0  0  0  0  0  0  0  0  0
  160.7940  210.9650  154.1340 C   0  0  2  0  0  3  0  0  0  0  0  0
  158.2960  211.4740  153.6560 C   0  0  0  0  0  2  0  0  0  0  0  0
  1  6  1  0  0  0  0
  2  3  1  6  0  0  0
  2 13  1  0  0  0  0
  2  5  1  0  0  0  0
  4  7  1  0  0  0  0
  5 16  2  0  0  0  0
  6 17  2  0  0  0  0
  7  3  2  0  0  0  0
  8 23  1  1  0  0  0
  8 12  1  0  0  0  0
  9  1  1  0  0  0  0
 10 18  1  0  0  0  0
 11  4  1  0  0  0  0
 13 18  1  6  0  0  0
 13  8  1  0  0  0  0
 14  5  1  0  0  0  0
 14  1  2  0  0  0  0
 15  4  2  0  0  0  0
 15 20  1  0  0  0  0
 16 12  1  0  0  0  0
 16 17  1  0  0  0  0
 19 10  1  0  0  0  0
 19  3  1  0  0  0  0
 20 19  2  0  0  0  0
 22 21  2  0  0  0  0
 23 22  1  0  0  0  0
 24 27  1  6  0  0  0
 24 28  1  0  0  0  0
 25 28  1  0  0  0  0
 26 29  2  0  0  0  0
 29 31  1  0  0  0  0
 29 30  1  0  0  0  0
 30 22  1  6  0  0  0
 30 25  1  0  0  0  0
 31 24  1  0  0  0  0
M  END
>  <MODEL>
9

>  <REMARK>
 VINA RESULT:      -4.9      3.073      5.065
  Name = 
  2 active torsions:
  status: ('A' for Active; 'I' for Inactive)
    1  A    between atoms: C_5  and  C_30
    2  A    between atoms: C_10  and  N_16
                            x       y       z     vdW  Elec       q    Type
                         _______ _______ _______ _____ _____    ______ ____

>  <TORSDO>
F 2

$$$$
