=
 OpenBabel11122414293D

 34 40  0  0  1  0  0  0  0  0999 V2000
  160.9960  210.9860  150.9770 C   0  0  0  0  0  0  0  0  0  0  0  0
  161.9630  208.9560  149.7850 C   0  0  0  0  0  3  0  0  0  0  0  0
  156.7970  211.3720  155.9470 C   0  0  0  0  0  2  0  0  0  0  0  0
  160.0040  212.6690  152.4180 C   0  0  0  0  0  0  0  0  0  0  0  0
  159.7470  212.1730  154.8630 C   0  0  0  0  0  0  0  0  0  0  0  0
  158.9530  211.7060  157.2050 C   0  0  0  0  0  2  0  0  0  0  0  0
  157.4330  211.8090  157.2610 C   0  0  0  0  0  2  0  0  0  0  0  0
  157.0640  213.5630  154.6970 C   0  0  0  0  0  2  0  0  0  0  0  0
  161.4900  208.8250  151.9780 C   0  0  0  0  0  0  0  0  0  0  0  0
  160.6870  206.1250  153.0410 C   0  0  0  0  0  2  0  0  0  0  0  0
  160.2300  210.9790  154.6640 N   0  0  0  0  0  0  0  0  0  0  0  0
  157.8250  212.9850  153.5100 C   0  0  0  0  0  2  0  0  0  0  0  0
  161.0540  209.2050  153.2080 N   0  0  0  0  0  0  0  0  0  0  0  0
  162.2500  207.6950  150.2130 N   0  0  0  0  0  0  0  0  0  0  0  0
  159.3390  213.0660  153.7100 C   0  0  2  0  0  3  0  0  0  0  0  0
  156.0870  212.5380  155.2650 C   0  0  0  0  0  2  0  0  0  0  0  0
  162.0480  206.3790  152.3840 C   0  0  2  0  0  3  0  0  0  0  0  0
  160.5190  211.3760  152.2520 C   0  0  0  0  0  0  0  0  0  0  0  0
  159.4710  212.6130  156.1930 N   0  0  0  0  0  2  0  0  0  0  0  0
  160.5770  210.4850  153.3610 C   0  0  0  0  0  0  0  0  0  0  0  0
  160.4610  213.1730  150.1330 C   0  0  0  0  0  3  0  0  0  0  0  0
  160.3550  207.0460  154.2300 C   0  0  0  0  0  2  0  0  0  0  0  0
  159.9870  213.5270  151.3600 N   0  0  0  0  0  0  0  0  0  0  0  0
  161.2070  208.3130  154.3590 C   0  0  0  0  0  2  0  0  0  0  0  0
  161.9590  207.6160  151.5370 C   0  0  0  0  0  0  0  0  0  0  0  0
  160.9710  211.8900  149.9150 C   0  0  0  0  0  3  0  0  0  0  0  0
  161.4770  209.6920  150.8510 C   0  0  0  0  0  0  0  0  0  0  0  0
  162.4580  205.1690  151.5560 C   0  0  0  0  0  2  0  0  0  0  0  0
  161.5540  203.9870  151.8640 C   0  0  0  0  0  2  0  0  0  0  0  0
  161.4310  203.4570  148.5060 C   0  0  0  0  0  2  0  0  0  0  0  0
  160.6500  202.3510  150.4500 C   0  0  0  0  0  2  0  0  0  0  0  0
  160.6270  203.7750  150.7640 N   0  0  0  0  0  0  0  0  0  0  0  0
  160.7080  202.2180  148.9500 C   0  0  0  0  0  2  0  0  0  0  0  0
  161.1770  204.4680  149.6030 C   0  0  0  0  0  2  0  0  0  0  0  0
  1 18  1  0  0  0  0
  2 14  2  0  0  0  0
  2 27  1  0  0  0  0
  3  7  1  0  0  0  0
  4 15  1  0  0  0  0
  5 19  1  0  0  0  0
  6  7  1  0  0  0  0
  8 16  1  0  0  0  0
  9 13  1  0  0  0  0
 10 22  1  0  0  0  0
 11  5  2  0  0  0  0
 12  8  1  0  0  0  0
 13 20  1  0  0  0  0
 13 24  1  0  0  0  0
 14 25  1  0  0  0  0
 15 12  1  6  0  0  0
 15  5  1  0  0  0  0
 16  3  1  0  0  0  0
 17 28  1  6  0  0  0
 17 10  1  0  0  0  0
 18  4  1  0  0  0  0
 18 20  2  0  0  0  0
 19  6  1  0  0  0  0
 20 11  1  0  0  0  0
 21 23  1  0  0  0  0
 22 24  1  0  0  0  0
 23  4  2  0  0  0  0
 25  9  2  0  0  0  0
 25 17  1  0  0  0  0
 26 21  2  0  0  0  0
 26  1  1  0  0  0  0
 27  1  2  0  0  0  0
 27  9  1  0  0  0  0
 28 29  1  0  0  0  0
 30 33  1  0  0  0  0
 30 34  1  0  0  0  0
 31 32  1  0  0  0  0
 32 29  1  0  0  0  0
 33 31  1  0  0  0  0
 34 32  1  0  0  0  0
M  END
>  <MODEL>
1

>  <REMARK>
 VINA RESULT:      -7.5      0.000      0.000
  Name = 
  3 active torsions:
  status: ('A' for Active; 'I' for Inactive)
    1  A    between atoms: C_17  and  C_28
    2  A    between atoms: C_28  and  C_29
    3  A    between atoms: C_29  and  N_32
                            x       y       z     vdW  Elec       q    Type
                         _______ _______ _______ _____ _____    ______ ____

>  <TORSDO>
F 3

$$$$
=
 OpenBabel11122414293D

 34 40  0  0  1  0  0  0  0  0999 V2000
  161.1470  203.4990  150.9210 C   0  0  0  0  0  0  0  0  0  0  0  0
  160.9000  204.7790  153.1060 C   0  0  0  0  0  3  0  0  0  0  0  0
  160.2100  205.4210  144.7630 C   0  0  0  0  0  2  0  0  0  0  0  0
  161.4190  202.6420  148.6660 C   0  0  0  0  0  0  0  0  0  0  0  0
  162.3150  204.1660  146.8890 C   0  0  0  0  0  0  0  0  0  0  0  0
  162.7160  205.6310  144.8810 C   0  0  0  0  0  2  0  0  0  0  0  0
  161.4970  205.5930  143.9670 C   0  0  0  0  0  2  0  0  0  0  0  0
  160.3030  202.8980  145.0150 C   0  0  0  0  0  2  0  0  0  0  0  0
  161.5720  205.8700  151.2600 C   0  0  0  0  0  0  0  0  0  0  0  0
  160.8220  208.7780  151.0450 C   0  0  0  0  0  2  0  0  0  0  0  0
  162.3490  205.1410  147.7520 N   0  0  0  0  0  0  0  0  0  0  0  0
  160.2150  202.8810  146.5360 C   0  0  0  0  0  2  0  0  0  0  0  0
  161.9080  206.0780  149.9590 N   0  0  0  0  0  0  0  0  0  0  0  0
  161.0680  206.0940  153.4200 N   0  0  0  0  0  0  0  0  0  0  0  0
  161.5990  202.8660  147.1880 C   0  0  2  0  0  3  0  0  0  0  0  0
  159.5390  204.0880  144.4430 C   0  0  0  0  0  2  0  0  0  0  0  0
  161.6880  208.2340  152.1860 C   0  0  2  0  0  3  0  0  0  0  0  0
  161.4740  203.7190  149.5600 C   0  0  0  0  0  0  0  0  0  0  0  0
  162.8490  204.3610  145.5780 N   0  0  0  0  0  2  0  0  0  0  0  0
  161.8760  205.0050  149.1010 C   0  0  0  0  0  0  0  0  0  0  0  0
  160.7720  201.1750  150.4310 C   0  0  0  0  0  3  0  0  0  0  0  0
  161.3470  208.4800  149.6290 C   0  0  0  0  0  2  0  0  0  0  0  0
  161.0700  201.4060  149.1220 N   0  0  0  0  0  0  0  0  0  0  0  0
  162.4110  207.3820  149.5210 C   0  0  0  0  0  2  0  0  0  0  0  0
  161.4700  206.7530  152.3020 C   0  0  0  0  0  0  0  0  0  0  0  0
  160.7990  202.2210  151.3580 C   0  0  0  0  0  3  0  0  0  0  0  0
  161.1930  204.5970  151.7670 C   0  0  0  0  0  0  0  0  0  0  0  0
  161.3430  208.9480  153.4860 C   0  0  0  0  0  2  0  0  0  0  0  0
  161.8640  210.3750  153.4580 C   0  0  0  0  0  2  0  0  0  0  0  0
  158.7270  211.5870  152.9420 C   0  0  0  0  0  2  0  0  0  0  0  0
  159.8650  210.4490  154.6800 C   0  0  0  0  0  2  0  0  0  0  0  0
  160.8690  211.2750  154.0190 N   0  0  0  0  0  0  0  0  0  0  0  0
  158.5110  210.9930  154.3040 C   0  0  0  0  0  2  0  0  0  0  0  0
  160.2020  211.9270  152.8970 C   0  0  0  0  0  2  0  0  0  0  0  0
  1 26  1  0  0  0  0
  1 27  2  0  0  0  0
  2 14  2  0  0  0  0
  4 23  2  0  0  0  0
  4 18  1  0  0  0  0
  5 15  1  0  0  0  0
  5 11  2  0  0  0  0
  6 19  1  0  0  0  0
  7  3  1  0  0  0  0
  7  6  1  0  0  0  0
  8 12  1  0  0  0  0
  9 27  1  0  0  0  0
  9 25  2  0  0  0  0
 10 17  1  0  0  0  0
 11 20  1  0  0  0  0
 13  9  1  0  0  0  0
 15 12  1  6  0  0  0
 15  4  1  0  0  0  0
 16  3  1  0  0  0  0
 16  8  1  0  0  0  0
 17 25  1  0  0  0  0
 17 28  1  1  0  0  0
 18  1  1  0  0  0  0
 19  5  1  0  0  0  0
 20 18  2  0  0  0  0
 20 13  1  0  0  0  0
 21 26  2  0  0  0  0
 22 10  1  0  0  0  0
 23 21  1  0  0  0  0
 24 22  1  0  0  0  0
 24 13  1  0  0  0  0
 25 14  1  0  0  0  0
 27  2  1  0  0  0  0
 29 28  1  0  0  0  0
 29 32  1  0  0  0  0
 30 33  1  0  0  0  0
 32 31  1  0  0  0  0
 33 31  1  0  0  0  0
 34 30  1  0  0  0  0
 34 32  1  0  0  0  0
M  END
>  <MODEL>
2

>  <REMARK>
 VINA RESULT:      -7.4      2.451      9.518
  Name = 
  3 active torsions:
  status: ('A' for Active; 'I' for Inactive)
    1  A    between atoms: C_17  and  C_28
    2  A    between atoms: C_28  and  C_29
    3  A    between atoms: C_29  and  N_32
                            x       y       z     vdW  Elec       q    Type
                         _______ _______ _______ _____ _____    ______ ____

>  <TORSDO>
F 3

$$$$
=
 OpenBabel11122414293D

 34 40  0  0  1  0  0  0  0  0999 V2000
  161.7970  208.3890  149.6370 C   0  0  0  0  0  0  0  0  0  0  0  0
  161.8310  206.0830  148.5620 C   0  0  0  0  0  3  0  0  0  0  0  0
  159.0330  210.4360  155.1750 C   0  0  0  0  0  2  0  0  0  0  0  0
  161.6860  210.3920  151.0050 C   0  0  0  0  0  0  0  0  0  0  0  0
  161.7980  210.1650  153.4990 C   0  0  0  0  0  0  0  0  0  0  0  0
  161.3980  210.1330  155.9840 C   0  0  0  0  0  2  0  0  0  0  0  0
  160.0280  210.7270  156.2910 C   0  0  0  0  0  2  0  0  0  0  0  0
  159.6940  212.3370  153.6300 C   0  0  0  0  0  2  0  0  0  0  0  0
  161.8020  206.2540  150.8030 C   0  0  0  0  0  0  0  0  0  0  0  0
  160.4490  204.0350  152.3230 C   0  0  0  0  0  2  0  0  0  0  0  0
  161.8410  208.8690  153.3720 N   0  0  0  0  0  0  0  0  0  0  0  0
  159.9810  211.4680  152.4110 C   0  0  0  0  0  2  0  0  0  0  0  0
  161.7660  206.8340  152.0310 N   0  0  0  0  0  0  0  0  0  0  0  0
  161.8000  204.8270  149.0890 N   0  0  0  0  0  0  0  0  0  0  0  0
  161.4540  211.0660  152.3320 C   0  0  2  0  0  3  0  0  0  0  0  0
  158.5890  211.7230  154.4840 C   0  0  0  0  0  2  0  0  0  0  0  0
  161.6560  203.7910  151.4110 C   0  0  2  0  0  3  0  0  0  0  0  0
  161.7350  208.9940  150.9170 C   0  0  0  0  0  0  0  0  0  0  0  0
  161.9490  210.7560  154.7910 N   0  0  0  0  0  2  0  0  0  0  0  0
  161.7450  208.2070  152.1020 C   0  0  0  0  0  0  0  0  0  0  0  0
  161.7950  210.5730  148.6300 C   0  0  0  0  0  3  0  0  0  0  0  0
  160.6660  205.0890  153.4240 C   0  0  0  0  0  2  0  0  0  0  0  0
  161.7150  211.1400  149.8660 N   0  0  0  0  0  0  0  0  0  0  0  0
  161.8730  206.0160  153.2420 C   0  0  0  0  0  2  0  0  0  0  0  0
  161.7780  204.9330  150.4430 C   0  0  0  0  0  0  0  0  0  0  0  0
  161.8310  209.1830  148.4910 C   0  0  0  0  0  3  0  0  0  0  0  0
  161.8230  207.0040  149.5940 C   0  0  0  0  0  0  0  0  0  0  0  0
  161.4980  202.4630  150.6840 C   0  0  0  0  0  2  0  0  0  0  0  0
  160.0480  202.2500  150.2840 C   0  0  0  0  0  2  0  0  0  0  0  0
  160.9620  201.7050  147.0530 C   0  0  0  0  0  2  0  0  0  0  0  0
  161.2710  200.6160  149.1330 C   0  0  0  0  0  2  0  0  0  0  0  0
  159.9700  201.2680  149.2140 N   0  0  0  0  0  0  0  0  0  0  0  0
  161.6410  200.5200  147.6750 C   0  0  0  0  0  2  0  0  0  0  0  0
  159.7950  202.0090  147.9680 C   0  0  0  0  0  2  0  0  0  0  0  0
  1 18  1  0  0  0  0
  2 14  2  0  0  0  0
  2 27  1  0  0  0  0
  3  7  1  0  0  0  0
  4 15  1  0  0  0  0
  5 19  1  0  0  0  0
  6  7  1  0  0  0  0
  8 16  1  0  0  0  0
  9 13  1  0  0  0  0
 10 22  1  0  0  0  0
 11  5  2  0  0  0  0
 12  8  1  0  0  0  0
 13 20  1  0  0  0  0
 13 24  1  0  0  0  0
 14 25  1  0  0  0  0
 15 12  1  1  0  0  0
 15  5  1  0  0  0  0
 16  3  1  0  0  0  0
 17 28  1  6  0  0  0
 17 10  1  0  0  0  0
 18  4  1  0  0  0  0
 18 20  2  0  0  0  0
 19  6  1  0  0  0  0
 20 11  1  0  0  0  0
 21 23  1  0  0  0  0
 23  4  2  0  0  0  0
 24 22  1  0  0  0  0
 25  9  2  0  0  0  0
 25 17  1  0  0  0  0
 26 21  2  0  0  0  0
 26  1  1  0  0  0  0
 27  1  2  0  0  0  0
 27  9  1  0  0  0  0
 29 28  1  0  0  0  0
 30 33  1  0  0  0  0
 30 34  1  0  0  0  0
 31 32  1  0  0  0  0
 32 29  1  0  0  0  0
 33 31  1  0  0  0  0
 34 32  1  0  0  0  0
M  END
>  <MODEL>
3

>  <REMARK>
 VINA RESULT:      -7.3      1.814      2.913
  Name = 
  3 active torsions:
  status: ('A' for Active; 'I' for Inactive)
    1  A    between atoms: C_17  and  C_28
    2  A    between atoms: C_28  and  C_29
    3  A    between atoms: C_29  and  N_32
                            x       y       z     vdW  Elec       q    Type
                         _______ _______ _______ _____ _____    ______ ____

>  <TORSDO>
F 3

$$$$
=
 OpenBabel11122414293D

 34 40  0  0  1  0  0  0  0  0999 V2000
  161.1250  203.2390  150.8580 C   0  0  0  0  0  0  0  0  0  0  0  0
  160.8370  204.3560  153.1270 C   0  0  0  0  0  3  0  0  0  0  0  0
  160.2060  205.5790  144.8440 C   0  0  0  0  0  2  0  0  0  0  0  0
  161.4320  202.5490  148.5510 C   0  0  0  0  0  0  0  0  0  0  0  0
  162.3150  204.2120  146.8950 C   0  0  0  0  0  0  0  0  0  0  0  0
  162.7070  205.8220  145.0010 C   0  0  0  0  0  2  0  0  0  0  0  0
  161.4970  205.8290  144.0740 C   0  0  0  0  0  2  0  0  0  0  0  0
  160.3430  203.0460  144.9170 C   0  0  0  0  0  2  0  0  0  0  0  0
  161.5050  205.5870  151.3690 C   0  0  0  0  0  0  0  0  0  0  0  0
  160.7040  208.4900  151.3540 C   0  0  0  0  0  2  0  0  0  0  0  0
  162.3240  205.1240  147.8260 N   0  0  0  0  0  0  0  0  0  0  0  0
  160.2420  202.9190  146.4320 C   0  0  0  0  0  2  0  0  0  0  0  0
  161.8480  205.8930  150.0900 N   0  0  0  0  0  0  0  0  0  0  0  0
  160.9790  205.6480  153.5350 N   0  0  0  0  0  0  0  0  0  0  0  0
  161.6200  202.8810  147.0940 C   0  0  2  0  0  3  0  0  0  0  0  0
  159.5620  204.2600  144.4230 C   0  0  0  0  0  2  0  0  0  0  0  0
  161.5700  207.8810  152.4620 C   0  0  2  0  0  3  0  0  0  0  0  0
  161.4600  203.5610  149.5200 C   0  0  0  0  0  0  0  0  0  0  0  0
  162.8570  204.5090  145.6070 N   0  0  0  0  0  2  0  0  0  0  0  0
  161.8420  204.8830  149.1570 C   0  0  0  0  0  0  0  0  0  0  0  0
  160.7970  200.9500  150.2010 C   0  0  0  0  0  3  0  0  0  0  0  0
  161.2470  208.3020  149.9250 C   0  0  0  0  0  2  0  0  0  0  0  0
  161.1010  201.2780  148.9150 N   0  0  0  0  0  0  0  0  0  0  0  0
  162.3310  207.2330  149.7510 C   0  0  0  0  0  2  0  0  0  0  0  0
  161.3780  206.3910  152.4700 C   0  0  0  0  0  0  0  0  0  0  0  0
  160.7970  201.9280  151.2000 C   0  0  0  0  0  3  0  0  0  0  0  0
  161.1450  204.2740  151.7810 C   0  0  0  0  0  0  0  0  0  0  0  0
  161.2020  208.4940  153.8050 C   0  0  0  0  0  2  0  0  0  0  0  0
  161.6480  209.9460  153.8630 C   0  0  0  0  0  2  0  0  0  0  0  0
  161.9260  209.0290  157.1270 C   0  0  0  0  0  2  0  0  0  0  0  0
  162.8490  210.7020  155.7280 C   0  0  0  0  0  2  0  0  0  0  0  0
  161.5070  210.4520  155.2190 N   0  0  0  0  0  0  0  0  0  0  0  0
  162.9090  210.1630  157.1350 C   0  0  0  0  0  2  0  0  0  0  0  0
  160.9490  209.3690  156.0220 C   0  0  0  0  0  2  0  0  0  0  0  0
  1 26  1  0  0  0  0
  1 27  2  0  0  0  0
  2 14  2  0  0  0  0
  4 23  2  0  0  0  0
  4 18  1  0  0  0  0
  5 15  1  0  0  0  0
  5 11  2  0  0  0  0
  6 19  1  0  0  0  0
  7  3  1  0  0  0  0
  7  6  1  0  0  0  0
  8 12  1  0  0  0  0
  9 27  1  0  0  0  0
  9 25  2  0  0  0  0
 10 17  1  0  0  0  0
 11 20  1  0  0  0  0
 13  9  1  0  0  0  0
 15 12  1  6  0  0  0
 15  4  1  0  0  0  0
 16  3  1  0  0  0  0
 16  8  1  0  0  0  0
 17 25  1  0  0  0  0
 17 28  1  1  0  0  0
 18  1  1  0  0  0  0
 19  5  1  0  0  0  0
 20 18  2  0  0  0  0
 20 13  1  0  0  0  0
 21 26  2  0  0  0  0
 22 10  1  0  0  0  0
 23 21  1  0  0  0  0
 24 22  1  0  0  0  0
 24 13  1  0  0  0  0
 25 14  1  0  0  0  0
 27  2  1  0  0  0  0
 28 29  1  0  0  0  0
 29 32  1  0  0  0  0
 30 33  1  0  0  0  0
 31 33  1  0  0  0  0
 32 31  1  0  0  0  0
 32 34  1  0  0  0  0
 34 30  1  0  0  0  0
M  END
>  <MODEL>
4

>  <REMARK>
 VINA RESULT:      -7.1      2.975      9.602
  Name = 
  3 active torsions:
  status: ('A' for Active; 'I' for Inactive)
    1  A    between atoms: C_17  and  C_28
    2  A    between atoms: C_28  and  C_29
    3  A    between atoms: C_29  and  N_32
                            x       y       z     vdW  Elec       q    Type
                         _______ _______ _______ _____ _____    ______ ____

>  <TORSDO>
F 3

$$$$
=
 OpenBabel11122414293D

 34 40  0  0  1  0  0  0  0  0999 V2000
  161.8100  209.0410  149.4350 C   0  0  0  0  0  0  0  0  0  0  0  0
  161.7580  207.2340  147.6430 C   0  0  0  0  0  3  0  0  0  0  0  0
  159.0420  209.2320  155.3330 C   0  0  0  0  0  2  0  0  0  0  0  0
  161.7650  210.4680  151.3990 C   0  0  0  0  0  0  0  0  0  0  0  0
  161.8210  209.4070  153.6690 C   0  0  0  0  0  0  0  0  0  0  0  0
  161.3760  208.5580  155.9970 C   0  0  0  0  0  2  0  0  0  0  0  0
  160.0290  209.0800  156.4840 C   0  0  0  0  0  2  0  0  0  0  0  0
  159.8170  211.5080  154.5230 C   0  0  0  0  0  2  0  0  0  0  0  0
  161.6960  206.6400  149.8100 C   0  0  0  0  0  0  0  0  0  0  0  0
  160.2160  204.1080  150.4880 C   0  0  0  0  0  2  0  0  0  0  0  0
  161.8080  208.2290  153.1120 N   0  0  0  0  0  0  0  0  0  0  0  0
  160.0860  211.0880  153.0830 C   0  0  0  0  0  2  0  0  0  0  0  0
  161.6640  206.7730  151.1620 N   0  0  0  0  0  0  0  0  0  0  0  0
  161.6600  205.8770  147.7150 N   0  0  0  0  0  0  0  0  0  0  0  0
  161.5410  210.6640  152.8740 C   0  0  2  0  0  3  0  0  0  0  0  0
  158.6700  210.6960  155.1170 C   0  0  0  0  0  2  0  0  0  0  0  0
  161.4270  204.1270  149.5500 C   0  0  2  0  0  3  0  0  0  0  0  0
  161.7520  209.1810  150.8430 C   0  0  0  0  0  0  0  0  0  0  0  0
  161.9760  209.5190  155.0850 N   0  0  0  0  0  2  0  0  0  0  0  0
  161.7050  208.0400  151.6920 C   0  0  0  0  0  0  0  0  0  0  0  0
  161.9250  211.4340  149.2240 C   0  0  0  0  0  3  0  0  0  0  0  0
  160.4610  204.7160  151.8820 C   0  0  0  0  0  2  0  0  0  0  0  0
  161.8490  211.5530  150.5790 N   0  0  0  0  0  0  0  0  0  0  0  0
  161.7120  205.5900  152.0250 C   0  0  0  0  0  2  0  0  0  0  0  0
  161.6180  205.5210  149.0250 C   0  0  0  0  0  0  0  0  0  0  0  0
  161.9010  210.1720  148.6240 C   0  0  0  0  0  3  0  0  0  0  0  0
  161.7740  207.7520  148.9260 C   0  0  0  0  0  0  0  0  0  0  0  0
  161.2220  203.1310  148.4170 C   0  0  0  0  0  2  0  0  0  0  0  0
  161.4600  201.7140  148.9100 C   0  0  0  0  0  2  0  0  0  0  0  0
  160.6990  200.9320  145.6870 C   0  0  0  0  0  2  0  0  0  0  0  0
  161.6450  199.8140  147.5490 C   0  0  0  0  0  2  0  0  0  0  0  0
  160.6980  200.7760  148.1000 N   0  0  0  0  0  0  0  0  0  0  0  0
  161.2990  199.6170  146.0950 C   0  0  0  0  0  2  0  0  0  0  0  0
  160.1600  201.5270  146.9710 C   0  0  0  0  0  2  0  0  0  0  0  0
  1 18  1  0  0  0  0
  2 14  2  0  0  0  0
  2 27  1  0  0  0  0
  3  7  1  0  0  0  0
  4 15  1  0  0  0  0
  5 19  1  0  0  0  0
  6  7  1  0  0  0  0
  8 16  1  0  0  0  0
  9 13  1  0  0  0  0
 10 22  1  0  0  0  0
 11  5  2  0  0  0  0
 12  8  1  0  0  0  0
 13 20  1  0  0  0  0
 13 24  1  0  0  0  0
 14 25  1  0  0  0  0
 15 12  1  6  0  0  0
 15  5  1  0  0  0  0
 16  3  1  0  0  0  0
 17 28  1  6  0  0  0
 17 10  1  0  0  0  0
 18  4  1  0  0  0  0
 18 20  2  0  0  0  0
 19  6  1  0  0  0  0
 20 11  1  0  0  0  0
 21 23  1  0  0  0  0
 22 24  1  0  0  0  0
 23  4  2  0  0  0  0
 25 17  1  0  0  0  0
 25  9  2  0  0  0  0
 26 21  2  0  0  0  0
 26  1  1  0  0  0  0
 27  1  2  0  0  0  0
 27  9  1  0  0  0  0
 28 29  1  0  0  0  0
 30 33  1  0  0  0  0
 30 34  1  0  0  0  0
 31 32  1  0  0  0  0
 32 29  1  0  0  0  0
 33 31  1  0  0  0  0
 34 32  1  0  0  0  0
M  END
>  <MODEL>
5

>  <REMARK>
 VINA RESULT:      -6.8      1.984      3.400
  Name = 
  3 active torsions:
  status: ('A' for Active; 'I' for Inactive)
    1  A    between atoms: C_17  and  C_28
    2  A    between atoms: C_28  and  C_29
    3  A    between atoms: C_29  and  N_32
                            x       y       z     vdW  Elec       q    Type
                         _______ _______ _______ _____ _____    ______ ____

>  <TORSDO>
F 3

$$$$
=
 OpenBabel11122414293D

 34 40  0  0  1  0  0  0  0  0999 V2000
  156.4850  214.1410  149.5550 C   0  0  0  0  0  0  0  0  0  0  0  0
  157.2690  214.0470  147.1360 C   0  0  0  0  0  3  0  0  0  0  0  0
  158.7280  211.0740  154.8510 C   0  0  0  0  0  2  0  0  0  0  0  0
  156.1060  214.0990  151.9530 C   0  0  0  0  0  0  0  0  0  0  0  0
  158.0820  213.9460  153.4890 C   0  0  0  0  0  0  0  0  0  0  0  0
  159.8470  213.3080  155.1660 C   0  0  0  0  0  2  0  0  0  0  0  0
  159.4780  211.9810  155.8190 C   0  0  0  0  0  2  0  0  0  0  0  0
  156.4160  212.0680  155.1800 C   0  0  0  0  0  2  0  0  0  0  0  0
  158.7720  213.8190  148.7910 C   0  0  0  0  0  0  0  0  0  0  0  0
  161.1840  212.1110  148.2180 C   0  0  0  0  0  2  0  0  0  0  0  0
  158.8710  213.8720  152.4550 N   0  0  0  0  0  0  0  0  0  0  0  0
  156.1610  212.3820  153.7110 C   0  0  0  0  0  2  0  0  0  0  0  0
  159.2650  213.7230  150.0540 N   0  0  0  0  0  0  0  0  0  0  0  0
  158.4950  213.8400  146.5790 N   0  0  0  0  0  0  0  0  0  0  0  0
  156.5800  213.8090  153.3520 C   0  0  2  0  0  3  0  0  0  0  0  0
  157.2970  210.8300  155.3230 C   0  0  0  0  0  2  0  0  0  0  0  0
  160.8560  213.3700  147.4080 C   0  0  2  0  0  3  0  0  0  0  0  0
  156.9940  214.0160  150.8710 C   0  0  0  0  0  0  0  0  0  0  0  0
  158.6390  214.0310  154.8020 N   0  0  0  0  0  2  0  0  0  0  0  0
  158.3850  213.8330  151.1050 C   0  0  0  0  0  0  0  0  0  0  0  0
  154.2800  214.4530  150.4620 C   0  0  0  0  0  3  0  0  0  0  0  0
  161.3000  212.3250  149.7390 C   0  0  0  0  0  2  0  0  0  0  0  0
  154.7810  214.3120  151.7210 N   0  0  0  0  0  0  0  0  0  0  0  0
  160.7080  213.6300  150.2830 C   0  0  0  0  0  2  0  0  0  0  0  0
  159.4010  213.6980  147.5810 C   0  0  0  0  0  0  0  0  0  0  0  0
  155.1230  214.3640  149.3510 C   0  0  0  0  0  3  0  0  0  0  0  0
  157.3930  214.0320  148.5130 C   0  0  0  0  0  0  0  0  0  0  0  0
  161.2050  213.1510  145.9430 C   0  0  0  0  0  2  0  0  0  0  0  0
  162.6690  213.4740  145.6950 C   0  0  0  0  0  2  0  0  0  0  0  0
  161.7700  213.8790  142.4390 C   0  0  0  0  0  2  0  0  0  0  0  0
  163.7180  214.2300  143.7400 C   0  0  0  0  0  2  0  0  0  0  0  0
  163.0360  213.0900  144.3420 N   0  0  0  0  0  0  0  0  0  0  0  0
  163.1750  214.3990  142.3440 C   0  0  0  0  0  2  0  0  0  0  0  0
  161.7930  212.9060  143.5990 C   0  0  0  0  0  2  0  0  0  0  0  0
  1 18  1  0  0  0  0
  2 27  1  0  0  0  0
  3 16  1  0  0  0  0
  3  7  1  0  0  0  0
  4 15  1  0  0  0  0
  5 19  1  0  0  0  0
  6  7  1  0  0  0  0
  8 16  1  0  0  0  0
  9 13  1  0  0  0  0
 10 22  1  0  0  0  0
 11  5  2  0  0  0  0
 12  8  1  0  0  0  0
 13 24  1  0  0  0  0
 13 20  1  0  0  0  0
 14  2  2  0  0  0  0
 14 25  1  0  0  0  0
 15  5  1  0  0  0  0
 15 12  1  6  0  0  0
 17 28  1  6  0  0  0
 17 25  1  0  0  0  0
 17 10  1  0  0  0  0
 18 20  2  0  0  0  0
 18  4  1  0  0  0  0
 19  6  1  0  0  0  0
 20 11  1  0  0  0  0
 21 23  1  0  0  0  0
 22 24  1  0  0  0  0
 23  4  2  0  0  0  0
 25  9  2  0  0  0  0
 26  1  1  0  0  0  0
 26 21  2  0  0  0  0
 27  9  1  0  0  0  0
 27  1  2  0  0  0  0
 29 28  1  0  0  0  0
 30 34  1  0  0  0  0
 31 32  1  0  0  0  0
 32 29  1  0  0  0  0
 33 30  1  0  0  0  0
 33 31  1  0  0  0  0
 34 32  1  0  0  0  0
M  END
>  <MODEL>
6

>  <REMARK>
 VINA RESULT:      -4.8      5.012      7.270
  Name = 
  3 active torsions:
  status: ('A' for Active; 'I' for Inactive)
    1  A    between atoms: C_17  and  C_28
    2  A    between atoms: C_28  and  C_29
    3  A    between atoms: C_29  and  N_32
                            x       y       z     vdW  Elec       q    Type
                         _______ _______ _______ _____ _____    ______ ____

>  <TORSDO>
F 3

$$$$
=
 OpenBabel11122414293D

 34 40  0  0  1  0  0  0  0  0999 V2000
  160.8190  212.1950  150.1860 C   0  0  0  0  0  0  0  0  0  0  0  0
  161.8950  210.6190  148.5030 C   0  0  0  0  0  3  0  0  0  0  0  0
  156.9100  210.9480  155.2510 C   0  0  0  0  0  2  0  0  0  0  0  0
  159.7650  213.3740  152.0290 C   0  0  0  0  0  0  0  0  0  0  0  0
  159.7030  212.2870  154.2870 C   0  0  0  0  0  0  0  0  0  0  0  0
  159.0970  211.1960  156.4730 C   0  0  0  0  0  2  0  0  0  0  0  0
  157.5800  211.1240  156.6080 C   0  0  0  0  0  2  0  0  0  0  0  0
  156.8980  213.3900  154.5620 C   0  0  0  0  0  2  0  0  0  0  0  0
  161.5690  209.9210  150.6150 C   0  0  0  0  0  0  0  0  0  0  0  0
  161.0840  206.9780  151.0190 C   0  0  0  0  0  2  0  0  0  0  0  0
  160.2810  211.2310  153.7870 N   0  0  0  0  0  0  0  0  0  0  0  0
  157.6360  213.1930  153.2430 C   0  0  0  0  0  2  0  0  0  0  0  0
  161.1750  209.9510  151.9150 N   0  0  0  0  0  0  0  0  0  0  0  0
  162.3220  209.3290  148.6010 N   0  0  0  0  0  0  0  0  0  0  0  0
  159.1450  213.3810  153.4010 C   0  0  2  0  0  3  0  0  0  0  0  0
  156.0550  212.1630  154.8980 C   0  0  0  0  0  2  0  0  0  0  0  0
  162.3740  207.5210  150.3930 C   0  0  2  0  0  3  0  0  0  0  0  0
  160.3860  212.2190  151.5350 C   0  0  0  0  0  0  0  0  0  0  0  0
  159.4680  212.3670  155.6940 N   0  0  0  0  0  2  0  0  0  0  0  0
  160.5930  211.1010  152.3910 C   0  0  0  0  0  0  0  0  0  0  0  0
  160.0350  214.4530  149.9190 C   0  0  0  0  0  3  0  0  0  0  0  0
  160.7410  207.5500  152.4060 C   0  0  0  0  0  2  0  0  0  0  0  0
  159.6050  214.4530  151.2120 N   0  0  0  0  0  0  0  0  0  0  0  0
  161.4800  208.8310  152.8090 C   0  0  0  0  0  2  0  0  0  0  0  0
  162.1200  208.9080  149.8770 C   0  0  0  0  0  0  0  0  0  0  0  0
  160.6460  213.3180  149.3780 C   0  0  0  0  0  3  0  0  0  0  0  0
  161.4090  211.0250  149.7320 C   0  0  0  0  0  0  0  0  0  0  0  0
  162.8430  206.5930  149.2820 C   0  0  0  0  0  2  0  0  0  0  0  0
  161.6590  206.1150  148.4580 C   0  0  0  0  0  2  0  0  0  0  0  0
  161.8640  204.3310  145.5680 C   0  0  0  0  0  2  0  0  0  0  0  0
  160.6880  206.2410  146.3290 C   0  0  0  0  0  2  0  0  0  0  0  0
  161.9590  206.2460  147.0410 N   0  0  0  0  0  0  0  0  0  0  0  0
  160.8420  205.3390  145.1310 C   0  0  0  0  0  2  0  0  0  0  0  0
  162.6680  205.0340  146.6420 C   0  0  0  0  0  2  0  0  0  0  0  0
  1 18  1  0  0  0  0
  2 14  2  0  0  0  0
  2 27  1  0  0  0  0
  3  7  1  0  0  0  0
  4 15  1  0  0  0  0
  5 19  1  0  0  0  0
  6  7  1  0  0  0  0
  8 16  1  0  0  0  0
  9 13  1  0  0  0  0
 10 22  1  0  0  0  0
 11  5  2  0  0  0  0
 12  8  1  0  0  0  0
 13 20  1  0  0  0  0
 13 24  1  0  0  0  0
 14 25  1  0  0  0  0
 15 12  1  6  0  0  0
 15  5  1  0  0  0  0
 16  3  1  0  0  0  0
 17 28  1  6  0  0  0
 17 10  1  0  0  0  0
 18  4  1  0  0  0  0
 18 20  2  0  0  0  0
 19  6  1  0  0  0  0
 20 11  1  0  0  0  0
 21 23  1  0  0  0  0
 22 24  1  0  0  0  0
 23  4  2  0  0  0  0
 25 17  1  0  0  0  0
 25  9  2  0  0  0  0
 26 21  2  0  0  0  0
 26  1  1  0  0  0  0
 27  1  2  0  0  0  0
 27  9  1  0  0  0  0
 29 28  1  0  0  0  0
 30 34  1  0  0  0  0
 31 32  1  0  0  0  0
 32 29  1  0  0  0  0
 33 30  1  0  0  0  0
 33 31  1  0  0  0  0
 34 32  1  0  0  0  0
M  END
>  <MODEL>
7

>  <REMARK>
 VINA RESULT:      -4.6      1.846      2.283
  Name = 
  3 active torsions:
  status: ('A' for Active; 'I' for Inactive)
    1  A    between atoms: C_17  and  C_28
    2  A    between atoms: C_28  and  C_29
    3  A    between atoms: C_29  and  N_32
                            x       y       z     vdW  Elec       q    Type
                         _______ _______ _______ _____ _____    ______ ____

>  <TORSDO>
F 3

$$$$
