=
 OpenBabel11122414033D

 28 32  0  0  1  0  0  0  0  0999 V2000
  160.0600  211.6010  151.1570 C   0  0  0  0  0  0  0  0  0  0  0  0
  160.3880  207.3170  149.5350 O   0  0  0  0  0  0  0  0  0  0  0  0
  162.4650  210.8060  156.6090 C   0  0  0  0  0  1  0  0  0  0  0  0
  162.5020  211.4320  149.8000 C   0  0  0  0  0  3  0  0  0  0  0  0
  161.8090  208.5740  155.6890 C   0  0  2  0  0  3  0  0  0  0  0  0
  158.8440  211.8210  152.0010 C   0  0  0  0  0  2  0  0  0  0  0  0
  162.7100  207.7860  150.2330 O   0  0  0  0  0  0  0  0  0  0  0  0
  161.3850  207.2170  150.6530 S   0  0  0  0  0  0  0  0  0  0  0  0
  160.8220  205.2050  152.4190 C   0  0  1  0  0  3  0  0  0  0  0  0
  160.7510  207.9470  152.1420 C   0  0  1  0  0  3  0  0  0  0  0  0
  158.9610  212.9760  155.5570 O   0  0  0  0  0  1  0  0  0  0  0  0
  161.2120  209.6570  153.7270 C   0  0  2  0  0  3  0  0  0  0  0  0
  161.2170  205.9940  153.6070 N   0  0  0  0  0  2  0  0  0  0  0  0
  161.6350  205.5170  151.1480 C   0  0  0  0  0  2  0  0  0  0  0  0
  158.6810  212.0940  154.5120 C   0  0  2  0  0  3  0  0  0  0  0  0
  160.9040  210.4900  151.3720 C   0  0  0  0  0  0  0  0  0  0  0  0
  161.3100  209.9840  156.0710 C   0  0  2  0  0  3  0  0  0  0  0  0
  160.9260  203.7280  152.7360 C   0  0  0  0  0  1  0  0  0  0  0  0
  159.2280  210.7060  154.8490 C   0  0  0  0  0  2  0  0  0  0  0  0
  162.1410  210.4430  150.7180 C   0  0  0  0  0  3  0  0  0  0  0  0
  160.4280  212.5920  150.2390 C   0  0  0  0  0  3  0  0  0  0  0  0
  161.6390  212.5000  149.5510 C   0  0  0  0  0  3  0  0  0  0  0  0
  159.2330  212.6640  153.2080 C   0  0  0  0  0  2  0  0  0  0  0  0
  161.0870  208.3370  154.3950 C   0  0  1  0  0  3  0  0  0  0  0  0
  160.7570  210.6360  154.7870 C   0  0  2  0  0  3  0  0  0  0  0  0
  161.5510  207.3980  153.3180 C   0  0  2  0  0  3  0  0  0  0  0  0
  161.3590  207.5660  156.7270 C   0  0  0  0  0  1  0  0  0  0  0  0
  160.5170  209.4560  152.3990 C   0  0  1  0  0  3  0  0  0  0  0  0
  1 16  1  0  0  0  0
  1  6  1  0  0  0  0
  2  8  2  0  0  0  0
  4 20  1  0  0  0  0
  5 17  1  0  0  0  0
  5 27  1  1  0  0  0
  6 23  1  0  0  0  0
  7  8  2  0  0  0  0
  8 14  1  0  0  0  0
  9 18  1  1  0  0  0
  9 13  1  0  0  0  0
 10  8  1  6  0  0  0
 10 28  1  0  0  0  0
 10 26  1  0  0  0  0
 12 24  1  0  0  0  0
 12 25  1  0  0  0  0
 14  9  1  0  0  0  0
 15 19  1  0  0  0  0
 15 11  1  0  0  0  0
 16 28  1  0  0  0  0
 17  3  1  0  0  0  0
 20 16  2  0  0  0  0
 21  1  2  0  0  0  0
 22  4  2  0  0  0  0
 22 21  1  0  0  0  0
 23 15  1  0  0  0  0
 24  5  1  0  0  0  0
 25 19  1  0  0  0  0
 25 17  1  0  0  0  0
 26 13  1  0  0  0  0
 26 24  1  0  0  0  0
 28 12  1  0  0  0  0
M  END
>  <MODEL>
1

>  <REMARK>
 VINA RESULT:      -4.5      0.000      0.000
  Name = 
  0 active torsions:
  status: ('A' for Active; 'I' for Inactive)
                            x       y       z     vdW  Elec       q    Type
                         _______ _______ _______ _____ _____    ______ ____

>  <TORSDO>
F 0

$$$$
=
 OpenBabel11122414033D

 28 32  0  0  1  0  0  0  0  0999 V2000
  161.1140  210.1710  155.6430 C   0  0  0  0  0  0  0  0  0  0  0  0
  163.3100  209.9290  151.6160 O   0  0  0  0  0  0  0  0  0  0  0  0
  155.9960  212.7660  153.8500 C   0  0  0  0  0  1  0  0  0  0  0  0
  160.5060  207.6730  154.5370 C   0  0  0  0  0  3  0  0  0  0  0  0
  157.7340  213.1160  152.0850 C   0  0  2  0  0  3  0  0  0  0  0  0
  161.2590  211.5000  156.3150 C   0  0  0  0  0  2  0  0  0  0  0  0
  161.1640  208.8180  151.1040 O   0  0  0  0  0  0  0  0  0  0  0  0
  161.9110  210.1210  151.1050 S   0  0  0  0  0  0  0  0  0  0  0  0
  161.6590  212.2880  149.4540 C   0  0  1  0  0  3  0  0  0  0  0  0
  161.0750  211.4060  152.0000 C   0  0  1  0  0  3  0  0  0  0  0  0
  158.3700  213.6800  157.2600 O   0  0  0  0  0  1  0  0  0  0  0  0
  159.1610  211.7990  153.3530 C   0  0  2  0  0  3  0  0  0  0  0  0
  160.3390  212.6810  149.9970 N   0  0  0  0  0  2  0  0  0  0  0  0
  161.9140  210.7690  149.4380 C   0  0  0  0  0  2  0  0  0  0  0  0
  159.5420  213.3400  156.5840 C   0  0  2  0  0  3  0  0  0  0  0  0
  160.7450  210.0800  154.2830 C   0  0  0  0  0  0  0  0  0  0  0  0
  157.3720  213.3370  153.5690 C   0  0  2  0  0  3  0  0  0  0  0  0
  161.8130  212.8410  148.0530 C   0  0  0  0  0  1  0  0  0  0  0  0
  159.3670  213.6000  155.0860 C   0  0  0  0  0  2  0  0  0  0  0  0
  160.4040  208.8280  153.7580 C   0  0  0  0  0  3  0  0  0  0  0  0
  161.2120  209.0110  156.4200 C   0  0  0  0  0  3  0  0  0  0  0  0
  160.9240  207.7630  155.8650 C   0  0  0  0  0  3  0  0  0  0  0  0
  159.9140  211.8960  156.9100 C   0  0  0  0  0  2  0  0  0  0  0  0
  159.1740  212.7100  152.1810 C   0  0  1  0  0  3  0  0  0  0  0  0
  158.4300  212.5940  154.4120 C   0  0  2  0  0  3  0  0  0  0  0  0
  159.9000  211.8860  151.1550 C   0  0  2  0  0  3  0  0  0  0  0  0
  157.6110  214.4190  151.3220 C   0  0  0  0  0  1  0  0  0  0  0  0
  160.5970  211.3410  153.4720 C   0  0  1  0  0  3  0  0  0  0  0  0
  1  6  1  0  0  0  0
  1 21  1  0  0  0  0
  4 22  1  0  0  0  0
  5 27  1  6  0  0  0
  5 24  1  0  0  0  0
  5 17  1  0  0  0  0
  6 23  1  0  0  0  0
  7  8  2  0  0  0  0
  8  2  2  0  0  0  0
  9 18  1  6  0  0  0
  9 13  1  0  0  0  0
 10  8  1  6  0  0  0
 10 28  1  0  0  0  0
 12 28  1  0  0  0  0
 12 25  1  0  0  0  0
 13 26  1  0  0  0  0
 14  9  1  0  0  0  0
 14  8  1  0  0  0  0
 15 23  1  0  0  0  0
 15 11  1  0  0  0  0
 16  1  2  0  0  0  0
 17  3  1  0  0  0  0
 17 25  1  0  0  0  0
 19 15  1  0  0  0  0
 20 16  1  0  0  0  0
 20  4  2  0  0  0  0
 22 21  2  0  0  0  0
 24 12  1  0  0  0  0
 25 19  1  0  0  0  0
 26 10  1  0  0  0  0
 26 24  1  0  0  0  0
 28 16  1  0  0  0  0
M  END
>  <MODEL>
2

>  <REMARK>
 VINA RESULT:      -3.7      2.341      5.556
  Name = 
  0 active torsions:
  status: ('A' for Active; 'I' for Inactive)
                            x       y       z     vdW  Elec       q    Type
                         _______ _______ _______ _____ _____    ______ ____

>  <TORSDO>
F 0

$$$$
=
 OpenBabel11122414033D

 28 32  0  0  1  0  0  0  0  0999 V2000
  161.6430  206.0830  152.6240 C   0  0  0  0  0  0  0  0  0  0  0  0
  163.4370  207.8450  148.7810 O   0  0  0  0  0  0  0  0  0  0  0  0
  157.8710  210.5240  154.1090 C   0  0  0  0  0  1  0  0  0  0  0  0
  160.0780  205.1520  150.4980 C   0  0  0  0  0  3  0  0  0  0  0  0
  159.5490  211.4070  152.4770 C   0  0  2  0  0  3  0  0  0  0  0  0
  162.3140  206.5750  153.8680 C   0  0  0  0  0  2  0  0  0  0  0  0
  161.0130  207.9690  148.3260 O   0  0  0  0  0  0  0  0  0  0  0  0
  162.2050  208.6990  148.8730 S   0  0  0  0  0  0  0  0  0  0  0  0
  162.7570  211.3790  148.9100 C   0  0  1  0  0  3  0  0  0  0  0  0
  161.9620  209.2930  150.5290 C   0  0  1  0  0  3  0  0  0  0  0  0
  160.5270  208.3570  156.6300 O   0  0  0  0  0  1  0  0  0  0  0  0
  160.3960  209.2550  152.3160 C   0  0  2  0  0  3  0  0  0  0  0  0
  161.7110  211.6880  149.9110 N   0  0  0  0  0  2  0  0  0  0  0  0
  162.4030  210.2210  147.9560 C   0  0  0  0  0  2  0  0  0  0  0  0
  161.4530  208.2120  155.5960 C   0  0  2  0  0  3  0  0  0  0  0  0
  161.2220  206.9820  151.6200 C   0  0  0  0  0  0  0  0  0  0  0  0
  159.3510  210.7280  153.8490 C   0  0  2  0  0  3  0  0  0  0  0  0
  163.0660  212.6220  148.1040 C   0  0  0  0  0  1  0  0  0  0  0  0
  161.3420  209.3980  154.6350 C   0  0  0  0  0  2  0  0  0  0  0  0
  160.4050  206.5070  150.5870 C   0  0  0  0  0  3  0  0  0  0  0  0
  161.3100  204.7260  152.5330 C   0  0  0  0  0  3  0  0  0  0  0  0
  160.5420  204.2590  151.4640 C   0  0  0  0  0  3  0  0  0  0  0  0
  161.2480  206.8600  154.9180 C   0  0  0  0  0  2  0  0  0  0  0  0
  160.7220  210.6510  151.9300 C   0  0  1  0  0  3  0  0  0  0  0  0
  160.0660  209.3620  153.7890 C   0  0  2  0  0  3  0  0  0  0  0  0
  161.0370  210.5030  150.4680 C   0  0  2  0  0  3  0  0  0  0  0  0
  159.9150  212.8660  152.6690 C   0  0  0  0  0  1  0  0  0  0  0  0
  161.5460  208.4470  151.7580 C   0  0  1  0  0  3  0  0  0  0  0  0
  1  6  1  0  0  0  0
  2  8  2  0  0  0  0
  4 20  2  0  0  0  0
  4 22  1  0  0  0  0
  5 27  1  1  0  0  0
  5 17  1  0  0  0  0
  6 23  1  0  0  0  0
  7  8  2  0  0  0  0
  9 18  1  6  0  0  0
  9 13  1  0  0  0  0
 10  8  1  6  0  0  0
 10 28  1  0  0  0  0
 12 25  1  0  0  0  0
 13 26  1  0  0  0  0
 14  8  1  0  0  0  0
 14  9  1  0  0  0  0
 15 11  1  0  0  0  0
 16 28  1  0  0  0  0
 16  1  2  0  0  0  0
 17  3  1  0  0  0  0
 19 15  1  0  0  0  0
 20 16  1  0  0  0  0
 21  1  1  0  0  0  0
 22 21  2  0  0  0  0
 23 15  1  0  0  0  0
 24 12  1  0  0  0  0
 24  5  1  0  0  0  0
 25 17  1  0  0  0  0
 25 19  1  0  0  0  0
 26 10  1  0  0  0  0
 26 24  1  0  0  0  0
 28 12  1  0  0  0  0
M  END
>  <MODEL>
3

>  <REMARK>
 VINA RESULT:      -3.2      2.089      5.357
  Name = 
  0 active torsions:
  status: ('A' for Active; 'I' for Inactive)
                            x       y       z     vdW  Elec       q    Type
                         _______ _______ _______ _____ _____    ______ ____

>  <TORSDO>
F 0

$$$$
=
 OpenBabel11122414033D

 28 32  0  0  1  0  0  0  0  0999 V2000
  160.9930  208.4330  155.3050 C   0  0  0  0  0  0  0  0  0  0  0  0
  157.7350  211.4520  156.4740 O   0  0  0  0  0  0  0  0  0  0  0  0
  163.0810  211.0750  150.3250 C   0  0  0  0  0  1  0  0  0  0  0  0
  162.1780  210.2690  157.0550 C   0  0  0  0  0  3  0  0  0  0  0  0
  160.8320  212.0320  150.8580 C   0  0  2  0  0  3  0  0  0  0  0  0
  160.5360  207.4380  154.2850 C   0  0  0  0  0  2  0  0  0  0  0  0
  159.7280  212.8950  156.2650 O   0  0  0  0  0  0  0  0  0  0  0  0
  158.5370  212.3240  155.5510 S   0  0  0  0  0  0  0  0  0  0  0  0
  157.0550  213.3650  153.5000 C   0  0  1  0  0  3  0  0  0  0  0  0
  158.9630  211.4560  154.0620 C   0  0  1  0  0  3  0  0  0  0  0  0
  162.1830  206.9660  150.9590 O   0  0  0  0  0  1  0  0  0  0  0  0
  160.8390  210.7450  152.7870 C   0  0  2  0  0  3  0  0  0  0  0  0
  158.1320  213.1990  152.4980 N   0  0  0  0  0  2  0  0  0  0  0  0
  157.5540  213.6800  154.9240 C   0  0  0  0  0  2  0  0  0  0  0  0
  161.1430  207.2870  151.8320 C   0  0  2  0  0  3  0  0  0  0  0  0
  160.7700  209.8160  155.1240 C   0  0  0  0  0  0  0  0  0  0  0  0
  161.6190  210.7410  150.5500 C   0  0  2  0  0  3  0  0  0  0  0  0
  156.1060  214.4520  153.0450 C   0  0  0  0  0  1  0  0  0  0  0  0
  160.5480  208.6440  151.4480 C   0  0  0  0  0  2  0  0  0  0  0  0
  161.4050  210.7210  155.9830 C   0  0  0  0  0  3  0  0  0  0  0  0
  161.7710  207.9850  156.3790 C   0  0  0  0  0  3  0  0  0  0  0  0
  162.3500  208.8990  157.2600 C   0  0  0  0  0  3  0  0  0  0  0  0
  161.6530  207.2330  153.2700 C   0  0  0  0  0  2  0  0  0  0  0  0
  159.9270  211.5790  151.9650 C   0  0  1  0  0  3  0  0  0  0  0  0
  161.4770  209.8160  151.7770 C   0  0  2  0  0  3  0  0  0  0  0  0
  159.3200  212.4860  152.9970 C   0  0  2  0  0  3  0  0  0  0  0  0
  160.0120  212.4390  149.6500 C   0  0  0  0  0  1  0  0  0  0  0  0
  159.9700  210.2860  153.9370 C   0  0  1  0  0  3  0  0  0  0  0  0
  1 21  1  0  0  0  0
  3 17  1  0  0  0  0
  4 22  1  0  0  0  0
  5 27  1  6  0  0  0
  5 24  1  0  0  0  0
  6  1  1  0  0  0  0
  8  7  2  0  0  0  0
  8  2  2  0  0  0  0
  9 18  1  6  0  0  0
  9 14  1  0  0  0  0
 10  8  1  1  0  0  0
 11 15  1  0  0  0  0
 12 28  1  0  0  0  0
 13 26  1  0  0  0  0
 13  9  1  0  0  0  0
 14  8  1  0  0  0  0
 15 23  1  0  0  0  0
 16  1  2  0  0  0  0
 16 20  1  0  0  0  0
 17  5  1  0  0  0  0
 17 25  1  0  0  0  0
 19 25  1  0  0  0  0
 19 15  1  0  0  0  0
 20  4  2  0  0  0  0
 21 22  2  0  0  0  0
 23  6  1  0  0  0  0
 24 12  1  0  0  0  0
 24 26  1  0  0  0  0
 25 12  1  0  0  0  0
 26 10  1  0  0  0  0
 28 10  1  0  0  0  0
 28 16  1  0  0  0  0
M  END
>  <MODEL>
4

>  <REMARK>
 VINA RESULT:      -2.8      2.448      6.793
  Name = 
  0 active torsions:
  status: ('A' for Active; 'I' for Inactive)
                            x       y       z     vdW  Elec       q    Type
                         _______ _______ _______ _____ _____    ______ ____

>  <TORSDO>
F 0

$$$$
=
 OpenBabel11122414033D

 28 32  0  0  1  0  0  0  0  0999 V2000
  158.8320  212.9460  150.6580 C   0  0  0  0  0  0  0  0  0  0  0  0
  160.7370  208.8230  149.9770 O   0  0  0  0  0  0  0  0  0  0  0  0
  160.0710  213.6830  156.4940 C   0  0  0  0  0  1  0  0  0  0  0  0
  161.4590  213.3980  149.8050 C   0  0  0  0  0  3  0  0  0  0  0  0
  160.3110  211.2590  155.9230 C   0  0  2  0  0  3  0  0  0  0  0  0
  157.4470  212.8700  151.2190 C   0  0  0  0  0  2  0  0  0  0  0  0
  162.6060  210.1010  150.9640 O   0  0  0  0  0  0  0  0  0  0  0  0
  161.4420  209.1960  151.2500 S   0  0  0  0  0  0  0  0  0  0  0  0
  161.1000  207.3570  153.2460 C   0  0  1  0  0  3  0  0  0  0  0  0
  160.3060  209.8700  152.4360 C   0  0  1  0  0  3  0  0  0  0  0  0
  156.4210  214.4530  154.4490 O   0  0  0  0  0  1  0  0  0  0  0  0
  159.8850  211.8280  153.7150 C   0  0  2  0  0  3  0  0  0  0  0  0
  160.9720  208.3780  154.3100 N   0  0  0  0  0  2  0  0  0  0  0  0
  162.0540  207.7460  152.1000 C   0  0  0  0  0  2  0  0  0  0  0  0
  156.6500  213.4010  153.5620 C   0  0  2  0  0  3  0  0  0  0  0  0
  159.8890  212.2040  151.2270 C   0  0  0  0  0  0  0  0  0  0  0  0
  159.3550  212.4700  155.9330 C   0  0  2  0  0  3  0  0  0  0  0  0
  161.5510  206.0470  153.8560 C   0  0  0  0  0  1  0  0  0  0  0  0
  157.4840  212.3180  154.2510 C   0  0  0  0  0  2  0  0  0  0  0  0
  161.2010  212.4730  150.8190 C   0  0  0  0  0  3  0  0  0  0  0  0
  159.0960  213.8740  149.6440 C   0  0  0  0  0  3  0  0  0  0  0  0
  160.4040  214.0890  149.2080 C   0  0  0  0  0  3  0  0  0  0  0  0
  157.2940  213.9430  152.2890 C   0  0  0  0  0  2  0  0  0  0  0  0
  159.9990  210.6370  154.5950 C   0  0  1  0  0  3  0  0  0  0  0  0
  158.9410  212.7370  154.4710 C   0  0  2  0  0  3  0  0  0  0  0  0
  160.9440  209.7650  153.8170 C   0  0  2  0  0  3  0  0  0  0  0  0
  159.9490  210.3040  157.0420 C   0  0  0  0  0  1  0  0  0  0  0  0
  159.5960  211.2430  152.3510 C   0  0  1  0  0  3  0  0  0  0  0  0
  1  6  1  0  0  0  0
  1 16  1  0  0  0  0
  2  8  2  0  0  0  0
  4 20  1  0  0  0  0
  5 17  1  0  0  0  0
  5 27  1  1  0  0  0
  6 23  1  0  0  0  0
  7  8  2  0  0  0  0
  8 14  1  0  0  0  0
  9 18  1  1  0  0  0
  9 13  1  0  0  0  0
 10  8  1  6  0  0  0
 10 26  1  0  0  0  0
 12 25  1  0  0  0  0
 12 24  1  0  0  0  0
 14  9  1  0  0  0  0
 15 19  1  0  0  0  0
 15 11  1  0  0  0  0
 16 28  1  0  0  0  0
 17  3  1  0  0  0  0
 19 25  1  0  0  0  0
 20 16  2  0  0  0  0
 21  1  2  0  0  0  0
 22 21  1  0  0  0  0
 22  4  2  0  0  0  0
 23 15  1  0  0  0  0
 24  5  1  0  0  0  0
 25 17  1  0  0  0  0
 26 13  1  0  0  0  0
 26 24  1  0  0  0  0
 28 10  1  0  0  0  0
 28 12  1  0  0  0  0
M  END
>  <MODEL>
5

>  <REMARK>
 VINA RESULT:      -2.5      1.785      2.490
  Name = 
  0 active torsions:
  status: ('A' for Active; 'I' for Inactive)
                            x       y       z     vdW  Elec       q    Type
                         _______ _______ _______ _____ _____    ______ ____

>  <TORSDO>
F 0

$$$$
=
 OpenBabel11122414033D

 28 32  0  0  1  0  0  0  0  0999 V2000
  159.8590  213.0950  151.0970 C   0  0  0  0  0  0  0  0  0  0  0  0
  160.0620  212.4600  155.6420 O   0  0  0  0  0  0  0  0  0  0  0  0
  160.6530  207.4300  149.2470 C   0  0  0  0  0  1  0  0  0  0  0  0
  157.2330  212.6850  151.9770 C   0  0  0  0  0  3  0  0  0  0  0  0
  161.4120  207.6120  151.6240 C   0  0  2  0  0  3  0  0  0  0  0  0
  161.2060  213.2270  150.4600 C   0  0  0  0  0  2  0  0  0  0  0  0
  158.3190  210.8430  154.9690 O   0  0  0  0  0  0  0  0  0  0  0  0
  159.7860  211.0440  155.2230 S   0  0  0  0  0  0  0  0  0  0  0  0
  161.6700  209.2730  156.1170 C   0  0  1  0  0  3  0  0  0  0  0  0
  160.8050  210.5750  153.8460 C   0  0  1  0  0  3  0  0  0  0  0  0
  162.4490  210.9790  147.7400 O   0  0  0  0  0  1  0  0  0  0  0  0
  160.6720  209.8090  151.6000 C   0  0  2  0  0  3  0  0  0  0  0  0
  161.6720  208.4810  154.8660 N   0  0  0  0  0  2  0  0  0  0  0  0
  160.3030  209.8840  156.4810 C   0  0  0  0  0  2  0  0  0  0  0  0
  162.4460  211.5660  149.0060 C   0  0  2  0  0  3  0  0  0  0  0  0
  159.5790  212.0410  151.9940 C   0  0  0  0  0  0  0  0  0  0  0  0
  161.6000  208.1480  150.1890 C   0  0  2  0  0  3  0  0  0  0  0  0
  162.1600  208.4110  157.2610 C   0  0  0  0  0  1  0  0  0  0  0  0
  162.5500  210.4790  150.0780 C   0  0  0  0  0  2  0  0  0  0  0  0
  158.2530  211.8250  152.3900 C   0  0  0  0  0  3  0  0  0  0  0  0
  158.8330  213.9520  150.6830 C   0  0  0  0  0  3  0  0  0  0  0  0
  157.5260  213.7570  151.1330 C   0  0  0  0  0  3  0  0  0  0  0  0
  161.2060  212.4460  149.1520 C   0  0  0  0  0  2  0  0  0  0  0  0
  161.4730  208.8740  152.4300 C   0  0  1  0  0  3  0  0  0  0  0  0
  161.2670  209.6540  150.2180 C   0  0  2  0  0  3  0  0  0  0  0  0
  160.8510  209.0520  153.7860 C   0  0  2  0  0  3  0  0  0  0  0  0
  162.5680  206.7030  151.9930 C   0  0  0  0  0  1  0  0  0  0  0  0
  160.6840  211.0970  152.3930 C   0  0  1  0  0  3  0  0  0  0  0  0
  1 16  1  0  0  0  0
  3 17  1  0  0  0  0
  4 20  1  0  0  0  0
  5 27  1  1  0  0  0
  5 24  1  0  0  0  0
  6  1  1  0  0  0  0
  7  8  2  0  0  0  0
  8  2  2  0  0  0  0
  8 14  1  0  0  0  0
  9 14  1  0  0  0  0
  9 18  1  1  0  0  0
 10  8  1  1  0  0  0
 11 15  1  0  0  0  0
 12 28  1  0  0  0  0
 12 24  1  0  0  0  0
 13  9  1  0  0  0  0
 15 23  1  0  0  0  0
 15 19  1  0  0  0  0
 16 20  2  0  0  0  0
 16 28  1  0  0  0  0
 17 25  1  0  0  0  0
 17  5  1  0  0  0  0
 19 25  1  0  0  0  0
 21  1  2  0  0  0  0
 21 22  1  0  0  0  0
 22  4  2  0  0  0  0
 23  6  1  0  0  0  0
 24 26  1  0  0  0  0
 25 12  1  0  0  0  0
 26 10  1  0  0  0  0
 26 13  1  0  0  0  0
 28 10  1  0  0  0  0
M  END
>  <MODEL>
6

>  <REMARK>
 VINA RESULT:      -2.5      2.185      5.189
  Name = 
  0 active torsions:
  status: ('A' for Active; 'I' for Inactive)
                            x       y       z     vdW  Elec       q    Type
                         _______ _______ _______ _____ _____    ______ ____

>  <TORSDO>
F 0

$$$$
