=
 OpenBabel11122414083D

 28 32  0  0  1  0  0  0  0  0999 V2000
  161.1940  208.5810  155.3760 C   0  0  0  0  0  0  0  0  0  0  0  0
  158.1540  210.6590  154.0310 O   0  0  0  0  0  0  0  0  0  0  0  0
  161.3960  208.5910  149.0430 O   0  0  0  0  0  0  0  0  0  0  0  0
  162.9210  210.4000  156.6270 C   0  0  0  0  0  3  0  0  0  0  0  0
  162.0130  210.6340  150.0380 N   0  0  0  0  0  0  0  0  0  0  0  0
  160.3460  207.5430  154.7150 C   0  0  0  0  0  2  0  0  0  0  0  0
  158.9350  212.7790  155.0010 O   0  0  0  0  0  0  0  0  0  0  0  0
  158.9040  211.9340  153.7590 S   0  0  0  0  0  0  0  0  0  0  0  0
  158.5350  212.7100  151.2590 C   0  0  0  0  0  0  0  0  0  0  0  0
  160.5860  211.5930  153.2460 C   0  0  2  0  0  3  0  0  0  0  0  0
  162.3670  205.9250  152.1290 O   0  0  0  0  0  0  0  0  0  0  0  0
  161.9920  209.8450  152.2930 C   0  0  2  0  0  3  0  0  0  0  0  0
  159.6600  211.7930  150.8880 C   0  0  0  0  0  2  0  0  0  0  0  0
  158.1250  212.8060  152.4850 N   0  0  0  0  0  0  0  0  0  0  0  0
  161.4890  206.6760  152.6280 C   0  0  0  0  0  0  0  0  0  0  0  0
  161.5090  209.7990  154.7370 C   0  0  0  0  0  0  0  0  0  0  0  0
  161.6590  209.2710  150.0710 C   0  0  0  0  0  0  0  0  0  0  0  0
  157.8580  213.4290  150.2350 N   0  0  0  0  0  1  0  0  0  0  0  0
  160.7470  207.6260  151.7460 C   0  0  0  0  0  2  0  0  0  0  0  0
  162.3870  210.6950  155.3710 C   0  0  0  0  0  3  0  0  0  0  0  0
  161.7370  208.2930  156.6330 C   0  0  0  0  0  3  0  0  0  0  0  0
  162.5920  209.2010  157.2610 C   0  0  0  0  0  3  0  0  0  0  0  0
  161.2000  206.5870  154.0240 N   0  0  0  0  0  2  0  0  0  0  0  0
  162.0830  211.1160  151.4140 C   0  0  2  0  0  3  0  0  0  0  0  0
  161.5860  208.7630  151.3870 N   0  0  0  0  0  0  0  0  0  0  0  0
  160.8820  211.9970  151.8040 C   0  0  2  0  0  3  0  0  0  0  0  0
  162.1870  211.4440  148.8430 C   0  0  0  0  0  1  0  0  0  0  0  0
  160.9530  210.1210  153.3740 C   0  0  1  0  0  3  0  0  0  0  0  0
  1 21  1  0  0  0  0
  3 17  2  0  0  0  0
  4 22  1  0  0  0  0
  5 17  1  0  0  0  0
  6  1  1  0  0  0  0
  8  2  2  0  0  0  0
  8  7  2  0  0  0  0
  9 14  2  0  0  0  0
 10 28  1  0  0  0  0
 10  8  1  6  0  0  0
 11 15  2  0  0  0  0
 12 25  1  6  0  0  0
 12 28  1  0  0  0  0
 13  9  1  0  0  0  0
 14  8  1  0  0  0  0
 15 23  1  0  0  0  0
 16 20  1  0  0  0  0
 16  1  2  0  0  0  0
 17 25  1  0  0  0  0
 18  9  1  0  0  0  0
 19 15  1  0  0  0  0
 20  4  2  0  0  0  0
 21 22  2  0  0  0  0
 23  6  1  0  0  0  0
 24  5  1  6  0  0  0
 24 26  1  0  0  0  0
 24 12  1  0  0  0  0
 25 19  1  0  0  0  0
 26 13  1  6  0  0  0
 26 10  1  0  0  0  0
 27  5  1  0  0  0  0
 28 16  1  1  0  0  0
M  END
>  <MODEL>
1

>  <REMARK>
 VINA RESULT:      -4.2      0.000      0.000
  Name = 
  0 active torsions:
  status: ('A' for Active; 'I' for Inactive)
                            x       y       z     vdW  Elec       q    Type
                         _______ _______ _______ _____ _____    ______ ____

>  <TORSDO>
F 0

$$$$
=
 OpenBabel11122414083D

 28 32  0  0  1  0  0  0  0  0999 V2000
  157.6790  213.7520  152.8030 C   0  0  0  0  0  0  0  0  0  0  0  0
  160.3240  213.5280  155.6880 O   0  0  0  0  0  0  0  0  0  0  0  0
  162.3890  209.9480  150.9350 O   0  0  0  0  0  0  0  0  0  0  0  0
  155.3780  212.4390  153.7180 C   0  0  0  0  0  3  0  0  0  0  0  0
  160.9510  208.9970  152.5380 N   0  0  0  0  0  0  0  0  0  0  0  0
  158.8650  214.4530  152.2240 C   0  0  0  0  0  2  0  0  0  0  0  0
  158.7900  212.4240  157.2610 O   0  0  0  0  0  0  0  0  0  0  0  0
  159.8780  212.2050  156.2480 S   0  0  0  0  0  0  0  0  0  0  0  0
  161.9110  210.5190  156.3680 C   0  0  0  0  0  0  0  0  0  0  0  0
  159.2600  211.1340  154.9520 C   0  0  2  0  0  3  0  0  0  0  0  0
  159.8000  212.7140  149.1430 O   0  0  0  0  0  0  0  0  0  0  0  0
  159.3530  210.7730  152.5440 C   0  0  2  0  0  3  0  0  0  0  0  0
  161.6170  210.1820  154.9380 C   0  0  0  0  0  2  0  0  0  0  0  0
  161.2180  211.4120  157.0010 N   0  0  0  0  0  0  0  0  0  0  0  0
  159.8650  213.0790  150.3450 C   0  0  0  0  0  0  0  0  0  0  0  0
  157.7960  212.5000  153.4420 C   0  0  0  0  0  0  0  0  0  0  0  0
  161.3420  210.0040  151.6330 C   0  0  0  0  0  0  0  0  0  0  0  0
  163.0170  209.9000  157.0140 N   0  0  0  0  0  1  0  0  0  0  0  0
  160.8700  212.4480  151.2510 C   0  0  0  0  0  2  0  0  0  0  0  0
  156.6320  211.8480  153.8830 C   0  0  0  0  0  3  0  0  0  0  0  0
  156.4180  214.3350  152.6390 C   0  0  0  0  0  3  0  0  0  0  0  0
  155.2710  213.6860  153.1000 C   0  0  0  0  0  3  0  0  0  0  0  0
  158.9920  214.1090  150.8150 N   0  0  0  0  0  2  0  0  0  0  0  0
  159.7870  209.4800  153.2750 C   0  0  2  0  0  3  0  0  0  0  0  0
  160.4540  211.1030  151.6300 N   0  0  0  0  0  0  0  0  0  0  0  0
  160.1190  209.8920  154.7200 C   0  0  2  0  0  3  0  0  0  0  0  0
  161.6390  207.7370  152.7670 C   0  0  0  0  0  1  0  0  0  0  0  0
  159.1420  211.8430  153.6100 C   0  0  1  0  0  3  0  0  0  0  0  0
  1 16  1  0  0  0  0
  2  8  2  0  0  0  0
  3 17  2  0  0  0  0
  4 20  1  0  0  0  0
  5 27  1  0  0  0  0
  6  1  1  0  0  0  0
  8 14  1  0  0  0  0
  8  7  2  0  0  0  0
  9 14  2  0  0  0  0
  9 18  1  0  0  0  0
 10  8  1  1  0  0  0
 11 15  2  0  0  0  0
 12 25  1  6  0  0  0
 12 24  1  0  0  0  0
 12 28  1  0  0  0  0
 13  9  1  0  0  0  0
 15 23  1  0  0  0  0
 15 19  1  0  0  0  0
 16 20  2  0  0  0  0
 17  5  1  0  0  0  0
 19 25  1  0  0  0  0
 21  1  2  0  0  0  0
 21 22  1  0  0  0  0
 22  4  2  0  0  0  0
 23  6  1  0  0  0  0
 24  5  1  6  0  0  0
 24 26  1  0  0  0  0
 25 17  1  0  0  0  0
 26 13  1  6  0  0  0
 26 10  1  0  0  0  0
 28 16  1  6  0  0  0
 28 10  1  0  0  0  0
M  END
>  <MODEL>
2

>  <REMARK>
 VINA RESULT:      -2.5      2.605      5.727
  Name = 
  0 active torsions:
  status: ('A' for Active; 'I' for Inactive)
                            x       y       z     vdW  Elec       q    Type
                         _______ _______ _______ _____ _____    ______ ____

>  <TORSDO>
F 0

$$$$
