=
 OpenBabel11122413303D

 31 35  0  0  1  0  0  0  0  0999 V2000
  161.9500  209.7310  156.4560 C   0  0  2  0  0  3  0  0  0  0  0  0
  162.0560  208.9620  152.6640 C   0  0  2  0  0  3  0  0  0  0  0  0
  161.5830  207.7700  151.8570 C   0  0  0  0  0  0  0  0  0  0  0  0
  161.0290  205.4100  151.6920 C   0  0  0  0  0  0  0  0  0  0  0  0
  161.5510  208.9360  154.1150 C   0  0  1  0  0  3  0  0  0  0  0  0
  160.5110  210.2260  156.5430 C   0  0  0  0  0  2  0  0  0  0  0  0
  161.4370  206.5080  152.4530 C   0  0  0  0  0  3  0  0  0  0  0  0
  160.2530  210.6740  152.0860 C   0  0  2  0  0  3  0  0  0  0  0  0
  162.7640  210.5280  157.2590 O   0  0  0  0  0  1  0  0  0  0  0  0
  161.5410  209.1430  149.8450 O   0  0  0  0  0  0  0  0  0  0  0  0
  160.8640  204.0810  152.3370 C   0  0  0  0  0  1  0  0  0  0  0  0
  159.8270  210.7100  153.5500 C   0  0  0  0  0  2  0  0  0  0  0  0
  161.7420  210.3080  151.9710 C   0  0  2  0  0  3  0  0  0  0  0  0
  162.4420  209.7950  155.0140 C   0  0  0  0  0  2  0  0  0  0  0  0
  160.7770  205.5600  150.3270 C   0  0  0  0  0  3  0  0  0  0  0  0
  160.0700  209.3540  154.2100 C   0  0  2  0  0  3  0  0  0  0  0  0
  159.6000  209.3650  155.6660 C   0  0  0  0  0  2  0  0  0  0  0  0
  162.1780  210.2350  150.5070 C   0  0  0  0  0  2  0  0  0  0  0  0
  161.3630  207.9070  150.4720 C   0  0  0  0  0  0  0  0  0  0  0  0
  160.9450  206.8060  149.7170 C   0  0  0  0  0  3  0  0  0  0  0  0
  157.8880  212.2340  152.4170 O   0  0  0  0  0  0  0  0  0  0  0  0
  158.8070  212.7120  151.6950 C   0  0  0  0  0  0  0  0  0  0  0  0
  160.0110  211.9760  151.4780 N   0  0  0  0  0  2  0  0  0  0  0  0
  157.5330  213.3270  148.5390 C   0  0  2  0  0  3  0  0  0  0  0  0
  157.2040  214.3170  150.6960 C   0  0  0  0  0  3  0  0  0  0  0  0
  160.6910  214.4530  149.9340 O   0  0  0  0  0  0  0  0  0  0  0  0
  156.8730  213.4050  147.2480 N   0  0  0  0  0  1  0  0  0  0  0  0
  156.7240  213.9920  149.5420 N   0  0  0  0  0  0  0  0  0  0  0  0
  159.5100  214.1700  149.8190 C   0  0  0  0  0  0  0  0  0  0  0  0
  158.6450  214.0510  151.0460 C   0  0  2  0  0  3  0  0  0  0  0  0
  158.9310  213.9450  148.4480 C   0  0  0  0  0  2  0  0  0  0  0  0
  1  6  1  0  0  0  0
  1  9  1  1  0  0  0
  2  3  1  6  0  0  0
  2  5  1  0  0  0  0
  3  7  1  0  0  0  0
  4 11  1  0  0  0  0
  4  7  2  0  0  0  0
  5 16  1  0  0  0  0
  5 14  1  1  0  0  0
  8 23  1  1  0  0  0
  8 12  1  0  0  0  0
 10 19  1  0  0  0  0
 10 18  1  0  0  0  0
 13 18  1  6  0  0  0
 13  8  1  0  0  0  0
 13  2  1  0  0  0  0
 14  1  1  0  0  0  0
 15  4  1  0  0  0  0
 16 12  1  1  0  0  0
 16 17  1  0  0  0  0
 17  6  1  0  0  0  0
 19  3  2  0  0  0  0
 20 15  2  0  0  0  0
 20 19  1  0  0  0  0
 22 21  2  0  0  0  0
 23 22  1  0  0  0  0
 24 27  1  6  0  0  0
 24 28  1  0  0  0  0
 25 30  1  0  0  0  0
 28 25  2  0  0  0  0
 29 26  2  0  0  0  0
 29 30  1  0  0  0  0
 30 22  1  6  0  0  0
 31 24  1  0  0  0  0
 31 29  1  0  0  0  0
M  END
>  <MODEL>
1

>  <REMARK>
 VINA RESULT:      -6.8      0.000      0.000
  Name = 
  2 active torsions:
  status: ('A' for Active; 'I' for Inactive)
    1  A    between atoms: C_5  and  C_30
    2  A    between atoms: C_10  and  N_16
                            x       y       z     vdW  Elec       q    Type
                         _______ _______ _______ _____ _____    ______ ____

>  <TORSDO>
F 2

$$$$
=
 OpenBabel11122413303D

 31 35  0  0  1  0  0  0  0  0999 V2000
  160.9110  205.5010  145.2340 C   0  0  2  0  0  3  0  0  0  0  0  0
  160.4780  205.7870  149.0700 C   0  0  2  0  0  3  0  0  0  0  0  0
  160.7810  204.8230  150.2000 C   0  0  0  0  0  0  0  0  0  0  0  0
  161.0940  202.5590  151.0250 C   0  0  0  0  0  0  0  0  0  0  0  0
  161.0750  205.3360  147.7280 C   0  0  1  0  0  3  0  0  0  0  0  0
  162.3930  205.8460  145.1510 C   0  0  0  0  0  2  0  0  0  0  0  0
  160.8440  203.4410  149.9700 C   0  0  0  0  0  3  0  0  0  0  0  0
  162.3930  207.4530  149.3410 C   0  0  2  0  0  3  0  0  0  0  0  0
  160.2320  206.1110  144.1810 O   0  0  0  0  0  1  0  0  0  0  0  0
  160.8180  206.6790  151.7790 O   0  0  0  0  0  0  0  0  0  0  0  0
  161.1740  201.0980  150.7670 C   0  0  0  0  0  1  0  0  0  0  0  0
  162.9180  207.0630  147.9620 C   0  0  0  0  0  2  0  0  0  0  0  0
  160.8730  207.2420  149.4130 C   0  0  2  0  0  3  0  0  0  0  0  0
  160.3310  205.9860  146.5590 C   0  0  0  0  0  2  0  0  0  0  0  0
  161.2670  203.0510  152.3210 C   0  0  0  0  0  3  0  0  0  0  0  0
  162.5910  205.6020  147.6600 C   0  0  2  0  0  3  0  0  0  0  0  0
  163.1570  205.1870  146.3000 C   0  0  0  0  0  2  0  0  0  0  0  0
  160.3340  207.5970  150.8000 C   0  0  0  0  0  2  0  0  0  0  0  0
  160.9200  205.3100  151.5150 C   0  0  0  0  0  0  0  0  0  0  0  0
  161.1780  204.4230  152.5660 C   0  0  0  0  0  3  0  0  0  0  0  0
  161.3470  209.6900  147.9130 O   0  0  0  0  0  0  0  0  0  0  0  0
  162.1490  209.9240  148.8600 C   0  0  0  0  0  0  0  0  0  0  0  0
  162.7180  208.8480  149.6060 N   0  0  0  0  0  2  0  0  0  0  0  0
  160.5720  212.8020  147.7680 C   0  0  2  0  0  3  0  0  0  0  0  0
  161.3850  212.0450  149.8910 C   0  0  0  0  0  3  0  0  0  0  0  0
  164.1030  211.9760  147.5740 O   0  0  0  0  0  0  0  0  0  0  0  0
  159.7260  213.8870  147.3060 N   0  0  0  0  0  1  0  0  0  0  0  0
  160.5180  212.7210  149.2140 N   0  0  0  0  0  0  0  0  0  0  0  0
  162.9620  212.0970  147.9880 C   0  0  0  0  0  0  0  0  0  0  0  0
  162.5230  211.3300  149.2090 C   0  0  2  0  0  3  0  0  0  0  0  0
  162.0060  213.0130  147.2730 C   0  0  0  0  0  2  0  0  0  0  0  0
  1  9  1  6  0  0  0
  1 14  1  0  0  0  0
  2 13  1  0  0  0  0
  2  3  1  1  0  0  0
  3 19  1  0  0  0  0
  4 15  2  0  0  0  0
  5 14  1  6  0  0  0
  5  2  1  0  0  0  0
  6  1  1  0  0  0  0
  6 17  1  0  0  0  0
  7  3  2  0  0  0  0
  7  4  1  0  0  0  0
  8 13  1  0  0  0  0
  8 23  1  6  0  0  0
 11  4  1  0  0  0  0
 12  8  1  0  0  0  0
 13 18  1  1  0  0  0
 15 20  1  0  0  0  0
 16 17  1  6  0  0  0
 16  5  1  0  0  0  0
 16 12  1  0  0  0  0
 18 10  1  0  0  0  0
 19 10  1  0  0  0  0
 19 20  2  0  0  0  0
 21 22  2  0  0  0  0
 22 23  1  0  0  0  0
 24 27  1  1  0  0  0
 24 28  1  0  0  0  0
 26 29  2  0  0  0  0
 28 25  2  0  0  0  0
 29 30  1  0  0  0  0
 30 22  1  6  0  0  0
 30 25  1  0  0  0  0
 31 24  1  0  0  0  0
 31 29  1  0  0  0  0
M  END
>  <MODEL>
2

>  <REMARK>
 VINA RESULT:      -6.6      3.701      6.387
  Name = 
  2 active torsions:
  status: ('A' for Active; 'I' for Inactive)
    1  A    between atoms: C_5  and  C_30
    2  A    between atoms: C_10  and  N_16
                            x       y       z     vdW  Elec       q    Type
                         _______ _______ _______ _____ _____    ______ ____

>  <TORSDO>
F 2

$$$$
=
 OpenBabel11122413303D

 31 35  0  0  1  0  0  0  0  0999 V2000
  161.8410  210.2270  155.1320 C   0  0  2  0  0  3  0  0  0  0  0  0
  162.2910  209.3310  151.3930 C   0  0  2  0  0  3  0  0  0  0  0  0
  161.7540  208.1910  150.5510 C   0  0  0  0  0  0  0  0  0  0  0  0
  160.8970  205.9250  150.3540 C   0  0  0  0  0  0  0  0  0  0  0  0
  161.6170  209.4210  152.7710 C   0  0  1  0  0  3  0  0  0  0  0  0
  160.4860  210.9170  155.0350 C   0  0  0  0  0  2  0  0  0  0  0  0
  161.3620  206.9810  151.1430 C   0  0  0  0  0  3  0  0  0  0  0  0
  160.8280  211.2560  150.5730 C   0  0  2  0  0  3  0  0  0  0  0  0
  162.6570  210.9280  156.0170 O   0  0  0  0  0  1  0  0  0  0  0  0
  162.1460  209.4930  148.5300 O   0  0  0  0  0  0  0  0  0  0  0  0
  160.4710  204.6530  150.9930 C   0  0  0  0  0  1  0  0  0  0  0  0
  160.2390  211.3960  151.9730 C   0  0  0  0  0  2  0  0  0  0  0  0
  162.2530  210.6850  150.6470 C   0  0  2  0  0  3  0  0  0  0  0  0
  162.5060  210.1770  153.7600 C   0  0  0  0  0  2  0  0  0  0  0  0
  160.8340  206.0660  148.9660 C   0  0  0  0  0  3  0  0  0  0  0  0
  160.2090  210.0420  152.6780 C   0  0  2  0  0  3  0  0  0  0  0  0
  159.5740  210.1630  154.0650 C   0  0  0  0  0  2  0  0  0  0  0  0
  162.8470  210.5070  149.2490 C   0  0  0  0  0  2  0  0  0  0  0  0
  161.7220  208.3130  149.1480 C   0  0  0  0  0  0  0  0  0  0  0  0
  161.2470  207.2570  148.3630 C   0  0  0  0  0  3  0  0  0  0  0  0
  160.4200  211.7130  147.7870 O   0  0  0  0  0  0  0  0  0  0  0  0
  160.6220  212.7200  148.5210 C   0  0  0  0  0  0  0  0  0  0  0  0
  160.8450  212.5590  149.9220 N   0  0  0  0  0  2  0  0  0  0  0  0
  159.9980  213.5580  145.2240 C   0  0  2  0  0  3  0  0  0  0  0  0
  159.3030  214.4530  147.3360 C   0  0  0  0  0  3  0  0  0  0  0  0
  162.8740  214.4530  147.2530 O   0  0  0  0  0  0  0  0  0  0  0  0
  159.6000  213.7350  143.8390 N   0  0  0  0  0  1  0  0  0  0  0  0
  159.0400  214.2110  146.0950 N   0  0  0  0  0  0  0  0  0  0  0  0
  161.7270  214.2360  146.9010 C   0  0  0  0  0  0  0  0  0  0  0  0
  160.6390  214.0970  147.9350 C   0  0  2  0  0  3  0  0  0  0  0  0
  161.4110  214.1100  145.4340 C   0  0  0  0  0  2  0  0  0  0  0  0
  1  9  1  1  0  0  0
  2  3  1  6  0  0  0
  2  5  1  0  0  0  0
  3  7  1  0  0  0  0
  4 11  1  0  0  0  0
  4  7  2  0  0  0  0
  5 14  1  1  0  0  0
  6  1  1  0  0  0  0
  8 23  1  1  0  0  0
  8 13  1  0  0  0  0
  8 12  1  0  0  0  0
 10 19  1  0  0  0  0
 10 18  1  0  0  0  0
 13 18  1  6  0  0  0
 13  2  1  0  0  0  0
 14  1  1  0  0  0  0
 15  4  1  0  0  0  0
 16 12  1  1  0  0  0
 16  5  1  0  0  0  0
 16 17  1  0  0  0  0
 17  6  1  0  0  0  0
 19  3  2  0  0  0  0
 20 15  2  0  0  0  0
 20 19  1  0  0  0  0
 21 22  2  0  0  0  0
 22 23  1  0  0  0  0
 24 27  1  6  0  0  0
 24 31  1  0  0  0  0
 24 28  1  0  0  0  0
 25 30  1  0  0  0  0
 28 25  2  0  0  0  0
 29 26  2  0  0  0  0
 29 30  1  0  0  0  0
 30 22  1  6  0  0  0
 31 29  1  0  0  0  0
M  END
>  <MODEL>
3

>  <REMARK>
 VINA RESULT:      -5.7      2.101      2.626
  Name = 
  2 active torsions:
  status: ('A' for Active; 'I' for Inactive)
    1  A    between atoms: C_5  and  C_30
    2  A    between atoms: C_10  and  N_16
                            x       y       z     vdW  Elec       q    Type
                         _______ _______ _______ _____ _____    ______ ____

>  <TORSDO>
F 2

$$$$
=
 OpenBabel11122413303D

 31 35  0  0  1  0  0  0  0  0999 V2000
  161.3860  205.2670  144.7500 C   0  0  2  0  0  3  0  0  0  0  0  0
  160.4810  205.0650  148.5080 C   0  0  2  0  0  3  0  0  0  0  0  0
  160.7300  203.9980  149.5560 C   0  0  0  0  0  0  0  0  0  0  0  0
  161.1380  201.6810  150.1630 C   0  0  0  0  0  0  0  0  0  0  0  0
  161.2690  204.8200  147.2110 C   0  0  1  0  0  3  0  0  0  0  0  0
  162.8330  205.7250  144.8930 C   0  0  0  0  0  2  0  0  0  0  0  0
  160.9400  202.6610  149.1870 C   0  0  0  0  0  3  0  0  0  0  0  0
  162.2010  206.8200  149.1990 C   0  0  2  0  0  3  0  0  0  0  0  0
  160.7860  205.9470  143.6920 O   0  0  0  0  0  1  0  0  0  0  0  0
  160.4220  205.6510  151.3190 O   0  0  0  0  0  0  0  0  0  0  0  0
  161.3740  200.2700  149.7600 C   0  0  0  0  0  1  0  0  0  0  0  0
  162.9160  206.6350  147.8640 C   0  0  0  0  0  2  0  0  0  0  0  0
  160.7060  206.4940  149.0540 C   0  0  2  0  0  3  0  0  0  0  0  0
  160.6150  205.5490  146.0360 C   0  0  0  0  0  2  0  0  0  0  0  0
  161.1140  202.0270  151.5160 C   0  0  0  0  0  3  0  0  0  0  0  0
  162.7540  205.2000  147.3660 C   0  0  2  0  0  3  0  0  0  0  0  0
  163.5100  204.9910  146.0520 C   0  0  0  0  0  2  0  0  0  0  0  0
  159.9800  206.6420  150.3920 C   0  0  0  0  0  2  0  0  0  0  0  0
  160.6710  204.3340  150.9230 C   0  0  0  0  0  0  0  0  0  0  0  0
  160.8800  203.3510  151.8960 C   0  0  0  0  0  3  0  0  0  0  0  0
  162.3990  207.6440  151.9230 O   0  0  0  0  0  0  0  0  0  0  0  0
  162.4750  208.5380  151.0350 C   0  0  0  0  0  0  0  0  0  0  0  0
  162.3710  208.1940  149.6530 N   0  0  0  0  0  2  0  0  0  0  0  0
  160.1710  210.5650  152.6310 C   0  0  2  0  0  3  0  0  0  0  0  0
  162.5180  210.1680  152.9020 C   0  0  0  0  0  3  0  0  0  0  0  0
  161.9530  211.2140  149.5340 O   0  0  0  0  0  0  0  0  0  0  0  0
  159.1340  211.2290  153.3990 N   0  0  0  0  0  1  0  0  0  0  0  0
  161.3750  210.4520  153.4310 N   0  0  0  0  0  0  0  0  0  0  0  0
  161.7030  210.8660  150.6760 C   0  0  0  0  0  0  0  0  0  0  0  0
  162.6650  209.9730  151.4150 C   0  0  2  0  0  3  0  0  0  0  0  0
  160.4320  211.3340  151.3330 C   0  0  0  0  0  2  0  0  0  0  0  0
  1  9  1  6  0  0  0
  1  6  1  0  0  0  0
  1 14  1  0  0  0  0
  2 13  1  0  0  0  0
  2  3  1  1  0  0  0
  3 19  1  0  0  0  0
  4 15  2  0  0  0  0
  5 14  1  6  0  0  0
  5 16  1  0  0  0  0
  5  2  1  0  0  0  0
  6 17  1  0  0  0  0
  7  3  2  0  0  0  0
  7  4  1  0  0  0  0
  8 23  1  6  0  0  0
 11  4  1  0  0  0  0
 12  8  1  0  0  0  0
 13  8  1  0  0  0  0
 13 18  1  1  0  0  0
 15 20  1  0  0  0  0
 16 17  1  6  0  0  0
 16 12  1  0  0  0  0
 18 10  1  0  0  0  0
 19 10  1  0  0  0  0
 19 20  2  0  0  0  0
 22 21  2  0  0  0  0
 23 22  1  0  0  0  0
 24 27  1  1  0  0  0
 24 28  1  0  0  0  0
 25 28  2  0  0  0  0
 26 29  2  0  0  0  0
 29 31  1  0  0  0  0
 29 30  1  0  0  0  0
 30 22  1  1  0  0  0
 30 25  1  0  0  0  0
 31 24  1  0  0  0  0
M  END
>  <MODEL>
4

>  <REMARK>
 VINA RESULT:      -5.6      3.198      7.076
  Name = 
  2 active torsions:
  status: ('A' for Active; 'I' for Inactive)
    1  A    between atoms: C_5  and  C_30
    2  A    between atoms: C_10  and  N_16
                            x       y       z     vdW  Elec       q    Type
                         _______ _______ _______ _____ _____    ______ ____

>  <TORSDO>
F 2

$$$$
=
 OpenBabel11122413303D

 31 35  0  0  1  0  0  0  0  0999 V2000
  162.1090  213.9390  146.9620 C   0  0  2  0  0  3  0  0  0  0  0  0
  161.7410  211.8300  150.1870 C   0  0  2  0  0  3  0  0  0  0  0  0
  160.6100  211.6960  151.1880 C   0  0  0  0  0  0  0  0  0  0  0  0
  158.6390  212.5940  152.2890 C   0  0  0  0  0  0  0  0  0  0  0  0
  161.3210  212.5820  148.9140 C   0  0  1  0  0  3  0  0  0  0  0  0
  161.3530  213.0220  146.0080 C   0  0  0  0  0  2  0  0  0  0  0  0
  159.6590  212.7150  151.3410 C   0  0  0  0  0  3  0  0  0  0  0  0
  161.5260  209.6190  148.9290 C   0  0  2  0  0  3  0  0  0  0  0  0
  163.2330  214.4530  146.3190 O   0  0  0  0  0  1  0  0  0  0  0  0
  161.5180  209.5600  151.9320 O   0  0  0  0  0  0  0  0  0  0  0  0
  157.6280  213.6730  152.4320 C   0  0  0  0  0  1  0  0  0  0  0  0
  161.2060  210.3860  147.6490 C   0  0  0  0  0  2  0  0  0  0  0  0
  162.4040  210.4720  149.8580 C   0  0  2  0  0  3  0  0  0  0  0  0
  162.5440  213.1650  148.2030 C   0  0  0  0  0  2  0  0  0  0  0  0
  158.5710  211.4590  153.1010 C   0  0  0  0  0  3  0  0  0  0  0  0
  160.4830  211.6910  147.9750 C   0  0  2  0  0  3  0  0  0  0  0  0
  160.1150  212.4450  146.6960 C   0  0  0  0  0  2  0  0  0  0  0  0
  162.7060  209.7300  151.1610 C   0  0  0  0  0  2  0  0  0  0  0  0
  160.5570  210.5710  152.0350 C   0  0  0  0  0  0  0  0  0  0  0  0
  159.5290  210.4500  152.9760 C   0  0  0  0  0  3  0  0  0  0  0  0
  160.3450  207.0220  148.9430 O   0  0  0  0  0  0  0  0  0  0  0  0
  161.5580  207.1110  148.6070 C   0  0  0  0  0  0  0  0  0  0  0  0
  162.2130  208.3800  148.5920 N   0  0  0  0  0  2  0  0  0  0  0  0
  161.0670  205.1490  145.8020 C   0  0  2  0  0  3  0  0  0  0  0  0
  163.0000  206.0540  146.8900 C   0  0  0  0  0  3  0  0  0  0  0  0
  161.2040  204.0910  149.2730 O   0  0  0  0  0  0  0  0  0  0  0  0
  160.7960  204.5130  144.5250 N   0  0  0  0  0  1  0  0  0  0  0  0
  162.4100  205.6970  145.7990 N   0  0  0  0  0  0  0  0  0  0  0  0
  161.4530  204.6640  148.2250 C   0  0  0  0  0  0  0  0  0  0  0  0
  162.3330  205.8870  148.2310 C   0  0  2  0  0  3  0  0  0  0  0  0
  160.8780  204.1390  146.9370 C   0  0  0  0  0  2  0  0  0  0  0  0
  1  9  1  6  0  0  0
  1 14  1  0  0  0  0
  2  3  1  1  0  0  0
  3  7  2  0  0  0  0
  3 19  1  0  0  0  0
  4 11  1  0  0  0  0
  4 15  2  0  0  0  0
  5 14  1  6  0  0  0
  5  2  1  0  0  0  0
  6 17  1  0  0  0  0
  6  1  1  0  0  0  0
  7  4  1  0  0  0  0
  8 23  1  6  0  0  0
  8 13  1  0  0  0  0
 10 19  1  0  0  0  0
 12 16  1  0  0  0  0
 12  8  1  0  0  0  0
 13  2  1  0  0  0  0
 13 18  1  1  0  0  0
 16 17  1  6  0  0  0
 16  5  1  0  0  0  0
 18 10  1  0  0  0  0
 19 20  2  0  0  0  0
 20 15  1  0  0  0  0
 22 21  2  0  0  0  0
 23 22  1  0  0  0  0
 24 27  1  6  0  0  0
 24 31  1  0  0  0  0
 25 30  1  0  0  0  0
 28 24  1  0  0  0  0
 28 25  2  0  0  0  0
 29 30  1  0  0  0  0
 29 26  2  0  0  0  0
 30 22  1  6  0  0  0
 31 29  1  0  0  0  0
M  END
>  <MODEL>
5

>  <REMARK>
 VINA RESULT:      -3.9      3.608      7.847
  Name = 
  2 active torsions:
  status: ('A' for Active; 'I' for Inactive)
    1  A    between atoms: C_5  and  C_30
    2  A    between atoms: C_10  and  N_16
                            x       y       z     vdW  Elec       q    Type
                         _______ _______ _______ _____ _____    ______ ____

>  <TORSDO>
F 2

$$$$
