=
 OpenBabel11122414043D

 28 32  0  0  1  0  0  0  0  0999 V2000
  158.3230  212.1910  152.1360 C   0  0  0  0  0  0  0  0  0  0  0  0
  161.2050  210.0920  150.1550 O   0  0  0  0  0  1  0  0  0  0  0  0
  161.7230  211.7890  157.2610 O   0  0  0  0  0  1  0  0  0  0  0  0
  159.8580  213.6040  150.2620 C   0  0  0  0  0  3  0  0  0  0  0  0
  161.2820  209.7710  155.9990 C   0  0  1  0  0  3  0  0  0  0  0  0
  157.4510  211.5760  153.1870 C   0  0  0  0  0  2  0  0  0  0  0  0
  163.0790  210.0010  151.6050 C   0  0  0  0  0  1  0  0  0  0  0  0
  161.6840  209.4680  151.3060 C   0  0  1  0  0  0  0  0  0  0  0  0
  161.5420  207.0420  152.2220 C   0  0  0  0  0  0  0  0  0  0  0  0
  160.7150  209.7270  152.4720 C   0  0  1  0  0  3  0  0  0  0  0  0
  157.8460  214.4530  155.3870 N   0  0  0  0  0  1  0  0  0  0  0  0
  159.9030  210.7800  154.3860 C   0  0  1  0  0  3  0  0  0  0  0  0
  161.0720  207.5680  153.4700 N   0  0  0  0  0  2  0  0  0  0  0  0
  161.7660  207.9490  151.0240 C   0  0  0  0  0  2  0  0  0  0  0  0
  158.2850  213.2600  154.8020 N   0  0  0  0  0  0  0  0  0  0  0  0
  159.7360  212.0410  152.1270 C   0  0  0  0  0  0  0  0  0  0  0  0
  160.7310  211.0490  156.6120 C   0  0  2  0  0  3  0  0  0  0  0  0
  161.5890  205.7300  152.0490 C   0  0  0  0  0  2  0  0  0  0  0  0
  158.8340  212.4470  155.8790 C   0  0  0  0  0  2  0  0  0  0  0  0
  160.4820  212.7650  151.1870 C   0  0  0  0  0  3  0  0  0  0  0  0
  157.7090  213.0350  151.2030 C   0  0  0  0  0  3  0  0  0  0  0  0
  158.4700  213.7330  150.2650 C   0  0  0  0  0  3  0  0  0  0  0  0
  157.0970  212.5890  154.2800 C   0  0  0  0  0  2  0  0  0  0  0  0
  160.4320  209.4810  154.8280 N   0  0  1  0  0  0  0  0  0  0  0  0
  160.1590  211.8270  155.4530 C   0  0  2  0  0  3  0  0  0  0  0  0
  161.2050  208.9940  153.6860 C   0  0  2  0  0  3  0  0  0  0  0  0
  162.6310  209.9450  155.6480 O   0  0  0  0  0  1  0  0  0  0  0  0
  160.5300  211.1160  153.0310 C   0  0  2  0  0  3  0  0  0  0  0  0
  1  6  1  0  0  0  0
  2  8  1  0  0  0  0
  4 22  2  0  0  0  0
  4 20  1  0  0  0  0
  5 27  1  6  0  0  0
  5 17  1  0  0  0  0
  6 23  1  0  0  0  0
  8  7  1  1  0  0  0
  8 10  1  0  0  0  0
  9 13  1  0  0  0  0
 10 28  1  0  0  0  0
 10 26  1  0  0  0  0
 12 24  1  0  0  0  0
 12 25  1  0  0  0  0
 13 26  1  0  0  0  0
 14  8  1  0  0  0  0
 14  9  1  0  0  0  0
 15 11  1  0  0  0  0
 15 19  1  0  0  0  0
 16  1  1  0  0  0  0
 16 28  1  0  0  0  0
 17  3  1  0  0  0  0
 18  9  2  0  0  0  0
 20 16  2  0  0  0  0
 21  1  2  0  0  0  0
 22 21  1  0  0  0  0
 23 15  1  0  0  0  0
 24  5  1  0  0  0  0
 25 19  1  0  0  0  0
 25 17  1  0  0  0  0
 26 24  1  0  0  0  0
 28 12  1  0  0  0  0
M  END
>  <MODEL>
1

>  <REMARK>
 VINA RESULT:      -4.6      0.000      0.000
  Name = 
  0 active torsions:
  status: ('A' for Active; 'I' for Inactive)
                            x       y       z     vdW  Elec       q    Type
                         _______ _______ _______ _____ _____    ______ ____

>  <TORSDO>
F 0

$$$$
=
 OpenBabel11122414043D

 28 32  0  0  1  0  0  0  0  0999 V2000
  160.7080  209.4340  154.8440 C   0  0  0  0  0  0  0  0  0  0  0  0
  159.2080  212.3610  157.2580 O   0  0  0  0  0  1  0  0  0  0  0  0
  160.7140  213.4550  150.1740 O   0  0  0  0  0  1  0  0  0  0  0  0
  162.4300  210.4720  156.8000 C   0  0  0  0  0  3  0  0  0  0  0  0
  158.6960  213.2040  151.4880 C   0  0  1  0  0  3  0  0  0  0  0  0
  159.9160  208.8120  153.7370 C   0  0  0  0  0  2  0  0  0  0  0  0
  159.3880  214.3870  156.0400 C   0  0  0  0  0  1  0  0  0  0  0  0
  158.6340  213.0740  156.2050 C   0  0  1  0  0  0  0  0  0  0  0  0
  156.1890  213.4510  155.4170 C   0  0  0  0  0  0  0  0  0  0  0  0
  158.6820  212.2250  154.9240 C   0  0  1  0  0  3  0  0  0  0  0  0
  162.7370  208.9890  151.4390 N   0  0  0  0  0  1  0  0  0  0  0  0
  159.5110  211.4910  152.8730 C   0  0  1  0  0  3  0  0  0  0  0  0
  156.5810  213.0560  154.0960 N   0  0  0  0  0  2  0  0  0  0  0  0
  157.1630  213.3720  156.5800 C   0  0  0  0  0  2  0  0  0  0  0  0
  161.6590  209.5460  152.1360 N   0  0  0  0  0  0  0  0  0  0  0  0
  160.8040  210.8410  155.0240 C   0  0  0  0  0  0  0  0  0  0  0  0
  159.8380  212.5280  150.7450 C   0  0  2  0  0  3  0  0  0  0  0  0
  154.9120  213.6930  155.6680 C   0  0  0  0  0  2  0  0  0  0  0  0
  160.9150  210.3500  151.1770 C   0  0  0  0  0  2  0  0  0  0  0  0
  161.6790  211.3350  156.0010 C   0  0  0  0  0  3  0  0  0  0  0  0
  161.4670  208.5790  155.6530 C   0  0  0  0  0  3  0  0  0  0  0  0
  162.3190  209.0930  156.6310 C   0  0  0  0  0  3  0  0  0  0  0  0
  160.8130  208.4310  152.5550 C   0  0  0  0  0  2  0  0  0  0  0  0
  158.3070  212.2780  152.5680 N   0  0  1  0  0  0  0  0  0  0  0  0
  160.5470  211.6970  151.7850 C   0  0  2  0  0  3  0  0  0  0  0  0
  158.0010  212.9760  153.8160 C   0  0  2  0  0  3  0  0  0  0  0  0
  159.1110  214.4530  151.9810 O   0  0  0  0  0  1  0  0  0  0  0  0
  159.9980  211.8820  154.2700 C   0  0  2  0  0  3  0  0  0  0  0  0
  1 16  2  0  0  0  0
  1 21  1  0  0  0  0
  3 17  1  0  0  0  0
  5 27  1  1  0  0  0
  5 24  1  0  0  0  0
  6  1  1  0  0  0  0
  8  7  1  6  0  0  0
  8 14  1  0  0  0  0
  8  2  1  0  0  0  0
  9 18  2  0  0  0  0
  9 14  1  0  0  0  0
 10  8  1  0  0  0  0
 11 15  1  0  0  0  0
 12 28  1  0  0  0  0
 13  9  1  0  0  0  0
 15 23  1  0  0  0  0
 16 20  1  0  0  0  0
 17  5  1  0  0  0  0
 17 25  1  0  0  0  0
 19 25  1  0  0  0  0
 19 15  1  0  0  0  0
 20  4  2  0  0  0  0
 21 22  2  0  0  0  0
 22  4  1  0  0  0  0
 23  6  1  0  0  0  0
 24 12  1  0  0  0  0
 24 26  1  0  0  0  0
 25 12  1  0  0  0  0
 26 13  1  0  0  0  0
 26 10  1  0  0  0  0
 28 10  1  0  0  0  0
 28 16  1  0  0  0  0
M  END
>  <MODEL>
2

>  <REMARK>
 VINA RESULT:      -3.6      1.990      6.480
  Name = 
  0 active torsions:
  status: ('A' for Active; 'I' for Inactive)
                            x       y       z     vdW  Elec       q    Type
                         _______ _______ _______ _____ _____    ______ ____

>  <TORSDO>
F 0

$$$$
=
 OpenBabel11122414043D

 28 32  0  0  1  0  0  0  0  0999 V2000
  159.3600  213.8070  150.0670 C   0  0  0  0  0  0  0  0  0  0  0  0
  156.6060  214.1120  153.0610 O   0  0  0  0  0  1  0  0  0  0  0  0
  161.2660  208.4860  152.5230 O   0  0  0  0  0  1  0  0  0  0  0  0
  156.6710  213.4470  149.3570 C   0  0  0  0  0  3  0  0  0  0  0  0
  161.0600  210.4210  153.9630 C   0  0  1  0  0  3  0  0  0  0  0  0
  160.8320  213.9430  150.3040 C   0  0  0  0  0  2  0  0  0  0  0  0
  156.5850  212.0120  154.1630 C   0  0  0  0  0  1  0  0  0  0  0  0
  157.3350  213.3200  153.9480 C   0  0  1  0  0  0  0  0  0  0  0  0
  158.6920  213.8270  156.1030 C   0  0  0  0  0  0  0  0  0  0  0  0
  158.7450  213.0810  153.3830 C   0  0  1  0  0  3  0  0  0  0  0  0
  161.5730  211.0750  148.1830 N   0  0  0  0  0  1  0  0  0  0  0  0
  160.4370  211.9270  152.2700 C   0  0  1  0  0  3  0  0  0  0  0  0
  159.7970  213.1040  155.5460 N   0  0  0  0  0  2  0  0  0  0  0  0
  157.4330  214.0810  155.2920 C   0  0  0  0  0  2  0  0  0  0  0  0
  161.1470  211.6660  149.3770 N   0  0  0  0  0  0  0  0  0  0  0  0
  158.5290  212.9700  150.8590 C   0  0  0  0  0  0  0  0  0  0  0  0
  161.5550  209.8480  152.6440 C   0  0  2  0  0  3  0  0  0  0  0  0
  158.8450  214.4530  157.2590 C   0  0  0  0  0  2  0  0  0  0  0  0
  161.8210  210.9570  150.4560 C   0  0  0  0  0  2  0  0  0  0  0  0
  157.1920  212.7980  150.4780 C   0  0  0  0  0  3  0  0  0  0  0  0
  158.8260  214.4530  148.9450 C   0  0  0  0  0  3  0  0  0  0  0  0
  157.4880  214.2810  148.5950 C   0  0  0  0  0  3  0  0  0  0  0  0
  161.6340  213.0430  149.3580 C   0  0  0  0  0  2  0  0  0  0  0  0
  160.7600  211.8420  153.7030 N   0  0  1  0  0  0  0  0  0  0  0  0
  160.8400  210.6400  151.5780 C   0  0  2  0  0  3  0  0  0  0  0  0
  159.5410  212.2860  154.3780 C   0  0  2  0  0  3  0  0  0  0  0  0
  159.9310  209.7110  154.4070 O   0  0  0  0  0  1  0  0  0  0  0  0
  158.9510  212.2610  152.1330 C   0  0  2  0  0  3  0  0  0  0  0  0
  1  6  1  0  0  0  0
  1 16  1  0  0  0  0
  2  8  1  0  0  0  0
  3 17  1  0  0  0  0
  4 20  1  0  0  0  0
  5 27  1  6  0  0  0
  8  7  1  1  0  0  0
  8 14  1  0  0  0  0
  9 18  2  0  0  0  0
 10  8  1  0  0  0  0
 10 26  1  0  0  0  0
 11 15  1  0  0  0  0
 12 24  1  0  0  0  0
 13  9  1  0  0  0  0
 14  9  1  0  0  0  0
 15 19  1  0  0  0  0
 16 28  1  0  0  0  0
 17  5  1  0  0  0  0
 19 25  1  0  0  0  0
 20 16  2  0  0  0  0
 21  1  2  0  0  0  0
 22 21  1  0  0  0  0
 22  4  2  0  0  0  0
 23 15  1  0  0  0  0
 23  6  1  0  0  0  0
 24  5  1  0  0  0  0
 24 26  1  0  0  0  0
 25 12  1  0  0  0  0
 25 17  1  0  0  0  0
 26 13  1  0  0  0  0
 28 12  1  0  0  0  0
 28 10  1  0  0  0  0
M  END
>  <MODEL>
3

>  <REMARK>
 VINA RESULT:      -3.1      2.601      5.460
  Name = 
  0 active torsions:
  status: ('A' for Active; 'I' for Inactive)
                            x       y       z     vdW  Elec       q    Type
                         _______ _______ _______ _____ _____    ______ ____

>  <TORSDO>
F 0

$$$$
=
 OpenBabel11122414043D

 28 32  0  0  1  0  0  0  0  0999 V2000
  161.1820  210.8480  137.5580 C   0  0  0  0  0  0  0  0  0  0  0  0
  157.4530  209.2030  137.7310 O   0  0  0  0  0  1  0  0  0  0  0  0
  159.7660  214.2800  142.4770 O   0  0  0  0  0  1  0  0  0  0  0  0
  161.0150  208.1700  138.3720 C   0  0  0  0  0  3  0  0  0  0  0  0
  158.2300  214.2430  140.6060 C   0  0  1  0  0  3  0  0  0  0  0  0
  161.4200  212.2750  137.1730 C   0  0  0  0  0  2  0  0  0  0  0  0
  156.5220  209.8790  139.8050 C   0  0  0  0  0  1  0  0  0  0  0  0
  156.8920  210.2980  138.3870 C   0  0  1  0  0  0  0  0  0  0  0  0
  155.2580  212.1800  137.6580 C   0  0  0  0  0  0  0  0  0  0  0  0
  157.8900  211.4680  138.3820 C   0  0  1  0  0  3  0  0  0  0  0  0
  163.8250  212.7400  139.8700 N   0  0  0  0  0  1  0  0  0  0  0  0
  159.5480  212.8700  139.2280 C   0  0  1  0  0  3  0  0  0  0  0  0
  156.1780  213.1460  138.1800 N   0  0  0  0  0  2  0  0  0  0  0  0
  155.6090  210.7030  137.6220 C   0  0  0  0  0  2  0  0  0  0  0  0
  162.5260  212.6350  139.3620 N   0  0  0  0  0  0  0  0  0  0  0  0
  160.2140  210.4660  138.5250 C   0  0  0  0  0  0  0  0  0  0  0  0
  159.6680  214.3690  141.0860 C   0  0  2  0  0  3  0  0  0  0  0  0
  154.1780  212.5960  137.0150 C   0  0  0  0  0  2  0  0  0  0  0  0
  161.7610  213.7280  139.9460 C   0  0  0  0  0  2  0  0  0  0  0  0
  160.1570  209.1230  138.9230 C   0  0  0  0  0  3  0  0  0  0  0  0
  162.0360  209.8830  137.0120 C   0  0  0  0  0  3  0  0  0  0  0  0
  161.9500  208.5490  137.4100 C   0  0  0  0  0  3  0  0  0  0  0  0
  162.6220  212.8610  137.9210 C   0  0  0  0  0  2  0  0  0  0  0  0
  158.3000  213.6490  139.2580 N   0  0  1  0  0  0  0  0  0  0  0  0
  160.4040  213.2290  140.4270 C   0  0  2  0  0  3  0  0  0  0  0  0
  157.2480  212.6600  139.0290 C   0  0  2  0  0  3  0  0  0  0  0  0
  157.4890  213.4490  141.4990 O   0  0  0  0  0  1  0  0  0  0  0  0
  159.1840  211.3860  139.1530 C   0  0  2  0  0  3  0  0  0  0  0  0
  1 16  1  0  0  0  0
  2  8  1  0  0  0  0
  4 20  1  0  0  0  0
  5 17  1  0  0  0  0
  5 27  1  1  0  0  0
  6  1  1  0  0  0  0
  6 23  1  0  0  0  0
  8  7  1  1  0  0  0
  9 13  1  0  0  0  0
 10  8  1  0  0  0  0
 10 26  1  0  0  0  0
 10 28  1  0  0  0  0
 12 24  1  0  0  0  0
 12 25  1  0  0  0  0
 13 26  1  0  0  0  0
 14  9  1  0  0  0  0
 14  8  1  0  0  0  0
 15 11  1  0  0  0  0
 15 19  1  0  0  0  0
 16 20  2  0  0  0  0
 16 28  1  0  0  0  0
 17  3  1  0  0  0  0
 18  9  2  0  0  0  0
 19 25  1  0  0  0  0
 21 22  1  0  0  0  0
 21  1  2  0  0  0  0
 22  4  2  0  0  0  0
 23 15  1  0  0  0  0
 24  5  1  0  0  0  0
 25 17  1  0  0  0  0
 26 24  1  0  0  0  0
 28 12  1  0  0  0  0
M  END
>  <MODEL>
4

>  <REMARK>
 VINA RESULT:      -2.8     13.176     15.324
  Name = 
  0 active torsions:
  status: ('A' for Active; 'I' for Inactive)
                            x       y       z     vdW  Elec       q    Type
                         _______ _______ _______ _____ _____    ______ ____

>  <TORSDO>
F 0

$$$$
=
 OpenBabel11122414043D

 28 32  0  0  1  0  0  0  0  0999 V2000
  158.9760  211.5390  152.3900 C   0  0  0  0  0  0  0  0  0  0  0  0
  161.1520  208.9810  150.0750 O   0  0  0  0  0  1  0  0  0  0  0  0
  162.3240  209.7910  157.2600 O   0  0  0  0  0  1  0  0  0  0  0  0
  160.7610  212.6920  150.5600 C   0  0  0  0  0  3  0  0  0  0  0  0
  161.3360  208.0840  155.8570 C   0  0  1  0  0  3  0  0  0  0  0  0
  158.0100  211.0660  153.4320 C   0  0  0  0  0  2  0  0  0  0  0  0
  162.9860  208.2770  151.4030 C   0  0  0  0  0  1  0  0  0  0  0  0
  161.4910  208.1470  151.1400 C   0  0  1  0  0  0  0  0  0  0  0  0
  160.7590  205.7590  151.8510 C   0  0  0  0  0  0  0  0  0  0  0  0
  160.6610  208.5290  152.3770 C   0  0  1  0  0  3  0  0  0  0  0  0
  159.2060  213.5210  155.8450 N   0  0  0  0  0  1  0  0  0  0  0  0
  160.2120  209.5620  154.4170 C   0  0  1  0  0  3  0  0  0  0  0  0
  160.4820  206.2630  153.1640 N   0  0  0  0  0  2  0  0  0  0  0  0
  161.1690  206.6920  150.7240 C   0  0  0  0  0  2  0  0  0  0  0  0
  159.3030  212.3180  155.1360 N   0  0  0  0  0  0  0  0  0  0  0  0
  160.3010  211.0370  152.2880 C   0  0  0  0  0  0  0  0  0  0  0  0
  161.1540  209.3930  156.6080 C   0  0  2  0  0  3  0  0  0  0  0  0
  160.4600  204.5020  151.5630 C   0  0  0  0  0  2  0  0  0  0  0  0
  159.6590  211.2910  156.1060 C   0  0  0  0  0  2  0  0  0  0  0  0
  161.1770  211.6370  151.3730 C   0  0  0  0  0  3  0  0  0  0  0  0
  158.5700  212.5980  151.5690 C   0  0  0  0  0  3  0  0  0  0  0  0
  159.4540  213.1680  150.6530 C   0  0  0  0  0  3  0  0  0  0  0  0
  157.9660  212.0250  154.6270 C   0  0  0  0  0  2  0  0  0  0  0  0
  160.4020  208.1340  154.7160 N   0  0  1  0  0  0  0  0  0  0  0  0
  160.7640  210.4000  155.5540 C   0  0  2  0  0  3  0  0  0  0  0  0
  160.9860  207.5810  153.4940 C   0  0  2  0  0  3  0  0  0  0  0  0
  162.6720  207.9420  155.4450 O   0  0  0  0  0  1  0  0  0  0  0  0
  160.8590  209.8580  153.0630 C   0  0  2  0  0  3  0  0  0  0  0  0
  1  6  1  0  0  0  0
  2  8  1  0  0  0  0
  4 22  2  0  0  0  0
  4 20  1  0  0  0  0
  5 27  1  6  0  0  0
  5 17  1  0  0  0  0
  6 23  1  0  0  0  0
  8  7  1  1  0  0  0
  8 10  1  0  0  0  0
  9 13  1  0  0  0  0
 10 28  1  0  0  0  0
 10 26  1  0  0  0  0
 12 24  1  0  0  0  0
 12 25  1  0  0  0  0
 13 26  1  0  0  0  0
 14  8  1  0  0  0  0
 14  9  1  0  0  0  0
 15 11  1  0  0  0  0
 15 19  1  0  0  0  0
 16  1  1  0  0  0  0
 16 28  1  0  0  0  0
 17  3  1  0  0  0  0
 18  9  2  0  0  0  0
 20 16  2  0  0  0  0
 21  1  2  0  0  0  0
 22 21  1  0  0  0  0
 23 15  1  0  0  0  0
 24  5  1  0  0  0  0
 25 19  1  0  0  0  0
 25 17  1  0  0  0  0
 26 24  1  0  0  0  0
 28 12  1  0  0  0  0
M  END
>  <MODEL>
5

>  <REMARK>
 VINA RESULT:      -1.9      1.211      1.440
  Name = 
  0 active torsions:
  status: ('A' for Active; 'I' for Inactive)
                            x       y       z     vdW  Elec       q    Type
                         _______ _______ _______ _____ _____    ______ ____

>  <TORSDO>
F 0

$$$$
=
 OpenBabel11122414043D

 28 32  0  0  1  0  0  0  0  0999 V2000
  160.1050  213.3760  150.6660 C   0  0  0  0  0  0  0  0  0  0  0  0
  159.1180  212.3110  154.4780 O   0  0  0  0  0  1  0  0  0  0  0  0
  161.6800  207.5200  149.5660 O   0  0  0  0  0  1  0  0  0  0  0  0
  157.3760  213.3660  151.3140 C   0  0  0  0  0  3  0  0  0  0  0  0
  162.5700  208.6120  151.5350 C   0  0  1  0  0  3  0  0  0  0  0  0
  161.5170  213.3940  150.1700 C   0  0  0  0  0  2  0  0  0  0  0  0
  159.1280  209.9410  154.5320 C   0  0  0  0  0  1  0  0  0  0  0  0
  159.9720  211.2090  154.4980 C   0  0  1  0  0  0  0  0  0  0  0  0
  162.2220  210.7040  155.6920 C   0  0  0  0  0  0  0  0  0  0  0  0
  160.8900  211.2480  153.2650 C   0  0  1  0  0  3  0  0  0  0  0  0
  160.5810  211.7720  147.0450 N   0  0  0  0  0  1  0  0  0  0  0  0
  161.6070  210.7130  151.1130 C   0  0  1  0  0  3  0  0  0  0  0  0
  162.7730  210.3070  154.4300 N   0  0  0  0  0  2  0  0  0  0  0  0
  160.8240  211.2920  155.7870 C   0  0  0  0  0  2  0  0  0  0  0  0
  160.8740  211.7680  148.4130 N   0  0  0  0  0  0  0  0  0  0  0  0
  159.5530  212.2720  151.3700 C   0  0  0  0  0  0  0  0  0  0  0  0
  162.2850  208.6860  150.0430 C   0  0  2  0  0  3  0  0  0  0  0  0
  163.0080  210.7510  156.7560 C   0  0  0  0  0  2  0  0  0  0  0  0
  161.7840  210.6540  148.6400 C   0  0  0  0  0  2  0  0  0  0  0  0
  158.1840  212.2860  151.6740 C   0  0  0  0  0  3  0  0  0  0  0  0
  159.2840  214.4530  150.3100 C   0  0  0  0  0  3  0  0  0  0  0  0
  157.9280  214.4530  150.6380 C   0  0  0  0  0  3  0  0  0  0  0  0
  161.5930  213.0110  148.6880 C   0  0  0  0  0  2  0  0  0  0  0  0
  162.5070  209.9990  152.0320 N   0  0  1  0  0  0  0  0  0  0  0  0
  161.3640  209.8690  149.8770 C   0  0  2  0  0  3  0  0  0  0  0  0
  161.8490  210.0950  153.3340 C   0  0  2  0  0  3  0  0  0  0  0  0
  161.6320  207.7770  152.1660 O   0  0  0  0  0  1  0  0  0  0  0  0
  160.3300  211.0710  151.8750 C   0  0  2  0  0  3  0  0  0  0  0  0
  1 16  1  0  0  0  0
  2  8  1  0  0  0  0
  3 17  1  0  0  0  0
  4 20  1  0  0  0  0
  5 24  1  0  0  0  0
  5 27  1  1  0  0  0
  6  1  1  0  0  0  0
  8  7  1  6  0  0  0
  8 14  1  0  0  0  0
  9 14  1  0  0  0  0
  9 18  2  0  0  0  0
 10 26  1  0  0  0  0
 10  8  1  0  0  0  0
 11 15  1  0  0  0  0
 12 28  1  0  0  0  0
 12 24  1  0  0  0  0
 13  9  1  0  0  0  0
 15 19  1  0  0  0  0
 15 23  1  0  0  0  0
 16 20  2  0  0  0  0
 16 28  1  0  0  0  0
 17  5  1  0  0  0  0
 19 25  1  0  0  0  0
 21 22  1  0  0  0  0
 21  1  2  0  0  0  0
 22  4  2  0  0  0  0
 23  6  1  0  0  0  0
 24 26  1  0  0  0  0
 25 17  1  0  0  0  0
 25 12  1  0  0  0  0
 26 13  1  0  0  0  0
 28 10  1  0  0  0  0
M  END
>  <MODEL>
6

>  <REMARK>
 VINA RESULT:      -1.7      2.602      5.117
  Name = 
  0 active torsions:
  status: ('A' for Active; 'I' for Inactive)
                            x       y       z     vdW  Elec       q    Type
                         _______ _______ _______ _____ _____    ______ ____

>  <TORSDO>
F 0

$$$$
=
 OpenBabel11122414043D

 28 32  0  0  1  0  0  0  0  0999 V2000
  160.4540  211.5820  153.5180 C   0  0  0  0  0  0  0  0  0  0  0  0
  162.6380  210.5590  150.2280 O   0  0  0  0  0  1  0  0  0  0  0  0
  155.8840  213.3580  149.7850 O   0  0  0  0  0  1  0  0  0  0  0  0
  160.8480  208.8440  153.0590 C   0  0  0  0  0  3  0  0  0  0  0  0
  158.1210  214.1780  149.3530 C   0  0  1  0  0  3  0  0  0  0  0  0
  160.1360  213.0020  153.8700 C   0  0  0  0  0  2  0  0  0  0  0  0
  161.1460  210.6410  148.3870 C   0  0  0  0  0  1  0  0  0  0  0  0
  161.9690  211.4460  149.3850 C   0  0  1  0  0  0  0  0  0  0  0  0
  162.6300  213.6880  148.2540 C   0  0  0  0  0  0  0  0  0  0  0  0
  161.0860  212.3850  150.2230 C   0  0  1  0  0  3  0  0  0  0  0  0
  156.6730  212.1740  154.6440 N   0  0  0  0  0  1  0  0  0  0  0  0
  159.1240  213.1580  151.2170 C   0  0  1  0  0  3  0  0  0  0  0  0
  161.4300  214.2740  148.7740 N   0  0  0  0  0  2  0  0  0  0  0  0
  163.0340  212.2710  148.6240 C   0  0  0  0  0  2  0  0  0  0  0  0
  157.7240  212.4430  153.7600 N   0  0  0  0  0  0  0  0  0  0  0  0
  160.2580  211.0520  152.2150 C   0  0  0  0  0  0  0  0  0  0  0  0
  157.0220  213.9180  150.3720 C   0  0  2  0  0  3  0  0  0  0  0  0
  163.4980  214.4520  147.6100 C   0  0  0  0  0  2  0  0  0  0  0  0
  157.2080  213.3820  152.7740 C   0  0  0  0  0  2  0  0  0  0  0  0
  160.4520  209.6780  152.0130 C   0  0  0  0  0  3  0  0  0  0  0  0
  160.8510  210.7350  154.5600 C   0  0  0  0  0  3  0  0  0  0  0  0
  161.0550  209.3740  154.3320 C   0  0  0  0  0  3  0  0  0  0  0  0
  158.7610  213.1170  154.5370 C   0  0  0  0  0  2  0  0  0  0  0  0
  159.3940  214.0620  150.0890 N   0  0  1  0  0  0  0  0  0  0  0  0
  157.6280  212.9640  151.3710 C   0  0  2  0  0  3  0  0  0  0  0  0
  160.4260  213.3770  149.3110 C   0  0  2  0  0  3  0  0  0  0  0  0
  158.0300  213.2550  148.2970 O   0  0  0  0  0  1  0  0  0  0  0  0
  159.8930  211.8560  150.9810 C   0  0  2  0  0  3  0  0  0  0  0  0
  1  6  1  0  0  0  0
  1 21  1  0  0  0  0
  3 17  1  0  0  0  0
  4 22  1  0  0  0  0
  5 27  1  6  0  0  0
  5 24  1  0  0  0  0
  5 17  1  0  0  0  0
  6 23  1  0  0  0  0
  8  7  1  6  0  0  0
  8 10  1  0  0  0  0
  8  2  1  0  0  0  0
  9 14  1  0  0  0  0
  9 13  1  0  0  0  0
 10 28  1  0  0  0  0
 12 25  1  0  0  0  0
 13 26  1  0  0  0  0
 14  8  1  0  0  0  0
 15 23  1  0  0  0  0
 15 11  1  0  0  0  0
 16  1  2  0  0  0  0
 17 25  1  0  0  0  0
 18  9  2  0  0  0  0
 19 15  1  0  0  0  0
 20 16  1  0  0  0  0
 20  4  2  0  0  0  0
 22 21  2  0  0  0  0
 24 12  1  0  0  0  0
 25 19  1  0  0  0  0
 26 24  1  0  0  0  0
 26 10  1  0  0  0  0
 28 12  1  0  0  0  0
 28 16  1  0  0  0  0
M  END
>  <MODEL>
7

>  <REMARK>
 VINA RESULT:      -1.7      2.846      5.627
  Name = 
  0 active torsions:
  status: ('A' for Active; 'I' for Inactive)
                            x       y       z     vdW  Elec       q    Type
                         _______ _______ _______ _____ _____    ______ ____

>  <TORSDO>
F 0

$$$$
