=
 OpenBabel11122413563D

 37 44  0  0  1  0  0  0  0  0999 V2000
  159.9740  210.6510  153.6840 C   0  0  0  0  0  0  0  0  0  0  0  0
  161.6390  207.4840  152.5990 C   0  0  1  0  0  3  0  0  0  0  0  0
  162.8030  207.3370  149.5360 O   0  0  0  0  0  0  0  0  0  0  0  0
  161.3050  209.0330  154.6650 C   0  0  2  0  0  3  0  0  0  0  0  0
  161.2400  207.9640  151.2250 C   0  0  2  0  0  3  0  0  0  0  0  0
  161.9510  208.8100  153.2930 C   0  0  2  0  0  3  0  0  0  0  0  0
  161.5600  206.9990  150.0880 C   0  0  2  0  0  3  0  0  0  0  0  0
  161.2940  207.7190  155.4320 C   0  0  0  0  0  2  0  0  0  0  0  0
  161.6620  209.8910  152.3360 N   0  0  2  0  0  0  0  0  0  0  0  0
  160.8390  211.8250  154.1620 C   0  0  0  0  0  1  0  0  0  0  0  0
  160.5780  205.2740  152.7330 N   0  0  0  0  0  2  0  0  0  0  0  0
  160.4400  206.6530  154.7380 C   0  0  0  0  0  2  0  0  0  0  0  0
  160.3210  210.2060  152.3860 O   0  0  0  0  0  0  0  0  0  0  0  0
  161.2720  208.5780  147.9080 C   0  0  0  0  0  2  0  0  0  0  0  0
  162.6580  208.1120  148.3500 C   0  0  1  0  0  3  0  0  0  0  0  0
  160.4900  206.6580  153.2000 C   0  0  1  0  0  3  0  0  0  0  0  0
  161.9140  209.2550  151.0920 N   0  0  2  0  0  0  0  0  0  0  0  0
  160.0010  209.5660  154.5870 O   0  0  0  0  0  0  0  0  0  0  0  0
  161.4830  205.5090  150.4620 C   0  0  1  0  0  3  0  0  0  0  0  0
  158.5500  211.1570  153.6220 C   0  0  0  0  0  1  0  0  0  0  0  0
  162.1880  209.5610  148.6180 C   0  0  2  0  0  3  0  0  0  0  0  0
  161.4440  210.0060  149.9070 C   0  0  2  0  0  3  0  0  0  0  0  0
  160.2470  205.1970  151.3110 C   0  0  0  0  0  2  0  0  0  0  0  0
  161.1470  203.3040  149.3360 C   0  0  0  0  0  3  0  0  0  0  0  0
  161.5070  204.6520  149.2340 C   0  0  0  0  0  0  0  0  0  0  0  0
  161.8940  205.1740  147.9900 C   0  0  0  0  0  3  0  0  0  0  0  0
  162.2920  204.8600  145.6620 F   0  0  0  0  0  0  0  0  0  0  0  0
  161.5550  203.0060  146.9680 C   0  0  0  0  0  3  0  0  0  0  0  0
  161.9170  204.3520  146.8600 C   0  0  0  0  0  0  0  0  0  0  0  0
  161.1700  202.4820  148.2050 C   0  0  0  0  0  3  0  0  0  0  0  0
  161.7220  211.5190  150.0410 C   0  0  1  0  0  3  0  0  0  0  0  0
  161.5620  212.3270  148.7380 C   0  0  2  0  0  3  0  0  0  0  0  0
  160.4830  212.3610  149.7960 C   0  0  2  0  0  3  0  0  0  0  0  0
  160.6250  213.9200  150.7110 S   0  0  0  0  0  0  0  0  0  0  0  0
  158.8610  213.9100  151.1290 C   0  0  0  0  0  1  0  0  0  0  0  0
  160.0690  212.4600  146.7620 C   0  0  0  0  0  1  0  0  0  0  0  0
  161.0140  211.5660  147.5390 C   0  0  0  0  0  2  0  0  0  0  0  0
  1 10  1  0  0  0  0
  1 18  1  0  0  0  0
  2 16  1  0  0  0  0
  2  6  1  0  0  0  0
  3  7  1  0  0  0  0
  4  8  1  0  0  0  0
  5  2  1  0  0  0  0
  6  4  1  0  0  0  0
  7 19  1  0  0  0  0
  7  5  1  0  0  0  0
  9 13  1  0  0  0  0
  9  6  1  0  0  0  0
 11 16  1  0  0  0  0
 12  8  1  0  0  0  0
 13  1  1  0  0  0  0
 14 15  1  0  0  0  0
 14 21  1  0  0  0  0
 15 21  1  0  0  0  0
 15  3  1  0  0  0  0
 16 12  1  0  0  0  0
 17  5  1  0  0  0  0
 17  9  1  0  0  0  0
 18  4  1  0  0  0  0
 19 23  1  0  0  0  0
 20  1  1  0  0  0  0
 21 22  1  0  0  0  0
 22 31  1  0  0  0  0
 22 17  1  0  0  0  0
 23 11  1  0  0  0  0
 25 24  1  0  0  0  0
 25 19  1  0  0  0  0
 26 25  2  0  0  0  0
 27 29  1  0  0  0  0
 28 30  1  0  0  0  0
 29 28  2  0  0  0  0
 29 26  1  0  0  0  0
 30 24  2  0  0  0  0
 32 33  1  0  0  0  0
 32 31  1  0  0  0  0
 33 31  1  0  0  0  0
 33 34  1  0  0  0  0
 34 35  1  0  0  0  0
 36 37  1  0  0  0  0
 37 32  1  0  0  0  0
M  END
>  <MODEL>
1

>  <REMARK>
 VINA RESULT:      -5.7      0.000      0.000
  Name = 
  4 active torsions:
  status: ('A' for Active; 'I' for Inactive)
    1  A    between atoms: C_1  and  C_27
    2  A    between atoms: C_4  and  C_37
    3  A    between atoms: S_8  and  C_12
    4  A    between atoms: C_23  and  C_30
                            x       y       z     vdW  Elec       q    Type
                         _______ _______ _______ _____ _____    ______ ____

>  <TORSDO>
F 4

$$$$
=
 OpenBabel11122413563D

 37 44  0  0  1  0  0  0  0  0999 V2000
  158.9160  210.6190  155.9580 C   0  0  0  0  0  0  0  0  0  0  0  0
  161.3910  208.5320  154.0890 C   0  0  1  0  0  3  0  0  0  0  0  0
  162.3830  209.5970  151.1490 O   0  0  0  0  0  0  0  0  0  0  0  0
  160.7200  209.2730  156.4930 C   0  0  2  0  0  3  0  0  0  0  0  0
  160.7950  209.2300  152.8910 C   0  0  2  0  0  3  0  0  0  0  0  0
  161.3290  209.6440  155.1360 C   0  0  2  0  0  3  0  0  0  0  0  0
  161.3280  208.7610  151.5410 C   0  0  2  0  0  3  0  0  0  0  0  0
  161.1430  207.8590  156.8610 C   0  0  0  0  0  2  0  0  0  0  0  0
  160.6800  210.8080  154.5100 N   0  0  2  0  0  0  0  0  0  0  0  0
  159.4140  211.8190  156.7750 C   0  0  0  0  0  1  0  0  0  0  0  0
  161.0480  206.1600  153.5620 N   0  0  0  0  0  2  0  0  0  0  0  0
  160.6110  206.8200  155.8680 C   0  0  0  0  0  2  0  0  0  0  0  0
  159.3110  210.6770  154.6000 O   0  0  0  0  0  0  0  0  0  0  0  0
  160.4660  210.7180  149.8810 C   0  0  0  0  0  2  0  0  0  0  0  0
  161.9490  210.5890  150.2230 C   0  0  1  0  0  3  0  0  0  0  0  0
  160.5760  207.2660  154.3950 C   0  0  1  0  0  3  0  0  0  0  0  0
  161.0440  210.6480  153.1470 N   0  0  2  0  0  0  0  0  0  0  0  0
  159.3140  209.3880  156.5220 O   0  0  0  0  0  0  0  0  0  0  0  0
  161.7200  207.2750  151.4800 C   0  0  1  0  0  3  0  0  0  0  0  0
  157.4040  210.6680  155.9920 C   0  0  0  0  0  1  0  0  0  0  0  0
  161.0830  211.6950  150.8700 C   0  0  2  0  0  3  0  0  0  0  0  0
  160.3090  211.5200  152.2050 C   0  0  2  0  0  3  0  0  0  0  0  0
  160.6800  206.3830  152.1660 C   0  0  0  0  0  2  0  0  0  0  0  0
  162.6530  207.6690  149.1970 C   0  0  0  0  0  3  0  0  0  0  0  0
  161.9340  206.8400  150.0640 C   0  0  0  0  0  0  0  0  0  0  0  0
  161.4170  205.6240  149.5910 C   0  0  0  0  0  3  0  0  0  0  0  0
  161.1200  204.0690  147.8090 F   0  0  0  0  0  0  0  0  0  0  0  0
  162.3420  206.0760  147.4000 C   0  0  0  0  0  3  0  0  0  0  0  0
  161.6210  205.2430  148.2620 C   0  0  0  0  0  0  0  0  0  0  0  0
  162.8570  207.2880  147.8670 C   0  0  0  0  0  3  0  0  0  0  0  0
  160.1290  212.9470  152.7660 C   0  0  1  0  0  3  0  0  0  0  0  0
  159.1330  213.8300  151.9890 C   0  0  2  0  0  3  0  0  0  0  0  0
  158.7280  213.1890  153.2970 C   0  0  2  0  0  3  0  0  0  0  0  0
  158.7880  214.4520  154.5970 S   0  0  0  0  0  0  0  0  0  0  0  0
  157.0090  214.2990  154.9170 C   0  0  0  0  0  1  0  0  0  0  0  0
  157.1130  213.9510  150.5540 C   0  0  0  0  0  1  0  0  0  0  0  0
  158.3550  213.1450  150.8740 C   0  0  0  0  0  2  0  0  0  0  0  0
  1 20  1  0  0  0  0
  1 18  1  0  0  0  0
  1 10  1  0  0  0  0
  2 16  1  0  0  0  0
  2  6  1  0  0  0  0
  3  7  1  0  0  0  0
  4 18  1  0  0  0  0
  4  8  1  0  0  0  0
  5 17  1  0  0  0  0
  5  2  1  0  0  0  0
  6  4  1  0  0  0  0
  7  5  1  0  0  0  0
  9 13  1  0  0  0  0
  9  6  1  0  0  0  0
 11 16  1  0  0  0  0
 12  8  1  0  0  0  0
 13  1  1  0  0  0  0
 14 15  1  0  0  0  0
 14 21  1  0  0  0  0
 15 21  1  0  0  0  0
 15  3  1  0  0  0  0
 16 12  1  0  0  0  0
 17  9  1  0  0  0  0
 19  7  1  0  0  0  0
 19 23  1  0  0  0  0
 21 22  1  0  0  0  0
 22 31  1  0  0  0  0
 22 17  1  0  0  0  0
 23 11  1  0  0  0  0
 24 25  1  0  0  0  0
 25 19  1  0  0  0  0
 26 25  2  0  0  0  0
 27 29  1  0  0  0  0
 28 30  1  0  0  0  0
 28 29  2  0  0  0  0
 29 26  1  0  0  0  0
 30 24  2  0  0  0  0
 31 33  1  0  0  0  0
 32 31  1  0  0  0  0
 32 33  1  0  0  0  0
 33 34  1  0  0  0  0
 34 35  1  0  0  0  0
 36 37  1  0  0  0  0
 37 32  1  0  0  0  0
M  END
>  <MODEL>
2

>  <REMARK>
 VINA RESULT:      -4.7      1.902      3.001
  Name = 
  4 active torsions:
  status: ('A' for Active; 'I' for Inactive)
    1  A    between atoms: C_1  and  C_27
    2  A    between atoms: C_4  and  C_37
    3  A    between atoms: S_8  and  C_12
    4  A    between atoms: C_23  and  C_30
                            x       y       z     vdW  Elec       q    Type
                         _______ _______ _______ _____ _____    ______ ____

>  <TORSDO>
F 4

$$$$
=
 OpenBabel11122413563D

 37 44  0  0  1  0  0  0  0  0999 V2000
  161.6960  208.3970  149.2220 C   0  0  0  0  0  0  0  0  0  0  0  0
  161.2330  211.6490  151.0060 C   0  0  1  0  0  3  0  0  0  0  0  0
  160.7780  211.5640  154.2540 O   0  0  0  0  0  0  0  0  0  0  0  0
  162.5070  210.5540  149.0180 C   0  0  2  0  0  3  0  0  0  0  0  0
  160.5210  210.7820  152.0150 C   0  0  2  0  0  3  0  0  0  0  0  0
  162.3360  210.7030  150.5340 C   0  0  2  0  0  3  0  0  0  0  0  0
  159.8820  211.5360  153.1770 C   0  0  2  0  0  3  0  0  0  0  0  0
  162.2800  211.9040  148.3540 C   0  0  0  0  0  2  0  0  0  0  0  0
  162.1440  209.4170  151.2230 N   0  0  2  0  0  0  0  0  0  0  0  0
  163.0840  207.7440  149.2050 C   0  0  0  0  0  1  0  0  0  0  0  0
  159.5190  213.3000  150.4040 N   0  0  0  0  0  2  0  0  0  0  0  0
  160.8520  212.4180  148.5640 C   0  0  0  0  0  2  0  0  0  0  0  0
  161.2260  208.6550  150.5320 O   0  0  0  0  0  0  0  0  0  0  0  0
  159.3700  209.5410  154.9330 C   0  0  0  0  0  2  0  0  0  0  0  0
  160.4730  210.5590  155.2160 C   0  0  1  0  0  3  0  0  0  0  0  0
  160.2300  212.1090  149.9370 C   0  0  1  0  0  3  0  0  0  0  0  0
  161.5420  209.8250  152.4420 N   0  0  2  0  0  0  0  0  0  0  0  0
  161.6540  209.5810  148.4550 O   0  0  0  0  0  0  0  0  0  0  0  0
  159.3590  212.9390  152.8280 C   0  0  1  0  0  3  0  0  0  0  0  0
  160.7430  207.4090  148.5870 C   0  0  0  0  0  1  0  0  0  0  0  0
  160.8200  209.1280  154.7400 C   0  0  2  0  0  3  0  0  0  0  0  0
  160.9680  208.7240  153.2480 C   0  0  2  0  0  3  0  0  0  0  0  0
  158.6080  212.9530  151.4920 C   0  0  0  0  0  2  0  0  0  0  0  0
  159.0850  213.9600  155.0920 C   0  0  0  0  0  3  0  0  0  0  0  0
  158.4890  213.4700  153.9250 C   0  0  0  0  0  0  0  0  0  0  0  0
  157.0900  213.4730  153.8070 C   0  0  0  0  0  3  0  0  0  0  0  0
  154.9490  213.9640  154.7310 F   0  0  0  0  0  0  0  0  0  0  0  0
  156.9010  214.4530  156.0120 C   0  0  0  0  0  3  0  0  0  0  0  0
  156.2990  213.9640  154.8490 C   0  0  0  0  0  0  0  0  0  0  0  0
  158.2920  214.4510  156.1340 C   0  0  0  0  0  3  0  0  0  0  0  0
  161.8810  207.4790  153.2470 C   0  0  1  0  0  3  0  0  0  0  0  0
  161.4780  206.3780  154.2480 C   0  0  2  0  0  3  0  0  0  0  0  0
  161.1580  206.2300  152.7780 C   0  0  2  0  0  3  0  0  0  0  0  0
  162.3550  205.0830  152.0430 S   0  0  0  0  0  0  0  0  0  0  0  0
  161.1160  204.4240  150.8950 C   0  0  0  0  0  1  0  0  0  0  0  0
  160.4290  206.6070  156.4830 C   0  0  0  0  0  1  0  0  0  0  0  0
  160.1670  206.5920  154.9910 C   0  0  0  0  0  2  0  0  0  0  0  0
  1 13  1  0  0  0  0
  2  5  1  0  0  0  0
  3 15  1  0  0  0  0
  4  6  1  0  0  0  0
  5 17  1  0  0  0  0
  5  7  1  0  0  0  0
  6  2  1  0  0  0  0
  6  9  1  0  0  0  0
  7  3  1  0  0  0  0
  8 12  1  0  0  0  0
  8  4  1  0  0  0  0
  9 17  1  0  0  0  0
 10  1  1  0  0  0  0
 11 23  1  0  0  0  0
 12 16  1  0  0  0  0
 13  9  1  0  0  0  0
 14 15  1  0  0  0  0
 16 11  1  0  0  0  0
 16  2  1  0  0  0  0
 17 22  1  0  0  0  0
 18  4  1  0  0  0  0
 18  1  1  0  0  0  0
 19  7  1  0  0  0  0
 19 25  1  0  0  0  0
 20  1  1  0  0  0  0
 21 14  1  0  0  0  0
 21 15  1  0  0  0  0
 22 21  1  0  0  0  0
 23 19  1  0  0  0  0
 24 30  1  0  0  0  0
 25 24  2  0  0  0  0
 26 25  1  0  0  0  0
 26 29  2  0  0  0  0
 27 29  1  0  0  0  0
 28 30  2  0  0  0  0
 29 28  1  0  0  0  0
 31 22  1  0  0  0  0
 31 32  1  0  0  0  0
 32 37  1  0  0  0  0
 33 31  1  0  0  0  0
 33 32  1  0  0  0  0
 34 33  1  0  0  0  0
 35 34  1  0  0  0  0
 37 36  1  0  0  0  0
M  END
>  <MODEL>
3

>  <REMARK>
 VINA RESULT:      -4.1      3.471      8.439
  Name = 
  4 active torsions:
  status: ('A' for Active; 'I' for Inactive)
    1  A    between atoms: C_1  and  C_27
    2  A    between atoms: C_4  and  C_37
    3  A    between atoms: S_8  and  C_12
    4  A    between atoms: C_23  and  C_30
                            x       y       z     vdW  Elec       q    Type
                         _______ _______ _______ _____ _____    ______ ____

>  <TORSDO>
F 4

$$$$
