=
 OpenBabel11122414273D

 34 40  0  0  1  0  0  0  0  0999 V2000
  161.5280  208.2890  150.0940 C   0  0  0  0  0  0  0  0  0  0  0  0
  162.2790  210.2490  151.1960 C   0  0  0  0  0  2  0  0  0  0  0  0
  161.7630  200.8220  148.2520 C   0  0  0  0  0  2  0  0  0  0  0  0
  161.4440  205.9500  149.0260 C   0  0  1  0  0  3  0  0  0  0  0  0
  160.7520  204.0550  150.4590 C   0  0  0  0  0  0  0  0  0  0  0  0
  161.4790  201.6720  150.5830 C   0  0  0  0  0  2  0  0  0  0  0  0
  161.1410  200.5450  149.6170 C   0  0  0  0  0  2  0  0  0  0  0  0
  160.3160  202.7020  147.7340 C   0  0  0  0  0  2  0  0  0  0  0  0
  161.9030  208.3570  152.5430 C   0  0  2  0  0  3  0  0  0  0  0  0
  160.2610  208.4450  155.3130 C   0  0  0  0  0  2  0  0  0  0  0  0
  160.7020  204.8670  151.4780 N   0  0  0  0  0  0  0  0  0  0  0  0
  161.4670  203.6550  148.0380 C   0  0  0  0  0  2  0  0  0  0  0  0
  160.8810  207.1800  152.5690 C   0  0  1  0  0  3  0  0  0  0  0  0
  161.3190  210.6700  152.2830 C   0  0  0  0  0  2  0  0  0  0  0  0
  161.1380  204.5510  149.1500 N   0  0  0  0  0  0  0  0  0  0  0  0
  160.8010  201.3900  147.3010 N   0  0  0  0  0  2  0  0  0  0  0  0
  160.1330  209.4060  154.1190 C   0  0  2  0  0  3  0  0  0  0  0  0
  161.3390  206.8050  150.2110 C   0  0  0  0  0  0  0  0  0  0  0  0
  160.3130  202.6390  150.6720 C   0  0  0  0  0  2  0  0  0  0  0  0
  161.0250  206.2660  151.3860 C   0  0  0  0  0  0  0  0  0  0  0  0
  162.2410  207.8350  147.7920 C   0  0  0  0  0  3  0  0  0  0  0  0
  161.2320  207.2800  155.1130 C   0  0  0  0  0  2  0  0  0  0  0  0
  161.8630  206.4550  147.9040 N   0  0  0  0  0  0  0  0  0  0  0  0
  160.9050  206.4090  153.8970 C   0  0  0  0  0  2  0  0  0  0  0  0
  161.4470  209.5950  153.3320 C   0  0  1  0  0  3  0  0  0  0  0  0
  162.1150  208.6570  148.7950 N   0  0  0  0  0  0  0  0  0  0  0  0
  162.3630  208.7900  151.1980 N   0  0  0  0  0  0  0  0  0  0  0  0
  159.6300  210.6860  154.5970 N   0  0  0  0  0  2  0  0  0  0  0  0
  158.8740  210.4230  155.7480 N   0  0  0  0  0  2  0  0  0  0  0  0
  157.1290  212.8380  153.9980 C   0  0  0  0  0  2  0  0  0  0  0  0
  156.5380  211.0310  155.4570 C   0  0  0  0  0  2  0  0  0  0  0  0
  157.9140  211.5050  155.8810 C   0  0  0  0  0  3  0  0  0  0  0  0
  155.9460  212.1620  154.6500 C   0  0  0  0  0  2  0  0  0  0  0  0
  158.2920  212.6440  154.9500 C   0  0  0  0  0  2  0  0  0  0  0  0
  1 18  1  0  0  0  0
  1 27  1  0  0  0  0
  2 27  1  0  0  0  0
  2 14  1  0  0  0  0
  3  7  1  0  0  0  0
  4 23  1  1  0  0  0
  4 15  1  0  0  0  0
  4 18  1  0  0  0  0
  5 19  1  0  0  0  0
  5 11  2  0  0  0  0
  6 19  1  0  0  0  0
  7  6  1  0  0  0  0
  8 12  1  0  0  0  0
  9 27  1  6  0  0  0
  9 13  1  0  0  0  0
  9 25  1  0  0  0  0
 12 15  1  0  0  0  0
 13 24  1  1  0  0  0
 15  5  1  0  0  0  0
 16  8  1  0  0  0  0
 16  3  1  0  0  0  0
 17 28  1  1  0  0  0
 17 10  1  0  0  0  0
 18 20  2  0  0  0  0
 20 11  1  0  0  0  0
 20 13  1  0  0  0  0
 21 23  2  0  0  0  0
 21 26  1  0  0  0  0
 22 10  1  0  0  0  0
 24 22  1  0  0  0  0
 25 14  1  6  0  0  0
 25 17  1  0  0  0  0
 26  1  2  0  0  0  0
 28 29  1  0  0  0  0
 29 32  1  0  0  0  0
 30 33  1  0  0  0  0
 30 34  1  0  0  0  0
 31 32  1  0  0  0  0
 33 31  1  0  0  0  0
 34 32  1  0  0  0  0
M  END
>  <MODEL>
1

>  <REMARK>
 VINA RESULT:      -8.9      0.000      0.000
  Name = 
  3 active torsions:
  status: ('A' for Active; 'I' for Inactive)
    1  A    between atoms: C_17  and  N_28
    2  A    between atoms: N_28  and  N_29
    3  A    between atoms: N_29  and  C_32
                            x       y       z     vdW  Elec       q    Type
                         _______ _______ _______ _____ _____    ______ ____

>  <TORSDO>
F 3

$$$$
=
 OpenBabel11122414273D

 34 40  0  0  1  0  0  0  0  0999 V2000
  161.8290  208.0430  149.6930 C   0  0  2  0  0  3  0  0  0  0  0  0
  161.2200  207.1780  147.5710 C   0  0  0  0  0  2  0  0  0  0  0  0
  160.4660  210.4720  156.8650 C   0  0  0  0  0  2  0  0  0  0  0  0
  161.7450  209.1840  151.9970 C   0  0  0  0  0  0  0  0  0  0  0  0
  161.2560  207.7680  153.9660 C   0  0  0  0  0  0  0  0  0  0  0  0
  159.9560  208.1660  156.0570 C   0  0  0  0  0  2  0  0  0  0  0  0
  160.3630  209.0030  157.2610 C   0  0  0  0  0  2  0  0  0  0  0  0
  162.4280  210.1830  155.4650 C   0  0  0  0  0  2  0  0  0  0  0  0
  160.4930  205.9690  149.4540 C   0  0  2  0  0  3  0  0  0  0  0  0
  160.7840  202.7720  149.7350 C   0  0  0  0  0  2  0  0  0  0  0  0
  161.0830  206.7510  153.1690 N   0  0  0  0  0  0  0  0  0  0  0  0
  161.5450  210.2940  154.2270 C   0  0  0  0  0  2  0  0  0  0  0  0
  161.0680  205.6300  150.8630 C   0  0  1  0  0  3  0  0  0  0  0  0
  161.7090  205.7600  147.3960 C   0  0  0  0  0  2  0  0  0  0  0  0
  161.5970  209.0710  153.4220 N   0  0  0  0  0  0  0  0  0  0  0  0
  161.8490  210.8900  156.6080 N   0  0  0  0  0  2  0  0  0  0  0  0
  161.6440  203.7180  148.8810 C   0  0  2  0  0  3  0  0  0  0  0  0
  161.5610  207.9910  151.1680 C   0  0  0  0  0  0  0  0  0  0  0  0
  161.1840  207.5200  155.4410 C   0  0  0  0  0  2  0  0  0  0  0  0
  161.2020  206.8430  151.7380 C   0  0  0  0  0  0  0  0  0  0  0  0
  162.0550  210.4650  150.0030 C   0  0  0  0  0  3  0  0  0  0  0  0
  159.7220  203.4560  150.5980 C   0  0  0  0  0  2  0  0  0  0  0  0
  161.9800  210.3300  151.4300 N   0  0  0  0  0  0  0  0  0  0  0  0
  160.2910  204.5030  151.5600 C   0  0  0  0  0  2  0  0  0  0  0  0
  160.8800  204.9550  148.3640 C   0  0  1  0  0  3  0  0  0  0  0  0
  161.9570  209.4300  149.2170 N   0  0  0  0  0  0  0  0  0  0  0  0
  160.7690  207.3400  148.9520 N   0  0  1  0  0  0  0  0  0  0  0  0
  162.2130  202.9650  147.7720 N   0  0  0  0  0  2  0  0  0  0  0  0
  161.1990  202.1280  147.2850 N   0  0  0  0  0  2  0  0  0  0  0  0
  159.2850  202.8490  144.5000 C   0  0  0  0  0  2  0  0  0  0  0  0
  161.3370  203.6800  145.4180 C   0  0  0  0  0  2  0  0  0  0  0  0
  161.2260  202.2260  145.8360 C   0  0  0  0  0  3  0  0  0  0  0  0
  160.3950  203.8430  144.2480 C   0  0  0  0  0  2  0  0  0  0  0  0
  159.9210  201.7040  145.2620 C   0  0  0  0  0  2  0  0  0  0  0  0
  1 26  1  6  0  0  0
  1 18  1  0  0  0  0
  2 27  1  0  0  0  0
  3  7  1  0  0  0  0
  4 15  1  0  0  0  0
  5 19  1  0  0  0  0
  6  7  1  0  0  0  0
  8 16  1  0  0  0  0
  9 13  1  0  0  0  0
 10 22  1  0  0  0  0
 11  5  2  0  0  0  0
 12  8  1  0  0  0  0
 13 24  1  0  0  0  0
 13 20  1  0  0  0  0
 14  2  1  0  0  0  0
 14 25  1  0  0  0  0
 15  5  1  0  0  0  0
 15 12  1  0  0  0  0
 16  3  1  0  0  0  0
 17 10  1  0  0  0  0
 18 20  2  0  0  0  0
 18  4  1  0  0  0  0
 19  6  1  0  0  0  0
 20 11  1  0  0  0  0
 21 23  1  0  0  0  0
 22 24  1  0  0  0  0
 23  4  2  0  0  0  0
 25 17  1  0  0  0  0
 25  9  1  0  0  0  0
 26 21  2  0  0  0  0
 27  9  1  0  0  0  0
 27  1  1  0  0  0  0
 28 17  1  0  0  0  0
 29 28  1  0  0  0  0
 30 34  1  0  0  0  0
 31 32  1  0  0  0  0
 32 29  1  0  0  0  0
 33 30  1  0  0  0  0
 33 31  1  0  0  0  0
 34 32  1  0  0  0  0
M  END
>  <MODEL>
2

>  <REMARK>
 VINA RESULT:      -8.0      2.232      8.578
  Name = 
  3 active torsions:
  status: ('A' for Active; 'I' for Inactive)
    1  A    between atoms: C_17  and  N_28
    2  A    between atoms: N_28  and  N_29
    3  A    between atoms: N_29  and  C_32
                            x       y       z     vdW  Elec       q    Type
                         _______ _______ _______ _____ _____    ______ ____

>  <TORSDO>
F 3

$$$$
=
 OpenBabel11122414273D

 34 40  0  0  1  0  0  0  0  0999 V2000
  160.7420  207.2950  153.7020 C   0  0  2  0  0  3  0  0  0  0  0  0
  162.3180  205.8480  152.6790 C   0  0  0  0  0  2  0  0  0  0  0  0
  158.4420  213.8520  157.0050 C   0  0  0  0  0  2  0  0  0  0  0  0
  159.6790  209.1860  155.0860 C   0  0  0  0  0  0  0  0  0  0  0  0
  159.2230  211.3320  153.9420 C   0  0  0  0  0  0  0  0  0  0  0  0
  159.3570  213.7090  154.6870 C   0  0  0  0  0  2  0  0  0  0  0  0
  158.3970  214.4520  155.6040 C   0  0  0  0  0  2  0  0  0  0  0  0
  157.3930  211.7550  156.3760 C   0  0  0  0  0  2  0  0  0  0  0  0
  162.1040  208.0020  151.7560 C   0  0  2  0  0  3  0  0  0  0  0  0
  161.8310  208.5620  148.5950 C   0  0  0  0  0  2  0  0  0  0  0  0
  159.7910  210.8600  152.8690 N   0  0  0  0  0  0  0  0  0  0  0  0
  158.7540  211.0700  156.4420 C   0  0  0  0  0  2  0  0  0  0  0  0
  160.9410  209.0120  151.5140 C   0  0  1  0  0  3  0  0  0  0  0  0
  162.0230  205.6670  151.2090 C   0  0  0  0  0  2  0  0  0  0  0  0
  159.1350  210.5150  155.1400 N   0  0  0  0  0  0  0  0  0  0  0  0
  157.3330  212.9240  157.2560 N   0  0  0  0  0  2  0  0  0  0  0  0
  161.4470  207.2810  149.3540 C   0  0  2  0  0  3  0  0  0  0  0  0
  160.2780  208.7160  153.8340 C   0  0  0  0  0  0  0  0  0  0  0  0
  158.5940  212.6890  153.8620 C   0  0  0  0  0  2  0  0  0  0  0  0
  160.3640  209.5420  152.7950 C   0  0  0  0  0  0  0  0  0  0  0  0
  160.3080  207.1190  156.1090 C   0  0  0  0  0  3  0  0  0  0  0  0
  162.3290  209.7150  149.4680 C   0  0  0  0  0  2  0  0  0  0  0  0
  159.7000  208.4190  156.1350 N   0  0  0  0  0  0  0  0  0  0  0  0
  161.3340  210.1420  150.5500 C   0  0  0  0  0  2  0  0  0  0  0  0
  162.3200  207.0130  150.5990 C   0  0  1  0  0  3  0  0  0  0  0  0
  160.8050  206.6250  155.0110 N   0  0  0  0  0  0  0  0  0  0  0  0
  162.0510  207.2420  153.0310 N   0  0  1  0  0  0  0  0  0  0  0  0
  161.5020  206.1540  148.4350 N   0  0  0  0  0  2  0  0  0  0  0  0
  161.2960  206.6680  147.1470 N   0  0  0  0  0  2  0  0  0  0  0  0
  161.1950  203.3380  146.2320 C   0  0  0  0  0  2  0  0  0  0  0  0
  160.8120  205.4230  145.1150 C   0  0  0  0  0  2  0  0  0  0  0  0
  161.8260  205.6920  146.2100 C   0  0  0  0  0  3  0  0  0  0  0  0
  160.8400  203.9300  144.8880 C   0  0  0  0  0  2  0  0  0  0  0  0
  162.0600  204.3720  146.9240 C   0  0  0  0  0  2  0  0  0  0  0  0
  1 18  1  1  0  0  0
  1 26  1  0  0  0  0
  2 27  1  0  0  0  0
  3 16  1  0  0  0  0
  4 15  1  0  0  0  0
  4 23  2  0  0  0  0
  5 15  1  0  0  0  0
  6  7  1  0  0  0  0
  7  3  1  0  0  0  0
  8 12  1  0  0  0  0
  8 16  1  0  0  0  0
  9 27  1  0  0  0  0
 10 17  1  0  0  0  0
 10 22  1  0  0  0  0
 11  5  2  0  0  0  0
 13  9  1  0  0  0  0
 13 20  1  0  0  0  0
 14  2  1  0  0  0  0
 15 12  1  0  0  0  0
 17 25  1  0  0  0  0
 18  4  1  0  0  0  0
 19  5  1  0  0  0  0
 19  6  1  0  0  0  0
 20 11  1  0  0  0  0
 20 18  2  0  0  0  0
 21 23  1  0  0  0  0
 22 24  1  0  0  0  0
 24 13  1  0  0  0  0
 25 14  1  0  0  0  0
 25  9  1  0  0  0  0
 26 21  2  0  0  0  0
 27  1  1  0  0  0  0
 28 17  1  0  0  0  0
 29 28  1  0  0  0  0
 30 34  1  0  0  0  0
 31 32  1  0  0  0  0
 32 34  1  0  0  0  0
 32 29  1  0  0  0  0
 33 31  1  0  0  0  0
 33 30  1  0  0  0  0
M  END
>  <MODEL>
3

>  <REMARK>
 VINA RESULT:      -7.7      2.108      9.331
  Name = 
  3 active torsions:
  status: ('A' for Active; 'I' for Inactive)
    1  A    between atoms: C_17  and  N_28
    2  A    between atoms: N_28  and  N_29
    3  A    between atoms: N_29  and  C_32
                            x       y       z     vdW  Elec       q    Type
                         _______ _______ _______ _____ _____    ______ ____

>  <TORSDO>
F 3

$$$$
=
 OpenBabel11122414273D

 34 40  0  0  1  0  0  0  0  0999 V2000
  161.5120  209.7760  151.1950 C   0  0  0  0  0  0  0  0  0  0  0  0
  162.1360  211.0100  153.1200 C   0  0  0  0  0  2  0  0  0  0  0  0
  162.1410  204.0410  146.1040 C   0  0  0  0  0  2  0  0  0  0  0  0
  161.5700  208.2050  149.1580 C   0  0  1  0  0  3  0  0  0  0  0  0
  160.9090  205.8460  149.5050 C   0  0  0  0  0  0  0  0  0  0  0  0
  161.7350  203.6970  148.5430 C   0  0  0  0  0  2  0  0  0  0  0  0
  161.4830  203.1450  147.1480 C   0  0  0  0  0  2  0  0  0  0  0  0
  160.6340  205.9130  146.4440 C   0  0  0  0  0  2  0  0  0  0  0  0
  161.7940  208.7000  153.4090 C   0  0  2  0  0  3  0  0  0  0  0  0
  160.0490  207.4480  155.8110 C   0  0  0  0  0  2  0  0  0  0  0  0
  160.7870  206.0860  150.7800 N   0  0  0  0  0  0  0  0  0  0  0  0
  161.7300  206.6390  147.2180 C   0  0  0  0  0  2  0  0  0  0  0  0
  160.8240  207.6250  152.8300 C   0  0  1  0  0  3  0  0  0  0  0  0
  161.1190  210.8530  154.2260 C   0  0  0  0  0  2  0  0  0  0  0  0
  161.3210  206.9040  148.6000 N   0  0  0  0  0  0  0  0  0  0  0  0
  161.1910  204.9660  145.4760 N   0  0  0  0  0  2  0  0  0  0  0  0
  159.9230  208.8520  155.1970 C   0  0  2  0  0  3  0  0  0  0  0  0
  161.3840  208.4050  150.5970 C   0  0  0  0  0  0  0  0  0  0  0  0
  160.5250  204.4850  149.0100 C   0  0  0  0  0  2  0  0  0  0  0  0
  161.0510  207.3730  151.3670 C   0  0  0  0  0  0  0  0  0  0  0  0
  162.3280  210.4650  148.9870 C   0  0  0  0  0  3  0  0  0  0  0  0
  161.0770  206.5320  155.1430 C   0  0  0  0  0  2  0  0  0  0  0  0
  162.0080  209.1840  148.4240 N   0  0  0  0  0  0  0  0  0  0  0  0
  160.8330  206.3230  153.6460 C   0  0  0  0  0  2  0  0  0  0  0  0
  161.2550  209.4160  154.6590 C   0  0  1  0  0  3  0  0  0  0  0  0
  162.1300  210.7200  150.2500 N   0  0  0  0  0  0  0  0  0  0  0  0
  162.2830  209.7210  152.4470 N   0  0  0  0  0  0  0  0  0  0  0  0
  159.3480  209.7490  156.1880 N   0  0  0  0  0  2  0  0  0  0  0  0
  158.0490  210.0560  155.7550 N   0  0  0  0  0  2  0  0  0  0  0  0
  156.2710  212.7610  154.5500 C   0  0  0  0  0  2  0  0  0  0  0  0
  156.7010  211.8360  156.7180 C   0  0  0  0  0  2  0  0  0  0  0  0
  157.8990  211.4970  155.8510 C   0  0  0  0  0  3  0  0  0  0  0  0
  156.0000  212.9770  156.0210 C   0  0  0  0  0  2  0  0  0  0  0  0
  157.6200  212.0760  154.4740 C   0  0  0  0  0  2  0  0  0  0  0  0
  1 27  1  0  0  0  0
  2 14  1  0  0  0  0
  3  7  1  0  0  0  0
  4 23  1  1  0  0  0
  4 18  1  0  0  0  0
  5 11  2  0  0  0  0
  6 19  1  0  0  0  0
  7  6  1  0  0  0  0
  8 12  1  0  0  0  0
  9 27  1  6  0  0  0
  9 25  1  0  0  0  0
 11 20  1  0  0  0  0
 12 15  1  0  0  0  0
 13  9  1  0  0  0  0
 13 24  1  1  0  0  0
 15  4  1  0  0  0  0
 15  5  1  0  0  0  0
 16  3  1  0  0  0  0
 16  8  1  0  0  0  0
 17 10  1  0  0  0  0
 17 28  1  1  0  0  0
 18  1  1  0  0  0  0
 18 20  2  0  0  0  0
 19  5  1  0  0  0  0
 20 13  1  0  0  0  0
 21 26  1  0  0  0  0
 22 10  1  0  0  0  0
 23 21  2  0  0  0  0
 24 22  1  0  0  0  0
 25 14  1  6  0  0  0
 25 17  1  0  0  0  0
 26  1  2  0  0  0  0
 27  2  1  0  0  0  0
 29 32  1  0  0  0  0
 29 28  1  0  0  0  0
 30 33  1  0  0  0  0
 32 31  1  0  0  0  0
 33 31  1  0  0  0  0
 34 30  1  0  0  0  0
 34 32  1  0  0  0  0
M  END
>  <MODEL>
4

>  <REMARK>
 VINA RESULT:      -7.5      1.591      2.140
  Name = 
  3 active torsions:
  status: ('A' for Active; 'I' for Inactive)
    1  A    between atoms: C_17  and  N_28
    2  A    between atoms: N_28  and  N_29
    3  A    between atoms: N_29  and  C_32
                            x       y       z     vdW  Elec       q    Type
                         _______ _______ _______ _____ _____    ______ ____

>  <TORSDO>
F 3

$$$$
=
 OpenBabel11122414273D

 34 40  0  0  1  0  0  0  0  0999 V2000
  161.2880  205.5320  152.8240 C   0  0  0  0  0  0  0  0  0  0  0  0
  160.4880  206.2350  154.9420 C   0  0  0  0  0  2  0  0  0  0  0  0
  160.8020  204.4050  145.2280 C   0  0  0  0  0  2  0  0  0  0  0  0
  161.4000  204.7420  150.3780 C   0  0  1  0  0  3  0  0  0  0  0  0
  161.5740  206.4700  148.6170 C   0  0  0  0  0  0  0  0  0  0  0  0
  160.6250  206.6450  146.3170 C   0  0  0  0  0  2  0  0  0  0  0  0
  161.0700  205.8980  145.0680 C   0  0  0  0  0  2  0  0  0  0  0  0
  162.4920  204.0650  146.9370 C   0  0  0  0  0  2  0  0  0  0  0  0
  160.3750  207.8060  153.1940 C   0  0  2  0  0  3  0  0  0  0  0  0
  161.3460  210.8640  153.4870 C   0  0  0  0  0  2  0  0  0  0  0  0
  161.4650  207.3900  149.5340 N   0  0  0  0  0  0  0  0  0  0  0  0
  161.3940  203.9980  147.9930 C   0  0  0  0  0  2  0  0  0  0  0  0
  161.2540  208.1840  151.9630 C   0  0  1  0  0  3  0  0  0  0  0  0
  161.2100  207.4720  155.4190 C   0  0  0  0  0  2  0  0  0  0  0  0
  161.5420  205.0660  148.9860 N   0  0  0  0  0  0  0  0  0  0  0  0
  162.0020  203.6570  145.6190 N   0  0  0  0  0  2  0  0  0  0  0  0
  161.8290  209.6480  154.2960 C   0  0  2  0  0  3  0  0  0  0  0  0
  161.3110  205.8300  151.3540 C   0  0  0  0  0  0  0  0  0  0  0  0
  161.8240  206.9140  147.2080 C   0  0  0  0  0  2  0  0  0  0  0  0
  161.3000  207.0920  150.9320 C   0  0  0  0  0  0  0  0  0  0  0  0
  161.0780  203.1810  152.1600 C   0  0  0  0  0  3  0  0  0  0  0  0
  160.3450  210.5520  152.3730 C   0  0  0  0  0  2  0  0  0  0  0  0
  161.2940  203.5100  150.7790 N   0  0  0  0  0  0  0  0  0  0  0  0
  160.8590  209.5360  151.3510 C   0  0  0  0  0  2  0  0  0  0  0  0
  160.7510  208.5590  154.4810 C   0  0  1  0  0  3  0  0  0  0  0  0
  161.0470  204.1030  153.0800 N   0  0  0  0  0  0  0  0  0  0  0  0
  160.2740  206.3560  153.5010 N   0  0  0  0  0  0  0  0  0  0  0  0
  162.3240  210.1060  155.5860 N   0  0  0  0  0  2  0  0  0  0  0  0
  161.9020  211.4350  155.7360 N   0  0  0  0  0  2  0  0  0  0  0  0
  159.1300  212.9630  157.1200 C   0  0  0  0  0  2  0  0  0  0  0  0
  159.7770  210.7010  156.6630 C   0  0  0  0  0  2  0  0  0  0  0  0
  161.0540  211.4810  156.9140 C   0  0  0  0  0  3  0  0  0  0  0  0
  158.6660  211.5320  157.2600 C   0  0  0  0  0  2  0  0  0  0  0  0
  160.6430  212.9160  157.1940 C   0  0  0  0  0  2  0  0  0  0  0  0
  1 26  2  0  0  0  0
  1 27  1  0  0  0  0
  2 14  1  0  0  0  0
  3 16  1  0  0  0  0
  4 23  1  6  0  0  0
  4 18  1  0  0  0  0
  5 15  1  0  0  0  0
  5 11  2  0  0  0  0
  6 19  1  0  0  0  0
  7  3  1  0  0  0  0
  7  6  1  0  0  0  0
  8 12  1  0  0  0  0
  9 27  1  1  0  0  0
  9 25  1  0  0  0  0
 10 17  1  0  0  0  0
 11 20  1  0  0  0  0
 12 15  1  0  0  0  0
 13 24  1  6  0  0  0
 13  9  1  0  0  0  0
 15  4  1  0  0  0  0
 16  8  1  0  0  0  0
 17 25  1  0  0  0  0
 17 28  1  1  0  0  0
 18  1  1  0  0  0  0
 19  5  1  0  0  0  0
 20 18  2  0  0  0  0
 20 13  1  0  0  0  0
 21 26  1  0  0  0  0
 22 10  1  0  0  0  0
 23 21  2  0  0  0  0
 24 22  1  0  0  0  0
 25 14  1  1  0  0  0
 27  2  1  0  0  0  0
 28 29  1  0  0  0  0
 29 32  1  0  0  0  0
 30 34  1  0  0  0  0
 30 33  1  0  0  0  0
 31 32  1  0  0  0  0
 31 33  1  0  0  0  0
 32 34  1  0  0  0  0
M  END
>  <MODEL>
5

>  <REMARK>
 VINA RESULT:      -6.8      2.000      3.886
  Name = 
  3 active torsions:
  status: ('A' for Active; 'I' for Inactive)
    1  A    between atoms: C_17  and  N_28
    2  A    between atoms: N_28  and  N_29
    3  A    between atoms: N_29  and  C_32
                            x       y       z     vdW  Elec       q    Type
                         _______ _______ _______ _____ _____    ______ ____

>  <TORSDO>
F 3

$$$$
