=
 OpenBabel11122412353D

 30 35  0  0  1  0  0  0  0  0999 V2000
  161.0340  204.7010  148.1040 C   0  0  1  0  0  3  0  0  0  0  0  0
  161.4410  202.3030  147.2500 C   0  0  1  0  0  3  0  0  0  0  0  0
  160.6740  203.2240  151.9740 O   0  0  0  0  0  0  0  0  0  0  0  0
  161.3920  205.4380  149.4010 C   0  0  1  0  0  3  0  0  0  0  0  0
  162.0220  204.9500  147.1250 O   0  0  0  0  0  0  0  0  0  0  0  0
  162.0530  208.5820  147.4730 O   0  0  0  0  0  1  0  0  0  0  0  0
  160.7540  208.0130  151.3490 C   0  0  1  0  0  3  0  0  0  0  0  0
  162.2420  207.2580  147.8770 C   0  0  2  0  0  3  0  0  0  0  0  0
  160.4880  206.8590  152.3150 C   0  0  2  0  0  3  0  0  0  0  0  0
  160.9960  204.3900  152.6210 C   0  0  0  0  0  0  0  0  0  0  0  0
  161.9210  206.3010  146.7180 C   0  0  2  0  0  3  0  0  0  0  0  0
  161.3870  206.9470  149.1130 C   0  0  2  0  0  3  0  0  0  0  0  0
  161.1850  200.8240  147.5080 C   0  0  0  0  0  2  0  0  0  0  0  0
  161.2710  207.2680  153.5210 C   0  0  0  0  0  2  0  0  0  0  0  0
  161.0480  209.1710  152.0980 O   0  0  0  0  0  0  0  0  0  0  0  0
  160.9600  202.6230  145.9790 O   0  0  0  0  0  1  0  0  0  0  0  0
  160.2640  203.5100  150.6440 C   0  0  1  0  0  3  0  0  0  0  0  0
  161.5490  200.4720  148.9370 C   0  0  0  0  0  2  0  0  0  0  0  0
  160.7550  203.1880  148.3150 C   0  0  1  0  0  3  0  0  0  0  0  0
  160.4030  205.0580  150.5020 C   0  0  1  0  0  3  0  0  0  0  0  0
  161.3430  204.4240  153.8320 O   0  0  0  0  0  0  0  0  0  0  0  0
  160.8770  205.5420  151.7990 N   0  0  0  0  0  0  0  0  0  0  0  0
  161.2330  208.7730  153.4380 C   0  0  0  0  0  2  0  0  0  0  0  0
  163.2030  207.3690  150.8800 C   0  0  0  0  0  1  0  0  0  0  0  0
  160.7310  201.3540  149.8650 C   0  0  0  0  0  2  0  0  0  0  0  0
  161.0960  202.7610  149.6900 N   0  0  2  0  0  0  0  0  0  0  0  0
  161.8560  207.7950  150.3010 C   0  0  2  0  0  3  0  0  0  0  0  0
  160.6670  206.5720  146.1530 O   0  0  0  0  0  0  0  0  0  0  0  0
  159.7340  205.0940  144.7090 F   0  0  0  0  0  0  0  0  0  0  0  0
  160.7320  206.0360  144.8670 C   0  0  0  0  0  2  0  0  0  0  0  0
  1  5  1  6  0  0  0
  1 19  1  0  0  0  0
  1  4  1  0  0  0  0
  2 16  1  6  0  0  0
  2 13  1  0  0  0  0
  2 19  1  0  0  0  0
  3 10  1  0  0  0  0
  4 20  1  0  0  0  0
  6  8  1  0  0  0  0
  7 15  1  0  0  0  0
  7  9  1  0  0  0  0
  8 12  1  0  0  0  0
  9 14  1  0  0  0  0
 10 21  2  0  0  0  0
 11  5  1  0  0  0  0
 11  8  1  0  0  0  0
 12  4  1  0  0  0  0
 12 27  1  0  0  0  0
 13 18  1  0  0  0  0
 15 23  1  0  0  0  0
 17  3  1  0  0  0  0
 18 25  1  0  0  0  0
 19 26  1  0  0  0  0
 20 17  1  0  0  0  0
 20 22  1  0  0  0  0
 22  9  1  0  0  0  0
 22 10  1  0  0  0  0
 23 14  1  0  0  0  0
 26 25  1  0  0  0  0
 26 17  1  0  0  0  0
 27 24  1  0  0  0  0
 27  7  1  0  0  0  0
 28 11  1  0  0  0  0
 29 30  1  0  0  0  0
 30 28  1  0  0  0  0
M  END
>  <MODEL>
1

>  <REMARK>
 VINA RESULT:      -6.8      0.000      0.000
  Name = 
  2 active torsions:
  status: ('A' for Active; 'I' for Inactive)
    1  A    between atoms: C_11  and  O_28
    2  A    between atoms: O_28  and  C_30
                            x       y       z     vdW  Elec       q    Type
                         _______ _______ _______ _____ _____    ______ ____

>  <TORSDO>
F 2

$$$$
=
 OpenBabel11122412353D

 30 35  0  0  1  0  0  0  0  0999 V2000
  161.0640  203.9020  148.1000 C   0  0  1  0  0  3  0  0  0  0  0  0
  161.1740  201.4440  148.8720 C   0  0  1  0  0  3  0  0  0  0  0  0
  161.0320  205.1130  152.0770 O   0  0  0  0  0  0  0  0  0  0  0  0
  161.6280  205.2140  148.6610 C   0  0  1  0  0  3  0  0  0  0  0  0
  161.9500  203.3760  147.1330 O   0  0  0  0  0  0  0  0  0  0  0  0
  162.3170  206.4430  145.1890 O   0  0  0  0  0  1  0  0  0  0  0  0
  161.4290  208.5000  148.6560 C   0  0  1  0  0  3  0  0  0  0  0  0
  162.4430  205.6170  146.3090 C   0  0  2  0  0  3  0  0  0  0  0  0
  161.1830  208.2070  150.1350 C   0  0  2  0  0  3  0  0  0  0  0  0
  161.5200  206.3780  151.8640 C   0  0  0  0  0  0  0  0  0  0  0  0
  161.9140  204.2100  145.9900 C   0  0  2  0  0  3  0  0  0  0  0  0
  161.7130  206.2300  147.5120 C   0  0  2  0  0  3  0  0  0  0  0  0
  160.8300  200.4690  149.9890 C   0  0  0  0  0  2  0  0  0  0  0  0
  162.1300  209.1480  150.8070 C   0  0  0  0  0  2  0  0  0  0  0  0
  161.9010  209.8220  148.5290 O   0  0  0  0  0  0  0  0  0  0  0  0
  160.5780  200.9970  147.6920 O   0  0  0  0  0  1  0  0  0  0  0  0
  160.4960  204.5940  150.8680 C   0  0  1  0  0  3  0  0  0  0  0  0
  161.3250  201.0020  151.3190 C   0  0  0  0  0  2  0  0  0  0  0  0
  160.6890  202.8750  149.2030 C   0  0  1  0  0  3  0  0  0  0  0  0
  160.7440  205.7100  149.8050 C   0  0  1  0  0  3  0  0  0  0  0  0
  162.0050  207.0850  152.7860 O   0  0  0  0  0  0  0  0  0  0  0  0
  161.4020  206.8060  150.5160 N   0  0  0  0  0  0  0  0  0  0  0  0
  162.2050  210.2900  149.8240 C   0  0  0  0  0  2  0  0  0  0  0  0
  163.7480  207.3810  148.5770 C   0  0  0  0  0  1  0  0  0  0  0  0
  160.6940  202.3640  151.5490 C   0  0  0  0  0  2  0  0  0  0  0  0
  161.1500  203.3190  150.5360 N   0  0  2  0  0  0  0  0  0  0  0  0
  162.3830  207.5500  147.9140 C   0  0  2  0  0  3  0  0  0  0  0  0
  160.6290  204.2520  145.4300 O   0  0  0  0  0  0  0  0  0  0  0  0
  159.2650  202.9660  144.1560 F   0  0  0  0  0  0  0  0  0  0  0  0
  160.4300  202.9790  144.8970 C   0  0  0  0  0  2  0  0  0  0  0  0
  1  5  1  6  0  0  0
  1  4  1  0  0  0  0
  1 19  1  0  0  0  0
  2 16  1  6  0  0  0
  2 19  1  0  0  0  0
  2 13  1  0  0  0  0
  4 20  1  0  0  0  0
  6  8  1  0  0  0  0
  7  9  1  0  0  0  0
  8 12  1  0  0  0  0
  9 22  1  0  0  0  0
  9 14  1  0  0  0  0
 10  3  1  0  0  0  0
 10 21  2  0  0  0  0
 11  8  1  0  0  0  0
 11  5  1  0  0  0  0
 12 27  1  0  0  0  0
 12  4  1  0  0  0  0
 13 18  1  0  0  0  0
 15  7  1  0  0  0  0
 15 23  1  0  0  0  0
 17  3  1  0  0  0  0
 18 25  1  0  0  0  0
 19 26  1  0  0  0  0
 20 22  1  0  0  0  0
 20 17  1  0  0  0  0
 22 10  1  0  0  0  0
 23 14  1  0  0  0  0
 26 17  1  0  0  0  0
 26 25  1  0  0  0  0
 27 24  1  0  0  0  0
 27  7  1  0  0  0  0
 28 11  1  0  0  0  0
 29 30  1  0  0  0  0
 30 28  1  0  0  0  0
M  END
>  <MODEL>
2

>  <REMARK>
 VINA RESULT:      -5.3      1.602      2.353
  Name = 
  2 active torsions:
  status: ('A' for Active; 'I' for Inactive)
    1  A    between atoms: C_11  and  O_28
    2  A    between atoms: O_28  and  C_30
                            x       y       z     vdW  Elec       q    Type
                         _______ _______ _______ _____ _____    ______ ____

>  <TORSDO>
F 2

$$$$
=
 OpenBabel11122412353D

 30 35  0  0  1  0  0  0  0  0999 V2000
  161.0750  207.8370  151.5890 C   0  0  1  0  0  3  0  0  0  0  0  0
  161.9720  210.1780  150.9850 C   0  0  1  0  0  3  0  0  0  0  0  0
  161.5020  206.6860  147.6170 O   0  0  0  0  0  0  0  0  0  0  0  0
  161.3740  206.4240  151.0740 C   0  0  1  0  0  3  0  0  0  0  0  0
  161.8620  208.1050  152.7320 O   0  0  0  0  0  0  0  0  0  0  0  0
  161.0280  205.0480  154.5420 O   0  0  0  0  0  1  0  0  0  0  0  0
  160.3260  203.3100  150.8650 C   0  0  1  0  0  3  0  0  0  0  0  0
  161.5810  205.8130  153.5110 C   0  0  2  0  0  3  0  0  0  0  0  0
  160.4580  203.6610  149.3840 C   0  0  2  0  0  3  0  0  0  0  0  0
  161.5920  205.3370  147.8490 C   0  0  0  0  0  0  0  0  0  0  0  0
  161.3870  207.3090  153.8010 C   0  0  2  0  0  3  0  0  0  0  0  0
  160.9650  205.4190  152.1620 C   0  0  2  0  0  3  0  0  0  0  0  0
  162.1200  211.2120  149.8760 C   0  0  0  0  0  2  0  0  0  0  0  0
  161.2380  202.5020  148.8510 C   0  0  0  0  0  2  0  0  0  0  0  0
  160.4010  201.9100  151.0070 O   0  0  0  0  0  0  0  0  0  0  0  0
  161.2960  210.7650  152.0550 O   0  0  0  0  0  1  0  0  0  0  0  0
  160.8960  207.3270  148.7310 C   0  0  1  0  0  3  0  0  0  0  0  0
  162.7070  210.5680  148.6360 C   0  0  0  0  0  2  0  0  0  0  0  0
  161.2040  208.9290  150.4930 C   0  0  1  0  0  3  0  0  0  0  0  0
  160.6320  206.1830  149.7600 C   0  0  1  0  0  3  0  0  0  0  0  0
  162.0450  204.5270  146.9970 O   0  0  0  0  0  0  0  0  0  0  0  0
  161.1050  204.9530  149.1270 N   0  0  0  0  0  0  0  0  0  0  0  0
  160.8190  201.3800  149.7680 C   0  0  0  0  0  2  0  0  0  0  0  0
  162.7950  203.7690  151.4370 C   0  0  0  0  0  1  0  0  0  0  0  0
  161.7990  209.4240  148.2190 C   0  0  0  0  0  2  0  0  0  0  0  0
  161.7830  208.3810  149.2470 N   0  0  2  0  0  0  0  0  0  0  0  0
  161.3310  203.9700  151.8220 C   0  0  2  0  0  3  0  0  0  0  0  0
  160.0530  207.6110  154.1080 O   0  0  0  0  0  0  0  0  0  0  0  0
  159.3440  207.1360  156.2080 F   0  0  0  0  0  0  0  0  0  0  0  0
  160.0770  208.0200  155.4410 C   0  0  0  0  0  2  0  0  0  0  0  0
  1  5  1  1  0  0  0
  2 16  1  1  0  0  0
  3 10  1  0  0  0  0
  3 17  1  0  0  0  0
  4  1  1  0  0  0  0
  4 12  1  0  0  0  0
  5 11  1  0  0  0  0
  7 15  1  0  0  0  0
  7 27  1  0  0  0  0
  8 11  1  0  0  0  0
  8  6  1  0  0  0  0
  9  7  1  0  0  0  0
 10 22  1  0  0  0  0
 11 28  1  0  0  0  0
 12  8  1  0  0  0  0
 13  2  1  0  0  0  0
 14  9  1  0  0  0  0
 14 23  1  0  0  0  0
 17 26  1  0  0  0  0
 17 20  1  0  0  0  0
 18 13  1  0  0  0  0
 19  2  1  0  0  0  0
 19  1  1  0  0  0  0
 20  4  1  0  0  0  0
 21 10  2  0  0  0  0
 22  9  1  0  0  0  0
 22 20  1  0  0  0  0
 23 15  1  0  0  0  0
 24 27  1  0  0  0  0
 25 18  1  0  0  0  0
 25 26  1  0  0  0  0
 26 19  1  0  0  0  0
 27 12  1  0  0  0  0
 28 30  1  0  0  0  0
 30 29  1  0  0  0  0
M  END
>  <MODEL>
3

>  <REMARK>
 VINA RESULT:      -5.1      2.800      6.957
  Name = 
  2 active torsions:
  status: ('A' for Active; 'I' for Inactive)
    1  A    between atoms: C_11  and  O_28
    2  A    between atoms: O_28  and  C_30
                            x       y       z     vdW  Elec       q    Type
                         _______ _______ _______ _____ _____    ______ ____

>  <TORSDO>
F 2

$$$$
=
 OpenBabel11122412353D

 30 35  0  0  1  0  0  0  0  0999 V2000
  161.3940  203.5580  147.9010 C   0  0  1  0  0  3  0  0  0  0  0  0
  160.7790  203.8390  145.4120 C   0  0  1  0  0  3  0  0  0  0  0  0
  161.7280  207.6870  148.2490 O   0  0  0  0  0  0  0  0  0  0  0  0
  161.1250  204.3940  149.1580 C   0  0  1  0  0  3  0  0  0  0  0  0
  160.4050  202.5560  147.7730 O   0  0  0  0  0  0  0  0  0  0  0  0
  160.6670  201.2720  151.1780 O   0  0  0  0  0  1  0  0  0  0  0  0
  162.0090  205.0210  152.2670 C   0  0  1  0  0  3  0  0  0  0  0  0
  160.3840  202.2140  150.1860 C   0  0  2  0  0  3  0  0  0  0  0  0
  162.2060  206.3980  151.6360 C   0  0  2  0  0  3  0  0  0  0  0  0
  161.5130  207.7520  149.6030 C   0  0  0  0  0  0  0  0  0  0  0  0
  160.6020  201.5990  148.7950 C   0  0  2  0  0  3  0  0  0  0  0  0
  161.2410  203.4720  150.3810 C   0  0  2  0  0  3  0  0  0  0  0  0
  160.9240  204.7240  144.1810 C   0  0  0  0  0  2  0  0  0  0  0  0
  161.4860  207.2920  152.5950 C   0  0  0  0  0  2  0  0  0  0  0  0
  161.8240  205.1800  153.6550 O   0  0  0  0  0  0  0  0  0  0  0  0
  161.2540  202.5640  145.1020 O   0  0  0  0  0  1  0  0  0  0  0  0
  162.1280  206.3730  147.8870 C   0  0  1  0  0  3  0  0  0  0  0  0
  160.5680  206.1580  144.5240 C   0  0  0  0  0  2  0  0  0  0  0  0
  161.5580  204.4170  146.6170 C   0  0  1  0  0  3  0  0  0  0  0  0
  162.1070  205.5630  149.2220 C   0  0  1  0  0  3  0  0  0  0  0  0
  161.1990  208.8200  150.1920 O   0  0  0  0  0  0  0  0  0  0  0  0
  161.7030  206.5090  150.2620 N   0  0  0  0  0  0  0  0  0  0  0  0
  161.6400  206.5560  153.9020 C   0  0  0  0  0  2  0  0  0  0  0  0
  159.5060  204.8500  151.6820 C   0  0  0  0  0  1  0  0  0  0  0  0
  161.4740  206.6150  145.6540 C   0  0  0  0  0  2  0  0  0  0  0  0
  161.2170  205.8340  146.8660 N   0  0  2  0  0  0  0  0  0  0  0  0
  160.8680  204.1610  151.7000 C   0  0  2  0  0  3  0  0  0  0  0  0
  161.8600  200.9880  148.6880 O   0  0  0  0  0  0  0  0  0  0  0  0
  161.5730  200.0790  146.6320 F   0  0  0  0  0  0  0  0  0  0  0  0
  161.6250  199.8070  147.9850 C   0  0  0  0  0  2  0  0  0  0  0  0
  1  5  1  6  0  0  0
  1  4  1  0  0  0  0
  2 16  1  6  0  0  0
  2 19  1  0  0  0  0
  3 10  1  0  0  0  0
  4 20  1  0  0  0  0
  4 12  1  0  0  0  0
  5 11  1  0  0  0  0
  7 15  1  0  0  0  0
  8 12  1  0  0  0  0
  8  6  1  0  0  0  0
  9  7  1  0  0  0  0
  9 14  1  0  0  0  0
 10 21  2  0  0  0  0
 10 22  1  0  0  0  0
 11  8  1  0  0  0  0
 12 27  1  0  0  0  0
 13 18  1  0  0  0  0
 13  2  1  0  0  0  0
 14 23  1  0  0  0  0
 15 23  1  0  0  0  0
 17  3  1  0  0  0  0
 17 20  1  0  0  0  0
 18 25  1  0  0  0  0
 19 26  1  0  0  0  0
 19  1  1  0  0  0  0
 20 22  1  0  0  0  0
 22  9  1  0  0  0  0
 24 27  1  0  0  0  0
 25 26  1  0  0  0  0
 26 17  1  0  0  0  0
 27  7  1  0  0  0  0
 28 11  1  0  0  0  0
 29 30  1  0  0  0  0
 30 28  1  0  0  0  0
M  END
>  <MODEL>
4

>  <REMARK>
 VINA RESULT:      -4.8      1.900      4.564
  Name = 
  2 active torsions:
  status: ('A' for Active; 'I' for Inactive)
    1  A    between atoms: C_11  and  O_28
    2  A    between atoms: O_28  and  C_30
                            x       y       z     vdW  Elec       q    Type
                         _______ _______ _______ _____ _____    ______ ____

>  <TORSDO>
F 2

$$$$
=
 OpenBabel11122412353D

 30 35  0  0  1  0  0  0  0  0999 V2000
  161.0580  206.1890  150.0490 C   0  0  1  0  0  3  0  0  0  0  0  0
  161.6080  203.6780  149.8470 C   0  0  1  0  0  3  0  0  0  0  0  0
  160.7910  205.7620  154.1760 O   0  0  0  0  0  0  0  0  0  0  0  0
  161.3720  207.2600  151.1010 C   0  0  1  0  0  3  0  0  0  0  0  0
  162.0280  206.2280  149.0220 O   0  0  0  0  0  0  0  0  0  0  0  0
  161.8420  209.8190  148.4050 O   0  0  0  0  0  1  0  0  0  0  0  0
  160.5830  210.2160  152.3160 C   0  0  1  0  0  3  0  0  0  0  0  0
  162.1110  208.6610  149.1390 C   0  0  2  0  0  3  0  0  0  0  0  0
  160.3870  209.3420  153.5540 C   0  0  2  0  0  3  0  0  0  0  0  0
  161.0430  207.0740  154.4890 C   0  0  0  0  0  0  0  0  0  0  0  0
  161.8460  207.4170  148.2770 C   0  0  2  0  0  3  0  0  0  0  0  0
  161.2770  208.6370  150.4270 C   0  0  2  0  0  3  0  0  0  0  0  0
  161.4410  202.3060  150.4880 C   0  0  0  0  0  2  0  0  0  0  0  0
  161.1460  210.0980  154.5980 C   0  0  0  0  0  2  0  0  0  0  0  0
  160.8080  211.5440  152.7290 O   0  0  0  0  0  0  0  0  0  0  0  0
  161.1070  203.6240  148.5450 O   0  0  0  0  0  1  0  0  0  0  0  0
  160.3630  205.6640  152.8250 C   0  0  1  0  0  3  0  0  0  0  0  0
  161.8270  202.3640  151.9530 C   0  0  0  0  0  2  0  0  0  0  0  0
  160.8710  204.7710  150.6540 C   0  0  1  0  0  3  0  0  0  0  0  0
  160.4090  207.1270  152.2800 C   0  0  1  0  0  3  0  0  0  0  0  0
  161.3890  207.4450  155.6420 O   0  0  0  0  0  0  0  0  0  0  0  0
  160.8540  207.9600  153.3960 N   0  0  0  0  0  0  0  0  0  0  0  0
  161.0170  211.5240  154.1240 C   0  0  0  0  0  2  0  0  0  0  0  0
  163.0660  209.6130  151.9910 C   0  0  0  0  0  1  0  0  0  0  0  0
  160.9580  203.4100  152.6310 C   0  0  0  0  0  2  0  0  0  0  0  0
  161.2380  204.7410  152.0860 N   0  0  2  0  0  0  0  0  0  0  0  0
  161.6950  209.7930  151.3430 C   0  0  2  0  0  3  0  0  0  0  0  0
  160.5770  207.4560  147.6820 O   0  0  0  0  0  0  0  0  0  0  0  0
  161.7520  206.3870  146.0640 F   0  0  0  0  0  0  0  0  0  0  0  0
  160.5720  206.3910  146.7820 C   0  0  0  0  0  2  0  0  0  0  0  0
  1  5  1  6  0  0  0
  1 19  1  0  0  0  0
  1  4  1  0  0  0  0
  2 16  1  6  0  0  0
  2 13  1  0  0  0  0
  2 19  1  0  0  0  0
  3 10  1  0  0  0  0
  4 20  1  0  0  0  0
  6  8  1  0  0  0  0
  7 15  1  0  0  0  0
  7  9  1  0  0  0  0
  8 12  1  0  0  0  0
  9 14  1  0  0  0  0
 10 21  2  0  0  0  0
 11  5  1  0  0  0  0
 11  8  1  0  0  0  0
 12  4  1  0  0  0  0
 12 27  1  0  0  0  0
 13 18  1  0  0  0  0
 15 23  1  0  0  0  0
 17  3  1  0  0  0  0
 18 25  1  0  0  0  0
 19 26  1  0  0  0  0
 20 17  1  0  0  0  0
 20 22  1  0  0  0  0
 22  9  1  0  0  0  0
 22 10  1  0  0  0  0
 23 14  1  0  0  0  0
 26 25  1  0  0  0  0
 26 17  1  0  0  0  0
 27 24  1  0  0  0  0
 27  7  1  0  0  0  0
 28 11  1  0  0  0  0
 29 30  1  0  0  0  0
 30 28  1  0  0  0  0
M  END
>  <MODEL>
5

>  <REMARK>
 VINA RESULT:      -4.6      1.913      2.732
  Name = 
  2 active torsions:
  status: ('A' for Active; 'I' for Inactive)
    1  A    between atoms: C_11  and  O_28
    2  A    between atoms: O_28  and  C_30
                            x       y       z     vdW  Elec       q    Type
                         _______ _______ _______ _____ _____    ______ ____

>  <TORSDO>
F 2

$$$$
=
 OpenBabel11122412353D

 30 35  0  0  1  0  0  0  0  0999 V2000
  160.3820  210.8520  153.6050 C   0  0  1  0  0  3  0  0  0  0  0  0
  160.1550  208.6080  154.8550 C   0  0  1  0  0  3  0  0  0  0  0  0
  162.0940  208.8490  150.3900 O   0  0  0  0  0  0  0  0  0  0  0  0
  160.2960  211.2540  152.1280 C   0  0  1  0  0  3  0  0  0  0  0  0
  159.1240  211.0360  154.2240 O   0  0  0  0  0  0  0  0  0  0  0  0
  158.5820  214.4520  153.0600 O   0  0  0  0  0  1  0  0  0  0  0  0
  161.0270  213.5310  149.8660 C   0  0  1  0  0  3  0  0  0  0  0  0
  158.7450  213.0700  152.9350 C   0  0  2  0  0  3  0  0  0  0  0  0
  161.7530  212.3170  149.2870 C   0  0  2  0  0  3  0  0  0  0  0  0
  161.7820  209.7830  149.4340 C   0  0  0  0  0  0  0  0  0  0  0  0
  158.8730  212.4250  154.3240 C   0  0  2  0  0  3  0  0  0  0  0  0
  159.9620  212.7510  152.0560 C   0  0  2  0  0  3  0  0  0  0  0  0
  160.7210  207.2030  155.0130 C   0  0  0  0  0  2  0  0  0  0  0  0
  161.2970  212.3250  147.8630 C   0  0  0  0  0  2  0  0  0  0  0  0
  160.7720  214.4450  148.8240 O   0  0  0  0  0  0  0  0  0  0  0  0
  160.1850  209.2420  156.0980 O   0  0  0  0  0  1  0  0  0  0  0  0
  162.0460  209.4450  151.6790 C   0  0  1  0  0  3  0  0  0  0  0  0
  160.8540  206.5370  153.6570 C   0  0  0  0  0  2  0  0  0  0  0  0
  160.9610  209.4270  153.8210 C   0  0  1  0  0  3  0  0  0  0  0  0
  161.6120  210.9220  151.4240 C   0  0  1  0  0  3  0  0  0  0  0  0
  161.8010  209.5280  148.2010 O   0  0  0  0  0  0  0  0  0  0  0  0
  161.4600  211.0550  149.9750 N   0  0  0  0  0  0  0  0  0  0  0  0
  161.0540  213.7910  147.6070 C   0  0  0  0  0  2  0  0  0  0  0  0
  158.6930  212.4420  149.8430 C   0  0  0  0  0  1  0  0  0  0  0  0
  161.7440  207.4060  152.7870 C   0  0  0  0  0  2  0  0  0  0  0  0
  161.1120  208.7040  152.5400 N   0  0  2  0  0  0  0  0  0  0  0  0
  159.7220  213.2540  150.6270 C   0  0  2  0  0  3  0  0  0  0  0  0
  159.8440  213.0650  155.1070 O   0  0  0  0  0  0  0  0  0  0  0  0
  157.8930  213.1950  156.2540 F   0  0  0  0  0  0  0  0  0  0  0  0
  159.2690  213.1700  156.3730 C   0  0  0  0  0  2  0  0  0  0  0  0
  1 19  1  0  0  0  0
  1  5  1  6  0  0  0
  2 13  1  0  0  0  0
  2 16  1  1  0  0  0
  3 17  1  0  0  0  0
  4  1  1  0  0  0  0
  5 11  1  0  0  0  0
  7 27  1  0  0  0  0
  8  6  1  0  0  0  0
  8 11  1  0  0  0  0
  9  7  1  0  0  0  0
  9 22  1  0  0  0  0
 10 22  1  0  0  0  0
 10  3  1  0  0  0  0
 11 28  1  0  0  0  0
 12  4  1  0  0  0  0
 12  8  1  0  0  0  0
 14  9  1  0  0  0  0
 15  7  1  0  0  0  0
 17 26  1  0  0  0  0
 18 13  1  0  0  0  0
 19  2  1  0  0  0  0
 20 17  1  0  0  0  0
 20  4  1  0  0  0  0
 21 10  2  0  0  0  0
 22 20  1  0  0  0  0
 23 14  1  0  0  0  0
 23 15  1  0  0  0  0
 24 27  1  0  0  0  0
 25 18  1  0  0  0  0
 26 25  1  0  0  0  0
 26 19  1  0  0  0  0
 27 12  1  0  0  0  0
 28 30  1  0  0  0  0
 29 30  1  0  0  0  0
M  END
>  <MODEL>
6

>  <REMARK>
 VINA RESULT:      -4.0      5.338      8.430
  Name = 
  2 active torsions:
  status: ('A' for Active; 'I' for Inactive)
    1  A    between atoms: C_11  and  O_28
    2  A    between atoms: O_28  and  C_30
                            x       y       z     vdW  Elec       q    Type
                         _______ _______ _______ _____ _____    ______ ____

>  <TORSDO>
F 2

$$$$
