=
 OpenBabel11122414173D

 34 40  0  0  1  0  0  0  0  0999 V2000
  160.8020  207.3470  154.1930 C   0  0  0  0  0  0  0  0  0  0  0  0
  161.4810  205.1800  153.0520 C   0  0  0  0  0  2  0  0  0  0  0  0
  158.2030  213.3420  154.3160 C   0  0  0  0  0  0  0  0  0  0  0  0
  159.8690  209.4000  155.0510 C   0  0  0  0  0  0  0  0  0  0  0  0
  159.9080  211.5280  153.5900 C   0  0  2  0  0  3  0  0  0  0  0  0
  159.7430  213.7350  152.4150 C   0  0  0  0  0  1  0  0  0  0  0  0
  157.0220  213.7150  154.0970 O   0  0  0  0  0  0  0  0  0  0  0  0
  160.1180  213.1470  155.9710 C   0  0  0  0  0  2  0  0  0  0  0  0
  162.0070  207.2810  151.9790 C   0  0  2  0  0  3  0  0  0  0  0  0
  161.1730  207.2500  148.8490 C   0  0  0  0  0  3  0  0  0  0  0  0
  159.9700  210.5310  152.4380 C   0  0  0  0  0  2  0  0  0  0  0  0
  160.1700  211.6260  156.1150 C   0  0  0  0  0  2  0  0  0  0  0  0
  161.1270  208.4740  151.5740 C   0  0  1  0  0  3  0  0  0  0  0  0
  162.1670  204.8780  151.7300 C   0  0  0  0  0  2  0  0  0  0  0  0
  159.5350  210.8690  154.9410 C   0  0  2  0  0  3  0  0  0  0  0  0
  158.7800  213.5880  155.6040 N   0  0  0  0  0  2  0  0  0  0  0  0
  161.0020  206.1850  149.9020 C   0  0  2  0  0  3  0  0  0  0  0  0
  160.5310  208.7130  154.0190 C   0  0  0  0  0  0  0  0  0  0  0  0
  158.9730  212.6860  153.1970 C   0  0  2  0  0  3  0  0  0  0  0  0
  160.9750  209.4340  152.7650 C   0  0  2  0  0  3  0  0  0  0  0  0
  159.7370  207.3890  156.3020 C   0  0  0  0  0  3  0  0  0  0  0  0
  161.4670  208.5430  149.0680 C   0  0  0  0  0  3  0  0  0  0  0  0
  159.4800  208.7160  156.1620 N   0  0  0  0  0  0  0  0  0  0  0  0
  161.7800  209.1820  150.3960 C   0  0  0  0  0  2  0  0  0  0  0  0
  162.1580  206.1790  150.9200 C   0  0  1  0  0  3  0  0  0  0  0  0
  160.3930  206.7140  155.3230 N   0  0  0  0  0  0  0  0  0  0  0  0
  161.4680  206.6230  153.1530 N   0  0  0  0  0  0  0  0  0  0  0  0
  160.8840  204.9430  149.2680 O   0  0  0  0  0  0  0  0  0  0  0  0
  161.3350  205.1630  147.9640 C   0  0  0  0  0  2  0  0  0  0  0  0
  160.7180  201.6740  147.1340 C   0  0  0  0  0  2  0  0  0  0  0  0
  161.2350  203.7030  145.9440 C   0  0  0  0  0  2  0  0  0  0  0  0
  161.7880  203.8540  147.3440 C   0  0  0  0  0  3  0  0  0  0  0  0
  161.0440  202.2170  145.7580 C   0  0  0  0  0  2  0  0  0  0  0  0
  161.2420  202.6850  148.1400 C   0  0  0  0  0  2  0  0  0  0  0  0
  1 26  1  0  0  0  0
  2 27  1  0  0  0  0
  3 16  1  0  0  0  0
  4 23  2  0  0  0  0
  5 11  1  6  0  0  0
  5 15  1  0  0  0  0
  7  3  2  0  0  0  0
  8 12  1  0  0  0  0
  9 27  1  1  0  0  0
 10 22  2  0  0  0  0
 10 17  1  0  0  0  0
 13 24  1  6  0  0  0
 13  9  1  0  0  0  0
 13 20  1  0  0  0  0
 14  2  1  0  0  0  0
 15  4  1  0  0  0  0
 15 12  1  1  0  0  0
 16  8  1  0  0  0  0
 17 28  1  6  0  0  0
 17 25  1  0  0  0  0
 18  1  2  0  0  0  0
 18  4  1  0  0  0  0
 19  6  1  1  0  0  0
 19  5  1  0  0  0  0
 19  3  1  0  0  0  0
 20 11  1  6  0  0  0
 20 18  1  0  0  0  0
 22 24  1  0  0  0  0
 23 21  1  0  0  0  0
 25 14  1  1  0  0  0
 25  9  1  0  0  0  0
 26 21  2  0  0  0  0
 27  1  1  0  0  0  0
 29 28  1  0  0  0  0
 30 34  1  0  0  0  0
 31 32  1  0  0  0  0
 32 29  1  0  0  0  0
 32 34  1  0  0  0  0
 33 31  1  0  0  0  0
 33 30  1  0  0  0  0
M  END
>  <MODEL>
1

>  <REMARK>
 VINA RESULT:      -9.7      0.000      0.000
  Name = 
  3 active torsions:
  status: ('A' for Active; 'I' for Inactive)
    1  A    between atoms: C_17  and  O_28
    2  A    between atoms: O_28  and  C_29
    3  A    between atoms: C_29  and  C_32
                            x       y       z     vdW  Elec       q    Type
                         _______ _______ _______ _____ _____    ______ ____

>  <TORSDO>
F 3

$$$$
=
 OpenBabel11122414173D

 34 40  0  0  1  0  0  0  0  0999 V2000
  161.5780  207.7220  149.1770 C   0  0  0  0  0  0  0  0  0  0  0  0
  161.7670  210.0390  150.2040 C   0  0  0  0  0  2  0  0  0  0  0  0
  159.6560  201.4760  149.1170 C   0  0  0  0  0  0  0  0  0  0  0  0
  161.0680  205.5120  148.3560 C   0  0  0  0  0  0  0  0  0  0  0  0
  160.9680  203.5290  150.0070 C   0  0  2  0  0  3  0  0  0  0  0  0
  160.7430  201.4220  151.3440 C   0  0  0  0  0  1  0  0  0  0  0  0
  158.4970  200.9880  149.1060 O   0  0  0  0  0  0  0  0  0  0  0  0
  161.8760  201.7560  147.9180 C   0  0  0  0  0  2  0  0  0  0  0  0
  162.2250  208.1080  151.5840 C   0  0  2  0  0  3  0  0  0  0  0  0
  160.6870  208.2990  154.4290 C   0  0  0  0  0  3  0  0  0  0  0  0
  160.6650  204.6180  151.0310 C   0  0  0  0  0  2  0  0  0  0  0  0
  161.8170  203.2560  147.6280 C   0  0  0  0  0  2  0  0  0  0  0  0
  161.3910  206.8590  151.9070 C   0  0  1  0  0  3  0  0  0  0  0  0
  162.0950  210.5260  151.6060 C   0  0  0  0  0  2  0  0  0  0  0  0
  160.8580  204.0280  148.5450 C   0  0  2  0  0  3  0  0  0  0  0  0
  160.5370  201.1940  148.0230 N   0  0  0  0  0  2  0  0  0  0  0  0
  160.6650  209.2470  153.2570 C   0  0  2  0  0  3  0  0  0  0  0  0
  161.4050  206.3530  149.4310 C   0  0  0  0  0  0  0  0  0  0  0  0
  160.0800  202.3070  150.3030 C   0  0  2  0  0  3  0  0  0  0  0  0
  161.6110  205.7940  150.8210 C   0  0  2  0  0  3  0  0  0  0  0  0
  161.0420  207.3850  146.9010 C   0  0  0  0  0  3  0  0  0  0  0  0
  161.1440  207.0350  154.4200 C   0  0  0  0  0  3  0  0  0  0  0  0
  160.8850  206.0530  147.1210 N   0  0  0  0  0  0  0  0  0  0  0  0
  161.8160  206.3300  153.2700 C   0  0  0  0  0  2  0  0  0  0  0  0
  162.0210  209.3040  152.5270 C   0  0  1  0  0  3  0  0  0  0  0  0
  161.3850  208.2090  147.9240 N   0  0  0  0  0  0  0  0  0  0  0  0
  161.9130  208.6010  150.2570 N   0  0  0  0  0  0  0  0  0  0  0  0
  160.2870  210.5140  153.7130 O   0  0  0  0  0  0  0  0  0  0  0  0
  159.6430  210.2780  154.9320 C   0  0  0  0  0  2  0  0  0  0  0  0
  157.2550  212.8190  153.8920 C   0  0  0  0  0  2  0  0  0  0  0  0
  157.2940  210.9570  155.4200 C   0  0  0  0  0  2  0  0  0  0  0  0
  158.7200  211.4360  155.2630 C   0  0  0  0  0  3  0  0  0  0  0  0
  156.4410  212.1150  154.9580 C   0  0  0  0  0  2  0  0  0  0  0  0
  158.7060  212.4340  154.1230 C   0  0  0  0  0  2  0  0  0  0  0  0
  1 18  1  0  0  0  0
  1 27  1  0  0  0  0
  2 27  1  0  0  0  0
  2 14  1  0  0  0  0
  3 19  1  0  0  0  0
  4 15  1  0  0  0  0
  4 18  2  0  0  0  0
  5 19  1  0  0  0  0
  5 11  1  1  0  0  0
  7  3  2  0  0  0  0
  8 16  1  0  0  0  0
  9 27  1  6  0  0  0
  9 13  1  0  0  0  0
  9 25  1  0  0  0  0
 12  8  1  0  0  0  0
 13 24  1  1  0  0  0
 15 12  1  6  0  0  0
 15  5  1  0  0  0  0
 16  3  1  0  0  0  0
 17 28  1  1  0  0  0
 17 10  1  0  0  0  0
 18 20  1  0  0  0  0
 19  6  1  1  0  0  0
 20 11  1  1  0  0  0
 20 13  1  0  0  0  0
 21 23  2  0  0  0  0
 21 26  1  0  0  0  0
 22 10  2  0  0  0  0
 23  4  1  0  0  0  0
 24 22  1  0  0  0  0
 25 14  1  6  0  0  0
 25 17  1  0  0  0  0
 26  1  2  0  0  0  0
 28 29  1  0  0  0  0
 29 32  1  0  0  0  0
 30 34  1  0  0  0  0
 30 33  1  0  0  0  0
 32 31  1  0  0  0  0
 33 31  1  0  0  0  0
 34 32  1  0  0  0  0
M  END
>  <MODEL>
2

>  <REMARK>
 VINA RESULT:      -7.9      2.664      9.227
  Name = 
  3 active torsions:
  status: ('A' for Active; 'I' for Inactive)
    1  A    between atoms: C_17  and  O_28
    2  A    between atoms: O_28  and  C_29
    3  A    between atoms: C_29  and  C_32
                            x       y       z     vdW  Elec       q    Type
                         _______ _______ _______ _____ _____    ______ ____

>  <TORSDO>
F 3

$$$$
=
 OpenBabel11122414173D

 34 40  0  0  1  0  0  0  0  0999 V2000
  161.4060  208.2970  150.0820 C   0  0  0  0  0  0  0  0  0  0  0  0
  161.4740  206.8690  147.9810 C   0  0  0  0  0  2  0  0  0  0  0  0
  161.9990  209.2960  156.5140 C   0  0  0  0  0  0  0  0  0  0  0  0
  161.6240  209.4510  152.1900 C   0  0  0  0  0  0  0  0  0  0  0  0
  160.9680  208.2460  154.3780 C   0  0  2  0  0  3  0  0  0  0  0  0
  160.4740  207.3480  156.6640 C   0  0  0  0  0  1  0  0  0  0  0  0
  163.0110  209.2050  157.2550 O   0  0  0  0  0  0  0  0  0  0  0  0
  160.1890  210.7760  155.5270 C   0  0  0  0  0  2  0  0  0  0  0  0
  160.3520  206.0100  149.9430 C   0  0  2  0  0  3  0  0  0  0  0  0
  161.2540  202.9650  150.5810 C   0  0  0  0  0  3  0  0  0  0  0  0
  161.2580  206.9850  153.5700 C   0  0  0  0  0  2  0  0  0  0  0  0
  160.6090  210.7400  154.0570 C   0  0  0  0  0  2  0  0  0  0  0  0
  160.8290  205.8100  151.3910 C   0  0  1  0  0  3  0  0  0  0  0  0
  160.9580  205.4740  147.6610 C   0  0  0  0  0  2  0  0  0  0  0  0
  161.4860  209.5350  153.6920 C   0  0  2  0  0  3  0  0  0  0  0  0
  161.3330  210.5590  156.3990 N   0  0  0  0  0  2  0  0  0  0  0  0
  161.7150  203.8980  149.4910 C   0  0  2  0  0  3  0  0  0  0  0  0
  161.2420  208.3010  151.4760 C   0  0  0  0  0  0  0  0  0  0  0  0
  161.5070  208.0560  155.8070 C   0  0  2  0  0  3  0  0  0  0  0  0
  160.6360  207.1110  152.1850 C   0  0  2  0  0  3  0  0  0  0  0  0
  162.3370  210.4670  150.1690 C   0  0  0  0  0  3  0  0  0  0  0  0
  160.5630  203.3100  151.6820 C   0  0  0  0  0  3  0  0  0  0  0  0
  162.1710  210.5000  151.5170 N   0  0  0  0  0  0  0  0  0  0  0  0
  160.0250  204.6770  152.0140 C   0  0  0  0  0  2  0  0  0  0  0  0
  160.5870  204.8230  148.9970 C   0  0  1  0  0  3  0  0  0  0  0  0
  161.9560  209.3730  149.4610 N   0  0  0  0  0  0  0  0  0  0  0  0
  161.0330  207.1350  149.3330 N   0  0  0  0  0  0  0  0  0  0  0  0
  162.2350  203.1340  148.4390 O   0  0  0  0  0  0  0  0  0  0  0  0
  161.2490  202.1820  148.1670 C   0  0  0  0  0  2  0  0  0  0  0  0
  160.5050  199.6910  145.6200 C   0  0  0  0  0  2  0  0  0  0  0  0
  160.2980  202.0780  145.8640 C   0  0  0  0  0  2  0  0  0  0  0  0
  161.4300  201.6350  146.7620 C   0  0  0  0  0  3  0  0  0  0  0  0
  160.1220  200.9520  144.8730 C   0  0  0  0  0  2  0  0  0  0  0  0
  161.3820  200.1200  146.7840 C   0  0  0  0  0  2  0  0  0  0  0  0
  1 18  1  0  0  0  0
  2 27  1  0  0  0  0
  3  7  2  0  0  0  0
  4 15  1  0  0  0  0
  5 11  1  6  0  0  0
  5 19  1  0  0  0  0
  8 16  1  0  0  0  0
  9 27  1  6  0  0  0
  9 13  1  0  0  0  0
 10 22  2  0  0  0  0
 12  8  1  0  0  0  0
 13 24  1  1  0  0  0
 13 20  1  0  0  0  0
 14  2  1  0  0  0  0
 15 12  1  6  0  0  0
 15  5  1  0  0  0  0
 16  3  1  0  0  0  0
 17 28  1  6  0  0  0
 17 10  1  0  0  0  0
 18 20  1  0  0  0  0
 18  4  2  0  0  0  0
 19  3  1  0  0  0  0
 19  6  1  1  0  0  0
 20 11  1  1  0  0  0
 21 23  2  0  0  0  0
 22 24  1  0  0  0  0
 23  4  1  0  0  0  0
 25 14  1  6  0  0  0
 25 17  1  0  0  0  0
 25  9  1  0  0  0  0
 26  1  2  0  0  0  0
 26 21  1  0  0  0  0
 27  1  1  0  0  0  0
 29 28  1  0  0  0  0
 30 34  1  0  0  0  0
 31 32  1  0  0  0  0
 32 34  1  0  0  0  0
 32 29  1  0  0  0  0
 33 30  1  0  0  0  0
 33 31  1  0  0  0  0
M  END
>  <MODEL>
3

>  <REMARK>
 VINA RESULT:      -7.8      2.415      4.359
  Name = 
  3 active torsions:
  status: ('A' for Active; 'I' for Inactive)
    1  A    between atoms: C_17  and  O_28
    2  A    between atoms: O_28  and  C_29
    3  A    between atoms: C_29  and  C_32
                            x       y       z     vdW  Elec       q    Type
                         _______ _______ _______ _____ _____    ______ ____

>  <TORSDO>
F 3

$$$$
=
 OpenBabel11122414173D

 34 40  0  0  1  0  0  0  0  0999 V2000
  161.6190  207.7430  149.6020 C   0  0  0  0  0  0  0  0  0  0  0  0
  161.7460  209.9100  150.9240 C   0  0  0  0  0  2  0  0  0  0  0  0
  159.7200  201.5640  148.6410 C   0  0  0  0  0  0  0  0  0  0  0  0
  161.1600  205.6580  148.4790 C   0  0  0  0  0  0  0  0  0  0  0  0
  160.9760  203.4810  149.8560 C   0  0  2  0  0  3  0  0  0  0  0  0
  160.6850  201.2210  150.8980 C   0  0  0  0  0  1  0  0  0  0  0  0
  158.5640  201.0870  148.5060 O   0  0  0  0  0  0  0  0  0  0  0  0
  162.0000  201.9850  147.6090 C   0  0  0  0  0  2  0  0  0  0  0  0
  162.1340  207.8160  152.0700 C   0  0  2  0  0  3  0  0  0  0  0  0
  160.4450  207.6490  154.8280 C   0  0  0  0  0  3  0  0  0  0  0  0
  160.6160  204.4310  150.9930 C   0  0  0  0  0  2  0  0  0  0  0  0
  161.9520  203.5110  147.5110 C   0  0  0  0  0  2  0  0  0  0  0  0
  161.2870  206.5390  152.1850 C   0  0  1  0  0  3  0  0  0  0  0  0
  161.9970  210.2120  152.3930 C   0  0  0  0  0  2  0  0  0  0  0  0
  160.9440  204.1630  148.4650 C   0  0  2  0  0  3  0  0  0  0  0  0
  160.6590  201.4210  147.5690 N   0  0  0  0  0  2  0  0  0  0  0  0
  160.4840  208.7390  153.7880 C   0  0  2  0  0  3  0  0  0  0  0  0
  161.4360  206.3530  149.6690 C   0  0  0  0  0  0  0  0  0  0  0  0
  160.0770  202.2350  149.9450 C   0  0  2  0  0  3  0  0  0  0  0  0
  161.5680  205.6200  150.9850 C   0  0  2  0  0  3  0  0  0  0  0  0
  161.2070  207.7010  147.2750 C   0  0  0  0  0  3  0  0  0  0  0  0
  160.9050  206.3940  154.6830 C   0  0  0  0  0  3  0  0  0  0  0  0
  161.0420  206.3530  147.3150 N   0  0  0  0  0  0  0  0  0  0  0  0
  161.6400  205.8390  153.4900 C   0  0  0  0  0  2  0  0  0  0  0  0
  161.8770  208.8830  153.1450 C   0  0  1  0  0  3  0  0  0  0  0  0
  161.4920  208.3870  148.4120 N   0  0  0  0  0  0  0  0  0  0  0  0
  161.8930  208.4760  150.8010 N   0  0  0  0  0  0  0  0  0  0  0  0
  160.0780  209.9390  154.3810 O   0  0  0  0  0  0  0  0  0  0  0  0
  159.7110  209.5880  155.6830 C   0  0  0  0  0  2  0  0  0  0  0  0
  162.9780  209.8800  157.2600 C   0  0  0  0  0  2  0  0  0  0  0  0
  161.4940  211.3020  156.0030 C   0  0  0  0  0  2  0  0  0  0  0  0
  160.6400  210.2540  156.6820 C   0  0  0  0  0  3  0  0  0  0  0  0
  162.7940  211.3020  156.7720 C   0  0  0  0  0  2  0  0  0  0  0  0
  161.6020  209.2350  157.2580 C   0  0  0  0  0  2  0  0  0  0  0  0
  1 18  1  0  0  0  0
  1 27  1  0  0  0  0
  2 14  1  0  0  0  0
  3 19  1  0  0  0  0
  4 18  2  0  0  0  0
  5 19  1  0  0  0  0
  5 11  1  1  0  0  0
  7  3  2  0  0  0  0
  9 27  1  6  0  0  0
  9 13  1  0  0  0  0
  9 25  1  0  0  0  0
 12  8  1  0  0  0  0
 13 24  1  1  0  0  0
 15 12  1  6  0  0  0
 15  4  1  0  0  0  0
 15  5  1  0  0  0  0
 16  8  1  0  0  0  0
 16  3  1  0  0  0  0
 17 28  1  1  0  0  0
 17 10  1  0  0  0  0
 18 20  1  0  0  0  0
 19  6  1  1  0  0  0
 20 11  1  6  0  0  0
 20 13  1  0  0  0  0
 21 23  2  0  0  0  0
 21 26  1  0  0  0  0
 22 10  2  0  0  0  0
 23  4  1  0  0  0  0
 24 22  1  0  0  0  0
 25 14  1  6  0  0  0
 25 17  1  0  0  0  0
 26  1  2  0  0  0  0
 27  2  1  0  0  0  0
 28 29  1  0  0  0  0
 29 32  1  0  0  0  0
 31 32  1  0  0  0  0
 31 33  1  0  0  0  0
 32 34  1  0  0  0  0
 33 30  1  0  0  0  0
 34 30  1  0  0  0  0
M  END
>  <MODEL>
4

>  <REMARK>
 VINA RESULT:      -7.5      2.817      9.213
  Name = 
  3 active torsions:
  status: ('A' for Active; 'I' for Inactive)
    1  A    between atoms: C_17  and  O_28
    2  A    between atoms: O_28  and  C_29
    3  A    between atoms: C_29  and  C_32
                            x       y       z     vdW  Elec       q    Type
                         _______ _______ _______ _____ _____    ______ ____

>  <TORSDO>
F 3

$$$$
