=
 OpenBabel11122413533D

 37 44  0  0  1  0  0  0  0  0999 V2000
  161.0820  210.2160  148.4990 C   0  0  0  0  0  2  0  0  0  0  0  0
  161.9810  205.8850  146.5200 C   0  0  0  0  0  0  0  0  0  0  0  0
  160.4580  206.3170  150.6190 C   0  0  1  0  0  3  0  0  0  0  0  0
  161.4290  211.6560  148.1330 C   0  0  1  0  0  0  0  0  0  0  0  0
  160.8580  209.7050  152.4710 C   0  0  0  0  0  2  0  0  0  0  0  0
  161.1820  204.8260  148.6810 C   0  0  1  0  0  3  0  0  0  0  0  0
  161.0030  207.7290  150.8770 C   0  0  1  0  0  3  0  0  0  0  0  0
  160.4880  212.8240  150.2490 C   0  0  2  0  0  3  0  0  0  0  0  0
  160.5740  206.1610  149.0920 C   0  0  2  0  0  3  0  0  0  0  0  0
  161.3710  208.2660  152.2760 C   0  0  2  0  0  3  0  0  0  0  0  0
  160.4290  203.7600  149.3160 N   0  0  0  0  0  2  0  0  0  0  0  0
  161.5800  212.7780  149.1700 C   0  0  0  0  0  2  0  0  0  0  0  0
  161.3960  207.3360  148.5420 C   0  0  2  0  0  3  0  0  0  0  0  0
  161.0820  206.5720  145.5100 C   0  0  0  0  0  1  0  0  0  0  0  0
  161.5600  205.0560  152.5790 C   0  0  0  0  0  3  0  0  0  0  0  0
  160.8390  203.7110  150.7230 C   0  0  0  0  0  2  0  0  0  0  0  0
  162.4900  206.9220  147.5440 C   0  0  0  0  0  2  0  0  0  0  0  0
  160.8420  212.0410  151.5180 C   0  0  0  0  0  2  0  0  0  0  0  0
  161.0490  210.5640  151.2310 C   0  0  1  0  0  3  0  0  0  0  0  0
  161.0000  205.0800  151.3620 C   0  0  0  0  0  0  0  0  0  0  0  0
  161.9600  208.0810  149.7420 C   0  0  1  0  0  3  0  0  0  0  0  0
  161.2050  204.7150  147.1630 C   0  0  0  0  0  2  0  0  0  0  0  0
  160.9390  207.3310  153.4090 C   0  0  1  0  0  3  0  0  0  0  0  0
  163.1780  205.3190  145.7830 C   0  0  0  0  0  1  0  0  0  0  0  0
  162.3110  210.3490  150.6490 O   0  0  0  0  0  0  0  0  0  0  0  0
  159.2370  212.4480  149.7530 O   0  0  0  0  0  1  0  0  0  0  0  0
  162.1160  209.5990  149.4660 C   0  0  2  0  0  3  0  0  0  0  0  0
  161.9410  206.2040  153.4500 C   0  0  0  0  0  2  0  0  0  0  0  0
  162.1790  211.8330  146.9020 C   0  0  0  0  0  2  0  0  0  0  0  0
  160.7290  212.1060  146.9250 N   0  0  0  0  0  2  0  0  0  0  0  0
  160.1360  207.4010  155.7780 C   0  0  0  0  0  3  0  0  0  0  0  0
  160.8910  207.9910  154.7600 C   0  0  0  0  0  0  0  0  0  0  0  0
  161.5820  209.1850  155.0190 C   0  0  0  0  0  3  0  0  0  0  0  0
  162.1960  210.9720  156.5630 N   0  0  0  0  0  1  0  0  0  0  0  0
  160.7590  209.1670  157.2610 N   0  0  0  0  0  0  0  0  0  0  0  0
  161.5010  209.7610  156.2880 C   0  0  0  0  0  0  0  0  0  0  0  0
  160.0810  208.0100  157.0330 C   0  0  0  0  0  3  0  0  0  0  0  0
  1 27  1  0  0  0  0
  2 22  1  0  0  0  0
  2 17  1  0  0  0  0
  3  7  1  0  0  0  0
  3 20  1  1  0  0  0
  4 29  1  6  0  0  0
  4  1  1  0  0  0  0
  4 12  1  0  0  0  0
  6 22  1  6  0  0  0
  6  9  1  0  0  0  0
  6 11  1  0  0  0  0
  7 10  1  0  0  0  0
  8 18  1  0  0  0  0
  9  3  1  0  0  0  0
 10  5  1  0  0  0  0
 10 23  1  0  0  0  0
 11 16  1  0  0  0  0
 12  8  1  0  0  0  0
 13  9  1  0  0  0  0
 13 21  1  0  0  0  0
 14  2  1  0  0  0  0
 15 28  1  0  0  0  0
 16 20  1  0  0  0  0
 17 13  1  0  0  0  0
 19 18  1  0  0  0  0
 19  5  1  0  0  0  0
 20 15  2  0  0  0  0
 21  7  1  0  0  0  0
 23 28  1  0  0  0  0
 23 32  1  0  0  0  0
 24  2  1  0  0  0  0
 25 19  1  0  0  0  0
 26  8  1  0  0  0  0
 27 21  1  0  0  0  0
 27 25  1  0  0  0  0
 29 30  1  0  0  0  0
 30  4  1  0  0  0  0
 31 37  1  0  0  0  0
 32 33  1  0  0  0  0
 32 31  2  0  0  0  0
 33 36  2  0  0  0  0
 36 34  1  0  0  0  0
 36 35  1  0  0  0  0
 37 35  2  0  0  0  0
M  END
>  <MODEL>
1

>  <REMARK>
 VINA RESULT:      -7.7      0.000      0.000
  Name = 
  1 active torsions:
  status: ('A' for Active; 'I' for Inactive)
    1  A    between atoms: C_23  and  C_30
                            x       y       z     vdW  Elec       q    Type
                         _______ _______ _______ _____ _____    ______ ____

>  <TORSDO>
F 1

$$$$
=
 OpenBabel11122413533D

 37 44  0  0  1  0  0  0  0  0999 V2000
  161.1390  207.9860  151.6770 C   0  0  0  0  0  2  0  0  0  0  0  0
  160.0780  210.7710  155.4980 C   0  0  0  0  0  0  0  0  0  0  0  0
  159.5190  212.1540  151.3640 C   0  0  1  0  0  3  0  0  0  0  0  0
  161.9140  206.6870  151.4770 C   0  0  1  0  0  0  0  0  0  0  0  0
  161.4120  210.3860  148.4740 C   0  0  0  0  0  2  0  0  0  0  0  0
  159.3240  212.5670  153.8730 C   0  0  1  0  0  3  0  0  0  0  0  0
  160.5690  211.2420  150.7140 C   0  0  1  0  0  3  0  0  0  0  0  0
  161.8220  206.5830  148.8870 C   0  0  2  0  0  3  0  0  0  0  0  0
  159.3140  211.5290  152.7570 C   0  0  2  0  0  3  0  0  0  0  0  0
  161.3330  211.5970  149.4220 C   0  0  2  0  0  3  0  0  0  0  0  0
  158.3550  213.5990  153.5540 N   0  0  0  0  0  2  0  0  0  0  0  0
  162.6290  206.3230  150.1690 C   0  0  0  0  0  2  0  0  0  0  0  0
  160.3990  210.4660  152.9800 C   0  0  2  0  0  3  0  0  0  0  0  0
  159.3300  209.4790  155.7650 C   0  0  0  0  0  1  0  0  0  0  0  0
  160.4040  214.4530  150.6070 C   0  0  0  0  0  3  0  0  0  0  0  0
  158.9490  214.4530  152.5200 C   0  0  0  0  0  2  0  0  0  0  0  0
  161.0880  210.5530  154.3520 C   0  0  0  0  0  2  0  0  0  0  0  0
  162.0780  207.9610  148.2680 C   0  0  0  0  0  2  0  0  0  0  0  0
  161.6890  209.0850  149.2110 C   0  0  1  0  0  3  0  0  0  0  0  0
  159.6950  213.6820  151.4440 C   0  0  0  0  0  0  0  0  0  0  0  0
  161.3850  210.5920  151.8290 C   0  0  1  0  0  3  0  0  0  0  0  0
  159.0510  211.8890  155.2090 C   0  0  0  0  0  2  0  0  0  0  0  0
  160.7900  212.8490  148.7300 C   0  0  1  0  0  3  0  0  0  0  0  0
  160.8490  211.1410  156.7480 C   0  0  0  0  0  1  0  0  0  0  0  0
  162.6740  209.2580  150.2010 O   0  0  0  0  0  0  0  0  0  0  0  0
  160.4570  206.3510  149.0660 O   0  0  0  0  0  1  0  0  0  0  0  0
  162.0280  209.2310  151.4590 C   0  0  2  0  0  3  0  0  0  0  0  0
  161.3120  214.0350  149.5020 C   0  0  0  0  0  2  0  0  0  0  0  0
  162.4610  206.0860  152.6820 C   0  0  0  0  0  2  0  0  0  0  0  0
  161.2310  205.5360  152.0770 N   0  0  0  0  0  2  0  0  0  0  0  0
  162.4760  213.4890  146.9960 C   0  0  0  0  0  3  0  0  0  0  0  0
  161.2080  212.9810  147.2900 C   0  0  0  0  0  0  0  0  0  0  0  0
  160.3540  212.6110  146.2410 C   0  0  0  0  0  3  0  0  0  0  0  0
  159.9290  212.3880  143.8480 N   0  0  0  0  0  1  0  0  0  0  0  0
  162.0250  213.2560  144.6610 N   0  0  0  0  0  0  0  0  0  0  0  0
  160.7860  212.7590  144.9220 C   0  0  0  0  0  0  0  0  0  0  0  0
  162.8700  213.6210  145.6630 C   0  0  0  0  0  3  0  0  0  0  0  0
  2 14  1  0  0  0  0
  2 24  1  0  0  0  0
  3 20  1  1  0  0  0
  3  9  1  0  0  0  0
  4 12  1  6  0  0  0
  4  1  1  0  0  0  0
  4 30  1  0  0  0  0
  4 29  1  0  0  0  0
  5 19  1  0  0  0  0
  5 10  1  0  0  0  0
  6 22  1  1  0  0  0
  7  3  1  0  0  0  0
  7 21  1  0  0  0  0
  8 26  1  0  0  0  0
  8 12  1  0  0  0  0
  9 13  1  0  0  0  0
  9  6  1  0  0  0  0
 10  7  1  0  0  0  0
 11  6  1  0  0  0  0
 13 17  1  0  0  0  0
 15 20  2  0  0  0  0
 16 11  1  0  0  0  0
 17  2  1  0  0  0  0
 18  8  1  0  0  0  0
 18 19  1  0  0  0  0
 19 25  1  0  0  0  0
 20 16  1  0  0  0  0
 21 13  1  0  0  0  0
 22  2  1  0  0  0  0
 23 10  1  0  0  0  0
 23 28  1  0  0  0  0
 25 27  1  0  0  0  0
 27  1  1  0  0  0  0
 27 21  1  0  0  0  0
 28 15  1  0  0  0  0
 30 29  1  0  0  0  0
 31 32  1  0  0  0  0
 32 23  1  0  0  0  0
 33 32  2  0  0  0  0
 34 36  1  0  0  0  0
 35 36  2  0  0  0  0
 35 37  1  0  0  0  0
 36 33  1  0  0  0  0
 37 31  2  0  0  0  0
M  END
>  <MODEL>
2

>  <REMARK>
 VINA RESULT:      -6.6      2.406      8.486
  Name = 
  1 active torsions:
  status: ('A' for Active; 'I' for Inactive)
    1  A    between atoms: C_23  and  C_30
                            x       y       z     vdW  Elec       q    Type
                         _______ _______ _______ _____ _____    ______ ____

>  <TORSDO>
F 1

$$$$
