=
 OpenBabel11122414043D

 28 32  0  0  1  0  0  0  0  0999 V2000
  159.9900  211.7810  151.1350 C   0  0  0  0  0  0  0  0  0  0  0  0
  160.5520  207.5280  149.5180 O   0  0  0  0  0  0  0  0  0  0  0  0
  163.0080  211.0690  156.0870 O   0  0  0  0  0  0  0  0  0  0  0  0
  162.3950  211.6010  149.7150 C   0  0  0  0  0  3  0  0  0  0  0  0
  161.9720  208.7280  155.5310 C   0  0  2  0  0  3  0  0  0  0  0  0
  158.7870  212.0030  152.0010 C   0  0  0  0  0  2  0  0  0  0  0  0
  162.8040  207.9690  150.4290 O   0  0  0  0  0  0  0  0  0  0  0  0
  161.4430  207.4030  150.7200 S   0  0  0  0  0  0  0  0  0  0  0  0
  160.7840  205.3430  152.4200 C   0  0  1  0  0  3  0  0  0  0  0  0
  160.6860  208.1410  152.1520 C   0  0  1  0  0  3  0  0  0  0  0  0
  159.0170  213.3010  155.5060 O   0  0  0  0  0  1  0  0  0  0  0  0
  161.1780  209.8370  153.7090 C   0  0  2  0  0  3  0  0  0  0  0  0
  161.0770  206.1910  153.6820 C   0  0  0  0  0  2  0  0  0  0  0  0
  161.6470  205.6860  151.1940 C   0  0  0  0  0  2  0  0  0  0  0  0
  158.7090  212.3770  154.5080 C   0  0  2  0  0  3  0  0  0  0  0  0
  160.8430  210.6750  151.3420 C   0  0  0  0  0  0  0  0  0  0  0  0
  161.6430  210.3960  156.1600 S   0  0  2  0  0  0  0  0  0  0  0  0
  160.9220  203.8720  152.7530 C   0  0  0  0  0  1  0  0  0  0  0  0
  159.3090  211.0140  154.8660 C   0  0  0  0  0  2  0  0  0  0  0  0
  162.0600  210.6220  150.6530 C   0  0  0  0  0  3  0  0  0  0  0  0
  160.3320  212.7620  150.1960 C   0  0  0  0  0  3  0  0  0  0  0  0
  161.5240  212.6650  149.4790 C   0  0  0  0  0  3  0  0  0  0  0  0
  159.1760  212.9150  153.1570 C   0  0  0  0  0  2  0  0  0  0  0  0
  161.0530  208.5790  154.4170 N   0  0  1  0  0  0  0  0  0  0  0  0
  160.8210  210.9600  154.6560 C   0  0  2  0  0  3  0  0  0  0  0  0
  161.4450  207.6490  153.3730 C   0  0  2  0  0  3  0  0  0  0  0  0
  161.6440  207.7170  156.6120 C   0  0  0  0  0  1  0  0  0  0  0  0
  160.4800  209.6480  152.3830 C   0  0  1  0  0  3  0  0  0  0  0  0
  1 16  1  0  0  0  0
  1  6  1  0  0  0  0
  2  8  2  0  0  0  0
  3 17  2  0  0  0  0
  4 20  1  0  0  0  0
  5 17  1  0  0  0  0
  5 27  1  1  0  0  0
  6 23  1  0  0  0  0
  7  8  2  0  0  0  0
  8 14  1  0  0  0  0
  9 18  1  1  0  0  0
  9 13  1  0  0  0  0
 10  8  1  6  0  0  0
 10 28  1  0  0  0  0
 10 26  1  0  0  0  0
 12 24  1  0  0  0  0
 12 25  1  0  0  0  0
 14  9  1  0  0  0  0
 15 19  1  0  0  0  0
 15 11  1  0  0  0  0
 16 28  1  0  0  0  0
 20 16  2  0  0  0  0
 21  1  2  0  0  0  0
 22  4  2  0  0  0  0
 22 21  1  0  0  0  0
 23 15  1  0  0  0  0
 24  5  1  0  0  0  0
 25 19  1  0  0  0  0
 25 17  1  0  0  0  0
 26 13  1  0  0  0  0
 26 24  1  0  0  0  0
 28 12  1  0  0  0  0
M  END
>  <MODEL>
1

>  <REMARK>
 VINA RESULT:      -4.8      0.000      0.000
  Name = 
  0 active torsions:
  status: ('A' for Active; 'I' for Inactive)
                            x       y       z     vdW  Elec       q    Type
                         _______ _______ _______ _____ _____    ______ ____

>  <TORSDO>
F 0

$$$$
=
 OpenBabel11122414043D

 28 32  0  0  1  0  0  0  0  0999 V2000
  160.7760  210.1140  138.3330 C   0  0  0  0  0  0  0  0  0  0  0  0
  162.5540  211.9880  142.1200 O   0  0  0  0  0  0  0  0  0  0  0  0
  156.6150  214.1160  137.4400 O   0  0  0  0  0  0  0  0  0  0  0  0
  162.6890  212.0390  137.6480 C   0  0  0  0  0  3  0  0  0  0  0  0
  156.9740  214.0160  140.0320 C   0  0  2  0  0  3  0  0  0  0  0  0
  159.6660  209.1300  138.5430 C   0  0  0  0  0  2  0  0  0  0  0  0
  162.1480  214.0090  140.7620 O   0  0  0  0  0  0  0  0  0  0  0  0
  161.5770  213.0820  141.7970 S   0  0  0  0  0  0  0  0  0  0  0  0
  159.8120  213.6710  143.8240 C   0  0  1  0  0  3  0  0  0  0  0  0
  160.0010  212.4060  141.3180 C   0  0  1  0  0  3  0  0  0  0  0  0
  156.2720  209.5390  137.0150 O   0  0  0  0  0  1  0  0  0  0  0  0
  158.5590  212.4860  139.4600 C   0  0  2  0  0  3  0  0  0  0  0  0
  158.6290  213.8530  142.8410 C   0  0  0  0  0  2  0  0  0  0  0  0
  161.1910  214.0500  143.2560 C   0  0  0  0  0  2  0  0  0  0  0  0
  157.1950  209.4290  138.0530 C   0  0  2  0  0  3  0  0  0  0  0  0
  160.7800  211.3620  138.9940 C   0  0  0  0  0  0  0  0  0  0  0  0
  156.2580  213.1830  138.5900 S   0  0  2  0  0  0  0  0  0  0  0  0
  159.5440  214.4530  145.0920 C   0  0  0  0  0  1  0  0  0  0  0  0
  157.0020  210.5850  139.0390 C   0  0  0  0  0  2  0  0  0  0  0  0
  161.7190  212.3270  138.6110 C   0  0  0  0  0  3  0  0  0  0  0  0
  161.7490  209.8310  137.3660 C   0  0  0  0  0  3  0  0  0  0  0  0
  162.7110  210.7860  137.0350 C   0  0  0  0  0  3  0  0  0  0  0  0
  158.6050  209.3510  137.4720 C   0  0  0  0  0  2  0  0  0  0  0  0
  157.8630  213.0250  140.6120 N   0  0  1  0  0  0  0  0  0  0  0  0
  157.5370  211.9130  138.5050 C   0  0  2  0  0  3  0  0  0  0  0  0
  158.9840  213.5320  141.3830 C   0  0  2  0  0  3  0  0  0  0  0  0
  155.8660  214.3530  141.0110 C   0  0  0  0  0  1  0  0  0  0  0  0
  159.7040  211.6650  140.0040 C   0  0  1  0  0  3  0  0  0  0  0  0
  1  6  1  0  0  0  0
  1 16  1  0  0  0  0
  3 17  2  0  0  0  0
  4 20  1  0  0  0  0
  5 24  1  0  0  0  0
  5 27  1  1  0  0  0
  7  8  2  0  0  0  0
  8  2  2  0  0  0  0
  8 14  1  0  0  0  0
  9 18  1  1  0  0  0
 10 26  1  0  0  0  0
 10  8  1  6  0  0  0
 11 15  1  0  0  0  0
 12 28  1  0  0  0  0
 12 24  1  0  0  0  0
 13  9  1  0  0  0  0
 14  9  1  0  0  0  0
 15 19  1  0  0  0  0
 16 28  1  0  0  0  0
 17  5  1  0  0  0  0
 20 16  2  0  0  0  0
 21  1  2  0  0  0  0
 22 21  1  0  0  0  0
 22  4  2  0  0  0  0
 23 15  1  0  0  0  0
 23  6  1  0  0  0  0
 24 26  1  0  0  0  0
 25 17  1  0  0  0  0
 25 19  1  0  0  0  0
 25 12  1  0  0  0  0
 26 13  1  0  0  0  0
 28 10  1  0  0  0  0
M  END
>  <MODEL>
2

>  <REMARK>
 VINA RESULT:      -4.5     11.005     14.390
  Name = 
  0 active torsions:
  status: ('A' for Active; 'I' for Inactive)
                            x       y       z     vdW  Elec       q    Type
                         _______ _______ _______ _____ _____    ______ ____

>  <TORSDO>
F 0

$$$$
=
 OpenBabel11122414043D

 28 32  0  0  1  0  0  0  0  0999 V2000
  161.2060  209.9850  155.7130 C   0  0  0  0  0  0  0  0  0  0  0  0
  163.1570  209.1690  151.6460 O   0  0  0  0  0  0  0  0  0  0  0  0
  156.2580  212.3280  153.6760 O   0  0  0  0  0  0  0  0  0  0  0  0
  160.3680  207.5040  154.7230 C   0  0  0  0  0  3  0  0  0  0  0  0
  158.1110  212.9190  151.9220 C   0  0  2  0  0  3  0  0  0  0  0  0
  161.4890  211.3230  156.3230 C   0  0  0  0  0  2  0  0  0  0  0  0
  160.8250  208.5180  151.1690 O   0  0  0  0  0  0  0  0  0  0  0  0
  161.8250  209.6380  151.1360 S   0  0  0  0  0  0  0  0  0  0  0  0
  161.9540  211.7570  149.3860 C   0  0  1  0  0  3  0  0  0  0  0  0
  161.2740  211.0760  152.0290 C   0  0  1  0  0  3  0  0  0  0  0  0
  158.7870  213.7410  157.2610 O   0  0  0  0  0  1  0  0  0  0  0  0
  159.4250  211.7160  153.3380 C   0  0  2  0  0  3  0  0  0  0  0  0
  160.7040  212.4350  149.9980 C   0  0  0  0  0  2  0  0  0  0  0  0
  161.9520  210.2200  149.4450 C   0  0  0  0  0  2  0  0  0  0  0  0
  159.9140  213.2960  156.5700 C   0  0  2  0  0  3  0  0  0  0  0  0
  160.8210  209.8660  154.3600 C   0  0  0  0  0  0  0  0  0  0  0  0
  157.4280  213.2970  153.5580 S   0  0  2  0  0  0  0  0  0  0  0  0
  162.1320  212.2180  147.9550 C   0  0  0  0  0  1  0  0  0  0  0  0
  159.7060  213.4910  155.0660 C   0  0  0  0  0  2  0  0  0  0  0  0
  160.3670  208.6270  153.8920 C   0  0  0  0  0  3  0  0  0  0  0  0
  161.2030  208.8560  156.5420 C   0  0  0  0  0  3  0  0  0  0  0  0
  160.7980  207.6180  156.0450 C   0  0  0  0  0  3  0  0  0  0  0  0
  160.2120  211.8500  156.9640 C   0  0  0  0  0  2  0  0  0  0  0  0
  159.5000  212.5880  152.1820 N   0  0  1  0  0  0  0  0  0  0  0  0
  158.7480  212.4650  154.4630 C   0  0  2  0  0  3  0  0  0  0  0  0
  160.1460  211.7050  151.2280 C   0  0  2  0  0  3  0  0  0  0  0  0
  158.0280  214.1580  151.0510 C   0  0  0  0  0  1  0  0  0  0  0  0
  160.7940  211.0960  153.4900 C   0  0  1  0  0  3  0  0  0  0  0  0
  1  6  1  0  0  0  0
  1 21  1  0  0  0  0
  4 22  1  0  0  0  0
  5 27  1  6  0  0  0
  5 24  1  0  0  0  0
  5 17  1  0  0  0  0
  6 23  1  0  0  0  0
  8  7  2  0  0  0  0
  8  2  2  0  0  0  0
  9 18  1  6  0  0  0
  9 14  1  0  0  0  0
  9 13  1  0  0  0  0
 10  8  1  6  0  0  0
 10 28  1  0  0  0  0
 12 28  1  0  0  0  0
 12 25  1  0  0  0  0
 13 26  1  0  0  0  0
 14  8  1  0  0  0  0
 15 23  1  0  0  0  0
 15 11  1  0  0  0  0
 16  1  2  0  0  0  0
 17  3  2  0  0  0  0
 17 25  1  0  0  0  0
 19 15  1  0  0  0  0
 20 16  1  0  0  0  0
 20  4  2  0  0  0  0
 22 21  2  0  0  0  0
 24 12  1  0  0  0  0
 25 19  1  0  0  0  0
 26 10  1  0  0  0  0
 26 24  1  0  0  0  0
 28 16  1  0  0  0  0
M  END
>  <MODEL>
3

>  <REMARK>
 VINA RESULT:      -3.4      2.383      5.407
  Name = 
  0 active torsions:
  status: ('A' for Active; 'I' for Inactive)
                            x       y       z     vdW  Elec       q    Type
                         _______ _______ _______ _____ _____    ______ ____

>  <TORSDO>
F 0

$$$$
=
 OpenBabel11122414043D

 28 32  0  0  1  0  0  0  0  0999 V2000
  160.9280  208.2280  155.2560 C   0  0  0  0  0  0  0  0  0  0  0  0
  158.0170  211.6460  156.1830 O   0  0  0  0  0  0  0  0  0  0  0  0
  163.6700  210.8160  150.7920 O   0  0  0  0  0  0  0  0  0  0  0  0
  162.1290  210.0750  156.9840 C   0  0  0  0  0  3  0  0  0  0  0  0
  161.2190  211.7400  150.7660 C   0  0  2  0  0  3  0  0  0  0  0  0
  160.4550  207.2110  154.2640 C   0  0  0  0  0  2  0  0  0  0  0  0
  160.0810  212.9200  155.7270 O   0  0  0  0  0  0  0  0  0  0  0  0
  158.8240  212.3530  155.1320 S   0  0  0  0  0  0  0  0  0  0  0  0
  157.3510  213.3210  153.0200 C   0  0  1  0  0  3  0  0  0  0  0  0
  159.1440  211.2800  153.7480 C   0  0  1  0  0  3  0  0  0  0  0  0
  162.3220  206.4200  151.1160 O   0  0  0  0  0  1  0  0  0  0  0  0
  161.0100  210.4140  152.6050 C   0  0  2  0  0  3  0  0  0  0  0  0
  158.4290  212.9170  151.9850 C   0  0  0  0  0  2  0  0  0  0  0  0
  157.8940  213.7040  154.4070 C   0  0  0  0  0  2  0  0  0  0  0  0
  161.2420  206.8640  151.8780 C   0  0  2  0  0  3  0  0  0  0  0  0
  160.8040  209.6120  154.9980 C   0  0  0  0  0  0  0  0  0  0  0  0
  162.2850  210.3230  150.3910 S   0  0  2  0  0  0  0  0  0  0  0  0
  156.5130  214.4530  152.4640 C   0  0  0  0  0  1  0  0  0  0  0  0
  160.8020  208.2470  151.3890 C   0  0  0  0  0  2  0  0  0  0  0  0
  161.4440  210.5190  155.8500 C   0  0  0  0  0  3  0  0  0  0  0  0
  161.6180  207.7890  156.3920 C   0  0  0  0  0  3  0  0  0  0  0  0
  162.2050  208.7090  157.2600 C   0  0  0  0  0  3  0  0  0  0  0  0
  161.6180  206.8300  153.3580 C   0  0  0  0  0  2  0  0  0  0  0  0
  160.2240  211.2060  151.6790 N   0  0  1  0  0  0  0  0  0  0  0  0
  161.7570  209.3590  151.8220 C   0  0  2  0  0  3  0  0  0  0  0  0
  159.6120  212.1510  152.5950 C   0  0  2  0  0  3  0  0  0  0  0  0
  160.5510  212.2100  149.4890 C   0  0  0  0  0  1  0  0  0  0  0  0
  160.0910  210.0680  153.7510 C   0  0  1  0  0  3  0  0  0  0  0  0
  1 21  1  0  0  0  0
  4 22  1  0  0  0  0
  5 27  1  6  0  0  0
  5 24  1  0  0  0  0
  6  1  1  0  0  0  0
  8  7  2  0  0  0  0
  8  2  2  0  0  0  0
  9 18  1  6  0  0  0
  9 14  1  0  0  0  0
 10 28  1  0  0  0  0
 10  8  1  1  0  0  0
 11 15  1  0  0  0  0
 12 28  1  0  0  0  0
 13 26  1  0  0  0  0
 13  9  1  0  0  0  0
 14  8  1  0  0  0  0
 15 23  1  0  0  0  0
 16  1  2  0  0  0  0
 16 20  1  0  0  0  0
 17  5  1  0  0  0  0
 17  3  2  0  0  0  0
 17 25  1  0  0  0  0
 19 25  1  0  0  0  0
 19 15  1  0  0  0  0
 20  4  2  0  0  0  0
 21 22  2  0  0  0  0
 23  6  1  0  0  0  0
 24 26  1  0  0  0  0
 24 12  1  0  0  0  0
 25 12  1  0  0  0  0
 26 10  1  0  0  0  0
 28 16  1  0  0  0  0
M  END
>  <MODEL>
4

>  <REMARK>
 VINA RESULT:      -3.3      1.870      6.687
  Name = 
  0 active torsions:
  status: ('A' for Active; 'I' for Inactive)
                            x       y       z     vdW  Elec       q    Type
                         _______ _______ _______ _____ _____    ______ ____

>  <TORSDO>
F 0

$$$$
=
 OpenBabel11122414043D

 28 32  0  0  1  0  0  0  0  0999 V2000
  158.6000  212.9980  150.9910 C   0  0  0  0  0  0  0  0  0  0  0  0
  160.8350  209.1340  149.9460 O   0  0  0  0  0  0  0  0  0  0  0  0
  160.4560  213.4260  156.5140 O   0  0  0  0  0  0  0  0  0  0  0  0
  161.1990  213.5900  150.1360 C   0  0  0  0  0  3  0  0  0  0  0  0
  160.3710  210.8630  155.9790 C   0  0  2  0  0  3  0  0  0  0  0  0
  157.2230  212.8300  151.5570 C   0  0  0  0  0  2  0  0  0  0  0  0
  162.5570  210.3110  151.2660 O   0  0  0  0  0  0  0  0  0  0  0  0
  161.4160  209.3350  151.3160 S   0  0  0  0  0  0  0  0  0  0  0  0
  161.0660  207.2100  153.0280 C   0  0  1  0  0  3  0  0  0  0  0  0
  160.1550  209.8130  152.4780 C   0  0  1  0  0  3  0  0  0  0  0  0
  156.2140  214.2060  154.8900 O   0  0  0  0  0  1  0  0  0  0  0  0
  159.7120  211.6100  153.9320 C   0  0  2  0  0  3  0  0  0  0  0  0
  160.7760  208.1340  154.2360 C   0  0  0  0  0  2  0  0  0  0  0  0
  162.0360  207.7910  151.9850 C   0  0  0  0  0  2  0  0  0  0  0  0
  156.4530  213.2110  153.9430 C   0  0  2  0  0  3  0  0  0  0  0  0
  159.6870  212.2390  151.4790 C   0  0  0  0  0  0  0  0  0  0  0  0
  159.3960  212.3430  156.3610 S   0  0  2  0  0  0  0  0  0  0  0  0
  161.5800  205.8740  153.5220 C   0  0  0  0  0  1  0  0  0  0  0  0
  157.3520  212.1300  154.5490 C   0  0  0  0  0  2  0  0  0  0  0  0
  160.9830  212.5750  151.0710 C   0  0  0  0  0  3  0  0  0  0  0  0
  158.8230  214.0160  150.0560 C   0  0  0  0  0  3  0  0  0  0  0  0
  160.1160  214.3020  149.6200 C   0  0  0  0  0  3  0  0  0  0  0  0
  157.0260  213.8440  152.6760 C   0  0  0  0  0  2  0  0  0  0  0  0
  159.8300  210.3960  154.7160 N   0  0  1  0  0  0  0  0  0  0  0  0
  158.8100  212.5730  154.6700 C   0  0  2  0  0  3  0  0  0  0  0  0
  160.7250  209.6250  153.8730 C   0  0  2  0  0  3  0  0  0  0  0  0
  160.1380  209.8240  157.0590 C   0  0  0  0  0  1  0  0  0  0  0  0
  159.4360  211.1720  152.5130 C   0  0  1  0  0  3  0  0  0  0  0  0
  1 16  1  0  0  0  0
  1  6  1  0  0  0  0
  2  8  2  0  0  0  0
  4 20  1  0  0  0  0
  5 17  1  0  0  0  0
  5 27  1  1  0  0  0
  6 23  1  0  0  0  0
  7  8  2  0  0  0  0
  8 14  1  0  0  0  0
  9 18  1  1  0  0  0
  9 13  1  0  0  0  0
 10  8  1  6  0  0  0
 10 28  1  0  0  0  0
 10 26  1  0  0  0  0
 12 25  1  0  0  0  0
 12 24  1  0  0  0  0
 14  9  1  0  0  0  0
 15 19  1  0  0  0  0
 15 11  1  0  0  0  0
 16 28  1  0  0  0  0
 17  3  2  0  0  0  0
 19 25  1  0  0  0  0
 20 16  2  0  0  0  0
 21  1  2  0  0  0  0
 22 21  1  0  0  0  0
 22  4  2  0  0  0  0
 23 15  1  0  0  0  0
 24  5  1  0  0  0  0
 25 17  1  0  0  0  0
 26 13  1  0  0  0  0
 26 24  1  0  0  0  0
 28 12  1  0  0  0  0
M  END
>  <MODEL>
5

>  <REMARK>
 VINA RESULT:      -2.9      1.788      2.322
  Name = 
  0 active torsions:
  status: ('A' for Active; 'I' for Inactive)
                            x       y       z     vdW  Elec       q    Type
                         _______ _______ _______ _____ _____    ______ ____

>  <TORSDO>
F 0

$$$$
=
 OpenBabel11122414043D

 28 32  0  0  1  0  0  0  0  0999 V2000
  158.2350  212.3840  152.3120 C   0  0  0  0  0  0  0  0  0  0  0  0
  160.4610  209.0120  150.1460 O   0  0  0  0  0  0  0  0  0  0  0  0
  161.3390  212.2280  157.2590 O   0  0  0  0  0  0  0  0  0  0  0  0
  160.4890  213.4040  151.0020 C   0  0  0  0  0  3  0  0  0  0  0  0
  161.3390  209.7790  156.3310 C   0  0  2  0  0  3  0  0  0  0  0  0
  157.0560  211.9700  153.1390 C   0  0  0  0  0  2  0  0  0  0  0  0
  162.3490  210.1850  151.2200 O   0  0  0  0  0  0  0  0  0  0  0  0
  161.3400  209.0810  151.3620 S   0  0  0  0  0  0  0  0  0  0  0  0
  161.5960  206.7030  152.7220 C   0  0  1  0  0  3  0  0  0  0  0  0
  160.3650  209.2290  152.8430 C   0  0  1  0  0  3  0  0  0  0  0  0
  156.7790  212.7160  156.7980 O   0  0  0  0  0  1  0  0  0  0  0  0
  160.1410  210.7290  154.6440 C   0  0  2  0  0  3  0  0  0  0  0  0
  161.5330  207.4010  154.1030 C   0  0  0  0  0  2  0  0  0  0  0  0
  162.2300  207.5430  151.6000 C   0  0  0  0  0  2  0  0  0  0  0  0
  156.8620  211.9050  155.6670 C   0  0  2  0  0  3  0  0  0  0  0  0
  159.4670  211.7000  152.4040 C   0  0  0  0  0  0  0  0  0  0  0  0
  160.3670  211.0590  157.1690 S   0  0  2  0  0  0  0  0  0  0  0  0
  162.3250  205.3830  152.8530 C   0  0  0  0  0  1  0  0  0  0  0  0
  157.9680  210.8640  155.8600 C   0  0  0  0  0  2  0  0  0  0  0  0
  160.5930  212.2460  151.7760 C   0  0  0  0  0  3  0  0  0  0  0  0
  158.1370  213.5460  151.5370 C   0  0  0  0  0  3  0  0  0  0  0  0
  159.2570  214.0470  150.8730 C   0  0  0  0  0  3  0  0  0  0  0  0
  157.0540  212.7790  154.4290 C   0  0  0  0  0  2  0  0  0  0  0  0
  160.5470  209.4370  155.1620 N   0  0  1  0  0  0  0  0  0  0  0  0
  159.3690  211.4580  155.7200 C   0  0  2  0  0  3  0  0  0  0  0  0
  161.2720  208.9110  154.0200 C   0  0  2  0  0  3  0  0  0  0  0  0
  161.4640  208.5740  157.2420 C   0  0  0  0  0  1  0  0  0  0  0  0
  159.5650  210.4720  153.2720 C   0  0  1  0  0  3  0  0  0  0  0  0
  1 16  1  0  0  0  0
  1  6  1  0  0  0  0
  2  8  2  0  0  0  0
  4 20  1  0  0  0  0
  5 17  1  0  0  0  0
  5 27  1  1  0  0  0
  6 23  1  0  0  0  0
  7  8  2  0  0  0  0
  8 14  1  0  0  0  0
  9 18  1  1  0  0  0
  9 13  1  0  0  0  0
 10  8  1  6  0  0  0
 10 28  1  0  0  0  0
 10 26  1  0  0  0  0
 12 24  1  0  0  0  0
 12 25  1  0  0  0  0
 14  9  1  0  0  0  0
 15 19  1  0  0  0  0
 15 11  1  0  0  0  0
 16 28  1  0  0  0  0
 17  3  2  0  0  0  0
 20 16  2  0  0  0  0
 21  1  2  0  0  0  0
 22  4  2  0  0  0  0
 22 21  1  0  0  0  0
 23 15  1  0  0  0  0
 24  5  1  0  0  0  0
 25 19  1  0  0  0  0
 25 17  1  0  0  0  0
 26 13  1  0  0  0  0
 26 24  1  0  0  0  0
 28 12  1  0  0  0  0
M  END
>  <MODEL>
6

>  <REMARK>
 VINA RESULT:      -2.6      1.654      2.027
  Name = 
  0 active torsions:
  status: ('A' for Active; 'I' for Inactive)
                            x       y       z     vdW  Elec       q    Type
                         _______ _______ _______ _____ _____    ______ ____

>  <TORSDO>
F 0

$$$$
=
 OpenBabel11122414043D

 28 32  0  0  1  0  0  0  0  0999 V2000
  161.6480  206.1560  152.7030 C   0  0  0  0  0  0  0  0  0  0  0  0
  163.2510  207.7030  148.6960 O   0  0  0  0  0  0  0  0  0  0  0  0
  157.6670  210.3480  153.5480 O   0  0  0  0  0  0  0  0  0  0  0  0
  160.0830  205.1790  150.5970 C   0  0  0  0  0  3  0  0  0  0  0  0
  159.6120  211.4630  152.1930 C   0  0  2  0  0  3  0  0  0  0  0  0
  162.3310  206.6750  153.9300 C   0  0  0  0  0  2  0  0  0  0  0  0
  160.8310  208.0880  148.3950 O   0  0  0  0  0  0  0  0  0  0  0  0
  162.1290  208.6890  148.8550 S   0  0  0  0  0  0  0  0  0  0  0  0
  162.9070  211.3260  148.7770 C   0  0  1  0  0  3  0  0  0  0  0  0
  162.0500  209.2970  150.5260 C   0  0  1  0  0  3  0  0  0  0  0  0
  160.5100  208.4810  156.6590 O   0  0  0  0  0  1  0  0  0  0  0  0
  160.4900  209.3650  152.2870 C   0  0  2  0  0  3  0  0  0  0  0  0
  161.9280  211.7260  149.9080 C   0  0  0  0  0  2  0  0  0  0  0  0
  162.4300  210.1670  147.8860 C   0  0  0  0  0  2  0  0  0  0  0  0
  161.4440  208.3310  155.6340 C   0  0  2  0  0  3  0  0  0  0  0  0
  161.2450  207.0280  151.6680 C   0  0  0  0  0  0  0  0  0  0  0  0
  159.0790  210.8530  153.8150 S   0  0  2  0  0  0  0  0  0  0  0  0
  163.2190  212.5370  147.9240 C   0  0  0  0  0  1  0  0  0  0  0  0
  161.3060  209.4870  154.6400 C   0  0  0  0  0  2  0  0  0  0  0  0
  160.4290  206.5310  150.6440 C   0  0  0  0  0  3  0  0  0  0  0  0
  161.2960  204.8020  152.6520 C   0  0  0  0  0  3  0  0  0  0  0  0
  160.5270  204.3120  151.5960 C   0  0  0  0  0  3  0  0  0  0  0  0
  161.2800  206.9530  154.9970 C   0  0  0  0  0  2  0  0  0  0  0  0
  160.8310  210.7240  151.9160 N   0  0  1  0  0  0  0  0  0  0  0  0
  160.0780  209.3510  153.7420 C   0  0  2  0  0  3  0  0  0  0  0  0
  161.1720  210.5370  150.5180 C   0  0  2  0  0  3  0  0  0  0  0  0
  159.9170  212.9450  152.2960 C   0  0  0  0  0  1  0  0  0  0  0  0
  161.5990  208.4900  151.7550 C   0  0  1  0  0  3  0  0  0  0  0  0
  1  6  1  0  0  0  0
  2  8  2  0  0  0  0
  3 17  2  0  0  0  0
  4 20  2  0  0  0  0
  4 22  1  0  0  0  0
  5 27  1  1  0  0  0
  5 17  1  0  0  0  0
  6 23  1  0  0  0  0
  7  8  2  0  0  0  0
  9 18  1  6  0  0  0
  9 13  1  0  0  0  0
 10  8  1  6  0  0  0
 10 28  1  0  0  0  0
 12 25  1  0  0  0  0
 13 26  1  0  0  0  0
 14  9  1  0  0  0  0
 14  8  1  0  0  0  0
 15 11  1  0  0  0  0
 16 28  1  0  0  0  0
 16  1  2  0  0  0  0
 19 15  1  0  0  0  0
 20 16  1  0  0  0  0
 21  1  1  0  0  0  0
 22 21  2  0  0  0  0
 23 15  1  0  0  0  0
 24  5  1  0  0  0  0
 24 12  1  0  0  0  0
 25 17  1  0  0  0  0
 25 19  1  0  0  0  0
 26 10  1  0  0  0  0
 26 24  1  0  0  0  0
 28 12  1  0  0  0  0
M  END
>  <MODEL>
7

>  <REMARK>
 VINA RESULT:      -2.1      1.863      5.442
  Name = 
  0 active torsions:
  status: ('A' for Active; 'I' for Inactive)
                            x       y       z     vdW  Elec       q    Type
                         _______ _______ _______ _____ _____    ______ ____

>  <TORSDO>
F 0

$$$$
