=
 OpenBabel11122413323D

 37 43  0  0  1  0  0  0  0  0999 V2000
  161.9580  209.9530  148.3840 C   0  0  0  0  0  2  0  0  0  0  0  0
  161.1970  205.8330  146.2660 C   0  0  0  0  0  0  0  0  0  0  0  0
  161.0360  205.7920  150.4820 C   0  0  0  0  0  0  0  0  0  0  0  0
  162.8080  211.1830  148.6320 C   0  0  2  0  0  3  0  0  0  0  0  0
  160.0800  208.8000  152.3900 O   0  0  0  0  0  0  0  0  0  0  0  0
  161.3150  204.5750  148.4140 C   0  0  0  0  0  0  0  0  0  0  0  0
  160.9640  207.0720  150.8190 C   0  0  0  0  0  0  0  0  0  0  0  0
  161.4970  211.8170  150.6610 C   0  0  0  0  0  0  0  0  0  0  0  0
  161.1150  205.6970  149.0710 C   0  0  0  0  0  0  0  0  0  0  0  0
  160.7310  207.5670  152.2060 C   0  0  0  0  0  0  0  0  0  0  0  0
  161.3930  203.3160  149.1900 C   0  0  0  0  0  3  0  0  0  0  0  0
  162.0790  212.1150  149.4210 O   0  0  0  0  0  0  0  0  0  0  0  0
  161.0650  206.9540  148.4630 N   0  0  0  0  0  0  0  0  0  0  0  0
  159.7370  205.8290  145.8530 C   0  0  0  0  0  1  0  0  0  0  0  0
  161.9000  204.6780  152.4360 N   0  0  0  0  0  0  0  0  0  0  0  0
  161.2330  203.3180  150.5330 C   0  0  0  0  0  3  0  0  0  0  0  0
  161.4880  207.1230  147.0730 C   0  0  0  0  0  2  0  0  0  0  0  0
  161.4570  210.4300  151.2520 C   0  0  1  0  0  3  0  0  0  0  0  0
  160.0520  209.8480  151.4260 C   0  0  0  0  0  2  0  0  0  0  0  0
  160.9470  204.5790  151.3460 C   0  0  2  0  0  3  0  0  0  0  0  0
  160.9660  207.9350  149.5510 C   0  0  2  0  0  3  0  0  0  0  0  0
  161.4770  204.6340  147.0220 O   0  0  0  0  0  0  0  0  0  0  0  0
  161.1320  206.8850  153.3150 C   0  0  0  0  0  0  0  0  0  0  0  0
  162.0480  205.8370  145.0150 C   0  0  0  0  0  1  0  0  0  0  0  0
  162.4450  209.5250  150.7790 O   0  0  0  0  0  0  0  0  0  0  0  0
  160.9610  212.7520  151.3090 O   0  0  0  0  0  0  0  0  0  0  0  0
  162.1270  208.9430  149.5180 C   0  0  2  0  0  3  0  0  0  0  0  0
  161.9620  205.6480  153.2990 C   0  0  0  0  0  3  0  0  0  0  0  0
  160.0640  206.8220  155.5710 C   0  0  0  0  0  3  0  0  0  0  0  0
  160.9270  207.4610  154.6670 C   0  0  0  0  0  0  0  0  0  0  0  0
  161.6230  208.6070  155.0860 C   0  0  0  0  0  3  0  0  0  0  0  0
  162.1450  210.2830  156.7810 N   0  0  0  0  0  1  0  0  0  0  0  0
  160.5700  208.4800  157.2600 C   0  0  0  0  0  3  0  0  0  0  0  0
  161.4410  209.1170  156.3730 C   0  0  0  0  0  0  0  0  0  0  0  0
  159.8830  207.3320  156.8600 C   0  0  0  0  0  3  0  0  0  0  0  0
  162.3200  212.9070  147.0550 O   0  0  0  0  0  1  0  0  0  0  0  0
  163.1750  211.8350  147.3110 C   0  0  0  0  0  2  0  0  0  0  0  0
  1  4  1  0  0  0  0
  2 22  1  0  0  0  0
  2 17  1  0  0  0  0
  3  7  2  0  0  0  0
  3 20  1  0  0  0  0
  4 37  1  6  0  0  0
  4 12  1  0  0  0  0
  6  9  2  0  0  0  0
  6 11  1  0  0  0  0
  7 10  1  0  0  0  0
  8 18  1  0  0  0  0
  8 26  2  0  0  0  0
  9  3  1  0  0  0  0
 10  5  1  0  0  0  0
 10 23  2  0  0  0  0
 11 16  2  0  0  0  0
 12  8  1  0  0  0  0
 13  9  1  0  0  0  0
 13 21  1  0  0  0  0
 14  2  1  0  0  0  0
 15 28  2  0  0  0  0
 17 13  1  0  0  0  0
 18 19  1  6  0  0  0
 19  5  1  0  0  0  0
 20 16  1  6  0  0  0
 20 15  1  0  0  0  0
 21  7  1  1  0  0  0
 22  6  1  0  0  0  0
 23 30  1  0  0  0  0
 24  2  1  0  0  0  0
 25 18  1  0  0  0  0
 27  1  1  6  0  0  0
 27 21  1  0  0  0  0
 27 25  1  0  0  0  0
 28 23  1  0  0  0  0
 29 35  1  0  0  0  0
 30 31  1  0  0  0  0
 30 29  2  0  0  0  0
 31 34  2  0  0  0  0
 34 32  1  0  0  0  0
 34 33  1  0  0  0  0
 35 33  2  0  0  0  0
 36 37  1  0  0  0  0
M  END
>  <MODEL>
1

>  <REMARK>
 VINA RESULT:      -5.7      0.000      0.000
  Name = 
  2 active torsions:
  status: ('A' for Active; 'I' for Inactive)
    1  A    between atoms: C_4  and  C_37
    2  A    between atoms: C_23  and  C_30
                            x       y       z     vdW  Elec       q    Type
                         _______ _______ _______ _____ _____    ______ ____

>  <TORSDO>
F 2

$$$$
=
 OpenBabel11122413323D

 37 43  0  0  1  0  0  0  0  0999 V2000
  161.8130  210.8600  148.8160 C   0  0  0  0  0  2  0  0  0  0  0  0
  161.7490  206.1900  148.3400 C   0  0  0  0  0  0  0  0  0  0  0  0
  160.9380  207.6560  152.2120 C   0  0  0  0  0  0  0  0  0  0  0  0
  162.5050  212.2010  148.6760 C   0  0  2  0  0  3  0  0  0  0  0  0
  159.4400  210.9870  152.7230 O   0  0  0  0  0  0  0  0  0  0  0  0
  161.6390  205.8230  150.8030 C   0  0  0  0  0  0  0  0  0  0  0  0
  160.7040  208.9480  152.0300 C   0  0  0  0  0  0  0  0  0  0  0  0
  160.8440  213.3380  150.1540 C   0  0  0  0  0  0  0  0  0  0  0  0
  161.2430  207.0680  150.9600 C   0  0  0  0  0  0  0  0  0  0  0  0
  160.2160  209.8730  153.0920 C   0  0  0  0  0  0  0  0  0  0  0  0
  161.7030  204.9540  151.9990 C   0  0  0  0  0  3  0  0  0  0  0  0
  161.5840  213.2450  148.9680 O   0  0  0  0  0  0  0  0  0  0  0  0
  161.1800  208.0000  149.9210 N   0  0  0  0  0  0  0  0  0  0  0  0
  160.3760  205.8360  147.7980 C   0  0  0  0  0  1  0  0  0  0  0  0
  161.5800  207.4540  154.5260 N   0  0  0  0  0  0  0  0  0  0  0  0
  161.3360  205.4190  153.2150 C   0  0  0  0  0  3  0  0  0  0  0  0
  161.7980  207.7120  148.6280 C   0  0  0  0  0  2  0  0  0  0  0  0
  160.8330  212.2680  151.2160 C   0  0  1  0  0  3  0  0  0  0  0  0
  159.4730  211.6010  151.4380 C   0  0  0  0  0  2  0  0  0  0  0  0
  160.8190  206.8370  153.4540 C   0  0  2  0  0  3  0  0  0  0  0  0
  160.8290  209.2850  150.5400 C   0  0  2  0  0  3  0  0  0  0  0  0
  162.0100  205.3970  149.5180 O   0  0  0  0  0  0  0  0  0  0  0  0
  160.4960  209.7010  154.4140 C   0  0  0  0  0  0  0  0  0  0  0  0
  162.7810  205.8590  147.2830 C   0  0  0  0  0  1  0  0  0  0  0  0
  161.9560  211.3990  151.2340 O   0  0  0  0  0  0  0  0  0  0  0  0
  160.1360  214.3620  150.3370 O   0  0  0  0  0  0  0  0  0  0  0  0
  161.8900  210.3620  150.2600 C   0  0  2  0  0  3  0  0  0  0  0  0
  161.4230  208.6690  154.9600 C   0  0  0  0  0  3  0  0  0  0  0  0
  160.9520  211.5960  155.9750 C   0  0  0  0  0  3  0  0  0  0  0  0
  160.0340  210.6930  155.4170 C   0  0  0  0  0  0  0  0  0  0  0  0
  158.6810  210.7870  155.7800 C   0  0  0  0  0  3  0  0  0  0  0  0
  156.8870  211.8270  157.0680 N   0  0  0  0  0  1  0  0  0  0  0  0
  159.1840  212.6340  157.2610 C   0  0  0  0  0  3  0  0  0  0  0  0
  158.2590  211.7490  156.7020 C   0  0  0  0  0  0  0  0  0  0  0  0
  160.5300  212.5580  156.8960 C   0  0  0  0  0  3  0  0  0  0  0  0
  162.0280  212.9570  146.4630 O   0  0  0  0  0  1  0  0  0  0  0  0
  163.0160  212.3740  147.2570 C   0  0  0  0  0  2  0  0  0  0  0  0
  2 17  1  0  0  0  0
  2 22  1  0  0  0  0
  3 20  1  0  0  0  0
  4 37  1  6  0  0  0
  4  1  1  0  0  0  0
  4 12  1  0  0  0  0
  5 10  1  0  0  0  0
  6  9  2  0  0  0  0
  6 11  1  0  0  0  0
  7  3  2  0  0  0  0
  7 10  1  0  0  0  0
  8 26  2  0  0  0  0
  8 18  1  0  0  0  0
  9  3  1  0  0  0  0
 10 23  2  0  0  0  0
 11 16  2  0  0  0  0
 12  8  1  0  0  0  0
 13 21  1  0  0  0  0
 13  9  1  0  0  0  0
 14  2  1  0  0  0  0
 15 28  2  0  0  0  0
 17 13  1  0  0  0  0
 18 25  1  0  0  0  0
 18 19  1  6  0  0  0
 19  5  1  0  0  0  0
 20 16  1  6  0  0  0
 20 15  1  0  0  0  0
 21  7  1  1  0  0  0
 22  6  1  0  0  0  0
 23 28  1  0  0  0  0
 23 30  1  0  0  0  0
 24  2  1  0  0  0  0
 27  1  1  6  0  0  0
 27 21  1  0  0  0  0
 27 25  1  0  0  0  0
 29 35  1  0  0  0  0
 30 31  1  0  0  0  0
 30 29  2  0  0  0  0
 31 34  2  0  0  0  0
 34 32  1  0  0  0  0
 34 33  1  0  0  0  0
 35 33  2  0  0  0  0
 36 37  1  0  0  0  0
M  END
>  <MODEL>
2

>  <REMARK>
 VINA RESULT:      -5.2      2.131      2.855
  Name = 
  2 active torsions:
  status: ('A' for Active; 'I' for Inactive)
    1  A    between atoms: C_4  and  C_37
    2  A    between atoms: C_23  and  C_30
                            x       y       z     vdW  Elec       q    Type
                         _______ _______ _______ _____ _____    ______ ____

>  <TORSDO>
F 2

$$$$
=
 OpenBabel11122413323D

 37 43  0  0  1  0  0  0  0  0999 V2000
  160.6740  207.1560  154.0270 C   0  0  0  0  0  2  0  0  0  0  0  0
  161.3020  203.1460  151.6690 C   0  0  0  0  0  0  0  0  0  0  0  0
  161.7690  206.6900  149.4280 C   0  0  0  0  0  0  0  0  0  0  0  0
  159.8370  208.0650  154.9060 C   0  0  2  0  0  3  0  0  0  0  0  0
  162.8450  209.8350  151.0250 O   0  0  0  0  0  0  0  0  0  0  0  0
  161.3470  204.3120  149.4670 C   0  0  0  0  0  0  0  0  0  0  0  0
  161.8580  207.6450  150.3430 C   0  0  0  0  0  0  0  0  0  0  0  0
  161.2890  210.0420  154.4360 C   0  0  0  0  0  0  0  0  0  0  0  0
  161.5890  205.4480  150.0840 C   0  0  2  0  0  3  0  0  0  0  0  0
  162.1900  209.0680  150.0450 C   0  0  0  0  0  0  0  0  0  0  0  0
  161.3330  204.3100  147.9860 C   0  0  0  0  0  3  0  0  0  0  0  0
  160.6170  209.1820  155.3150 O   0  0  0  0  0  0  0  0  0  0  0  0
  161.5870  205.5910  151.4740 N   0  0  2  0  0  0  0  0  0  0  0  0
  162.7280  202.7080  151.9450 C   0  0  0  0  0  1  0  0  0  0  0  0
  161.0560  207.8110  147.4180 N   0  0  0  0  0  0  0  0  0  0  0  0
  161.5910  205.4410  147.2890 C   0  0  0  0  0  3  0  0  0  0  0  0
  161.0630  204.5270  152.3290 C   0  0  0  0  0  2  0  0  0  0  0  0
  161.3800  209.8100  152.9480 C   0  0  1  0  0  3  0  0  0  0  0  0
  162.7970  209.5680  152.4230 C   0  0  0  0  0  2  0  0  0  0  0  0
  161.9280  206.7780  147.9470 C   0  0  0  0  0  0  0  0  0  0  0  0
  161.7590  207.0250  151.7410 C   0  0  2  0  0  3  0  0  0  0  0  0
  161.0840  203.1720  150.2410 O   0  0  0  0  0  0  0  0  0  0  0  0
  161.8740  209.6730  148.8660 C   0  0  0  0  0  0  0  0  0  0  0  0
  160.3610  202.1370  152.2930 C   0  0  0  0  0  1  0  0  0  0  0  0
  160.3650  208.9910  152.3850 O   0  0  0  0  0  0  0  0  0  0  0  0
  161.8660  211.0520  154.9140 O   0  0  0  0  0  0  0  0  0  0  0  0
  160.5940  207.5960  152.5650 C   0  0  2  0  0  3  0  0  0  0  0  0
  161.0520  209.0570  147.7870 C   0  0  0  0  0  3  0  0  0  0  0  0
  163.3940  211.4880  148.0700 C   0  0  0  0  0  3  0  0  0  0  0  0
  162.1740  211.1110  148.6550 C   0  0  0  0  0  0  0  0  0  0  0  0
  161.2380  212.1070  148.9760 C   0  0  0  0  0  3  0  0  0  0  0  0
  160.5710  214.4530  149.0790 N   0  0  0  0  0  1  0  0  0  0  0  0
  162.7470  213.8180  148.1710 C   0  0  0  0  0  3  0  0  0  0  0  0
  161.5250  213.4540  148.7410 C   0  0  0  0  0  0  0  0  0  0  0  0
  163.6800  212.8350  147.8340 C   0  0  0  0  0  3  0  0  0  0  0  0
  160.4620  207.0130  156.9550 O   0  0  0  0  0  1  0  0  0  0  0  0
  159.3710  207.3100  156.1370 C   0  0  0  0  0  2  0  0  0  0  0  0
  1  4  1  0  0  0  0
  2 14  1  0  0  0  0
  2 24  1  0  0  0  0
  2 17  1  0  0  0  0
  3  7  2  0  0  0  0
  4 12  1  0  0  0  0
  4 37  1  1  0  0  0
  5 19  1  0  0  0  0
  6  9  1  0  0  0  0
  6 22  1  0  0  0  0
  8 26  2  0  0  0  0
  8 12  1  0  0  0  0
  9  3  1  6  0  0  0
  9 13  1  0  0  0  0
 10  7  1  0  0  0  0
 10  5  1  0  0  0  0
 11  6  2  0  0  0  0
 13 21  1  0  0  0  0
 13 17  1  6  0  0  0
 15 28  2  0  0  0  0
 15 20  1  0  0  0  0
 16 20  2  0  0  0  0
 16 11  1  0  0  0  0
 18 19  1  1  0  0  0
 18  8  1  0  0  0  0
 20  3  1  0  0  0  0
 21  7  1  6  0  0  0
 21 27  1  0  0  0  0
 22  2  1  0  0  0  0
 23 10  2  0  0  0  0
 25 27  1  0  0  0  0
 25 18  1  0  0  0  0
 27  1  1  1  0  0  0
 28 23  1  0  0  0  0
 29 30  1  0  0  0  0
 30 23  1  0  0  0  0
 30 31  2  0  0  0  0
 33 34  2  0  0  0  0
 34 31  1  0  0  0  0
 34 32  1  0  0  0  0
 35 29  2  0  0  0  0
 35 33  1  0  0  0  0
 37 36  1  0  0  0  0
M  END
>  <MODEL>
3

>  <REMARK>
 VINA RESULT:      -4.3      2.173      6.244
  Name = 
  2 active torsions:
  status: ('A' for Active; 'I' for Inactive)
    1  A    between atoms: C_4  and  C_37
    2  A    between atoms: C_23  and  C_30
                            x       y       z     vdW  Elec       q    Type
                         _______ _______ _______ _____ _____    ______ ____

>  <TORSDO>
F 2

$$$$
=
 OpenBabel11122413323D

 37 43  0  0  1  0  0  0  0  0999 V2000
  161.1770  212.2000  150.8940 C   0  0  0  0  0  2  0  0  0  0  0  0
  161.6410  210.3540  155.1850 C   0  0  0  0  0  0  0  0  0  0  0  0
  161.5490  207.5940  151.9960 C   0  0  0  0  0  0  0  0  0  0  0  0
  160.4420  213.0690  149.8930 C   0  0  2  0  0  3  0  0  0  0  0  0
  162.6910  208.5350  148.6180 O   0  0  0  0  0  0  0  0  0  0  0  0
  161.2710  208.0330  154.3550 C   0  0  0  0  0  0  0  0  0  0  0  0
  161.7300  208.3380  150.9140 C   0  0  0  0  0  0  0  0  0  0  0  0
  161.6890  212.0940  147.9620 C   0  0  0  0  0  0  0  0  0  0  0  0
  161.5450  208.4380  153.1330 C   0  0  0  0  0  0  0  0  0  0  0  0
  161.9310  207.7940  149.5410 C   0  0  0  0  0  0  0  0  0  0  0  0
  161.0210  206.5900  154.5740 C   0  0  0  0  0  3  0  0  0  0  0  0
  161.2140  213.1830  148.7050 O   0  0  0  0  0  0  0  0  0  0  0  0
  161.7560  209.7750  152.7870 N   0  0  0  0  0  0  0  0  0  0  0  0
  163.1150  210.4490  155.5330 C   0  0  0  0  0  1  0  0  0  0  0  0
  160.4650  205.5930  151.2050 N   0  0  0  0  0  0  0  0  0  0  0  0
  161.1020  205.7100  153.5500 C   0  0  0  0  0  3  0  0  0  0  0  0
  161.4350  210.8450  153.7300 C   0  0  0  0  0  2  0  0  0  0  0  0
  161.5540  210.6590  148.4060 C   0  0  1  0  0  3  0  0  0  0  0  0
  162.8810  209.9450  148.6780 C   0  0  0  0  0  2  0  0  0  0  0  0
  161.4660  206.1090  152.1210 C   0  0  2  0  0  3  0  0  0  0  0  0
  161.8890  209.8060  151.3250 C   0  0  2  0  0  3  0  0  0  0  0  0
  161.1970  208.9930  155.3760 O   0  0  0  0  0  0  0  0  0  0  0  0
  161.3990  206.6110  149.1260 C   0  0  0  0  0  0  0  0  0  0  0  0
  160.8690  211.2590  156.1210 C   0  0  0  0  0  1  0  0  0  0  0  0
  160.5100  210.3910  149.3310 O   0  0  0  0  0  0  0  0  0  0  0  0
  162.2780  212.3240  146.8740 O   0  0  0  0  0  0  0  0  0  0  0  0
  160.8400  210.7240  150.6760 C   0  0  2  0  0  3  0  0  0  0  0  0
  160.4510  205.7800  149.9190 C   0  0  0  0  0  3  0  0  0  0  0  0
  160.6670  206.5530  146.7390 C   0  0  0  0  0  3  0  0  0  0  0  0
  161.5820  206.1540  147.7250 C   0  0  0  0  0  0  0  0  0  0  0  0
  162.6880  205.3730  147.3510 C   0  0  0  0  0  3  0  0  0  0  0  0
  163.9800  204.1800  145.6570 N   0  0  0  0  0  1  0  0  0  0  0  0
  161.9360  205.3710  145.0510 C   0  0  0  0  0  3  0  0  0  0  0  0
  162.8610  204.9790  146.0220 C   0  0  0  0  0  0  0  0  0  0  0  0
  160.8410  206.1600  145.4090 C   0  0  0  0  0  3  0  0  0  0  0  0
  159.3340  214.3830  151.5490 O   0  0  0  0  0  1  0  0  0  0  0  0
  160.2200  214.4530  150.4740 C   0  0  0  0  0  2  0  0  0  0  0  0
  2 22  1  0  0  0  0
  2 14  1  0  0  0  0
  2 24  1  0  0  0  0
  3 20  1  0  0  0  0
  3  9  1  0  0  0  0
  4 37  1  1  0  0  0
  4  1  1  0  0  0  0
  5 19  1  0  0  0  0
  5 10  1  0  0  0  0
  6 11  1  0  0  0  0
  6 22  1  0  0  0  0
  7  3  2  0  0  0  0
  8 18  1  0  0  0  0
  8 12  1  0  0  0  0
  9  6  2  0  0  0  0
 10  7  1  0  0  0  0
 12  4  1  0  0  0  0
 13  9  1  0  0  0  0
 13 17  1  0  0  0  0
 15 20  1  0  0  0  0
 16 11  2  0  0  0  0
 17  2  1  0  0  0  0
 18 19  1  1  0  0  0
 18 25  1  0  0  0  0
 20 16  1  1  0  0  0
 21  7  1  6  0  0  0
 21 13  1  0  0  0  0
 23 10  2  0  0  0  0
 23 28  1  0  0  0  0
 25 27  1  0  0  0  0
 26  8  2  0  0  0  0
 27  1  1  6  0  0  0
 27 21  1  0  0  0  0
 28 15  2  0  0  0  0
 29 30  1  0  0  0  0
 30 23  1  0  0  0  0
 31 30  2  0  0  0  0
 32 34  1  0  0  0  0
 33 35  1  0  0  0  0
 33 34  2  0  0  0  0
 34 31  1  0  0  0  0
 35 29  2  0  0  0  0
 37 36  1  0  0  0  0
M  END
>  <MODEL>
4

>  <REMARK>
 VINA RESULT:      -3.6      1.928      6.774
  Name = 
  2 active torsions:
  status: ('A' for Active; 'I' for Inactive)
    1  A    between atoms: C_4  and  C_37
    2  A    between atoms: C_23  and  C_30
                            x       y       z     vdW  Elec       q    Type
                         _______ _______ _______ _____ _____    ______ ____

>  <TORSDO>
F 2

$$$$
=
 OpenBabel11122413323D

 37 43  0  0  1  0  0  0  0  0999 V2000
  161.3830  210.5730  150.2650 C   0  0  0  0  0  2  0  0  0  0  0  0
  161.8650  206.0280  151.3380 C   0  0  0  0  0  0  0  0  0  0  0  0
  160.2690  208.4770  154.3800 C   0  0  0  0  0  0  0  0  0  0  0  0
  161.9520  211.8930  149.7840 C   0  0  2  0  0  3  0  0  0  0  0  0
  158.3830  211.5430  153.5760 O   0  0  0  0  0  0  0  0  0  0  0  0
  161.3770  206.4250  153.7490 C   0  0  0  0  0  0  0  0  0  0  0  0
  159.9420  209.6010  153.7570 C   0  0  0  0  0  0  0  0  0  0  0  0
  159.9600  213.1700  150.5830 C   0  0  0  0  0  0  0  0  0  0  0  0
  160.8380  207.5850  153.4390 C   0  0  0  0  0  0  0  0  0  0  0  0
  159.1910  210.7250  154.3860 C   0  0  0  0  0  0  0  0  0  0  0  0
  161.3240  205.9860  155.1620 C   0  0  0  0  0  3  0  0  0  0  0  0
  160.8960  212.8270  149.5980 O   0  0  0  0  0  0  0  0  0  0  0  0
  160.8600  208.1310  152.1530 N   0  0  0  0  0  0  0  0  0  0  0  0
  160.6470  205.3250  150.7700 C   0  0  0  0  0  1  0  0  0  0  0  0
  160.5260  209.0950  156.6950 N   0  0  0  0  0  0  0  0  0  0  0  0
  160.7120  206.7430  156.1010 C   0  0  0  0  0  3  0  0  0  0  0  0
  161.7130  207.5540  151.1160 C   0  0  0  0  0  2  0  0  0  0  0  0
  159.8750  212.4900  151.9260 C   0  0  1  0  0  3  0  0  0  0  0  0
  158.5710  211.7290  152.1770 C   0  0  0  0  0  2  0  0  0  0  0  0
  160.0240  208.0720  155.7960 C   0  0  2  0  0  3  0  0  0  0  0  0
  160.2830  209.4770  152.2680 C   0  0  2  0  0  3  0  0  0  0  0  0
  162.0010  205.6840  152.7340 O   0  0  0  0  0  0  0  0  0  0  0  0
  159.2600  211.0110  155.7160 C   0  0  0  0  0  0  0  0  0  0  0  0
  163.0890  205.5450  150.5900 C   0  0  0  0  0  1  0  0  0  0  0  0
  161.0610  211.8450  152.3710 O   0  0  0  0  0  0  0  0  0  0  0  0
  159.1320  214.0820  150.3280 O   0  0  0  0  0  0  0  0  0  0  0  0
  161.2630  210.5610  151.7900 C   0  0  2  0  0  3  0  0  0  0  0  0
  160.1780  210.3470  156.6830 C   0  0  0  0  0  3  0  0  0  0  0  0
  159.2650  213.2880  156.7430 C   0  0  0  0  0  3  0  0  0  0  0  0
  158.5380  212.1840  156.2710 C   0  0  0  0  0  0  0  0  0  0  0  0
  157.1350  212.2380  156.2830 C   0  0  0  0  0  3  0  0  0  0  0  0
  155.0510  213.4020  156.7950 N   0  0  0  0  0  1  0  0  0  0  0  0
  157.2060  214.4510  157.2590 C   0  0  0  0  0  3  0  0  0  0  0  0
  156.4720  213.3640  156.7800 C   0  0  0  0  0  0  0  0  0  0  0  0
  158.6030  214.4140  157.2390 C   0  0  0  0  0  3  0  0  0  0  0  0
  162.9530  212.9320  147.8830 O   0  0  0  0  0  1  0  0  0  0  0  0
  162.6760  211.6950  148.4650 C   0  0  0  0  0  2  0  0  0  0  0  0
  2 22  1  0  0  0  0
  3 20  1  0  0  0  0
  4 37  1  6  0  0  0
  4  1  1  0  0  0  0
  5 10  1  0  0  0  0
  6 11  1  0  0  0  0
  7  3  2  0  0  0  0
  7 10  1  0  0  0  0
  8 18  1  0  0  0  0
  9  6  2  0  0  0  0
  9  3  1  0  0  0  0
 10 23  2  0  0  0  0
 11 16  2  0  0  0  0
 12  4  1  0  0  0  0
 12  8  1  0  0  0  0
 13 21  1  0  0  0  0
 13  9  1  0  0  0  0
 14  2  1  0  0  0  0
 17  2  1  0  0  0  0
 17 13  1  0  0  0  0
 18 19  1  6  0  0  0
 18 25  1  0  0  0  0
 19  5  1  0  0  0  0
 20 16  1  1  0  0  0
 20 15  1  0  0  0  0
 21  7  1  1  0  0  0
 22  6  1  0  0  0  0
 23 30  1  0  0  0  0
 23 28  1  0  0  0  0
 24  2  1  0  0  0  0
 26  8  2  0  0  0  0
 27  1  1  6  0  0  0
 27 21  1  0  0  0  0
 27 25  1  0  0  0  0
 28 15  2  0  0  0  0
 29 35  1  0  0  0  0
 30 31  1  0  0  0  0
 30 29  2  0  0  0  0
 31 34  2  0  0  0  0
 34 32  1  0  0  0  0
 34 33  1  0  0  0  0
 35 33  2  0  0  0  0
 36 37  1  0  0  0  0
M  END
>  <MODEL>
5

>  <REMARK>
 VINA RESULT:      -2.9      3.146      4.843
  Name = 
  2 active torsions:
  status: ('A' for Active; 'I' for Inactive)
    1  A    between atoms: C_4  and  C_37
    2  A    between atoms: C_23  and  C_30
                            x       y       z     vdW  Elec       q    Type
                         _______ _______ _______ _____ _____    ______ ____

>  <TORSDO>
F 2

$$$$
