=
 OpenBabel11122412513D

 32 37  0  0  1  0  0  0  0  0999 V2000
  162.4570  205.7070  152.0710 C   0  0  0  0  0  2  0  0  0  0  0  0
  160.0020  210.4710  153.4430 C   0  0  1  0  0  3  0  0  0  0  0  0
  160.6550  213.5820  149.6110 C   0  0  0  0  0  2  0  0  0  0  0  0
  159.5220  214.2350  150.2620 N   0  0  0  0  0  2  0  0  0  0  0  0
  159.4080  211.4780  155.6840 C   0  0  0  0  0  0  0  0  0  0  0  0
  157.9230  211.6990  155.7970 C   0  0  2  0  0  3  0  0  0  0  0  0
  160.4410  208.0050  153.2480 C   0  0  1  0  0  3  0  0  0  0  0  0
  160.3460  209.5550  151.2830 C   0  0  0  0  0  2  0  0  0  0  0  0
  155.9660  212.3270  154.6820 C   0  0  1  0  0  3  0  0  0  0  0  0
  160.7260  207.1400  150.8370 C   0  0  0  0  0  2  0  0  0  0  0  0
  160.8400  212.1500  150.1300 C   0  0  0  0  0  2  0  0  0  0  0  0
  160.6690  210.7010  152.1410 N   0  0  1  0  0  0  0  0  0  0  0  0
  160.1340  211.9030  151.4790 C   0  0  1  0  0  3  0  0  0  0  0  0
  159.5910  212.9570  153.7090 C   0  0  1  0  0  3  0  0  0  0  0  0
  155.8790  210.9330  155.1180 N   0  0  0  0  0  2  0  0  0  0  0  0
  162.4880  206.4680  153.4070 C   0  0  0  0  0  2  0  0  0  0  0  0
  160.9770  208.2800  151.8280 C   0  0  2  0  0  3  0  0  0  0  0  0
  157.1770  210.5020  155.4600 N   0  0  0  0  0  2  0  0  0  0  0  0
  161.0960  206.8050  153.9500 C   0  0  0  0  0  2  0  0  0  0  0  0
  161.1050  205.7440  151.3520 C   0  0  1  0  0  3  0  0  0  0  0  0
  159.8530  214.4470  151.6730 C   0  0  0  0  0  2  0  0  0  0  0  0
  160.2950  213.1460  152.3700 C   0  0  2  0  0  3  0  0  0  0  0  0
  158.0700  212.8730  153.5510 C   0  0  0  0  0  2  0  0  0  0  0  0
  160.6240  209.2430  154.1180 C   0  0  0  0  0  2  0  0  0  0  0  0
  160.0460  210.9880  156.6820 N   0  0  0  0  0  2  0  0  0  0  0  0
  155.0010  213.1710  155.4930 C   0  0  0  0  0  1  0  0  0  0  0  0
  160.1280  211.6920  154.3790 C   0  0  2  0  0  3  0  0  0  0  0  0
  157.3780  212.8000  154.9130 C   0  0  2  0  0  3  0  0  0  0  0  0
  161.1140  204.7470  150.2050 C   0  0  0  0  0  2  0  0  0  0  0  0
  160.6910  203.3960  150.6740 C   0  0  0  0  0  0  0  0  0  0  0  0
  160.3890  202.5050  149.8380 O   0  0  0  0  0  0  0  0  0  0  0  0
  160.6610  203.1100  152.0320 O   0  0  0  0  0  1  0  0  0  0  0  0
  1 16  1  0  0  0  0
  2 24  1  1  0  0  0
  2 27  1  0  0  0  0
  3 11  1  0  0  0  0
  3  4  1  0  0  0  0
  4 21  1  0  0  0  0
  5  6  1  0  0  0  0
  5 25  2  0  0  0  0
  6 18  1  6  0  0  0
  7 19  1  1  0  0  0
  7 24  1  0  0  0  0
  8 17  1  0  0  0  0
  9 28  1  0  0  0  0
  9 15  1  0  0  0  0
  9 26  1  1  0  0  0
 10 20  1  0  0  0  0
 12  8  1  6  0  0  0
 12  2  1  0  0  0  0
 13 11  1  6  0  0  0
 13 12  1  0  0  0  0
 13 22  1  0  0  0  0
 14 23  1  6  0  0  0
 14 27  1  0  0  0  0
 15 18  1  0  0  0  0
 16 19  1  0  0  0  0
 17 10  1  6  0  0  0
 17  7  1  0  0  0  0
 20 29  1  6  0  0  0
 20  1  1  0  0  0  0
 22 21  1  6  0  0  0
 22 14  1  0  0  0  0
 27  5  1  1  0  0  0
 28 23  1  6  0  0  0
 28  6  1  0  0  0  0
 29 30  1  0  0  0  0
 30 32  1  0  0  0  0
 31 30  2  0  0  0  0
M  END
>  <MODEL>
1

>  <REMARK>
 VINA RESULT:      -4.0      0.000      0.000
  Name = 
  2 active torsions:
  status: ('A' for Active; 'I' for Inactive)
    1  A    between atoms: C_20  and  C_29
    2  A    between atoms: C_29  and  C_30
                            x       y       z     vdW  Elec       q    Type
                         _______ _______ _______ _____ _____    ______ ____

>  <TORSDO>
F 2

$$$$
=
 OpenBabel11122412513D

 32 37  0  0  1  0  0  0  0  0999 V2000
  161.8350  203.3430  151.1880 C   0  0  0  0  0  2  0  0  0  0  0  0
  161.1940  208.7640  152.0870 C   0  0  1  0  0  3  0  0  0  0  0  0
  162.0810  211.0560  147.7570 C   0  0  0  0  0  2  0  0  0  0  0  0
  161.3250  212.1060  148.4360 N   0  0  0  0  0  2  0  0  0  0  0  0
  161.3240  210.1510  154.1970 C   0  0  0  0  0  0  0  0  0  0  0  0
  160.0160  210.8470  154.4640 C   0  0  2  0  0  3  0  0  0  0  0  0
  160.8340  206.2830  152.2330 C   0  0  1  0  0  3  0  0  0  0  0  0
  160.8720  207.5530  150.0750 C   0  0  0  0  0  2  0  0  0  0  0  0
  158.1760  211.9420  153.5240 C   0  0  1  0  0  3  0  0  0  0  0  0
  160.4280  205.1100  149.9750 C   0  0  0  0  0  2  0  0  0  0  0  0
  161.9150  209.7080  148.4700 C   0  0  0  0  0  2  0  0  0  0  0  0
  161.6660  208.6220  150.6910 N   0  0  1  0  0  0  0  0  0  0  0  0
  161.4100  209.8520  149.9200 C   0  0  1  0  0  3  0  0  0  0  0  0
  161.5990  211.2640  152.0050 C   0  0  1  0  0  3  0  0  0  0  0  0
  157.7510  210.7070  154.1840 N   0  0  0  0  0  2  0  0  0  0  0  0
  162.3220  204.1980  152.3700 C   0  0  0  0  0  2  0  0  0  0  0  0
  161.1750  206.2110  150.7310 C   0  0  2  0  0  3  0  0  0  0  0  0
  158.9000  209.9230  154.4200 N   0  0  0  0  0  2  0  0  0  0  0  0
  161.2090  205.0220  153.0280 C   0  0  0  0  0  2  0  0  0  0  0  0
  160.4530  203.7320  150.6520 C   0  0  1  0  0  3  0  0  0  0  0  0
  161.9420  212.3560  149.7420 C   0  0  0  0  0  2  0  0  0  0  0  0
  162.0860  211.0680  150.5740 C   0  0  2  0  0  3  0  0  0  0  0  0
  160.1200  211.6550  152.0590 C   0  0  0  0  0  2  0  0  0  0  0  0
  161.5260  207.4850  152.8640 C   0  0  0  0  0  2  0  0  0  0  0  0
  161.9470  209.5960  155.1700 N   0  0  0  0  0  2  0  0  0  0  0  0
  157.6630  213.1360  154.3060 C   0  0  0  0  0  1  0  0  0  0  0  0
  161.8400  209.9760  152.7930 C   0  0  2  0  0  3  0  0  0  0  0  0
  159.6820  211.9600  153.4930 C   0  0  2  0  0  3  0  0  0  0  0  0
  159.9660  202.6640  149.6870 C   0  0  0  0  0  2  0  0  0  0  0  0
  161.0430  202.2870  148.7270 C   0  0  0  0  0  0  0  0  0  0  0  0
  161.4850  201.1080  148.7080 O   0  0  0  0  0  1  0  0  0  0  0  0
  161.5360  203.2260  147.8320 O   0  0  0  0  0  0  0  0  0  0  0  0
  1 16  1  0  0  0  0
  2 27  1  0  0  0  0
  2 24  1  1  0  0  0
  3  4  1  0  0  0  0
  3 11  1  0  0  0  0
  4 21  1  0  0  0  0
  5 25  2  0  0  0  0
  6  5  1  6  0  0  0
  7 24  1  1  0  0  0
  7 19  1  0  0  0  0
  8 17  1  0  0  0  0
  9 15  1  0  0  0  0
  9 26  1  1  0  0  0
 10 20  1  0  0  0  0
 12  8  1  6  0  0  0
 12  2  1  0  0  0  0
 13 11  1  6  0  0  0
 13 22  1  0  0  0  0
 13 12  1  0  0  0  0
 14 23  1  6  0  0  0
 14 27  1  0  0  0  0
 15 18  1  0  0  0  0
 16 19  1  0  0  0  0
 17 10  1  6  0  0  0
 17  7  1  0  0  0  0
 18  6  1  0  0  0  0
 20 29  1  6  0  0  0
 20  1  1  0  0  0  0
 22 21  1  6  0  0  0
 22 14  1  0  0  0  0
 27  5  1  1  0  0  0
 28 23  1  6  0  0  0
 28  9  1  0  0  0  0
 28  6  1  0  0  0  0
 30 29  1  0  0  0  0
 31 30  1  0  0  0  0
 32 30  2  0  0  0  0
M  END
>  <MODEL>
2

>  <REMARK>
 VINA RESULT:      -3.9      1.812      2.738
  Name = 
  2 active torsions:
  status: ('A' for Active; 'I' for Inactive)
    1  A    between atoms: C_20  and  C_29
    2  A    between atoms: C_29  and  C_30
                            x       y       z     vdW  Elec       q    Type
                         _______ _______ _______ _____ _____    ______ ____

>  <TORSDO>
F 2

$$$$
=
 OpenBabel11122412513D

 32 37  0  0  1  0  0  0  0  0999 V2000
  159.5460  214.4460  148.6100 C   0  0  0  0  0  2  0  0  0  0  0  0
  159.6530  211.8600  153.5000 C   0  0  1  0  0  3  0  0  0  0  0  0
  155.7810  213.5740  156.1190 C   0  0  0  0  0  2  0  0  0  0  0  0
  156.0320  212.3310  156.8440 N   0  0  0  0  0  2  0  0  0  0  0  0
  161.5260  210.7360  154.7720 C   0  0  0  0  0  0  0  0  0  0  0  0
  161.2210  209.2790  155.0010 C   0  0  2  0  0  3  0  0  0  0  0  0
  159.8750  212.2620  151.0300 C   0  0  1  0  0  3  0  0  0  0  0  0
  157.7820  212.7250  152.3270 C   0  0  0  0  0  2  0  0  0  0  0  0
  159.5680  207.6970  155.4820 C   0  0  1  0  0  3  0  0  0  0  0  0
  157.7420  213.1360  149.8770 C   0  0  0  0  0  2  0  0  0  0  0  0
  156.4980  213.5770  154.7630 C   0  0  0  0  0  2  0  0  0  0  0  0
  158.5530  212.8480  153.5710 N   0  0  1  0  0  0  0  0  0  0  0  0
  157.6350  212.5380  154.6810 C   0  0  1  0  0  3  0  0  0  0  0  0
  159.5050  211.4670  155.9990 C   0  0  1  0  0  3  0  0  0  0  0  0
  160.1290  207.4590  154.1520 N   0  0  0  0  0  2  0  0  0  0  0  0
  160.7430  214.1530  149.5300 C   0  0  0  0  0  2  0  0  0  0  0  0
  158.6210  213.1550  151.1300 C   0  0  2  0  0  3  0  0  0  0  0  0
  160.8470  208.6120  153.7700 N   0  0  0  0  0  2  0  0  0  0  0  0
  160.8610  212.6770  149.9270 C   0  0  0  0  0  2  0  0  0  0  0  0
  158.5000  213.3280  148.5550 C   0  0  1  0  0  3  0  0  0  0  0  0
  157.4460  212.2910  157.2290 C   0  0  0  0  0  2  0  0  0  0  0  0
  158.3830  212.4990  156.0240 C   0  0  2  0  0  3  0  0  0  0  0  0
  158.9670  210.0370  155.8910 C   0  0  0  0  0  2  0  0  0  0  0  0
  160.6090  212.2500  152.3660 C   0  0  0  0  0  2  0  0  0  0  0  0
  162.7070  211.0790  154.4100 N   0  0  0  0  0  2  0  0  0  0  0  0
  159.9920  206.5800  156.4170 C   0  0  0  0  0  1  0  0  0  0  0  0
  160.4380  211.7760  154.8270 C   0  0  2  0  0  3  0  0  0  0  0  0
  160.1010  209.0140  155.9840 C   0  0  2  0  0  3  0  0  0  0  0  0
  157.5220  213.6040  147.4250 C   0  0  0  0  0  2  0  0  0  0  0  0
  157.6760  212.5990  146.3340 C   0  0  0  0  0  0  0  0  0  0  0  0
  156.7190  211.8340  146.0440 O   0  0  0  0  0  1  0  0  0  0  0  0
  158.8620  212.5290  145.6160 O   0  0  0  0  0  0  0  0  0  0  0  0
  1 16  1  0  0  0  0
  2 24  1  6  0  0  0
  2 12  1  0  0  0  0
  2 27  1  0  0  0  0
  3  4  1  0  0  0  0
  4 21  1  0  0  0  0
  5  6  1  0  0  0  0
  6 18  1  6  0  0  0
  6 28  1  0  0  0  0
  7 19  1  6  0  0  0
  7 17  1  0  0  0  0
  7 24  1  0  0  0  0
  9 28  1  0  0  0  0
  9 26  1  1  0  0  0
 11  3  1  0  0  0  0
 12  8  1  6  0  0  0
 12 13  1  0  0  0  0
 13 11  1  1  0  0  0
 13 22  1  0  0  0  0
 14 23  1  6  0  0  0
 14 22  1  0  0  0  0
 15  9  1  0  0  0  0
 16 19  1  0  0  0  0
 17 10  1  6  0  0  0
 17  8  1  0  0  0  0
 18 15  1  0  0  0  0
 20 29  1  6  0  0  0
 20  1  1  0  0  0  0
 20 10  1  0  0  0  0
 22 21  1  1  0  0  0
 25  5  2  0  0  0  0
 27  5  1  6  0  0  0
 27 14  1  0  0  0  0
 28 23  1  6  0  0  0
 30 29  1  0  0  0  0
 31 30  1  0  0  0  0
 32 30  2  0  0  0  0
M  END
>  <MODEL>
3

>  <REMARK>
 VINA RESULT:      -3.3      3.932      6.561
  Name = 
  2 active torsions:
  status: ('A' for Active; 'I' for Inactive)
    1  A    between atoms: C_20  and  C_29
    2  A    between atoms: C_29  and  C_30
                            x       y       z     vdW  Elec       q    Type
                         _______ _______ _______ _____ _____    ______ ____

>  <TORSDO>
F 2

$$$$
=
 OpenBabel11122412513D

 32 37  0  0  1  0  0  0  0  0999 V2000
  162.3620  204.5010  151.5890 C   0  0  0  0  0  2  0  0  0  0  0  0
  160.8160  209.7760  152.2110 C   0  0  1  0  0  3  0  0  0  0  0  0
  161.7190  212.0610  147.8810 C   0  0  0  0  0  2  0  0  0  0  0  0
  160.7540  212.9980  148.4510 N   0  0  0  0  0  2  0  0  0  0  0  0
  160.5420  211.2230  154.2670 C   0  0  0  0  0  0  0  0  0  0  0  0
  159.1250  211.7120  154.3950 C   0  0  2  0  0  3  0  0  0  0  0  0
  160.8310  207.2740  152.4270 C   0  0  1  0  0  3  0  0  0  0  0  0
  160.8640  208.4760  150.2290 C   0  0  0  0  0  2  0  0  0  0  0  0
  157.2290  212.4780  153.2610 C   0  0  1  0  0  3  0  0  0  0  0  0
  160.8130  205.9920  150.1920 C   0  0  0  0  0  2  0  0  0  0  0  0
  161.7010  210.7240  148.6310 C   0  0  0  0  0  2  0  0  0  0  0  0
  161.4260  209.6730  150.8660 N   0  0  1  0  0  0  0  0  0  0  0  0
  161.0530  210.8250  150.0270 C   0  0  1  0  0  3  0  0  0  0  0  0
  160.8370  212.3060  152.0620 C   0  0  1  0  0  3  0  0  0  0  0  0
  156.9430  211.2100  153.9330 N   0  0  0  0  0  2  0  0  0  0  0  0
  162.6050  205.4530  152.7720 C   0  0  0  0  0  2  0  0  0  0  0  0
  161.3120  207.2170  150.9620 C   0  0  2  0  0  3  0  0  0  0  0  0
  158.1720  210.6230  154.2960 N   0  0  0  0  0  2  0  0  0  0  0  0
  161.3250  206.1100  153.3000 C   0  0  0  0  0  2  0  0  0  0  0  0
  160.9900  204.6540  150.9240 C   0  0  1  0  0  3  0  0  0  0  0  0
  161.2060  213.3760  149.7920 C   0  0  0  0  0  2  0  0  0  0  0  0
  161.4730  212.1500  150.6860 C   0  0  2  0  0  3  0  0  0  0  0  0
  159.3150  212.4610  151.9760 C   0  0  0  0  0  2  0  0  0  0  0  0
  161.2710  208.5870  153.0640 C   0  0  0  0  0  2  0  0  0  0  0  0
  161.1550  210.7990  155.3100 N   0  0  0  0  0  2  0  0  0  0  0  0
  156.4700  213.5970  153.9490 C   0  0  0  0  0  1  0  0  0  0  0  0
  161.2020  211.0930  152.9190 C   0  0  2  0  0  3  0  0  0  0  0  0
  158.7110  212.7320  153.3550 C   0  0  2  0  0  3  0  0  0  0  0  0
  160.7610  203.4970  149.9660 C   0  0  0  0  0  2  0  0  0  0  0  0
  160.9390  202.1900  150.6620 C   0  0  0  0  0  0  0  0  0  0  0  0
  160.8310  202.1240  151.9140 O   0  0  0  0  0  1  0  0  0  0  0  0
  161.1890  201.0390  149.9260 O   0  0  0  0  0  0  0  0  0  0  0  0
  1 16  1  0  0  0  0
  2 27  1  0  0  0  0
  2 24  1  1  0  0  0
  3  4  1  0  0  0  0
  3 11  1  0  0  0  0
  4 21  1  0  0  0  0
  5 25  2  0  0  0  0
  6  5  1  6  0  0  0
  7 24  1  1  0  0  0
  7 19  1  0  0  0  0
  8 17  1  0  0  0  0
  9 28  1  0  0  0  0
  9 15  1  0  0  0  0
  9 26  1  1  0  0  0
 10 20  1  0  0  0  0
 12  8  1  6  0  0  0
 12  2  1  0  0  0  0
 13 11  1  6  0  0  0
 13 22  1  0  0  0  0
 13 12  1  0  0  0  0
 14 23  1  6  0  0  0
 14 27  1  0  0  0  0
 15 18  1  0  0  0  0
 16 19  1  0  0  0  0
 17 10  1  6  0  0  0
 17  7  1  0  0  0  0
 18  6  1  0  0  0  0
 20 29  1  6  0  0  0
 20  1  1  0  0  0  0
 22 21  1  6  0  0  0
 22 14  1  0  0  0  0
 27  5  1  1  0  0  0
 28 23  1  6  0  0  0
 28  6  1  0  0  0  0
 29 30  1  0  0  0  0
 30 31  1  0  0  0  0
 32 30  2  0  0  0  0
M  END
>  <MODEL>
4

>  <REMARK>
 VINA RESULT:      -2.9      1.351      1.867
  Name = 
  2 active torsions:
  status: ('A' for Active; 'I' for Inactive)
    1  A    between atoms: C_20  and  C_29
    2  A    between atoms: C_29  and  C_30
                            x       y       z     vdW  Elec       q    Type
                         _______ _______ _______ _____ _____    ______ ____

>  <TORSDO>
F 2

$$$$
=
 OpenBabel11122412513D

 32 37  0  0  1  0  0  0  0  0999 V2000
  160.6420  214.1260  147.3410 C   0  0  0  0  0  2  0  0  0  0  0  0
  160.7380  210.6160  151.6160 C   0  0  1  0  0  3  0  0  0  0  0  0
  162.2180  206.2110  149.8290 C   0  0  0  0  0  2  0  0  0  0  0  0
  162.5170  206.0100  151.2460 N   0  0  0  0  0  2  0  0  0  0  0  0
  159.5410  210.6380  153.8430 C   0  0  0  0  0  0  0  0  0  0  0  0
  160.5250  210.6690  154.9820 C   0  0  2  0  0  3  0  0  0  0  0  0
  160.9660  212.7380  150.2910 C   0  0  1  0  0  3  0  0  0  0  0  0
  162.0500  210.5740  149.6420 C   0  0  0  0  0  2  0  0  0  0  0  0
  162.5890  209.9140  155.7820 C   0  0  1  0  0  3  0  0  0  0  0  0
  162.4770  212.5610  148.2110 C   0  0  0  0  0  2  0  0  0  0  0  0
  161.9890  207.6960  149.5190 C   0  0  0  0  0  2  0  0  0  0  0  0
  161.0540  209.8180  150.4100 N   0  0  1  0  0  0  0  0  0  0  0  0
  161.6740  208.5320  150.7750 C   0  0  1  0  0  3  0  0  0  0  0  0
  160.4390  208.5000  152.9780 C   0  0  1  0  0  3  0  0  0  0  0  0
  162.6090  211.3680  155.6110 N   0  0  0  0  0  2  0  0  0  0  0  0
  159.6160  213.9420  148.4720 C   0  0  0  0  0  2  0  0  0  0  0  0
  161.4490  211.8700  149.1110 C   0  0  2  0  0  3  0  0  0  0  0  0
  161.5020  211.7270  154.8150 N   0  0  0  0  0  2  0  0  0  0  0  0
  160.2320  214.0220  149.8730 C   0  0  0  0  0  2  0  0  0  0  0  0
  162.1030  213.9870  147.7810 C   0  0  1  0  0  3  0  0  0  0  0  0
  161.3150  206.3200  152.0250 C   0  0  0  0  0  2  0  0  0  0  0  0
  160.7590  207.7210  151.7080 C   0  0  2  0  0  3  0  0  0  0  0  0
  161.6790  208.7100  153.8520 C   0  0  0  0  0  2  0  0  0  0  0  0
  160.0500  211.9200  151.1930 C   0  0  0  0  0  2  0  0  0  0  0  0
  158.5040  211.3890  153.8910 N   0  0  0  0  0  2  0  0  0  0  0  0
  162.6270  209.5790  157.2610 C   0  0  0  0  0  1  0  0  0  0  0  0
  159.8230  209.8460  152.5930 C   0  0  2  0  0  3  0  0  0  0  0  0
  161.3140  209.3910  155.1720 C   0  0  2  0  0  3  0  0  0  0  0  0
  163.0160  214.4530  146.6600 C   0  0  0  0  0  2  0  0  0  0  0  0
  162.5910  213.8710  145.3540 C   0  0  0  0  0  0  0  0  0  0  0  0
  163.2400  212.9190  144.8470 O   0  0  0  0  0  1  0  0  0  0  0  0
  161.4590  214.3560  144.7130 O   0  0  0  0  0  0  0  0  0  0  0  0
  1 20  1  0  0  0  0
  1 16  1  0  0  0  0
  2 24  1  6  0  0  0
  2 27  1  0  0  0  0
  3  4  1  0  0  0  0
  4 21  1  0  0  0  0
  5 25  2  0  0  0  0
  6  5  1  6  0  0  0
  6 28  1  0  0  0  0
  7 19  1  6  0  0  0
  7 24  1  0  0  0  0
  9 26  1  1  0  0  0
 11  3  1  0  0  0  0
 12  8  1  6  0  0  0
 12 13  1  0  0  0  0
 12  2  1  0  0  0  0
 13 11  1  6  0  0  0
 13 22  1  0  0  0  0
 14 23  1  6  0  0  0
 15  9  1  0  0  0  0
 16 19  1  0  0  0  0
 17 10  1  1  0  0  0
 17  8  1  0  0  0  0
 17  7  1  0  0  0  0
 18  6  1  0  0  0  0
 18 15  1  0  0  0  0
 20 29  1  6  0  0  0
 20 10  1  0  0  0  0
 22 21  1  1  0  0  0
 22 14  1  0  0  0  0
 27 14  1  0  0  0  0
 27  5  1  1  0  0  0
 28 23  1  6  0  0  0
 28  9  1  0  0  0  0
 30 29  1  0  0  0  0
 31 30  1  0  0  0  0
 32 30  2  0  0  0  0
M  END
>  <MODEL>
5

>  <REMARK>
 VINA RESULT:      -2.3      3.796      7.072
  Name = 
  2 active torsions:
  status: ('A' for Active; 'I' for Inactive)
    1  A    between atoms: C_20  and  C_29
    2  A    between atoms: C_29  and  C_30
                            x       y       z     vdW  Elec       q    Type
                         _______ _______ _______ _____ _____    ______ ____

>  <TORSDO>
F 2

$$$$
=
 OpenBabel11122412513D

 32 37  0  0  1  0  0  0  0  0999 V2000
  162.1780  209.6750  151.9200 C   0  0  0  0  0  2  0  0  0  0  0  0
  161.5720  205.5050  148.3360 C   0  0  1  0  0  3  0  0  0  0  0  0
  160.9680  201.3640  151.0330 C   0  0  0  0  0  2  0  0  0  0  0  0
  160.4060  200.9090  149.7640 N   0  0  0  0  0  2  0  0  0  0  0  0
  162.2740  205.2410  145.9210 C   0  0  0  0  0  0  0  0  0  0  0  0
  161.0780  205.0120  145.0360 C   0  0  2  0  0  3  0  0  0  0  0  0
  161.3990  207.7950  149.3520 C   0  0  1  0  0  3  0  0  0  0  0  0
  160.7080  205.6980  150.5350 C   0  0  0  0  0  2  0  0  0  0  0  0
  158.9850  203.9890  144.8310 C   0  0  1  0  0  3  0  0  0  0  0  0
  160.3780  207.8590  151.7170 C   0  0  0  0  0  2  0  0  0  0  0  0
  161.0980  202.8920  151.0640 C   0  0  0  0  0  2  0  0  0  0  0  0
  161.5980  204.8980  149.6860 N   0  0  1  0  0  0  0  0  0  0  0  0
  161.0560  203.5280  149.6600 C   0  0  1  0  0  3  0  0  0  0  0  0
  161.8060  203.2190  147.2680 C   0  0  1  0  0  3  0  0  0  0  0  0
  158.8470  205.4450  144.7870 N   0  0  0  0  0  2  0  0  0  0  0  0
  162.9610  209.3790  150.6300 C   0  0  0  0  0  2  0  0  0  0  0  0
  161.2660  207.1040  150.7240 C   0  0  2  0  0  3  0  0  0  0  0  0
  160.0500  206.0100  145.2570 N   0  0  0  0  0  2  0  0  0  0  0  0
  162.0640  209.1800  149.4030 C   0  0  0  0  0  2  0  0  0  0  0  0
  160.6800  209.3600  151.8390 C   0  0  1  0  0  3  0  0  0  0  0  0
  161.3810  201.1700  148.7010 C   0  0  0  0  0  2  0  0  0  0  0  0
  161.8380  202.6410  148.6780 C   0  0  2  0  0  3  0  0  0  0  0  0
  160.3960  203.1910  146.6690 C   0  0  0  0  0  2  0  0  0  0  0  0
  162.1900  206.9060  148.4000 C   0  0  0  0  0  2  0  0  0  0  0  0
  163.1930  206.0470  145.5350 N   0  0  0  0  0  2  0  0  0  0  0  0
  158.6780  203.4100  143.4630 C   0  0  0  0  0  1  0  0  0  0  0  0
  162.3410  204.6510  147.3050 C   0  0  2  0  0  3  0  0  0  0  0  0
  160.4060  203.6670  145.2150 C   0  0  2  0  0  3  0  0  0  0  0  0
  159.9740  209.9400  153.0530 C   0  0  0  0  0  2  0  0  0  0  0  0
  159.2850  211.2160  152.7050 C   0  0  0  0  0  0  0  0  0  0  0  0
  158.1280  211.4470  153.1450 O   0  0  0  0  0  1  0  0  0  0  0  0
  159.9310  212.1640  151.9240 O   0  0  0  0  0  0  0  0  0  0  0  0
  2 24  1  1  0  0  0
  2 12  1  0  0  0  0
  3 11  1  0  0  0  0
  4  3  1  0  0  0  0
  6 28  1  0  0  0  0
  6 18  1  1  0  0  0
  6  5  1  0  0  0  0
  7 24  1  6  0  0  0
  7 19  1  0  0  0  0
  7 17  1  0  0  0  0
  9 26  1  6  0  0  0
  9 28  1  0  0  0  0
 10 20  1  0  0  0  0
 12  8  1  1  0  0  0
 13 12  1  0  0  0  0
 13 11  1  1  0  0  0
 14 23  1  1  0  0  0
 14 27  1  0  0  0  0
 14 22  1  0  0  0  0
 15  9  1  0  0  0  0
 15 18  1  0  0  0  0
 16  1  1  0  0  0  0
 17  8  1  6  0  0  0
 17 10  1  0  0  0  0
 19 16  1  0  0  0  0
 20  1  1  0  0  0  0
 20 29  1  1  0  0  0
 21  4  1  0  0  0  0
 22 21  1  6  0  0  0
 22 13  1  0  0  0  0
 25  5  2  0  0  0  0
 27  5  1  6  0  0  0
 27  2  1  0  0  0  0
 28 23  1  1  0  0  0
 30 29  1  0  0  0  0
 30 31  1  0  0  0  0
 32 30  2  0  0  0  0
M  END
>  <MODEL>
6

>  <REMARK>
 VINA RESULT:      -1.9      4.947      9.823
  Name = 
  2 active torsions:
  status: ('A' for Active; 'I' for Inactive)
    1  A    between atoms: C_20  and  C_29
    2  A    between atoms: C_29  and  C_30
                            x       y       z     vdW  Elec       q    Type
                         _______ _______ _______ _____ _____    ______ ____

>  <TORSDO>
F 2

$$$$
