=
 OpenBabel11122414053D

 28 31  0  0  1  0  0  0  0  0999 V2000
  160.9430  209.3240  155.6810 C   0  0  0  0  0  0  0  0  0  0  0  0
  158.4960  212.2900  157.2610 O   0  0  0  0  0  0  0  0  0  0  0  0
  163.1880  210.1990  157.1080 C   0  0  0  0  0  3  0  0  0  0  0  0
  159.8270  208.8990  154.9610 O   0  0  0  0  0  0  0  0  0  0  0  0
  159.8860  213.9960  156.1490 O   0  0  0  0  0  0  0  0  0  0  0  0
  158.8130  212.9620  155.9550 S   0  0  0  0  0  0  0  0  0  0  0  0
  156.6470  212.6910  154.3320 C   0  0  1  0  0  3  0  0  0  0  0  0
  159.2770  211.7630  154.7400 C   0  0  1  0  0  3  0  0  0  0  0  0
  162.0190  207.0780  153.3660 C   0  0  0  0  0  1  0  0  0  0  0  0
  160.9550  211.2950  153.0510 C   0  0  2  0  0  3  0  0  0  0  0  0
  157.4040  212.1550  153.2420 O   0  0  0  0  0  0  0  0  0  0  0  0
  157.3510  213.7100  155.2570 C   0  0  0  0  0  2  0  0  0  0  0  0
  160.6090  207.5670  153.0760 C   0  0  2  0  0  3  0  0  0  0  0  0
  161.4020  210.6470  155.5270 C   0  0  0  0  0  0  0  0  0  0  0  0
  155.3620  213.2940  153.8040 C   0  0  0  0  0  1  0  0  0  0  0  0
  160.5640  208.8580  152.2460 C   0  0  0  0  0  2  0  0  0  0  0  0
  162.5260  211.0730  156.2410 C   0  0  0  0  0  3  0  0  0  0  0  0
  161.6170  208.4490  156.5430 C   0  0  0  0  0  3  0  0  0  0  0  0
  162.7350  208.8860  157.2570 C   0  0  0  0  0  3  0  0  0  0  0  0
  159.7540  207.6210  154.3440 C   0  0  0  0  0  2  0  0  0  0  0  0
  159.6150  211.5820  152.3670 C   0  0  1  0  0  3  0  0  0  0  0  0
  161.5760  209.9250  152.6970 C   0  0  1  0  0  3  0  0  0  0  0  0
  158.7990  212.3110  153.4180 C   0  0  2  0  0  3  0  0  0  0  0  0
  160.7690  211.6060  154.5510 C   0  0  2  0  0  3  0  0  0  0  0  0
  161.9870  209.5310  150.5580 C   0  0  0  0  0  1  0  0  0  0  0  0
  162.5460  210.0920  151.7080 O   0  0  0  0  0  0  0  0  0  0  0  0
  159.8360  212.4620  151.1490 C   0  0  0  0  0  2  0  0  0  0  0  0
  159.6440  213.9230  151.5080 C   0  0  0  0  0  1  0  0  0  0  0  0
  1 18  1  0  0  0  0
  3 19  1  0  0  0  0
  4  1  1  0  0  0  0
  6  5  2  0  0  0  0
  6  2  2  0  0  0  0
  7 15  1  6  0  0  0
  7 12  1  0  0  0  0
  8  6  1  1  0  0  0
 10 24  1  0  0  0  0
 11 23  1  0  0  0  0
 11  7  1  0  0  0  0
 12  6  1  0  0  0  0
 13  9  1  0  0  0  0
 13 20  1  0  0  0  0
 14  1  2  0  0  0  0
 14 17  1  0  0  0  0
 16 22  1  0  0  0  0
 16 13  1  0  0  0  0
 17  3  2  0  0  0  0
 18 19  2  0  0  0  0
 20  4  1  0  0  0  0
 21 10  1  0  0  0  0
 21 23  1  0  0  0  0
 22 10  1  0  0  0  0
 23  8  1  0  0  0  0
 24  8  1  0  0  0  0
 24 14  1  0  0  0  0
 25 26  1  0  0  0  0
 26 22  1  0  0  0  0
 27 28  1  0  0  0  0
 27 21  1  0  0  0  0
M  END
>  <MODEL>
1

>  <REMARK>
 VINA RESULT:      -3.8      0.000      0.000
  Name = 
  2 active torsions:
  status: ('A' for Active; 'I' for Inactive)
    1  A    between atoms: C_5  and  C_24
    2  A    between atoms: O_17  and  C_25
                            x       y       z     vdW  Elec       q    Type
                         _______ _______ _______ _____ _____    ______ ____

>  <TORSDO>
F 2

$$$$
=
 OpenBabel11122414053D

 28 31  0  0  1  0  0  0  0  0999 V2000
  161.5500  209.2050  154.9460 C   0  0  0  0  0  0  0  0  0  0  0  0
  162.9600  207.9640  151.2380 O   0  0  0  0  0  0  0  0  0  0  0  0
  160.4210  206.7090  155.5260 C   0  0  0  0  0  3  0  0  0  0  0  0
  162.1010  210.4510  154.6500 O   0  0  0  0  0  0  0  0  0  0  0  0
  160.6330  207.6300  150.4920 O   0  0  0  0  0  0  0  0  0  0  0  0
  161.7080  208.6460  150.7620 S   0  0  0  0  0  0  0  0  0  0  0  0
  162.4190  211.0500  149.7070 C   0  0  1  0  0  3  0  0  0  0  0  0
  161.1780  209.8560  151.9390 C   0  0  1  0  0  3  0  0  0  0  0  0
  160.3900  211.4090  157.2610 C   0  0  0  0  0  1  0  0  0  0  0  0
  159.2160  210.6410  153.1320 C   0  0  2  0  0  3  0  0  0  0  0  0
  161.4790  211.7880  150.4960 O   0  0  0  0  0  0  0  0  0  0  0  0
  162.0310  209.6110  149.2970 C   0  0  0  0  0  2  0  0  0  0  0  0
  161.0180  212.1110  156.0670 C   0  0  2  0  0  3  0  0  0  0  0  0
  160.5910  208.6490  154.0790 C   0  0  0  0  0  0  0  0  0  0  0  0
  162.7740  211.8480  148.4700 C   0  0  0  0  0  1  0  0  0  0  0  0
  160.0380  212.3470  154.9070 C   0  0  0  0  0  2  0  0  0  0  0  0
  160.0290  207.4030  154.3790 C   0  0  0  0  0  3  0  0  0  0  0  0
  161.9310  208.5080  156.1020 C   0  0  0  0  0  3  0  0  0  0  0  0
  161.3700  207.2620  156.3890 C   0  0  0  0  0  3  0  0  0  0  0  0
  162.3270  211.4450  155.6400 C   0  0  0  0  0  2  0  0  0  0  0  0
  159.6520  211.7040  152.1190 C   0  0  1  0  0  3  0  0  0  0  0  0
  159.1410  211.1380  154.5930 C   0  0  1  0  0  3  0  0  0  0  0  0
  160.5310  210.9560  151.1350 C   0  0  2  0  0  3  0  0  0  0  0  0
  160.0800  209.3890  152.8690 C   0  0  2  0  0  3  0  0  0  0  0  0
  157.7900  212.8360  155.0270 C   0  0  0  0  0  1  0  0  0  0  0  0
  157.8190  211.4450  154.9150 O   0  0  0  0  0  0  0  0  0  0  0  0
  158.4320  212.2830  151.4230 C   0  0  0  0  0  2  0  0  0  0  0  0
  158.4700  213.7980  151.4630 C   0  0  0  0  0  1  0  0  0  0  0  0
  1 18  1  0  0  0  0
  3 19  1  0  0  0  0
  4  1  1  0  0  0  0
  4 20  1  0  0  0  0
  5  6  2  0  0  0  0
  6  2  2  0  0  0  0
  7 15  1  6  0  0  0
  7 11  1  0  0  0  0
  8  6  1  6  0  0  0
  8 24  1  0  0  0  0
 10 22  1  0  0  0  0
 11 23  1  0  0  0  0
 12  7  1  0  0  0  0
 12  6  1  0  0  0  0
 13  9  1  0  0  0  0
 14 17  1  0  0  0  0
 14  1  2  0  0  0  0
 16 13  1  0  0  0  0
 17  3  2  0  0  0  0
 18 19  2  0  0  0  0
 20 13  1  0  0  0  0
 21 10  1  0  0  0  0
 22 16  1  0  0  0  0
 22 26  1  0  0  0  0
 23  8  1  0  0  0  0
 23 21  1  0  0  0  0
 24 10  1  0  0  0  0
 24 14  1  0  0  0  0
 26 25  1  0  0  0  0
 27 28  1  0  0  0  0
 27 21  1  0  0  0  0
M  END
>  <MODEL>
2

>  <REMARK>
 VINA RESULT:      -2.0      2.154      5.186
  Name = 
  2 active torsions:
  status: ('A' for Active; 'I' for Inactive)
    1  A    between atoms: C_5  and  C_24
    2  A    between atoms: O_17  and  C_25
                            x       y       z     vdW  Elec       q    Type
                         _______ _______ _______ _____ _____    ______ ____

>  <TORSDO>
F 2

$$$$
=
 OpenBabel11122414053D

 28 31  0  0  1  0  0  0  0  0999 V2000
  160.2310  211.3580  155.5400 C   0  0  0  0  0  0  0  0  0  0  0  0
  162.6330  210.2690  152.3280 O   0  0  0  0  0  0  0  0  0  0  0  0
  159.8860  208.7090  156.3800 C   0  0  0  0  0  3  0  0  0  0  0  0
  160.3930  212.6760  155.1120 O   0  0  0  0  0  0  0  0  0  0  0  0
  160.7240  209.0620  151.3390 O   0  0  0  0  0  0  0  0  0  0  0  0
  161.3410  210.4120  151.5750 S   0  0  0  0  0  0  0  0  0  0  0  0
  161.4170  212.7750  150.2300 C   0  0  1  0  0  3  0  0  0  0  0  0
  160.2370  211.4880  152.4430 C   0  0  1  0  0  3  0  0  0  0  0  0
  158.0070  213.2700  157.2610 C   0  0  0  0  0  1  0  0  0  0  0  0
  157.9400  211.6720  153.2040 C   0  0  2  0  0  3  0  0  0  0  0  0
  160.1590  213.2250  150.7440 O   0  0  0  0  0  0  0  0  0  0  0  0
  161.6010  211.2540  150.0240 C   0  0  0  0  0  2  0  0  0  0  0  0
  158.5860  214.0050  156.0610 C   0  0  2  0  0  3  0  0  0  0  0  0
  159.6840  210.4070  154.6580 C   0  0  0  0  0  0  0  0  0  0  0  0
  161.7190  213.4990  148.9350 C   0  0  0  0  0  1  0  0  0  0  0  0
  157.8170  213.7490  154.7550 C   0  0  0  0  0  2  0  0  0  0  0  0
  159.5110  209.0870  155.0880 C   0  0  0  0  0  3  0  0  0  0  0  0
  160.5950  210.9760  156.8390 C   0  0  0  0  0  3  0  0  0  0  0  0
  160.4250  209.6540  157.2570 C   0  0  0  0  0  3  0  0  0  0  0  0
  160.0950  213.7920  155.9380 C   0  0  0  0  0  2  0  0  0  0  0  0
  158.1890  212.6960  152.0930 C   0  0  1  0  0  3  0  0  0  0  0  0
  157.4370  212.2760  154.5340 C   0  0  1  0  0  3  0  0  0  0  0  0
  159.4300  212.1930  151.3810 C   0  0  2  0  0  3  0  0  0  0  0  0
  159.1960  210.7780  153.2810 C   0  0  2  0  0  3  0  0  0  0  0  0
  155.8430  210.8300  155.0570 C   0  0  0  0  0  1  0  0  0  0  0  0
  156.0500  212.1380  154.6150 O   0  0  0  0  0  0  0  0  0  0  0  0
  157.0000  212.7300  151.1480 C   0  0  0  0  0  2  0  0  0  0  0  0
  156.6750  214.1580  150.7570 C   0  0  0  0  0  1  0  0  0  0  0  0
  1 18  1  0  0  0  0
  3 19  1  0  0  0  0
  4  1  1  0  0  0  0
  4 20  1  0  0  0  0
  5  6  2  0  0  0  0
  6  2  2  0  0  0  0
  7 15  1  6  0  0  0
  7 11  1  0  0  0  0
  8  6  1  6  0  0  0
  8 24  1  0  0  0  0
 10 24  1  0  0  0  0
 10 22  1  0  0  0  0
 11 23  1  0  0  0  0
 12  7  1  0  0  0  0
 12  6  1  0  0  0  0
 13  9  1  0  0  0  0
 14 17  1  0  0  0  0
 14  1  2  0  0  0  0
 16 13  1  0  0  0  0
 17  3  2  0  0  0  0
 18 19  2  0  0  0  0
 20 13  1  0  0  0  0
 21 10  1  0  0  0  0
 22 26  1  0  0  0  0
 22 16  1  0  0  0  0
 23 21  1  0  0  0  0
 23  8  1  0  0  0  0
 24 14  1  0  0  0  0
 26 25  1  0  0  0  0
 27 21  1  0  0  0  0
 28 27  1  0  0  0  0
M  END
>  <MODEL>
3

>  <REMARK>
 VINA RESULT:      -1.4      2.236      5.173
  Name = 
  2 active torsions:
  status: ('A' for Active; 'I' for Inactive)
    1  A    between atoms: C_5  and  C_24
    2  A    between atoms: O_17  and  C_25
                            x       y       z     vdW  Elec       q    Type
                         _______ _______ _______ _____ _____    ______ ____

>  <TORSDO>
F 2

$$$$
