=
 OpenBabel11122412473D

 32 38  0  0  1  0  0  0  0  0999 V2000
  161.5210  209.9360  153.4930 C   0  0  2  0  0  3  0  0  0  0  0  0
  161.1620  206.1230  149.5680 C   0  0  1  0  0  3  0  0  0  0  0  0
  161.0540  201.8070  152.0260 C   0  0  0  0  0  3  0  0  0  0  0  0
  160.8250  201.1380  150.8250 C   0  0  0  0  0  3  0  0  0  0  0  0
  161.4580  206.1330  146.9860 C   0  0  2  0  0  3  0  0  0  0  0  0
  161.8620  205.3060  145.7550 C   0  0  2  0  0  3  0  0  0  0  0  0
  161.2350  208.2050  151.0110 C   0  0  1  0  0  3  0  0  0  0  0  0
  160.8330  205.9770  151.9310 O   0  0  0  0  0  0  0  0  0  0  0  0
  160.5930  203.6220  144.8860 C   0  0  0  0  0  0  0  0  0  0  0  0
  160.9510  207.6730  153.6040 C   0  0  0  0  0  2  0  0  0  0  0  0
  161.2750  203.1860  152.0220 C   0  0  0  0  0  3  0  0  0  0  0  0
  161.5350  205.3890  150.8650 C   0  0  1  0  0  3  0  0  0  0  0  0
  161.2650  203.9100  150.8200 C   0  0  0  0  0  0  0  0  0  0  0  0
  161.0370  203.9760  148.2860 C   0  0  2  0  0  3  0  0  0  0  0  0
  160.4790  204.7400  144.0350 N   0  0  0  0  0  0  0  0  0  0  0  0
  161.3780  210.5350  152.1140 C   0  0  0  0  0  2  0  0  0  0  0  0
  161.4500  207.2100  152.2100 C   0  0  2  0  0  3  0  0  0  0  0  0
  161.2160  205.8290  144.5370 N   0  0  0  0  0  2  0  0  0  0  0  0
  162.0070  209.5380  151.1320 C   0  0  0  0  0  2  0  0  0  0  0  0
  160.3070  209.0350  153.5270 C   0  0  1  0  0  3  0  0  0  0  0  0
  160.8360  201.8440  149.6200 C   0  0  0  0  0  3  0  0  0  0  0  0
  161.0900  203.2260  149.5980 C   0  0  0  0  0  0  0  0  0  0  0  0
  161.5770  203.1300  147.1320 C   0  0  0  0  0  2  0  0  0  0  0  0
  161.7010  207.5440  149.7140 C   0  0  0  0  0  2  0  0  0  0  0  0
  162.2460  207.4320  146.9050 C   0  0  0  0  0  1  0  0  0  0  0  0
  159.8100  202.3670  144.7200 C   0  0  0  0  0  1  0  0  0  0  0  0
  161.7110  205.3760  148.3320 C   0  0  2  0  0  3  0  0  0  0  0  0
  161.3850  203.9100  145.8860 C   0  0  2  0  0  3  0  0  0  0  0  0
  160.5030  210.0560  154.6230 C   0  0  2  0  0  3  0  0  0  0  0  0
  159.5960  211.2310  154.4300 C   0  0  0  0  0  0  0  0  0  0  0  0
  158.3920  211.0830  153.7520 O   0  0  0  0  0  0  0  0  0  0  0  0
  159.9040  212.3510  154.9160 O   0  0  0  0  0  1  0  0  0  0  0  0
  1 16  1  6  0  0  0
  1 20  1  0  0  0  0
  1 29  1  0  0  0  0
  2 24  1  1  0  0  0
  2 12  1  0  0  0  0
  4  3  2  0  0  0  0
  5 25  1  1  0  0  0
  5 27  1  0  0  0  0
  6 18  1  6  0  0  0
  6 28  1  0  0  0  0
  6  5  1  0  0  0  0
  7 24  1  6  0  0  0
  7 19  1  0  0  0  0
  7 17  1  0  0  0  0
  8 17  1  0  0  0  0
  9 28  1  0  0  0  0
 11  3  1  0  0  0  0
 12 13  1  6  0  0  0
 12  8  1  0  0  0  0
 13 11  2  0  0  0  0
 14 23  1  6  0  0  0
 14 27  1  0  0  0  0
 14 22  1  0  0  0  0
 15 18  1  0  0  0  0
 15  9  2  0  0  0  0
 17 10  1  1  0  0  0
 19 16  1  0  0  0  0
 20 10  1  1  0  0  0
 20 29  1  0  0  0  0
 21  4  1  0  0  0  0
 22 21  2  0  0  0  0
 22 13  1  0  0  0  0
 26  9  1  0  0  0  0
 27  2  1  0  0  0  0
 28 23  1  0  0  0  0
 30 29  1  0  0  0  0
 30 32  1  0  0  0  0
 31 30  2  0  0  0  0
M  END
>  <MODEL>
1

>  <REMARK>
 VINA RESULT:     -10.2      0.000      0.000
  Name = 
  1 active torsions:
  status: ('A' for Active; 'I' for Inactive)
    1  A    between atoms: C_29  and  C_30
                            x       y       z     vdW  Elec       q    Type
                         _______ _______ _______ _____ _____    ______ ____

>  <TORSDO>
F 1

$$$$
=
 OpenBabel11122412473D

 32 38  0  0  1  0  0  0  0  0999 V2000
  161.7320  203.5030  146.2060 C   0  0  2  0  0  3  0  0  0  0  0  0
  161.1220  206.9500  150.4270 C   0  0  1  0  0  3  0  0  0  0  0  0
  162.2180  211.4200  148.5580 C   0  0  0  0  0  3  0  0  0  0  0  0
  161.8400  212.0090  149.7640 C   0  0  0  0  0  3  0  0  0  0  0  0
  160.8460  206.6540  152.9950 C   0  0  2  0  0  3  0  0  0  0  0  0
  161.0960  207.2830  154.3750 C   0  0  2  0  0  3  0  0  0  0  0  0
  161.1840  205.0260  148.7780 C   0  0  1  0  0  3  0  0  0  0  0  0
  161.3410  207.3650  148.0840 O   0  0  0  0  0  0  0  0  0  0  0  0
  159.9440  209.0790  155.1790 C   0  0  0  0  0  0  0  0  0  0  0  0
  161.5550  205.8320  146.2690 C   0  0  0  0  0  2  0  0  0  0  0  0
  162.2180  210.0300  148.4340 C   0  0  0  0  0  3  0  0  0  0  0  0
  161.8770  207.7200  149.3330 C   0  0  1  0  0  3  0  0  0  0  0  0
  161.8360  209.2130  149.5090 C   0  0  0  0  0  0  0  0  0  0  0  0
  161.0550  208.9600  151.9180 C   0  0  2  0  0  3  0  0  0  0  0  0
  159.4770  207.9270  155.8430 N   0  0  0  0  0  0  0  0  0  0  0  0
  161.2020  202.8170  147.4430 C   0  0  0  0  0  2  0  0  0  0  0  0
  161.8060  206.0720  147.7810 C   0  0  2  0  0  3  0  0  0  0  0  0
  160.1280  206.7750  155.3650 N   0  0  0  0  0  0  0  0  0  0  0  0
  161.7490  203.5940  148.6470 C   0  0  0  0  0  2  0  0  0  0  0  0
  160.7080  204.6040  146.0440 C   0  0  1  0  0  3  0  0  0  0  0  0
  161.4810  211.2060  150.8490 C   0  0  0  0  0  3  0  0  0  0  0  0
  161.5080  209.8040  150.7480 C   0  0  0  0  0  0  0  0  0  0  0  0
  161.4560  209.5890  153.2530 C   0  0  0  0  0  2  0  0  0  0  0  0
  161.4540  205.4750  150.2150 C   0  0  0  0  0  2  0  0  0  0  0  0
  161.3870  205.2340  153.0670 C   0  0  0  0  0  1  0  0  0  0  0  0
  159.3470  210.4330  155.3420 C   0  0  0  0  0  1  0  0  0  0  0  0
  161.4990  207.4730  151.8320 C   0  0  2  0  0  3  0  0  0  0  0  0
  160.8800  208.7470  154.3280 C   0  0  0  0  0  0  0  0  0  0  0  0
  160.9770  203.6680  144.8900 C   0  0  2  0  0  3  0  0  0  0  0  0
  159.8800  202.6600  144.7500 C   0  0  0  0  0  0  0  0  0  0  0  0
  160.1420  201.3080  144.9400 O   0  0  0  0  0  1  0  0  0  0  0  0
  158.7050  203.0380  144.4990 O   0  0  0  0  0  0  0  0  0  0  0  0
  1 16  1  1  0  0  0
  2 24  1  1  0  0  0
  2 27  1  0  0  0  0
  3  4  1  0  0  0  0
  4 21  2  0  0  0  0
  5 25  1  1  0  0  0
  5  6  1  0  0  0  0
  6 28  1  6  0  0  0
  6 18  1  0  0  0  0
  7 19  1  6  0  0  0
  7 24  1  0  0  0  0
  9 26  1  0  0  0  0
  9 15  1  0  0  0  0
 11  3  2  0  0  0  0
 11 13  1  0  0  0  0
 12  8  1  6  0  0  0
 12 13  1  0  0  0  0
 12  2  1  0  0  0  0
 13 22  2  0  0  0  0
 14 23  1  1  0  0  0
 16 19  1  0  0  0  0
 17 10  1  6  0  0  0
 17  8  1  0  0  0  0
 17  7  1  0  0  0  0
 18 15  2  0  0  0  0
 20  1  1  0  0  0  0
 20 10  1  6  0  0  0
 22 21  1  0  0  0  0
 22 14  1  0  0  0  0
 23 28  1  0  0  0  0
 27 14  1  0  0  0  0
 27  5  1  0  0  0  0
 28  9  2  0  0  0  0
 29 20  1  0  0  0  0
 29  1  1  0  0  0  0
 30 29  1  0  0  0  0
 30 31  1  0  0  0  0
 32 30  2  0  0  0  0
M  END
>  <MODEL>
2

>  <REMARK>
 VINA RESULT:      -9.4      3.797      8.869
  Name = 
  1 active torsions:
  status: ('A' for Active; 'I' for Inactive)
    1  A    between atoms: C_29  and  C_30
                            x       y       z     vdW  Elec       q    Type
                         _______ _______ _______ _____ _____    ______ ____

>  <TORSDO>
F 1

$$$$
=
 OpenBabel11122412473D

 32 38  0  0  1  0  0  0  0  0999 V2000
  161.8080  202.9470  150.2280 C   0  0  2  0  0  3  0  0  0  0  0  0
  160.8310  207.9290  152.3020 C   0  0  1  0  0  3  0  0  0  0  0  0
  161.9680  211.0610  148.6180 C   0  0  0  0  0  3  0  0  0  0  0  0
  161.4940  212.1240  149.3860 C   0  0  0  0  0  3  0  0  0  0  0  0
  160.3790  208.8510  154.6900 C   0  0  2  0  0  3  0  0  0  0  0  0
  160.5170  210.0620  155.6260 C   0  0  2  0  0  3  0  0  0  0  0  0
  161.0480  205.4650  151.7530 C   0  0  1  0  0  3  0  0  0  0  0  0
  161.2080  207.2140  150.0530 O   0  0  0  0  0  0  0  0  0  0  0  0
  159.2760  211.9650  155.4310 C   0  0  0  0  0  0  0  0  0  0  0  0
  161.5810  205.0250  149.1820 C   0  0  0  0  0  2  0  0  0  0  0  0
  162.0050  209.7750  149.1600 C   0  0  0  0  0  3  0  0  0  0  0  0
  161.6470  208.1380  151.0170 C   0  0  1  0  0  3  0  0  0  0  0  0
  161.5630  209.5360  150.4700 C   0  0  0  0  0  0  0  0  0  0  0  0
  160.6180  210.3970  152.6710 C   0  0  2  0  0  3  0  0  0  0  0  0
  158.7850  211.2340  156.5310 N   0  0  0  0  0  0  0  0  0  0  0  0
  161.2050  202.8920  151.6110 C   0  0  0  0  0  2  0  0  0  0  0  0
  161.7180  205.9550  150.4170 C   0  0  2  0  0  3  0  0  0  0  0  0
  159.4920  210.0260  156.6850 N   0  0  0  0  0  0  0  0  0  0  0  0
  161.6490  204.1680  152.3390 C   0  0  0  0  0  2  0  0  0  0  0  0
  160.7760  203.7930  149.5140 C   0  0  1  0  0  3  0  0  0  0  0  0
  161.0750  211.9030  150.6990 C   0  0  0  0  0  3  0  0  0  0  0  0
  161.1360  210.6190  151.2680 C   0  0  0  0  0  0  0  0  0  0  0  0
  160.9100  211.5950  153.5750 C   0  0  0  0  0  2  0  0  0  0  0  0
  161.2070  206.5440  152.8240 C   0  0  0  0  0  2  0  0  0  0  0  0
  160.9410  207.6580  155.4480 C   0  0  0  0  0  1  0  0  0  0  0  0
  158.6420  213.2070  154.9090 C   0  0  0  0  0  1  0  0  0  0  0  0
  161.0960  209.0650  153.3160 C   0  0  2  0  0  3  0  0  0  0  0  0
  160.2770  211.3230  154.8870 C   0  0  0  0  0  0  0  0  0  0  0  0
  161.1450  202.4410  148.9500 C   0  0  2  0  0  3  0  0  0  0  0  0
  160.0810  201.4300  149.2400 C   0  0  0  0  0  0  0  0  0  0  0  0
  160.4140  200.2040  149.8040 O   0  0  0  0  0  1  0  0  0  0  0  0
  158.8730  201.7030  149.0110 O   0  0  0  0  0  0  0  0  0  0  0  0
  1 16  1  1  0  0  0
  2 24  1  1  0  0  0
  2 27  1  0  0  0  0
  3 11  2  0  0  0  0
  3  4  1  0  0  0  0
  4 21  2  0  0  0  0
  5 25  1  1  0  0  0
  5  6  1  0  0  0  0
  6 28  1  6  0  0  0
  6 18  1  0  0  0  0
  7 19  1  1  0  0  0
  7 24  1  0  0  0  0
  8 17  1  0  0  0  0
  9 15  1  0  0  0  0
 11 13  1  0  0  0  0
 12  8  1  6  0  0  0
 12  2  1  0  0  0  0
 13 12  1  0  0  0  0
 13 22  2  0  0  0  0
 14 27  1  0  0  0  0
 14 23  1  1  0  0  0
 15 18  2  0  0  0  0
 16 19  1  0  0  0  0
 17 10  1  6  0  0  0
 17  7  1  0  0  0  0
 20 10  1  6  0  0  0
 20  1  1  0  0  0  0
 21 22  1  0  0  0  0
 22 14  1  0  0  0  0
 23 28  1  0  0  0  0
 26  9  1  0  0  0  0
 27  5  1  0  0  0  0
 28  9  2  0  0  0  0
 29 30  1  0  0  0  0
 29 20  1  0  0  0  0
 29  1  1  0  0  0  0
 30 31  1  0  0  0  0
 32 30  2  0  0  0  0
M  END
>  <MODEL>
3

>  <REMARK>
 VINA RESULT:      -7.7      4.161      9.053
  Name = 
  1 active torsions:
  status: ('A' for Active; 'I' for Inactive)
    1  A    between atoms: C_29  and  C_30
                            x       y       z     vdW  Elec       q    Type
                         _______ _______ _______ _____ _____    ______ ____

>  <TORSDO>
F 1

$$$$
