=
 OpenBabel11122413113D

 31 35  0  0  1  0  0  0  0  0999 V2000
  162.1160  209.5330  148.9810 C   0  0  0  0  0  0  0  0  0  0  0  0
  161.5150  207.3870  152.0090 N   0  0  0  0  0  0  0  0  0  0  0  0
  161.0190  208.2090  153.0920 C   0  0  0  0  0  0  0  0  0  0  0  0
  160.3810  210.3710  154.0140 C   0  0  0  0  0  0  0  0  0  0  0  0
  161.5410  207.8680  150.6490 C   0  0  0  0  0  0  0  0  0  0  0  0
  161.5730  208.7210  147.9790 C   0  0  0  0  0  3  0  0  0  0  0  0
  160.9320  209.6070  152.9810 C   0  0  0  0  0  3  0  0  0  0  0  0
  160.3600  205.3510  151.3200 C   0  0  2  0  0  3  0  0  0  0  0  0
  162.8130  211.0830  148.5670 Cl  0  0  0  0  0  0  0  0  0  0  0  0
  160.6180  206.2080  154.3920 O   0  0  0  0  0  0  0  0  0  0  0  0
  160.2850  212.1110  153.8570 Cl  0  0  0  0  0  0  0  0  0  0  0  0
  160.4710  205.7950  149.9630 O   0  0  0  0  0  0  0  0  0  0  0  0
  161.5200  205.9200  152.1400 C   0  0  2  0  0  3  0  0  0  0  0  0
  162.1050  209.1060  150.3120 C   0  0  0  0  0  3  0  0  0  0  0  0
  159.8930  209.7430  155.1620 C   0  0  0  0  0  3  0  0  0  0  0  0
  161.0030  207.0500  149.6360 C   0  0  0  0  0  0  0  0  0  0  0  0
  161.0190  207.4800  148.3060 C   0  0  0  0  0  3  0  0  0  0  0  0
  161.5270  205.4530  153.6010 C   0  0  0  0  0  2  0  0  0  0  0  0
  160.5390  207.5920  154.2610 C   0  0  0  0  0  0  0  0  0  0  0  0
  159.9700  208.3550  155.2840 C   0  0  0  0  0  3  0  0  0  0  0  0
  160.3620  203.8960  151.3610 N   0  0  0  0  0  2  0  0  0  0  0  0
  162.2760  202.4000  151.5590 C   0  0  0  0  0  1  0  0  0  0  0  0
  161.5810  203.4440  150.7040 C   0  0  1  0  0  3  0  0  0  0  0  0
  160.6910  202.0070  146.7720 C   0  0  0  0  0  0  0  0  0  0  0  0
  161.6750  203.6600  148.2200 C   0  0  0  0  0  3  0  0  0  0  0  0
  160.1790  200.9530  150.1790 F   0  0  0  0  0  0  0  0  0  0  0  0
  160.3810  201.5350  145.4670 N   0  0  0  0  0  1  0  0  0  0  0  0
  161.3800  203.2090  146.9320 C   0  0  0  0  0  3  0  0  0  0  0  0
  160.5890  201.7040  149.1270 C   0  0  0  0  0  0  0  0  0  0  0  0
  161.2840  202.9100  149.3320 C   0  0  0  0  0  0  0  0  0  0  0  0
  160.3130  201.2860  147.8610 N   0  0  0  0  0  0  0  0  0  0  0  0
  1 14  1  0  0  0  0
  2 13  1  0  0  0  0
  2  3  1  0  0  0  0
  3 19  1  0  0  0  0
  4 15  2  0  0  0  0
  5  2  1  0  0  0  0
  6 17  1  0  0  0  0
  6  1  2  0  0  0  0
  7  3  2  0  0  0  0
  7  4  1  0  0  0  0
  8 21  1  6  0  0  0
  8 13  1  0  0  0  0
  9  1  1  0  0  0  0
 11  4  1  0  0  0  0
 12  8  1  0  0  0  0
 13 18  1  1  0  0  0
 14  5  2  0  0  0  0
 15 20  1  0  0  0  0
 16 12  1  0  0  0  0
 16  5  1  0  0  0  0
 17 16  2  0  0  0  0
 18 10  1  0  0  0  0
 19 10  1  0  0  0  0
 19 20  2  0  0  0  0
 23 21  1  0  0  0  0
 23 22  1  1  0  0  0
 24 28  2  0  0  0  0
 24 31  1  0  0  0  0
 25 30  2  0  0  0  0
 27 24  1  0  0  0  0
 28 25  1  0  0  0  0
 29 30  1  0  0  0  0
 29 26  1  0  0  0  0
 30 23  1  0  0  0  0
 31 29  2  0  0  0  0
M  END
>  <MODEL>
1

>  <REMARK>
 VINA RESULT:      -7.9      0.000      0.000
  Name = 
  3 active torsions:
  status: ('A' for Active; 'I' for Inactive)
    1  A    between atoms: C_5  and  N_16
    2  A    between atoms: C_5  and  C_30
    3  A    between atoms: C_10  and  N_16
                            x       y       z     vdW  Elec       q    Type
                         _______ _______ _______ _____ _____    ______ ____

>  <TORSDO>
F 3

$$$$
=
 OpenBabel11122413113D

 31 35  0  0  1  0  0  0  0  0999 V2000
  160.5390  208.0180  156.1150 C   0  0  0  0  0  0  0  0  0  0  0  0
  161.4440  209.0070  152.6030 N   0  0  0  0  0  0  0  0  0  0  0  0
  161.3690  207.8460  151.7400 C   0  0  0  0  0  0  0  0  0  0  0  0
  160.9780  205.4700  151.3860 C   0  0  0  0  0  0  0  0  0  0  0  0
  160.8600  209.0040  153.9210 C   0  0  0  0  0  0  0  0  0  0  0  0
  159.7050  209.0820  156.4740 C   0  0  0  0  0  3  0  0  0  0  0  0
  161.1180  206.5610  152.2480 C   0  0  0  0  0  3  0  0  0  0  0  0
  160.2970  211.0880  152.0450 C   0  0  2  0  0  3  0  0  0  0  0  0
  160.8570  206.7320  157.2580 Cl  0  0  0  0  0  0  0  0  0  0  0  0
  161.7270  209.2810  149.8240 O   0  0  0  0  0  0  0  0  0  0  0  0
  160.6680  203.8760  152.0390 Cl  0  0  0  0  0  0  0  0  0  0  0  0
  159.7950  211.1230  153.3860 O   0  0  0  0  0  0  0  0  0  0  0  0
  161.6360  210.3470  152.0210 C   0  0  2  0  0  3  0  0  0  0  0  0
  161.1190  207.9800  154.8440 C   0  0  0  0  0  3  0  0  0  0  0  0
  161.0690  205.6550  150.0040 C   0  0  0  0  0  3  0  0  0  0  0  0
  160.0270  210.0780  154.2910 C   0  0  0  0  0  0  0  0  0  0  0  0
  159.4520  210.1120  155.5640 C   0  0  0  0  0  3  0  0  0  0  0  0
  162.2900  210.3050  150.6350 C   0  0  0  0  0  2  0  0  0  0  0  0
  161.4760  208.0150  150.3480 C   0  0  0  0  0  0  0  0  0  0  0  0
  161.3150  206.9270  149.4860 C   0  0  0  0  0  3  0  0  0  0  0  0
  160.4480  212.4450  151.5430 N   0  0  0  0  0  2  0  0  0  0  0  0
  158.7270  214.0950  152.0460 C   0  0  0  0  0  1  0  0  0  0  0  0
  159.1230  212.9200  151.1700 C   0  0  1  0  0  3  0  0  0  0  0  0
  159.0330  214.0600  147.0450 C   0  0  0  0  0  0  0  0  0  0  0  0
  160.2630  213.6490  149.0740 C   0  0  0  0  0  3  0  0  0  0  0  0
  156.6950  213.0040  149.5750 F   0  0  0  0  0  0  0  0  0  0  0  0
  158.9980  214.4520  145.6790 N   0  0  0  0  0  1  0  0  0  0  0  0
  160.2470  214.0350  147.7330 C   0  0  0  0  0  3  0  0  0  0  0  0
  157.8720  213.3300  148.9870 C   0  0  0  0  0  0  0  0  0  0  0  0
  159.0750  213.2900  149.7150 C   0  0  0  0  0  0  0  0  0  0  0  0
  157.8820  213.7110  147.6800 N   0  0  0  0  0  0  0  0  0  0  0  0
  1  6  1  0  0  0  0
  1  9  1  0  0  0  0
  2  5  1  0  0  0  0
  3  7  1  0  0  0  0
  3  2  1  0  0  0  0
  4 11  1  0  0  0  0
  4  7  2  0  0  0  0
  5 16  2  0  0  0  0
  5 14  1  0  0  0  0
  8 21  1  1  0  0  0
  8 12  1  0  0  0  0
 10 19  1  0  0  0  0
 10 18  1  0  0  0  0
 12 16  1  0  0  0  0
 13 18  1  6  0  0  0
 13  8  1  0  0  0  0
 13  2  1  0  0  0  0
 14  1  2  0  0  0  0
 15  4  1  0  0  0  0
 16 17  1  0  0  0  0
 17  6  2  0  0  0  0
 19  3  2  0  0  0  0
 20 15  2  0  0  0  0
 20 19  1  0  0  0  0
 23 21  1  0  0  0  0
 23 22  1  1  0  0  0
 24 31  2  0  0  0  0
 24 28  1  0  0  0  0
 25 30  1  0  0  0  0
 27 24  1  0  0  0  0
 28 25  2  0  0  0  0
 29 26  1  0  0  0  0
 29 30  2  0  0  0  0
 30 23  1  0  0  0  0
 31 29  1  0  0  0  0
M  END
>  <MODEL>
2

>  <REMARK>
 VINA RESULT:      -7.7      4.735      8.354
  Name = 
  3 active torsions:
  status: ('A' for Active; 'I' for Inactive)
    1  A    between atoms: C_5  and  N_16
    2  A    between atoms: C_5  and  C_30
    3  A    between atoms: C_10  and  N_16
                            x       y       z     vdW  Elec       q    Type
                         _______ _______ _______ _____ _____    ______ ____

>  <TORSDO>
F 3

$$$$
=
 OpenBabel11122413113D

 31 35  0  0  1  0  0  0  0  0999 V2000
  160.6180  208.5710  154.9660 C   0  0  0  0  0  0  0  0  0  0  0  0
  161.6050  209.3570  151.4240 N   0  0  0  0  0  0  0  0  0  0  0  0
  161.4420  208.1740  150.6040 C   0  0  0  0  0  0  0  0  0  0  0  0
  160.8700  205.8230  150.3370 C   0  0  0  0  0  0  0  0  0  0  0  0
  161.0190  209.4470  152.7390 C   0  0  0  0  0  0  0  0  0  0  0  0
  159.8680  209.7090  155.2820 C   0  0  0  0  0  3  0  0  0  0  0  0
  161.0920  206.9320  151.1580 C   0  0  0  0  0  3  0  0  0  0  0  0
  160.6220  211.4970  150.7850 C   0  0  2  0  0  3  0  0  0  0  0  0
  160.8350  207.3080  156.1580 Cl  0  0  0  0  0  0  0  0  0  0  0  0
  161.9130  209.5050  148.6390 O   0  0  0  0  0  0  0  0  0  0  0  0
  160.4370  204.2840  151.0460 Cl  0  0  0  0  0  0  0  0  0  0  0  0
  160.1210  211.6210  152.1210 O   0  0  0  0  0  0  0  0  0  0  0  0
  161.9000  210.6550  150.7950 C   0  0  2  0  0  3  0  0  0  0  0  0
  161.1960  208.4420  153.7000 C   0  0  0  0  0  3  0  0  0  0  0  0
  160.9780  205.9490  148.9500 C   0  0  0  0  0  3  0  0  0  0  0  0
  160.2700  210.5950  153.0650 C   0  0  0  0  0  0  0  0  0  0  0  0
  159.6970  210.7210  154.3330 C   0  0  0  0  0  3  0  0  0  0  0  0
  162.5520  210.5120  149.4140 C   0  0  0  0  0  2  0  0  0  0  0  0
  161.5640  208.2830  149.2080 C   0  0  0  0  0  0  0  0  0  0  0  0
  161.3220  207.1790  148.3860 C   0  0  0  0  0  3  0  0  0  0  0  0
  160.8780  212.8200  150.2340 N   0  0  0  0  0  2  0  0  0  0  0  0
  159.1780  214.4240  149.5440 C   0  0  0  0  0  1  0  0  0  0  0  0
  159.8380  213.0890  149.2500 C   0  0  1  0  0  3  0  0  0  0  0  0
  161.4570  213.0930  145.2880 C   0  0  0  0  0  0  0  0  0  0  0  0
  161.7210  213.4500  147.6540 C   0  0  0  0  0  3  0  0  0  0  0  0
  158.3260  212.3140  146.8930 F   0  0  0  0  0  0  0  0  0  0  0  0
  161.9880  213.1070  143.9690 N   0  0  0  0  0  1  0  0  0  0  0  0
  162.2580  213.4680  146.3660 C   0  0  0  0  0  3  0  0  0  0  0  0
  159.6210  212.6870  146.7420 C   0  0  0  0  0  0  0  0  0  0  0  0
  160.3960  213.0570  147.8570 C   0  0  0  0  0  0  0  0  0  0  0  0
  160.1670  212.7140  145.4960 N   0  0  0  0  0  0  0  0  0  0  0  0
  1  6  1  0  0  0  0
  1  9  1  0  0  0  0
  2  5  1  0  0  0  0
  3  7  1  0  0  0  0
  3  2  1  0  0  0  0
  4 11  1  0  0  0  0
  4  7  2  0  0  0  0
  5 16  2  0  0  0  0
  5 14  1  0  0  0  0
  8 21  1  1  0  0  0
  8 13  1  0  0  0  0
  8 12  1  0  0  0  0
 10 19  1  0  0  0  0
 10 18  1  0  0  0  0
 12 16  1  0  0  0  0
 13 18  1  6  0  0  0
 13  2  1  0  0  0  0
 14  1  2  0  0  0  0
 15  4  1  0  0  0  0
 16 17  1  0  0  0  0
 17  6  2  0  0  0  0
 19  3  2  0  0  0  0
 20 15  2  0  0  0  0
 20 19  1  0  0  0  0
 23 22  1  1  0  0  0
 23 21  1  0  0  0  0
 24 31  2  0  0  0  0
 24 28  1  0  0  0  0
 25 30  1  0  0  0  0
 27 24  1  0  0  0  0
 28 25  2  0  0  0  0
 29 26  1  0  0  0  0
 29 30  2  0  0  0  0
 30 23  1  0  0  0  0
 31 29  1  0  0  0  0
M  END
>  <MODEL>
3

>  <REMARK>
 VINA RESULT:      -7.5      4.634      8.093
  Name = 
  3 active torsions:
  status: ('A' for Active; 'I' for Inactive)
    1  A    between atoms: C_5  and  N_16
    2  A    between atoms: C_5  and  C_30
    3  A    between atoms: C_10  and  N_16
                            x       y       z     vdW  Elec       q    Type
                         _______ _______ _______ _____ _____    ______ ____

>  <TORSDO>
F 3

$$$$
=
 OpenBabel11122413113D

 31 35  0  0  1  0  0  0  0  0999 V2000
  161.0150  206.5930  146.8230 C   0  0  0  0  0  0  0  0  0  0  0  0
  160.8180  204.7630  150.1020 N   0  0  0  0  0  0  0  0  0  0  0  0
  160.9100  203.3370  149.8640 C   0  0  0  0  0  0  0  0  0  0  0  0
  161.0980  201.4290  148.3640 C   0  0  0  0  0  0  0  0  0  0  0  0
  161.1700  205.7190  149.0820 C   0  0  0  0  0  0  0  0  0  0  0  0
  161.8870  207.6330  147.1630 C   0  0  0  0  0  3  0  0  0  0  0  0
  160.9340  202.8020  148.5660 C   0  0  0  0  0  3  0  0  0  0  0  0
  162.2580  205.8830  151.7220 C   0  0  2  0  0  3  0  0  0  0  0  0
  160.3740  206.4830  145.1990 Cl  0  0  0  0  0  0  0  0  0  0  0  0
  161.0320  202.9750  152.2540 O   0  0  0  0  0  0  0  0  0  0  0  0
  161.1220  200.7820  146.7380 Cl  0  0  0  0  0  0  0  0  0  0  0  0
  162.5310  206.8790  150.7300 O   0  0  0  0  0  0  0  0  0  0  0  0
  160.8700  205.2860  151.4770 C   0  0  2  0  0  3  0  0  0  0  0  0
  160.6540  205.6400  147.7810 C   0  0  0  0  0  3  0  0  0  0  0  0
  161.2580  200.5760  149.4590 C   0  0  0  0  0  3  0  0  0  0  0  0
  162.0410  206.7740  149.4210 C   0  0  0  0  0  0  0  0  0  0  0  0
  162.3970  207.7250  148.4610 C   0  0  0  0  0  3  0  0  0  0  0  0
  160.4550  204.2460  152.5250 C   0  0  0  0  0  2  0  0  0  0  0  0
  161.0550  202.4650  150.9580 C   0  0  0  0  0  0  0  0  0  0  0  0
  161.2400  201.0950  150.7550 C   0  0  0  0  0  3  0  0  0  0  0  0
  162.3390  206.4760  153.0480 N   0  0  0  0  0  2  0  0  0  0  0  0
  160.6480  206.1990  154.7810 C   0  0  0  0  0  1  0  0  0  0  0  0
  160.9860  206.8380  153.4460 C   0  0  1  0  0  3  0  0  0  0  0  0
  160.4540  211.0780  153.6810 C   0  0  0  0  0  0  0  0  0  0  0  0
  160.9000  208.9660  154.7460 C   0  0  0  0  0  3  0  0  0  0  0  0
  160.4600  208.5250  151.1390 F   0  0  0  0  0  0  0  0  0  0  0  0
  160.2620  212.4850  153.7590 N   0  0  0  0  0  1  0  0  0  0  0  0
  160.7160  210.3460  154.8390 C   0  0  0  0  0  3  0  0  0  0  0  0
  160.5560  209.1040  152.3610 C   0  0  0  0  0  0  0  0  0  0  0  0
  160.8240  208.3300  153.5050 C   0  0  0  0  0  0  0  0  0  0  0  0
  160.3790  210.4490  152.4780 N   0  0  0  0  0  0  0  0  0  0  0  0
  1  6  2  0  0  0  0
  1 14  1  0  0  0  0
  2 13  1  0  0  0  0
  3  2  1  0  0  0  0
  3 19  1  0  0  0  0
  4  7  1  0  0  0  0
  4 15  2  0  0  0  0
  5 16  1  0  0  0  0
  5  2  1  0  0  0  0
  6 17  1  0  0  0  0
  7  3  2  0  0  0  0
  8 21  1  1  0  0  0
  9  1  1  0  0  0  0
 10 18  1  0  0  0  0
 11  4  1  0  0  0  0
 12  8  1  0  0  0  0
 13  8  1  0  0  0  0
 13 18  1  1  0  0  0
 14  5  2  0  0  0  0
 15 20  1  0  0  0  0
 16 12  1  0  0  0  0
 17 16  2  0  0  0  0
 19 10  1  0  0  0  0
 20 19  2  0  0  0  0
 21 23  1  0  0  0  0
 23 30  1  0  0  0  0
 23 22  1  1  0  0  0
 24 27  1  0  0  0  0
 24 28  1  0  0  0  0
 25 28  2  0  0  0  0
 26 29  1  0  0  0  0
 29 31  1  0  0  0  0
 29 30  2  0  0  0  0
 30 25  1  0  0  0  0
 31 24  2  0  0  0  0
M  END
>  <MODEL>
4

>  <REMARK>
 VINA RESULT:      -7.4      3.198      7.162
  Name = 
  3 active torsions:
  status: ('A' for Active; 'I' for Inactive)
    1  A    between atoms: C_5  and  N_16
    2  A    between atoms: C_5  and  C_30
    3  A    between atoms: C_10  and  N_16
                            x       y       z     vdW  Elec       q    Type
                         _______ _______ _______ _____ _____    ______ ____

>  <TORSDO>
F 3

$$$$
=
 OpenBabel11122413113D

 31 35  0  0  1  0  0  0  0  0999 V2000
  162.2470  211.4490  149.0540 C   0  0  0  0  0  0  0  0  0  0  0  0
  161.2790  209.9780  152.3760 N   0  0  0  0  0  0  0  0  0  0  0  0
  160.3300  210.8530  153.0330 C   0  0  0  0  0  0  0  0  0  0  0  0
  159.0090  212.8970  153.1120 C   0  0  0  0  0  0  0  0  0  0  0  0
  161.5880  210.1200  150.9750 C   0  0  0  0  0  0  0  0  0  0  0  0
  162.1990  210.3090  148.2450 C   0  0  0  0  0  3  0  0  0  0  0  0
  159.9820  212.1040  152.4970 C   0  0  0  0  0  3  0  0  0  0  0  0
  160.8310  207.5970  152.0880 C   0  0  2  0  0  3  0  0  0  0  0  0
  162.6850  212.9950  148.3610 Cl  0  0  0  0  0  0  0  0  0  0  0  0
  160.0120  209.1760  154.7480 O   0  0  0  0  0  0  0  0  0  0  0  0
  158.5920  214.4530  152.4300 Cl  0  0  0  0  0  0  0  0  0  0  0  0
  161.2280  207.7290  150.7180 O   0  0  0  0  0  0  0  0  0  0  0  0
  161.5600  208.6450  152.9330 C   0  0  2  0  0  3  0  0  0  0  0  0
  161.9470  211.3550  150.4160 C   0  0  0  0  0  3  0  0  0  0  0  0
  158.3590  212.4390  154.2600 C   0  0  0  0  0  3  0  0  0  0  0  0
  161.5500  208.9730  150.1570 C   0  0  0  0  0  0  0  0  0  0  0  0
  161.8530  209.0720  148.7970 C   0  0  0  0  0  3  0  0  0  0  0  0
  161.2480  208.5490  154.4320 C   0  0  0  0  0  2  0  0  0  0  0  0
  159.6800  210.4120  154.1990 C   0  0  0  0  0  0  0  0  0  0  0  0
  158.6930  211.1960  154.8010 C   0  0  0  0  0  3  0  0  0  0  0  0
  161.1330  206.2530  152.5570 N   0  0  0  0  0  2  0  0  0  0  0  0
  163.3820  205.3300  152.3930 C   0  0  0  0  0  1  0  0  0  0  0  0
  162.1110  205.6810  151.6420 C   0  0  1  0  0  3  0  0  0  0  0  0
  160.5850  202.2020  149.6710 C   0  0  0  0  0  0  0  0  0  0  0  0
  161.3150  203.3170  151.6750 C   0  0  0  0  0  3  0  0  0  0  0  0
  161.5180  205.5720  148.7990 F   0  0  0  0  0  0  0  0  0  0  0  0
  160.0920  201.0430  149.0110 N   0  0  0  0  0  1  0  0  0  0  0  0
  160.8300  202.1710  151.0440 C   0  0  0  0  0  3  0  0  0  0  0  0
  161.2910  204.4690  149.5550 C   0  0  0  0  0  0  0  0  0  0  0  0
  161.5490  204.4800  150.9380 C   0  0  0  0  0  0  0  0  0  0  0  0
  160.8190  203.3390  148.9610 N   0  0  0  0  0  0  0  0  0  0  0  0
  1 14  1  0  0  0  0
  2 13  1  0  0  0  0
  2  3  1  0  0  0  0
  3 19  1  0  0  0  0
  4 15  2  0  0  0  0
  5  2  1  0  0  0  0
  6 17  1  0  0  0  0
  6  1  2  0  0  0  0
  7  3  2  0  0  0  0
  7  4  1  0  0  0  0
  8 21  1  1  0  0  0
  8 13  1  0  0  0  0
  9  1  1  0  0  0  0
 11  4  1  0  0  0  0
 12  8  1  0  0  0  0
 13 18  1  1  0  0  0
 14  5  2  0  0  0  0
 15 20  1  0  0  0  0
 16 12  1  0  0  0  0
 16  5  1  0  0  0  0
 17 16  2  0  0  0  0
 18 10  1  0  0  0  0
 19 10  1  0  0  0  0
 19 20  2  0  0  0  0
 23 22  1  1  0  0  0
 23 21  1  0  0  0  0
 24 28  1  0  0  0  0
 26 29  1  0  0  0  0
 27 24  1  0  0  0  0
 28 25  2  0  0  0  0
 29 30  2  0  0  0  0
 30 23  1  0  0  0  0
 30 25  1  0  0  0  0
 31 29  1  0  0  0  0
 31 24  2  0  0  0  0
M  END
>  <MODEL>
5

>  <REMARK>
 VINA RESULT:      -7.2      2.009      2.881
  Name = 
  3 active torsions:
  status: ('A' for Active; 'I' for Inactive)
    1  A    between atoms: C_5  and  N_16
    2  A    between atoms: C_5  and  C_30
    3  A    between atoms: C_10  and  N_16
                            x       y       z     vdW  Elec       q    Type
                         _______ _______ _______ _____ _____    ______ ____

>  <TORSDO>
F 3

$$$$
=
 OpenBabel11122413113D

 31 35  0  0  1  0  0  0  0  0999 V2000
  162.0860  210.1810  149.2210 C   0  0  0  0  0  0  0  0  0  0  0  0
  161.9050  207.0510  151.2950 N   0  0  0  0  0  0  0  0  0  0  0  0
  161.3770  207.3700  152.6050 C   0  0  0  0  0  0  0  0  0  0  0  0
  160.5470  208.9690  154.2420 C   0  0  0  0  0  0  0  0  0  0  0  0
  161.8000  207.9780  150.1950 C   0  0  0  0  0  0  0  0  0  0  0  0
  161.5860  209.7110  148.0030 C   0  0  0  0  0  3  0  0  0  0  0  0
  161.1240  208.6940  153.0000 C   0  0  0  0  0  3  0  0  0  0  0  0
  160.9550  205.2570  149.9400 C   0  0  2  0  0  3  0  0  0  0  0  0
  162.5760  211.8540  149.3780 Cl  0  0  0  0  0  0  0  0  0  0  0  0
  161.2820  205.0050  153.1130 O   0  0  0  0  0  0  0  0  0  0  0  0
  160.2420  210.6260  154.7150 Cl  0  0  0  0  0  0  0  0  0  0  0  0
  160.9390  206.1590  148.8280 O   0  0  0  0  0  0  0  0  0  0  0  0
  162.0860  205.6450  150.8960 C   0  0  2  0  0  3  0  0  0  0  0  0
  162.1980  209.3170  150.3140 C   0  0  0  0  0  3  0  0  0  0  0  0
  160.1980  207.9220  155.0980 C   0  0  0  0  0  3  0  0  0  0  0  0
  161.3040  207.5070  148.9630 C   0  0  0  0  0  0  0  0  0  0  0  0
  161.1970  208.3740  147.8730 C   0  0  0  0  0  3  0  0  0  0  0  0
  162.2270  204.7000  152.0950 C   0  0  0  0  0  2  0  0  0  0  0  0
  161.0370  206.3260  153.4840 C   0  0  0  0  0  0  0  0  0  0  0  0
  160.4410  206.6010  154.7170 C   0  0  0  0  0  3  0  0  0  0  0  0
  161.1280  203.8930  149.4610 N   0  0  0  0  0  2  0  0  0  0  0  0
  162.5020  204.6620  147.6010 C   0  0  0  0  0  1  0  0  0  0  0  0
  161.2240  203.9510  148.0090 C   0  0  1  0  0  3  0  0  0  0  0  0
  161.1220  200.0110  146.3410 C   0  0  0  0  0  0  0  0  0  0  0  0
  161.4080  201.4730  148.2320 C   0  0  0  0  0  3  0  0  0  0  0  0
  160.6570  203.4020  145.2120 F   0  0  0  0  0  0  0  0  0  0  0  0
  161.1020  198.7040  145.7800 N   0  0  0  0  0  1  0  0  0  0  0  0
  161.3900  200.1840  147.6980 C   0  0  0  0  0  3  0  0  0  0  0  0
  160.8920  202.3590  146.0470 C   0  0  0  0  0  0  0  0  0  0  0  0
  161.1560  202.5760  147.4110 C   0  0  0  0  0  0  0  0  0  0  0  0
  160.8810  201.0920  145.5500 N   0  0  0  0  0  0  0  0  0  0  0  0
  1  9  1  0  0  0  0
  1 14  1  0  0  0  0
  2  3  1  0  0  0  0
  3  7  2  0  0  0  0
  3 19  1  0  0  0  0
  4 11  1  0  0  0  0
  4 15  2  0  0  0  0
  5 14  2  0  0  0  0
  5  2  1  0  0  0  0
  6  1  2  0  0  0  0
  7  4  1  0  0  0  0
  8 21  1  6  0  0  0
  8 13  1  0  0  0  0
 10 19  1  0  0  0  0
 12 16  1  0  0  0  0
 12  8  1  0  0  0  0
 13  2  1  0  0  0  0
 13 18  1  1  0  0  0
 16  5  1  0  0  0  0
 17  6  1  0  0  0  0
 17 16  2  0  0  0  0
 18 10  1  0  0  0  0
 19 20  2  0  0  0  0
 20 15  1  0  0  0  0
 23 22  1  1  0  0  0
 23 21  1  0  0  0  0
 24 28  1  0  0  0  0
 26 29  1  0  0  0  0
 27 24  1  0  0  0  0
 28 25  2  0  0  0  0
 29 30  2  0  0  0  0
 30 23  1  0  0  0  0
 30 25  1  0  0  0  0
 31 29  1  0  0  0  0
 31 24  2  0  0  0  0
M  END
>  <MODEL>
6

>  <REMARK>
 VINA RESULT:      -6.6      1.637      2.166
  Name = 
  3 active torsions:
  status: ('A' for Active; 'I' for Inactive)
    1  A    between atoms: C_5  and  N_16
    2  A    between atoms: C_5  and  C_30
    3  A    between atoms: C_10  and  N_16
                            x       y       z     vdW  Elec       q    Type
                         _______ _______ _______ _____ _____    ______ ____

>  <TORSDO>
F 3

$$$$
=
 OpenBabel11122413113D

 31 35  0  0  1  0  0  0  0  0999 V2000
  161.2050  202.0800  150.6230 C   0  0  0  0  0  0  0  0  0  0  0  0
  161.6660  205.2250  148.6160 N   0  0  0  0  0  0  0  0  0  0  0  0
  161.3480  204.9620  147.2270 C   0  0  0  0  0  0  0  0  0  0  0  0
  160.6740  203.4540  145.4390 C   0  0  0  0  0  0  0  0  0  0  0  0
  161.2890  204.3060  149.6610 C   0  0  0  0  0  0  0  0  0  0  0  0
  160.5440  202.5880  151.7470 C   0  0  0  0  0  3  0  0  0  0  0  0
  161.0500  203.6690  146.7680 C   0  0  0  0  0  3  0  0  0  0  0  0
  160.6590  207.0910  149.8240 C   0  0  2  0  0  3  0  0  0  0  0  0
  161.5630  200.3710  150.5180 Cl  0  0  0  0  0  0  0  0  0  0  0  0
  161.5530  207.3280  146.7610 O   0  0  0  0  0  0  0  0  0  0  0  0
  160.3100  201.8350  144.8860 Cl  0  0  0  0  0  0  0  0  0  0  0  0
  160.3710  206.1880  150.8970 O   0  0  0  0  0  0  0  0  0  0  0  0
  161.9000  206.6070  149.0690 C   0  0  2  0  0  3  0  0  0  0  0  0
  161.5810  202.9370  149.5850 C   0  0  0  0  0  3  0  0  0  0  0  0
  160.5740  204.5340  144.5580 C   0  0  0  0  0  3  0  0  0  0  0  0
  160.6320  204.8140  150.7990 C   0  0  0  0  0  0  0  0  0  0  0  0
  160.2600  203.9540  151.8360 C   0  0  0  0  0  3  0  0  0  0  0  0
  162.3310  207.5410  147.9320 C   0  0  0  0  0  2  0  0  0  0  0  0
  161.2600  206.0380  146.3260 C   0  0  0  0  0  0  0  0  0  0  0  0
  160.8640  205.8250  145.0030 C   0  0  0  0  0  3  0  0  0  0  0  0
  160.8670  208.4300  150.3540 N   0  0  0  0  0  2  0  0  0  0  0  0
  162.8860  209.5080  151.1910 C   0  0  0  0  0  1  0  0  0  0  0  0
  161.9240  208.3450  151.3520 C   0  0  1  0  0  3  0  0  0  0  0  0
  160.3330  208.3180  155.3250 C   0  0  0  0  0  0  0  0  0  0  0  0
  160.5990  209.3930  153.1870 C   0  0  0  0  0  3  0  0  0  0  0  0
  162.3180  206.1610  153.2290 F   0  0  0  0  0  0  0  0  0  0  0  0
  159.8180  208.3130  156.6500 N   0  0  0  0  0  1  0  0  0  0  0  0
  160.0840  209.4030  154.4850 C   0  0  0  0  0  3  0  0  0  0  0  0
  161.5810  207.2300  153.6180 C   0  0  0  0  0  0  0  0  0  0  0  0
  161.3510  208.3040  152.7390 C   0  0  0  0  0  0  0  0  0  0  0  0
  161.0690  207.2640  154.8800 N   0  0  0  0  0  0  0  0  0  0  0  0
  1  6  1  0  0  0  0
  2 13  1  0  0  0  0
  2  5  1  0  0  0  0
  3  2  1  0  0  0  0
  4  7  2  0  0  0  0
  5 16  2  0  0  0  0
  6 17  2  0  0  0  0
  7  3  1  0  0  0  0
  8 21  1  1  0  0  0
  8 12  1  0  0  0  0
  9  1  1  0  0  0  0
 10 18  1  0  0  0  0
 11  4  1  0  0  0  0
 13 18  1  6  0  0  0
 13  8  1  0  0  0  0
 14  5  1  0  0  0  0
 14  1  2  0  0  0  0
 15 20  2  0  0  0  0
 15  4  1  0  0  0  0
 16 12  1  0  0  0  0
 16 17  1  0  0  0  0
 19 10  1  0  0  0  0
 19  3  2  0  0  0  0
 20 19  1  0  0  0  0
 21 23  1  0  0  0  0
 23 22  1  1  0  0  0
 23 30  1  0  0  0  0
 24 27  1  0  0  0  0
 25 28  1  0  0  0  0
 26 29  1  0  0  0  0
 28 24  2  0  0  0  0
 29 31  2  0  0  0  0
 30 25  2  0  0  0  0
 30 29  1  0  0  0  0
 31 24  1  0  0  0  0
M  END
>  <MODEL>
7

>  <REMARK>
 VINA RESULT:      -6.3      3.610      7.928
  Name = 
  3 active torsions:
  status: ('A' for Active; 'I' for Inactive)
    1  A    between atoms: C_5  and  N_16
    2  A    between atoms: C_5  and  C_30
    3  A    between atoms: C_10  and  N_16
                            x       y       z     vdW  Elec       q    Type
                         _______ _______ _______ _____ _____    ______ ____

>  <TORSDO>
F 3

$$$$
=
 OpenBabel11122413113D

 31 35  0  0  1  0  0  0  0  0999 V2000
  161.0750  201.7450  150.2000 C   0  0  0  0  0  0  0  0  0  0  0  0
  161.6790  205.0670  148.5450 N   0  0  0  0  0  0  0  0  0  0  0  0
  161.3020  204.9860  147.1490 C   0  0  0  0  0  0  0  0  0  0  0  0
  160.4780  203.7370  145.2280 C   0  0  0  0  0  0  0  0  0  0  0  0
  161.2750  204.0580  149.4930 C   0  0  0  0  0  0  0  0  0  0  0  0
  160.4830  202.1600  151.3980 C   0  0  0  0  0  3  0  0  0  0  0  0
  160.9070  203.7740  146.5580 C   0  0  0  0  0  3  0  0  0  0  0  0
  160.8330  206.8390  149.9940 C   0  0  2  0  0  3  0  0  0  0  0  0
  161.3180  200.0410  149.8880 Cl  0  0  0  0  0  0  0  0  0  0  0  0
  161.6460  207.3720  146.9450 O   0  0  0  0  0  0  0  0  0  0  0  0
  159.9920  202.2180  144.5090 Cl  0  0  0  0  0  0  0  0  0  0  0  0
  160.5180  205.8370  150.9680 O   0  0  0  0  0  0  0  0  0  0  0  0
  162.0150  206.3690  149.1430 C   0  0  2  0  0  3  0  0  0  0  0  0
  161.4740  202.6910  149.2520 C   0  0  0  0  0  3  0  0  0  0  0  0
  160.4210  204.9150  144.4790 C   0  0  0  0  0  3  0  0  0  0  0  0
  160.6860  204.4700  150.7050 C   0  0  0  0  0  0  0  0  0  0  0  0
  160.2910  203.5210  151.6510 C   0  0  0  0  0  3  0  0  0  0  0  0
  162.4710  207.4010  148.1030 C   0  0  0  0  0  2  0  0  0  0  0  0
  161.2570  206.1610  146.3790 C   0  0  0  0  0  0  0  0  0  0  0  0
  160.8080  206.1260  145.0560 C   0  0  0  0  0  3  0  0  0  0  0  0
  161.1430  208.0930  150.6640 N   0  0  0  0  0  2  0  0  0  0  0  0
  162.3400  207.2720  152.6210 C   0  0  0  0  0  1  0  0  0  0  0  0
  161.0410  207.8570  152.0970 C   0  0  1  0  0  3  0  0  0  0  0  0
  160.1110  211.5020  154.1400 C   0  0  0  0  0  0  0  0  0  0  0  0
  160.6900  210.3270  152.1200 C   0  0  0  0  0  3  0  0  0  0  0  0
  160.3880  207.9960  154.9260 F   0  0  0  0  0  0  0  0  0  0  0  0
  159.8170  212.7130  154.8240 N   0  0  0  0  0  1  0  0  0  0  0  0
  160.4020  211.5250  152.7760 C   0  0  0  0  0  3  0  0  0  0  0  0
  160.3890  209.1420  154.2000 C   0  0  0  0  0  0  0  0  0  0  0  0
  160.6850  209.1220  152.8250 C   0  0  0  0  0  0  0  0  0  0  0  0
  160.1120  210.3230  154.8180 N   0  0  0  0  0  0  0  0  0  0  0  0
  1  6  1  0  0  0  0
  2 13  1  0  0  0  0
  2  5  1  0  0  0  0
  3  2  1  0  0  0  0
  4  7  2  0  0  0  0
  5 16  2  0  0  0  0
  6 17  2  0  0  0  0
  7  3  1  0  0  0  0
  8 21  1  1  0  0  0
  8 12  1  0  0  0  0
  9  1  1  0  0  0  0
 10 18  1  0  0  0  0
 11  4  1  0  0  0  0
 13 18  1  6  0  0  0
 13  8  1  0  0  0  0
 14  5  1  0  0  0  0
 14  1  2  0  0  0  0
 15 20  2  0  0  0  0
 15  4  1  0  0  0  0
 16 12  1  0  0  0  0
 16 17  1  0  0  0  0
 19 10  1  0  0  0  0
 19  3  2  0  0  0  0
 20 19  1  0  0  0  0
 21 23  1  0  0  0  0
 23 22  1  1  0  0  0
 23 30  1  0  0  0  0
 24 31  1  0  0  0  0
 24 27  1  0  0  0  0
 25 28  1  0  0  0  0
 25 30  2  0  0  0  0
 28 24  2  0  0  0  0
 29 31  2  0  0  0  0
 29 26  1  0  0  0  0
 30 29  1  0  0  0  0
M  END
>  <MODEL>
8

>  <REMARK>
 VINA RESULT:      -6.2      3.821      8.282
  Name = 
  3 active torsions:
  status: ('A' for Active; 'I' for Inactive)
    1  A    between atoms: C_5  and  N_16
    2  A    between atoms: C_5  and  C_30
    3  A    between atoms: C_10  and  N_16
                            x       y       z     vdW  Elec       q    Type
                         _______ _______ _______ _____ _____    ______ ____

>  <TORSDO>
F 3

$$$$
=
 OpenBabel11122413113D

 31 35  0  0  1  0  0  0  0  0999 V2000
  160.9720  201.8220  149.4080 C   0  0  0  0  0  0  0  0  0  0  0  0
  161.9700  205.2820  150.4860 N   0  0  0  0  0  0  0  0  0  0  0  0
  161.7210  206.2150  149.4060 C   0  0  0  0  0  0  0  0  0  0  0  0
  160.9930  206.7090  147.1360 C   0  0  0  0  0  0  0  0  0  0  0  0
  161.4060  203.9550  150.4790 C   0  0  0  0  0  0  0  0  0  0  0  0
  160.3020  201.3800  150.5530 C   0  0  0  0  0  3  0  0  0  0  0  0
  161.2960  205.7830  148.1380 C   0  0  0  0  0  3  0  0  0  0  0  0
  161.1230  205.6850  152.7390 C   0  0  2  0  0  3  0  0  0  0  0  0
  161.1180  200.7680  148.0190 Cl  0  0  0  0  0  0  0  0  0  0  0  0
  162.2570  208.0440  150.8970 O   0  0  0  0  0  0  0  0  0  0  0  0
  160.4680  206.1510  145.5630 Cl  0  0  0  0  0  0  0  0  0  0  0  0
  160.6460  204.3350  152.7580 O   0  0  0  0  0  0  0  0  0  0  0  0
  162.3430  205.7830  151.8200 C   0  0  2  0  0  3  0  0  0  0  0  0
  161.5270  203.1040  149.3720 C   0  0  0  0  0  3  0  0  0  0  0  0
  161.0940  208.0780  147.3950 C   0  0  0  0  0  3  0  0  0  0  0  0
  160.7370  203.5020  151.6340 C   0  0  0  0  0  0  0  0  0  0  0  0
  160.1870  202.2180  151.6660 C   0  0  0  0  0  3  0  0  0  0  0  0
  162.9690  207.1820  151.7760 C   0  0  0  0  0  2  0  0  0  0  0  0
  161.8350  207.5950  149.6480 C   0  0  0  0  0  0  0  0  0  0  0  0
  161.5120  208.5200  148.6520 C   0  0  0  0  0  3  0  0  0  0  0  0
  161.4590  206.1050  154.0910 N   0  0  0  0  0  2  0  0  0  0  0  0
  159.4380  206.6620  155.3350 C   0  0  0  0  0  1  0  0  0  0  0  0
  160.5530  207.1880  154.4480 C   0  0  1  0  0  3  0  0  0  0  0  0
  162.6020  210.3760  156.4360 C   0  0  0  0  0  0  0  0  0  0  0  0
  161.7480  208.1260  156.4280 C   0  0  0  0  0  3  0  0  0  0  0  0
  161.0740  209.7740  153.2300 F   0  0  0  0  0  0  0  0  0  0  0  0
  163.2690  211.4420  157.1000 N   0  0  0  0  0  1  0  0  0  0  0  0
  162.4060  209.1610  157.0930 C   0  0  0  0  0  3  0  0  0  0  0  0
  161.5100  209.5490  154.4930 C   0  0  0  0  0  0  0  0  0  0  0  0
  161.2940  208.3080  155.1190 C   0  0  0  0  0  0  0  0  0  0  0  0
  162.1540  210.5440  155.1630 N   0  0  0  0  0  0  0  0  0  0  0  0
  1  6  1  0  0  0  0
  2 13  1  0  0  0  0
  3 19  1  0  0  0  0
  3  2  1  0  0  0  0
  4 15  2  0  0  0  0
  4  7  1  0  0  0  0
  5  2  1  0  0  0  0
  5 16  2  0  0  0  0
  6 17  2  0  0  0  0
  7  3  2  0  0  0  0
  8 12  1  0  0  0  0
  8 21  1  1  0  0  0
  9  1  1  0  0  0  0
 10 18  1  0  0  0  0
 11  4  1  0  0  0  0
 13 18  1  6  0  0  0
 13  8  1  0  0  0  0
 14  1  2  0  0  0  0
 14  5  1  0  0  0  0
 15 20  1  0  0  0  0
 16 17  1  0  0  0  0
 16 12  1  0  0  0  0
 19 10  1  0  0  0  0
 20 19  2  0  0  0  0
 21 23  1  0  0  0  0
 23 30  1  0  0  0  0
 23 22  1  1  0  0  0
 24 28  1  0  0  0  0
 24 27  1  0  0  0  0
 25 28  2  0  0  0  0
 26 29  1  0  0  0  0
 29 30  2  0  0  0  0
 29 31  1  0  0  0  0
 30 25  1  0  0  0  0
 31 24  2  0  0  0  0
M  END
>  <MODEL>
9

>  <REMARK>
 VINA RESULT:      -6.2      3.512      7.720
  Name = 
  3 active torsions:
  status: ('A' for Active; 'I' for Inactive)
    1  A    between atoms: C_5  and  N_16
    2  A    between atoms: C_5  and  C_30
    3  A    between atoms: C_10  and  N_16
                            x       y       z     vdW  Elec       q    Type
                         _______ _______ _______ _____ _____    ______ ____

>  <TORSDO>
F 3

$$$$
