=
 OpenBabel11122414373D

 34 40  0  0  1  0  0  0  0  0999 V2000
  161.6560  208.2420  154.8040 C   0  0  1  0  0  3  0  0  0  0  0  0
  160.8420  206.3420  153.5050 C   0  0  0  0  0  2  0  0  0  0  0  0
  156.5370  211.9880  154.7090 C   0  0  0  0  0  0  0  0  0  0  0  0
  160.1250  209.8520  155.9270 C   0  0  2  0  0  3  0  0  0  0  0  0
  159.0400  211.6580  154.5390 C   0  0  2  0  0  3  0  0  0  0  0  0
  157.8430  213.3630  153.0250 C   0  0  0  0  0  1  0  0  0  0  0  0
  155.7090  211.6700  153.8140 O   0  0  0  0  0  0  0  0  0  0  0  0
  157.1320  212.0790  157.1060 C   0  0  0  0  0  2  0  0  0  0  0  0
  161.9480  208.0630  152.3640 C   0  0  2  0  0  3  0  0  0  0  0  0
  161.9900  208.4670  149.3900 C   0  0  0  0  0  3  0  0  0  0  0  0
  159.3050  210.8250  153.2790 C   0  0  0  0  0  2  0  0  0  0  0  0
  158.5410  211.4590  157.0550 C   0  0  0  0  0  2  0  0  0  0  0  0
  160.8920  209.2040  152.1840 C   0  0  1  0  0  3  0  0  0  0  0  0
  160.7920  205.9660  152.0340 C   0  0  0  0  0  2  0  0  0  0  0  0
  158.8710  210.7140  155.7560 C   0  0  2  0  0  3  0  0  0  0  0  0
  156.2760  211.6560  156.0430 O   0  0  0  0  0  0  0  0  0  0  0  0
  161.1300  207.4000  149.9880 C   0  0  2  0  0  3  0  0  0  0  0  0
  160.3810  209.0550  154.6390 C   0  0  1  0  0  3  0  0  0  0  0  0
  157.8520  212.6230  154.3580 C   0  0  1  0  0  3  0  0  0  0  0  0
  160.5730  209.9900  153.4600 C   0  0  2  0  0  3  0  0  0  0  0  0
  161.2450  208.4150  157.2610 C   0  0  0  0  0  2  0  0  0  0  0  0
  162.0760  209.6990  149.9040 C   0  0  0  0  0  3  0  0  0  0  0  0
  159.9710  208.9570  157.0030 O   0  0  0  0  0  0  0  0  0  0  0  0
  161.2910  210.2120  151.0880 C   0  0  0  0  0  2  0  0  0  0  0  0
  161.7110  206.9500  151.3360 C   0  0  1  0  0  3  0  0  0  0  0  0
  161.6550  207.4700  156.1280 C   0  0  0  0  0  2  0  0  0  0  0  0
  161.8840  207.3580  153.6550 N   0  0  1  0  0  0  0  0  0  0  0  0
  161.0680  206.2720  149.0750 N   0  0  0  0  0  2  0  0  0  0  0  0
  161.5420  206.7480  147.7860 C   0  0  0  0  0  2  0  0  0  0  0  0
  161.3040  203.7180  146.3300 N   0  0  0  0  0  2  0  0  0  0  0  0
  162.2780  205.7860  145.6360 C   0  0  0  0  0  2  0  0  0  0  0  0
  162.4210  205.6940  147.1350 C   0  0  2  0  0  3  0  0  0  0  0  0
  161.9050  204.3910  145.1900 C   0  0  0  0  0  2  0  0  0  0  0  0
  161.9350  204.3040  147.5030 C   0  0  0  0  0  2  0  0  0  0  0  0
  1 26  1  1  0  0  0
  2 27  1  0  0  0  0
  3 16  1  0  0  0  0
  4 23  1  1  0  0  0
  5 11  1  6  0  0  0
  5 15  1  0  0  0  0
  6 19  1  0  0  0  0
  7  3  2  0  0  0  0
  9 27  1  0  0  0  0
 10 22  2  0  0  0  0
 10 17  1  0  0  0  0
 11 20  1  0  0  0  0
 12  8  1  0  0  0  0
 13  9  1  0  0  0  0
 13 20  1  0  0  0  0
 14  2  1  0  0  0  0
 15  4  1  0  0  0  0
 15 12  1  0  0  0  0
 16  8  1  0  0  0  0
 17 25  1  0  0  0  0
 18  1  1  0  0  0  0
 18  4  1  0  0  0  0
 19  5  1  0  0  0  0
 19  3  1  0  0  0  0
 20 18  1  0  0  0  0
 22 24  1  0  0  0  0
 23 21  1  0  0  0  0
 24 13  1  0  0  0  0
 25 14  1  0  0  0  0
 25  9  1  0  0  0  0
 26 21  1  0  0  0  0
 27  1  1  0  0  0  0
 28 17  1  0  0  0  0
 29 28  1  0  0  0  0
 30 34  1  0  0  0  0
 31 32  1  0  0  0  0
 32 34  1  0  0  0  0
 32 29  1  0  0  0  0
 33 31  1  0  0  0  0
 33 30  1  0  0  0  0
M  END
>  <MODEL>
1

>  <REMARK>
 VINA RESULT:      -7.8      0.000      0.000
  Name = 
  3 active torsions:
  status: ('A' for Active; 'I' for Inactive)
    1  A    between atoms: C_17  and  N_28
    2  A    between atoms: N_28  and  C_29
    3  A    between atoms: C_29  and  C_32
                            x       y       z     vdW  Elec       q    Type
                         _______ _______ _______ _____ _____    ______ ____

>  <TORSDO>
F 3

$$$$
=
 OpenBabel11122414373D

 34 40  0  0  1  0  0  0  0  0999 V2000
  161.9060  209.1220  155.0570 C   0  0  1  0  0  3  0  0  0  0  0  0
  160.7200  207.0240  154.6690 C   0  0  0  0  0  2  0  0  0  0  0  0
  157.3180  213.3050  153.7520 C   0  0  0  0  0  0  0  0  0  0  0  0
  160.7260  211.2630  155.5250 C   0  0  2  0  0  3  0  0  0  0  0  0
  159.7250  212.5400  153.5920 C   0  0  2  0  0  3  0  0  0  0  0  0
  158.5870  213.6940  151.5910 C   0  0  0  0  0  1  0  0  0  0  0  0
  156.3620  212.8020  153.1050 O   0  0  0  0  0  0  0  0  0  0  0  0
  158.1880  214.2190  155.8780 C   0  0  0  0  0  2  0  0  0  0  0  0
  161.8960  207.9700  152.8790 C   0  0  2  0  0  3  0  0  0  0  0  0
  161.6520  207.1800  149.9940 C   0  0  0  0  0  3  0  0  0  0  0  0
  159.7400  211.2540  152.7570 C   0  0  0  0  0  2  0  0  0  0  0  0
  159.4930  213.4110  156.0020 C   0  0  0  0  0  2  0  0  0  0  0  0
  160.9780  209.1040  152.3160 C   0  0  1  0  0  3  0  0  0  0  0  0
  160.4570  206.1220  153.4770 C   0  0  0  0  0  2  0  0  0  0  0  0
  159.5780  212.1800  155.0920 C   0  0  2  0  0  3  0  0  0  0  0  0
  157.1710  213.5600  155.1200 O   0  0  0  0  0  0  0  0  0  0  0  0
  160.7390  206.5800  151.0130 C   0  0  2  0  0  3  0  0  0  0  0  0
  160.7330  210.0000  154.6500 C   0  0  1  0  0  3  0  0  0  0  0  0
  158.6540  213.5360  153.1060 C   0  0  1  0  0  3  0  0  0  0  0  0
  160.9060  210.3630  153.1870 C   0  0  2  0  0  3  0  0  0  0  0  0
  161.8010  210.2950  157.2580 C   0  0  0  0  0  2  0  0  0  0  0  0
  161.9490  208.4840  149.9670 C   0  0  0  0  0  3  0  0  0  0  0  0
  160.5840  210.8910  156.8750 O   0  0  0  0  0  0  0  0  0  0  0  0
  161.3740  209.5330  150.8890 C   0  0  0  0  0  2  0  0  0  0  0  0
  161.4070  206.5990  152.3950 C   0  0  1  0  0  3  0  0  0  0  0  0
  161.9590  208.9340  156.5770 C   0  0  0  0  0  2  0  0  0  0  0  0
  161.8910  207.8380  154.3450 N   0  0  1  0  0  0  0  0  0  0  0  0
  160.4340  205.2110  150.6310 N   0  0  0  0  0  2  0  0  0  0  0  0
  160.8990  205.0430  149.2640 C   0  0  0  0  0  2  0  0  0  0  0  0
  159.9940  201.8070  149.0130 N   0  0  0  0  0  2  0  0  0  0  0  0
  161.3590  203.2240  147.6610 C   0  0  0  0  0  2  0  0  0  0  0  0
  161.5210  203.6680  149.0940 C   0  0  2  0  0  3  0  0  0  0  0  0
  160.6910  201.8710  147.7390 C   0  0  0  0  0  2  0  0  0  0  0  0
  160.7650  202.6430  149.9210 C   0  0  0  0  0  2  0  0  0  0  0  0
  1 26  1  1  0  0  0
  3 16  1  0  0  0  0
  4 23  1  1  0  0  0
  5 11  1  6  0  0  0
  5 15  1  0  0  0  0
  6 19  1  0  0  0  0
  7  3  2  0  0  0  0
  8 12  1  0  0  0  0
  9 27  1  0  0  0  0
 10 17  1  0  0  0  0
 11 20  1  0  0  0  0
 13  9  1  0  0  0  0
 13 20  1  0  0  0  0
 14  2  1  0  0  0  0
 15  4  1  0  0  0  0
 15 12  1  0  0  0  0
 16  8  1  0  0  0  0
 17 25  1  0  0  0  0
 18  1  1  0  0  0  0
 18  4  1  0  0  0  0
 19  5  1  0  0  0  0
 19  3  1  0  0  0  0
 20 18  1  0  0  0  0
 22 10  2  0  0  0  0
 22 24  1  0  0  0  0
 23 21  1  0  0  0  0
 24 13  1  0  0  0  0
 25  9  1  0  0  0  0
 25 14  1  0  0  0  0
 26 21  1  0  0  0  0
 27  2  1  0  0  0  0
 27  1  1  0  0  0  0
 28 17  1  0  0  0  0
 29 28  1  0  0  0  0
 30 34  1  0  0  0  0
 31 33  1  0  0  0  0
 31 32  1  0  0  0  0
 32 29  1  0  0  0  0
 32 34  1  0  0  0  0
 33 30  1  0  0  0  0
M  END
>  <MODEL>
2

>  <REMARK>
 VINA RESULT:      -7.3      1.694      1.952
  Name = 
  3 active torsions:
  status: ('A' for Active; 'I' for Inactive)
    1  A    between atoms: C_17  and  N_28
    2  A    between atoms: N_28  and  C_29
    3  A    between atoms: C_29  and  C_32
                            x       y       z     vdW  Elec       q    Type
                         _______ _______ _______ _____ _____    ______ ____

>  <TORSDO>
F 3

$$$$
=
 OpenBabel11122414373D

 34 40  0  0  1  0  0  0  0  0999 V2000
  161.8310  207.8400  154.2340 C   0  0  1  0  0  3  0  0  0  0  0  0
  160.5090  206.0330  153.2590 C   0  0  0  0  0  2  0  0  0  0  0  0
  157.9950  212.7810  153.1790 C   0  0  0  0  0  0  0  0  0  0  0  0
  160.8230  209.9970  154.9600 C   0  0  2  0  0  3  0  0  0  0  0  0
  160.3000  211.7370  153.2090 C   0  0  2  0  0  3  0  0  0  0  0  0
  159.6400  213.3890  151.3470 C   0  0  0  0  0  1  0  0  0  0  0  0
  157.1120  212.5440  152.3130 O   0  0  0  0  0  0  0  0  0  0  0  0
  158.5910  213.1550  155.5490 C   0  0  0  0  0  2  0  0  0  0  0  0
  162.0610  207.1260  151.8860 C   0  0  2  0  0  3  0  0  0  0  0  0
  162.2180  206.9290  148.8960 C   0  0  0  0  0  3  0  0  0  0  0  0
  160.3160  210.6390  152.1380 C   0  0  0  0  0  2  0  0  0  0  0  0
  159.7640  212.1670  155.6880 C   0  0  0  0  0  2  0  0  0  0  0  0
  161.3750  208.4610  151.4440 C   0  0  1  0  0  3  0  0  0  0  0  0
  160.3540  205.4140  151.8810 C   0  0  0  0  0  2  0  0  0  0  0  0
  159.8670  211.1270  154.5660 C   0  0  2  0  0  3  0  0  0  0  0  0
  157.6500  212.7950  154.5350 O   0  0  0  0  0  0  0  0  0  0  0  0
  161.0890  206.2810  149.6300 C   0  0  2  0  0  3  0  0  0  0  0  0
  160.8420  208.9310  153.8540 C   0  0  1  0  0  3  0  0  0  0  0  0
  159.4370  212.9440  152.7900 C   0  0  1  0  0  3  0  0  0  0  0  0
  161.2940  209.5330  152.5360 C   0  0  2  0  0  3  0  0  0  0  0  0
  161.4860  208.5840  156.5920 C   0  0  0  0  0  2  0  0  0  0  0  0
  162.6520  208.1620  149.1810 C   0  0  0  0  0  3  0  0  0  0  0  0
  160.4200  209.4020  156.1710 O   0  0  0  0  0  0  0  0  0  0  0  0
  162.0460  209.0900  150.2070 C   0  0  0  0  0  2  0  0  0  0  0  0
  161.5160  205.9500  151.0660 C   0  0  1  0  0  3  0  0  0  0  0  0
  161.6090  207.3650  155.6740 C   0  0  0  0  0  2  0  0  0  0  0  0
  161.7970  206.7250  153.2790 N   0  0  1  0  0  0  0  0  0  0  0  0
  160.7080  205.0620  148.9350 N   0  0  0  0  0  2  0  0  0  0  0  0
  161.1720  205.1970  147.5640 C   0  0  0  0  0  2  0  0  0  0  0  0
  160.3960  202.0130  146.7810 N   0  0  0  0  0  2  0  0  0  0  0  0
  161.6100  203.7210  145.6360 C   0  0  0  0  0  2  0  0  0  0  0  0
  161.8420  203.9110  147.1140 C   0  0  2  0  0  3  0  0  0  0  0  0
  161.0090  202.3420  145.5040 C   0  0  0  0  0  2  0  0  0  0  0  0
  161.1850  202.7150  147.7820 C   0  0  0  0  0  2  0  0  0  0  0  0
  1 26  1  1  0  0  0
  2 27  1  0  0  0  0
  3 16  1  0  0  0  0
  4 23  1  1  0  0  0
  5 11  1  6  0  0  0
  5 15  1  0  0  0  0
  6 19  1  0  0  0  0
  7  3  2  0  0  0  0
  8 12  1  0  0  0  0
  9 27  1  0  0  0  0
 10 22  2  0  0  0  0
 10 17  1  0  0  0  0
 11 20  1  0  0  0  0
 13  9  1  0  0  0  0
 13 20  1  0  0  0  0
 14  2  1  0  0  0  0
 15  4  1  0  0  0  0
 15 12  1  0  0  0  0
 16  8  1  0  0  0  0
 17 25  1  0  0  0  0
 18  1  1  0  0  0  0
 18  4  1  0  0  0  0
 19  3  1  0  0  0  0
 19  5  1  0  0  0  0
 20 18  1  0  0  0  0
 22 24  1  0  0  0  0
 23 21  1  0  0  0  0
 24 13  1  0  0  0  0
 25 14  1  0  0  0  0
 25  9  1  0  0  0  0
 26 21  1  0  0  0  0
 27  1  1  0  0  0  0
 28 17  1  0  0  0  0
 29 28  1  0  0  0  0
 30 34  1  0  0  0  0
 31 32  1  0  0  0  0
 32 29  1  0  0  0  0
 32 34  1  0  0  0  0
 33 31  1  0  0  0  0
 33 30  1  0  0  0  0
M  END
>  <MODEL>
3

>  <REMARK>
 VINA RESULT:      -7.1      1.343      1.628
  Name = 
  3 active torsions:
  status: ('A' for Active; 'I' for Inactive)
    1  A    between atoms: C_17  and  N_28
    2  A    between atoms: N_28  and  C_29
    3  A    between atoms: C_29  and  C_32
                            x       y       z     vdW  Elec       q    Type
                         _______ _______ _______ _____ _____    ______ ____

>  <TORSDO>
F 3

$$$$
=
 OpenBabel11122414373D

 34 40  0  0  1  0  0  0  0  0999 V2000
  161.5340  210.9540  151.3570 C   0  0  1  0  0  3  0  0  0  0  0  0
  159.2670  211.5580  152.0300 C   0  0  0  0  0  2  0  0  0  0  0  0
  160.7030  204.8530  149.8310 C   0  0  0  0  0  0  0  0  0  0  0  0
  162.0240  208.9970  149.8990 C   0  0  2  0  0  3  0  0  0  0  0  0
  162.0440  206.6950  150.9320 C   0  0  2  0  0  3  0  0  0  0  0  0
  161.8790  204.3690  152.0250 C   0  0  0  0  0  1  0  0  0  0  0  0
  159.6340  204.3700  150.2920 O   0  0  0  0  0  0  0  0  0  0  0  0
  162.0000  205.6450  147.8820 C   0  0  0  0  0  2  0  0  0  0  0  0
  160.7390  210.7970  153.6840 C   0  0  2  0  0  3  0  0  0  0  0  0
  159.9850  209.9460  156.4620 C   0  0  0  0  0  3  0  0  0  0  0  0
  161.2090  207.2300  152.1000 C   0  0  0  0  0  2  0  0  0  0  0  0
  162.4780  207.0080  148.4150 C   0  0  0  0  0  2  0  0  0  0  0  0
  160.7580  209.2380  153.5550 C   0  0  1  0  0  3  0  0  0  0  0  0
  158.4600  211.5120  153.3150 C   0  0  0  0  0  2  0  0  0  0  0  0
  161.7290  207.5140  149.6540 C   0  0  2  0  0  3  0  0  0  0  0  0
  160.7820  205.1880  148.4750 O   0  0  0  0  0  0  0  0  0  0  0  0
  158.9200  210.2820  155.4670 C   0  0  2  0  0  3  0  0  0  0  0  0
  161.1970  209.4940  151.0940 C   0  0  1  0  0  3  0  0  0  0  0  0
  161.8590  205.1770  150.7330 C   0  0  1  0  0  3  0  0  0  0  0  0
  161.5330  208.7040  152.3450 C   0  0  2  0  0  3  0  0  0  0  0  0
  162.2550  211.0410  148.9690 C   0  0  0  0  0  2  0  0  0  0  0  0
  161.0520  209.2010  156.1540 C   0  0  0  0  0  3  0  0  0  0  0  0
  161.7020  209.7620  148.7620 O   0  0  0  0  0  0  0  0  0  0  0  0
  161.3080  208.5450  154.8170 C   0  0  0  0  0  2  0  0  0  0  0  0
  159.4710  211.2550  154.4160 C   0  0  1  0  0  3  0  0  0  0  0  0
  161.4830  211.7780  150.0660 C   0  0  0  0  0  2  0  0  0  0  0  0
  160.6800  211.5240  152.4050 N   0  0  1  0  0  0  0  0  0  0  0  0
  157.7960  210.8890  156.1610 N   0  0  0  0  0  2  0  0  0  0  0  0
  158.3290  212.0010  156.9320 C   0  0  0  0  0  2  0  0  0  0  0  0
  157.1390  214.4520  154.9490 N   0  0  0  0  0  2  0  0  0  0  0  0
  156.0820  212.7240  156.2140 C   0  0  0  0  0  2  0  0  0  0  0  0
  157.3240  213.1400  156.9600 C   0  0  2  0  0  3  0  0  0  0  0  0
  155.8570  213.8080  155.1860 C   0  0  0  0  0  2  0  0  0  0  0  0
  157.8680  214.3380  156.2030 C   0  0  0  0  0  2  0  0  0  0  0  0
  1 26  1  6  0  0  0
  1 27  1  0  0  0  0
  2 27  1  0  0  0  0
  2 14  1  0  0  0  0
  3  7  2  0  0  0  0
  3 19  1  0  0  0  0
  4 23  1  6  0  0  0
  4 18  1  0  0  0  0
  5 11  1  1  0  0  0
  8 12  1  0  0  0  0
  8 16  1  0  0  0  0
  9 25  1  0  0  0  0
 11 20  1  0  0  0  0
 12 15  1  0  0  0  0
 13  9  1  0  0  0  0
 13 24  1  0  0  0  0
 14 25  1  0  0  0  0
 15  4  1  0  0  0  0
 15  5  1  0  0  0  0
 16  3  1  0  0  0  0
 17 28  1  0  0  0  0
 17 10  1  0  0  0  0
 18  1  1  0  0  0  0
 18 20  1  0  0  0  0
 19  5  1  0  0  0  0
 19  6  1  0  0  0  0
 20 13  1  0  0  0  0
 21 26  1  0  0  0  0
 22 10  2  0  0  0  0
 23 21  1  0  0  0  0
 24 22  1  0  0  0  0
 25 17  1  0  0  0  0
 27  9  1  0  0  0  0
 28 29  1  0  0  0  0
 29 32  1  0  0  0  0
 30 33  1  0  0  0  0
 30 34  1  0  0  0  0
 31 32  1  0  0  0  0
 33 31  1  0  0  0  0
 34 32  1  0  0  0  0
M  END
>  <MODEL>
4

>  <REMARK>
 VINA RESULT:      -7.0      3.520      8.801
  Name = 
  3 active torsions:
  status: ('A' for Active; 'I' for Inactive)
    1  A    between atoms: C_17  and  N_28
    2  A    between atoms: N_28  and  C_29
    3  A    between atoms: C_29  and  C_32
                            x       y       z     vdW  Elec       q    Type
                         _______ _______ _______ _____ _____    ______ ____

>  <TORSDO>
F 3

$$$$
=
 OpenBabel11122414373D

 34 40  0  0  1  0  0  0  0  0999 V2000
  161.9370  210.0580  151.2730 C   0  0  1  0  0  3  0  0  0  0  0  0
  159.8000  210.9160  152.0830 C   0  0  0  0  0  2  0  0  0  0  0  0
  160.3330  204.0810  149.8790 C   0  0  0  0  0  0  0  0  0  0  0  0
  162.1090  208.0510  149.8110 C   0  0  2  0  0  3  0  0  0  0  0  0
  161.9410  205.7670  150.8680 C   0  0  2  0  0  3  0  0  0  0  0  0
  161.5890  203.4790  151.9990 C   0  0  0  0  0  1  0  0  0  0  0  0
  159.2500  203.7230  150.4150 O   0  0  0  0  0  0  0  0  0  0  0  0
  161.5800  204.7130  147.8410 C   0  0  0  0  0  2  0  0  0  0  0  0
  161.2840  210.0030  153.6490 C   0  0  2  0  0  3  0  0  0  0  0  0
  160.6230  209.2560  156.4790 C   0  0  0  0  0  3  0  0  0  0  0  0
  161.2480  206.3980  152.0820 C   0  0  0  0  0  2  0  0  0  0  0  0
  162.2410  206.0170  148.3250 C   0  0  0  0  0  2  0  0  0  0  0  0
  161.1210  208.4510  153.5370 C   0  0  1  0  0  3  0  0  0  0  0  0
  159.0790  210.9670  153.4180 C   0  0  0  0  0  2  0  0  0  0  0  0
  161.6360  206.6090  149.6040 C   0  0  2  0  0  3  0  0  0  0  0  0
  160.3610  204.3980  148.5170 O   0  0  0  0  0  0  0  0  0  0  0  0
  159.5400  209.7050  155.5520 C   0  0  2  0  0  3  0  0  0  0  0  0
  161.4230  208.6440  151.0510 C   0  0  1  0  0  3  0  0  0  0  0  0
  161.5750  204.2780  150.7010 C   0  0  1  0  0  3  0  0  0  0  0  0
  161.7510  207.8280  152.2870 C   0  0  2  0  0  3  0  0  0  0  0  0
  162.5060  210.0520  148.8420 C   0  0  0  0  0  2  0  0  0  0  0  0
  161.5780  208.3950  156.1120 C   0  0  0  0  0  3  0  0  0  0  0  0
  161.8010  208.8420  148.6870 O   0  0  0  0  0  0  0  0  0  0  0  0
  161.6720  207.7080  154.7700 C   0  0  0  0  0  2  0  0  0  0  0  0
  160.1250  210.6040  154.4550 C   0  0  1  0  0  3  0  0  0  0  0  0
  161.8940  210.8760  149.9780 C   0  0  0  0  0  2  0  0  0  0  0  0
  161.2220  210.7260  152.3670 N   0  0  1  0  0  0  0  0  0  0  0  0
  158.5380  210.4370  156.3090 N   0  0  0  0  0  2  0  0  0  0  0  0
  159.2560  211.2690  157.2600 C   0  0  0  0  0  2  0  0  0  0  0  0
  159.1490  214.0240  155.3230 N   0  0  0  0  0  2  0  0  0  0  0  0
  157.4570  212.7070  156.3740 C   0  0  0  0  0  2  0  0  0  0  0  0
  158.6770  212.6730  157.2600 C   0  0  2  0  0  3  0  0  0  0  0  0
  157.7100  213.8310  155.3970 C   0  0  0  0  0  2  0  0  0  0  0  0
  159.6590  213.6460  156.6320 C   0  0  0  0  0  2  0  0  0  0  0  0
  1 26  1  6  0  0  0
  1 27  1  0  0  0  0
  2 27  1  0  0  0  0
  2 14  1  0  0  0  0
  3  7  2  0  0  0  0
  3 19  1  0  0  0  0
  4 23  1  6  0  0  0
  4 18  1  0  0  0  0
  5 11  1  1  0  0  0
  8 12  1  0  0  0  0
  8 16  1  0  0  0  0
  9 25  1  0  0  0  0
 11 20  1  0  0  0  0
 12 15  1  0  0  0  0
 13  9  1  0  0  0  0
 13 24  1  0  0  0  0
 14 25  1  0  0  0  0
 15  4  1  0  0  0  0
 15  5  1  0  0  0  0
 16  3  1  0  0  0  0
 17 28  1  0  0  0  0
 17 10  1  0  0  0  0
 18  1  1  0  0  0  0
 18 20  1  0  0  0  0
 19  5  1  0  0  0  0
 19  6  1  0  0  0  0
 20 13  1  0  0  0  0
 21 26  1  0  0  0  0
 22 10  2  0  0  0  0
 23 21  1  0  0  0  0
 24 22  1  0  0  0  0
 25 17  1  0  0  0  0
 27  9  1  0  0  0  0
 28 29  1  0  0  0  0
 29 32  1  0  0  0  0
 30 33  1  0  0  0  0
 30 34  1  0  0  0  0
 31 32  1  0  0  0  0
 33 31  1  0  0  0  0
 34 32  1  0  0  0  0
M  END
>  <MODEL>
5

>  <REMARK>
 VINA RESULT:      -6.5      3.490      8.745
  Name = 
  3 active torsions:
  status: ('A' for Active; 'I' for Inactive)
    1  A    between atoms: C_17  and  N_28
    2  A    between atoms: N_28  and  C_29
    3  A    between atoms: C_29  and  C_32
                            x       y       z     vdW  Elec       q    Type
                         _______ _______ _______ _____ _____    ______ ____

>  <TORSDO>
F 3

$$$$
=
 OpenBabel11122414373D

 34 40  0  0  1  0  0  0  0  0999 V2000
  161.6710  210.2400  154.8570 C   0  0  1  0  0  3  0  0  0  0  0  0
  161.1150  208.0570  153.9150 C   0  0  0  0  0  2  0  0  0  0  0  0
  156.1180  213.2350  154.2020 C   0  0  0  0  0  0  0  0  0  0  0  0
  159.9410  211.8120  155.7110 C   0  0  2  0  0  3  0  0  0  0  0  0
  158.6440  213.2000  154.0510 C   0  0  2  0  0  3  0  0  0  0  0  0
  157.2480  214.4530  152.2860 C   0  0  0  0  0  1  0  0  0  0  0  0
  155.3430  212.6650  153.3880 O   0  0  0  0  0  0  0  0  0  0  0  0
  156.6820  213.8120  156.5380 C   0  0  0  0  0  2  0  0  0  0  0  0
  161.9990  209.6820  152.4790 C   0  0  2  0  0  3  0  0  0  0  0  0
  162.0080  209.5690  149.4800 C   0  0  0  0  0  3  0  0  0  0  0  0
  159.0200  212.2030  152.9490 C   0  0  0  0  0  2  0  0  0  0  0  0
  158.1580  213.3750  156.5710 C   0  0  0  0  0  2  0  0  0  0  0  0
  160.8080  210.6310  152.1230 C   0  0  1  0  0  3  0  0  0  0  0  0
  161.1220  207.4300  152.5320 C   0  0  0  0  0  2  0  0  0  0  0  0
  158.5880  212.4660  155.4140 C   0  0  2  0  0  3  0  0  0  0  0  0
  155.8930  213.1070  155.5770 O   0  0  0  0  0  0  0  0  0  0  0  0
  161.2870  208.5220  150.2660 C   0  0  2  0  0  3  0  0  0  0  0  0
  160.3050  210.8440  154.5750 C   0  0  1  0  0  3  0  0  0  0  0  0
  157.3430  213.9610  153.7250 C   0  0  1  0  0  3  0  0  0  0  0  0
  160.3840  211.5790  153.2490 C   0  0  2  0  0  3  0  0  0  0  0  0
  161.2270  210.7800  157.2530 C   0  0  0  0  0  2  0  0  0  0  0  0
  161.9330  210.8720  149.7730 C   0  0  0  0  0  3  0  0  0  0  0  0
  159.8960  211.1040  156.9270 O   0  0  0  0  0  0  0  0  0  0  0  0
  161.0820  211.4780  150.8640 C   0  0  0  0  0  2  0  0  0  0  0  0
  161.9120  208.3870  151.6610 C   0  0  1  0  0  3  0  0  0  0  0  0
  161.7610  209.7140  156.2930 C   0  0  0  0  0  2  0  0  0  0  0  0
  162.0170  209.2070  153.8730 N   0  0  1  0  0  0  0  0  0  0  0  0
  161.3760  207.2540  149.5600 N   0  0  0  0  0  2  0  0  0  0  0  0
  162.4730  207.3740  148.6150 C   0  0  0  0  0  2  0  0  0  0  0  0
  161.9480  204.2490  147.4690 N   0  0  0  0  0  2  0  0  0  0  0  0
  160.6710  206.2640  147.3470 C   0  0  0  0  0  2  0  0  0  0  0  0
  162.1300  206.6470  147.3270 C   0  0  2  0  0  3  0  0  0  0  0  0
  160.6500  204.7760  147.0820 C   0  0  0  0  0  2  0  0  0  0  0  0
  162.8910  205.3350  147.2460 C   0  0  0  0  0  2  0  0  0  0  0  0
  1 26  1  1  0  0  0
  3 16  1  0  0  0  0
  4 23  1  1  0  0  0
  5 11  1  6  0  0  0
  5 15  1  0  0  0  0
  6 19  1  0  0  0  0
  7  3  2  0  0  0  0
  8 12  1  0  0  0  0
  9 27  1  0  0  0  0
 10 22  2  0  0  0  0
 10 17  1  0  0  0  0
 11 20  1  0  0  0  0
 13  9  1  0  0  0  0
 13 20  1  0  0  0  0
 14  2  1  0  0  0  0
 15  4  1  0  0  0  0
 15 12  1  0  0  0  0
 16  8  1  0  0  0  0
 17 25  1  0  0  0  0
 18  1  1  0  0  0  0
 18  4  1  0  0  0  0
 19  5  1  0  0  0  0
 19  3  1  0  0  0  0
 20 18  1  0  0  0  0
 22 24  1  0  0  0  0
 23 21  1  0  0  0  0
 24 13  1  0  0  0  0
 25  9  1  0  0  0  0
 25 14  1  0  0  0  0
 26 21  1  0  0  0  0
 27  2  1  0  0  0  0
 27  1  1  0  0  0  0
 28 17  1  0  0  0  0
 29 28  1  0  0  0  0
 32 31  1  0  0  0  0
 32 29  1  0  0  0  0
 33 31  1  0  0  0  0
 33 30  1  0  0  0  0
 34 32  1  0  0  0  0
 34 30  1  0  0  0  0
M  END
>  <MODEL>
6

>  <REMARK>
 VINA RESULT:      -5.3      1.458      1.682
  Name = 
  3 active torsions:
  status: ('A' for Active; 'I' for Inactive)
    1  A    between atoms: C_17  and  N_28
    2  A    between atoms: N_28  and  C_29
    3  A    between atoms: C_29  and  C_32
                            x       y       z     vdW  Elec       q    Type
                         _______ _______ _______ _____ _____    ______ ____

>  <TORSDO>
F 3

$$$$
=
 OpenBabel11122414373D

 34 40  0  0  1  0  0  0  0  0999 V2000
  160.8240  209.4810  155.5220 C   0  0  1  0  0  3  0  0  0  0  0  0
  159.8170  207.2910  155.1330 C   0  0  0  0  0  2  0  0  0  0  0  0
  157.2230  213.0980  151.7540 C   0  0  0  0  0  0  0  0  0  0  0  0
  159.6190  211.6110  155.0660 C   0  0  2  0  0  3  0  0  0  0  0  0
  159.4810  212.4370  152.6860 C   0  0  2  0  0  3  0  0  0  0  0  0
  159.2390  213.1230  150.2160 C   0  0  0  0  0  1  0  0  0  0  0  0
  156.5760  212.4320  150.9030 O   0  0  0  0  0  0  0  0  0  0  0  0
  157.2310  214.4500  153.8230 C   0  0  0  0  0  2  0  0  0  0  0  0
  161.6210  207.9280  153.7820 C   0  0  2  0  0  3  0  0  0  0  0  0
  162.4870  206.5820  151.2430 C   0  0  0  0  0  3  0  0  0  0  0  0
  159.7780  211.0150  152.1940 C   0  0  0  0  0  2  0  0  0  0  0  0
  158.3620  213.7470  154.5970 C   0  0  0  0  0  2  0  0  0  0  0  0
  161.0260  208.8850  152.6970 C   0  0  1  0  0  3  0  0  0  0  0  0
  160.0080  206.1630  154.1350 C   0  0  0  0  0  2  0  0  0  0  0  0
  158.7550  212.3680  154.0530 C   0  0  2  0  0  3  0  0  0  0  0  0
  156.5660  213.6060  152.8800 O   0  0  0  0  0  0  0  0  0  0  0  0
  161.2330  206.1470  151.9310 C   0  0  2  0  0  3  0  0  0  0  0  0
  159.9260  210.2040  154.5300 C   0  0  1  0  0  3  0  0  0  0  0  0
  158.7110  213.2650  151.6380 C   0  0  1  0  0  3  0  0  0  0  0  0
  160.6610  210.2840  153.2050 C   0  0  2  0  0  3  0  0  0  0  0  0
  159.9120  211.0520  157.2340 C   0  0  0  0  0  2  0  0  0  0  0  0
  162.8100  207.8690  151.0750 C   0  0  0  0  0  3  0  0  0  0  0  0
  158.9550  211.5010  156.3030 O   0  0  0  0  0  0  0  0  0  0  0  0
  161.9540  209.0480  151.4770 C   0  0  0  0  0  2  0  0  0  0  0  0
  161.3160  206.4670  153.4290 C   0  0  1  0  0  3  0  0  0  0  0  0
  160.2800  209.5940  156.9500 C   0  0  0  0  0  2  0  0  0  0  0  0
  161.0460  208.0840  155.1290 N   0  0  1  0  0  0  0  0  0  0  0  0
  161.0580  204.7160  151.7400 N   0  0  0  0  0  2  0  0  0  0  0  0
  160.6140  204.5260  150.3690 C   0  0  0  0  0  2  0  0  0  0  0  0
  159.7860  201.5340  149.0590 N   0  0  0  0  0  2  0  0  0  0  0  0
  161.1470  203.3340  148.2760 C   0  0  0  0  0  2  0  0  0  0  0  0
  161.2690  203.2900  149.7790 C   0  0  2  0  0  3  0  0  0  0  0  0
  160.5080  202.0190  147.8940 C   0  0  0  0  0  2  0  0  0  0  0  0
  160.5190  202.0410  150.2090 C   0  0  0  0  0  2  0  0  0  0  0  0
  1 26  1  1  0  0  0
  3 16  1  0  0  0  0
  4 23  1  1  0  0  0
  5 11  1  6  0  0  0
  5 15  1  0  0  0  0
  6 19  1  0  0  0  0
  7  3  2  0  0  0  0
  8 12  1  0  0  0  0
  9 27  1  0  0  0  0
 10 17  1  0  0  0  0
 11 20  1  0  0  0  0
 13 20  1  0  0  0  0
 13  9  1  0  0  0  0
 14  2  1  0  0  0  0
 15 12  1  0  0  0  0
 15  4  1  0  0  0  0
 16  8  1  0  0  0  0
 17 25  1  0  0  0  0
 18  4  1  0  0  0  0
 18  1  1  0  0  0  0
 19  3  1  0  0  0  0
 19  5  1  0  0  0  0
 20 18  1  0  0  0  0
 22 10  2  0  0  0  0
 22 24  1  0  0  0  0
 23 21  1  0  0  0  0
 24 13  1  0  0  0  0
 25  9  1  0  0  0  0
 25 14  1  0  0  0  0
 26 21  1  0  0  0  0
 27  2  1  0  0  0  0
 27  1  1  0  0  0  0
 28 17  1  0  0  0  0
 29 28  1  0  0  0  0
 30 34  1  0  0  0  0
 31 32  1  0  0  0  0
 32 34  1  0  0  0  0
 32 29  1  0  0  0  0
 33 31  1  0  0  0  0
 33 30  1  0  0  0  0
M  END
>  <MODEL>
7

>  <REMARK>
 VINA RESULT:      -4.9      2.070      2.756
  Name = 
  3 active torsions:
  status: ('A' for Active; 'I' for Inactive)
    1  A    between atoms: C_17  and  N_28
    2  A    between atoms: N_28  and  C_29
    3  A    between atoms: C_29  and  C_32
                            x       y       z     vdW  Elec       q    Type
                         _______ _______ _______ _____ _____    ______ ____

>  <TORSDO>
F 3

$$$$
