=
 OpenBabel11122412513D

 32 37  0  0  1  0  0  0  0  0999 V2000
  162.4450  209.5030  153.8720 O   0  0  0  0  0  0  0  0  0  0  0  0
  160.9970  206.5170  150.0730 N   0  0  1  0  0  0  0  0  0  0  0  0
  161.1960  201.9410  151.9110 C   0  0  0  0  0  3  0  0  0  0  0  0
  161.0140  201.4320  150.6240 C   0  0  0  0  0  3  0  0  0  0  0  0
  161.4560  206.8050  147.5930 C   0  0  0  0  0  0  0  0  0  0  0  0
  161.1200  206.1510  146.2670 C   0  0  1  0  0  3  0  0  0  0  0  0
  160.8030  208.4160  151.5900 C   0  0  1  0  0  3  0  0  0  0  0  0
  160.7400  206.2110  152.4990 C   0  0  0  0  0  2  0  0  0  0  0  0
  161.0750  204.1110  145.1310 C   0  0  2  0  0  3  0  0  0  0  0  0
  160.5180  208.0550  153.9630 C   0  0  0  0  0  2  0  0  0  0  0  0
  161.3000  203.3210  152.1090 C   0  0  0  0  0  3  0  0  0  0  0  0
  161.4220  205.6920  151.2280 C   0  0  1  0  0  3  0  0  0  0  0  0
  161.2070  204.2040  151.0230 C   0  0  0  0  0  0  0  0  0  0  0  0
  160.9240  204.6240  148.5690 C   0  0  2  0  0  3  0  0  0  0  0  0
  162.0090  205.0420  144.3730 C   0  0  0  0  0  2  0  0  0  0  0  0
  162.3270  210.2490  152.6720 C   0  0  0  0  0  2  0  0  0  0  0  0
  161.1780  207.5830  152.7450 N   0  0  2  0  0  0  0  0  0  0  0  0
  162.2830  206.1920  145.3070 C   0  0  0  0  0  2  0  0  0  0  0  0
  161.1100  209.9130  151.7770 C   0  0  0  0  0  2  0  0  0  0  0  0
  161.1720  209.3510  154.4590 C   0  0  1  0  0  3  0  0  0  0  0  0
  160.9490  202.3000  149.5310 C   0  0  0  0  0  3  0  0  0  0  0  0
  161.0790  203.6820  149.7210 C   0  0  0  0  0  0  0  0  0  0  0  0
  161.4210  204.1120  147.3640 O   0  0  0  0  0  0  0  0  0  0  0  0
  161.4830  207.8770  150.3340 C   0  0  0  0  0  2  0  0  0  0  0  0
  161.6940  208.0030  147.6110 O   0  0  0  0  0  0  0  0  0  0  0  0
  159.9330  203.8720  144.3670 O   0  0  0  0  0  1  0  0  0  0  0  0
  161.6030  205.9590  148.8500 C   0  0  2  0  0  3  0  0  0  0  0  0
  160.6980  204.7430  146.3930 N   0  0  1  0  0  0  0  0  0  0  0  0
  161.2930  209.3100  155.9730 C   0  0  0  0  0  2  0  0  0  0  0  0
  161.9120  210.5650  156.4830 C   0  0  0  0  0  0  0  0  0  0  0  0
  161.2530  211.6370  156.4860 O   0  0  0  0  0  0  0  0  0  0  0  0
  163.2390  210.5470  156.9970 N   0  0  0  0  0  1  0  0  0  0  0  0
  1 20  1  0  0  0  0
  2 24  1  1  0  0  0
  2 12  1  0  0  0  0
  3 11  1  0  0  0  0
  4  3  2  0  0  0  0
  5 25  2  0  0  0  0
  6 18  1  6  0  0  0
  6 28  1  0  0  0  0
  6  5  1  0  0  0  0
  7 24  1  6  0  0  0
  7 19  1  0  0  0  0
  7 17  1  0  0  0  0
  9 26  1  6  0  0  0
  9 28  1  0  0  0  0
 10 20  1  0  0  0  0
 12  8  1  1  0  0  0
 13 12  1  0  0  0  0
 13 11  2  0  0  0  0
 14 23  1  6  0  0  0
 14 27  1  0  0  0  0
 14 22  1  0  0  0  0
 15  9  1  0  0  0  0
 15 18  1  0  0  0  0
 16  1  1  0  0  0  0
 17  8  1  6  0  0  0
 17 10  1  0  0  0  0
 19 16  1  0  0  0  0
 20 29  1  1  0  0  0
 21 22  2  0  0  0  0
 21  4  1  0  0  0  0
 22 13  1  0  0  0  0
 27  5  1  6  0  0  0
 27  2  1  0  0  0  0
 28 23  1  1  0  0  0
 29 30  1  0  0  0  0
 30 31  2  0  0  0  0
 30 32  1  0  0  0  0
M  END
>  <MODEL>
1

>  <REMARK>
 VINA RESULT:      -8.4      0.000      0.000
  Name = 
  2 active torsions:
  status: ('A' for Active; 'I' for Inactive)
    1  A    between atoms: C_20  and  C_29
    2  A    between atoms: C_29  and  C_30
                            x       y       z     vdW  Elec       q    Type
                         _______ _______ _______ _____ _____    ______ ____

>  <TORSDO>
F 2

$$$$
=
 OpenBabel11122412513D

 32 37  0  0  1  0  0  0  0  0999 V2000
  162.0720  202.7660  148.2590 O   0  0  0  0  0  0  0  0  0  0  0  0
  160.8920  206.6980  151.1890 N   0  0  1  0  0  0  0  0  0  0  0  0
  162.2980  210.6650  148.6130 C   0  0  0  0  0  3  0  0  0  0  0  0
  162.0870  211.4570  149.7440 C   0  0  0  0  0  3  0  0  0  0  0  0
  160.9900  206.8490  153.7210 C   0  0  0  0  0  0  0  0  0  0  0  0
  160.6570  207.8160  154.8400 C   0  0  1  0  0  3  0  0  0  0  0  0
  160.4590  204.5980  150.0260 C   0  0  1  0  0  3  0  0  0  0  0  0
  160.9860  206.5370  148.7370 C   0  0  0  0  0  2  0  0  0  0  0  0
  160.9310  210.0180  155.5700 C   0  0  2  0  0  3  0  0  0  0  0  0
  160.5340  204.5070  147.6110 C   0  0  0  0  0  2  0  0  0  0  0  0
  162.1190  209.2810  148.6850 C   0  0  0  0  0  3  0  0  0  0  0  0
  161.6160  207.1670  149.9840 C   0  0  1  0  0  3  0  0  0  0  0  0
  161.7110  208.6780  149.8840 C   0  0  0  0  0  0  0  0  0  0  0  0
  161.0650  208.8400  152.2990 C   0  0  2  0  0  3  0  0  0  0  0  0
  161.5450  209.1030  156.6180 C   0  0  0  0  0  2  0  0  0  0  0  0
  161.6580  202.3220  149.5400 C   0  0  0  0  0  2  0  0  0  0  0  0
  161.1380  205.0860  148.8120 N   0  0  2  0  0  0  0  0  0  0  0  0
  161.6650  207.7530  155.9600 C   0  0  0  0  0  2  0  0  0  0  0  0
  160.4500  203.0650  150.1610 C   0  0  0  0  0  2  0  0  0  0  0  0
  160.9400  203.0350  147.4630 C   0  0  1  0  0  3  0  0  0  0  0  0
  161.7090  210.8640  150.9510 C   0  0  0  0  0  3  0  0  0  0  0  0
  161.5530  209.4740  151.0350 C   0  0  0  0  0  0  0  0  0  0  0  0
  161.5210  209.4860  153.4550 O   0  0  0  0  0  0  0  0  0  0  0  0
  161.0940  205.2460  151.2550 C   0  0  0  0  0  2  0  0  0  0  0  0
  160.9600  205.6510  153.9550 O   0  0  0  0  0  0  0  0  0  0  0  0
  159.7900  210.6260  156.0920 O   0  0  0  0  0  1  0  0  0  0  0  0
  161.4610  207.3710  152.3710 C   0  0  2  0  0  3  0  0  0  0  0  0
  160.5720  209.2220  154.3990 N   0  0  1  0  0  0  0  0  0  0  0  0
  161.2380  202.7350  146.0040 C   0  0  0  0  0  2  0  0  0  0  0  0
  161.7560  203.9510  145.3160 C   0  0  0  0  0  0  0  0  0  0  0  0
  162.9510  204.3090  145.4840 O   0  0  0  0  0  0  0  0  0  0  0  0
  160.9100  204.6900  144.4420 N   0  0  0  0  0  1  0  0  0  0  0  0
  1 16  1  0  0  0  0
  2 24  1  1  0  0  0
  2 27  1  0  0  0  0
  3 11  2  0  0  0  0
  3  4  1  0  0  0  0
  4 21  2  0  0  0  0
  5 25  2  0  0  0  0
  5  6  1  0  0  0  0
  6 18  1  1  0  0  0
  7 19  1  1  0  0  0
  7 24  1  0  0  0  0
  8 17  1  0  0  0  0
  9 26  1  1  0  0  0
  9 15  1  0  0  0  0
 11 13  1  0  0  0  0
 12  8  1  6  0  0  0
 12  2  1  0  0  0  0
 13 12  1  0  0  0  0
 13 22  2  0  0  0  0
 14 22  1  6  0  0  0
 14 27  1  0  0  0  0
 14 23  1  0  0  0  0
 16 19  1  0  0  0  0
 17 10  1  6  0  0  0
 17  7  1  0  0  0  0
 18 15  1  0  0  0  0
 20 29  1  6  0  0  0
 20 10  1  0  0  0  0
 20  1  1  0  0  0  0
 21 22  1  0  0  0  0
 27  5  1  1  0  0  0
 28 23  1  6  0  0  0
 28  6  1  0  0  0  0
 28  9  1  0  0  0  0
 30 31  2  0  0  0  0
 30 29  1  0  0  0  0
 32 30  1  0  0  0  0
M  END
>  <MODEL>
2

>  <REMARK>
 VINA RESULT:      -7.5      1.818      8.719
  Name = 
  2 active torsions:
  status: ('A' for Active; 'I' for Inactive)
    1  A    between atoms: C_20  and  C_29
    2  A    between atoms: C_29  and  C_30
                            x       y       z     vdW  Elec       q    Type
                         _______ _______ _______ _____ _____    ______ ____

>  <TORSDO>
F 2

$$$$
=
 OpenBabel11122412513D

 32 37  0  0  1  0  0  0  0  0999 V2000
  162.0420  202.8280  150.1580 O   0  0  0  0  0  0  0  0  0  0  0  0
  160.8880  207.3680  152.0280 N   0  0  1  0  0  0  0  0  0  0  0  0
  162.2370  210.5650  148.5180 C   0  0  0  0  0  3  0  0  0  0  0  0
  162.0400  211.6140  149.4180 C   0  0  0  0  0  3  0  0  0  0  0  0
  161.0240  208.1490  154.4400 C   0  0  0  0  0  0  0  0  0  0  0  0
  160.7030  209.3650  155.2860 C   0  0  1  0  0  3  0  0  0  0  0  0
  160.4480  205.0440  151.4350 C   0  0  1  0  0  3  0  0  0  0  0  0
  160.9460  206.5980  149.6940 C   0  0  0  0  0  2  0  0  0  0  0  0
  160.9790  211.6800  155.4370 C   0  0  2  0  0  3  0  0  0  0  0  0
  160.4860  204.3500  149.1190 C   0  0  0  0  0  2  0  0  0  0  0  0
  162.0650  209.2430  148.9370 C   0  0  0  0  0  3  0  0  0  0  0  0
  161.5920  207.5210  150.7330 C   0  0  1  0  0  3  0  0  0  0  0  0
  161.6790  208.9590  150.2550 C   0  0  0  0  0  0  0  0  0  0  0  0
  161.0680  209.7200  152.5630 C   0  0  2  0  0  3  0  0  0  0  0  0
  161.6120  211.0570  156.6710 C   0  0  0  0  0  2  0  0  0  0  0  0
  161.6490  202.7190  151.5160 C   0  0  0  0  0  2  0  0  0  0  0  0
  161.1050  205.2120  150.1270 N   0  0  2  0  0  0  0  0  0  0  0  0
  161.7280  209.5850  156.3700 C   0  0  0  0  0  2  0  0  0  0  0  0
  160.4480  203.5930  151.9490 C   0  0  0  0  0  2  0  0  0  0  0  0
  160.8970  202.8890  149.3380 C   0  0  1  0  0  3  0  0  0  0  0  0
  161.6830  211.3420  150.7410 C   0  0  0  0  0  3  0  0  0  0  0  0
  161.5340  210.0180  151.1730 C   0  0  0  0  0  0  0  0  0  0  0  0
  161.5390  210.6350  153.5130 O   0  0  0  0  0  0  0  0  0  0  0  0
  161.0970  205.9790  152.4520 C   0  0  0  0  0  2  0  0  0  0  0  0
  161.0030  207.0470  154.9670 O   0  0  0  0  0  0  0  0  0  0  0  0
  159.8420  212.3980  155.8080 O   0  0  0  0  0  1  0  0  0  0  0  0
  161.4720  208.3160  152.9940 C   0  0  2  0  0  3  0  0  0  0  0  0
  160.6050  210.6160  154.5080 N   0  0  1  0  0  0  0  0  0  0  0  0
  161.1740  202.2330  147.9960 C   0  0  0  0  0  2  0  0  0  0  0  0
  161.2610  200.7540  148.1440 C   0  0  0  0  0  0  0  0  0  0  0  0
  161.0390  200.2180  149.2610 O   0  0  0  0  0  0  0  0  0  0  0  0
  161.5610  199.9410  147.0140 N   0  0  0  0  0  1  0  0  0  0  0  0
  1 16  1  0  0  0  0
  2 24  1  1  0  0  0
  2 27  1  0  0  0  0
  3 11  2  0  0  0  0
  3  4  1  0  0  0  0
  4 21  2  0  0  0  0
  5 25  2  0  0  0  0
  5  6  1  0  0  0  0
  6 18  1  1  0  0  0
  7 19  1  1  0  0  0
  7 24  1  0  0  0  0
  8 17  1  0  0  0  0
  9 26  1  1  0  0  0
  9 15  1  0  0  0  0
 10 20  1  0  0  0  0
 11 13  1  0  0  0  0
 12  8  1  6  0  0  0
 12  2  1  0  0  0  0
 13 12  1  0  0  0  0
 13 22  2  0  0  0  0
 14 22  1  6  0  0  0
 14 27  1  0  0  0  0
 14 23  1  0  0  0  0
 16 19  1  0  0  0  0
 17 10  1  6  0  0  0
 17  7  1  0  0  0  0
 18 15  1  0  0  0  0
 20 29  1  6  0  0  0
 20  1  1  0  0  0  0
 21 22  1  0  0  0  0
 27  5  1  1  0  0  0
 28 23  1  6  0  0  0
 28  6  1  0  0  0  0
 28  9  1  0  0  0  0
 29 30  1  0  0  0  0
 30 31  2  0  0  0  0
 32 30  1  0  0  0  0
M  END
>  <MODEL>
3

>  <REMARK>
 VINA RESULT:      -7.0      2.537      8.853
  Name = 
  2 active torsions:
  status: ('A' for Active; 'I' for Inactive)
    1  A    between atoms: C_20  and  C_29
    2  A    between atoms: C_29  and  C_30
                            x       y       z     vdW  Elec       q    Type
                         _______ _______ _______ _____ _____    ______ ____

>  <TORSDO>
F 2

$$$$
=
 OpenBabel11122412513D

 32 37  0  0  1  0  0  0  0  0999 V2000
  159.5460  209.0220  155.9420 O   0  0  0  0  0  0  0  0  0  0  0  0
  161.6420  207.8940  151.4950 N   0  0  1  0  0  0  0  0  0  0  0  0
  161.8590  212.1870  149.0710 C   0  0  0  0  0  3  0  0  0  0  0  0
  162.2020  211.4960  147.9070 C   0  0  0  0  0  3  0  0  0  0  0  0
  161.3490  205.7820  150.1170 C   0  0  0  0  0  0  0  0  0  0  0  0
  161.8660  205.1490  148.8400 C   0  0  1  0  0  3  0  0  0  0  0  0
  161.4830  207.8920  153.9290 C   0  0  1  0  0  3  0  0  0  0  0  0
  161.7430  209.9770  152.7970 C   0  0  0  0  0  2  0  0  0  0  0  0
  162.2490  205.5330  146.5690 C   0  0  2  0  0  3  0  0  0  0  0  0
  161.6210  209.9680  155.1590 C   0  0  0  0  0  2  0  0  0  0  0  0
  161.5720  211.4820  150.2430 C   0  0  0  0  0  3  0  0  0  0  0  0
  161.2310  209.3170  151.5120 C   0  0  1  0  0  3  0  0  0  0  0  0
  161.6420  210.0820  150.2670 C   0  0  0  0  0  0  0  0  0  0  0  0
  162.0640  207.8980  149.1140 C   0  0  2  0  0  3  0  0  0  0  0  0
  161.2710  204.3730  146.6830 C   0  0  0  0  0  2  0  0  0  0  0  0
  159.6660  207.6170  155.7940 C   0  0  0  0  0  2  0  0  0  0  0  0
  161.1230  209.3200  153.9460 N   0  0  2  0  0  0  0  0  0  0  0  0
  160.7860  204.3900  148.1090 C   0  0  0  0  0  2  0  0  0  0  0  0
  160.9810  207.1090  155.1560 C   0  0  0  0  0  2  0  0  0  0  0  0
  160.7770  209.5570  156.3720 C   0  0  1  0  0  3  0  0  0  0  0  0
  162.2470  210.0990  147.9110 C   0  0  0  0  0  3  0  0  0  0  0  0
  161.9350  209.3880  149.0770 C   0  0  0  0  0  0  0  0  0  0  0  0
  161.7300  207.2820  147.9010 O   0  0  0  0  0  0  0  0  0  0  0  0
  160.9750  207.2560  152.6370 C   0  0  0  0  0  2  0  0  0  0  0  0
  160.9660  205.0530  151.0190 O   0  0  0  0  0  0  0  0  0  0  0  0
  163.4680  205.0680  146.0770 O   0  0  0  0  0  1  0  0  0  0  0  0
  161.2080  207.2950  150.2200 C   0  0  2  0  0  3  0  0  0  0  0  0
  162.4450  206.1190  147.8910 N   0  0  1  0  0  0  0  0  0  0  0  0
  160.5430  210.7680  157.2610 C   0  0  0  0  0  2  0  0  0  0  0  0
  159.4110  211.5860  156.7430 C   0  0  0  0  0  0  0  0  0  0  0  0
  158.2660  211.4680  157.2490 O   0  0  0  0  0  0  0  0  0  0  0  0
  159.6320  212.5260  155.6980 N   0  0  0  0  0  1  0  0  0  0  0  0
  1 20  1  0  0  0  0
  2 12  1  0  0  0  0
  2 24  1  1  0  0  0
  3 11  1  0  0  0  0
  4 21  1  0  0  0  0
  4  3  2  0  0  0  0
  5 25  2  0  0  0  0
  6 18  1  6  0  0  0
  6  5  1  0  0  0  0
  7 24  1  6  0  0  0
  7 17  1  0  0  0  0
  7 19  1  0  0  0  0
  9 26  1  1  0  0  0
  9 15  1  0  0  0  0
  9 28  1  0  0  0  0
 10 20  1  0  0  0  0
 11 13  2  0  0  0  0
 12  8  1  1  0  0  0
 13 12  1  0  0  0  0
 14 23  1  6  0  0  0
 14 27  1  0  0  0  0
 15 18  1  0  0  0  0
 16  1  1  0  0  0  0
 17  8  1  6  0  0  0
 17 10  1  0  0  0  0
 19 16  1  0  0  0  0
 20 29  1  1  0  0  0
 21 22  2  0  0  0  0
 22 14  1  0  0  0  0
 22 13  1  0  0  0  0
 27  5  1  1  0  0  0
 27  2  1  0  0  0  0
 28 23  1  6  0  0  0
 28  6  1  0  0  0  0
 30 31  2  0  0  0  0
 30 29  1  0  0  0  0
 32 30  1  0  0  0  0
M  END
>  <MODEL>
4

>  <REMARK>
 VINA RESULT:      -6.4      2.223      4.662
  Name = 
  2 active torsions:
  status: ('A' for Active; 'I' for Inactive)
    1  A    between atoms: C_20  and  C_29
    2  A    between atoms: C_29  and  C_30
                            x       y       z     vdW  Elec       q    Type
                         _______ _______ _______ _____ _____    ______ ____

>  <TORSDO>
F 2

$$$$
=
 OpenBabel11122412513D

 32 37  0  0  1  0  0  0  0  0999 V2000
  160.8260  213.2590  146.1800 O   0  0  0  0  0  0  0  0  0  0  0  0
  161.0630  211.6520  150.9550 N   0  0  1  0  0  0  0  0  0  0  0  0
  162.4480  206.9260  150.6340 C   0  0  0  0  0  3  0  0  0  0  0  0
  162.1650  206.7660  151.9920 C   0  0  0  0  0  3  0  0  0  0  0  0
  159.5730  212.3080  152.9030 C   0  0  0  0  0  0  0  0  0  0  0  0
  159.4370  212.0640  154.3930 C   0  0  1  0  0  3  0  0  0  0  0  0
  161.5350  213.1730  149.1070 C   0  0  1  0  0  3  0  0  0  0  0  0
  162.3530  210.9350  148.9890 C   0  0  0  0  0  2  0  0  0  0  0  0
  159.3620  210.3990  156.0290 C   0  0  2  0  0  3  0  0  0  0  0  0
  162.8370  212.4220  147.2140 C   0  0  0  0  0  2  0  0  0  0  0  0
  162.1960  208.1490  150.0070 C   0  0  0  0  0  3  0  0  0  0  0  0
  161.3070  210.5210  150.0290 C   0  0  1  0  0  3  0  0  0  0  0  0
  161.6740  209.2280  150.7360 C   0  0  0  0  0  0  0  0  0  0  0  0
  160.8350  210.2100  152.8830 C   0  0  2  0  0  3  0  0  0  0  0  0
  158.0510  211.1670  156.0910 C   0  0  0  0  0  2  0  0  0  0  0  0
  160.3020  214.2410  147.0590 C   0  0  0  0  0  2  0  0  0  0  0  0
  161.8250  212.0470  148.2030 N   0  0  2  0  0  0  0  0  0  0  0  0
  157.9930  211.9760  154.8210 C   0  0  0  0  0  2  0  0  0  0  0  0
  161.0760  214.4510  148.3820 C   0  0  0  0  0  2  0  0  0  0  0  0
  162.2320  213.3510  146.1540 C   0  0  1  0  0  3  0  0  0  0  0  0
  161.6170  207.8250  152.7210 C   0  0  0  0  0  3  0  0  0  0  0  0
  161.3390  209.0450  152.0920 C   0  0  0  0  0  0  0  0  0  0  0  0
  159.9800  209.8400  153.9290 O   0  0  0  0  0  0  0  0  0  0  0  0
  160.5000  212.7370  150.1430 C   0  0  0  0  0  2  0  0  0  0  0  0
  159.1590  213.3600  152.4420 O   0  0  0  0  0  0  0  0  0  0  0  0
  160.1070  210.6530  157.1810 O   0  0  0  0  0  1  0  0  0  0  0  0
  160.1120  211.2130  151.9920 C   0  0  2  0  0  3  0  0  0  0  0  0
  160.1120  210.8350  154.8550 N   0  0  1  0  0  0  0  0  0  0  0  0
  162.7610  212.9660  144.7820 C   0  0  0  0  0  2  0  0  0  0  0  0
  161.7510  213.2670  143.7290 C   0  0  0  0  0  0  0  0  0  0  0  0
  161.5740  214.4530  143.3470 O   0  0  0  0  0  0  0  0  0  0  0  0
  161.0090  212.2100  143.1310 N   0  0  0  0  0  1  0  0  0  0  0  0
  1 16  1  0  0  0  0
  2 24  1  6  0  0  0
  2 27  1  0  0  0  0
  3  4  1  0  0  0  0
  4 21  2  0  0  0  0
  5  6  1  0  0  0  0
  6 18  1  6  0  0  0
  6 28  1  0  0  0  0
  7 19  1  6  0  0  0
  7 24  1  0  0  0  0
  9 15  1  0  0  0  0
  9 26  1  1  0  0  0
 11  3  2  0  0  0  0
 11 13  1  0  0  0  0
 12  8  1  6  0  0  0
 12 13  1  0  0  0  0
 12  2  1  0  0  0  0
 13 22  2  0  0  0  0
 14 22  1  6  0  0  0
 14 23  1  0  0  0  0
 16 19  1  0  0  0  0
 17 10  1  6  0  0  0
 17  8  1  0  0  0  0
 17  7  1  0  0  0  0
 18 15  1  0  0  0  0
 20 29  1  6  0  0  0
 20  1  1  0  0  0  0
 20 10  1  0  0  0  0
 22 21  1  0  0  0  0
 25  5  2  0  0  0  0
 27 14  1  0  0  0  0
 27  5  1  1  0  0  0
 28 23  1  6  0  0  0
 28  9  1  0  0  0  0
 30 29  1  0  0  0  0
 31 30  2  0  0  0  0
 32 30  1  0  0  0  0
M  END
>  <MODEL>
5

>  <REMARK>
 VINA RESULT:      -5.6      4.399      8.989
  Name = 
  2 active torsions:
  status: ('A' for Active; 'I' for Inactive)
    1  A    between atoms: C_20  and  C_29
    2  A    between atoms: C_29  and  C_30
                            x       y       z     vdW  Elec       q    Type
                         _______ _______ _______ _____ _____    ______ ____

>  <TORSDO>
F 2

$$$$
