=
 OpenBabel11122412353D

 30 35  0  0  1  0  0  0  0  0999 V2000
  161.0940  204.8550  148.6150 C   0  0  1  0  0  3  0  0  0  0  0  0
  161.0900  202.3720  148.0230 C   0  0  0  0  0  0  0  0  0  0  0  0
  161.1590  203.8930  152.6110 N   0  0  0  0  0  0  0  0  0  0  0  0
  161.4620  205.8230  149.7710 C   0  0  1  0  0  3  0  0  0  0  0  0
  161.9610  205.0750  147.5270 O   0  0  0  0  0  0  0  0  0  0  0  0
  161.6820  208.7030  147.5320 O   0  0  0  0  0  1  0  0  0  0  0  0
  160.6450  208.5460  151.3270 C   0  0  1  0  0  3  0  0  0  0  0  0
  161.9980  207.4470  148.0580 C   0  0  2  0  0  3  0  0  0  0  0  0
  160.5130  207.5710  152.5010 C   0  0  2  0  0  3  0  0  0  0  0  0
  161.2030  205.1960  153.1570 C   0  0  0  0  0  0  0  0  0  0  0  0
  161.6990  206.3630  147.0110 C   0  0  2  0  0  3  0  0  0  0  0  0
  161.2560  207.2130  149.3100 N   0  0  2  0  0  0  0  0  0  0  0  0
  161.0400  201.0250  148.3970 C   0  0  0  0  0  3  0  0  0  0  0  0
  161.2940  208.2100  153.6310 C   0  0  0  0  0  2  0  0  0  0  0  0
  160.9330  209.9090  151.9400 C   0  0  0  0  0  2  0  0  0  0  0  0
  161.1550  202.6790  146.7040 F   0  0  0  0  0  0  0  0  0  0  0  0
  160.8320  204.0650  151.3720 C   0  0  0  0  0  0  0  0  0  0  0  0
  160.9430  200.6690  149.7430 C   0  0  0  0  0  3  0  0  0  0  0  0
  161.0660  203.3830  149.0060 C   0  0  0  0  0  0  0  0  0  0  0  0
  160.5900  205.4940  150.9890 C   0  0  1  0  0  3  0  0  0  0  0  0
  161.4130  205.4150  154.3790 O   0  0  0  0  0  0  0  0  0  0  0  0
  160.9880  206.2210  152.1900 N   0  0  0  0  0  0  0  0  0  0  0  0
  161.1160  209.6980  153.4330 C   0  0  0  0  0  2  0  0  0  0  0  0
  163.1240  207.9280  150.8650 C   0  0  0  0  0  1  0  0  0  0  0  0
  160.8770  201.6590  150.7230 C   0  0  0  0  0  3  0  0  0  0  0  0
  160.9140  203.0100  150.3590 C   0  0  0  0  0  0  0  0  0  0  0  0
  161.7280  208.2050  150.2920 C   0  0  2  0  0  3  0  0  0  0  0  0
  160.3860  206.4600  146.5260 O   0  0  0  0  0  0  0  0  0  0  0  0
  160.4480  204.9380  144.7030 C   0  0  0  0  0  1  0  0  0  0  0  0
  160.5110  206.3860  145.1390 C   0  0  0  0  0  2  0  0  0  0  0  0
  1  5  1  6  0  0  0
  1 19  1  0  0  0  0
  1  4  1  0  0  0  0
  2 13  2  0  0  0  0
  2 19  1  0  0  0  0
  3 10  1  0  0  0  0
  4 20  1  0  0  0  0
  6  8  1  0  0  0  0
  7 15  1  0  0  0  0
  7  9  1  0  0  0  0
  8 12  1  0  0  0  0
  9 14  1  0  0  0  0
 10 21  2  0  0  0  0
 11  5  1  0  0  0  0
 11  8  1  0  0  0  0
 12  4  1  0  0  0  0
 12 27  1  0  0  0  0
 13 18  1  0  0  0  0
 15 23  1  0  0  0  0
 16  2  1  0  0  0  0
 17  3  2  0  0  0  0
 18 25  2  0  0  0  0
 19 26  2  0  0  0  0
 20 17  1  0  0  0  0
 20 22  1  0  0  0  0
 22  9  1  0  0  0  0
 22 10  1  0  0  0  0
 23 14  1  0  0  0  0
 26 25  1  0  0  0  0
 26 17  1  0  0  0  0
 27 24  1  0  0  0  0
 27  7  1  0  0  0  0
 28 11  1  0  0  0  0
 29 30  1  0  0  0  0
 30 28  1  0  0  0  0
M  END
>  <MODEL>
1

>  <REMARK>
 VINA RESULT:      -8.4      0.000      0.000
  Name = 
  2 active torsions:
  status: ('A' for Active; 'I' for Inactive)
    1  A    between atoms: C_11  and  O_28
    2  A    between atoms: O_28  and  C_30
                            x       y       z     vdW  Elec       q    Type
                         _______ _______ _______ _____ _____    ______ ____

>  <TORSDO>
F 2

$$$$
=
 OpenBabel11122412353D

 30 35  0  0  1  0  0  0  0  0999 V2000
  161.2990  206.2130  149.8990 C   0  0  1  0  0  3  0  0  0  0  0  0
  161.4610  203.6770  149.6570 C   0  0  0  0  0  0  0  0  0  0  0  0
  161.0770  205.8010  153.9830 N   0  0  0  0  0  0  0  0  0  0  0  0
  161.5230  207.3470  150.9350 C   0  0  1  0  0  3  0  0  0  0  0  0
  162.2420  206.3350  148.8600 O   0  0  0  0  0  0  0  0  0  0  0  0
  161.7920  209.9090  148.3430 O   0  0  0  0  0  1  0  0  0  0  0  0
  160.4520  210.2020  152.0340 C   0  0  1  0  0  3  0  0  0  0  0  0
  162.1220  208.7550  149.0590 C   0  0  2  0  0  3  0  0  0  0  0  0
  160.2690  209.3870  153.3170 C   0  0  2  0  0  3  0  0  0  0  0  0
  161.0140  207.1660  154.3450 C   0  0  0  0  0  0  0  0  0  0  0  0
  161.9630  207.5250  148.1530 C   0  0  2  0  0  3  0  0  0  0  0  0
  161.2910  208.6480  150.2720 N   0  0  2  0  0  0  0  0  0  0  0  0
  161.4450  202.3920  150.2090 C   0  0  0  0  0  3  0  0  0  0  0  0
  160.9220  210.2160  154.4040 C   0  0  0  0  0  2  0  0  0  0  0  0
  160.6230  211.6490  152.4720 C   0  0  0  0  0  2  0  0  0  0  0  0
  161.6210  203.8080  148.3170 F   0  0  0  0  0  0  0  0  0  0  0  0
  160.8460  205.7860  152.7110 C   0  0  0  0  0  0  0  0  0  0  0  0
  161.2530  202.2150  151.5800 C   0  0  0  0  0  3  0  0  0  0  0  0
  161.3080  204.8080  150.4870 C   0  0  0  0  0  0  0  0  0  0  0  0
  160.5690  207.1340  152.1170 C   0  0  1  0  0  3  0  0  0  0  0  0
  161.1110  207.5580  155.5380 O   0  0  0  0  0  0  0  0  0  0  0  0
  160.8320  208.0380  153.2320 N   0  0  0  0  0  0  0  0  0  0  0  0
  160.6920  211.6510  153.9890 C   0  0  0  0  0  2  0  0  0  0  0  0
  162.9870  209.6730  151.8500 C   0  0  0  0  0  1  0  0  0  0  0  0
  161.0580  203.3210  152.4070 C   0  0  0  0  0  3  0  0  0  0  0  0
  161.0620  204.6120  151.8630 C   0  0  0  0  0  0  0  0  0  0  0  0
  161.6320  209.7890  151.1410 C   0  0  2  0  0  3  0  0  0  0  0  0
  160.6920  207.4800  147.5610 O   0  0  0  0  0  0  0  0  0  0  0  0
  160.4000  206.3670  145.4830 C   0  0  0  0  0  1  0  0  0  0  0  0
  160.6160  206.2170  146.9740 C   0  0  0  0  0  2  0  0  0  0  0  0
  1  5  1  6  0  0  0
  1 19  1  0  0  0  0
  1  4  1  0  0  0  0
  2 13  2  0  0  0  0
  2 19  1  0  0  0  0
  3 10  1  0  0  0  0
  4 20  1  0  0  0  0
  6  8  1  0  0  0  0
  7 15  1  0  0  0  0
  7  9  1  0  0  0  0
  8 12  1  0  0  0  0
  9 14  1  0  0  0  0
 10 21  2  0  0  0  0
 11  5  1  0  0  0  0
 11  8  1  0  0  0  0
 12  4  1  0  0  0  0
 12 27  1  0  0  0  0
 13 18  1  0  0  0  0
 15 23  1  0  0  0  0
 16  2  1  0  0  0  0
 17  3  2  0  0  0  0
 18 25  2  0  0  0  0
 19 26  2  0  0  0  0
 20 17  1  0  0  0  0
 20 22  1  0  0  0  0
 22  9  1  0  0  0  0
 22 10  1  0  0  0  0
 23 14  1  0  0  0  0
 26 25  1  0  0  0  0
 26 17  1  0  0  0  0
 27 24  1  0  0  0  0
 27  7  1  0  0  0  0
 28 11  1  0  0  0  0
 29 30  1  0  0  0  0
 30 28  1  0  0  0  0
M  END
>  <MODEL>
2

>  <REMARK>
 VINA RESULT:      -7.2      1.466      2.009
  Name = 
  2 active torsions:
  status: ('A' for Active; 'I' for Inactive)
    1  A    between atoms: C_11  and  O_28
    2  A    between atoms: O_28  and  C_30
                            x       y       z     vdW  Elec       q    Type
                         _______ _______ _______ _____ _____    ______ ____

>  <TORSDO>
F 2

$$$$
=
 OpenBabel11122412353D

 30 35  0  0  1  0  0  0  0  0999 V2000
  161.3380  207.9510  151.5100 C   0  0  1  0  0  3  0  0  0  0  0  0
  161.8390  210.3800  150.9080 C   0  0  0  0  0  0  0  0  0  0  0  0
  161.9530  206.8630  147.5930 N   0  0  0  0  0  0  0  0  0  0  0  0
  161.5760  206.5040  151.0010 C   0  0  1  0  0  3  0  0  0  0  0  0
  162.0390  208.1440  152.7160 O   0  0  0  0  0  0  0  0  0  0  0  0
  160.9570  205.0500  154.2960 O   0  0  0  0  0  1  0  0  0  0  0  0
  160.3050  203.5350  150.7200 C   0  0  1  0  0  3  0  0  0  0  0  0
  161.5890  205.8340  153.3270 C   0  0  2  0  0  3  0  0  0  0  0  0
  160.4940  203.8380  149.2310 C   0  0  2  0  0  3  0  0  0  0  0  0
  161.7500  205.4690  147.7110 C   0  0  0  0  0  0  0  0  0  0  0  0
  161.4540  207.3180  153.7010 C   0  0  2  0  0  3  0  0  0  0  0  0
  161.0270  205.5550  151.9940 N   0  0  2  0  0  0  0  0  0  0  0  0
  162.1230  211.3730  149.9650 C   0  0  0  0  0  3  0  0  0  0  0  0
  161.2050  202.6230  148.6710 C   0  0  0  0  0  2  0  0  0  0  0  0
  160.3310  202.0190  150.8500 C   0  0  0  0  0  2  0  0  0  0  0  0
  161.7220  210.7350  152.2110 F   0  0  0  0  0  0  0  0  0  0  0  0
  161.4920  207.3570  148.6960 C   0  0  0  0  0  0  0  0  0  0  0  0
  162.2220  211.0530  148.6100 C   0  0  0  0  0  3  0  0  0  0  0  0
  161.6730  209.0400  150.4990 C   0  0  0  0  0  0  0  0  0  0  0  0
  160.9050  206.3440  149.6310 C   0  0  1  0  0  3  0  0  0  0  0  0
  162.0070  204.6620  146.7790 O   0  0  0  0  0  0  0  0  0  0  0  0
  161.2310  205.0790  148.9800 N   0  0  0  0  0  0  0  0  0  0  0  0
  160.6820  201.4600  149.4830 C   0  0  0  0  0  2  0  0  0  0  0  0
  162.8120  203.9000  151.2920 C   0  0  0  0  0  1  0  0  0  0  0  0
  162.0190  209.7400  148.1870 C   0  0  0  0  0  3  0  0  0  0  0  0
  161.7220  208.7400  149.1210 C   0  0  0  0  0  0  0  0  0  0  0  0
  161.3450  204.1540  151.6660 C   0  0  2  0  0  3  0  0  0  0  0  0
  160.1160  207.6730  153.9320 O   0  0  0  0  0  0  0  0  0  0  0  0
  159.7720  207.5000  156.2760 C   0  0  0  0  0  1  0  0  0  0  0  0
  160.1410  208.4050  155.1200 C   0  0  0  0  0  2  0  0  0  0  0  0
  1 19  1  6  0  0  0
  1  5  1  0  0  0  0
  2 16  1  0  0  0  0
  3 10  1  0  0  0  0
  3 17  2  0  0  0  0
  4  1  1  0  0  0  0
  4 12  1  0  0  0  0
  5 11  1  0  0  0  0
  7 15  1  0  0  0  0
  7 27  1  0  0  0  0
  8 11  1  0  0  0  0
  8  6  1  0  0  0  0
  9  7  1  0  0  0  0
 10 22  1  0  0  0  0
 11 28  1  0  0  0  0
 12  8  1  0  0  0  0
 13  2  2  0  0  0  0
 14  9  1  0  0  0  0
 14 23  1  0  0  0  0
 17 26  1  0  0  0  0
 17 20  1  0  0  0  0
 18 13  1  0  0  0  0
 19  2  1  0  0  0  0
 20  4  1  0  0  0  0
 21 10  2  0  0  0  0
 22  9  1  0  0  0  0
 22 20  1  0  0  0  0
 23 15  1  0  0  0  0
 24 27  1  0  0  0  0
 25 18  2  0  0  0  0
 25 26  1  0  0  0  0
 26 19  2  0  0  0  0
 27 12  1  0  0  0  0
 28 30  1  0  0  0  0
 30 29  1  0  0  0  0
M  END
>  <MODEL>
3

>  <REMARK>
 VINA RESULT:      -6.1      2.442      7.025
  Name = 
  2 active torsions:
  status: ('A' for Active; 'I' for Inactive)
    1  A    between atoms: C_11  and  O_28
    2  A    between atoms: O_28  and  C_30
                            x       y       z     vdW  Elec       q    Type
                         _______ _______ _______ _____ _____    ______ ____

>  <TORSDO>
F 2

$$$$
=
 OpenBabel11122412353D

 30 35  0  0  1  0  0  0  0  0999 V2000
  161.5470  208.1110  149.0370 C   0  0  1  0  0  3  0  0  0  0  0  0
  161.7820  206.1180  147.4600 C   0  0  0  0  0  0  0  0  0  0  0  0
  161.2030  205.5370  152.2240 N   0  0  0  0  0  0  0  0  0  0  0  0
  161.7080  208.4980  150.5320 C   0  0  1  0  0  3  0  0  0  0  0  0
  162.5190  208.7840  148.2720 O   0  0  0  0  0  0  0  0  0  0  0  0
  161.9950  212.0600  149.7670 O   0  0  0  0  0  1  0  0  0  0  0  0
  160.5280  210.2880  152.9630 C   0  0  1  0  0  3  0  0  0  0  0  0
  162.3310  210.7030  149.7520 C   0  0  2  0  0  3  0  0  0  0  0  0
  160.3250  208.9040  153.5870 C   0  0  2  0  0  3  0  0  0  0  0  0
  161.0930  206.4840  153.2680 C   0  0  0  0  0  0  0  0  0  0  0  0
  162.2340  210.1660  148.3160 C   0  0  2  0  0  3  0  0  0  0  0  0
  161.4640  209.9490  150.6750 N   0  0  2  0  0  0  0  0  0  0  0  0
  161.7800  204.7400  147.2210 C   0  0  0  0  0  3  0  0  0  0  0  0
  160.9210  209.0080  154.9750 C   0  0  0  0  0  2  0  0  0  0  0  0
  160.6480  211.2620  154.1250 C   0  0  0  0  0  2  0  0  0  0  0  0
  161.9810  206.9590  146.4150 F   0  0  0  0  0  0  0  0  0  0  0  0
  161.0130  206.2180  151.1410 C   0  0  0  0  0  0  0  0  0  0  0  0
  161.5480  203.8430  148.2650 C   0  0  0  0  0  3  0  0  0  0  0  0
  161.5720  206.6120  148.7640 C   0  0  0  0  0  0  0  0  0  0  0  0
  160.7220  207.6710  151.3660 C   0  0  1  0  0  3  0  0  0  0  0  0
  161.1410  206.1630  154.4850 O   0  0  0  0  0  0  0  0  0  0  0  0
  160.9250  207.8210  152.8040 N   0  0  0  0  0  0  0  0  0  0  0  0
  160.6670  210.4370  155.4000 C   0  0  0  0  0  2  0  0  0  0  0  0
  163.0810  209.9540  152.6260 C   0  0  0  0  0  1  0  0  0  0  0  0
  161.2990  204.3190  149.5520 C   0  0  0  0  0  3  0  0  0  0  0  0
  161.2870  205.6970  149.8000 C   0  0  0  0  0  0  0  0  0  0  0  0
  161.7470  210.4330  152.0380 C   0  0  2  0  0  3  0  0  0  0  0  0
  160.9830  210.4450  147.7430 O   0  0  0  0  0  0  0  0  0  0  0  0
  159.7800  212.2410  146.7580 C   0  0  0  0  0  1  0  0  0  0  0  0
  161.1400  211.6910  147.1360 C   0  0  0  0  0  2  0  0  0  0  0  0
  1  5  1  6  0  0  0
  1  4  1  0  0  0  0
  2 19  1  0  0  0  0
  3 10  1  0  0  0  0
  4 12  1  0  0  0  0
  4 20  1  0  0  0  0
  5 11  1  0  0  0  0
  7  9  1  0  0  0  0
  7 15  1  0  0  0  0
  8  6  1  0  0  0  0
  8 12  1  0  0  0  0
  9 14  1  0  0  0  0
 10 21  2  0  0  0  0
 11  8  1  0  0  0  0
 12 27  1  0  0  0  0
 13  2  2  0  0  0  0
 13 18  1  0  0  0  0
 14 23  1  0  0  0  0
 15 23  1  0  0  0  0
 16  2  1  0  0  0  0
 17 20  1  0  0  0  0
 17  3  2  0  0  0  0
 18 25  2  0  0  0  0
 19  1  1  0  0  0  0
 19 26  2  0  0  0  0
 20 22  1  0  0  0  0
 22 10  1  0  0  0  0
 22  9  1  0  0  0  0
 25 26  1  0  0  0  0
 26 17  1  0  0  0  0
 27 24  1  0  0  0  0
 27  7  1  0  0  0  0
 28 11  1  0  0  0  0
 29 30  1  0  0  0  0
 30 28  1  0  0  0  0
M  END
>  <MODEL>
4

>  <REMARK>
 VINA RESULT:      -5.8      2.211      3.378
  Name = 
  2 active torsions:
  status: ('A' for Active; 'I' for Inactive)
    1  A    between atoms: C_11  and  O_28
    2  A    between atoms: O_28  and  C_30
                            x       y       z     vdW  Elec       q    Type
                         _______ _______ _______ _____ _____    ______ ____

>  <TORSDO>
F 2

$$$$
