=
 OpenBabel11122413413D

 37 43  0  0  1  0  0  0  0  0999 V2000
  162.0550  209.9250  155.1880 C   0  0  0  0  0  2  0  0  0  0  0  0
  161.9270  206.3830  151.4360 C   0  0  0  0  0  0  0  0  0  0  0  0
  161.5090  210.6950  151.3450 C   0  0  1  0  0  3  0  0  0  0  0  0
  162.0200  210.3680  156.6560 C   0  0  2  0  0  3  0  0  0  0  0  0
  158.2010  211.1920  153.2040 C   0  0  0  0  0  2  0  0  0  0  0  0
  161.8500  208.5080  150.0690 C   0  0  1  0  0  3  0  0  0  0  0  0
  160.5550  210.8040  152.5340 C   0  0  1  0  0  3  0  0  0  0  0  0
  160.0970  212.0720  156.5090 C   0  0  2  0  0  3  0  0  0  0  0  0
  162.0700  209.2760  151.3830 C   0  0  2  0  0  3  0  0  0  0  0  0
  159.2270  211.3520  152.1500 N   0  0  2  0  0  0  0  0  0  0  0  0
  162.4140  209.2970  148.8900 C   0  0  0  0  0  2  0  0  0  0  0  0
  161.5920  211.8380  156.7580 C   0  0  0  0  0  2  0  0  0  0  0  0
  161.5590  208.5730  152.5770 N   0  0  2  0  0  0  0  0  0  0  0  0
  163.1030  205.9480  152.2890 C   0  0  0  0  0  1  0  0  0  0  0  0
  160.2940  212.3230  149.8260 O   0  0  0  0  0  0  0  0  0  0  0  0
  161.8290  210.7220  148.8150 C   0  0  0  0  0  2  0  0  0  0  0  0
  160.9770  207.2560  152.2770 C   0  0  0  0  0  2  0  0  0  0  0  0
  159.6970  211.4250  155.1880 C   0  0  2  0  0  3  0  0  0  0  0  0
  158.4710  211.9860  154.4930 C   0  0  0  0  0  2  0  0  0  0  0  0
  160.8700  211.0330  149.9690 C   0  0  1  0  0  3  0  0  0  0  0  0
  160.5050  209.4000  153.1620 C   0  0  1  0  0  3  0  0  0  0  0  0
  162.4560  207.1180  150.1930 C   0  0  0  0  0  2  0  0  0  0  0  0
  159.3550  212.7790  151.7820 C   0  0  1  0  0  3  0  0  0  0  0  0
  161.1750  205.1490  150.9870 C   0  0  0  0  0  1  0  0  0  0  0  0
  159.5780  210.0380  155.3520 O   0  0  0  0  0  0  0  0  0  0  0  0
  159.8610  213.4470  156.4740 O   0  0  0  0  0  1  0  0  0  0  0  0
  160.6730  209.4360  154.6970 C   0  0  2  0  0  3  0  0  0  0  0  0
  160.4730  213.0180  150.9440 O   0  0  0  0  0  0  0  0  0  0  0  0
  157.0780  213.7930  152.0550 C   0  0  0  0  0  3  0  0  0  0  0  0
  158.0890  213.3510  151.1950 C   0  0  0  0  0  0  0  0  0  0  0  0
  157.9210  213.4710  149.8080 C   0  0  0  0  0  3  0  0  0  0  0  0
  156.5390  214.1610  147.5560 Cl  0  0  0  0  0  0  0  0  0  0  0  0
  155.7350  214.4530  150.1510 C   0  0  0  0  0  3  0  0  0  0  0  0
  156.7450  214.0180  149.2880 C   0  0  0  0  0  0  0  0  0  0  0  0
  155.9020  214.3400  151.5350 C   0  0  0  0  0  3  0  0  0  0  0  0
  164.0940  211.4310  157.1700 O   0  0  0  0  0  1  0  0  0  0  0  0
  163.4030  210.2220  157.2610 C   0  0  0  0  0  2  0  0  0  0  0  0
  1  4  1  0  0  0  0
  2 17  1  0  0  0  0
  2 14  1  0  0  0  0
  3  9  1  0  0  0  0
  3  7  1  0  0  0  0
  4 12  1  0  0  0  0
  4 37  1  0  0  0  0
  5 19  1  0  0  0  0
  6 22  1  0  0  0  0
  6  9  1  0  0  0  0
  7 21  1  0  0  0  0
  8 12  1  0  0  0  0
  9 13  1  0  0  0  0
 10  7  1  0  0  0  0
 10  5  1  0  0  0  0
 11  6  1  0  0  0  0
 13 21  1  0  0  0  0
 15 20  1  0  0  0  0
 15 28  1  0  0  0  0
 16 11  1  0  0  0  0
 16 20  1  0  0  0  0
 17 13  1  0  0  0  0
 18 25  1  0  0  0  0
 18  8  1  0  0  0  0
 19 18  1  0  0  0  0
 20  3  1  0  0  0  0
 21 27  1  0  0  0  0
 22  2  1  0  0  0  0
 23 10  1  0  0  0  0
 24  2  1  0  0  0  0
 26  8  1  0  0  0  0
 27  1  1  0  0  0  0
 27 25  1  0  0  0  0
 28 23  1  0  0  0  0
 30 23  1  0  0  0  0
 30 29  2  0  0  0  0
 31 30  1  0  0  0  0
 32 34  1  0  0  0  0
 33 35  2  0  0  0  0
 34 31  2  0  0  0  0
 34 33  1  0  0  0  0
 35 29  1  0  0  0  0
 36 37  1  0  0  0  0
M  END
>  <MODEL>
1

>  <REMARK>
 VINA RESULT:      -5.5      0.000      0.000
  Name = 
  2 active torsions:
  status: ('A' for Active; 'I' for Inactive)
    1  A    between atoms: C_4  and  C_37
    2  A    between atoms: C_23  and  C_30
                            x       y       z     vdW  Elec       q    Type
                         _______ _______ _______ _____ _____    ______ ____

>  <TORSDO>
F 2

$$$$
=
 OpenBabel11122413413D

 37 43  0  0  1  0  0  0  0  0999 V2000
  160.8480  207.1280  152.1070 C   0  0  0  0  0  2  0  0  0  0  0  0
  162.1030  210.3430  155.9440 C   0  0  0  0  0  0  0  0  0  0  0  0
  159.9670  210.9840  152.2280 C   0  0  1  0  0  3  0  0  0  0  0  0
  160.9590  205.8090  151.3320 C   0  0  2  0  0  3  0  0  0  0  0  0
  162.7260  210.4120  149.6400 C   0  0  0  0  0  2  0  0  0  0  0  0
  160.6470  211.8530  154.5340 C   0  0  1  0  0  3  0  0  0  0  0  0
  160.9320  210.2050  151.3350 C   0  0  1  0  0  3  0  0  0  0  0  0
  161.4810  206.7610  149.0000 C   0  0  2  0  0  3  0  0  0  0  0  0
  160.3370  210.6220  153.6650 C   0  0  2  0  0  3  0  0  0  0  0  0
  161.5840  211.0670  150.3140 N   0  0  2  0  0  0  0  0  0  0  0  0
  159.4840  212.8410  154.4910 C   0  0  0  0  0  2  0  0  0  0  0  0
  160.4870  205.9990  149.8850 C   0  0  0  0  0  2  0  0  0  0  0  0
  161.4120  209.6100  153.6590 N   0  0  2  0  0  0  0  0  0  0  0  0
  161.6140  209.1050  156.6700 C   0  0  0  0  0  1  0  0  0  0  0  0
  159.6590  212.9740  150.6860 O   0  0  0  0  0  0  0  0  0  0  0  0
  159.1220  213.2460  153.0470 C   0  0  0  0  0  2  0  0  0  0  0  0
  162.5520  209.9610  154.5210 C   0  0  0  0  0  2  0  0  0  0  0  0
  161.8620  208.0710  149.6790 C   0  0  2  0  0  3  0  0  0  0  0  0
  162.3570  209.1900  148.7820 C   0  0  0  0  0  2  0  0  0  0  0  0
  159.9670  212.5210  151.9950 C   0  0  1  0  0  3  0  0  0  0  0  0
  161.9110  209.5000  152.2900 C   0  0  1  0  0  3  0  0  0  0  0  0
  160.9840  211.3990  155.9450 C   0  0  0  0  0  2  0  0  0  0  0  0
  160.5890  211.5050  149.3100 C   0  0  1  0  0  3  0  0  0  0  0  0
  163.2960  210.9000  156.6910 C   0  0  0  0  0  1  0  0  0  0  0  0
  162.7820  207.8240  150.7090 O   0  0  0  0  0  0  0  0  0  0  0  0
  160.8800  207.0060  147.7640 O   0  0  0  0  0  1  0  0  0  0  0  0
  162.1070  208.0090  151.9340 C   0  0  2  0  0  3  0  0  0  0  0  0
  159.3780  211.9340  149.9090 O   0  0  0  0  0  0  0  0  0  0  0  0
  162.0350  213.4950  148.8300 C   0  0  0  0  0  3  0  0  0  0  0  0
  161.1330  212.5370  148.3560 C   0  0  0  0  0  0  0  0  0  0  0  0
  160.7710  212.5360  147.0000 C   0  0  0  0  0  3  0  0  0  0  0  0
  160.8430  213.4910  144.4430 Cl  0  0  0  0  0  0  0  0  0  0  0  0
  162.1970  214.4530  146.6120 C   0  0  0  0  0  3  0  0  0  0  0  0
  161.3010  213.4940  146.1320 C   0  0  0  0  0  0  0  0  0  0  0  0
  162.5650  214.4530  147.9610 C   0  0  0  0  0  3  0  0  0  0  0  0
  160.8570  203.6550  152.3550 O   0  0  0  0  0  1  0  0  0  0  0  0
  160.0850  204.7600  151.9940 C   0  0  0  0  0  2  0  0  0  0  0  0
  2 22  1  0  0  0  0
  2 14  1  0  0  0  0
  2 24  1  0  0  0  0
  3  9  1  0  0  0  0
  4 37  1  0  0  0  0
  4  1  1  0  0  0  0
  5 10  1  0  0  0  0
  6 22  1  0  0  0  0
  7  3  1  0  0  0  0
  7 21  1  0  0  0  0
  8 18  1  0  0  0  0
  8 12  1  0  0  0  0
  9  6  1  0  0  0  0
 10  7  1  0  0  0  0
 11  6  1  0  0  0  0
 12  4  1  0  0  0  0
 13  9  1  0  0  0  0
 13 17  1  0  0  0  0
 15 20  1  0  0  0  0
 16 11  1  0  0  0  0
 17  2  1  0  0  0  0
 18 25  1  0  0  0  0
 19  5  1  0  0  0  0
 19 18  1  0  0  0  0
 20  3  1  0  0  0  0
 20 16  1  0  0  0  0
 21 13  1  0  0  0  0
 23 28  1  0  0  0  0
 23 10  1  0  0  0  0
 25 27  1  0  0  0  0
 26  8  1  0  0  0  0
 27  1  1  0  0  0  0
 27 21  1  0  0  0  0
 28 15  1  0  0  0  0
 30 29  1  0  0  0  0
 30 23  1  0  0  0  0
 31 30  2  0  0  0  0
 32 34  1  0  0  0  0
 33 35  1  0  0  0  0
 34 33  2  0  0  0  0
 34 31  1  0  0  0  0
 35 29  2  0  0  0  0
 37 36  1  0  0  0  0
M  END
>  <MODEL>
2

>  <REMARK>
 VINA RESULT:      -4.1      2.690      5.967
  Name = 
  2 active torsions:
  status: ('A' for Active; 'I' for Inactive)
    1  A    between atoms: C_4  and  C_37
    2  A    between atoms: C_23  and  C_30
                            x       y       z     vdW  Elec       q    Type
                         _______ _______ _______ _____ _____    ______ ____

>  <TORSDO>
F 2

$$$$
=
 OpenBabel11122413413D

 37 43  0  0  1  0  0  0  0  0999 V2000
  157.6490  213.6790  150.6120 C   0  0  0  0  0  2  0  0  0  0  0  0
  162.1650  213.6730  148.1140 C   0  0  0  0  0  0  0  0  0  0  0  0
  160.3310  210.7730  150.7600 C   0  0  1  0  0  3  0  0  0  0  0  0
  156.3820  214.3530  151.1520 C   0  0  2  0  0  3  0  0  0  0  0  0
  160.3360  212.6520  154.0930 C   0  0  0  0  0  2  0  0  0  0  0  0
  162.1600  211.3320  149.0650 C   0  0  1  0  0  3  0  0  0  0  0  0
  159.8750  211.7700  151.8240 C   0  0  1  0  0  3  0  0  0  0  0  0
  156.5880  213.6620  153.6220 C   0  0  2  0  0  3  0  0  0  0  0  0
  160.7240  211.6060  149.5430 C   0  0  2  0  0  3  0  0  0  0  0  0
  160.5290  211.5380  153.1390 N   0  0  2  0  0  0  0  0  0  0  0  0
  162.3600  209.8400  148.8070 C   0  0  0  0  0  2  0  0  0  0  0  0
  155.7980  213.5390  152.3140 C   0  0  0  0  0  2  0  0  0  0  0  0
  160.4460  213.0320  149.8070 N   0  0  2  0  0  0  0  0  0  0  0  0
  161.1890  214.1840  147.0720 C   0  0  0  0  0  1  0  0  0  0  0  0
  161.2290  209.0140  152.3510 O   0  0  0  0  0  0  0  0  0  0  0  0
  162.0030  208.9870  150.0400 C   0  0  0  0  0  2  0  0  0  0  0  0
  161.5870  213.9150  149.5210 C   0  0  0  0  0  2  0  0  0  0  0  0
  158.0570  213.3540  153.3580 C   0  0  2  0  0  3  0  0  0  0  0  0
  158.8810  212.8770  154.5380 C   0  0  0  0  0  2  0  0  0  0  0  0
  161.4760  209.8230  151.2110 C   0  0  1  0  0  3  0  0  0  0  0  0
  160.1270  213.1660  151.2270 C   0  0  1  0  0  3  0  0  0  0  0  0
  162.4550  212.1880  147.8440 C   0  0  0  0  0  2  0  0  0  0  0  0
  160.0390  210.2740  153.7330 C   0  0  1  0  0  3  0  0  0  0  0  0
  163.4570  214.4520  147.9850 C   0  0  0  0  0  1  0  0  0  0  0  0
  158.6710  214.4530  152.7400 O   0  0  0  0  0  0  0  0  0  0  0  0
  156.0570  212.7640  154.5490 O   0  0  0  0  0  1  0  0  0  0  0  0
  158.9120  214.1050  151.3940 C   0  0  2  0  0  3  0  0  0  0  0  0
  159.9920  209.2210  152.7860 O   0  0  0  0  0  0  0  0  0  0  0  0
  160.3970  208.7360  155.6800 C   0  0  0  0  0  3  0  0  0  0  0  0
  160.7990  209.8740  154.9720 C   0  0  0  0  0  0  0  0  0  0  0  0
  161.9140  210.6040  155.4090 C   0  0  0  0  0  3  0  0  0  0  0  0
  163.9990  211.1210  157.0930 Cl  0  0  0  0  0  0  0  0  0  0  0  0
  162.2020  209.0700  157.2590 C   0  0  0  0  0  3  0  0  0  0  0  0
  162.6120  210.2040  156.5510 C   0  0  0  0  0  0  0  0  0  0  0  0
  161.0950  208.3360  156.8230 C   0  0  0  0  0  3  0  0  0  0  0  0
  155.9450  214.2070  148.8110 O   0  0  0  0  0  1  0  0  0  0  0  0
  155.3450  214.4390  150.0490 C   0  0  0  0  0  2  0  0  0  0  0  0
  1  4  1  0  0  0  0
  1 27  1  0  0  0  0
  2 17  1  0  0  0  0
  3 20  1  0  0  0  0
  3  7  1  0  0  0  0
  4 12  1  0  0  0  0
  5 19  1  0  0  0  0
  6  9  1  0  0  0  0
  7 10  1  0  0  0  0
  8 26  1  0  0  0  0
  9 13  1  0  0  0  0
  9  3  1  0  0  0  0
 10 23  1  0  0  0  0
 10  5  1  0  0  0  0
 11  6  1  0  0  0  0
 11 16  1  0  0  0  0
 12  8  1  0  0  0  0
 13 21  1  0  0  0  0
 14  2  1  0  0  0  0
 15 28  1  0  0  0  0
 16 20  1  0  0  0  0
 17 13  1  0  0  0  0
 18  8  1  0  0  0  0
 18 19  1  0  0  0  0
 20 15  1  0  0  0  0
 21 27  1  0  0  0  0
 21  7  1  0  0  0  0
 22  2  1  0  0  0  0
 22  6  1  0  0  0  0
 23 30  1  0  0  0  0
 24  2  1  0  0  0  0
 25 18  1  0  0  0  0
 27 25  1  0  0  0  0
 28 23  1  0  0  0  0
 29 35  1  0  0  0  0
 30 31  1  0  0  0  0
 30 29  2  0  0  0  0
 31 34  2  0  0  0  0
 34 32  1  0  0  0  0
 34 33  1  0  0  0  0
 35 33  2  0  0  0  0
 36 37  1  0  0  0  0
 37  4  1  0  0  0  0
M  END
>  <MODEL>
3

>  <REMARK>
 VINA RESULT:      -3.3      3.032      6.727
  Name = 
  2 active torsions:
  status: ('A' for Active; 'I' for Inactive)
    1  A    between atoms: C_4  and  C_37
    2  A    between atoms: C_23  and  C_30
                            x       y       z     vdW  Elec       q    Type
                         _______ _______ _______ _____ _____    ______ ____

>  <TORSDO>
F 2

$$$$
