=
 OpenBabel11122413203D

 31 35  0  0  1  0  0  0  0  0999 V2000
  160.5790  201.9290  150.4910 C   0  0  2  0  0  3  0  0  0  0  0  0
  161.2990  205.4560  149.1210 C   0  0  0  0  0  0  0  0  0  0  0  0
  161.3560  205.3320  147.7030 C   0  0  0  0  0  0  0  0  0  0  0  0
  161.3260  204.0140  145.7250 C   0  0  0  0  0  0  0  0  0  0  0  0
  161.1650  204.3490  150.0120 C   0  0  0  0  0  0  0  0  0  0  0  0
  161.2390  202.1040  151.8460 C   0  0  0  0  0  2  0  0  0  0  0  0
  161.2730  204.1240  147.0780 N   0  0  0  0  0  0  0  0  0  0  0  0
  161.3180  206.9760  151.0550 C   0  0  0  0  0  0  0  0  0  0  0  0
  160.7930  200.6310  150.0310 O   0  0  0  0  0  1  0  0  0  0  0  0
  161.5700  207.7380  147.5010 C   0  0  0  0  0  3  0  0  0  0  0  0
  161.2420  202.7940  145.1430 F   0  0  0  0  0  0  0  0  0  0  0  0
  161.1800  205.8790  151.9050 C   0  0  0  0  0  3  0  0  0  0  0  0
  161.3760  206.7710  149.6690 C   0  0  0  0  0  0  0  0  0  0  0  0
  161.1950  202.9210  149.5120 C   0  0  0  0  0  2  0  0  0  0  0  0
  161.4640  205.1250  144.9570 N   0  0  0  0  0  0  0  0  0  0  0  0
  161.1200  204.5830  151.4080 C   0  0  0  0  0  0  0  0  0  0  0  0
  160.8850  203.4770  152.4010 C   0  0  0  0  0  2  0  0  0  0  0  0
  161.5090  207.8500  148.8500 N   0  0  0  0  0  0  0  0  0  0  0  0
  161.4950  206.4850  146.9080 C   0  0  0  0  0  0  0  0  0  0  0  0
  161.5480  206.3550  145.5230 C   0  0  0  0  0  3  0  0  0  0  0  0
  160.7290  207.9130  153.7910 O   0  0  0  0  0  0  0  0  0  0  0  0
  161.0940  208.7380  152.9110 C   0  0  0  0  0  0  0  0  0  0  0  0
  161.3910  208.3130  151.5740 N   0  0  0  0  0  2  0  0  0  0  0  0
  160.5240  211.5280  155.7130 C   0  0  0  0  0  0  0  0  0  0  0  0
  162.2000  210.3710  154.3910 C   0  0  0  0  0  3  0  0  0  0  0  0
  158.9110  210.7600  152.4670 O   0  0  0  0  0  1  0  0  0  0  0  0
  160.2100  212.0890  156.7940 O   0  0  0  0  0  0  0  0  0  0  0  0
  161.8730  210.9860  155.5290 C   0  0  0  0  0  3  0  0  0  0  0  0
  159.8610  210.8140  153.4800 C   0  0  0  0  0  0  0  0  0  0  0  0
  161.2220  210.1860  153.2530 C   0  0  2  0  0  3  0  0  0  0  0  0
  159.5470  211.4250  154.6250 C   0  0  0  0  0  3  0  0  0  0  0  0
  1  9  1  6  0  0  0
  1  6  1  0  0  0  0
  2 13  2  0  0  0  0
  2  5  1  0  0  0  0
  3  2  1  0  0  0  0
  4  7  2  0  0  0  0
  5 16  2  0  0  0  0
  6 17  1  0  0  0  0
  7  3  1  0  0  0  0
  8 23  1  0  0  0  0
  8 12  2  0  0  0  0
 10 18  2  0  0  0  0
 11  4  1  0  0  0  0
 13  8  1  0  0  0  0
 14  5  1  0  0  0  0
 14  1  1  0  0  0  0
 15 20  2  0  0  0  0
 15  4  1  0  0  0  0
 16 12  1  0  0  0  0
 16 17  1  0  0  0  0
 18 13  1  0  0  0  0
 19 10  1  0  0  0  0
 19  3  2  0  0  0  0
 20 19  1  0  0  0  0
 22 21  2  0  0  0  0
 23 22  1  0  0  0  0
 24 27  2  0  0  0  0
 25 28  2  0  0  0  0
 26 29  1  0  0  0  0
 28 24  1  0  0  0  0
 29 31  2  0  0  0  0
 30 22  1  1  0  0  0
 30 29  1  0  0  0  0
 30 25  1  0  0  0  0
 31 24  1  0  0  0  0
M  END
>  <MODEL>
1

>  <REMARK>
 VINA RESULT:     -10.0      0.000      0.000
  Name = 
  2 active torsions:
  status: ('A' for Active; 'I' for Inactive)
    1  A    between atoms: C_5  and  C_30
    2  A    between atoms: C_10  and  N_16
                            x       y       z     vdW  Elec       q    Type
                         _______ _______ _______ _____ _____    ______ ____

>  <TORSDO>
F 2

$$$$
=
 OpenBabel11122413203D

 31 35  0  0  1  0  0  0  0  0999 V2000
  161.4850  204.9110  145.7140 C   0  0  2  0  0  3  0  0  0  0  0  0
  161.1020  204.8350  149.5450 C   0  0  0  0  0  0  0  0  0  0  0  0
  161.1000  203.4610  149.9210 C   0  0  0  0  0  0  0  0  0  0  0  0
  161.1200  201.1500  149.3660 C   0  0  0  0  0  0  0  0  0  0  0  0
  161.1090  205.2900  148.1920 C   0  0  0  0  0  0  0  0  0  0  0  0
  160.7790  206.2310  145.4690 C   0  0  0  0  0  2  0  0  0  0  0  0
  161.1190  202.4580  148.9990 N   0  0  0  0  0  0  0  0  0  0  0  0
  161.1100  207.1740  150.3030 C   0  0  0  0  0  0  0  0  0  0  0  0
  161.1930  204.0260  144.6770 O   0  0  0  0  0  1  0  0  0  0  0  0
  161.0810  204.1010  152.2590 C   0  0  0  0  0  3  0  0  0  0  0  0
  161.1370  200.1820  148.4180 F   0  0  0  0  0  0  0  0  0  0  0  0
  161.1250  207.5940  148.9740 C   0  0  0  0  0  3  0  0  0  0  0  0
  161.1010  205.8030  150.5930 C   0  0  0  0  0  0  0  0  0  0  0  0
  160.9920  204.3260  147.0310 C   0  0  0  0  0  2  0  0  0  0  0  0
  161.1030  200.8110  150.6810 N   0  0  0  0  0  0  0  0  0  0  0  0
  161.1080  206.6810  147.9270 C   0  0  0  0  0  0  0  0  0  0  0  0
  161.2110  207.2330  146.5310 C   0  0  0  0  0  2  0  0  0  0  0  0
  161.0890  205.4060  151.8960 N   0  0  0  0  0  0  0  0  0  0  0  0
  161.0870  203.1120  151.2850 C   0  0  0  0  0  0  0  0  0  0  0  0
  161.0880  201.7670  151.6440 C   0  0  0  0  0  3  0  0  0  0  0  0
  162.2610  209.8930  150.3460 O   0  0  0  0  0  0  0  0  0  0  0  0
  161.6880  209.4380  151.3720 C   0  0  0  0  0  0  0  0  0  0  0  0
  161.1170  208.1230  151.3830 N   0  0  0  0  0  2  0  0  0  0  0  0
  159.5290  210.3000  154.6220 C   0  0  0  0  0  0  0  0  0  0  0  0
  161.6410  209.3950  153.8380 C   0  0  0  0  0  3  0  0  0  0  0  0
  160.3150  212.1120  151.4860 O   0  0  0  0  0  1  0  0  0  0  0  0
  158.6140  210.2940  155.4840 O   0  0  0  0  0  0  0  0  0  0  0  0
  160.6810  209.4060  154.7630 C   0  0  0  0  0  3  0  0  0  0  0  0
  160.4120  211.2150  152.5430 C   0  0  0  0  0  0  0  0  0  0  0  0
  161.5990  210.2730  152.6080 C   0  0  2  0  0  3  0  0  0  0  0  0
  159.4560  211.2120  153.4760 C   0  0  0  0  0  3  0  0  0  0  0  0
  1  9  1  6  0  0  0
  1 14  1  0  0  0  0
  2  3  2  0  0  0  0
  2 13  1  0  0  0  0
  3 19  1  0  0  0  0
  4 15  1  0  0  0  0
  5  2  1  0  0  0  0
  6  1  1  0  0  0  0
  6 17  1  0  0  0  0
  7  4  2  0  0  0  0
  7  3  1  0  0  0  0
  8 13  1  0  0  0  0
  8 23  1  0  0  0  0
 11  4  1  0  0  0  0
 12  8  2  0  0  0  0
 13 18  2  0  0  0  0
 14  5  1  0  0  0  0
 15 20  2  0  0  0  0
 16  5  2  0  0  0  0
 16 12  1  0  0  0  0
 17 16  1  0  0  0  0
 18 10  1  0  0  0  0
 19 20  1  0  0  0  0
 19 10  2  0  0  0  0
 21 22  2  0  0  0  0
 22 23  1  0  0  0  0
 24 28  1  0  0  0  0
 24 27  2  0  0  0  0
 25 28  2  0  0  0  0
 26 29  1  0  0  0  0
 29 30  1  0  0  0  0
 29 31  2  0  0  0  0
 30 22  1  6  0  0  0
 30 25  1  0  0  0  0
 31 24  1  0  0  0  0
M  END
>  <MODEL>
2

>  <REMARK>
 VINA RESULT:      -9.3      2.206      4.081
  Name = 
  2 active torsions:
  status: ('A' for Active; 'I' for Inactive)
    1  A    between atoms: C_5  and  C_30
    2  A    between atoms: C_10  and  N_16
                            x       y       z     vdW  Elec       q    Type
                         _______ _______ _______ _____ _____    ______ ____

>  <TORSDO>
F 2

$$$$
=
 OpenBabel11122413203D

 31 35  0  0  1  0  0  0  0  0999 V2000
  160.4460  207.6110  154.5560 C   0  0  2  0  0  3  0  0  0  0  0  0
  161.4070  207.9440  150.8420 C   0  0  0  0  0  0  0  0  0  0  0  0
  161.3110  206.6360  150.2840 C   0  0  0  0  0  0  0  0  0  0  0  0
  160.9450  204.2990  150.5070 C   0  0  0  0  0  0  0  0  0  0  0  0
  161.2420  208.2300  152.2300 C   0  0  0  0  0  0  0  0  0  0  0  0
  161.2510  208.7870  155.0760 C   0  0  0  0  0  2  0  0  0  0  0  0
  161.0360  205.5420  151.0470 N   0  0  0  0  0  0  0  0  0  0  0  0
  161.7800  210.3380  150.4200 C   0  0  0  0  0  0  0  0  0  0  0  0
  160.4720  206.5780  155.4920 O   0  0  0  0  0  1  0  0  0  0  0  0
  161.7650  207.5430  148.0820 C   0  0  0  0  0  3  0  0  0  0  0  0
  160.6720  203.2360  151.3010 F   0  0  0  0  0  0  0  0  0  0  0  0
  161.6080  210.5940  151.7790 C   0  0  0  0  0  3  0  0  0  0  0  0
  161.6800  209.0210  149.9480 C   0  0  0  0  0  0  0  0  0  0  0  0
  161.0670  207.1280  153.2520 C   0  0  0  0  0  2  0  0  0  0  0  0
  161.1270  204.1210  149.1730 N   0  0  0  0  0  0  0  0  0  0  0  0
  161.3590  209.5670  152.6820 C   0  0  0  0  0  0  0  0  0  0  0  0
  161.1040  209.9570  154.1130 C   0  0  0  0  0  2  0  0  0  0  0  0
  161.8480  208.7850  148.6170 N   0  0  0  0  0  0  0  0  0  0  0  0
  161.4960  206.4550  148.9000 C   0  0  0  0  0  0  0  0  0  0  0  0
  161.3990  205.1740  148.3630 C   0  0  0  0  0  3  0  0  0  0  0  0
  160.3080  212.8720  150.0620 O   0  0  0  0  0  0  0  0  0  0  0  0
  161.3110  212.6210  149.3400 C   0  0  0  0  0  0  0  0  0  0  0  0
  162.0490  211.4010  149.4910 N   0  0  0  0  0  2  0  0  0  0  0  0
  161.0180  213.7250  145.5110 C   0  0  0  0  0  0  0  0  0  0  0  0
  160.5600  214.3950  147.7990 C   0  0  0  0  0  3  0  0  0  0  0  0
  163.7110  212.2290  147.5700 O   0  0  0  0  0  1  0  0  0  0  0  0
  160.6860  213.7540  144.2980 O   0  0  0  0  0  0  0  0  0  0  0  0
  160.2230  214.4440  146.5100 C   0  0  0  0  0  3  0  0  0  0  0  0
  162.5610  212.9250  147.2190 C   0  0  0  0  0  0  0  0  0  0  0  0
  161.7470  213.6040  148.3030 C   0  0  2  0  0  3  0  0  0  0  0  0
  162.2090  212.9810  145.9310 C   0  0  0  0  0  3  0  0  0  0  0  0
  1  6  1  0  0  0  0
  1  9  1  1  0  0  0
  2  5  1  0  0  0  0
  3  2  1  0  0  0  0
  3  7  1  0  0  0  0
  4  7  2  0  0  0  0
  4 11  1  0  0  0  0
  5 16  2  0  0  0  0
  5 14  1  0  0  0  0
  8 12  2  0  0  0  0
 10 18  2  0  0  0  0
 10 19  1  0  0  0  0
 12 16  1  0  0  0  0
 13  8  1  0  0  0  0
 13  2  2  0  0  0  0
 14  1  1  0  0  0  0
 15  4  1  0  0  0  0
 16 17  1  0  0  0  0
 17  6  1  0  0  0  0
 18 13  1  0  0  0  0
 19  3  2  0  0  0  0
 20 19  1  0  0  0  0
 20 15  2  0  0  0  0
 22 23  1  0  0  0  0
 22 21  2  0  0  0  0
 23  8  1  0  0  0  0
 24 31  1  0  0  0  0
 24 28  1  0  0  0  0
 25 30  1  0  0  0  0
 27 24  2  0  0  0  0
 28 25  2  0  0  0  0
 29 26  1  0  0  0  0
 29 30  1  0  0  0  0
 30 22  1  1  0  0  0
 31 29  2  0  0  0  0
M  END
>  <MODEL>
3

>  <REMARK>
 VINA RESULT:      -9.0      3.979      6.201
  Name = 
  2 active torsions:
  status: ('A' for Active; 'I' for Inactive)
    1  A    between atoms: C_5  and  C_30
    2  A    between atoms: C_10  and  N_16
                            x       y       z     vdW  Elec       q    Type
                         _______ _______ _______ _____ _____    ______ ____

>  <TORSDO>
F 2

$$$$
=
 OpenBabel11122413203D

 31 35  0  0  1  0  0  0  0  0999 V2000
  160.7410  201.5740  150.1290 C   0  0  2  0  0  3  0  0  0  0  0  0
  161.0680  205.2730  149.1070 C   0  0  0  0  0  0  0  0  0  0  0  0
  161.1410  205.2910  147.6850 C   0  0  0  0  0  0  0  0  0  0  0  0
  161.2590  204.1730  145.5910 C   0  0  0  0  0  0  0  0  0  0  0  0
  161.0570  204.0780  149.8880 C   0  0  0  0  0  0  0  0  0  0  0  0
  161.3760  201.6900  151.5020 C   0  0  0  0  0  2  0  0  0  0  0  0
  161.1920  204.1470  146.9470 N   0  0  0  0  0  0  0  0  0  0  0  0
  160.9160  206.5940  151.1760 C   0  0  0  0  0  0  0  0  0  0  0  0
  161.0980  200.3570  149.5510 O   0  0  0  0  0  1  0  0  0  0  0  0
  161.0870  207.7150  147.7140 C   0  0  0  0  0  3  0  0  0  0  0  0
  161.3110  203.0120  144.8950 F   0  0  0  0  0  0  0  0  0  0  0  0
  160.8990  205.4130  151.9170 C   0  0  0  0  0  3  0  0  0  0  0  0
  160.9980  206.5300  149.7780 C   0  0  0  0  0  0  0  0  0  0  0  0
  161.2450  202.7160  149.2560 C   0  0  0  0  0  2  0  0  0  0  0  0
  161.2740  205.3600  144.9320 N   0  0  0  0  0  0  0  0  0  0  0  0
  160.9830  204.1710  151.2990 C   0  0  0  0  0  0  0  0  0  0  0  0
  160.8720  202.9560  152.1800 C   0  0  0  0  0  2  0  0  0  0  0  0
  161.0120  207.6910  149.0660 N   0  0  0  0  0  0  0  0  0  0  0  0
  161.1520  206.5240  147.0040 C   0  0  0  0  0  0  0  0  0  0  0  0
  161.2210  206.5330  145.6130 C   0  0  0  0  0  3  0  0  0  0  0  0
  162.9130  208.7690  151.1700 O   0  0  0  0  0  0  0  0  0  0  0  0
  161.8310  208.9120  151.8010 C   0  0  0  0  0  0  0  0  0  0  0  0
  160.8400  207.8760  151.8200 N   0  0  0  0  0  2  0  0  0  0  0  0
  159.0770  211.1250  153.6670 C   0  0  0  0  0  0  0  0  0  0  0  0
  161.1350  209.8720  153.9640 C   0  0  0  0  0  3  0  0  0  0  0  0
  160.9500  211.4720  150.4890 O   0  0  0  0  0  1  0  0  0  0  0  0
  157.9810  211.5160  154.1440 O   0  0  0  0  0  0  0  0  0  0  0  0
  159.9830  210.3060  154.4760 C   0  0  0  0  0  3  0  0  0  0  0  0
  160.6140  211.0740  151.7770 C   0  0  0  0  0  0  0  0  0  0  0  0
  161.5650  210.1790  152.5470 C   0  0  2  0  0  3  0  0  0  0  0  0
  159.4620  211.4990  152.3030 C   0  0  0  0  0  3  0  0  0  0  0  0
  1  9  1  6  0  0  0
  1  6  1  0  0  0  0
  2 13  2  0  0  0  0
  2  5  1  0  0  0  0
  3  2  1  0  0  0  0
  4  7  2  0  0  0  0
  5 16  2  0  0  0  0
  6 17  1  0  0  0  0
  7  3  1  0  0  0  0
  8 23  1  0  0  0  0
  8 12  2  0  0  0  0
 10 18  2  0  0  0  0
 11  4  1  0  0  0  0
 13  8  1  0  0  0  0
 14  5  1  0  0  0  0
 14  1  1  0  0  0  0
 15  4  1  0  0  0  0
 15 20  2  0  0  0  0
 16 12  1  0  0  0  0
 16 17  1  0  0  0  0
 18 13  1  0  0  0  0
 19  3  2  0  0  0  0
 19 10  1  0  0  0  0
 20 19  1  0  0  0  0
 21 22  2  0  0  0  0
 22 23  1  0  0  0  0
 24 27  2  0  0  0  0
 24 28  1  0  0  0  0
 25 28  2  0  0  0  0
 26 29  1  0  0  0  0
 29 31  2  0  0  0  0
 29 30  1  0  0  0  0
 30 22  1  6  0  0  0
 30 25  1  0  0  0  0
 31 24  1  0  0  0  0
M  END
>  <MODEL>
4

>  <REMARK>
 VINA RESULT:      -8.9      1.229      1.416
  Name = 
  2 active torsions:
  status: ('A' for Active; 'I' for Inactive)
    1  A    between atoms: C_5  and  C_30
    2  A    between atoms: C_10  and  N_16
                            x       y       z     vdW  Elec       q    Type
                         _______ _______ _______ _____ _____    ______ ____

>  <TORSDO>
F 2

$$$$
=
 OpenBabel11122413203D

 31 35  0  0  1  0  0  0  0  0999 V2000
  160.7720  213.0840  149.7060 C   0  0  2  0  0  3  0  0  0  0  0  0
  161.4610  209.5500  151.0700 C   0  0  0  0  0  0  0  0  0  0  0  0
  161.1290  209.5820  152.4550 C   0  0  0  0  0  0  0  0  0  0  0  0
  160.4420  210.7540  154.4050 C   0  0  0  0  0  0  0  0  0  0  0  0
  161.4560  210.6980  150.2230 C   0  0  0  0  0  0  0  0  0  0  0  0
  161.7810  213.0610  148.5740 C   0  0  0  0  0  2  0  0  0  0  0  0
  160.7600  210.7320  153.0840 N   0  0  0  0  0  0  0  0  0  0  0  0
  162.1470  208.1720  149.1510 C   0  0  0  0  0  0  0  0  0  0  0  0
  160.7230  214.3620  150.2610 O   0  0  0  0  0  1  0  0  0  0  0  0
  161.5270  207.1950  152.6060 C   0  0  0  0  0  3  0  0  0  0  0  0
  160.0820  211.9200  154.9940 F   0  0  0  0  0  0  0  0  0  0  0  0
  162.1270  209.3080  148.3420 C   0  0  0  0  0  3  0  0  0  0  0  0
  161.8150  208.2870  150.5080 C   0  0  0  0  0  0  0  0  0  0  0  0
  161.2060  212.0870  150.7720 C   0  0  0  0  0  2  0  0  0  0  0  0
  160.4850  209.6100  155.1350 N   0  0  0  0  0  0  0  0  0  0  0  0
  161.8050  210.5570  148.8580 C   0  0  0  0  0  0  0  0  0  0  0  0
  161.7290  211.7030  147.8860 C   0  0  0  0  0  2  0  0  0  0  0  0
  161.8360  207.1700  151.2870 N   0  0  0  0  0  0  0  0  0  0  0  0
  161.1700  208.3930  153.2080 C   0  0  0  0  0  0  0  0  0  0  0  0
  160.8410  208.4330  154.5610 C   0  0  0  0  0  3  0  0  0  0  0  0
  160.3860  206.2130  147.8190 O   0  0  0  0  0  0  0  0  0  0  0  0
  161.6090  205.9520  147.9750 C   0  0  0  0  0  0  0  0  0  0  0  0
  162.4910  206.8840  148.6150 N   0  0  0  0  0  2  0  0  0  0  0  0
  160.8520  202.6000  145.9370 C   0  0  0  0  0  0  0  0  0  0  0  0
  162.1910  204.6250  145.9800 C   0  0  0  0  0  3  0  0  0  0  0  0
  161.4140  203.3760  149.5160 O   0  0  0  0  0  1  0  0  0  0  0  0
  160.2590  201.7210  145.2610 O   0  0  0  0  0  0  0  0  0  0  0  0
  161.5810  203.6790  145.2650 C   0  0  0  0  0  3  0  0  0  0  0  0
  161.4400  203.4820  148.1310 C   0  0  0  0  0  0  0  0  0  0  0  0
  162.1620  204.6510  147.4910 C   0  0  2  0  0  3  0  0  0  0  0  0
  160.8310  202.5430  147.4020 C   0  0  0  0  0  3  0  0  0  0  0  0
  1  9  1  1  0  0  0
  1 14  1  0  0  0  0
  2  3  2  0  0  0  0
  3  7  1  0  0  0  0
  3 19  1  0  0  0  0
  4 11  1  0  0  0  0
  4 15  1  0  0  0  0
  5 14  1  0  0  0  0
  5  2  1  0  0  0  0
  6  1  1  0  0  0  0
  7  4  2  0  0  0  0
  8 13  1  0  0  0  0
 10 19  2  0  0  0  0
 12 16  1  0  0  0  0
 12  8  2  0  0  0  0
 13  2  1  0  0  0  0
 13 18  2  0  0  0  0
 16  5  2  0  0  0  0
 17  6  1  0  0  0  0
 17 16  1  0  0  0  0
 18 10  1  0  0  0  0
 19 20  1  0  0  0  0
 20 15  2  0  0  0  0
 21 22  2  0  0  0  0
 22 23  1  0  0  0  0
 23  8  1  0  0  0  0
 24 31  1  0  0  0  0
 25 30  1  0  0  0  0
 27 24  2  0  0  0  0
 28 24  1  0  0  0  0
 28 25  2  0  0  0  0
 29 26  1  0  0  0  0
 30 22  1  6  0  0  0
 30 29  1  0  0  0  0
 31 29  2  0  0  0  0
M  END
>  <MODEL>
5

>  <REMARK>
 VINA RESULT:      -8.9      3.708      9.126
  Name = 
  2 active torsions:
  status: ('A' for Active; 'I' for Inactive)
    1  A    between atoms: C_5  and  C_30
    2  A    between atoms: C_10  and  N_16
                            x       y       z     vdW  Elec       q    Type
                         _______ _______ _______ _____ _____    ______ ____

>  <TORSDO>
F 2

$$$$
=
 OpenBabel11122413203D

 31 35  0  0  1  0  0  0  0  0999 V2000
  161.7260  206.1720  146.4580 C   0  0  2  0  0  3  0  0  0  0  0  0
  161.2390  204.7190  149.9900 C   0  0  0  0  0  0  0  0  0  0  0  0
  161.0990  203.3100  149.8290 C   0  0  0  0  0  0  0  0  0  0  0  0
  160.9160  201.3800  148.4550 C   0  0  0  0  0  0  0  0  0  0  0  0
  161.3230  205.6400  148.9040 C   0  0  0  0  0  0  0  0  0  0  0  0
  161.1520  207.5510  146.7290 C   0  0  0  0  0  2  0  0  0  0  0  0
  161.0480  202.7240  148.6000 N   0  0  0  0  0  0  0  0  0  0  0  0
  161.4470  206.5980  151.5640 C   0  0  0  0  0  0  0  0  0  0  0  0
  161.3790  205.7680  145.1700 O   0  0  0  0  0  1  0  0  0  0  0  0
  161.0800  203.0360  152.2380 C   0  0  0  0  0  3  0  0  0  0  0  0
  160.8670  200.8360  147.2150 F   0  0  0  0  0  0  0  0  0  0  0  0
  161.5350  207.4770  150.4860 C   0  0  0  0  0  3  0  0  0  0  0  0
  161.3010  205.2240  151.3230 C   0  0  0  0  0  0  0  0  0  0  0  0
  161.1470  205.1910  147.4690 C   0  0  0  0  0  2  0  0  0  0  0  0
  160.8340  200.5810  149.5490 N   0  0  0  0  0  0  0  0  0  0  0  0
  161.4600  207.0230  149.1750 C   0  0  0  0  0  0  0  0  0  0  0  0
  161.6490  208.0410  148.0830 C   0  0  0  0  0  2  0  0  0  0  0  0
  161.2190  204.3750  152.3850 N   0  0  0  0  0  0  0  0  0  0  0  0
  161.0190  202.4840  150.9660 C   0  0  0  0  0  0  0  0  0  0  0  0
  160.8840  201.1080  150.7990 C   0  0  0  0  0  3  0  0  0  0  0  0
  160.4230  209.1380  152.6660 O   0  0  0  0  0  0  0  0  0  0  0  0
  161.0090  208.3170  153.4220 C   0  0  0  0  0  0  0  0  0  0  0  0
  161.5150  207.0730  152.9180 N   0  0  0  0  0  2  0  0  0  0  0  0
  159.6090  210.3780  156.5450 C   0  0  0  0  0  0  0  0  0  0  0  0
  159.9960  208.1490  155.6640 C   0  0  0  0  0  3  0  0  0  0  0  0
  162.6470  210.6270  154.4380 O   0  0  0  0  0  1  0  0  0  0  0  0
  158.9070  211.1450  157.2530 O   0  0  0  0  0  0  0  0  0  0  0  0
  159.2660  208.9580  156.4330 C   0  0  0  0  0  3  0  0  0  0  0  0
  161.5280  210.0980  155.0690 C   0  0  0  0  0  0  0  0  0  0  0  0
  161.1880  208.6340  154.8710 C   0  0  2  0  0  3  0  0  0  0  0  0
  160.7850  210.8970  155.8400 C   0  0  0  0  0  3  0  0  0  0  0  0
  1  9  1  6  0  0  0
  1  6  1  0  0  0  0
  1 14  1  0  0  0  0
  2 13  1  0  0  0  0
  3  2  2  0  0  0  0
  3 19  1  0  0  0  0
  4  7  2  0  0  0  0
  4 15  1  0  0  0  0
  5 16  2  0  0  0  0
  5  2  1  0  0  0  0
  6 17  1  0  0  0  0
  7  3  1  0  0  0  0
  8 23  1  0  0  0  0
 10 18  1  0  0  0  0
 11  4  1  0  0  0  0
 12  8  2  0  0  0  0
 13  8  1  0  0  0  0
 13 18  2  0  0  0  0
 14  5  1  0  0  0  0
 15 20  2  0  0  0  0
 16 12  1  0  0  0  0
 17 16  1  0  0  0  0
 19 10  2  0  0  0  0
 20 19  1  0  0  0  0
 21 22  2  0  0  0  0
 23 22  1  0  0  0  0
 24 27  2  0  0  0  0
 25 28  2  0  0  0  0
 26 29  1  0  0  0  0
 28 24  1  0  0  0  0
 29 31  2  0  0  0  0
 30 22  1  6  0  0  0
 30 29  1  0  0  0  0
 30 25  1  0  0  0  0
 31 24  1  0  0  0  0
M  END
>  <MODEL>
6

>  <REMARK>
 VINA RESULT:      -8.9      2.232      4.096
  Name = 
  2 active torsions:
  status: ('A' for Active; 'I' for Inactive)
    1  A    between atoms: C_5  and  C_30
    2  A    between atoms: C_10  and  N_16
                            x       y       z     vdW  Elec       q    Type
                         _______ _______ _______ _____ _____    ______ ____

>  <TORSDO>
F 2

$$$$
=
 OpenBabel11122413203D

 31 35  0  0  1  0  0  0  0  0999 V2000
  161.4790  204.7400  152.1260 C   0  0  2  0  0  3  0  0  0  0  0  0
  161.1330  208.4470  153.1070 C   0  0  0  0  0  0  0  0  0  0  0  0
  160.8960  208.4710  154.5120 C   0  0  0  0  0  0  0  0  0  0  0  0
  160.5070  207.3600  156.5770 C   0  0  0  0  0  0  0  0  0  0  0  0
  161.2030  207.2510  152.3320 C   0  0  0  0  0  0  0  0  0  0  0  0
  161.0110  204.8690  150.6890 C   0  0  0  0  0  2  0  0  0  0  0  0
  160.7300  207.3290  155.2370 N   0  0  0  0  0  0  0  0  0  0  0  0
  161.5580  209.7610  151.0710 C   0  0  0  0  0  0  0  0  0  0  0  0
  161.0260  203.5330  152.6580 O   0  0  0  0  0  1  0  0  0  0  0  0
  161.0160  210.8920  154.4920 C   0  0  0  0  0  3  0  0  0  0  0  0
  160.3440  206.2020  157.2610 F   0  0  0  0  0  0  0  0  0  0  0  0
  161.6300  208.5780  150.3360 C   0  0  0  0  0  3  0  0  0  0  0  0
  161.3120  209.7010  152.4500 C   0  0  0  0  0  0  0  0  0  0  0  0
  160.9070  205.8960  152.9360 C   0  0  0  0  0  2  0  0  0  0  0  0
  160.4460  208.5480  157.2300 N   0  0  0  0  0  0  0  0  0  0  0  0
  161.4420  207.3400  150.9390 C   0  0  0  0  0  0  0  0  0  0  0  0
  161.6230  206.1210  150.0750 C   0  0  0  0  0  2  0  0  0  0  0  0
  161.2470  210.8630  153.1570 N   0  0  0  0  0  0  0  0  0  0  0  0
  160.8390  209.7040  155.1880 C   0  0  0  0  0  0  0  0  0  0  0  0
  160.6090  209.7170  156.5610 C   0  0  0  0  0  3  0  0  0  0  0  0
  161.7530  210.3720  148.1900 O   0  0  0  0  0  0  0  0  0  0  0  0
  161.8360  211.3030  149.0360 C   0  0  0  0  0  0  0  0  0  0  0  0
  161.7420  211.0390  150.4420 N   0  0  0  0  0  2  0  0  0  0  0  0
  161.2050  213.9410  146.1030 C   0  0  0  0  0  0  0  0  0  0  0  0
  160.7050  213.4060  148.4180 C   0  0  0  0  0  3  0  0  0  0  0  0
  164.2050  212.2110  147.4190 O   0  0  0  0  0  1  0  0  0  0  0  0
  160.8320  214.4530  145.0160 O   0  0  0  0  0  0  0  0  0  0  0  0
  160.3210  213.9690  147.2710 C   0  0  0  0  0  3  0  0  0  0  0  0
  162.9310  212.7620  147.3540 C   0  0  0  0  0  0  0  0  0  0  0  0
  162.0390  212.7110  148.5790 C   0  0  2  0  0  3  0  0  0  0  0  0
  162.5310  213.3260  146.2110 C   0  0  0  0  0  3  0  0  0  0  0  0
  1  9  1  1  0  0  0
  1 14  1  0  0  0  0
  2  3  2  0  0  0  0
  3 19  1  0  0  0  0
  3  7  1  0  0  0  0
  4 15  1  0  0  0  0
  4 11  1  0  0  0  0
  5 14  1  0  0  0  0
  5  2  1  0  0  0  0
  6  1  1  0  0  0  0
  7  4  2  0  0  0  0
  8 13  1  0  0  0  0
 10 19  2  0  0  0  0
 12 16  1  0  0  0  0
 12  8  2  0  0  0  0
 13  2  1  0  0  0  0
 13 18  2  0  0  0  0
 16  5  2  0  0  0  0
 17  6  1  0  0  0  0
 17 16  1  0  0  0  0
 18 10  1  0  0  0  0
 19 20  1  0  0  0  0
 20 15  2  0  0  0  0
 21 22  2  0  0  0  0
 22 23  1  0  0  0  0
 23  8  1  0  0  0  0
 24 31  1  0  0  0  0
 24 28  1  0  0  0  0
 25 30  1  0  0  0  0
 27 24  2  0  0  0  0
 28 25  2  0  0  0  0
 29 26  1  0  0  0  0
 29 30  1  0  0  0  0
 30 22  1  6  0  0  0
 31 29  2  0  0  0  0
M  END
>  <MODEL>
7

>  <REMARK>
 VINA RESULT:      -8.6      4.587      7.393
  Name = 
  2 active torsions:
  status: ('A' for Active; 'I' for Inactive)
    1  A    between atoms: C_5  and  C_30
    2  A    between atoms: C_10  and  N_16
                            x       y       z     vdW  Elec       q    Type
                         _______ _______ _______ _____ _____    ______ ____

>  <TORSDO>
F 2

$$$$
=
 OpenBabel11122413203D

 31 35  0  0  1  0  0  0  0  0999 V2000
  162.1720  204.9030  145.6440 C   0  0  2  0  0  3  0  0  0  0  0  0
  161.0280  204.5140  149.3000 C   0  0  0  0  0  0  0  0  0  0  0  0
  161.0360  203.1170  149.5770 C   0  0  0  0  0  0  0  0  0  0  0  0
  161.3120  200.8590  148.8870 C   0  0  0  0  0  0  0  0  0  0  0  0
  161.2800  205.0720  148.0110 C   0  0  0  0  0  0  0  0  0  0  0  0
  161.4480  206.2030  145.3460 C   0  0  0  0  0  2  0  0  0  0  0  0
  161.3040  202.1900  148.6150 N   0  0  0  0  0  0  0  0  0  0  0  0
  160.7360  206.7860  150.1960 C   0  0  0  0  0  0  0  0  0  0  0  0
  162.1520  204.0890  144.5130 O   0  0  0  0  0  1  0  0  0  0  0  0
  160.5050  203.5730  151.8980 C   0  0  0  0  0  3  0  0  0  0  0  0
  161.5810  199.9700  147.9010 F   0  0  0  0  0  0  0  0  0  0  0  0
  160.9930  207.3080  148.9280 C   0  0  0  0  0  3  0  0  0  0  0  0
  160.7540  205.3970  150.3870 C   0  0  0  0  0  0  0  0  0  0  0  0
  161.4610  204.1960  146.7900 C   0  0  0  0  0  2  0  0  0  0  0  0
  161.0510  200.4200  150.1450 N   0  0  0  0  0  0  0  0  0  0  0  0
  161.2460  206.4780  147.8430 C   0  0  0  0  0  0  0  0  0  0  0  0
  161.5940  207.1400  146.5380 C   0  0  0  0  0  2  0  0  0  0  0  0
  160.5040  204.9010  151.6300 N   0  0  0  0  0  0  0  0  0  0  0  0
  160.7700  202.6640  150.8830 C   0  0  0  0  0  0  0  0  0  0  0  0
  160.7820  201.2960  151.1450 C   0  0  0  0  0  3  0  0  0  0  0  0
  162.3920  207.2510  152.5960 O   0  0  0  0  0  0  0  0  0  0  0  0
  161.2900  207.8500  152.4680 C   0  0  0  0  0  0  0  0  0  0  0  0
  160.4650  207.6480  151.3130 N   0  0  0  0  0  2  0  0  0  0  0  0
  162.3210  209.9080  155.7330 C   0  0  0  0  0  0  0  0  0  0  0  0
  161.5650  210.1020  153.4340 C   0  0  0  0  0  3  0  0  0  0  0  0
  160.1730  206.9530  155.1130 O   0  0  0  0  0  1  0  0  0  0  0  0
  162.9950  210.3810  156.6840 O   0  0  0  0  0  0  0  0  0  0  0  0
  162.2600  210.6140  154.4510 C   0  0  0  0  0  3  0  0  0  0  0  0
  160.8780  208.1310  154.8980 C   0  0  0  0  0  0  0  0  0  0  0  0
  160.8240  208.7880  153.5330 C   0  0  2  0  0  3  0  0  0  0  0  0
  161.5810  208.6540  155.9060 C   0  0  0  0  0  3  0  0  0  0  0  0
  1  9  1  6  0  0  0
  1 14  1  0  0  0  0
  2  3  2  0  0  0  0
  2 13  1  0  0  0  0
  3 19  1  0  0  0  0
  4 15  1  0  0  0  0
  5  2  1  0  0  0  0
  6  1  1  0  0  0  0
  6 17  1  0  0  0  0
  7  4  2  0  0  0  0
  7  3  1  0  0  0  0
  8 13  1  0  0  0  0
  8 23  1  0  0  0  0
 11  4  1  0  0  0  0
 12  8  2  0  0  0  0
 13 18  2  0  0  0  0
 14  5  1  0  0  0  0
 15 20  2  0  0  0  0
 16  5  2  0  0  0  0
 16 12  1  0  0  0  0
 17 16  1  0  0  0  0
 18 10  1  0  0  0  0
 19 20  1  0  0  0  0
 19 10  2  0  0  0  0
 22 21  2  0  0  0  0
 23 22  1  0  0  0  0
 24 31  1  0  0  0  0
 24 27  2  0  0  0  0
 25 30  1  0  0  0  0
 25 28  2  0  0  0  0
 28 24  1  0  0  0  0
 29 26  1  0  0  0  0
 29 31  2  0  0  0  0
 30 22  1  6  0  0  0
 30 29  1  0  0  0  0
M  END
>  <MODEL>
8

>  <REMARK>
 VINA RESULT:      -8.2      2.308      4.217
  Name = 
  2 active torsions:
  status: ('A' for Active; 'I' for Inactive)
    1  A    between atoms: C_5  and  C_30
    2  A    between atoms: C_10  and  N_16
                            x       y       z     vdW  Elec       q    Type
                         _______ _______ _______ _____ _____    ______ ____

>  <TORSDO>
F 2

$$$$
=
 OpenBabel11122413203D

 31 35  0  0  1  0  0  0  0  0999 V2000
  160.8250  213.0740  149.5280 C   0  0  2  0  0  3  0  0  0  0  0  0
  161.0930  209.9860  151.8140 C   0  0  0  0  0  0  0  0  0  0  0  0
  160.6600  210.4040  153.1050 C   0  0  0  0  0  0  0  0  0  0  0  0
  159.9340  212.0910  154.6130 C   0  0  0  0  0  0  0  0  0  0  0  0
  161.2530  210.8690  150.7040 C   0  0  0  0  0  0  0  0  0  0  0  0
  161.9110  212.6870  148.5430 C   0  0  0  0  0  2  0  0  0  0  0  0
  160.3480  211.7010  153.3790 N   0  0  0  0  0  0  0  0  0  0  0  0
  161.7980  208.1100  150.3880 C   0  0  0  0  0  0  0  0  0  0  0  0
  160.8470  214.4530  149.7290 O   0  0  0  0  0  1  0  0  0  0  0  0
  160.8330  208.1200  153.9010 C   0  0  0  0  0  3  0  0  0  0  0  0
  159.6340  213.3920  154.8450 F   0  0  0  0  0  0  0  0  0  0  0  0
  161.9400  208.9910  149.3170 C   0  0  0  0  0  3  0  0  0  0  0  0
  161.3750  208.5990  151.6320 C   0  0  0  0  0  0  0  0  0  0  0  0
  161.0860  212.3660  150.8510 C   0  0  0  0  0  2  0  0  0  0  0  0
  159.8190  211.1800  155.6130 N   0  0  0  0  0  0  0  0  0  0  0  0
  161.6910  210.3500  149.4610 C   0  0  0  0  0  0  0  0  0  0  0  0
  161.7920  211.2020  148.2250 C   0  0  0  0  0  2  0  0  0  0  0  0
  161.2380  207.7280  152.6690 N   0  0  0  0  0  0  0  0  0  0  0  0
  160.5380  209.4560  154.1390 C   0  0  0  0  0  0  0  0  0  0  0  0
  160.1120  209.8720  155.3970 C   0  0  0  0  0  3  0  0  0  0  0  0
  160.0980  206.0440  149.1400 O   0  0  0  0  0  0  0  0  0  0  0  0
  161.2160  205.7260  149.6270 C   0  0  0  0  0  0  0  0  0  0  0  0
  162.0660  206.7060  150.2370 N   0  0  0  0  0  2  0  0  0  0  0  0
  160.0860  201.9020  149.3800 C   0  0  0  0  0  0  0  0  0  0  0  0
  161.2950  203.6800  148.2520 C   0  0  0  0  0  3  0  0  0  0  0  0
  161.5600  203.9920  152.0610 O   0  0  0  0  0  1  0  0  0  0  0  0
  159.3710  200.8700  149.2960 O   0  0  0  0  0  0  0  0  0  0  0  0
  160.5560  202.5730  148.1650 C   0  0  0  0  0  3  0  0  0  0  0  0
  161.2050  203.5380  150.7960 C   0  0  0  0  0  0  0  0  0  0  0  0
  161.6750  204.3050  149.5760 C   0  0  2  0  0  3  0  0  0  0  0  0
  160.4640  202.4320  150.6930 C   0  0  0  0  0  3  0  0  0  0  0  0
  1  9  1  1  0  0  0
  1 14  1  0  0  0  0
  2  3  2  0  0  0  0
  3  7  1  0  0  0  0
  3 19  1  0  0  0  0
  4 11  1  0  0  0  0
  4 15  1  0  0  0  0
  5 14  1  0  0  0  0
  5  2  1  0  0  0  0
  6  1  1  0  0  0  0
  7  4  2  0  0  0  0
  8 13  1  0  0  0  0
 10 19  2  0  0  0  0
 12 16  1  0  0  0  0
 12  8  2  0  0  0  0
 13  2  1  0  0  0  0
 13 18  2  0  0  0  0
 16  5  2  0  0  0  0
 17  6  1  0  0  0  0
 17 16  1  0  0  0  0
 18 10  1  0  0  0  0
 19 20  1  0  0  0  0
 20 15  2  0  0  0  0
 21 22  2  0  0  0  0
 22 23  1  0  0  0  0
 23  8  1  0  0  0  0
 24 31  1  0  0  0  0
 25 30  1  0  0  0  0
 27 24  2  0  0  0  0
 28 25  2  0  0  0  0
 28 24  1  0  0  0  0
 29 26  1  0  0  0  0
 30 22  1  6  0  0  0
 30 29  1  0  0  0  0
 31 29  2  0  0  0  0
M  END
>  <MODEL>
9

>  <REMARK>
 VINA RESULT:      -8.0      3.770      8.928
  Name = 
  2 active torsions:
  status: ('A' for Active; 'I' for Inactive)
    1  A    between atoms: C_5  and  C_30
    2  A    between atoms: C_10  and  N_16
                            x       y       z     vdW  Elec       q    Type
                         _______ _______ _______ _____ _____    ______ ____

>  <TORSDO>
F 2

$$$$
