=
 OpenBabel11122412333D

 30 35  0  0  1  0  0  0  0  0999 V2000
  161.6420  209.4860  150.8280 C   0  0  0  0  0  0  0  0  0  0  0  0
  161.9740  210.9840  148.8550 C   0  0  0  0  0  0  0  0  0  0  0  0
  159.6480  212.5540  153.0160 C   0  0  0  0  0  2  0  0  0  0  0  0
  161.1680  209.3090  152.1580 C   0  0  0  0  0  0  0  0  0  0  0  0
  162.3240  208.3260  150.1520 C   0  0  0  0  0  2  0  0  0  0  0  0
  161.0990  205.6760  152.2950 O   0  0  0  0  0  0  0  0  0  0  0  0
  161.5480  208.7070  155.1370 C   0  0  1  0  0  3  0  0  0  0  0  0
  161.3000  206.8480  151.8710 C   0  0  0  0  0  0  0  0  0  0  0  0
  160.8150  210.0230  155.2990 C   0  0  2  0  0  3  0  0  0  0  0  0
  159.2800  211.6980  154.2360 C   0  0  1  0  0  3  0  0  0  0  0  0
  161.7040  207.0600  150.5140 N   0  0  0  0  0  0  0  0  0  0  0  0
  161.1370  207.9840  152.7400 N   0  0  0  0  0  0  0  0  0  0  0  0
  161.7860  212.2320  148.2540 C   0  0  0  0  0  3  0  0  0  0  0  0
  159.9380  209.7670  156.4800 C   0  0  0  0  0  2  0  0  0  0  0  0
  161.6300  208.0810  156.3980 O   0  0  0  0  0  0  0  0  0  0  0  0
  162.6030  210.0280  148.1290 F   0  0  0  0  0  0  0  0  0  0  0  0
  160.4080  211.6070  152.1600 C   0  0  0  0  0  0  0  0  0  0  0  0
  161.1430  213.2620  148.9380 C   0  0  0  0  0  3  0  0  0  0  0  0
  161.5110  210.7480  150.1750 C   0  0  0  0  0  0  0  0  0  0  0  0
  160.5960  210.4200  152.8110 C   0  0  0  0  0  0  0  0  0  0  0  0
  157.7940  211.3910  154.2060 C   0  0  0  0  0  1  0  0  0  0  0  0
  160.0440  210.4530  154.1260 N   0  0  0  0  0  0  0  0  0  0  0  0
  160.7360  208.7500  157.2610 C   0  0  0  0  0  2  0  0  0  0  0  0
  160.1350  206.8690  154.5390 O   0  0  0  0  0  0  0  0  0  0  0  0
  160.6810  213.0530  150.2340 C   0  0  0  0  0  3  0  0  0  0  0  0
  160.8620  211.8130  150.8580 C   0  0  0  0  0  0  0  0  0  0  0  0
  160.9010  207.7900  154.1430 C   0  0  0  0  0  0  0  0  0  0  0  0
  161.7790  205.9570  149.5660 C   0  0  0  0  0  2  0  0  0  0  0  0
  160.9100  206.1980  147.2630 C   0  0  0  0  0  1  0  0  0  0  0  0
  160.5320  205.9280  148.7040 C   0  0  0  0  0  2  0  0  0  0  0  0
  1  4  1  0  0  0  0
  2 19  1  0  0  0  0
  3 10  1  0  0  0  0
  4 12  1  0  0  0  0
  4 20  2  0  0  0  0
  5 11  1  0  0  0  0
  5  1  1  0  0  0  0
  7 27  1  6  0  0  0
  7  9  1  0  0  0  0
  7 15  1  0  0  0  0
  8  6  2  0  0  0  0
  8 12  1  0  0  0  0
  9 14  1  1  0  0  0
 10 21  1  6  0  0  0
 11  8  1  0  0  0  0
 12 27  1  0  0  0  0
 13  2  2  0  0  0  0
 13 18  1  0  0  0  0
 14 23  1  0  0  0  0
 15 23  1  0  0  0  0
 16  2  1  0  0  0  0
 17 20  1  0  0  0  0
 17  3  1  0  0  0  0
 18 25  2  0  0  0  0
 19  1  2  0  0  0  0
 19 26  1  0  0  0  0
 20 22  1  0  0  0  0
 22 10  1  0  0  0  0
 22  9  1  0  0  0  0
 25 26  1  0  0  0  0
 26 17  2  0  0  0  0
 27 24  2  0  0  0  0
 28 11  1  0  0  0  0
 29 30  1  0  0  0  0
 30 28  1  0  0  0  0
M  END
>  <MODEL>
1

>  <REMARK>
 VINA RESULT:      -7.1      0.000      0.000
  Name = 
  2 active torsions:
  status: ('A' for Active; 'I' for Inactive)
    1  A    between atoms: N_11  and  C_28
    2  A    between atoms: C_28  and  C_30
                            x       y       z     vdW  Elec       q    Type
                         _______ _______ _______ _____ _____    ______ ____

>  <TORSDO>
F 2

$$$$
=
 OpenBabel11122412333D

 30 35  0  0  1  0  0  0  0  0999 V2000
  161.5700  210.2060  150.9140 C   0  0  0  0  0  0  0  0  0  0  0  0
  161.9850  211.1340  148.6310 C   0  0  0  0  0  0  0  0  0  0  0  0
  159.4240  213.6910  152.1070 C   0  0  0  0  0  2  0  0  0  0  0  0
  161.0290  210.3760  152.2180 C   0  0  0  0  0  0  0  0  0  0  0  0
  162.3010  208.9270  150.6040 C   0  0  0  0  0  2  0  0  0  0  0  0
  161.0010  206.9090  153.3170 O   0  0  0  0  0  0  0  0  0  0  0  0
  161.2600  210.5980  155.2650 C   0  0  1  0  0  3  0  0  0  0  0  0
  161.2090  207.9320  152.6050 C   0  0  0  0  0  0  0  0  0  0  0  0
  160.5020  211.8890  155.0350 C   0  0  2  0  0  3  0  0  0  0  0  0
  159.0030  213.1800  153.4940 C   0  0  1  0  0  3  0  0  0  0  0  0
  161.6800  207.7860  151.2610 N   0  0  0  0  0  0  0  0  0  0  0  0
  160.9850  209.2530  153.1310 N   0  0  0  0  0  0  0  0  0  0  0  0
  161.8120  212.1720  147.7100 C   0  0  0  0  0  3  0  0  0  0  0  0
  159.5670  211.9320  156.1990 C   0  0  0  0  0  2  0  0  0  0  0  0
  161.2840  210.3310  156.6500 O   0  0  0  0  0  0  0  0  0  0  0  0
  162.6630  210.0360  148.2160 F   0  0  0  0  0  0  0  0  0  0  0  0
  160.2400  212.5700  151.5720 C   0  0  0  0  0  0  0  0  0  0  0  0
  161.1200  213.3290  148.0640 C   0  0  0  0  0  3  0  0  0  0  0  0
  161.4560  211.2450  149.9420 C   0  0  0  0  0  0  0  0  0  0  0  0
  160.4090  211.6040  152.5240 C   0  0  0  0  0  0  0  0  0  0  0  0
  157.5250  212.8360  153.4770 C   0  0  0  0  0  1  0  0  0  0  0  0
  159.7880  211.9710  153.7560 N   0  0  0  0  0  0  0  0  0  0  0  0
  160.3370  211.1810  157.2590 C   0  0  0  0  0  2  0  0  0  0  0  0
  159.9050  208.6290  155.1120 O   0  0  0  0  0  0  0  0  0  0  0  0
  160.5940  213.4600  149.3460 C   0  0  0  0  0  3  0  0  0  0  0  0
  160.7580  212.4360  150.2860 C   0  0  0  0  0  0  0  0  0  0  0  0
  160.6780  209.4320  154.5220 C   0  0  0  0  0  0  0  0  0  0  0  0
  161.8200  206.4740  150.6460 C   0  0  0  0  0  2  0  0  0  0  0  0
  161.0550  205.0360  148.7840 C   0  0  0  0  0  1  0  0  0  0  0  0
  160.7430  206.2750  149.5960 C   0  0  0  0  0  2  0  0  0  0  0  0
  1  4  1  0  0  0  0
  2 19  1  0  0  0  0
  3 10  1  0  0  0  0
  4 20  2  0  0  0  0
  4 12  1  0  0  0  0
  5  1  1  0  0  0  0
  5 11  1  0  0  0  0
  7 27  1  6  0  0  0
  7 15  1  0  0  0  0
  8 12  1  0  0  0  0
  8  6  2  0  0  0  0
  9  7  1  0  0  0  0
  9 14  1  1  0  0  0
 10 21  1  6  0  0  0
 10 22  1  0  0  0  0
 11  8  1  0  0  0  0
 12 27  1  0  0  0  0
 13 18  1  0  0  0  0
 13  2  2  0  0  0  0
 14 23  1  0  0  0  0
 15 23  1  0  0  0  0
 16  2  1  0  0  0  0
 17  3  1  0  0  0  0
 17 20  1  0  0  0  0
 18 25  2  0  0  0  0
 19 26  1  0  0  0  0
 19  1  2  0  0  0  0
 20 22  1  0  0  0  0
 22  9  1  0  0  0  0
 25 26  1  0  0  0  0
 26 17  2  0  0  0  0
 27 24  2  0  0  0  0
 28 11  1  0  0  0  0
 29 30  1  0  0  0  0
 30 28  1  0  0  0  0
M  END
>  <MODEL>
2

>  <REMARK>
 VINA RESULT:      -6.7      1.256      1.433
  Name = 
  2 active torsions:
  status: ('A' for Active; 'I' for Inactive)
    1  A    between atoms: N_11  and  C_28
    2  A    between atoms: C_28  and  C_30
                            x       y       z     vdW  Elec       q    Type
                         _______ _______ _______ _____ _____    ______ ____

>  <TORSDO>
F 2

$$$$
=
 OpenBabel11122412333D

 30 35  0  0  1  0  0  0  0  0999 V2000
  161.6580  208.5010  151.9330 C   0  0  0  0  0  0  0  0  0  0  0  0
  162.3300  208.3670  149.5290 C   0  0  0  0  0  0  0  0  0  0  0  0
  160.2460  212.4970  151.4750 C   0  0  0  0  0  2  0  0  0  0  0  0
  161.1240  209.2640  153.0080 C   0  0  0  0  0  0  0  0  0  0  0  0
  162.1180  207.0950  152.2120 C   0  0  0  0  0  2  0  0  0  0  0  0
  160.3420  206.5720  155.3260 O   0  0  0  0  0  0  0  0  0  0  0  0
  161.2990  210.6190  155.7500 C   0  0  1  0  0  3  0  0  0  0  0  0
  160.7800  207.1780  154.3080 C   0  0  0  0  0  0  0  0  0  0  0  0
  160.8330  211.8290  154.9660 C   0  0  2  0  0  3  0  0  0  0  0  0
  159.6840  212.6560  152.8960 C   0  0  1  0  0  3  0  0  0  0  0  0
  161.2530  206.4340  153.1800 N   0  0  0  0  0  0  0  0  0  0  0  0
  160.8190  208.6160  154.2670 N   0  0  0  0  0  0  0  0  0  0  0  0
  162.4050  208.9740  148.2710 C   0  0  0  0  0  3  0  0  0  0  0  0
  159.8920  212.4920  155.9170 C   0  0  0  0  0  2  0  0  0  0  0  0
  161.2230  210.9180  157.1260 O   0  0  0  0  0  0  0  0  0  0  0  0
  162.7780  207.0930  149.6370 F   0  0  0  0  0  0  0  0  0  0  0  0
  160.8280  211.1300  151.4970 C   0  0  0  0  0  0  0  0  0  0  0  0
  161.9570  210.2790  148.0820 C   0  0  0  0  0  3  0  0  0  0  0  0
  161.7940  209.0770  150.6340 C   0  0  0  0  0  0  0  0  0  0  0  0
  160.7630  210.6030  152.7560 C   0  0  0  0  0  0  0  0  0  0  0  0
  158.1680  212.6030  152.8480 C   0  0  0  0  0  1  0  0  0  0  0  0
  160.1930  211.5280  153.6810 N   0  0  0  0  0  0  0  0  0  0  0  0
  160.4550  212.0930  157.2600 C   0  0  0  0  0  2  0  0  0  0  0  0
  159.5700  209.0250  156.2050 O   0  0  0  0  0  0  0  0  0  0  0  0
  161.4290  210.9950  149.1530 C   0  0  0  0  0  3  0  0  0  0  0  0
  161.3480  210.4110  150.4220 C   0  0  0  0  0  0  0  0  0  0  0  0
  160.5120  209.3790  155.4440 C   0  0  0  0  0  0  0  0  0  0  0  0
  161.1370  204.9840  153.1260 C   0  0  0  0  0  2  0  0  0  0  0  0
  160.8230  203.2430  151.3970 C   0  0  0  0  0  1  0  0  0  0  0  0
  161.6170  204.4740  151.7810 C   0  0  0  0  0  2  0  0  0  0  0  0
  1  5  1  0  0  0  0
  1  4  1  0  0  0  0
  2 16  1  0  0  0  0
  2 19  1  0  0  0  0
  3 17  1  0  0  0  0
  3 10  1  0  0  0  0
  4 12  1  0  0  0  0
  5 11  1  0  0  0  0
  7 27  1  1  0  0  0
  7 15  1  0  0  0  0
  8  6  2  0  0  0  0
  9  7  1  0  0  0  0
  9 14  1  1  0  0  0
 10 21  1  6  0  0  0
 10 22  1  0  0  0  0
 11  8  1  0  0  0  0
 12  8  1  0  0  0  0
 12 27  1  0  0  0  0
 13  2  2  0  0  0  0
 14 23  1  0  0  0  0
 15 23  1  0  0  0  0
 17 20  1  0  0  0  0
 18 13  1  0  0  0  0
 18 25  2  0  0  0  0
 19  1  2  0  0  0  0
 20  4  2  0  0  0  0
 20 22  1  0  0  0  0
 22  9  1  0  0  0  0
 25 26  1  0  0  0  0
 26 19  1  0  0  0  0
 26 17  2  0  0  0  0
 27 24  2  0  0  0  0
 28 11  1  0  0  0  0
 29 30  1  0  0  0  0
 30 28  1  0  0  0  0
M  END
>  <MODEL>
3

>  <REMARK>
 VINA RESULT:      -5.8      1.775      2.572
  Name = 
  2 active torsions:
  status: ('A' for Active; 'I' for Inactive)
    1  A    between atoms: N_11  and  C_28
    2  A    between atoms: C_28  and  C_30
                            x       y       z     vdW  Elec       q    Type
                         _______ _______ _______ _____ _____    ______ ____

>  <TORSDO>
F 2

$$$$
=
 OpenBabel11122412333D

 30 35  0  0  1  0  0  0  0  0999 V2000
  161.2530  207.0940  150.8310 C   0  0  0  0  0  0  0  0  0  0  0  0
  161.4860  209.5780  150.6780 C   0  0  0  0  0  0  0  0  0  0  0  0
  162.4330  206.5780  146.7670 C   0  0  0  0  0  2  0  0  0  0  0  0
  161.3150  205.8230  150.1960 C   0  0  0  0  0  0  0  0  0  0  0  0
  160.8310  207.1520  152.2760 C   0  0  0  0  0  2  0  0  0  0  0  0
  161.4260  203.6850  153.1360 O   0  0  0  0  0  0  0  0  0  0  0  0
  160.0810  203.1990  149.2080 C   0  0  1  0  0  3  0  0  0  0  0  0
  161.3320  204.7200  152.4190 C   0  0  0  0  0  0  0  0  0  0  0  0
  160.7020  203.6270  147.8940 C   0  0  2  0  0  3  0  0  0  0  0  0
  162.4430  205.0420  146.7740 C   0  0  1  0  0  3  0  0  0  0  0  0
  161.3450  206.0160  153.0270 N   0  0  0  0  0  0  0  0  0  0  0  0
  161.2030  204.6170  150.9890 N   0  0  0  0  0  0  0  0  0  0  0  0
  161.8150  210.7050  149.9190 C   0  0  0  0  0  3  0  0  0  0  0  0
  161.1940  202.3350  147.3290 C   0  0  0  0  0  2  0  0  0  0  0  0
  159.6430  201.8640  149.0850 O   0  0  0  0  0  0  0  0  0  0  0  0
  161.1250  209.7770  151.9690 F   0  0  0  0  0  0  0  0  0  0  0  0
  161.9840  206.9150  148.1430 C   0  0  0  0  0  0  0  0  0  0  0  0
  162.2020  210.5780  148.5860 C   0  0  0  0  0  3  0  0  0  0  0  0
  161.5430  208.2840  150.0990 C   0  0  0  0  0  0  0  0  0  0  0  0
  161.6400  205.7820  148.8250 C   0  0  0  0  0  0  0  0  0  0  0  0
  163.8770  204.5470  146.7730 C   0  0  0  0  0  1  0  0  0  0  0  0
  161.7760  204.6200  148.0080 N   0  0  0  0  0  0  0  0  0  0  0  0
  160.2240  201.3360  147.9130 C   0  0  0  0  0  2  0  0  0  0  0  0
  161.6520  202.3270  150.7920 O   0  0  0  0  0  0  0  0  0  0  0  0
  162.2620  209.3190  147.9960 C   0  0  0  0  0  3  0  0  0  0  0  0
  161.9330  208.1760  148.7350 C   0  0  0  0  0  0  0  0  0  0  0  0
  161.0160  203.3330  150.3730 C   0  0  0  0  0  0  0  0  0  0  0  0
  161.5810  206.1800  154.4540 C   0  0  0  0  0  2  0  0  0  0  0  0
  160.0600  207.3180  156.0380 C   0  0  0  0  0  1  0  0  0  0  0  0
  161.0540  207.5260  154.9150 C   0  0  0  0  0  2  0  0  0  0  0  0
  1  5  1  0  0  0  0
  2 16  1  0  0  0  0
  3 10  1  0  0  0  0
  3 17  1  0  0  0  0
  4  1  1  0  0  0  0
  4 12  1  0  0  0  0
  5 11  1  0  0  0  0
  7 15  1  6  0  0  0
  7 27  1  0  0  0  0
  8 11  1  0  0  0  0
  8  6  2  0  0  0  0
  9 14  1  1  0  0  0
  9 22  1  0  0  0  0
  9  7  1  0  0  0  0
 10 21  1  1  0  0  0
 10 22  1  0  0  0  0
 11 28  1  0  0  0  0
 12  8  1  0  0  0  0
 13  2  2  0  0  0  0
 14 23  1  0  0  0  0
 17 26  2  0  0  0  0
 17 20  1  0  0  0  0
 18 13  1  0  0  0  0
 19  2  1  0  0  0  0
 19  1  2  0  0  0  0
 20  4  2  0  0  0  0
 22 20  1  0  0  0  0
 23 15  1  0  0  0  0
 25 18  2  0  0  0  0
 25 26  1  0  0  0  0
 26 19  1  0  0  0  0
 27 24  2  0  0  0  0
 27 12  1  0  0  0  0
 28 30  1  0  0  0  0
 30 29  1  0  0  0  0
M  END
>  <MODEL>
4

>  <REMARK>
 VINA RESULT:      -5.7      2.733      6.800
  Name = 
  2 active torsions:
  status: ('A' for Active; 'I' for Inactive)
    1  A    between atoms: N_11  and  C_28
    2  A    between atoms: C_28  and  C_30
                            x       y       z     vdW  Elec       q    Type
                         _______ _______ _______ _____ _____    ______ ____

>  <TORSDO>
F 2

$$$$
=
 OpenBabel11122412333D

 30 35  0  0  1  0  0  0  0  0999 V2000
  160.9920  207.9370  151.3160 C   0  0  0  0  0  0  0  0  0  0  0  0
  161.4050  205.6250  150.4620 C   0  0  0  0  0  0  0  0  0  0  0  0
  160.7030  206.5640  155.3420 C   0  0  0  0  0  2  0  0  0  0  0  0
  160.7140  208.8000  152.4130 C   0  0  0  0  0  0  0  0  0  0  0  0
  161.0800  208.5380  149.9380 C   0  0  0  0  0  2  0  0  0  0  0  0
  161.5810  211.9930  150.9040 O   0  0  0  0  0  0  0  0  0  0  0  0
  158.9710  210.8010  153.9420 C   0  0  1  0  0  3  0  0  0  0  0  0
  161.3580  210.7560  151.0290 C   0  0  0  0  0  0  0  0  0  0  0  0
  159.1600  209.8080  155.0710 C   0  0  2  0  0  3  0  0  0  0  0  0
  160.5630  207.9470  155.9960 C   0  0  1  0  0  3  0  0  0  0  0  0
  161.6990  209.8560  149.9700 N   0  0  0  0  0  0  0  0  0  0  0  0
  160.7530  210.2350  152.2260 N   0  0  0  0  0  0  0  0  0  0  0  0
  161.5740  204.2630  150.7270 C   0  0  0  0  0  3  0  0  0  0  0  0
  159.3080  210.6940  156.2640 C   0  0  0  0  0  2  0  0  0  0  0  0
  158.3870  211.9730  154.4670 O   0  0  0  0  0  0  0  0  0  0  0  0
  161.5140  206.0300  149.1730 F   0  0  0  0  0  0  0  0  0  0  0  0
  160.7710  206.8860  153.8930 C   0  0  0  0  0  0  0  0  0  0  0  0
  161.4830  203.7740  152.0290 C   0  0  0  0  0  3  0  0  0  0  0  0
  161.1390  206.5330  151.5190 C   0  0  0  0  0  0  0  0  0  0  0  0
  160.5620  208.2210  153.6890 C   0  0  0  0  0  0  0  0  0  0  0  0
  161.8600  208.3060  156.6980 C   0  0  0  0  0  1  0  0  0  0  0  0
  160.3040  208.9020  154.9160 N   0  0  0  0  0  0  0  0  0  0  0  0
  158.4920  211.9030  155.8720 C   0  0  0  0  0  2  0  0  0  0  0  0
  160.8830  212.1800  153.5230 O   0  0  0  0  0  0  0  0  0  0  0  0
  161.2200  204.6460  153.0820 C   0  0  0  0  0  3  0  0  0  0  0  0
  161.0440  206.0140  152.8400 C   0  0  0  0  0  0  0  0  0  0  0  0
  160.2470  211.1320  153.2270 C   0  0  0  0  0  0  0  0  0  0  0  0
  162.4090  210.3150  148.7850 C   0  0  0  0  0  2  0  0  0  0  0  0
  162.5410  212.4950  147.6240 C   0  0  0  0  0  1  0  0  0  0  0  0
  161.6080  211.3960  148.0870 C   0  0  0  0  0  2  0  0  0  0  0  0
  1 19  2  0  0  0  0
  1  4  1  0  0  0  0
  2 13  2  0  0  0  0
  2 19  1  0  0  0  0
  3 10  1  0  0  0  0
  4 20  2  0  0  0  0
  5 11  1  0  0  0  0
  5  1  1  0  0  0  0
  6  8  2  0  0  0  0
  7 27  1  1  0  0  0
  7 15  1  0  0  0  0
  7  9  1  0  0  0  0
  8 12  1  0  0  0  0
  9 14  1  1  0  0  0
 10 21  1  6  0  0  0
 11  8  1  0  0  0  0
 12  4  1  0  0  0  0
 12 27  1  0  0  0  0
 13 18  1  0  0  0  0
 15 23  1  0  0  0  0
 16  2  1  0  0  0  0
 17  3  1  0  0  0  0
 18 25  2  0  0  0  0
 19 26  1  0  0  0  0
 20 17  1  0  0  0  0
 20 22  1  0  0  0  0
 22  9  1  0  0  0  0
 22 10  1  0  0  0  0
 23 14  1  0  0  0  0
 26 25  1  0  0  0  0
 26 17  2  0  0  0  0
 27 24  2  0  0  0  0
 28 11  1  0  0  0  0
 29 30  1  0  0  0  0
 30 28  1  0  0  0  0
M  END
>  <MODEL>
5

>  <REMARK>
 VINA RESULT:      -5.2      2.463      5.030
  Name = 
  2 active torsions:
  status: ('A' for Active; 'I' for Inactive)
    1  A    between atoms: N_11  and  C_28
    2  A    between atoms: C_28  and  C_30
                            x       y       z     vdW  Elec       q    Type
                         _______ _______ _______ _____ _____    ______ ____

>  <TORSDO>
F 2

$$$$
=
 OpenBabel11122412333D

 30 35  0  0  1  0  0  0  0  0999 V2000
  161.2270  210.0510  150.8580 C   0  0  0  0  0  0  0  0  0  0  0  0
  162.2940  207.7980  150.6740 C   0  0  0  0  0  0  0  0  0  0  0  0
  160.1240  209.3650  154.9180 C   0  0  0  0  0  2  0  0  0  0  0  0
  160.5010  210.9950  151.6350 C   0  0  0  0  0  0  0  0  0  0  0  0
  161.5700  210.4070  149.4360 C   0  0  0  0  0  2  0  0  0  0  0  0
  161.1140  213.9930  149.6700 O   0  0  0  0  0  0  0  0  0  0  0  0
  158.0560  212.7420  152.2290 C   0  0  1  0  0  3  0  0  0  0  0  0
  161.1070  212.7800  150.0220 C   0  0  0  0  0  0  0  0  0  0  0  0
  158.1190  212.0360  153.5680 C   0  0  2  0  0  3  0  0  0  0  0  0
  159.5470  210.7630  155.1890 C   0  0  1  0  0  3  0  0  0  0  0  0
  161.8910  211.8210  149.3040 N   0  0  0  0  0  0  0  0  0  0  0  0
  160.3120  212.3410  151.1380 N   0  0  0  0  0  0  0  0  0  0  0  0
  162.6430  206.5850  151.2760 C   0  0  0  0  0  3  0  0  0  0  0  0
  157.7620  213.1240  154.5280 C   0  0  0  0  0  2  0  0  0  0  0  0
  157.1370  213.8080  152.3250 O   0  0  0  0  0  0  0  0  0  0  0  0
  162.6690  207.9880  149.3850 F   0  0  0  0  0  0  0  0  0  0  0  0
  160.5200  209.4390  153.4880 C   0  0  0  0  0  0  0  0  0  0  0  0
  162.2970  206.3220  152.6000 C   0  0  0  0  0  3  0  0  0  0  0  0
  161.5810  208.7810  151.4060 C   0  0  0  0  0  0  0  0  0  0  0  0
  160.1210  210.6260  152.9420 C   0  0  0  0  0  0  0  0  0  0  0  0
  160.5100  211.5450  156.0640 C   0  0  0  0  0  1  0  0  0  0  0  0
  159.4130  211.4250  153.8890 N   0  0  0  0  0  0  0  0  0  0  0  0
  156.8670  214.0100  153.6950 C   0  0  0  0  0  2  0  0  0  0  0  0
  159.7070  214.4530  151.9490 O   0  0  0  0  0  0  0  0  0  0  0  0
  161.5950  207.2720  153.3370 C   0  0  0  0  0  3  0  0  0  0  0  0
  161.2310  208.4910  152.7540 C   0  0  0  0  0  0  0  0  0  0  0  0
  159.3900  213.2460  151.7650 C   0  0  0  0  0  0  0  0  0  0  0  0
  162.7940  212.2280  148.2370 C   0  0  0  0  0  2  0  0  0  0  0  0
  162.3660  213.9390  146.5030 C   0  0  0  0  0  1  0  0  0  0  0  0
  162.0050  212.5500  146.9830 C   0  0  0  0  0  2  0  0  0  0  0  0
  1 19  2  0  0  0  0
  1  4  1  0  0  0  0
  2 13  2  0  0  0  0
  2 19  1  0  0  0  0
  3 10  1  0  0  0  0
  4 20  2  0  0  0  0
  5  1  1  0  0  0  0
  6  8  2  0  0  0  0
  7 27  1  1  0  0  0
  7 15  1  0  0  0  0
  7  9  1  0  0  0  0
  8 12  1  0  0  0  0
  9 22  1  0  0  0  0
  9 14  1  1  0  0  0
 10 21  1  1  0  0  0
 11  5  1  0  0  0  0
 11  8  1  0  0  0  0
 12  4  1  0  0  0  0
 12 27  1  0  0  0  0
 13 18  1  0  0  0  0
 15 23  1  0  0  0  0
 16  2  1  0  0  0  0
 17  3  1  0  0  0  0
 18 25  2  0  0  0  0
 19 26  1  0  0  0  0
 20 17  1  0  0  0  0
 20 22  1  0  0  0  0
 22 10  1  0  0  0  0
 23 14  1  0  0  0  0
 26 25  1  0  0  0  0
 26 17  2  0  0  0  0
 27 24  2  0  0  0  0
 28 11  1  0  0  0  0
 29 30  1  0  0  0  0
 30 28  1  0  0  0  0
M  END
>  <MODEL>
6

>  <REMARK>
 VINA RESULT:      -5.1      3.212      5.308
  Name = 
  2 active torsions:
  status: ('A' for Active; 'I' for Inactive)
    1  A    between atoms: N_11  and  C_28
    2  A    between atoms: C_28  and  C_30
                            x       y       z     vdW  Elec       q    Type
                         _______ _______ _______ _____ _____    ______ ____

>  <TORSDO>
F 2

$$$$
=
 OpenBabel11122412333D

 30 35  0  0  1  0  0  0  0  0999 V2000
  160.5870  210.4140  151.6300 C   0  0  0  0  0  0  0  0  0  0  0  0
  161.8520  208.4780  150.6830 C   0  0  0  0  0  0  0  0  0  0  0  0
  160.3930  208.6000  155.4830 C   0  0  0  0  0  2  0  0  0  0  0  0
  159.9230  211.0110  152.7370 C   0  0  0  0  0  0  0  0  0  0  0  0
  160.5990  211.1540  150.3180 C   0  0  0  0  0  2  0  0  0  0  0  0
  159.7830  214.4530  151.5700 O   0  0  0  0  0  0  0  0  0  0  0  0
  157.4560  212.1400  154.1600 C   0  0  1  0  0  3  0  0  0  0  0  0
  159.9880  213.2070  151.5830 C   0  0  0  0  0  0  0  0  0  0  0  0
  157.8640  211.1530  155.2340 C   0  0  2  0  0  3  0  0  0  0  0  0
  159.7220  209.7780  156.2050 C   0  0  1  0  0  3  0  0  0  0  0  0
  160.7210  212.5910  150.5190 N   0  0  0  0  0  0  0  0  0  0  0  0
  159.4840  212.3880  152.6540 N   0  0  0  0  0  0  0  0  0  0  0  0
  162.4520  207.2290  150.8750 C   0  0  0  0  0  3  0  0  0  0  0  0
  157.5790  211.9030  156.4930 C   0  0  0  0  0  2  0  0  0  0  0  0
  156.4570  212.9870  154.6820 O   0  0  0  0  0  0  0  0  0  0  0  0
  161.9410  209.0310  149.4490 F   0  0  0  0  0  0  0  0  0  0  0  0
  160.4880  209.0790  154.0800 C   0  0  0  0  0  0  0  0  0  0  0  0
  162.4070  206.6020  152.1190 C   0  0  0  0  0  3  0  0  0  0  0  0
  161.1870  209.1250  151.7550 C   0  0  0  0  0  0  0  0  0  0  0  0
  159.8540  210.2820  153.9410 C   0  0  0  0  0  0  0  0  0  0  0  0
  160.7400  210.4720  157.0910 C   0  0  0  0  0  1  0  0  0  0  0  0
  159.2580  210.7020  155.1680 N   0  0  0  0  0  0  0  0  0  0  0  0
  156.4400  212.8060  156.0810 C   0  0  0  0  0  2  0  0  0  0  0  0
  158.8090  214.1150  154.0850 O   0  0  0  0  0  0  0  0  0  0  0  0
  161.7580  207.2180  153.1850 C   0  0  0  0  0  3  0  0  0  0  0  0
  161.1460  208.4660  153.0150 C   0  0  0  0  0  0  0  0  0  0  0  0
  158.6050  212.9520  153.6390 C   0  0  0  0  0  0  0  0  0  0  0  0
  161.3420  213.3840  149.4690 C   0  0  0  0  0  2  0  0  0  0  0  0
  163.0910  212.5670  147.9210 C   0  0  0  0  0  1  0  0  0  0  0  0
  161.6150  212.5170  148.2550 C   0  0  0  0  0  2  0  0  0  0  0  0
  1 19  2  0  0  0  0
  1  4  1  0  0  0  0
  2 13  2  0  0  0  0
  2 19  1  0  0  0  0
  3 10  1  0  0  0  0
  4 20  2  0  0  0  0
  5 11  1  0  0  0  0
  5  1  1  0  0  0  0
  6  8  2  0  0  0  0
  7 27  1  1  0  0  0
  7 15  1  0  0  0  0
  7  9  1  0  0  0  0
  8 12  1  0  0  0  0
  9 14  1  1  0  0  0
 10 21  1  1  0  0  0
 11  8  1  0  0  0  0
 12  4  1  0  0  0  0
 12 27  1  0  0  0  0
 13 18  1  0  0  0  0
 15 23  1  0  0  0  0
 16  2  1  0  0  0  0
 17  3  1  0  0  0  0
 18 25  2  0  0  0  0
 19 26  1  0  0  0  0
 20 17  1  0  0  0  0
 20 22  1  0  0  0  0
 22  9  1  0  0  0  0
 22 10  1  0  0  0  0
 23 14  1  0  0  0  0
 26 25  1  0  0  0  0
 26 17  2  0  0  0  0
 27 24  2  0  0  0  0
 28 11  1  0  0  0  0
 29 30  1  0  0  0  0
 30 28  1  0  0  0  0
M  END
>  <MODEL>
7

>  <REMARK>
 VINA RESULT:      -5.0      3.098      5.144
  Name = 
  2 active torsions:
  status: ('A' for Active; 'I' for Inactive)
    1  A    between atoms: N_11  and  C_28
    2  A    between atoms: C_28  and  C_30
                            x       y       z     vdW  Elec       q    Type
                         _______ _______ _______ _____ _____    ______ ____

>  <TORSDO>
F 2

$$$$
=
 OpenBabel11122412333D

 30 35  0  0  1  0  0  0  0  0999 V2000
  161.0280  206.2950  150.3810 C   0  0  0  0  0  0  0  0  0  0  0  0
  160.8350  203.8050  150.3060 C   0  0  0  0  0  0  0  0  0  0  0  0
  160.8990  206.3320  154.6410 C   0  0  0  0  0  2  0  0  0  0  0  0
  161.0670  207.4920  151.1480 C   0  0  0  0  0  0  0  0  0  0  0  0
  161.0900  206.4060  148.8800 C   0  0  0  0  0  2  0  0  0  0  0  0
  162.4290  209.7640  148.6560 O   0  0  0  0  0  0  0  0  0  0  0  0
  159.9780  210.2230  152.0100 C   0  0  1  0  0  3  0  0  0  0  0  0
  161.9600  208.7170  149.1840 C   0  0  0  0  0  0  0  0  0  0  0  0
  160.0730  209.6080  153.3920 C   0  0  2  0  0  3  0  0  0  0  0  0
  161.1340  207.8400  154.8180 C   0  0  1  0  0  3  0  0  0  0  0  0
  161.9780  207.4800  148.4620 N   0  0  0  0  0  0  0  0  0  0  0  0
  161.3930  208.7480  150.5060 N   0  0  0  0  0  0  0  0  0  0  0  0
  160.7330  202.5900  150.9920 C   0  0  0  0  0  3  0  0  0  0  0  0
  160.5400  210.7540  154.2280 C   0  0  0  0  0  2  0  0  0  0  0  0
  159.7230  211.6030  152.1490 O   0  0  0  0  0  0  0  0  0  0  0  0
  160.8840  203.7570  148.9530 F   0  0  0  0  0  0  0  0  0  0  0  0
  160.8730  206.1690  153.1650 C   0  0  0  0  0  0  0  0  0  0  0  0
  160.6850  202.5610  152.3840 C   0  0  0  0  0  3  0  0  0  0  0  0
  160.8900  205.0280  151.0220 C   0  0  0  0  0  0  0  0  0  0  0  0
  160.9360  207.3860  152.5480 C   0  0  0  0  0  0  0  0  0  0  0  0
  162.5480  208.0740  155.3180 C   0  0  0  0  0  1  0  0  0  0  0  0
  160.9690  208.4520  153.4970 N   0  0  0  0  0  0  0  0  0  0  0  0
  159.9660  211.9440  153.4960 C   0  0  0  0  0  2  0  0  0  0  0  0
  162.0840  210.9060  151.0980 O   0  0  0  0  0  0  0  0  0  0  0  0
  160.7350  203.7490  153.1070 C   0  0  0  0  0  3  0  0  0  0  0  0
  160.8320  204.9770  152.4420 C   0  0  0  0  0  0  0  0  0  0  0  0
  161.2070  210.0020  151.1810 C   0  0  0  0  0  0  0  0  0  0  0  0
  162.6340  207.3700  147.1670 C   0  0  0  0  0  2  0  0  0  0  0  0
  163.0750  205.0790  146.3450 C   0  0  0  0  0  1  0  0  0  0  0  0
  162.0590  206.2010  146.3910 C   0  0  0  0  0  2  0  0  0  0  0  0
  1 19  2  0  0  0  0
  1  4  1  0  0  0  0
  2 13  2  0  0  0  0
  2 19  1  0  0  0  0
  3 10  1  0  0  0  0
  4 20  2  0  0  0  0
  5  1  1  0  0  0  0
  6  8  2  0  0  0  0
  7 27  1  1  0  0  0
  7 15  1  0  0  0  0
  7  9  1  0  0  0  0
  8 12  1  0  0  0  0
  9 22  1  0  0  0  0
  9 14  1  1  0  0  0
 10 21  1  6  0  0  0
 11  5  1  0  0  0  0
 11  8  1  0  0  0  0
 12  4  1  0  0  0  0
 12 27  1  0  0  0  0
 13 18  1  0  0  0  0
 15 23  1  0  0  0  0
 16  2  1  0  0  0  0
 17  3  1  0  0  0  0
 18 25  2  0  0  0  0
 19 26  1  0  0  0  0
 20 17  1  0  0  0  0
 20 22  1  0  0  0  0
 22 10  1  0  0  0  0
 23 14  1  0  0  0  0
 24 27  2  0  0  0  0
 26 25  1  0  0  0  0
 26 17  2  0  0  0  0
 28 11  1  0  0  0  0
 29 30  1  0  0  0  0
 30 28  1  0  0  0  0
M  END
>  <MODEL>
8

>  <REMARK>
 VINA RESULT:      -4.7      2.769      5.397
  Name = 
  2 active torsions:
  status: ('A' for Active; 'I' for Inactive)
    1  A    between atoms: N_11  and  C_28
    2  A    between atoms: C_28  and  C_30
                            x       y       z     vdW  Elec       q    Type
                         _______ _______ _______ _____ _____    ______ ____

>  <TORSDO>
F 2

$$$$
=
 OpenBabel11122412333D

 30 35  0  0  1  0  0  0  0  0999 V2000
  157.3620  211.7040  138.7110 C   0  0  0  0  0  0  0  0  0  0  0  0
  155.1770  212.8140  139.1990 C   0  0  0  0  0  0  0  0  0  0  0  0
  159.3340  213.8820  141.8000 C   0  0  0  0  0  2  0  0  0  0  0  0
  158.7510  211.5720  138.9900 C   0  0  0  0  0  0  0  0  0  0  0  0
  156.7730  210.8740  137.6010 C   0  0  0  0  0  2  0  0  0  0  0  0
  159.3920  208.3840  137.3610 O   0  0  0  0  0  0  0  0  0  0  0  0
  161.7160  211.7440  138.2420 C   0  0  1  0  0  3  0  0  0  0  0  0
  158.7900  209.4250  137.7450 C   0  0  0  0  0  0  0  0  0  0  0  0
  161.7840  212.5950  139.4930 C   0  0  2  0  0  3  0  0  0  0  0  0
  160.6960  213.1830  141.6750 C   0  0  1  0  0  3  0  0  0  0  0  0
  157.3780  209.5510  137.5460 N   0  0  0  0  0  0  0  0  0  0  0  0
  159.5080  210.5010  138.3770 N   0  0  0  0  0  0  0  0  0  0  0  0
  154.4380  213.7160  139.9710 C   0  0  0  0  0  3  0  0  0  0  0  0
  163.0860  212.1860  140.0980 C   0  0  0  0  0  2  0  0  0  0  0  0
  163.0320  211.4560  137.8230 O   0  0  0  0  0  0  0  0  0  0  0  0
  154.5170  212.1310  138.2320 F   0  0  0  0  0  0  0  0  0  0  0  0
  158.5300  213.2420  140.7260 C   0  0  0  0  0  0  0  0  0  0  0  0
  155.0470  214.4500  140.9870 C   0  0  0  0  0  3  0  0  0  0  0  0
  156.5630  212.6330  139.4410 C   0  0  0  0  0  0  0  0  0  0  0  0
  159.3100  212.4030  139.9810 C   0  0  0  0  0  0  0  0  0  0  0  0
  160.8890  212.2410  142.8490 C   0  0  0  0  0  1  0  0  0  0  0  0
  160.6660  212.4170  140.4270 N   0  0  0  0  0  0  0  0  0  0  0  0
  163.8960  211.7930  138.8850 C   0  0  0  0  0  2  0  0  0  0  0  0
  161.5510  209.3930  138.6670 O   0  0  0  0  0  0  0  0  0  0  0  0
  156.4060  214.2900  141.2410 C   0  0  0  0  0  3  0  0  0  0  0  0
  157.1670  213.3960  140.4790 C   0  0  0  0  0  0  0  0  0  0  0  0
  160.9430  210.4740  138.4330 C   0  0  0  0  0  0  0  0  0  0  0  0
  156.5880  208.4520  137.0110 C   0  0  0  0  0  2  0  0  0  0  0  0
  154.8310  208.0040  138.6940 C   0  0  0  0  0  1  0  0  0  0  0  0
  155.1240  208.6490  137.3560 C   0  0  0  0  0  2  0  0  0  0  0  0
  1  4  2  0  0  0  0
  1 19  1  0  0  0  0
  2 19  2  0  0  0  0
  2 13  1  0  0  0  0
  4 20  1  0  0  0  0
  5  1  1  0  0  0  0
  6  8  2  0  0  0  0
  7 15  1  1  0  0  0
  7 27  1  0  0  0  0
  7  9  1  0  0  0  0
  8 12  1  0  0  0  0
  9 14  1  1  0  0  0
  9 22  1  0  0  0  0
 10  3  1  0  0  0  0
 10 21  1  1  0  0  0
 11  5  1  0  0  0  0
 11  8  1  0  0  0  0
 12 27  1  0  0  0  0
 12  4  1  0  0  0  0
 13 18  2  0  0  0  0
 15 23  1  0  0  0  0
 16  2  1  0  0  0  0
 17  3  1  0  0  0  0
 18 25  1  0  0  0  0
 19 26  1  0  0  0  0
 20 22  1  0  0  0  0
 20 17  2  0  0  0  0
 22 10  1  0  0  0  0
 23 14  1  0  0  0  0
 26 17  1  0  0  0  0
 26 25  2  0  0  0  0
 27 24  2  0  0  0  0
 28 30  1  0  0  0  0
 28 11  1  0  0  0  0
 30 29  1  0  0  0  0
M  END
>  <MODEL>
9

>  <REMARK>
 VINA RESULT:      -4.2     11.160     13.871
  Name = 
  2 active torsions:
  status: ('A' for Active; 'I' for Inactive)
    1  A    between atoms: N_11  and  C_28
    2  A    between atoms: C_28  and  C_30
                            x       y       z     vdW  Elec       q    Type
                         _______ _______ _______ _____ _____    ______ ____

>  <TORSDO>
F 2

$$$$
