=
 OpenBabel11122413463D

 37 43  0  0  1  0  0  0  0  0999 V2000
  162.2860  205.0750  146.5960 C   0  0  0  0  0  0  0  0  0  0  0  0
  161.0520  206.2430  150.4310 C   0  0  0  0  0  0  0  0  0  0  0  0
  162.3220  209.7560  151.5370 O   0  0  0  0  0  0  0  0  0  0  0  0
  161.2030  204.4290  148.8460 C   0  0  0  0  0  0  0  0  0  0  0  0
  161.2790  207.7150  150.3920 C   0  0  1  0  0  3  0  0  0  0  0  0
  161.2440  205.7790  149.1650 C   0  0  0  0  0  0  0  0  0  0  0  0
  161.9260  208.3780  151.6630 C   0  0  2  0  0  3  0  0  0  0  0  0
  160.7940  203.5310  149.8420 C   0  0  0  0  0  3  0  0  0  0  0  0
  161.6300  206.8570  148.2500 C   0  0  2  0  0  3  0  0  0  0  0  0
  161.2030  205.4480  145.5960 C   0  0  0  0  0  1  0  0  0  0  0  0
  160.3910  205.8050  152.7900 N   0  0  0  0  0  2  0  0  0  0  0  0
  160.4850  204.0070  151.1330 C   0  0  0  0  0  3  0  0  0  0  0  0
  162.7530  206.3370  147.3580 C   0  0  0  0  0  2  0  0  0  0  0  0
  161.9940  211.6240  149.8820 C   0  0  1  0  0  3  0  0  0  0  0  0
  161.5410  210.3540  150.5430 C   0  0  1  0  0  3  0  0  0  0  0  0
  160.6350  205.3720  151.4500 C   0  0  0  0  0  0  0  0  0  0  0  0
  162.0520  207.9410  149.1410 N   0  0  1  0  0  0  0  0  0  0  0  0
  161.7490  203.9530  147.5240 C   0  0  0  0  0  2  0  0  0  0  0  0
  161.0040  208.1880  152.8810 C   0  0  1  0  0  3  0  0  0  0  0  0
  163.4650  204.5230  145.8240 C   0  0  0  0  0  1  0  0  0  0  0  0
  162.4480  210.2770  149.3270 C   0  0  1  0  0  3  0  0  0  0  0  0
  161.6780  209.2310  148.5510 C   0  0  0  0  0  2  0  0  0  0  0  0
  161.1970  206.8020  153.4770 C   0  0  0  0  0  2  0  0  0  0  0  0
  160.6370  210.4910  153.7840 C   0  0  0  0  0  3  0  0  0  0  0  0
  161.2040  209.2240  153.9510 C   0  0  0  0  0  0  0  0  0  0  0  0
  161.9660  208.9500  155.0990 C   0  0  0  0  0  3  0  0  0  0  0  0
  162.9020  209.6630  157.2050 O   0  0  0  0  0  1  0  0  0  0  0  0
  161.5780  211.2020  155.8990 C   0  0  0  0  0  3  0  0  0  0  0  0
  162.1500  209.9380  156.0710 C   0  0  0  0  0  0  0  0  0  0  0  0
  160.8230  211.4790  154.7570 C   0  0  0  0  0  3  0  0  0  0  0  0
  158.9720  213.2210  147.1230 O   0  0  0  0  0  0  0  0  0  0  0  0
  160.0250  212.6730  146.7000 C   0  0  0  0  0  0  0  0  0  0  0  0
  160.9000  212.2080  149.0460 C   0  0  0  0  0  0  0  0  0  0  0  0
  161.0010  212.1610  147.6170 N   0  0  0  0  0  2  0  0  0  0  0  0
  159.9190  212.7680  149.6060 O   0  0  0  0  0  0  0  0  0  0  0  0
  159.1410  212.5310  144.4110 C   0  0  0  0  0  1  0  0  0  0  0  0
  160.2260  212.5700  145.3240 O   0  0  0  0  0  0  0  0  0  0  0  0
  1 13  1  0  0  0  0
  1 18  1  0  0  0  0
  2 16  1  0  0  0  0
  4  6  1  0  0  0  0
  4  8  2  0  0  0  0
  5  2  1  1  0  0  0
  5  7  1  0  0  0  0
  6  2  2  0  0  0  0
  7  3  1  6  0  0  0
  7 19  1  0  0  0  0
  8 12  1  0  0  0  0
  9 13  1  6  0  0  0
  9 17  1  0  0  0  0
  9  6  1  0  0  0  0
 10  1  1  0  0  0  0
 11 23  1  0  0  0  0
 12 16  2  0  0  0  0
 14 33  1  6  0  0  0
 14 15  1  0  0  0  0
 15  3  1  1  0  0  0
 16 11  1  0  0  0  0
 17 22  1  6  0  0  0
 17  5  1  0  0  0  0
 18  4  1  0  0  0  0
 19 23  1  0  0  0  0
 19 25  1  1  0  0  0
 20  1  1  0  0  0  0
 21 22  1  6  0  0  0
 21 14  1  0  0  0  0
 21 15  1  0  0  0  0
 24 25  2  0  0  0  0
 24 30  1  0  0  0  0
 25 26  1  0  0  0  0
 26 29  2  0  0  0  0
 28 29  1  0  0  0  0
 29 27  1  0  0  0  0
 30 28  2  0  0  0  0
 32 31  2  0  0  0  0
 32 34  1  0  0  0  0
 33 35  2  0  0  0  0
 34 33  1  0  0  0  0
 36 37  1  0  0  0  0
 37 32  1  0  0  0  0
M  END
>  <MODEL>
1

>  <REMARK>
 VINA RESULT:      -9.6      0.000      0.000
  Name = 
  3 active torsions:
  status: ('A' for Active; 'I' for Inactive)
    1  A    between atoms: C_4  and  O_37
    2  A    between atoms: C_8  and  C_18
    3  A    between atoms: C_23  and  C_30
                            x       y       z     vdW  Elec       q    Type
                         _______ _______ _______ _____ _____    ______ ____

>  <TORSDO>
F 3

$$$$
=
 OpenBabel11122413463D

 37 43  0  0  1  0  0  0  0  0999 V2000
  162.2740  205.1200  146.5750 C   0  0  0  0  0  0  0  0  0  0  0  0
  161.0560  206.2890  150.4150 C   0  0  0  0  0  0  0  0  0  0  0  0
  162.3180  209.8080  151.5100 O   0  0  0  0  0  0  0  0  0  0  0  0
  161.2050  204.4730  148.8310 C   0  0  0  0  0  0  0  0  0  0  0  0
  161.2770  207.7610  150.3720 C   0  0  1  0  0  3  0  0  0  0  0  0
  161.2430  205.8240  149.1480 C   0  0  0  0  0  0  0  0  0  0  0  0
  161.9280  208.4290  151.6400 C   0  0  2  0  0  3  0  0  0  0  0  0
  160.8050  203.5750  149.8310 C   0  0  0  0  0  3  0  0  0  0  0  0
  161.6200  206.9020  148.2300 C   0  0  2  0  0  3  0  0  0  0  0  0
  161.1850  205.4880  145.5800 C   0  0  0  0  0  1  0  0  0  0  0  0
  160.4090  205.8520  152.7780 N   0  0  0  0  0  2  0  0  0  0  0  0
  160.5000  204.0520  151.1230 C   0  0  0  0  0  3  0  0  0  0  0  0
  162.7410  206.3850  147.3330 C   0  0  0  0  0  2  0  0  0  0  0  0
  161.9750  211.6730  149.8540 C   0  0  1  0  0  3  0  0  0  0  0  0
  161.5300  210.4010  150.5190 C   0  0  1  0  0  3  0  0  0  0  0  0
  160.6470  205.4170  151.4380 C   0  0  0  0  0  0  0  0  0  0  0  0
  162.0430  207.9890  149.1170 N   0  0  1  0  0  0  0  0  0  0  0  0
  161.7460  203.9970  147.5070 C   0  0  0  0  0  2  0  0  0  0  0  0
  161.0130  208.2370  152.8620 C   0  0  1  0  0  3  0  0  0  0  0  0
  163.4510  204.5710  145.7970 C   0  0  0  0  0  1  0  0  0  0  0  0
  162.4310  210.3270  149.2980 C   0  0  1  0  0  3  0  0  0  0  0  0
  161.6600  209.2760  148.5270 C   0  0  0  0  0  2  0  0  0  0  0  0
  161.2140  206.8530  153.4590 C   0  0  0  0  0  2  0  0  0  0  0  0
  160.6410  210.5390  153.7650 C   0  0  0  0  0  3  0  0  0  0  0  0
  161.2150  209.2750  153.9300 C   0  0  0  0  0  0  0  0  0  0  0  0
  161.9850  209.0060  155.0730 C   0  0  0  0  0  3  0  0  0  0  0  0
  162.9310  209.7270  157.1730 O   0  0  0  0  0  1  0  0  0  0  0  0
  161.5920  211.2570  155.8740 C   0  0  0  0  0  3  0  0  0  0  0  0
  162.1710  209.9960  156.0430 C   0  0  0  0  0  0  0  0  0  0  0  0
  160.8280  211.5290  154.7360 C   0  0  0  0  0  3  0  0  0  0  0  0
  158.5860  213.4900  147.7300 O   0  0  0  0  0  0  0  0  0  0  0  0
  158.6540  213.4980  148.9880 C   0  0  0  0  0  0  0  0  0  0  0  0
  160.8750  212.2510  149.0220 C   0  0  0  0  0  0  0  0  0  0  0  0
  159.7670  212.8970  149.6630 N   0  0  0  0  0  2  0  0  0  0  0  0
  160.9140  212.1300  147.7670 O   0  0  0  0  0  0  0  0  0  0  0  0
  156.2650  213.7940  149.4830 C   0  0  0  0  0  1  0  0  0  0  0  0
  157.6310  214.1030  149.7150 O   0  0  0  0  0  0  0  0  0  0  0  0
  1 13  1  0  0  0  0
  1 18  1  0  0  0  0
  2 16  1  0  0  0  0
  4  6  1  0  0  0  0
  4  8  2  0  0  0  0
  5  2  1  1  0  0  0
  5  7  1  0  0  0  0
  6  2  2  0  0  0  0
  7  3  1  6  0  0  0
  7 19  1  0  0  0  0
  8 12  1  0  0  0  0
  9 13  1  6  0  0  0
  9 17  1  0  0  0  0
  9  6  1  0  0  0  0
 10  1  1  0  0  0  0
 11 23  1  0  0  0  0
 12 16  2  0  0  0  0
 14 33  1  6  0  0  0
 14 15  1  0  0  0  0
 15  3  1  1  0  0  0
 16 11  1  0  0  0  0
 17 22  1  6  0  0  0
 17  5  1  0  0  0  0
 18  4  1  0  0  0  0
 19 23  1  0  0  0  0
 19 25  1  1  0  0  0
 20  1  1  0  0  0  0
 21 22  1  6  0  0  0
 21 14  1  0  0  0  0
 21 15  1  0  0  0  0
 24 25  2  0  0  0  0
 24 30  1  0  0  0  0
 25 26  1  0  0  0  0
 26 29  2  0  0  0  0
 28 29  1  0  0  0  0
 29 27  1  0  0  0  0
 30 28  2  0  0  0  0
 31 32  2  0  0  0  0
 32 34  1  0  0  0  0
 32 37  1  0  0  0  0
 33 34  1  0  0  0  0
 35 33  2  0  0  0  0
 36 37  1  0  0  0  0
M  END
>  <MODEL>
2

>  <REMARK>
 VINA RESULT:      -9.3      1.146      1.502
  Name = 
  3 active torsions:
  status: ('A' for Active; 'I' for Inactive)
    1  A    between atoms: C_4  and  O_37
    2  A    between atoms: C_8  and  C_18
    3  A    between atoms: C_23  and  C_30
                            x       y       z     vdW  Elec       q    Type
                         _______ _______ _______ _____ _____    ______ ____

>  <TORSDO>
F 3

$$$$
=
 OpenBabel11122413463D

 37 43  0  0  1  0  0  0  0  0999 V2000
  160.6620  208.6880  156.0630 C   0  0  0  0  0  0  0  0  0  0  0  0
  159.8520  211.1700  152.7800 C   0  0  0  0  0  0  0  0  0  0  0  0
  162.2500  210.6760  149.7500 O   0  0  0  0  0  0  0  0  0  0  0  0
  159.3850  210.7130  155.1040 C   0  0  0  0  0  0  0  0  0  0  0  0
  160.5790  210.4740  151.6820 C   0  0  1  0  0  3  0  0  0  0  0  0
  159.8900  210.3460  153.8640 C   0  0  0  0  0  0  0  0  0  0  0  0
  161.3960  211.3690  150.6780 C   0  0  2  0  0  3  0  0  0  0  0  0
  158.6720  211.9170  155.1920 C   0  0  0  0  0  3  0  0  0  0  0  0
  160.6430  209.1210  153.5820 C   0  0  2  0  0  3  0  0  0  0  0  0
  159.7950  207.4430  155.9640 C   0  0  0  0  0  1  0  0  0  0  0  0
  159.0410  213.2700  151.7200 N   0  0  0  0  0  2  0  0  0  0  0  0
  158.5280  212.7330  154.0510 C   0  0  0  0  0  3  0  0  0  0  0  0
  161.5290  208.8240  154.7890 C   0  0  0  0  0  2  0  0  0  0  0  0
  162.6220  208.3000  149.0070 C   0  0  1  0  0  3  0  0  0  0  0  0
  161.7430  209.3870  149.5560 C   0  0  1  0  0  3  0  0  0  0  0  0
  159.1400  212.3790  152.8320 C   0  0  0  0  0  0  0  0  0  0  0  0
  161.4030  209.4450  152.3710 N   0  0  1  0  0  0  0  0  0  0  0  0
  159.7520  209.9160  156.3300 C   0  0  0  0  0  2  0  0  0  0  0  0
  160.4450  212.3230  149.9330 C   0  0  1  0  0  3  0  0  0  0  0  0
  161.5870  208.5200  157.2490 C   0  0  0  0  0  1  0  0  0  0  0  0
  162.5860  208.5600  150.5100 C   0  0  1  0  0  3  0  0  0  0  0  0
  161.5120  208.2480  151.5300 C   0  0  0  0  0  2  0  0  0  0  0  0
  160.1330  213.5350  150.7960 C   0  0  0  0  0  2  0  0  0  0  0  0
  162.0670  213.6570  148.5740 C   0  0  0  0  0  3  0  0  0  0  0  0
  160.9780  212.7800  148.6050 C   0  0  0  0  0  0  0  0  0  0  0  0
  160.3900  212.3620  147.4000 C   0  0  0  0  0  3  0  0  0  0  0  0
  160.3130  212.3990  144.9880 O   0  0  0  0  0  1  0  0  0  0  0  0
  161.9860  213.6900  146.1540 C   0  0  0  0  0  3  0  0  0  0  0  0
  160.8950  212.8160  146.1770 C   0  0  0  0  0  0  0  0  0  0  0  0
  162.5710  214.1110  147.3510 C   0  0  0  0  0  3  0  0  0  0  0  0
  160.3740  204.5960  148.2830 O   0  0  0  0  0  0  0  0  0  0  0  0
  161.1260  204.7240  149.2860 C   0  0  0  0  0  0  0  0  0  0  0  0
  161.8150  207.0920  148.6520 C   0  0  0  0  0  0  0  0  0  0  0  0
  161.8530  205.9400  149.5030 N   0  0  0  0  0  2  0  0  0  0  0  0
  161.1390  207.0870  147.5870 O   0  0  0  0  0  0  0  0  0  0  0  0
  161.4960  203.8800  151.5640 C   0  0  0  0  0  1  0  0  0  0  0  0
  161.2370  203.6650  150.1860 O   0  0  0  0  0  0  0  0  0  0  0  0
  1 18  1  0  0  0  0
  1 20  1  0  0  0  0
  2 16  2  0  0  0  0
  2  6  1  0  0  0  0
  4  8  1  0  0  0  0
  4 18  1  0  0  0  0
  5 17  1  0  0  0  0
  5  2  1  1  0  0  0
  6  4  2  0  0  0  0
  7  3  1  6  0  0  0
  7  5  1  0  0  0  0
  9  6  1  0  0  0  0
  9 13  1  1  0  0  0
 10  1  1  0  0  0  0
 11 16  1  0  0  0  0
 12  8  2  0  0  0  0
 13  1  1  0  0  0  0
 14 33  1  1  0  0  0
 14 15  1  0  0  0  0
 14 21  1  0  0  0  0
 15  3  1  6  0  0  0
 15 21  1  0  0  0  0
 16 12  1  0  0  0  0
 17 22  1  6  0  0  0
 17  9  1  0  0  0  0
 19 25  1  6  0  0  0
 19  7  1  0  0  0  0
 19 23  1  0  0  0  0
 21 22  1  1  0  0  0
 23 11  1  0  0  0  0
 24 25  1  0  0  0  0
 26 25  2  0  0  0  0
 27 29  1  0  0  0  0
 28 29  2  0  0  0  0
 28 30  1  0  0  0  0
 29 26  1  0  0  0  0
 30 24  2  0  0  0  0
 31 32  2  0  0  0  0
 32 34  1  0  0  0  0
 32 37  1  0  0  0  0
 33 34  1  0  0  0  0
 35 33  2  0  0  0  0
 37 36  1  0  0  0  0
M  END
>  <MODEL>
3

>  <REMARK>
 VINA RESULT:      -7.3      2.492      7.840
  Name = 
  3 active torsions:
  status: ('A' for Active; 'I' for Inactive)
    1  A    between atoms: C_4  and  O_37
    2  A    between atoms: C_8  and  C_18
    3  A    between atoms: C_23  and  C_30
                            x       y       z     vdW  Elec       q    Type
                         _______ _______ _______ _____ _____    ______ ____

>  <TORSDO>
F 3

$$$$
=
 OpenBabel11122413463D

 37 43  0  0  1  0  0  0  0  0999 V2000
  160.6350  208.7170  156.0500 C   0  0  0  0  0  0  0  0  0  0  0  0
  159.7920  211.2620  152.8240 C   0  0  0  0  0  0  0  0  0  0  0  0
  162.1900  210.8630  149.7810 O   0  0  0  0  0  0  0  0  0  0  0  0
  159.3350  210.7480  155.1380 C   0  0  0  0  0  0  0  0  0  0  0  0
  160.5250  210.5990  151.7100 C   0  0  1  0  0  3  0  0  0  0  0  0
  159.8410  210.4150  153.8900 C   0  0  0  0  0  0  0  0  0  0  0  0
  161.3300  211.5250  150.7250 C   0  0  2  0  0  3  0  0  0  0  0  0
  158.6080  211.9420  155.2540 C   0  0  0  0  0  3  0  0  0  0  0  0
  160.6080  209.2050  153.5790 C   0  0  2  0  0  3  0  0  0  0  0  0
  159.7820  207.4650  155.9250 C   0  0  0  0  0  1  0  0  0  0  0  0
  158.9560  213.3760  151.8120 N   0  0  0  0  0  2  0  0  0  0  0  0
  158.4530  212.7820  154.1320 C   0  0  0  0  0  3  0  0  0  0  0  0
  161.4980  208.8910  154.7780 C   0  0  0  0  0  2  0  0  0  0  0  0
  162.5870  208.5080  148.9840 C   0  0  1  0  0  3  0  0  0  0  0  0
  161.6970  209.5730  149.5580 C   0  0  1  0  0  3  0  0  0  0  0  0
  159.0660  212.4620  152.9050 C   0  0  0  0  0  0  0  0  0  0  0  0
  161.3610  209.5640  152.3750 N   0  0  1  0  0  0  0  0  0  0  0  0
  159.7130  209.9280  156.3460 C   0  0  0  0  0  2  0  0  0  0  0  0
  160.3670  212.4850  150.0030 C   0  0  1  0  0  3  0  0  0  0  0  0
  161.5640  208.5330  157.2310 C   0  0  0  0  0  1  0  0  0  0  0  0
  162.5510  208.7340  150.4930 C   0  0  1  0  0  3  0  0  0  0  0  0
  161.4820  208.3880  151.5070 C   0  0  0  0  0  2  0  0  0  0  0  0
  160.0430  213.6740  150.8940 C   0  0  0  0  0  2  0  0  0  0  0  0
  161.8850  213.9630  148.6730 C   0  0  0  0  0  3  0  0  0  0  0  0
  160.8920  212.9780  148.6850 C   0  0  0  0  0  0  0  0  0  0  0  0
  160.3910  212.4850  147.4690 C   0  0  0  0  0  3  0  0  0  0  0  0
  160.3880  212.4820  145.0560 O   0  0  0  0  0  1  0  0  0  0  0  0
  161.8790  213.9560  146.2510 C   0  0  0  0  0  3  0  0  0  0  0  0
  160.8850  212.9730  146.2560 C   0  0  0  0  0  0  0  0  0  0  0  0
  162.3790  214.4510  147.4590 C   0  0  0  0  0  3  0  0  0  0  0  0
  160.5320  204.8700  147.6300 O   0  0  0  0  0  0  0  0  0  0  0  0
  161.6330  205.2270  147.1320 C   0  0  0  0  0  0  0  0  0  0  0  0
  161.7930  207.3000  148.6040 C   0  0  0  0  0  0  0  0  0  0  0  0
  162.2870  206.4200  147.5860 N   0  0  0  0  0  2  0  0  0  0  0  0
  160.6790  207.0880  149.1560 O   0  0  0  0  0  0  0  0  0  0  0  0
  161.4470  203.9330  145.0510 C   0  0  0  0  0  1  0  0  0  0  0  0
  162.2090  204.4430  146.1350 O   0  0  0  0  0  0  0  0  0  0  0  0
  1 18  1  0  0  0  0
  1 20  1  0  0  0  0
  2 16  2  0  0  0  0
  2  6  1  0  0  0  0
  4  8  1  0  0  0  0
  4 18  1  0  0  0  0
  5 17  1  0  0  0  0
  5  2  1  1  0  0  0
  6  4  2  0  0  0  0
  7  3  1  6  0  0  0
  7  5  1  0  0  0  0
  9  6  1  0  0  0  0
  9 13  1  1  0  0  0
 10  1  1  0  0  0  0
 11 16  1  0  0  0  0
 12  8  2  0  0  0  0
 13  1  1  0  0  0  0
 14 33  1  1  0  0  0
 14 15  1  0  0  0  0
 14 21  1  0  0  0  0
 15  3  1  6  0  0  0
 15 21  1  0  0  0  0
 16 12  1  0  0  0  0
 17 22  1  6  0  0  0
 17  9  1  0  0  0  0
 19 25  1  6  0  0  0
 19  7  1  0  0  0  0
 19 23  1  0  0  0  0
 21 22  1  1  0  0  0
 23 11  1  0  0  0  0
 24 25  1  0  0  0  0
 26 25  2  0  0  0  0
 27 29  1  0  0  0  0
 28 29  2  0  0  0  0
 28 30  1  0  0  0  0
 29 26  1  0  0  0  0
 30 24  2  0  0  0  0
 32 34  1  0  0  0  0
 32 31  2  0  0  0  0
 33 35  2  0  0  0  0
 34 33  1  0  0  0  0
 36 37  1  0  0  0  0
 37 32  1  0  0  0  0
M  END
>  <MODEL>
4

>  <REMARK>
 VINA RESULT:      -7.2      2.591      7.651
  Name = 
  3 active torsions:
  status: ('A' for Active; 'I' for Inactive)
    1  A    between atoms: C_4  and  O_37
    2  A    between atoms: C_8  and  C_18
    3  A    between atoms: C_23  and  C_30
                            x       y       z     vdW  Elec       q    Type
                         _______ _______ _______ _____ _____    ______ ____

>  <TORSDO>
F 3

$$$$
