=
 OpenBabel11122413423D

 37 44  0  0  1  0  0  0  0  0999 V2000
  160.7540  212.4430  150.3850 C   0  0  0  0  0  2  0  0  0  0  0  0
  157.9390  213.4410  153.7350 C   0  0  0  0  0  0  0  0  0  0  0  0
  160.0920  209.8450  154.1490 C   0  0  0  0  0  0  0  0  0  0  0  0
  160.5820  212.9030  149.0030 N   0  0  0  0  0  0  0  0  0  0  0  0
  162.4820  208.8720  151.5080 C   0  0  0  0  0  3  0  0  0  0  0  0
  158.6140  211.4960  155.1570 C   0  0  0  0  0  0  0  0  0  0  0  0
  160.5770  209.6570  152.9160 C   0  0  0  0  0  0  0  0  0  0  0  0
  162.5070  211.3720  148.6130 C   0  0  0  0  0  0  0  0  0  0  0  0
  159.1660  210.9240  154.1090 C   0  0  0  0  0  0  0  0  0  0  0  0
  161.6520  208.6550  152.5440 C   0  0  0  0  0  0  0  0  0  0  0  0
  158.8240  210.8830  156.5270 C   0  0  0  0  0  2  0  0  0  0  0  0
  161.3280  212.0950  148.0250 C   0  0  0  0  0  2  0  0  0  0  0  0
  159.0950  211.4310  152.7900 C   0  0  0  0  0  0  0  0  0  0  0  0
  159.0630  214.4490  153.8910 C   0  0  0  0  0  1  0  0  0  0  0  0
  161.4980  208.2130  155.5590 C   0  0  0  0  0  2  0  0  0  0  0  0
  159.8950  209.7860  156.5590 C   0  0  0  0  0  3  0  0  0  0  0  0
  158.2070  212.5910  152.4620 C   0  0  0  0  0  2  0  0  0  0  0  0
  162.3160  210.0280  149.2480 C   0  0  1  0  0  3  0  0  0  0  0  0
  162.3470  210.1010  150.7000 C   0  0  1  0  0  3  0  0  0  0  0  0
  160.4720  209.2820  155.4520 C   0  0  0  0  0  0  0  0  0  0  0  0
  159.9290  210.7140  152.0350 C   0  0  0  0  0  0  0  0  0  0  0  0
  157.8430  212.6510  154.9450 O   0  0  0  0  0  0  0  0  0  0  0  0
  161.7980  207.3010  153.2190 C   0  0  1  0  0  3  0  0  0  0  0  0
  156.6440  214.2020  153.5450 C   0  0  0  0  0  1  0  0  0  0  0  0
  161.0470  209.9200  150.0170 N   0  0  1  0  0  0  0  0  0  0  0  0
  163.6150  211.8830  148.5770 O   0  0  0  0  0  0  0  0  0  0  0  0
  160.2230  211.0100  150.5760 C   0  0  2  0  0  3  0  0  0  0  0  0
  161.1440  207.1070  154.5880 C   0  0  0  0  0  2  0  0  0  0  0  0
  161.2150  204.8990  152.8240 C   0  0  0  0  0  3  0  0  0  0  0  0
  161.3800  206.1890  152.3050 C   0  0  0  0  0  0  0  0  0  0  0  0
  161.1580  206.4230  150.9390 C   0  0  0  0  0  3  0  0  0  0  0  0
  160.5530  205.6110  148.7170 N   0  0  0  0  0  1  0  0  0  0  0  0
  160.6130  204.0850  150.6230 C   0  0  0  0  0  3  0  0  0  0  0  0
  160.7760  205.3720  150.1010 C   0  0  0  0  0  0  0  0  0  0  0  0
  160.8310  203.8490  151.9840 C   0  0  0  0  0  3  0  0  0  0  0  0
  161.8550  214.4530  147.6260 C   0  0  0  0  0  1  0  0  0  0  0  0
  161.1080  214.2580  148.9320 C   0  0  0  0  0  2  0  0  0  0  0  0
  1 27  1  0  0  0  0
  2 14  1  0  0  0  0
  2 22  1  0  0  0  0
  3 20  1  0  0  0  0
  4  1  1  0  0  0  0
  5 10  2  0  0  0  0
  6 11  1  0  0  0  0
  7  3  2  0  0  0  0
  9  3  1  0  0  0  0
  9  6  2  0  0  0  0
 10  7  1  0  0  0  0
 10 23  1  0  0  0  0
 11 16  1  0  0  0  0
 12  8  1  0  0  0  0
 12  4  1  0  0  0  0
 13  9  1  0  0  0  0
 17 13  1  0  0  0  0
 17  2  1  0  0  0  0
 18  8  1  6  0  0  0
 18 25  1  0  0  0  0
 18 19  1  0  0  0  0
 19  5  1  1  0  0  0
 20 15  1  0  0  0  0
 20 16  2  0  0  0  0
 21 13  2  0  0  0  0
 21  7  1  0  0  0  0
 22  6  1  0  0  0  0
 23 30  1  6  0  0  0
 23 28  1  0  0  0  0
 24  2  1  0  0  0  0
 25 27  1  0  0  0  0
 25 19  1  0  0  0  0
 26  8  2  0  0  0  0
 27 21  1  0  0  0  0
 28 15  1  0  0  0  0
 30 29  1  0  0  0  0
 31 30  2  0  0  0  0
 32 34  1  0  0  0  0
 33 35  1  0  0  0  0
 34 33  2  0  0  0  0
 34 31  1  0  0  0  0
 35 29  2  0  0  0  0
 36 37  1  0  0  0  0
 37  4  1  0  0  0  0
M  END
>  <MODEL>
1

>  <REMARK>
 VINA RESULT:      -5.4      0.000      0.000
  Name = 
  2 active torsions:
  status: ('A' for Active; 'I' for Inactive)
    1  A    between atoms: N_4  and  C_37
    2  A    between atoms: C_23  and  C_30
                            x       y       z     vdW  Elec       q    Type
                         _______ _______ _______ _____ _____    ______ ____

>  <TORSDO>
F 2

$$$$
=
 OpenBabel11122413423D

 37 44  0  0  1  0  0  0  0  0999 V2000
  160.7130  209.0200  155.0830 C   0  0  0  0  0  2  0  0  0  0  0  0
  161.7450  206.0010  151.9260 C   0  0  0  0  0  0  0  0  0  0  0  0
  161.1840  209.9520  150.5800 C   0  0  0  0  0  0  0  0  0  0  0  0
  160.0320  208.6940  156.3400 N   0  0  0  0  0  0  0  0  0  0  0  0
  160.3620  212.5830  153.0370 C   0  0  0  0  0  3  0  0  0  0  0  0
  161.8990  207.6810  150.0780 C   0  0  0  0  0  0  0  0  0  0  0  0
  160.5970  210.5340  151.6330 C   0  0  2  0  0  3  0  0  0  0  0  0
  160.0110  211.1730  156.5770 C   0  0  0  0  0  0  0  0  0  0  0  0
  161.2470  208.5510  150.8170 C   0  0  0  0  0  0  0  0  0  0  0  0
  160.4090  212.0260  151.8140 C   0  0  0  0  0  0  0  0  0  0  0  0
  162.5090  208.1370  148.7680 C   0  0  0  0  0  3  0  0  0  0  0  0
  159.3990  209.8600  156.9760 C   0  0  0  0  0  2  0  0  0  0  0  0
  160.6870  208.2640  152.0850 C   0  0  0  0  0  0  0  0  0  0  0  0
  163.0350  206.1620  152.7110 C   0  0  0  0  0  1  0  0  0  0  0  0
  161.9150  211.9720  149.1610 C   0  0  0  0  0  2  0  0  0  0  0  0
  162.5120  209.6580  148.5800 C   0  0  0  0  0  3  0  0  0  0  0  0
  160.6410  206.8600  152.6020 C   0  0  0  0  0  2  0  0  0  0  0  0
  159.5380  211.8700  155.3360 C   0  0  1  0  0  3  0  0  0  0  0  0
  160.4830  211.7320  154.2390 C   0  0  1  0  0  3  0  0  0  0  0  0
  161.8750  210.5070  149.4100 C   0  0  0  0  0  0  0  0  0  0  0  0
  160.2900  209.4190  152.6220 C   0  0  0  0  0  0  0  0  0  0  0  0
  161.9870  206.3580  150.5440 O   0  0  0  0  0  0  0  0  0  0  0  0
  160.1430  212.9780  150.6590 C   0  0  1  0  0  3  0  0  0  0  0  0
  161.3330  204.5450  151.9900 C   0  0  0  0  0  1  0  0  0  0  0  0
  159.2380  210.9340  154.2190 N   0  0  1  0  0  0  0  0  0  0  0  0
  160.8950  211.6660  157.2580 O   0  0  0  0  0  0  0  0  0  0  0  0
  159.7300  209.5550  154.0260 C   0  0  2  0  0  3  0  0  0  0  0  0
  160.5040  212.5120  149.2480 C   0  0  0  0  0  2  0  0  0  0  0  0
  158.0630  213.6890  149.4610 C   0  0  0  0  0  3  0  0  0  0  0  0
  158.7270  213.4710  150.6740 C   0  0  0  0  0  0  0  0  0  0  0  0
  158.0630  213.7200  151.8850 C   0  0  0  0  0  3  0  0  0  0  0  0
  156.0750  214.4390  153.1080 N   0  0  0  0  0  1  0  0  0  0  0  0
  156.0860  214.4030  150.6650 C   0  0  0  0  0  3  0  0  0  0  0  0
  156.7450  214.1860  151.8790 C   0  0  0  0  0  0  0  0  0  0  0  0
  156.7440  214.1540  149.4570 C   0  0  0  0  0  3  0  0  0  0  0  0
  162.4130  208.6930  156.8380 C   0  0  0  0  0  1  0  0  0  0  0  0
  161.0430  208.1970  157.2610 C   0  0  0  0  0  2  0  0  0  0  0  0
  1  4  1  0  0  0  0
  2 24  1  0  0  0  0
  2 17  1  0  0  0  0
  2 14  1  0  0  0  0
  3  9  2  0  0  0  0
  4 12  1  0  0  0  0
  4 37  1  0  0  0  0
  6 22  1  0  0  0  0
  6  9  1  0  0  0  0
  7  3  1  1  0  0  0
  7 10  1  0  0  0  0
  7 21  1  0  0  0  0
  8 12  1  0  0  0  0
  8 26  2  0  0  0  0
  9 13  1  0  0  0  0
 10  5  2  0  0  0  0
 11  6  2  0  0  0  0
 13 17  1  0  0  0  0
 13 21  2  0  0  0  0
 15 28  1  0  0  0  0
 15 20  1  0  0  0  0
 16 11  1  0  0  0  0
 16 20  2  0  0  0  0
 18  8  1  1  0  0  0
 19  5  1  6  0  0  0
 19 18  1  0  0  0  0
 20  3  1  0  0  0  0
 21 27  1  0  0  0  0
 22  2  1  0  0  0  0
 23 30  1  6  0  0  0
 23 10  1  0  0  0  0
 25 19  1  0  0  0  0
 25 18  1  0  0  0  0
 27 25  1  0  0  0  0
 27  1  1  0  0  0  0
 28 23  1  0  0  0  0
 29 30  1  0  0  0  0
 30 31  2  0  0  0  0
 33 34  2  0  0  0  0
 34 31  1  0  0  0  0
 34 32  1  0  0  0  0
 35 29  2  0  0  0  0
 35 33  1  0  0  0  0
 36 37  1  0  0  0  0
M  END
>  <MODEL>
2

>  <REMARK>
 VINA RESULT:      -4.7      2.523      7.791
  Name = 
  2 active torsions:
  status: ('A' for Active; 'I' for Inactive)
    1  A    between atoms: N_4  and  C_37
    2  A    between atoms: C_23  and  C_30
                            x       y       z     vdW  Elec       q    Type
                         _______ _______ _______ _____ _____    ______ ____

>  <TORSDO>
F 2

$$$$
=
 OpenBabel11122413423D

 37 44  0  0  1  0  0  0  0  0999 V2000
  157.8610  213.3830  143.0100 C   0  0  0  0  0  2  0  0  0  0  0  0
  154.5480  213.3790  139.9830 C   0  0  0  0  0  0  0  0  0  0  0  0
  158.1900  211.6760  138.7280 C   0  0  0  0  0  0  0  0  0  0  0  0
  157.9790  214.3610  144.0970 N   0  0  0  0  0  0  0  0  0  0  0  0
  161.0230  211.5590  141.0940 C   0  0  0  0  0  3  0  0  0  0  0  0
  155.8330  212.0790  138.2740 C   0  0  0  0  0  0  0  0  0  0  0  0
  159.0420  212.0920  139.6730 C   0  0  2  0  0  3  0  0  0  0  0  0
  160.1640  213.2150  144.4340 C   0  0  0  0  0  0  0  0  0  0  0  0
  156.9510  212.3500  138.9110 C   0  0  0  0  0  0  0  0  0  0  0  0
  160.4450  211.5580  139.8790 C   0  0  0  0  0  0  0  0  0  0  0  0
  155.8600  211.0880  137.1270 C   0  0  0  0  0  3  0  0  0  0  0  0
  159.3400  214.4530  144.6500 C   0  0  0  0  0  2  0  0  0  0  0  0
  157.0450  213.2080  140.0330 C   0  0  0  0  0  0  0  0  0  0  0  0
  154.1060  212.3500  141.0070 C   0  0  0  0  0  1  0  0  0  0  0  0
  159.5150  209.7990  137.5660 C   0  0  0  0  0  2  0  0  0  0  0  0
  157.1740  210.3080  137.0110 C   0  0  0  0  0  3  0  0  0  0  0  0
  155.8730  214.0290  140.4700 C   0  0  0  0  0  2  0  0  0  0  0  0
  160.9320  213.0440  143.1570 C   0  0  1  0  0  3  0  0  0  0  0  0
  160.2900  212.0980  142.2580 C   0  0  1  0  0  3  0  0  0  0  0  0
  158.2720  210.5940  137.7380 C   0  0  0  0  0  0  0  0  0  0  0  0
  158.2750  213.0840  140.5340 C   0  0  0  0  0  0  0  0  0  0  0  0
  154.6630  212.7370  138.6900 O   0  0  0  0  0  0  0  0  0  0  0  0
  161.3390  211.1020  138.7370 C   0  0  1  0  0  3  0  0  0  0  0  0
  153.4830  214.4530  139.9020 C   0  0  0  0  0  1  0  0  0  0  0  0
  160.1990  213.5440  141.9630 N   0  0  1  0  0  0  0  0  0  0  0  0
  160.2030  212.3500  145.2940 O   0  0  0  0  0  0  0  0  0  0  0  0
  158.7460  213.7610  141.8080 C   0  0  2  0  0  3  0  0  0  0  0  0
  160.6770  210.7540  137.4030 C   0  0  0  0  0  2  0  0  0  0  0  0
  162.1780  213.3180  137.9280 C   0  0  0  0  0  3  0  0  0  0  0  0
  162.4580  212.0710  138.5010 C   0  0  0  0  0  0  0  0  0  0  0  0
  163.7800  211.7440  138.8410 C   0  0  0  0  0  3  0  0  0  0  0  0
  166.1490  212.3230  138.9510 N   0  0  0  0  0  1  0  0  0  0  0  0
  164.5260  213.9020  138.0340 C   0  0  0  0  0  3  0  0  0  0  0  0
  164.8110  212.6590  138.6070 C   0  0  0  0  0  0  0  0  0  0  0  0
  163.2100  214.2310  137.6960 C   0  0  0  0  0  3  0  0  0  0  0  0
  157.6800  214.3430  146.5110 C   0  0  0  0  0  1  0  0  0  0  0  0
  157.1070  213.9160  145.1730 C   0  0  0  0  0  2  0  0  0  0  0  0
  1  4  1  0  0  0  0
  2 17  1  0  0  0  0
  2 14  1  0  0  0  0
  3  9  2  0  0  0  0
  4 12  1  0  0  0  0
  4 37  1  0  0  0  0
  6 22  1  0  0  0  0
  6  9  1  0  0  0  0
  7  3  1  1  0  0  0
  7 10  1  0  0  0  0
  7 21  1  0  0  0  0
  8 12  1  0  0  0  0
  8 26  2  0  0  0  0
  9 13  1  0  0  0  0
 10  5  2  0  0  0  0
 11  6  2  0  0  0  0
 13 17  1  0  0  0  0
 13 21  2  0  0  0  0
 15 20  1  0  0  0  0
 16 11  1  0  0  0  0
 16 20  2  0  0  0  0
 18  8  1  1  0  0  0
 19  5  1  6  0  0  0
 19 18  1  0  0  0  0
 20  3  1  0  0  0  0
 21 27  1  0  0  0  0
 22  2  1  0  0  0  0
 23 30  1  6  0  0  0
 23 10  1  0  0  0  0
 24  2  1  0  0  0  0
 25 19  1  0  0  0  0
 25 18  1  0  0  0  0
 27 25  1  0  0  0  0
 27  1  1  0  0  0  0
 28 15  1  0  0  0  0
 28 23  1  0  0  0  0
 29 30  1  0  0  0  0
 30 31  2  0  0  0  0
 33 34  2  0  0  0  0
 34 31  1  0  0  0  0
 34 32  1  0  0  0  0
 35 29  2  0  0  0  0
 35 33  1  0  0  0  0
 37 36  1  0  0  0  0
M  END
>  <MODEL>
3

>  <REMARK>
 VINA RESULT:      -3.3      9.035     13.462
  Name = 
  2 active torsions:
  status: ('A' for Active; 'I' for Inactive)
    1  A    between atoms: N_4  and  C_37
    2  A    between atoms: C_23  and  C_30
                            x       y       z     vdW  Elec       q    Type
                         _______ _______ _______ _____ _____    ______ ____

>  <TORSDO>
F 2

$$$$
