=
 OpenBabel11122413143D

 31 35  0  0  1  0  0  0  0  0999 V2000
  161.2390  200.9170  148.8620 C   0  0  0  0  0  0  0  0  0  0  0  0
  162.1040  204.5320  148.0390 C   0  0  2  0  0  3  0  0  0  0  0  0
  161.3560  204.8660  146.7550 C   0  0  0  0  0  0  0  0  0  0  0  0
  160.1970  204.1760  144.7290 C   0  0  0  0  0  0  0  0  0  0  0  0
  161.5360  203.3230  148.7420 C   0  0  0  0  0  0  0  0  0  0  0  0
  160.4150  201.0710  149.9790 C   0  0  0  0  0  3  0  0  0  0  0  0
  160.8580  203.8550  145.9170 C   0  0  0  0  0  3  0  0  0  0  0  0
  160.8060  205.9280  149.6040 N   0  0  0  0  0  0  0  0  0  0  0  0
  161.4930  199.6800  148.3720 F   0  0  0  0  0  0  0  0  0  0  0  0
  161.7500  207.2400  147.1350 O   0  0  0  0  0  0  0  0  0  0  0  0
  159.7090  203.1910  143.9390 F   0  0  0  0  0  0  0  0  0  0  0  0
  160.5360  204.8170  150.5220 C   0  0  0  0  0  2  0  0  0  0  0  0
  162.1400  205.7350  149.0070 C   0  0  2  0  0  3  0  0  0  0  0  0
  161.8000  202.0400  148.2470 C   0  0  0  0  0  3  0  0  0  0  0  0
  160.0410  205.5120  144.3560 C   0  0  0  0  0  3  0  0  0  0  0  0
  160.7060  203.4750  149.8710 C   0  0  0  0  0  0  0  0  0  0  0  0
  160.1590  202.3460  150.4890 C   0  0  0  0  0  3  0  0  0  0  0  0
  162.6190  206.9710  148.2320 C   0  0  0  0  0  2  0  0  0  0  0  0
  161.2260  206.2120  146.3490 C   0  0  0  0  0  0  0  0  0  0  0  0
  160.5550  206.5280  145.1640 C   0  0  0  0  0  3  0  0  0  0  0  0
  160.8030  207.1260  150.4360 C   0  0  0  0  0  2  0  0  0  0  0  0
  162.1950  205.8090  151.8370 O   0  0  0  0  0  0  0  0  0  0  0  0
  161.4530  206.8230  151.7490 C   0  0  0  0  0  0  0  0  0  0  0  0
  160.7080  209.1190  155.2650 N   0  0  0  0  0  0  0  0  0  0  0  0
  161.3480  207.0020  154.2380 C   0  0  0  0  0  2  0  0  0  0  0  0
  161.0220  209.6680  151.7850 O   0  0  0  0  0  0  0  0  0  0  0  0
  159.9160  209.6900  156.3390 C   0  0  0  0  0  1  0  0  0  0  0  0
  160.4580  207.6820  155.2750 C   0  0  0  0  0  2  0  0  0  0  0  0
  160.8230  209.0080  152.8380 C   0  0  0  0  0  0  0  0  0  0  0  0
  161.1660  207.6100  152.9180 N   0  0  0  0  0  0  0  0  0  0  0  0
  160.1850  209.6750  154.0180 C   0  0  0  0  0  2  0  0  0  0  0  0
  1  6  1  0  0  0  0
  2  3  1  6  0  0  0
  2  5  1  0  0  0  0
  2 13  1  0  0  0  0
  4  7  1  0  0  0  0
  5 16  2  0  0  0  0
  6 17  2  0  0  0  0
  7  3  2  0  0  0  0
  8 21  1  0  0  0  0
  8 12  1  0  0  0  0
  9  1  1  0  0  0  0
 10 18  1  0  0  0  0
 11  4  1  0  0  0  0
 13 18  1  6  0  0  0
 13  8  1  0  0  0  0
 14  5  1  0  0  0  0
 14  1  2  0  0  0  0
 15  4  2  0  0  0  0
 15 20  1  0  0  0  0
 16 17  1  0  0  0  0
 16 12  1  0  0  0  0
 19  3  1  0  0  0  0
 19 10  1  0  0  0  0
 20 19  2  0  0  0  0
 21 23  1  0  0  0  0
 23 22  2  0  0  0  0
 23 30  1  0  0  0  0
 24 28  1  0  0  0  0
 24 27  1  0  0  0  0
 25 28  1  0  0  0  0
 26 29  2  0  0  0  0
 29 30  1  0  0  0  0
 29 31  1  0  0  0  0
 30 25  1  0  0  0  0
 31 24  1  0  0  0  0
M  END
>  <MODEL>
1

>  <REMARK>
 VINA RESULT:      -7.2      0.000      0.000
  Name = 
  2 active torsions:
  status: ('A' for Active; 'I' for Inactive)
    1  A    between atoms: C_5  and  C_16
    2  A    between atoms: N_10  and  C_16
                            x       y       z     vdW  Elec       q    Type
                         _______ _______ _______ _____ _____    ______ ____

>  <TORSDO>
F 2

$$$$
=
 OpenBabel11122413143D

 31 35  0  0  1  0  0  0  0  0999 V2000
  161.2140  203.2450  145.3550 C   0  0  0  0  0  0  0  0  0  0  0  0
  160.3230  205.0560  148.5830 C   0  0  2  0  0  3  0  0  0  0  0  0
  160.7150  204.1180  149.7180 C   0  0  0  0  0  0  0  0  0  0  0  0
  161.2580  201.8960  150.5470 C   0  0  0  0  0  0  0  0  0  0  0  0
  161.0030  204.7060  147.2820 C   0  0  0  0  0  0  0  0  0  0  0  0
  162.3130  203.9850  144.9110 C   0  0  0  0  0  3  0  0  0  0  0  0
  160.9250  202.7490  149.4920 C   0  0  0  0  0  3  0  0  0  0  0  0
  162.0540  206.7840  148.9080 N   0  0  0  0  0  0  0  0  0  0  0  0
  160.7830  202.1760  144.6430 F   0  0  0  0  0  0  0  0  0  0  0  0
  160.5430  205.9580  151.3060 O   0  0  0  0  0  0  0  0  0  0  0  0
  161.4720  200.5800  150.3120 F   0  0  0  0  0  0  0  0  0  0  0  0
  162.5090  206.7260  147.5160 C   0  0  0  0  0  2  0  0  0  0  0  0
  160.6000  206.5330  148.9420 C   0  0  2  0  0  3  0  0  0  0  0  0
  160.5600  203.6070  146.5360 C   0  0  0  0  0  3  0  0  0  0  0  0
  161.3690  202.4010  151.8450 C   0  0  0  0  0  3  0  0  0  0  0  0
  162.1110  205.4510  146.8290 C   0  0  0  0  0  0  0  0  0  0  0  0
  162.7530  205.0910  145.6400 C   0  0  0  0  0  3  0  0  0  0  0  0
  159.9880  206.8240  150.3190 C   0  0  0  0  0  2  0  0  0  0  0  0
  160.7910  204.6110  151.0390 C   0  0  0  0  0  0  0  0  0  0  0  0
  161.1350  203.7560  152.0900 C   0  0  0  0  0  3  0  0  0  0  0  0
  162.3320  208.1460  149.3500 C   0  0  0  0  0  2  0  0  0  0  0  0
  163.1860  207.2230  151.3630 O   0  0  0  0  0  0  0  0  0  0  0  0
  162.5290  208.1590  150.8320 C   0  0  0  0  0  0  0  0  0  0  0  0
  160.7640  211.1060  153.3590 N   0  0  0  0  0  0  0  0  0  0  0  0
  161.6510  208.8530  153.0650 C   0  0  0  0  0  2  0  0  0  0  0  0
  162.1670  210.9230  150.1180 O   0  0  0  0  0  0  0  0  0  0  0  0
  159.6860  211.8510  153.9840 C   0  0  0  0  0  1  0  0  0  0  0  0
  160.4940  209.6920  153.6010 C   0  0  0  0  0  2  0  0  0  0  0  0
  161.6340  210.4900  151.1730 C   0  0  0  0  0  0  0  0  0  0  0  0
  161.9060  209.1600  151.6550 N   0  0  0  0  0  0  0  0  0  0  0  0
  160.6710  211.3590  151.9230 C   0  0  0  0  0  2  0  0  0  0  0  0
  1 14  1  0  0  0  0
  2  5  1  6  0  0  0
  2 13  1  0  0  0  0
  2  3  1  0  0  0  0
  3 19  1  0  0  0  0
  4 15  2  0  0  0  0
  6  1  2  0  0  0  0
  6 17  1  0  0  0  0
  7  3  2  0  0  0  0
  7  4  1  0  0  0  0
  8 13  1  0  0  0  0
  8 21  1  0  0  0  0
  9  1  1  0  0  0  0
 11  4  1  0  0  0  0
 12  8  1  0  0  0  0
 13 18  1  1  0  0  0
 14  5  2  0  0  0  0
 15 20  1  0  0  0  0
 16  5  1  0  0  0  0
 16 12  1  0  0  0  0
 17 16  2  0  0  0  0
 18 10  1  0  0  0  0
 19 10  1  0  0  0  0
 19 20  2  0  0  0  0
 21 23  1  0  0  0  0
 23 22  2  0  0  0  0
 23 30  1  0  0  0  0
 24 28  1  0  0  0  0
 24 27  1  0  0  0  0
 25 28  1  0  0  0  0
 26 29  2  0  0  0  0
 29 30  1  0  0  0  0
 29 31  1  0  0  0  0
 30 25  1  0  0  0  0
 31 24  1  0  0  0  0
M  END
>  <MODEL>
2

>  <REMARK>
 VINA RESULT:      -7.2      1.900      4.117
  Name = 
  2 active torsions:
  status: ('A' for Active; 'I' for Inactive)
    1  A    between atoms: C_5  and  C_16
    2  A    between atoms: N_10  and  C_16
                            x       y       z     vdW  Elec       q    Type
                         _______ _______ _______ _____ _____    ______ ____

>  <TORSDO>
F 2

$$$$
=
 OpenBabel11122413143D

 31 35  0  0  1  0  0  0  0  0999 V2000
  161.1080  204.6220  144.8180 C   0  0  0  0  0  0  0  0  0  0  0  0
  160.3310  205.0600  148.5190 C   0  0  2  0  0  3  0  0  0  0  0  0
  160.7160  203.7480  149.1920 C   0  0  0  0  0  0  0  0  0  0  0  0
  161.2070  201.3670  149.0810 C   0  0  0  0  0  0  0  0  0  0  0  0
  160.9770  205.2260  147.1650 C   0  0  0  0  0  0  0  0  0  0  0  0
  162.2200  205.4530  144.6630 C   0  0  0  0  0  3  0  0  0  0  0  0
  160.8810  202.5680  148.4470 C   0  0  0  0  0  3  0  0  0  0  0  0
  162.1190  206.4910  149.4370 N   0  0  0  0  0  0  0  0  0  0  0  0
  160.6320  203.9210  143.7610 F   0  0  0  0  0  0  0  0  0  0  0  0
  160.6280  204.8320  151.3710 O   0  0  0  0  0  0  0  0  0  0  0  0
  161.3780  200.2410  148.3500 F   0  0  0  0  0  0  0  0  0  0  0  0
  162.5460  206.9670  148.1180 C   0  0  0  0  0  2  0  0  0  0  0  0
  160.6590  206.2760  149.4130 C   0  0  2  0  0  3  0  0  0  0  0  0
  160.4870  204.5110  146.0650 C   0  0  0  0  0  3  0  0  0  0  0  0
  161.3570  201.3270  150.4690 C   0  0  0  0  0  3  0  0  0  0  0  0
  162.0970  206.0660  147.0040 C   0  0  0  0  0  0  0  0  0  0  0  0
  162.7060  206.1820  145.7500 C   0  0  0  0  0  3  0  0  0  0  0  0
  160.0810  206.0240  150.8120 C   0  0  0  0  0  2  0  0  0  0  0  0
  160.8310  203.6880  150.5970 C   0  0  0  0  0  0  0  0  0  0  0  0
  161.1680  202.4860  151.2250 C   0  0  0  0  0  3  0  0  0  0  0  0
  162.4450  207.5690  150.3630 C   0  0  0  0  0  2  0  0  0  0  0  0
  163.2140  205.9340  151.9020 O   0  0  0  0  0  0  0  0  0  0  0  0
  162.5860  207.0150  151.7440 C   0  0  0  0  0  0  0  0  0  0  0  0
  160.7460  208.8220  155.1420 N   0  0  0  0  0  0  0  0  0  0  0  0
  161.6270  206.8300  154.0440 C   0  0  0  0  0  2  0  0  0  0  0  0
  162.2730  209.8510  152.1210 O   0  0  0  0  0  0  0  0  0  0  0  0
  159.6510  209.2980  155.9660 C   0  0  0  0  0  1  0  0  0  0  0  0
  160.4560  207.4280  154.8200 C   0  0  0  0  0  2  0  0  0  0  0  0
  161.6950  209.0620  152.9160 C   0  0  0  0  0  0  0  0  0  0  0  0
  161.9380  207.6430  152.8650 N   0  0  0  0  0  0  0  0  0  0  0  0
  160.7110  209.6030  153.9070 C   0  0  0  0  0  2  0  0  0  0  0  0
  1 14  1  0  0  0  0
  2  5  1  6  0  0  0
  2  3  1  0  0  0  0
  2 13  1  0  0  0  0
  3 19  1  0  0  0  0
  4 15  2  0  0  0  0
  6  1  2  0  0  0  0
  6 17  1  0  0  0  0
  7  4  1  0  0  0  0
  7  3  2  0  0  0  0
  8 21  1  0  0  0  0
  9  1  1  0  0  0  0
 11  4  1  0  0  0  0
 12  8  1  0  0  0  0
 13  8  1  0  0  0  0
 13 18  1  1  0  0  0
 14  5  2  0  0  0  0
 15 20  1  0  0  0  0
 16  5  1  0  0  0  0
 16 12  1  0  0  0  0
 17 16  2  0  0  0  0
 18 10  1  0  0  0  0
 19 20  2  0  0  0  0
 19 10  1  0  0  0  0
 21 23  1  0  0  0  0
 23 22  2  0  0  0  0
 23 30  1  0  0  0  0
 24 27  1  0  0  0  0
 25 28  1  0  0  0  0
 26 29  2  0  0  0  0
 28 24  1  0  0  0  0
 29 31  1  0  0  0  0
 30 29  1  0  0  0  0
 30 25  1  0  0  0  0
 31 24  1  0  0  0  0
M  END
>  <MODEL>
3

>  <REMARK>
 VINA RESULT:      -7.0      1.378      3.938
  Name = 
  2 active torsions:
  status: ('A' for Active; 'I' for Inactive)
    1  A    between atoms: C_5  and  C_16
    2  A    between atoms: N_10  and  C_16
                            x       y       z     vdW  Elec       q    Type
                         _______ _______ _______ _____ _____    ______ ____

>  <TORSDO>
F 2

$$$$
=
 OpenBabel11122413143D

 31 35  0  0  1  0  0  0  0  0999 V2000
  161.2090  204.9870  145.2200 C   0  0  0  0  0  0  0  0  0  0  0  0
  160.4370  204.8050  148.9430 C   0  0  2  0  0  3  0  0  0  0  0  0
  160.8080  203.3950  149.3850 C   0  0  0  0  0  0  0  0  0  0  0  0
  161.2730  201.0620  148.8760 C   0  0  0  0  0  0  0  0  0  0  0  0
  161.0840  205.1900  147.6360 C   0  0  0  0  0  0  0  0  0  0  0  0
  162.3300  205.8210  145.2050 C   0  0  0  0  0  3  0  0  0  0  0  0
  160.9600  202.3550  148.4530 C   0  0  0  0  0  3  0  0  0  0  0  0
  162.2400  206.0430  150.0860 N   0  0  0  0  0  0  0  0  0  0  0  0
  160.7260  204.4790  144.0610 F   0  0  0  0  0  0  0  0  0  0  0  0
  160.7320  204.0990  151.7160 O   0  0  0  0  0  0  0  0  0  0  0  0
  161.4320  200.0720  147.9650 F   0  0  0  0  0  0  0  0  0  0  0  0
  162.6720  206.7290  148.8650 C   0  0  0  0  0  2  0  0  0  0  0  0
  160.7780  205.8510  150.0280 C   0  0  2  0  0  3  0  0  0  0  0  0
  160.5870  204.6750  146.4320 C   0  0  0  0  0  3  0  0  0  0  0  0
  161.4230  200.7880  150.2370 C   0  0  0  0  0  3  0  0  0  0  0  0
  162.2140  206.0330  147.6160 C   0  0  0  0  0  0  0  0  0  0  0  0
  162.8240  206.3510  146.3980 C   0  0  0  0  0  3  0  0  0  0  0  0
  160.1970  205.3730  151.3670 C   0  0  0  0  0  2  0  0  0  0  0  0
  160.9220  203.0990  150.7610 C   0  0  0  0  0  0  0  0  0  0  0  0
  161.2470  201.8050  151.1770 C   0  0  0  0  0  3  0  0  0  0  0  0
  162.5780  206.9470  151.1790 C   0  0  0  0  0  2  0  0  0  0  0  0
  161.4580  208.6460  149.9560 O   0  0  0  0  0  0  0  0  0  0  0  0
  161.7270  208.1730  151.0930 C   0  0  0  0  0  0  0  0  0  0  0  0
  160.3640  210.2690  154.5490 N   0  0  0  0  0  0  0  0  0  0  0  0
  160.9680  210.2880  152.1860 C   0  0  0  0  0  2  0  0  0  0  0  0
  160.9630  206.9230  153.5700 O   0  0  0  0  0  0  0  0  0  0  0  0
  160.4870  211.0290  155.7790 C   0  0  0  0  0  1  0  0  0  0  0  0
  161.1450  210.9750  153.5380 C   0  0  0  0  0  2  0  0  0  0  0  0
  161.0670  208.1770  153.5260 C   0  0  0  0  0  0  0  0  0  0  0  0
  161.2980  208.8630  152.2800 N   0  0  0  0  0  0  0  0  0  0  0  0
  160.9850  208.9700  154.7950 C   0  0  0  0  0  2  0  0  0  0  0  0
  1 14  1  0  0  0  0
  2  5  1  6  0  0  0
  2  3  1  0  0  0  0
  2 13  1  0  0  0  0
  3 19  1  0  0  0  0
  4 15  2  0  0  0  0
  6  1  2  0  0  0  0
  6 17  1  0  0  0  0
  7  4  1  0  0  0  0
  7  3  2  0  0  0  0
  8 21  1  0  0  0  0
  9  1  1  0  0  0  0
 11  4  1  0  0  0  0
 12  8  1  0  0  0  0
 13  8  1  0  0  0  0
 13 18  1  1  0  0  0
 14  5  2  0  0  0  0
 15 20  1  0  0  0  0
 16  5  1  0  0  0  0
 16 12  1  0  0  0  0
 17 16  2  0  0  0  0
 18 10  1  0  0  0  0
 19 20  2  0  0  0  0
 19 10  1  0  0  0  0
 22 23  2  0  0  0  0
 23 21  1  0  0  0  0
 23 30  1  0  0  0  0
 24 31  1  0  0  0  0
 24 27  1  0  0  0  0
 25 30  1  0  0  0  0
 25 28  1  0  0  0  0
 28 24  1  0  0  0  0
 29 26  2  0  0  0  0
 29 31  1  0  0  0  0
 30 29  1  0  0  0  0
M  END
>  <MODEL>
4

>  <REMARK>
 VINA RESULT:      -7.0      1.418      4.217
  Name = 
  2 active torsions:
  status: ('A' for Active; 'I' for Inactive)
    1  A    between atoms: C_5  and  C_16
    2  A    between atoms: N_10  and  C_16
                            x       y       z     vdW  Elec       q    Type
                         _______ _______ _______ _____ _____    ______ ____

>  <TORSDO>
F 2

$$$$
=
 OpenBabel11122413143D

 31 35  0  0  1  0  0  0  0  0999 V2000
  160.5400  207.3310  156.1950 C   0  0  0  0  0  0  0  0  0  0  0  0
  161.9120  208.7630  152.9460 C   0  0  2  0  0  3  0  0  0  0  0  0
  161.4660  207.8120  151.8410 C   0  0  0  0  0  0  0  0  0  0  0  0
  160.6600  205.6380  151.1060 C   0  0  0  0  0  0  0  0  0  0  0  0
  161.0980  208.6060  154.2070 C   0  0  0  0  0  0  0  0  0  0  0  0
  159.5340  208.2490  156.5060 C   0  0  0  0  0  3  0  0  0  0  0  0
  161.0400  206.5060  152.1320 C   0  0  0  0  0  3  0  0  0  0  0  0
  160.4840  210.6920  152.3820 N   0  0  0  0  0  0  0  0  0  0  0  0
  160.7560  206.2640  157.0020 F   0  0  0  0  0  0  0  0  0  0  0  0
  162.0200  209.4920  150.1650 O   0  0  0  0  0  0  0  0  0  0  0  0
  160.2370  204.3860  151.4020 F   0  0  0  0  0  0  0  0  0  0  0  0
  159.9280  210.7990  153.7340 C   0  0  0  0  0  2  0  0  0  0  0  0
  161.8820  210.2340  152.4790 C   0  0  2  0  0  3  0  0  0  0  0  0
  161.3210  207.5100  155.0510 C   0  0  0  0  0  3  0  0  0  0  0  0
  160.7160  206.0600  149.7760 C   0  0  0  0  0  3  0  0  0  0  0  0
  160.0850  209.5320  154.5250 C   0  0  0  0  0  0  0  0  0  0  0  0
  159.3150  209.3530  155.6790 C   0  0  0  0  0  3  0  0  0  0  0  0
  162.6260  210.3370  151.1390 C   0  0  0  0  0  2  0  0  0  0  0  0
  161.5560  208.2160  150.4920 C   0  0  0  0  0  0  0  0  0  0  0  0
  161.1640  207.3460  149.4700 C   0  0  0  0  0  3  0  0  0  0  0  0
  160.4420  212.0450  151.8390 C   0  0  0  0  0  2  0  0  0  0  0  0
  158.1730  212.1760  152.5250 O   0  0  0  0  0  0  0  0  0  0  0  0
  159.0190  212.4570  151.6340 C   0  0  0  0  0  0  0  0  0  0  0  0
  157.6640  214.3350  148.0530 N   0  0  0  0  0  0  0  0  0  0  0  0
  157.1880  212.9620  150.0110 C   0  0  0  0  0  2  0  0  0  0  0  0
  160.5550  214.3390  150.0910 O   0  0  0  0  0  0  0  0  0  0  0  0
  157.3950  214.4530  146.6310 C   0  0  0  0  0  1  0  0  0  0  0  0
  157.0390  213.0940  148.4970 C   0  0  0  0  0  2  0  0  0  0  0  0
  159.4740  213.8990  149.6170 C   0  0  0  0  0  0  0  0  0  0  0  0
  158.5950  213.0750  150.4060 N   0  0  0  0  0  0  0  0  0  0  0  0
  159.1120  214.2060  148.1960 C   0  0  0  0  0  2  0  0  0  0  0  0
  1  6  1  0  0  0  0
  1  9  1  0  0  0  0
  2  3  1  6  0  0  0
  2  5  1  0  0  0  0
  3  7  1  0  0  0  0
  4 11  1  0  0  0  0
  4  7  2  0  0  0  0
  5 16  2  0  0  0  0
  5 14  1  0  0  0  0
  8 13  1  0  0  0  0
  8 12  1  0  0  0  0
 10 19  1  0  0  0  0
 10 18  1  0  0  0  0
 12 16  1  0  0  0  0
 13 18  1  6  0  0  0
 13  2  1  0  0  0  0
 14  1  2  0  0  0  0
 15  4  1  0  0  0  0
 16 17  1  0  0  0  0
 17  6  2  0  0  0  0
 19  3  2  0  0  0  0
 20 15  2  0  0  0  0
 20 19  1  0  0  0  0
 21  8  1  0  0  0  0
 23 21  1  0  0  0  0
 23 22  2  0  0  0  0
 24 31  1  0  0  0  0
 24 28  1  0  0  0  0
 25 30  1  0  0  0  0
 27 24  1  0  0  0  0
 28 25  1  0  0  0  0
 29 26  2  0  0  0  0
 29 30  1  0  0  0  0
 30 23  1  0  0  0  0
 31 29  1  0  0  0  0
M  END
>  <MODEL>
5

>  <REMARK>
 VINA RESULT:      -6.8      4.508      7.330
  Name = 
  2 active torsions:
  status: ('A' for Active; 'I' for Inactive)
    1  A    between atoms: C_5  and  C_16
    2  A    between atoms: N_10  and  C_16
                            x       y       z     vdW  Elec       q    Type
                         _______ _______ _______ _____ _____    ______ ____

>  <TORSDO>
F 2

$$$$
=
 OpenBabel11122413143D

 31 35  0  0  1  0  0  0  0  0999 V2000
  160.6400  208.8130  154.7590 C   0  0  0  0  0  0  0  0  0  0  0  0
  162.1370  209.6970  151.3730 C   0  0  2  0  0  3  0  0  0  0  0  0
  161.6520  208.6280  150.4010 C   0  0  0  0  0  0  0  0  0  0  0  0
  160.7300  206.4200  149.9590 C   0  0  0  0  0  0  0  0  0  0  0  0
  161.2990  209.7650  152.6250 C   0  0  0  0  0  0  0  0  0  0  0  0
  159.6850  209.8210  154.9170 C   0  0  0  0  0  3  0  0  0  0  0  0
  161.1470  207.4010  150.8610 C   0  0  0  0  0  3  0  0  0  0  0  0
  160.8310  211.6060  150.5150 N   0  0  0  0  0  0  0  0  0  0  0  0
  160.7830  207.8600  155.7100 F   0  0  0  0  0  0  0  0  0  0  0  0
  162.3240  210.0230  148.5200 O   0  0  0  0  0  0  0  0  0  0  0  0
  160.2320  205.2480  150.4160 F   0  0  0  0  0  0  0  0  0  0  0  0
  160.2640  211.9310  151.8270 C   0  0  0  0  0  2  0  0  0  0  0  0
  162.1990  211.0890  150.7040 C   0  0  2  0  0  3  0  0  0  0  0  0
  161.4460  208.7870  153.6180 C   0  0  0  0  0  3  0  0  0  0  0  0
  160.8290  206.6480  148.5840 C   0  0  0  0  0  3  0  0  0  0  0  0
  160.3360  210.7810  152.7900 C   0  0  0  0  0  0  0  0  0  0  0  0
  159.5420  210.8080  153.9400 C   0  0  0  0  0  3  0  0  0  0  0  0
  162.9660  210.9610  149.3800 C   0  0  0  0  0  2  0  0  0  0  0  0
  161.7830  208.8330  149.0110 C   0  0  0  0  0  0  0  0  0  0  0  0
  161.3550  207.8520  148.1120 C   0  0  0  0  0  3  0  0  0  0  0  0
  160.8750  212.8690  149.7880 C   0  0  0  0  0  2  0  0  0  0  0  0
  158.5220  212.9540  149.4870 O   0  0  0  0  0  0  0  0  0  0  0  0
  159.6540  212.9970  148.9340 C   0  0  0  0  0  0  0  0  0  0  0  0
  159.8410  213.2680  144.6820 N   0  0  0  0  0  0  0  0  0  0  0  0
  158.6080  212.6470  146.6930 C   0  0  0  0  0  2  0  0  0  0  0  0
  161.7160  214.3710  147.4710 O   0  0  0  0  0  0  0  0  0  0  0  0
  160.1470  212.8290  143.3330 C   0  0  0  0  0  1  0  0  0  0  0  0
  159.0600  212.2030  145.3040 C   0  0  0  0  0  2  0  0  0  0  0  0
  160.8920  213.6570  146.8400 C   0  0  0  0  0  0  0  0  0  0  0  0
  159.7540  213.0710  147.5020 N   0  0  0  0  0  0  0  0  0  0  0  0
  161.1170  213.3820  145.3850 C   0  0  0  0  0  2  0  0  0  0  0  0
  1  6  1  0  0  0  0
  1  9  1  0  0  0  0
  2  3  1  6  0  0  0
  2  5  1  0  0  0  0
  3  7  1  0  0  0  0
  4 11  1  0  0  0  0
  4  7  2  0  0  0  0
  5 16  2  0  0  0  0
  5 14  1  0  0  0  0
  8 13  1  0  0  0  0
  8 12  1  0  0  0  0
 10 19  1  0  0  0  0
 10 18  1  0  0  0  0
 12 16  1  0  0  0  0
 13 18  1  6  0  0  0
 13  2  1  0  0  0  0
 14  1  2  0  0  0  0
 15  4  1  0  0  0  0
 16 17  1  0  0  0  0
 17  6  2  0  0  0  0
 19  3  2  0  0  0  0
 20 15  2  0  0  0  0
 20 19  1  0  0  0  0
 21  8  1  0  0  0  0
 23 22  2  0  0  0  0
 23 21  1  0  0  0  0
 24 28  1  0  0  0  0
 24 31  1  0  0  0  0
 25 30  1  0  0  0  0
 27 24  1  0  0  0  0
 28 25  1  0  0  0  0
 29 26  2  0  0  0  0
 29 30  1  0  0  0  0
 30 23  1  0  0  0  0
 31 29  1  0  0  0  0
M  END
>  <MODEL>
6

>  <REMARK>
 VINA RESULT:      -6.0      4.850      7.823
  Name = 
  2 active torsions:
  status: ('A' for Active; 'I' for Inactive)
    1  A    between atoms: C_5  and  C_16
    2  A    between atoms: N_10  and  C_16
                            x       y       z     vdW  Elec       q    Type
                         _______ _______ _______ _____ _____    ______ ____

>  <TORSDO>
F 2

$$$$
=
 OpenBabel11122413143D

 31 35  0  0  1  0  0  0  0  0999 V2000
  161.1560  213.1820  148.0060 C   0  0  0  0  0  0  0  0  0  0  0  0
  161.7740  211.3350  151.2770 C   0  0  2  0  0  3  0  0  0  0  0  0
  160.4680  211.4060  152.0580 C   0  0  0  0  0  0  0  0  0  0  0  0
  158.2980  212.4220  152.4820 C   0  0  0  0  0  0  0  0  0  0  0  0
  161.5830  211.6100  149.8050 C   0  0  0  0  0  0  0  0  0  0  0  0
  161.1360  212.1300  147.0870 C   0  0  0  0  0  3  0  0  0  0  0  0
  159.4790  212.3510  151.7390 C   0  0  0  0  0  3  0  0  0  0  0  0
  161.7530  208.9300  150.7290 N   0  0  0  0  0  0  0  0  0  0  0  0
  160.9540  214.4530  147.5850 F   0  0  0  0  0  0  0  0  0  0  0  0
  161.2560  209.6480  153.5490 O   0  0  0  0  0  0  0  0  0  0  0  0
  157.3460  213.3280  152.1540 F   0  0  0  0  0  0  0  0  0  0  0  0
  161.9380  209.1580  149.2930 C   0  0  0  0  0  2  0  0  0  0  0  0
  162.4810  209.9760  151.4720 C   0  0  2  0  0  3  0  0  0  0  0  0
  161.3810  212.9220  149.3610 C   0  0  0  0  0  3  0  0  0  0  0  0
  158.0980  211.5600  153.5630 C   0  0  0  0  0  3  0  0  0  0  0  0
  161.5650  210.5510  148.8750 C   0  0  0  0  0  0  0  0  0  0  0  0
  161.3520  210.8190  147.5190 C   0  0  0  0  0  3  0  0  0  0  0  0
  162.5610  209.6780  152.9760 C   0  0  0  0  0  2  0  0  0  0  0  0
  160.2730  210.5660  153.1760 C   0  0  0  0  0  0  0  0  0  0  0  0
  159.0850  210.6350  153.9090 C   0  0  0  0  0  3  0  0  0  0  0  0
  162.3510  207.6260  150.9940 C   0  0  0  0  0  2  0  0  0  0  0  0
  160.6670  206.9280  152.5140 O   0  0  0  0  0  0  0  0  0  0  0  0
  161.2910  206.6750  151.4490 C   0  0  0  0  0  0  0  0  0  0  0  0
  160.4580  203.0200  149.4150 N   0  0  0  0  0  0  0  0  0  0  0  0
  160.4450  204.3250  151.4760 C   0  0  0  0  0  2  0  0  0  0  0  0
  161.4110  206.3260  148.5950 O   0  0  0  0  0  0  0  0  0  0  0  0
  160.7370  201.6970  148.8860 C   0  0  0  0  0  1  0  0  0  0  0  0
  160.8190  202.9930  150.8290 C   0  0  0  0  0  2  0  0  0  0  0  0
  161.2640  205.3130  149.3280 C   0  0  0  0  0  0  0  0  0  0  0  0
  161.0480  205.4440  150.7470 N   0  0  0  0  0  0  0  0  0  0  0  0
  161.3520  203.9450  148.7230 C   0  0  0  0  0  2  0  0  0  0  0  0
  1 14  1  0  0  0  0
  2  5  1  6  0  0  0
  2 13  1  0  0  0  0
  2  3  1  0  0  0  0
  3 19  1  0  0  0  0
  4 15  2  0  0  0  0
  6 17  1  0  0  0  0
  6  1  2  0  0  0  0
  7  3  2  0  0  0  0
  7  4  1  0  0  0  0
  8 21  1  0  0  0  0
  8 13  1  0  0  0  0
  9  1  1  0  0  0  0
 11  4  1  0  0  0  0
 12  8  1  0  0  0  0
 13 18  1  1  0  0  0
 14  5  2  0  0  0  0
 15 20  1  0  0  0  0
 16 12  1  0  0  0  0
 16  5  1  0  0  0  0
 17 16  2  0  0  0  0
 18 10  1  0  0  0  0
 19 10  1  0  0  0  0
 19 20  2  0  0  0  0
 21 23  1  0  0  0  0
 23 22  2  0  0  0  0
 24 28  1  0  0  0  0
 26 29  2  0  0  0  0
 27 24  1  0  0  0  0
 28 25  1  0  0  0  0
 29 30  1  0  0  0  0
 30 23  1  0  0  0  0
 30 25  1  0  0  0  0
 31 29  1  0  0  0  0
 31 24  1  0  0  0  0
M  END
>  <MODEL>
7

>  <REMARK>
 VINA RESULT:      -5.9      4.276      8.360
  Name = 
  2 active torsions:
  status: ('A' for Active; 'I' for Inactive)
    1  A    between atoms: C_5  and  C_16
    2  A    between atoms: N_10  and  C_16
                            x       y       z     vdW  Elec       q    Type
                         _______ _______ _______ _____ _____    ______ ____

>  <TORSDO>
F 2

$$$$
=
 OpenBabel11122413143D

 31 35  0  0  1  0  0  0  0  0999 V2000
  162.2190  211.8270  148.9300 C   0  0  0  0  0  0  0  0  0  0  0  0
  162.4750  208.7270  151.1240 C   0  0  2  0  0  3  0  0  0  0  0  0
  161.5410  208.9640  152.3050 C   0  0  0  0  0  0  0  0  0  0  0  0
  160.2590  210.4590  153.7330 C   0  0  0  0  0  0  0  0  0  0  0  0
  162.1650  209.6260  149.9530 C   0  0  0  0  0  0  0  0  0  0  0  0
  161.5190  211.3340  147.8260 C   0  0  0  0  0  3  0  0  0  0  0  0
  161.0920  210.2540  152.6310 C   0  0  0  0  0  3  0  0  0  0  0  0
  161.1900  206.9600  149.9790 N   0  0  0  0  0  0  0  0  0  0  0  0
  162.5810  213.1310  148.9760 F   0  0  0  0  0  0  0  0  0  0  0  0
  161.6470  206.5970  152.8730 O   0  0  0  0  0  0  0  0  0  0  0  0
  159.8210  211.7060  154.0270 F   0  0  0  0  0  0  0  0  0  0  0  0
  161.1860  207.6630  148.6930 C   0  0  0  0  0  2  0  0  0  0  0  0
  162.4590  207.2490  150.6730 C   0  0  2  0  0  3  0  0  0  0  0  0
  162.5430  210.9740  149.9890 C   0  0  0  0  0  3  0  0  0  0  0  0
  159.8770  209.3790  154.5320 C   0  0  0  0  0  3  0  0  0  0  0  0
  161.4620  209.1320  148.8360 C   0  0  0  0  0  0  0  0  0  0  0  0
  161.1510  209.9880  147.7750 C   0  0  0  0  0  3  0  0  0  0  0  0
  162.6680  206.3600  151.9070 C   0  0  0  0  0  2  0  0  0  0  0  0
  161.1810  207.8850  153.1410 C   0  0  0  0  0  0  0  0  0  0  0  0
  160.3380  208.0940  154.2360 C   0  0  0  0  0  3  0  0  0  0  0  0
  161.1210  205.5420  149.6450 C   0  0  0  0  0  2  0  0  0  0  0  0
  162.5940  206.1780  147.8960 O   0  0  0  0  0  0  0  0  0  0  0  0
  161.7960  205.3050  148.3320 C   0  0  0  0  0  0  0  0  0  0  0  0
  160.9560  201.9080  145.8940 N   0  0  0  0  0  0  0  0  0  0  0  0
  161.7030  204.2220  146.0830 C   0  0  0  0  0  2  0  0  0  0  0  0
  161.2120  202.6740  149.3380 O   0  0  0  0  0  0  0  0  0  0  0  0
  160.1420  201.0190  145.0850 C   0  0  0  0  0  1  0  0  0  0  0  0
  160.7850  203.2500  145.3460 C   0  0  0  0  0  2  0  0  0  0  0  0
  161.0570  202.9050  148.1100 C   0  0  0  0  0  0  0  0  0  0  0  0
  161.4770  204.1560  147.5290 N   0  0  0  0  0  0  0  0  0  0  0  0
  160.3940  201.8800  147.2420 C   0  0  0  0  0  2  0  0  0  0  0  0
  1  9  1  0  0  0  0
  1 14  1  0  0  0  0
  2  5  1  6  0  0  0
  2  3  1  0  0  0  0
  3  7  2  0  0  0  0
  3 19  1  0  0  0  0
  4 11  1  0  0  0  0
  4 15  2  0  0  0  0
  5 14  2  0  0  0  0
  6  1  2  0  0  0  0
  7  4  1  0  0  0  0
  8 13  1  0  0  0  0
 10 19  1  0  0  0  0
 12 16  1  0  0  0  0
 12  8  1  0  0  0  0
 13  2  1  0  0  0  0
 13 18  1  1  0  0  0
 16  5  1  0  0  0  0
 17  6  1  0  0  0  0
 17 16  2  0  0  0  0
 18 10  1  0  0  0  0
 19 20  2  0  0  0  0
 20 15  1  0  0  0  0
 21  8  1  0  0  0  0
 22 23  2  0  0  0  0
 23 21  1  0  0  0  0
 24 31  1  0  0  0  0
 25 30  1  0  0  0  0
 27 24  1  0  0  0  0
 28 24  1  0  0  0  0
 28 25  1  0  0  0  0
 29 26  2  0  0  0  0
 30 29  1  0  0  0  0
 30 23  1  0  0  0  0
 31 29  1  0  0  0  0
M  END
>  <MODEL>
8

>  <REMARK>
 VINA RESULT:      -5.3      3.969      8.506
  Name = 
  2 active torsions:
  status: ('A' for Active; 'I' for Inactive)
    1  A    between atoms: C_5  and  C_16
    2  A    between atoms: N_10  and  C_16
                            x       y       z     vdW  Elec       q    Type
                         _______ _______ _______ _____ _____    ______ ____

>  <TORSDO>
F 2

$$$$
=
 OpenBabel11122413143D

 31 35  0  0  1  0  0  0  0  0999 V2000
  160.7980  206.5900  155.3580 C   0  0  0  0  0  0  0  0  0  0  0  0
  161.9070  208.4400  152.2220 C   0  0  2  0  0  3  0  0  0  0  0  0
  161.4540  207.5880  151.0430 C   0  0  0  0  0  0  0  0  0  0  0  0
  160.7290  205.4590  150.1140 C   0  0  0  0  0  0  0  0  0  0  0  0
  161.1750  208.1010  153.4960 C   0  0  0  0  0  0  0  0  0  0  0  0
  159.7630  207.4070  155.8170 C   0  0  0  0  0  3  0  0  0  0  0  0
  161.1170  206.2350  151.2090 C   0  0  0  0  0  3  0  0  0  0  0  0
  160.3460  210.3290  151.9430 N   0  0  0  0  0  0  0  0  0  0  0  0
  161.1180  205.4580  156.0310 F   0  0  0  0  0  0  0  0  0  0  0  0
  161.8200  209.4670  149.5360 O   0  0  0  0  0  0  0  0  0  0  0  0
  160.3920  204.1600  150.2910 F   0  0  0  0  0  0  0  0  0  0  0  0
  159.8610  210.2570  153.3250 C   0  0  0  0  0  2  0  0  0  0  0  0
  161.7710  209.9490  151.9200 C   0  0  2  0  0  3  0  0  0  0  0  0
  161.5040  206.9370  154.2030 C   0  0  0  0  0  3  0  0  0  0  0  0
  160.6880  206.0230  148.8370 C   0  0  0  0  0  3  0  0  0  0  0  0
  160.1310  208.9250  153.9640 C   0  0  0  0  0  0  0  0  0  0  0  0
  159.4370  208.5770  155.1270 C   0  0  0  0  0  3  0  0  0  0  0  0
  162.4320  210.2390  150.5650 C   0  0  0  0  0  2  0  0  0  0  0  0
  161.4460  208.1380  149.7430 C   0  0  0  0  0  0  0  0  0  0  0  0
  161.0470  207.3600  148.6520 C   0  0  0  0  0  3  0  0  0  0  0  0
  160.1990  211.7270  151.5540 C   0  0  0  0  0  2  0  0  0  0  0  0
  160.3090  212.5590  153.7750 O   0  0  0  0  0  0  0  0  0  0  0  0
  159.6480  212.5090  152.7030 C   0  0  0  0  0  0  0  0  0  0  0  0
  155.8180  214.3830  152.5780 N   0  0  0  0  0  0  0  0  0  0  0  0
  157.6200  213.3760  153.8770 C   0  0  0  0  0  2  0  0  0  0  0  0
  158.5010  213.7350  150.3660 O   0  0  0  0  0  0  0  0  0  0  0  0
  154.3730  214.4510  152.4660 C   0  0  0  0  0  1  0  0  0  0  0  0
  156.1140  213.4140  153.6290 C   0  0  0  0  0  2  0  0  0  0  0  0
  157.7830  213.5830  151.3890 C   0  0  0  0  0  0  0  0  0  0  0  0
  158.3450  213.1150  152.6310 N   0  0  0  0  0  0  0  0  0  0  0  0
  156.3130  213.8580  151.3080 C   0  0  0  0  0  2  0  0  0  0  0  0
  1  6  1  0  0  0  0
  1  9  1  0  0  0  0
  2  3  1  6  0  0  0
  2  5  1  0  0  0  0
  3  7  1  0  0  0  0
  4 11  1  0  0  0  0
  4  7  2  0  0  0  0
  5 16  2  0  0  0  0
  5 14  1  0  0  0  0
  8 12  1  0  0  0  0
 10 19  1  0  0  0  0
 10 18  1  0  0  0  0
 12 16  1  0  0  0  0
 13 18  1  6  0  0  0
 13  8  1  0  0  0  0
 13  2  1  0  0  0  0
 14  1  2  0  0  0  0
 15  4  1  0  0  0  0
 16 17  1  0  0  0  0
 17  6  2  0  0  0  0
 19  3  2  0  0  0  0
 20 15  2  0  0  0  0
 20 19  1  0  0  0  0
 21  8  1  0  0  0  0
 21 23  1  0  0  0  0
 23 22  2  0  0  0  0
 24 28  1  0  0  0  0
 26 29  2  0  0  0  0
 27 24  1  0  0  0  0
 28 25  1  0  0  0  0
 29 30  1  0  0  0  0
 30 23  1  0  0  0  0
 30 25  1  0  0  0  0
 31 29  1  0  0  0  0
 31 24  1  0  0  0  0
M  END
>  <MODEL>
9

>  <REMARK>
 VINA RESULT:      -4.8      3.952      6.397
  Name = 
  2 active torsions:
  status: ('A' for Active; 'I' for Inactive)
    1  A    between atoms: C_5  and  C_16
    2  A    between atoms: N_10  and  C_16
                            x       y       z     vdW  Elec       q    Type
                         _______ _______ _______ _____ _____    ______ ____

>  <TORSDO>
F 2

$$$$
