=
 OpenBabel11122412433D

 30 35  0  0  1  0  0  0  0  0999 V2000
  161.5840  205.3020  149.2490 C   0  0  2  0  0  3  0  0  0  0  0  0
  160.8310  202.8760  149.0170 C   0  0  0  0  0  0  0  0  0  0  0  0
  161.2800  204.8350  153.5090 N   0  0  0  0  0  2  0  0  0  0  0  0
  161.8950  206.4590  150.2640 C   0  0  1  0  0  3  0  0  0  0  0  0
  160.6290  205.7200  148.3020 O   0  0  0  0  0  0  0  0  0  0  0  0
  163.2200  208.1100  147.9260 C   0  0  0  0  0  1  0  0  0  0  0  0
  160.7210  209.3310  151.5710 C   0  0  1  0  0  3  0  0  0  0  0  0
  161.7330  207.9010  148.1750 C   0  0  1  0  0  3  0  0  0  0  0  0
  160.4560  208.2950  152.6810 C   0  0  2  0  0  3  0  0  0  0  0  0
  161.2540  206.2030  153.8890 C   0  0  0  0  0  0  0  0  0  0  0  0
  161.2920  206.6200  147.4430 C   0  0  2  0  0  3  0  0  0  0  0  0
  161.4160  207.8020  149.6830 C   0  0  2  0  0  3  0  0  0  0  0  0
  160.4570  201.6470  149.5700 C   0  0  0  0  0  3  0  0  0  0  0  0
  160.4090  209.0090  153.9570 N   0  0  0  0  0  2  0  0  0  0  0  0
  161.0100  210.6160  152.3050 C   0  0  0  0  0  2  0  0  0  0  0  0
  160.8560  203.0110  147.6340 O   0  0  0  0  0  1  0  0  0  0  0  0
  161.6970  204.8540  152.1210 C   0  0  2  0  0  3  0  0  0  0  0  0
  160.4470  201.4680  150.9540 C   0  0  0  0  0  3  0  0  0  0  0  0
  161.1810  203.9530  149.8540 C   0  0  0  0  0  0  0  0  0  0  0  0
  161.2170  206.1820  151.5930 C   0  0  1  0  0  3  0  0  0  0  0  0
  161.1190  206.5610  155.0890 O   0  0  0  0  0  0  0  0  0  0  0  0
  161.4730  207.1460  152.7420 C   0  0  1  0  0  3  0  0  0  0  0  0
  160.3470  210.4280  153.6410 C   0  0  0  0  0  2  0  0  0  0  0  0
  162.0380  210.1390  149.7420 O   0  0  0  0  0  1  0  0  0  0  0  0
  160.8160  202.5170  151.7960 C   0  0  0  0  0  3  0  0  0  0  0  0
  161.1680  203.7590  151.2580 C   0  0  0  0  0  0  0  0  0  0  0  0
  161.8230  209.0130  150.5440 C   0  0  1  0  0  3  0  0  0  0  0  0
  160.4560  206.9530  146.3780 O   0  0  0  0  0  0  0  0  0  0  0  0
  162.0690  205.7870  145.2690 O   0  0  0  0  0  1  0  0  0  0  0  0
  160.6950  205.9680  145.4180 C   0  0  0  0  0  2  0  0  0  0  0  0
  1  5  1  6  0  0  0
  1 19  1  0  0  0  0
  1  4  1  0  0  0  0
  2 13  2  0  0  0  0
  2 19  1  0  0  0  0
  3 10  1  0  0  0  0
  4 20  1  0  0  0  0
  6  8  1  0  0  0  0
  7 15  1  0  0  0  0
  7  9  1  0  0  0  0
  8 12  1  0  0  0  0
  9 22  1  0  0  0  0
  9 14  1  0  0  0  0
 10 21  2  0  0  0  0
 11  8  1  0  0  0  0
 11  5  1  0  0  0  0
 12  4  1  0  0  0  0
 12 27  1  0  0  0  0
 13 18  1  0  0  0  0
 15 23  1  0  0  0  0
 16  2  1  0  0  0  0
 17  3  1  0  0  0  0
 18 25  2  0  0  0  0
 19 26  2  0  0  0  0
 20 17  1  0  0  0  0
 20 22  1  0  0  0  0
 22 10  1  0  0  0  0
 23 14  1  0  0  0  0
 24 27  1  0  0  0  0
 26 25  1  0  0  0  0
 26 17  1  0  0  0  0
 27  7  1  0  0  0  0
 28 11  1  0  0  0  0
 29 30  1  0  0  0  0
 30 28  1  0  0  0  0
M  END
>  <MODEL>
1

>  <REMARK>
 VINA RESULT:      -8.3      0.000      0.000
  Name = 
  2 active torsions:
  status: ('A' for Active; 'I' for Inactive)
    1  A    between atoms: C_11  and  O_28
    2  A    between atoms: O_28  and  C_30
                            x       y       z     vdW  Elec       q    Type
                         _______ _______ _______ _____ _____    ______ ____

>  <TORSDO>
F 2

$$$$
=
 OpenBabel11122412433D

 30 35  0  0  1  0  0  0  0  0999 V2000
  160.6820  211.1470  152.5790 C   0  0  2  0  0  3  0  0  0  0  0  0
  159.9220  213.2890  151.4210 C   0  0  0  0  0  0  0  0  0  0  0  0
  162.1720  209.7980  148.7810 N   0  0  0  0  0  2  0  0  0  0  0  0
  161.3750  209.7530  152.3740 C   0  0  1  0  0  3  0  0  0  0  0  0
  159.4170  210.9860  153.1770 O   0  0  0  0  0  0  0  0  0  0  0  0
  161.5990  209.4410  155.5050 C   0  0  0  0  0  1  0  0  0  0  0  0
  160.8210  206.4410  152.1260 C   0  0  1  0  0  3  0  0  0  0  0  0
  160.3500  209.2700  154.6510 C   0  0  1  0  0  3  0  0  0  0  0  0
  161.0480  206.8790  150.6660 C   0  0  2  0  0  3  0  0  0  0  0  0
  162.2930  208.4110  149.0620 C   0  0  0  0  0  0  0  0  0  0  0  0
  159.6570  210.6390  154.5220 C   0  0  2  0  0  3  0  0  0  0  0  0
  160.6860  208.6960  153.2570 C   0  0  2  0  0  3  0  0  0  0  0  0
  159.8210  214.1060  150.2900 C   0  0  0  0  0  3  0  0  0  0  0  0
  161.5270  205.7150  149.9200 N   0  0  0  0  0  2  0  0  0  0  0  0
  161.3760  205.0410  152.1990 C   0  0  0  0  0  2  0  0  0  0  0  0
  159.3710  213.7290  152.6190 O   0  0  0  0  0  1  0  0  0  0  0  0
  161.9770  210.4130  150.0790 C   0  0  2  0  0  3  0  0  0  0  0  0
  160.3860  213.7070  149.0780 C   0  0  0  0  0  3  0  0  0  0  0  0
  160.5780  212.0450  151.3410 C   0  0  0  0  0  0  0  0  0  0  0  0
  161.3100  209.3480  150.9130 C   0  0  1  0  0  3  0  0  0  0  0  0
  162.6630  207.5830  148.1880 O   0  0  0  0  0  0  0  0  0  0  0  0
  162.0100  208.0640  150.4930 C   0  0  1  0  0  3  0  0  0  0  0  0
  161.3270  204.5570  150.7760 C   0  0  0  0  0  2  0  0  0  0  0  0
  161.2560  206.6810  154.4690 O   0  0  0  0  0  1  0  0  0  0  0  0
  161.0610  212.4900  148.9880 C   0  0  0  0  0  3  0  0  0  0  0  0
  161.1480  211.6520  150.1060 C   0  0  0  0  0  0  0  0  0  0  0  0
  161.4020  207.3320  153.2390 C   0  0  1  0  0  3  0  0  0  0  0  0
  158.4520  210.6230  155.2240 O   0  0  0  0  0  0  0  0  0  0  0  0
  156.2810  211.1570  154.7900 O   0  0  0  0  0  1  0  0  0  0  0  0
  157.6080  211.4670  154.5000 C   0  0  0  0  0  2  0  0  0  0  0  0
  1 19  1  6  0  0  0
  1  5  1  0  0  0  0
  2 16  1  0  0  0  0
  3 10  1  0  0  0  0
  3 17  1  0  0  0  0
  4  1  1  0  0  0  0
  4 12  1  0  0  0  0
  5 11  1  0  0  0  0
  7 15  1  0  0  0  0
  7 27  1  0  0  0  0
  8  6  1  0  0  0  0
  9  7  1  0  0  0  0
 10 22  1  0  0  0  0
 11  8  1  0  0  0  0
 11 28  1  0  0  0  0
 12  8  1  0  0  0  0
 13  2  2  0  0  0  0
 14  9  1  0  0  0  0
 14 23  1  0  0  0  0
 17 26  1  0  0  0  0
 17 20  1  0  0  0  0
 18 13  1  0  0  0  0
 19  2  1  0  0  0  0
 20  4  1  0  0  0  0
 21 10  2  0  0  0  0
 22  9  1  0  0  0  0
 22 20  1  0  0  0  0
 23 15  1  0  0  0  0
 25 18  2  0  0  0  0
 25 26  1  0  0  0  0
 26 19  2  0  0  0  0
 27 12  1  0  0  0  0
 27 24  1  0  0  0  0
 30 29  1  0  0  0  0
 30 28  1  0  0  0  0
M  END
>  <MODEL>
2

>  <REMARK>
 VINA RESULT:      -7.2      2.987      7.800
  Name = 
  2 active torsions:
  status: ('A' for Active; 'I' for Inactive)
    1  A    between atoms: C_11  and  O_28
    2  A    between atoms: O_28  and  C_30
                            x       y       z     vdW  Elec       q    Type
                         _______ _______ _______ _____ _____    ______ ____

>  <TORSDO>
F 2

$$$$
=
 OpenBabel11122412433D

 30 35  0  0  1  0  0  0  0  0999 V2000
  161.6930  208.5610  151.6590 C   0  0  2  0  0  3  0  0  0  0  0  0
  161.4180  210.9870  150.9200 C   0  0  0  0  0  0  0  0  0  0  0  0
  162.3960  207.5430  147.5450 N   0  0  0  0  0  2  0  0  0  0  0  0
  161.9690  207.0940  151.1730 C   0  0  1  0  0  3  0  0  0  0  0  0
  160.4940  208.6180  152.3970 O   0  0  0  0  0  0  0  0  0  0  0  0
  162.4060  206.2160  154.1710 C   0  0  0  0  0  1  0  0  0  0  0  0
  160.5370  204.1100  150.5520 C   0  0  1  0  0  3  0  0  0  0  0  0
  161.0800  206.5030  153.4810 C   0  0  1  0  0  3  0  0  0  0  0  0
  160.7290  204.7170  149.1490 C   0  0  2  0  0  3  0  0  0  0  0  0
  162.1730  206.1420  147.6140 C   0  0  0  0  0  0  0  0  0  0  0  0
  160.7640  208.0020  153.6360 C   0  0  2  0  0  3  0  0  0  0  0  0
  161.1140  206.1070  151.9890 C   0  0  2  0  0  3  0  0  0  0  0  0
  161.4270  211.9810  149.9370 C   0  0  0  0  0  3  0  0  0  0  0  0
  160.8080  203.6130  148.1920 N   0  0  0  0  0  2  0  0  0  0  0  0
  160.7070  202.6250  150.3560 C   0  0  0  0  0  2  0  0  0  0  0  0
  161.1220  211.3420  152.2320 O   0  0  0  0  0  1  0  0  0  0  0  0
  162.4980  207.9600  148.9290 C   0  0  2  0  0  3  0  0  0  0  0  0
  161.7450  211.6640  148.6150 C   0  0  0  0  0  3  0  0  0  0  0  0
  161.7100  209.6510  150.5820 C   0  0  0  0  0  0  0  0  0  0  0  0
  161.6570  206.9680  149.6930 C   0  0  1  0  0  3  0  0  0  0  0  0
  162.2240  205.4060  146.5920 O   0  0  0  0  0  0  0  0  0  0  0  0
  161.9490  205.6400  149.0090 C   0  0  1  0  0  3  0  0  0  0  0  0
  160.3930  202.4130  148.9000 C   0  0  0  0  0  2  0  0  0  0  0  0
  161.2460  203.8400  152.8240 O   0  0  0  0  0  1  0  0  0  0  0  0
  162.0630  210.3510  148.2690 C   0  0  0  0  0  3  0  0  0  0  0  0
  162.0330  209.3420  149.2380 C   0  0  0  0  0  0  0  0  0  0  0  0
  161.4390  204.6310  151.6860 C   0  0  1  0  0  3  0  0  0  0  0  0
  159.6720  208.1660  154.4880 O   0  0  0  0  0  0  0  0  0  0  0  0
  161.3810  209.3000  155.4810 O   0  0  0  0  0  1  0  0  0  0  0  0
  160.0020  209.2670  155.2800 C   0  0  0  0  0  2  0  0  0  0  0  0
  1 19  1  6  0  0  0
  1  5  1  0  0  0  0
  2 16  1  0  0  0  0
  3 10  1  0  0  0  0
  3 17  1  0  0  0  0
  4  1  1  0  0  0  0
  4 12  1  0  0  0  0
  5 11  1  0  0  0  0
  7 27  1  0  0  0  0
  8 11  1  0  0  0  0
  8  6  1  0  0  0  0
  9  7  1  0  0  0  0
 10 22  1  0  0  0  0
 11 28  1  0  0  0  0
 12  8  1  0  0  0  0
 13  2  2  0  0  0  0
 14 23  1  0  0  0  0
 14  9  1  0  0  0  0
 15  7  1  0  0  0  0
 17 26  1  0  0  0  0
 17 20  1  0  0  0  0
 18 13  1  0  0  0  0
 19  2  1  0  0  0  0
 20  4  1  0  0  0  0
 21 10  2  0  0  0  0
 22  9  1  0  0  0  0
 22 20  1  0  0  0  0
 23 15  1  0  0  0  0
 25 18  2  0  0  0  0
 25 26  1  0  0  0  0
 26 19  2  0  0  0  0
 27 12  1  0  0  0  0
 27 24  1  0  0  0  0
 28 30  1  0  0  0  0
 30 29  1  0  0  0  0
M  END
>  <MODEL>
3

>  <REMARK>
 VINA RESULT:      -6.3      2.366      7.129
  Name = 
  2 active torsions:
  status: ('A' for Active; 'I' for Inactive)
    1  A    between atoms: C_11  and  O_28
    2  A    between atoms: O_28  and  C_30
                            x       y       z     vdW  Elec       q    Type
                         _______ _______ _______ _____ _____    ______ ____

>  <TORSDO>
F 2

$$$$
=
 OpenBabel11122412433D

 30 35  0  0  1  0  0  0  0  0999 V2000
  161.6450  204.5210  148.3880 C   0  0  2  0  0  3  0  0  0  0  0  0
  160.7820  202.1470  148.0270 C   0  0  0  0  0  0  0  0  0  0  0  0
  161.2350  203.8680  152.6150 N   0  0  0  0  0  2  0  0  0  0  0  0
  161.9900  205.6120  149.4630 C   0  0  1  0  0  3  0  0  0  0  0  0
  160.7290  205.0290  147.4460 O   0  0  0  0  0  0  0  0  0  0  0  0
  163.4380  207.3060  147.2300 C   0  0  0  0  0  1  0  0  0  0  0  0
  160.9280  208.4730  150.8860 C   0  0  1  0  0  3  0  0  0  0  0  0
  161.9380  207.1580  147.4440 C   0  0  1  0  0  3  0  0  0  0  0  0
  160.5920  207.3990  151.9400 C   0  0  2  0  0  3  0  0  0  0  0  0
  161.2670  205.2170  153.0590 C   0  0  0  0  0  0  0  0  0  0  0  0
  161.4510  205.9350  146.6430 C   0  0  2  0  0  3  0  0  0  0  0  0
  161.5870  207.0030  148.9390 C   0  0  2  0  0  3  0  0  0  0  0  0
  160.3390  200.9140  148.5130 C   0  0  0  0  0  3  0  0  0  0  0  0
  160.5540  208.0540  153.2470 N   0  0  0  0  0  2  0  0  0  0  0  0
  161.2630  209.7060  151.6860 C   0  0  0  0  0  2  0  0  0  0  0  0
  160.8410  202.3470  146.6520 O   0  0  0  0  0  1  0  0  0  0  0  0
  161.6800  203.9330  151.2370 C   0  0  2  0  0  3  0  0  0  0  0  0
  160.2930  200.6700  149.8870 C   0  0  0  0  0  3  0  0  0  0  0  0
  161.1660  203.1660  148.9210 C   0  0  0  0  0  0  0  0  0  0  0  0
  161.2740  205.3060  150.7650 C   0  0  1  0  0  3  0  0  0  0  0  0
  161.1250  205.5240  154.2730 O   0  0  0  0  0  0  0  0  0  0  0  0
  161.5530  206.2010  151.9640 C   0  0  1  0  0  3  0  0  0  0  0  0
  160.5650  209.4870  153.0000 C   0  0  0  0  0  2  0  0  0  0  0  0
  162.3180  209.3020  149.1210 O   0  0  0  0  0  1  0  0  0  0  0  0
  160.6950  201.6590  150.7850 C   0  0  0  0  0  3  0  0  0  0  0  0
  161.1170  202.9070  150.3130 C   0  0  0  0  0  0  0  0  0  0  0  0
  162.0340  208.1510  149.8640 C   0  0  1  0  0  3  0  0  0  0  0  0
  160.6530  206.3590  145.5800 O   0  0  0  0  0  0  0  0  0  0  0  0
  161.5070  204.8210  144.1320 O   0  0  0  0  0  1  0  0  0  0  0  0
  160.3780  205.1960  144.8580 C   0  0  0  0  0  2  0  0  0  0  0  0
  1  5  1  6  0  0  0
  1 19  1  0  0  0  0
  1  4  1  0  0  0  0
  2 13  2  0  0  0  0
  2 19  1  0  0  0  0
  3 10  1  0  0  0  0
  4 20  1  0  0  0  0
  6  8  1  0  0  0  0
  7 15  1  0  0  0  0
  7  9  1  0  0  0  0
  8 12  1  0  0  0  0
  9 22  1  0  0  0  0
  9 14  1  0  0  0  0
 10 21  2  0  0  0  0
 11  8  1  0  0  0  0
 11  5  1  0  0  0  0
 12  4  1  0  0  0  0
 12 27  1  0  0  0  0
 13 18  1  0  0  0  0
 15 23  1  0  0  0  0
 16  2  1  0  0  0  0
 17  3  1  0  0  0  0
 18 25  2  0  0  0  0
 19 26  2  0  0  0  0
 20 17  1  0  0  0  0
 20 22  1  0  0  0  0
 22 10  1  0  0  0  0
 23 14  1  0  0  0  0
 24 27  1  0  0  0  0
 26 25  1  0  0  0  0
 26 17  1  0  0  0  0
 27  7  1  0  0  0  0
 28 11  1  0  0  0  0
 29 30  1  0  0  0  0
 30 28  1  0  0  0  0
M  END
>  <MODEL>
4

>  <REMARK>
 VINA RESULT:      -6.3      1.056      1.201
  Name = 
  2 active torsions:
  status: ('A' for Active; 'I' for Inactive)
    1  A    between atoms: C_11  and  O_28
    2  A    between atoms: O_28  and  C_30
                            x       y       z     vdW  Elec       q    Type
                         _______ _______ _______ _____ _____    ______ ____

>  <TORSDO>
F 2

$$$$
