=
 OpenBabel11122412533D

 32 38  0  0  1  0  0  0  0  0999 V2000
  160.4430  208.4940  156.7460 C   0  0  1  0  0  3  0  0  0  0  0  0
  161.0250  206.2110  152.1450 C   0  0  0  0  0  0  0  0  0  0  0  0
  161.9550  209.8990  149.0660 C   0  0  0  0  0  3  0  0  0  0  0  0
  161.9660  209.0080  147.9950 C   0  0  0  0  0  3  0  0  0  0  0  0
  160.8110  203.8850  151.2360 C   0  0  0  0  0  0  0  0  0  0  0  0
  160.8390  203.0580  150.1160 C   0  0  0  0  0  0  0  0  0  0  0  0
  160.7780  206.6990  154.5230 C   0  0  0  0  0  0  0  0  0  0  0  0
  161.2480  208.4940  152.9920 C   0  0  0  0  0  3  0  0  0  0  0  0
  161.0380  202.4890  147.9520 N   0  0  0  0  0  0  0  0  0  0  0  0
  161.0200  209.0410  155.4270 C   0  0  2  0  0  3  0  0  0  0  0  0
  161.7200  209.4300  150.3580 C   0  0  0  0  0  3  0  0  0  0  0  0
  161.2560  207.5950  151.9080 C   0  0  0  0  0  0  0  0  0  0  0  0
  161.4920  208.0630  150.6020 C   0  0  0  0  0  0  0  0  0  0  0  0
  161.2780  205.7830  149.7350 C   0  0  0  0  0  0  0  0  0  0  0  0
  160.7810  201.2550  148.5770 N   0  0  0  0  0  0  0  0  0  0  0  0
  159.8190  207.2080  156.6300 O   0  0  0  0  0  0  0  0  0  0  0  0
  161.0160  208.0520  154.2920 C   0  0  0  0  0  0  0  0  0  0  0  0
  160.6410  201.5820  150.0150 C   0  0  0  0  0  3  0  0  0  0  0  0
  160.5820  206.2490  155.9260 C   0  0  0  0  0  2  0  0  0  0  0  0
  161.9540  208.5590  156.5350 C   0  0  1  0  0  3  0  0  0  0  0  0
  161.7420  207.6490  148.2180 C   0  0  0  0  0  3  0  0  0  0  0  0
  161.5030  207.1570  149.5150 C   0  0  0  0  0  0  0  0  0  0  0  0
  161.2920  204.8880  148.6420 C   0  0  0  0  0  3  0  0  0  0  0  0
  160.7950  205.7890  153.4680 C   0  0  0  0  0  3  0  0  0  0  0  0
  160.5680  203.3120  152.4800 O   0  0  0  0  0  1  0  0  0  0  0  0
  161.2850  202.6520  146.2370 Cl  0  0  0  0  0  0  0  0  0  0  0  0
  161.0350  205.2890  151.0620 C   0  0  0  0  0  0  0  0  0  0  0  0
  161.0680  203.5420  148.8810 C   0  0  0  0  0  0  0  0  0  0  0  0
  162.4920  209.7080  157.2440 N   0  0  0  0  0  2  0  0  0  0  0  0
  163.2220  210.7460  156.5850 C   0  0  0  0  0  0  0  0  0  0  0  0
  163.4660  210.7040  155.1150 C   0  0  0  0  0  1  0  0  0  0  0  0
  163.6640  211.7130  157.2560 O   0  0  0  0  0  0  0  0  0  0  0  0
  1 16  1  6  0  0  0
  2 24  1  0  0  0  0
  3 11  1  0  0  0  0
  4 21  1  0  0  0  0
  4  3  2  0  0  0  0
  5 25  1  0  0  0  0
  6  5  2  0  0  0  0
  7 19  1  0  0  0  0
  8 17  2  0  0  0  0
  9 15  1  0  0  0  0
  9 28  1  0  0  0  0
 10 17  1  6  0  0  0
 10 20  1  0  0  0  0
 10  1  1  0  0  0  0
 11 13  2  0  0  0  0
 12  2  2  0  0  0  0
 12  8  1  0  0  0  0
 13 12  1  0  0  0  0
 14 27  2  0  0  0  0
 15 18  2  0  0  0  0
 17  7  1  0  0  0  0
 18  6  1  0  0  0  0
 19 16  1  0  0  0  0
 20  1  1  0  0  0  0
 20 29  1  1  0  0  0
 21 22  2  0  0  0  0
 22 14  1  0  0  0  0
 22 13  1  0  0  0  0
 23 28  2  0  0  0  0
 23 14  1  0  0  0  0
 24  7  2  0  0  0  0
 26  9  1  0  0  0  0
 27  5  1  0  0  0  0
 27  2  1  0  0  0  0
 28  6  1  0  0  0  0
 30 29  1  0  0  0  0
 30 32  2  0  0  0  0
 31 30  1  0  0  0  0
M  END
>  <MODEL>
1

>  <REMARK>
 VINA RESULT:     -10.6      0.000      0.000
  Name = 
  1 active torsions:
  status: ('A' for Active; 'I' for Inactive)
    1  A    between atoms: C_20  and  N_29
                            x       y       z     vdW  Elec       q    Type
                         _______ _______ _______ _____ _____    ______ ____

>  <TORSDO>
F 1

$$$$
=
 OpenBabel11122412533D

 32 38  0  0  1  0  0  0  0  0999 V2000
  161.8610  210.2730  153.7110 C   0  0  1  0  0  3  0  0  0  0  0  0
  161.2280  206.6240  150.1050 C   0  0  0  0  0  0  0  0  0  0  0  0
  160.7750  202.4670  152.6480 C   0  0  0  0  0  3  0  0  0  0  0  0
  160.7170  201.7420  151.4610 C   0  0  0  0  0  3  0  0  0  0  0  0
  161.2480  206.5280  147.6010 C   0  0  0  0  0  0  0  0  0  0  0  0
  161.1810  205.7340  146.4590 C   0  0  0  0  0  0  0  0  0  0  0  0
  161.4350  208.7290  151.3210 C   0  0  0  0  0  0  0  0  0  0  0  0
  161.1980  206.6750  152.5500 C   0  0  0  0  0  3  0  0  0  0  0  0
  161.0060  203.8600  145.2320 N   0  0  0  0  0  0  0  0  0  0  0  0
  161.3890  208.8140  153.8410 C   0  0  2  0  0  3  0  0  0  0  0  0
  160.9160  203.8550  152.6100 C   0  0  0  0  0  3  0  0  0  0  0  0
  161.1420  205.9400  151.3500 C   0  0  0  0  0  0  0  0  0  0  0  0
  161.0010  204.5400  151.3830 C   0  0  0  0  0  0  0  0  0  0  0  0
  161.0230  204.4690  148.9360 C   0  0  0  0  0  0  0  0  0  0  0  0
  161.1190  204.8640  144.2540 N   0  0  0  0  0  0  0  0  0  0  0  0
  162.3610  210.6190  152.4120 O   0  0  0  0  0  0  0  0  0  0  0  0
  161.3380  208.0600  152.5390 C   0  0  0  0  0  0  0  0  0  0  0  0
  161.2370  206.1260  145.0200 C   0  0  0  0  0  3  0  0  0  0  0  0
  161.5350  210.2130  151.3400 C   0  0  0  0  0  2  0  0  0  0  0  0
  160.3720  209.9530  153.8240 C   0  0  1  0  0  3  0  0  0  0  0  0
  160.7980  202.4050  150.2350 C   0  0  0  0  0  3  0  0  0  0  0  0
  160.9410  203.8040  150.1760 C   0  0  0  0  0  0  0  0  0  0  0  0
  160.9620  203.7230  147.7380 C   0  0  0  0  0  3  0  0  0  0  0  0
  161.3680  208.0240  150.1210 C   0  0  0  0  0  3  0  0  0  0  0  0
  161.3880  207.9040  147.4480 O   0  0  0  0  0  1  0  0  0  0  0  0
  160.8390  202.1710  144.8460 Cl  0  0  0  0  0  0  0  0  0  0  0  0
  161.1690  205.8970  148.8840 C   0  0  0  0  0  0  0  0  0  0  0  0
  161.0450  204.3970  146.5300 C   0  0  0  0  0  0  0  0  0  0  0  0
  159.9230  210.2180  155.1810 N   0  0  0  0  0  2  0  0  0  0  0  0
  158.7330  210.9540  155.4670 C   0  0  0  0  0  0  0  0  0  0  0  0
  157.8750  211.4900  154.3710 C   0  0  0  0  0  1  0  0  0  0  0  0
  158.3990  211.1520  156.6630 O   0  0  0  0  0  0  0  0  0  0  0  0
  1 16  1  6  0  0  0
  1 20  1  0  0  0  0
  1 10  1  0  0  0  0
  2 24  2  0  0  0  0
  2 12  1  0  0  0  0
  4  3  2  0  0  0  0
  5 27  1  0  0  0  0
  6 28  1  0  0  0  0
  6  5  2  0  0  0  0
  7 19  1  0  0  0  0
  7 17  2  0  0  0  0
  9 28  1  0  0  0  0
 10 17  1  6  0  0  0
 11  3  1  0  0  0  0
 12 13  1  0  0  0  0
 12  8  2  0  0  0  0
 13 11  2  0  0  0  0
 14 22  1  0  0  0  0
 15 18  2  0  0  0  0
 15  9  1  0  0  0  0
 17  8  1  0  0  0  0
 18  6  1  0  0  0  0
 19 16  1  0  0  0  0
 20 10  1  0  0  0  0
 20 29  1  1  0  0  0
 21  4  1  0  0  0  0
 22 21  2  0  0  0  0
 22 13  1  0  0  0  0
 23 14  1  0  0  0  0
 24  7  1  0  0  0  0
 25  5  1  0  0  0  0
 26  9  1  0  0  0  0
 27 14  2  0  0  0  0
 27  2  1  0  0  0  0
 28 23  2  0  0  0  0
 29 30  1  0  0  0  0
 30 32  2  0  0  0  0
 31 30  1  0  0  0  0
M  END
>  <MODEL>
2

>  <REMARK>
 VINA RESULT:     -10.0      2.557      4.559
  Name = 
  1 active torsions:
  status: ('A' for Active; 'I' for Inactive)
    1  A    between atoms: C_20  and  N_29
                            x       y       z     vdW  Elec       q    Type
                         _______ _______ _______ _____ _____    ______ ____

>  <TORSDO>
F 1

$$$$
=
 OpenBabel11122412533D

 32 38  0  0  1  0  0  0  0  0999 V2000
  161.4230  201.1900  148.6590 C   0  0  1  0  0  3  0  0  0  0  0  0
  161.2060  205.6420  151.2760 C   0  0  0  0  0  0  0  0  0  0  0  0
  162.3180  209.0610  147.9550 C   0  0  0  0  0  3  0  0  0  0  0  0
  162.2610  210.0430  148.9410 C   0  0  0  0  0  3  0  0  0  0  0  0
  160.8340  206.3290  153.6580 C   0  0  0  0  0  0  0  0  0  0  0  0
  160.7940  207.3660  154.5850 C   0  0  0  0  0  0  0  0  0  0  0  0
  161.0370  203.3170  150.5580 C   0  0  0  0  0  0  0  0  0  0  0  0
  161.5700  205.0160  148.9400 C   0  0  0  0  0  3  0  0  0  0  0  0
  160.9290  209.4700  155.3640 N   0  0  0  0  0  0  0  0  0  0  0  0
  161.3900  202.6440  148.1530 C   0  0  2  0  0  3  0  0  0  0  0  0
  162.0720  207.7280  148.2860 C   0  0  0  0  0  3  0  0  0  0  0  0
  161.5150  206.0100  149.9370 C   0  0  0  0  0  0  0  0  0  0  0  0
  161.7640  207.3560  149.6080 C   0  0  0  0  0  0  0  0  0  0  0  0
  161.3970  208.0040  151.9410 C   0  0  0  0  0  0  0  0  0  0  0  0
  160.6030  208.7300  156.5150 N   0  0  0  0  0  0  0  0  0  0  0  0
  161.5880  201.0620  150.0780 O   0  0  0  0  0  0  0  0  0  0  0  0
  161.3280  203.6790  149.2450 C   0  0  0  0  0  0  0  0  0  0  0  0
  160.5020  207.3280  156.0480 C   0  0  0  0  0  3  0  0  0  0  0  0
  160.7350  201.8890  150.8440 C   0  0  0  0  0  2  0  0  0  0  0  0
  160.1160  201.8020  148.1600 C   0  0  1  0  0  3  0  0  0  0  0  0
  161.9560  209.6920  150.2560 C   0  0  0  0  0  3  0  0  0  0  0  0
  161.7040  208.3530  150.6100 C   0  0  0  0  0  0  0  0  0  0  0  0
  161.3410  209.0090  152.9320 C   0  0  0  0  0  3  0  0  0  0  0  0
  160.9640  204.2850  151.5570 C   0  0  0  0  0  3  0  0  0  0  0  0
  160.5710  205.0350  154.0960 O   0  0  0  0  0  1  0  0  0  0  0  0
  161.1610  211.1950  155.3760 Cl  0  0  0  0  0  0  0  0  0  0  0  0
  161.1420  206.6350  152.2930 C   0  0  0  0  0  0  0  0  0  0  0  0
  161.0370  208.6430  154.2340 C   0  0  0  0  0  0  0  0  0  0  0  0
  159.8440  201.3290  146.8130 N   0  0  0  0  0  2  0  0  0  0  0  0
  160.3530  201.9850  145.6500 C   0  0  0  0  0  0  0  0  0  0  0  0
  161.2060  203.2030  145.7630 C   0  0  0  0  0  1  0  0  0  0  0  0
  160.0800  201.5280  144.5110 O   0  0  0  0  0  0  0  0  0  0  0  0
  1 16  1  1  0  0  0
  2 24  1  0  0  0  0
  2 27  1  0  0  0  0
  3 11  2  0  0  0  0
  3  4  1  0  0  0  0
  4 21  2  0  0  0  0
  5 25  1  0  0  0  0
  5  6  1  0  0  0  0
  6 18  1  0  0  0  0
  7 19  1  0  0  0  0
  7 24  2  0  0  0  0
  8 17  2  0  0  0  0
  8 12  1  0  0  0  0
  9 26  1  0  0  0  0
  9 15  1  0  0  0  0
 10 20  1  0  0  0  0
 10  1  1  0  0  0  0
 10 17  1  1  0  0  0
 11 13  1  0  0  0  0
 12  2  2  0  0  0  0
 13 12  1  0  0  0  0
 13 22  2  0  0  0  0
 14 27  1  0  0  0  0
 14 23  2  0  0  0  0
 16 19  1  0  0  0  0
 17  7  1  0  0  0  0
 18 15  2  0  0  0  0
 20 29  1  6  0  0  0
 20  1  1  0  0  0  0
 21 22  1  0  0  0  0
 22 14  1  0  0  0  0
 23 28  1  0  0  0  0
 27  5  2  0  0  0  0
 28  6  2  0  0  0  0
 28  9  1  0  0  0  0
 30 31  1  0  0  0  0
 30 29  1  0  0  0  0
 32 30  2  0  0  0  0
M  END
>  <MODEL>
3

>  <REMARK>
 VINA RESULT:      -9.1      3.025      7.956
  Name = 
  1 active torsions:
  status: ('A' for Active; 'I' for Inactive)
    1  A    between atoms: C_20  and  N_29
                            x       y       z     vdW  Elec       q    Type
                         _______ _______ _______ _____ _____    ______ ____

>  <TORSDO>
F 1

$$$$
