=
 OpenBabel11122412383D

 30 35  0  0  1  0  0  0  0  0999 V2000
  161.1620  205.5930  149.7950 C   0  0  0  0  0  0  0  0  0  0  0  0
  161.1150  203.0710  149.6400 C   0  0  0  0  0  0  0  0  0  0  0  0
  160.9460  205.3880  153.8560 N   0  0  0  0  0  0  0  0  0  0  0  0
  161.1980  206.7710  150.6040 C   0  0  0  0  0  0  0  0  0  0  0  0
  161.1710  205.7520  148.4100 C   0  0  0  0  0  3  0  0  0  0  0  0
  161.4490  209.2660  148.0900 O   0  0  0  0  0  0  0  0  0  0  0  0
  160.5500  209.5900  151.7410 C   0  0  1  0  0  3  0  0  0  0  0  0
  161.3470  208.1310  148.6340 C   0  0  0  0  0  0  0  0  0  0  0  0
  160.7530  208.8930  152.9870 N   0  0  0  0  0  0  0  0  0  0  0  0
  160.8810  206.6860  154.2030 C   0  0  0  0  0  0  0  0  0  0  0  0
  161.2420  207.0070  147.8190 C   0  0  0  0  0  0  0  0  0  0  0  0
  161.3540  208.0110  150.0030 N   0  0  0  0  0  0  0  0  0  0  0  0
  161.0790  201.8410  150.3030 C   0  0  0  0  0  3  0  0  0  0  0  0
  160.7750  209.7800  154.1340 C   0  0  0  0  0  2  0  0  0  0  0  0
  160.5910  211.0690  152.0820 C   0  0  0  0  0  2  0  0  0  0  0  0
  161.1540  203.0430  148.2150 N   0  0  0  0  0  1  0  0  0  0  0  0
  161.0610  205.3390  152.5360 N   0  0  0  0  0  0  0  0  0  0  0  0
  161.0440  201.7780  151.6910 C   0  0  0  0  0  3  0  0  0  0  0  0
  161.1190  204.2890  150.3850 C   0  0  0  0  0  0  0  0  0  0  0  0
  161.0880  206.5780  152.0060 C   0  0  0  0  0  0  0  0  0  0  0  0
  160.6850  207.1420  155.6060 C   0  0  0  0  0  1  0  0  0  0  0  0
  160.9490  207.4750  153.0620 C   0  0  0  0  0  0  0  0  0  0  0  0
  160.4490  211.1580  153.5940 C   0  0  0  0  0  2  0  0  0  0  0  0
  163.0620  209.2360  151.3200 C   0  0  0  0  0  1  0  0  0  0  0  0
  161.0450  202.9520  152.4370 C   0  0  0  0  0  3  0  0  0  0  0  0
  161.0840  204.2000  151.8010 C   0  0  0  0  0  0  0  0  0  0  0  0
  161.6470  209.2420  150.7470 C   0  0  2  0  0  3  0  0  0  0  0  0
  161.2300  207.1560  146.4270 O   0  0  0  0  0  0  0  0  0  0  0  0
  161.4010  205.5020  144.7010 C   0  0  0  0  0  1  0  0  0  0  0  0
  160.4680  206.3190  145.5690 C   0  0  0  0  0  2  0  0  0  0  0  0
  1 19  1  0  0  0  0
  1  4  2  0  0  0  0
  2 13  2  0  0  0  0
  2 19  1  0  0  0  0
  3 10  2  0  0  0  0
  4 20  1  0  0  0  0
  5  1  1  0  0  0  0
  6  8  2  0  0  0  0
  7 15  1  1  0  0  0
  7  9  1  0  0  0  0
  8 12  1  0  0  0  0
  9 22  1  0  0  0  0
  9 14  1  0  0  0  0
 10 21  1  0  0  0  0
 11  5  2  0  0  0  0
 11  8  1  0  0  0  0
 12  4  1  0  0  0  0
 12 27  1  0  0  0  0
 13 18  1  0  0  0  0
 15 23  1  0  0  0  0
 16  2  1  0  0  0  0
 17  3  1  0  0  0  0
 18 25  2  0  0  0  0
 19 26  2  0  0  0  0
 20 17  1  0  0  0  0
 20 22  2  0  0  0  0
 22 10  1  0  0  0  0
 23 14  1  0  0  0  0
 26 25  1  0  0  0  0
 26 17  1  0  0  0  0
 27 24  1  1  0  0  0
 27  7  1  0  0  0  0
 28 11  1  0  0  0  0
 29 30  1  0  0  0  0
 30 28  1  0  0  0  0
M  END
>  <MODEL>
1

>  <REMARK>
 VINA RESULT:      -7.9      0.000      0.000
  Name = 
  2 active torsions:
  status: ('A' for Active; 'I' for Inactive)
    1  A    between atoms: C_11  and  O_28
    2  A    between atoms: O_28  and  C_30
                            x       y       z     vdW  Elec       q    Type
                         _______ _______ _______ _____ _____    ______ ____

>  <TORSDO>
F 2

$$$$
=
 OpenBabel11122412383D

 30 35  0  0  1  0  0  0  0  0999 V2000
  161.5010  208.5570  151.6710 C   0  0  0  0  0  0  0  0  0  0  0  0
  161.2670  209.2320  154.0960 C   0  0  0  0  0  0  0  0  0  0  0  0
  160.8660  204.6570  152.6530 N   0  0  0  0  0  0  0  0  0  0  0  0
  161.4470  207.5360  150.6720 C   0  0  0  0  0  0  0  0  0  0  0  0
  161.7910  209.8570  151.2600 C   0  0  0  0  0  3  0  0  0  0  0  0
  162.0190  209.4690  147.7490 O   0  0  0  0  0  0  0  0  0  0  0  0
  162.1950  205.7340  148.2530 C   0  0  1  0  0  3  0  0  0  0  0  0
  161.8680  209.1680  148.9670 C   0  0  0  0  0  0  0  0  0  0  0  0
  161.6610  204.7180  149.1260 N   0  0  0  0  0  0  0  0  0  0  0  0
  161.0190  204.0370  151.4690 C   0  0  0  0  0  0  0  0  0  0  0  0
  161.9960  210.1730  149.9230 C   0  0  0  0  0  0  0  0  0  0  0  0
  161.5700  207.8790  149.3340 N   0  0  0  0  0  0  0  0  0  0  0  0
  161.0160  208.8480  155.4160 C   0  0  0  0  0  3  0  0  0  0  0  0
  161.5170  203.4310  148.4740 C   0  0  0  0  0  2  0  0  0  0  0  0
  162.2690  205.1000  146.8750 C   0  0  0  0  0  2  0  0  0  0  0  0
  161.5130  210.6150  153.8540 N   0  0  0  0  0  1  0  0  0  0  0  0
  161.0150  205.9560  152.4390 N   0  0  0  0  0  0  0  0  0  0  0  0
  160.7620  207.5200  155.7380 C   0  0  0  0  0  3  0  0  0  0  0  0
  161.2630  208.2570  153.0510 C   0  0  0  0  0  0  0  0  0  0  0  0
  161.2480  206.2090  151.1360 C   0  0  0  0  0  0  0  0  0  0  0  0
  160.9830  202.5570  151.3180 C   0  0  0  0  0  1  0  0  0  0  0  0
  161.2810  204.9790  150.4830 C   0  0  0  0  0  0  0  0  0  0  0  0
  162.1130  203.6020  147.0910 C   0  0  0  0  0  2  0  0  0  0  0  0
  159.7960  206.6480  148.1140 C   0  0  0  0  0  1  0  0  0  0  0  0
  160.7560  206.5540  154.7380 C   0  0  0  0  0  3  0  0  0  0  0  0
  161.0000  206.9090  153.4050 C   0  0  0  0  0  0  0  0  0  0  0  0
  161.2870  206.9530  148.2310 C   0  0  2  0  0  3  0  0  0  0  0  0
  162.3070  211.4780  149.5240 O   0  0  0  0  0  0  0  0  0  0  0  0
  161.6800  213.0280  147.8070 C   0  0  0  0  0  1  0  0  0  0  0  0
  161.3170  212.4250  149.1470 C   0  0  0  0  0  2  0  0  0  0  0  0
  1 19  1  0  0  0  0
  2 13  1  0  0  0  0
  4 20  1  0  0  0  0
  4  1  2  0  0  0  0
  5  1  1  0  0  0  0
  6  8  2  0  0  0  0
  7 15  1  6  0  0  0
  7  9  1  0  0  0  0
  8 12  1  0  0  0  0
  8 11  1  0  0  0  0
  9 22  1  0  0  0  0
 10  3  2  0  0  0  0
 11  5  2  0  0  0  0
 12  4  1  0  0  0  0
 13 18  2  0  0  0  0
 14  9  1  0  0  0  0
 15 23  1  0  0  0  0
 16  2  1  0  0  0  0
 17  3  1  0  0  0  0
 17 26  1  0  0  0  0
 19 26  1  0  0  0  0
 19  2  2  0  0  0  0
 20 17  1  0  0  0  0
 21 10  1  0  0  0  0
 22 20  2  0  0  0  0
 22 10  1  0  0  0  0
 23 14  1  0  0  0  0
 25 18  1  0  0  0  0
 26 25  2  0  0  0  0
 27 24  1  1  0  0  0
 27  7  1  0  0  0  0
 27 12  1  0  0  0  0
 28 11  1  0  0  0  0
 29 30  1  0  0  0  0
 30 28  1  0  0  0  0
M  END
>  <MODEL>
2

>  <REMARK>
 VINA RESULT:      -7.9      1.640      5.593
  Name = 
  2 active torsions:
  status: ('A' for Active; 'I' for Inactive)
    1  A    between atoms: C_11  and  O_28
    2  A    between atoms: O_28  and  C_30
                            x       y       z     vdW  Elec       q    Type
                         _______ _______ _______ _____ _____    ______ ____

>  <TORSDO>
F 2

$$$$
=
 OpenBabel11122412383D

 30 35  0  0  1  0  0  0  0  0999 V2000
  161.3290  207.8520  151.5450 C   0  0  0  0  0  0  0  0  0  0  0  0
  161.6760  210.3000  151.0170 C   0  0  0  0  0  0  0  0  0  0  0  0
  161.8280  206.8930  147.6200 N   0  0  0  0  0  0  0  0  0  0  0  0
  161.3040  206.4940  151.1000 C   0  0  0  0  0  0  0  0  0  0  0  0
  161.0820  208.1020  152.8940 C   0  0  0  0  0  3  0  0  0  0  0  0
  160.7160  204.8240  154.1780 O   0  0  0  0  0  0  0  0  0  0  0  0
  160.3960  203.5580  150.6380 C   0  0  1  0  0  3  0  0  0  0  0  0
  160.8960  205.7560  153.3450 C   0  0  0  0  0  0  0  0  0  0  0  0
  160.9160  203.8360  149.3220 N   0  0  0  0  0  0  0  0  0  0  0  0
  161.6080  205.5660  147.6210 C   0  0  0  0  0  0  0  0  0  0  0  0
  160.8450  207.0730  153.7960 C   0  0  0  0  0  0  0  0  0  0  0  0
  161.1500  205.4720  152.0260 N   0  0  0  0  0  0  0  0  0  0  0  0
  161.9550  211.2800  150.0610 C   0  0  0  0  0  3  0  0  0  0  0  0
  160.9810  202.6580  148.4790 C   0  0  0  0  0  2  0  0  0  0  0  0
  160.2470  202.0490  150.7150 C   0  0  0  0  0  2  0  0  0  0  0  0
  161.4810  210.7360  152.3600 N   0  0  0  0  0  1  0  0  0  0  0  0
  161.7290  207.3100  148.8730 N   0  0  0  0  0  0  0  0  0  0  0  0
  162.1620  210.9410  148.7290 C   0  0  0  0  0  3  0  0  0  0  0  0
  161.6010  208.9250  150.6360 C   0  0  0  0  0  0  0  0  0  0  0  0
  161.4620  206.2830  149.7050 C   0  0  0  0  0  0  0  0  0  0  0  0
  161.5750  204.7480  146.3780 C   0  0  0  0  0  1  0  0  0  0  0  0
  161.3530  205.1400  148.9180 C   0  0  0  0  0  0  0  0  0  0  0  0
  160.3450  201.5420  149.2840 C   0  0  0  0  0  2  0  0  0  0  0  0
  162.8260  203.7340  151.4590 C   0  0  0  0  0  1  0  0  0  0  0  0
  162.0920  209.6090  148.3350 C   0  0  0  0  0  3  0  0  0  0  0  0
  161.8180  208.6030  149.2710 C   0  0  0  0  0  0  0  0  0  0  0  0
  161.3550  204.0540  151.7090 C   0  0  2  0  0  3  0  0  0  0  0  0
  160.5770  207.3370  155.1450 O   0  0  0  0  0  0  0  0  0  0  0  0
  161.9230  208.6220  156.6560 C   0  0  0  0  0  1  0  0  0  0  0  0
  160.7310  208.6250  155.7230 C   0  0  0  0  0  2  0  0  0  0  0  0
  1  5  1  0  0  0  0
  2 16  1  0  0  0  0
  3 10  2  0  0  0  0
  3 17  1  0  0  0  0
  4  1  2  0  0  0  0
  4 12  1  0  0  0  0
  5 11  2  0  0  0  0
  7 15  1  6  0  0  0
  7 27  1  0  0  0  0
  8 11  1  0  0  0  0
  8  6  2  0  0  0  0
  9  7  1  0  0  0  0
 10 22  1  0  0  0  0
 11 28  1  0  0  0  0
 12  8  1  0  0  0  0
 13  2  2  0  0  0  0
 14 23  1  0  0  0  0
 14  9  1  0  0  0  0
 17 26  1  0  0  0  0
 17 20  1  0  0  0  0
 18 13  1  0  0  0  0
 19  2  1  0  0  0  0
 19  1  1  0  0  0  0
 20  4  1  0  0  0  0
 21 10  1  0  0  0  0
 22  9  1  0  0  0  0
 22 20  2  0  0  0  0
 23 15  1  0  0  0  0
 25 18  2  0  0  0  0
 25 26  1  0  0  0  0
 26 19  2  0  0  0  0
 27 24  1  6  0  0  0
 27 12  1  0  0  0  0
 28 30  1  0  0  0  0
 30 29  1  0  0  0  0
M  END
>  <MODEL>
3

>  <REMARK>
 VINA RESULT:      -7.0      2.423      7.225
  Name = 
  2 active torsions:
  status: ('A' for Active; 'I' for Inactive)
    1  A    between atoms: C_11  and  O_28
    2  A    between atoms: O_28  and  C_30
                            x       y       z     vdW  Elec       q    Type
                         _______ _______ _______ _____ _____    ______ ____

>  <TORSDO>
F 2

$$$$
=
 OpenBabel11122412383D

 30 35  0  0  1  0  0  0  0  0999 V2000
  161.3680  207.6200  150.7560 C   0  0  0  0  0  0  0  0  0  0  0  0
  161.3440  205.3400  149.6670 C   0  0  0  0  0  0  0  0  0  0  0  0
  160.5310  205.9460  154.3720 N   0  0  0  0  0  0  0  0  0  0  0  0
  161.2810  208.4130  151.9430 C   0  0  0  0  0  0  0  0  0  0  0  0
  161.5910  208.2770  149.5470 C   0  0  0  0  0  3  0  0  0  0  0  0
  161.9160  211.6400  150.6040 O   0  0  0  0  0  0  0  0  0  0  0  0
  160.4680  210.6470  153.9440 C   0  0  1  0  0  3  0  0  0  0  0  0
  161.7310  210.3920  150.6650 C   0  0  0  0  0  0  0  0  0  0  0  0
  160.4760  209.5290  154.8560 N   0  0  0  0  0  0  0  0  0  0  0  0
  160.4140  207.0260  155.1650 C   0  0  0  0  0  0  0  0  0  0  0  0
  161.7520  209.6550  149.4830 C   0  0  0  0  0  0  0  0  0  0  0  0
  161.5280  209.7760  151.8760 N   0  0  0  0  0  0  0  0  0  0  0  0
  161.2060  203.9570  149.8110 C   0  0  0  0  0  3  0  0  0  0  0  0
  160.3220  209.9290  156.2410 C   0  0  0  0  0  2  0  0  0  0  0  0
  160.4570  211.8910  154.8140 C   0  0  0  0  0  2  0  0  0  0  0  0
  161.6010  205.8360  148.3560 N   0  0  0  0  0  1  0  0  0  0  0  0
  160.8470  206.3800  153.1610 N   0  0  0  0  0  0  0  0  0  0  0  0
  160.9590  203.3880  151.0550 C   0  0  0  0  0  3  0  0  0  0  0  0
  161.2340  206.1950  150.8050 C   0  0  0  0  0  0  0  0  0  0  0  0
  160.9560  207.7230  153.1400 C   0  0  0  0  0  0  0  0  0  0  0  0
  160.0050  206.9430  156.5940 C   0  0  0  0  0  1  0  0  0  0  0  0
  160.6570  208.1750  154.4230 C   0  0  0  0  0  0  0  0  0  0  0  0
  160.0840  211.4250  156.2140 C   0  0  0  0  0  2  0  0  0  0  0  0
  163.0140  210.3280  153.7840 C   0  0  0  0  0  1  0  0  0  0  0  0
  160.8450  204.2030  152.1770 C   0  0  0  0  0  3  0  0  0  0  0  0
  160.9820  205.5920  152.0650 C   0  0  0  0  0  0  0  0  0  0  0  0
  161.7040  210.6270  153.0590 C   0  0  2  0  0  3  0  0  0  0  0  0
  161.9540  210.3070  148.2610 O   0  0  0  0  0  0  0  0  0  0  0  0
  162.1510  212.5310  147.3880 C   0  0  0  0  0  1  0  0  0  0  0  0
  161.2060  211.4470  147.8630 C   0  0  0  0  0  2  0  0  0  0  0  0
  1 19  1  0  0  0  0
  1  4  2  0  0  0  0
  2 13  2  0  0  0  0
  2 19  1  0  0  0  0
  3 10  2  0  0  0  0
  4 20  1  0  0  0  0
  5  1  1  0  0  0  0
  6  8  2  0  0  0  0
  7 15  1  1  0  0  0
  7  9  1  0  0  0  0
  8 12  1  0  0  0  0
  9 14  1  0  0  0  0
 10 21  1  0  0  0  0
 11  5  2  0  0  0  0
 11  8  1  0  0  0  0
 12  4  1  0  0  0  0
 12 27  1  0  0  0  0
 13 18  1  0  0  0  0
 15 23  1  0  0  0  0
 16  2  1  0  0  0  0
 17  3  1  0  0  0  0
 18 25  2  0  0  0  0
 19 26  2  0  0  0  0
 20 17  1  0  0  0  0
 20 22  2  0  0  0  0
 22  9  1  0  0  0  0
 22 10  1  0  0  0  0
 23 14  1  0  0  0  0
 26 25  1  0  0  0  0
 26 17  1  0  0  0  0
 27 24  1  1  0  0  0
 27  7  1  0  0  0  0
 28 11  1  0  0  0  0
 29 30  1  0  0  0  0
 30 28  1  0  0  0  0
M  END
>  <MODEL>
4

>  <REMARK>
 VINA RESULT:      -6.7      1.898      2.838
  Name = 
  2 active torsions:
  status: ('A' for Active; 'I' for Inactive)
    1  A    between atoms: C_11  and  O_28
    2  A    between atoms: O_28  and  C_30
                            x       y       z     vdW  Elec       q    Type
                         _______ _______ _______ _____ _____    ______ ____

>  <TORSDO>
F 2

$$$$
=
 OpenBabel11122412383D

 30 35  0  0  1  0  0  0  0  0999 V2000
  161.1800  208.8750  151.6030 C   0  0  0  0  0  0  0  0  0  0  0  0
  161.3510  211.2770  150.8360 C   0  0  0  0  0  0  0  0  0  0  0  0
  161.9510  207.5710  147.8240 N   0  0  0  0  0  0  0  0  0  0  0  0
  161.2890  207.4820  151.3020 C   0  0  0  0  0  0  0  0  0  0  0  0
  160.8470  209.2380  152.9070 C   0  0  0  0  0  3  0  0  0  0  0  0
  160.6870  206.0870  154.5120 O   0  0  0  0  0  0  0  0  0  0  0  0
  160.6490  204.4470  151.1140 C   0  0  1  0  0  3  0  0  0  0  0  0
  160.8310  206.9420  153.5940 C   0  0  0  0  0  0  0  0  0  0  0  0
  161.2090  204.6340  149.7980 N   0  0  0  0  0  0  0  0  0  0  0  0
  161.8410  206.2370  147.9550 C   0  0  0  0  0  0  0  0  0  0  0  0
  160.6500  208.2880  153.9020 C   0  0  0  0  0  0  0  0  0  0  0  0
  161.1730  206.5490  152.3230 N   0  0  0  0  0  0  0  0  0  0  0  0
  161.5970  212.1760  149.7950 C   0  0  0  0  0  3  0  0  0  0  0  0
  161.4120  203.3870  149.0870 C   0  0  0  0  0  2  0  0  0  0  0  0
  160.6200  202.9460  151.3420 C   0  0  0  0  0  2  0  0  0  0  0  0
  161.0550  211.8280  152.1170 N   0  0  0  0  0  1  0  0  0  0  0  0
  161.7560  208.1020  149.0220 N   0  0  0  0  0  0  0  0  0  0  0  0
  161.8970  211.7240  148.5150 C   0  0  0  0  0  3  0  0  0  0  0  0
  161.4090  209.8700  150.5990 C   0  0  0  0  0  0  0  0  0  0  0  0
  161.5330  207.1460  149.9450 C   0  0  0  0  0  0  0  0  0  0  0  0
  161.9370  205.2980  146.8040 C   0  0  0  0  0  1  0  0  0  0  0  0
  161.5580  205.9230  149.2780 C   0  0  0  0  0  0  0  0  0  0  0  0
  160.8310  202.3070  149.9770 C   0  0  0  0  0  2  0  0  0  0  0  0
  163.0120  204.9150  152.0110 C   0  0  0  0  0  1  0  0  0  0  0  0
  161.9560  210.3580  148.2610 C   0  0  0  0  0  3  0  0  0  0  0  0
  161.7190  209.4320  149.2850 C   0  0  0  0  0  0  0  0  0  0  0  0
  161.5090  205.1290  152.1650 C   0  0  2  0  0  3  0  0  0  0  0  0
  160.2950  208.6630  155.2030 O   0  0  0  0  0  0  0  0  0  0  0  0
  161.9710  208.6540  156.9150 C   0  0  0  0  0  1  0  0  0  0  0  0
  161.1050  209.5040  156.0110 C   0  0  0  0  0  2  0  0  0  0  0  0
  1  5  1  0  0  0  0
  2 16  1  0  0  0  0
  3 10  2  0  0  0  0
  3 17  1  0  0  0  0
  4  1  2  0  0  0  0
  4 12  1  0  0  0  0
  5 11  2  0  0  0  0
  7 15  1  1  0  0  0
  7 27  1  0  0  0  0
  8 11  1  0  0  0  0
  8  6  2  0  0  0  0
  9  7  1  0  0  0  0
 10 22  1  0  0  0  0
 11 28  1  0  0  0  0
 12  8  1  0  0  0  0
 13  2  2  0  0  0  0
 14  9  1  0  0  0  0
 14 23  1  0  0  0  0
 17 26  1  0  0  0  0
 17 20  1  0  0  0  0
 18 13  1  0  0  0  0
 19  2  1  0  0  0  0
 19  1  1  0  0  0  0
 20  4  1  0  0  0  0
 21 10  1  0  0  0  0
 22  9  1  0  0  0  0
 22 20  2  0  0  0  0
 23 15  1  0  0  0  0
 25 18  2  0  0  0  0
 25 26  1  0  0  0  0
 26 19  2  0  0  0  0
 27 24  1  6  0  0  0
 27 12  1  0  0  0  0
 28 30  1  0  0  0  0
 30 29  1  0  0  0  0
M  END
>  <MODEL>
5

>  <REMARK>
 VINA RESULT:      -6.4      2.479      7.243
  Name = 
  2 active torsions:
  status: ('A' for Active; 'I' for Inactive)
    1  A    between atoms: C_11  and  O_28
    2  A    between atoms: O_28  and  C_30
                            x       y       z     vdW  Elec       q    Type
                         _______ _______ _______ _____ _____    ______ ____

>  <TORSDO>
F 2

$$$$
