=
 OpenBabel11122414133D

 28 32  0  0  1  0  0  0  0  0999 V2000
  160.8970  209.2070  155.0570 C   0  0  0  0  0  0  0  0  0  0  0  0
  157.6590  210.6690  155.1610 O   0  0  0  0  0  1  0  0  0  0  0  0
  161.0780  212.2910  150.0460 O   0  0  0  0  0  0  0  0  0  0  0  0
  162.3360  210.2140  157.2430 C   0  0  0  0  0  3  0  0  0  0  0  0
  159.2580  212.8470  151.4380 N   0  0  0  0  0  0  0  0  0  0  0  0
  160.2050  208.6780  153.9680 O   0  0  0  0  0  0  0  0  0  0  0  0
  158.5440  211.4720  157.2070 C   0  0  0  0  0  1  0  0  0  0  0  0
  158.0650  211.8350  155.8150 C   0  0  1  0  0  0  0  0  0  0  0  0
  156.5330  213.6210  154.9200 C   0  0  0  0  0  0  0  0  0  0  0  0
  159.1950  212.5580  155.0300 C   0  0  2  0  0  3  0  0  0  0  0  0
  161.7350  207.9010  150.6490 C   0  0  0  0  0  1  0  0  0  0  0  0
  159.6790  211.1600  153.0800 C   0  0  1  0  0  3  0  0  0  0  0  0
  157.3390  213.8800  153.9380 N   0  0  0  0  0  0  0  0  0  0  0  0
  156.9140  212.7160  155.9550 N   0  0  0  0  0  2  0  0  0  0  0  0
  160.9750  208.7170  151.6730 C   0  0  2  0  0  3  0  0  0  0  0  0
  160.8930  210.5990  155.3210 C   0  0  0  0  0  0  0  0  0  0  0  0
  160.4140  212.1100  151.1020 C   0  0  0  0  0  0  0  0  0  0  0  0
  154.9970  214.4520  155.0200 Cl  0  0  0  0  0  0  0  0  0  0  0  0
  161.6900  210.0480  151.8880 C   0  0  0  0  0  2  0  0  0  0  0  0
  161.6310  211.0830  156.4090 C   0  0  0  0  0  3  0  0  0  0  0  0
  161.6170  208.3430  155.8940 C   0  0  0  0  0  3  0  0  0  0  0  0
  162.3280  208.8430  156.9860 C   0  0  0  0  0  3  0  0  0  0  0  0
  160.8770  207.9200  152.9710 C   0  0  0  0  0  2  0  0  0  0  0  0
  158.6830  212.2600  152.6430 C   0  0  1  0  0  3  0  0  0  0  0  0
  160.7240  211.1270  152.0630 N   0  0  0  0  0  0  0  0  0  0  0  0
  158.6640  213.2760  153.7800 C   0  0  2  0  0  3  0  0  0  0  0  0
  158.5370  213.7240  150.5300 C   0  0  0  0  0  1  0  0  0  0  0  0
  160.2430  211.6250  154.4170 C   0  0  2  0  0  3  0  0  0  0  0  0
  1 16  2  0  0  0  0
  1 21  1  0  0  0  0
  2  8  1  0  0  0  0
  3 17  2  0  0  0  0
  5 24  1  0  0  0  0
  6  1  1  0  0  0  0
  8 14  1  0  0  0  0
  8  7  1  1  0  0  0
  9 18  1  0  0  0  0
  9 14  1  0  0  0  0
 10  8  1  0  0  0  0
 11 15  1  0  0  0  0
 12 28  1  0  0  0  0
 13  9  2  0  0  0  0
 15 19  1  0  0  0  0
 15 23  1  0  0  0  0
 16 20  1  0  0  0  0
 17  5  1  0  0  0  0
 17 25  1  0  0  0  0
 19 25  1  0  0  0  0
 20  4  2  0  0  0  0
 21 22  2  0  0  0  0
 22  4  1  0  0  0  0
 23  6  1  0  0  0  0
 24 12  1  0  0  0  0
 24 26  1  0  0  0  0
 25 12  1  0  0  0  0
 26 13  1  0  0  0  0
 26 10  1  0  0  0  0
 27  5  1  0  0  0  0
 28 10  1  0  0  0  0
 28 16  1  0  0  0  0
M  END
>  <MODEL>
1

>  <REMARK>
 VINA RESULT:      -6.0      0.000      0.000
  Name = 
  0 active torsions:
  status: ('A' for Active; 'I' for Inactive)
                            x       y       z     vdW  Elec       q    Type
                         _______ _______ _______ _____ _____    ______ ____

>  <TORSDO>
F 0

$$$$
=
 OpenBabel11122414133D

 28 32  0  0  1  0  0  0  0  0999 V2000
  160.9620  208.3130  155.0040 C   0  0  0  0  0  0  0  0  0  0  0  0
  158.9490  210.6850  153.2850 O   0  0  0  0  0  1  0  0  0  0  0  0
  163.1600  207.6820  149.5790 O   0  0  0  0  0  0  0  0  0  0  0  0
  162.5110  209.7270  156.8650 C   0  0  0  0  0  3  0  0  0  0  0  0
  161.7700  209.5710  149.8270 N   0  0  0  0  0  0  0  0  0  0  0  0
  160.1980  207.5790  154.0970 O   0  0  0  0  0  0  0  0  0  0  0  0
  159.9340  212.0840  154.9250 C   0  0  0  0  0  1  0  0  0  0  0  0
  159.8380  211.7510  153.4490 C   0  0  1  0  0  0  0  0  0  0  0  0
  159.5350  213.1430  151.3730 C   0  0  0  0  0  0  0  0  0  0  0  0
  161.2440  211.4040  152.8850 C   0  0  2  0  0  3  0  0  0  0  0  0
  161.4000  204.5550  152.2610 C   0  0  0  0  0  1  0  0  0  0  0  0
  161.1110  209.0990  152.0770 C   0  0  1  0  0  3  0  0  0  0  0  0
  160.4440  212.4700  150.7380 N   0  0  0  0  0  0  0  0  0  0  0  0
  159.2990  212.9170  152.7620 N   0  0  0  0  0  2  0  0  0  0  0  0
  161.0810  206.0200  152.4690 C   0  0  2  0  0  3  0  0  0  0  0  0
  161.6540  209.4820  154.6000 C   0  0  0  0  0  0  0  0  0  0  0  0
  162.4060  208.3990  150.2900 C   0  0  0  0  0  0  0  0  0  0  0  0
  158.6460  214.3980  150.5390 Cl  0  0  0  0  0  0  0  0  0  0  0  0
  162.3580  206.8410  152.3080 C   0  0  0  0  0  2  0  0  0  0  0  0
  162.4340  210.1660  155.5420 C   0  0  0  0  0  3  0  0  0  0  0  0
  161.0540  207.8750  156.3320 C   0  0  0  0  0  3  0  0  0  0  0  0
  161.8200  208.5820  157.2610 C   0  0  0  0  0  3  0  0  0  0  0  0
  160.4700  206.2050  153.8550 C   0  0  0  0  0  2  0  0  0  0  0  0
  160.8700  210.0400  150.8740 C   0  0  1  0  0  3  0  0  0  0  0  0
  162.0750  208.1010  151.6280 N   0  0  0  0  0  0  0  0  0  0  0  0
  161.2750  211.4310  151.3490 C   0  0  2  0  0  3  0  0  0  0  0  0
  161.6910  209.9790  148.4350 C   0  0  0  0  0  1  0  0  0  0  0  0
  161.7110  209.9740  153.1690 C   0  0  2  0  0  3  0  0  0  0  0  0
  1 21  1  0  0  0  0
  2  8  1  0  0  0  0
  3 17  2  0  0  0  0
  4 22  1  0  0  0  0
  5 17  1  0  0  0  0
  5 24  1  0  0  0  0
  6  1  1  0  0  0  0
  8  7  1  1  0  0  0
  9 14  1  0  0  0  0
 10 28  1  0  0  0  0
 10  8  1  0  0  0  0
 11 15  1  0  0  0  0
 12 28  1  0  0  0  0
 13 26  1  0  0  0  0
 13  9  2  0  0  0  0
 14  8  1  0  0  0  0
 15 23  1  0  0  0  0
 16  1  2  0  0  0  0
 16 20  1  0  0  0  0
 17 25  1  0  0  0  0
 18  9  1  0  0  0  0
 19 15  1  0  0  0  0
 20  4  2  0  0  0  0
 21 22  2  0  0  0  0
 23  6  1  0  0  0  0
 24 26  1  0  0  0  0
 24 12  1  0  0  0  0
 25 12  1  0  0  0  0
 25 19  1  0  0  0  0
 26 10  1  0  0  0  0
 27  5  1  0  0  0  0
 28 16  1  0  0  0  0
M  END
>  <MODEL>
2

>  <REMARK>
 VINA RESULT:      -3.7      2.226      3.356
  Name = 
  0 active torsions:
  status: ('A' for Active; 'I' for Inactive)
                            x       y       z     vdW  Elec       q    Type
                         _______ _______ _______ _____ _____    ______ ____

>  <TORSDO>
F 0

$$$$
