=
 OpenBabel11122413033D

 32 36  0  0  1  0  0  0  0  0999 V2000
  161.0340  208.8260  152.2030 C   0  0  1  0  0  3  0  0  0  0  0  0
  162.2290  211.8820  148.5340 C   0  0  0  0  0  3  0  0  0  0  0  0
  161.3160  212.8140  149.0300 C   0  0  0  0  0  3  0  0  0  0  0  0
  159.7040  209.6580  154.2000 C   0  0  2  0  0  3  0  0  0  0  0  0
  158.8080  210.8340  154.6210 C   0  0  2  0  0  3  0  0  0  0  0  0
  161.7400  206.4540  151.9310 C   0  0  2  0  0  3  0  0  0  0  0  0
  162.7270  208.1810  150.4550 O   0  0  0  0  0  0  0  0  0  0  0  0
  158.2060  213.0240  154.5550 C   0  0  2  0  0  3  0  0  0  0  0  0
  162.4930  210.7130  149.2500 C   0  0  0  0  0  3  0  0  0  0  0  0
  162.1740  209.2260  151.2570 C   0  0  1  0  0  3  0  0  0  0  0  0
  161.8390  210.4600  150.4640 C   0  0  0  0  0  0  0  0  0  0  0  0
  160.1710  211.1620  152.2690 C   0  0  2  0  0  3  0  0  0  0  0  0
  157.0610  212.2980  153.8740 C   0  0  0  0  0  2  0  0  0  0  0  0
  161.9760  206.9750  150.4940 C   0  0  2  0  0  3  0  0  0  0  0  0
  157.4550  210.8360  153.9320 C   0  0  0  0  0  2  0  0  0  0  0  0
  160.6740  212.5820  150.2490 C   0  0  0  0  0  3  0  0  0  0  0  0
  160.9480  211.4260  150.9930 C   0  0  0  0  0  0  0  0  0  0  0  0
  160.0870  212.3980  153.1650 C   0  0  0  0  0  2  0  0  0  0  0  0
  161.4800  207.5780  152.9390 C   0  0  0  0  0  2  0  0  0  0  0  0
  160.3760  209.1690  155.3210 O   0  0  0  0  0  1  0  0  0  0  0  0
  158.3860  214.4530  154.0480 C   0  0  0  0  0  1  0  0  0  0  0  0
  160.7190  210.0120  153.1110 C   0  0  2  0  0  3  0  0  0  0  0  0
  159.4000  212.1750  154.4650 N   0  0  2  0  0  0  0  0  0  0  0  0
  160.9930  207.6180  148.2880 C   0  0  0  0  0  1  0  0  0  0  0  0
  160.6820  207.0870  149.6760 C   0  0  1  0  0  3  0  0  0  0  0  0
  160.0630  205.8390  149.5660 O   0  0  0  0  0  0  0  0  0  0  0  0
  160.8630  205.1190  148.6740 C   0  0  0  0  0  2  0  0  0  0  0  0
  160.8510  203.6750  149.0330 C   0  0  0  0  0  0  0  0  0  0  0  0
  160.4680  203.3120  150.1760 O   0  0  0  0  0  1  0  0  0  0  0  0
  161.2350  202.7240  148.0980 O   0  0  0  0  0  0  0  0  0  0  0  0
  162.7290  204.2840  152.0190 O   0  0  0  0  0  1  0  0  0  0  0  0
  162.9250  205.6180  152.3760 C   0  0  0  0  0  2  0  0  0  0  0  0
  1 19  1  1  0  0  0
  1 22  1  0  0  0  0
  2  3  2  0  0  0  0
  2  9  1  0  0  0  0
  3 16  1  0  0  0  0
  4  5  1  0  0  0  0
  4 20  1  1  0  0  0
  5 15  1  6  0  0  0
  6 32  1  1  0  0  0
  6 19  1  0  0  0  0
  7 14  1  0  0  0  0
  8 21  1  6  0  0  0
  9 11  2  0  0  0  0
 10  7  1  6  0  0  0
 10  1  1  0  0  0  0
 11 17  1  0  0  0  0
 11 10  1  0  0  0  0
 12 22  1  0  0  0  0
 12 18  1  1  0  0  0
 13 15  1  0  0  0  0
 13  8  1  0  0  0  0
 14 25  1  1  0  0  0
 14  6  1  0  0  0  0
 16 17  2  0  0  0  0
 17 12  1  0  0  0  0
 18 23  1  0  0  0  0
 22  4  1  0  0  0  0
 23  8  1  0  0  0  0
 23  5  1  0  0  0  0
 24 25  1  0  0  0  0
 26 25  1  0  0  0  0
 27 28  1  0  0  0  0
 27 26  1  0  0  0  0
 28 29  1  0  0  0  0
 30 28  2  0  0  0  0
 31 32  1  0  0  0  0
M  END
>  <MODEL>
1

>  <REMARK>
 VINA RESULT:      -5.0      0.000      0.000
  Name = 
  5 active torsions:
  status: ('A' for Active; 'I' for Inactive)
    1  A    between atoms: C_7  and  C_19
    2  A    between atoms: C_10  and  C_17
    3  A    between atoms: C_10  and  O_20
    4  A    between atoms: O_20  and  C_29
    5  A    between atoms: C_29  and  C_30
                            x       y       z     vdW  Elec       q    Type
                         _______ _______ _______ _____ _____    ______ ____

>  <TORSDO>
F 5

$$$$
=
 OpenBabel11122413033D

 32 36  0  0  1  0  0  0  0  0999 V2000
  160.6510  210.1140  151.9670 C   0  0  1  0  0  3  0  0  0  0  0  0
  160.3790  208.7840  156.6990 C   0  0  0  0  0  3  0  0  0  0  0  0
  160.4130  207.4450  156.3110 C   0  0  0  0  0  3  0  0  0  0  0  0
  161.2850  208.4240  150.1820 C   0  0  2  0  0  3  0  0  0  0  0  0
  161.3800  206.9050  149.9670 C   0  0  2  0  0  3  0  0  0  0  0  0
  160.0610  212.4780  151.4560 C   0  0  2  0  0  3  0  0  0  0  0  0
  160.4900  211.8270  153.8060 O   0  0  0  0  0  0  0  0  0  0  0  0
  161.7620  204.7910  150.7090 C   0  0  2  0  0  3  0  0  0  0  0  0
  160.5540  209.7920  155.7480 C   0  0  0  0  0  3  0  0  0  0  0  0
  161.0040  210.5600  153.3930 C   0  0  1  0  0  3  0  0  0  0  0  0
  160.7570  209.4690  154.3990 C   0  0  0  0  0  0  0  0  0  0  0  0
  160.9910  207.7170  152.5530 C   0  0  2  0  0  3  0  0  0  0  0  0
  160.2770  204.8190  150.4010 C   0  0  0  0  0  2  0  0  0  0  0  0
  159.5360  212.3750  152.9060 C   0  0  2  0  0  3  0  0  0  0  0  0
  160.0230  206.2240  149.8920 C   0  0  0  0  0  2  0  0  0  0  0  0
  160.6340  207.1100  154.9730 C   0  0  0  0  0  3  0  0  0  0  0  0
  160.8390  208.1090  154.0110 C   0  0  0  0  0  0  0  0  0  0  0  0
  161.9590  206.5490  152.3630 C   0  0  0  0  0  2  0  0  0  0  0  0
  160.9340  211.2870  151.0490 C   0  0  0  0  0  2  0  0  0  0  0  0
  162.2530  209.0580  149.4000 O   0  0  0  0  0  1  0  0  0  0  0  0
  162.1200  203.7980  151.8120 C   0  0  0  0  0  1  0  0  0  0  0  0
  161.4470  208.8540  151.6420 C   0  0  2  0  0  3  0  0  0  0  0  0
  162.2030  206.1710  150.9450 N   0  0  2  0  0  0  0  0  0  0  0  0
  157.8030  211.4720  154.4640 C   0  0  0  0  0  1  0  0  0  0  0  0
  158.1850  211.6550  153.0060 C   0  0  1  0  0  3  0  0  0  0  0  0
  157.1890  212.3900  152.3570 O   0  0  0  0  0  0  0  0  0  0  0  0
  157.0230  213.5370  153.1380 C   0  0  0  0  0  2  0  0  0  0  0  0
  155.6490  214.0800  152.9560 C   0  0  0  0  0  0  0  0  0  0  0  0
  154.8910  214.2260  153.9500 O   0  0  0  0  0  1  0  0  0  0  0  0
  155.2130  214.4530  151.6920 O   0  0  0  0  0  0  0  0  0  0  0  0
  160.4640  214.3860  150.0790 O   0  0  0  0  0  1  0  0  0  0  0  0
  160.8310  213.7730  151.2770 C   0  0  0  0  0  2  0  0  0  0  0  0
  1 19  1  6  0  0  0
  1 10  1  0  0  0  0
  3  2  1  0  0  0  0
  4 20  1  6  0  0  0
  4 22  1  0  0  0  0
  5 15  1  1  0  0  0
  5  4  1  0  0  0  0
  5 23  1  0  0  0  0
  6 32  1  1  0  0  0
  6 14  1  0  0  0  0
  8 23  1  0  0  0  0
  8 21  1  1  0  0  0
  9  2  2  0  0  0  0
 10  7  1  1  0  0  0
 10 11  1  0  0  0  0
 11  9  1  0  0  0  0
 12 18  1  1  0  0  0
 12 17  1  0  0  0  0
 13  8  1  0  0  0  0
 14 25  1  6  0  0  0
 14  7  1  0  0  0  0
 15 13  1  0  0  0  0
 16  3  2  0  0  0  0
 17 11  2  0  0  0  0
 17 16  1  0  0  0  0
 19  6  1  0  0  0  0
 22  1  1  0  0  0  0
 22 12  1  0  0  0  0
 23 18  1  0  0  0  0
 25 24  1  0  0  0  0
 26 25  1  0  0  0  0
 26 27  1  0  0  0  0
 28 27  1  0  0  0  0
 28 29  1  0  0  0  0
 30 28  2  0  0  0  0
 31 32  1  0  0  0  0
M  END
>  <MODEL>
2

>  <REMARK>
 VINA RESULT:      -4.7      3.209      7.808
  Name = 
  5 active torsions:
  status: ('A' for Active; 'I' for Inactive)
    1  A    between atoms: C_7  and  C_19
    2  A    between atoms: C_10  and  C_17
    3  A    between atoms: C_10  and  O_20
    4  A    between atoms: O_20  and  C_29
    5  A    between atoms: C_29  and  C_30
                            x       y       z     vdW  Elec       q    Type
                         _______ _______ _______ _____ _____    ______ ____

>  <TORSDO>
F 5

$$$$
=
 OpenBabel11122413033D

 32 36  0  0  1  0  0  0  0  0999 V2000
  160.9160  211.4900  149.4950 C   0  0  1  0  0  3  0  0  0  0  0  0
  159.2270  212.5140  154.0040 C   0  0  0  0  0  3  0  0  0  0  0  0
  159.3280  211.1630  154.3340 C   0  0  0  0  0  3  0  0  0  0  0  0
  161.9880  209.2430  148.9930 C   0  0  2  0  0  3  0  0  0  0  0  0
  162.0890  207.8220  149.5710 C   0  0  2  0  0  3  0  0  0  0  0  0
  160.5830  213.2540  147.7710 C   0  0  2  0  0  3  0  0  0  0  0  0
  160.2830  213.8350  150.1590 O   0  0  0  0  0  0  0  0  0  0  0  0
  162.1660  206.3610  151.3110 C   0  0  2  0  0  3  0  0  0  0  0  0
  159.7080  212.9700  152.7750 C   0  0  0  0  0  3  0  0  0  0  0  0
  160.8530  212.5890  150.5650 C   0  0  1  0  0  3  0  0  0  0  0  0
  160.2850  212.0770  151.8610 C   0  0  0  0  0  0  0  0  0  0  0  0
  160.9890  209.7030  151.2300 C   0  0  2  0  0  3  0  0  0  0  0  0
  160.8370  206.0750  150.6360 C   0  0  0  0  0  2  0  0  0  0  0  0
  159.6540  213.7850  148.8860 C   0  0  2  0  0  3  0  0  0  0  0  0
  160.7920  207.0380  149.4670 C   0  0  0  0  0  2  0  0  0  0  0  0
  159.9200  210.2670  153.4410 C   0  0  0  0  0  3  0  0  0  0  0  0
  160.4310  210.7130  152.2140 C   0  0  0  0  0  0  0  0  0  0  0  0
  161.9300  208.6990  151.8960 C   0  0  0  0  0  2  0  0  0  0  0  0
  161.4950  212.1180  148.2430 C   0  0  0  0  0  2  0  0  0  0  0  0
  163.1620  209.5400  148.3000 O   0  0  0  0  0  1  0  0  0  0  0  0
  162.1510  206.0490  152.8050 C   0  0  0  0  0  1  0  0  0  0  0  0
  161.7300  210.3230  150.0470 C   0  0  2  0  0  3  0  0  0  0  0  0
  162.5650  207.7310  150.9630 N   0  0  2  0  0  0  0  0  0  0  0  0
  157.3160  213.8550  149.7670 C   0  0  0  0  0  1  0  0  0  0  0  0
  158.3090  213.0490  148.9480 C   0  0  1  0  0  3  0  0  0  0  0  0
  157.7970  212.8560  147.6620 O   0  0  0  0  0  0  0  0  0  0  0  0
  157.0270  213.9940  147.4070 C   0  0  0  0  0  2  0  0  0  0  0  0
  156.8830  214.1910  145.9390 C   0  0  0  0  0  0  0  0  0  0  0  0
  155.7560  214.4530  145.4440 O   0  0  0  0  0  1  0  0  0  0  0  0
  157.9990  214.1150  145.1170 O   0  0  0  0  0  0  0  0  0  0  0  0
  162.7450  214.2510  147.6050 O   0  0  0  0  0  1  0  0  0  0  0  0
  161.4150  214.3920  147.2080 C   0  0  0  0  0  2  0  0  0  0  0  0
  1 19  1  6  0  0  0
  1 22  1  0  0  0  0
  1 10  1  0  0  0  0
  2  3  1  0  0  0  0
  4 20  1  1  0  0  0
  4  5  1  0  0  0  0
  4 22  1  0  0  0  0
  5 15  1  1  0  0  0
  5 23  1  0  0  0  0
  6 32  1  1  0  0  0
  6 19  1  0  0  0  0
  6 14  1  0  0  0  0
  8 21  1  1  0  0  0
  9  2  2  0  0  0  0
 10  7  1  6  0  0  0
 10 11  1  0  0  0  0
 11 17  2  0  0  0  0
 11  9  1  0  0  0  0
 12 18  1  1  0  0  0
 12 17  1  0  0  0  0
 13  8  1  0  0  0  0
 14 25  1  1  0  0  0
 14  7  1  0  0  0  0
 15 13  1  0  0  0  0
 16  3  2  0  0  0  0
 17 16  1  0  0  0  0
 22 12  1  0  0  0  0
 23  8  1  0  0  0  0
 23 18  1  0  0  0  0
 25 24  1  0  0  0  0
 26 25  1  0  0  0  0
 27 26  1  0  0  0  0
 28 27  1  0  0  0  0
 29 28  1  0  0  0  0
 30 28  2  0  0  0  0
 32 31  1  0  0  0  0
M  END
>  <MODEL>
3

>  <REMARK>
 VINA RESULT:      -4.2      3.893      7.409
  Name = 
  5 active torsions:
  status: ('A' for Active; 'I' for Inactive)
    1  A    between atoms: C_7  and  C_19
    2  A    between atoms: C_10  and  C_17
    3  A    between atoms: C_10  and  O_20
    4  A    between atoms: O_20  and  C_29
    5  A    between atoms: C_29  and  C_30
                            x       y       z     vdW  Elec       q    Type
                         _______ _______ _______ _____ _____    ______ ____

>  <TORSDO>
F 5

$$$$
=
 OpenBabel11122413033D

 32 36  0  0  1  0  0  0  0  0999 V2000
  160.0500  212.1830  151.4490 C   0  0  1  0  0  3  0  0  0  0  0  0
  156.9530  213.9580  154.8390 C   0  0  0  0  0  3  0  0  0  0  0  0
  157.1030  212.7810  155.5730 C   0  0  0  0  0  3  0  0  0  0  0  0
  161.4760  210.1410  151.9410 C   0  0  2  0  0  3  0  0  0  0  0  0
  161.5590  208.9610  152.9230 C   0  0  2  0  0  3  0  0  0  0  0  0
  160.0590  213.3530  149.2520 C   0  0  2  0  0  3  0  0  0  0  0  0
  158.9770  214.4470  151.1920 O   0  0  0  0  0  0  0  0  0  0  0  0
  161.2670  208.0320  154.9760 C   0  0  2  0  0  3  0  0  0  0  0  0
  157.7310  214.1740  153.7000 C   0  0  0  0  0  3  0  0  0  0  0  0
  159.5340  213.4820  152.0850 C   0  0  1  0  0  3  0  0  0  0  0  0
  158.6600  213.2120  153.2800 C   0  0  0  0  0  0  0  0  0  0  0  0
  159.7930  210.9440  153.5950 C   0  0  2  0  0  3  0  0  0  0  0  0
  160.2520  207.3280  154.0960 C   0  0  0  0  0  2  0  0  0  0  0  0
  158.7780  213.9540  149.8740 C   0  0  2  0  0  3  0  0  0  0  0  0
  160.4560  207.9350  152.7230 C   0  0  0  0  0  2  0  0  0  0  0  0
  158.0400  211.8240  155.1760 C   0  0  0  0  0  3  0  0  0  0  0  0
  158.8470  212.0390  154.0500 C   0  0  0  0  0  0  0  0  0  0  0  0
  160.5940  210.3480  154.7530 C   0  0  0  0  0  2  0  0  0  0  0  0
  160.9090  212.5770  150.2630 C   0  0  0  0  0  2  0  0  0  0  0  0
  162.7640  210.4800  151.5230 O   0  0  0  0  0  1  0  0  0  0  0  0
  160.8310  208.1110  156.4380 C   0  0  0  0  0  1  0  0  0  0  0  0
  160.7850  211.3790  152.5180 C   0  0  2  0  0  3  0  0  0  0  0  0
  161.5920  209.3210  154.3520 N   0  0  2  0  0  0  0  0  0  0  0  0
  156.3350  213.7020  150.3350 C   0  0  0  0  0  1  0  0  0  0  0  0
  157.5730  213.0060  149.7990 C   0  0  1  0  0  3  0  0  0  0  0  0
  157.3450  212.6070  148.4790 O   0  0  0  0  0  0  0  0  0  0  0  0
  157.1820  213.7990  147.7670 C   0  0  0  0  0  2  0  0  0  0  0  0
  157.2890  213.5360  146.3070 C   0  0  0  0  0  0  0  0  0  0  0  0
  157.9800  212.5710  145.8880 O   0  0  0  0  0  1  0  0  0  0  0  0
  156.6040  214.3390  145.4050 O   0  0  0  0  0  0  0  0  0  0  0  0
  162.1780  213.9920  148.3570 O   0  0  0  0  0  1  0  0  0  0  0  0
  160.8860  214.4530  148.6130 C   0  0  0  0  0  2  0  0  0  0  0  0
  1 19  1  6  0  0  0
  1 10  1  0  0  0  0
  1 22  1  0  0  0  0
  2  3  1  0  0  0  0
  4 20  1  1  0  0  0
  4 22  1  0  0  0  0
  4  5  1  0  0  0  0
  5 15  1  1  0  0  0
  5 23  1  0  0  0  0
  6 32  1  1  0  0  0
  6 14  1  0  0  0  0
  6 19  1  0  0  0  0
  8 21  1  1  0  0  0
  9  2  2  0  0  0  0
 10  7  1  6  0  0  0
 10 11  1  0  0  0  0
 11  9  1  0  0  0  0
 11 17  2  0  0  0  0
 12 17  1  0  0  0  0
 12 18  1  1  0  0  0
 13  8  1  0  0  0  0
 14 25  1  1  0  0  0
 14  7  1  0  0  0  0
 15 13  1  0  0  0  0
 16  3  2  0  0  0  0
 17 16  1  0  0  0  0
 22 12  1  0  0  0  0
 23 18  1  0  0  0  0
 23  8  1  0  0  0  0
 25 24  1  0  0  0  0
 26 25  1  0  0  0  0
 27 26  1  0  0  0  0
 28 27  1  0  0  0  0
 29 28  1  0  0  0  0
 30 28  2  0  0  0  0
 31 32  1  0  0  0  0
M  END
>  <MODEL>
4

>  <REMARK>
 VINA RESULT:      -4.0      3.704      6.974
  Name = 
  5 active torsions:
  status: ('A' for Active; 'I' for Inactive)
    1  A    between atoms: C_7  and  C_19
    2  A    between atoms: C_10  and  C_17
    3  A    between atoms: C_10  and  O_20
    4  A    between atoms: O_20  and  C_29
    5  A    between atoms: C_29  and  C_30
                            x       y       z     vdW  Elec       q    Type
                         _______ _______ _______ _____ _____    ______ ____

>  <TORSDO>
F 5

$$$$
=
 OpenBabel11122413033D

 32 36  0  0  1  0  0  0  0  0999 V2000
  161.1500  209.9110  150.9040 C   0  0  1  0  0  3  0  0  0  0  0  0
  160.6760  209.2780  155.7630 C   0  0  0  0  0  3  0  0  0  0  0  0
  160.5530  207.9030  155.5580 C   0  0  0  0  0  3  0  0  0  0  0  0
  161.5960  207.9310  149.3780 C   0  0  2  0  0  3  0  0  0  0  0  0
  161.5100  206.3960  149.3710 C   0  0  2  0  0  3  0  0  0  0  0  0
  160.8520  212.2360  150.0660 C   0  0  2  0  0  3  0  0  0  0  0  0
  161.1780  211.8650  152.4930 O   0  0  0  0  0  0  0  0  0  0  0  0
  161.6300  204.3730  150.3980 C   0  0  2  0  0  3  0  0  0  0  0  0
  160.9800  210.1190  154.6910 C   0  0  0  0  0  3  0  0  0  0  0  0
  161.5410  210.5020  152.2660 C   0  0  1  0  0  3  0  0  0  0  0  0
  161.1550  209.5940  153.4030 C   0  0  0  0  0  0  0  0  0  0  0  0
  161.1970  207.5920  151.8140 C   0  0  2  0  0  3  0  0  0  0  0  0
  160.1620  204.5330  150.0520 C   0  0  0  0  0  2  0  0  0  0  0  0
  160.3050  212.3930  151.5030 C   0  0  2  0  0  3  0  0  0  0  0  0
  160.0830  205.8750  149.3520 C   0  0  0  0  0  2  0  0  0  0  0  0
  160.7460  207.3660  154.2830 C   0  0  0  0  0  3  0  0  0  0  0  0
  161.0780  208.1940  153.2020 C   0  0  0  0  0  0  0  0  0  0  0  0
  162.0190  206.3040  151.8070 C   0  0  0  0  0  2  0  0  0  0  0  0
  161.5810  210.9070  149.8450 C   0  0  0  0  0  2  0  0  0  0  0  0
  162.6400  208.3350  148.5430 O   0  0  0  0  0  1  0  0  0  0  0  0
  161.8560  203.5040  151.6330 C   0  0  0  0  0  1  0  0  0  0  0  0
  161.7940  208.5330  150.7710 C   0  0  2  0  0  3  0  0  0  0  0  0
  162.2310  205.7110  150.4590 N   0  0  2  0  0  0  0  0  0  0  0  0
  158.6350  211.4530  153.1070 C   0  0  0  0  0  1  0  0  0  0  0  0
  158.8760  211.8560  151.6640 C   0  0  1  0  0  3  0  0  0  0  0  0
  157.9430  212.8290  151.2930 O   0  0  0  0  0  0  0  0  0  0  0  0
  157.7120  212.6050  149.9330 C   0  0  0  0  0  2  0  0  0  0  0  0
  157.1430  213.8300  149.3070 C   0  0  0  0  0  0  0  0  0  0  0  0
  156.0650  214.3160  149.7370 O   0  0  0  0  0  1  0  0  0  0  0  0
  157.8170  214.4530  148.2660 O   0  0  0  0  0  0  0  0  0  0  0  0
  161.8950  213.5300  148.3520 O   0  0  0  0  0  1  0  0  0  0  0  0
  161.7730  213.3960  149.7360 C   0  0  0  0  0  2  0  0  0  0  0  0
  1 19  1  6  0  0  0
  1 10  1  0  0  0  0
  3  2  1  0  0  0  0
  4 20  1  6  0  0  0
  4 22  1  0  0  0  0
  5 15  1  1  0  0  0
  5  4  1  0  0  0  0
  5 23  1  0  0  0  0
  6 32  1  1  0  0  0
  6 14  1  0  0  0  0
  8 23  1  0  0  0  0
  8 21  1  1  0  0  0
  9  2  2  0  0  0  0
 10  7  1  1  0  0  0
 10 11  1  0  0  0  0
 11  9  1  0  0  0  0
 12 18  1  1  0  0  0
 12 17  1  0  0  0  0
 13  8  1  0  0  0  0
 14 25  1  6  0  0  0
 14  7  1  0  0  0  0
 15 13  1  0  0  0  0
 16  3  2  0  0  0  0
 17 11  2  0  0  0  0
 17 16  1  0  0  0  0
 19  6  1  0  0  0  0
 22  1  1  0  0  0  0
 22 12  1  0  0  0  0
 23 18  1  0  0  0  0
 25 24  1  0  0  0  0
 26 25  1  0  0  0  0
 27 26  1  0  0  0  0
 28 29  1  0  0  0  0
 28 27  1  0  0  0  0
 30 28  2  0  0  0  0
 31 32  1  0  0  0  0
M  END
>  <MODEL>
5

>  <REMARK>
 VINA RESULT:      -2.4      3.386      7.429
  Name = 
  5 active torsions:
  status: ('A' for Active; 'I' for Inactive)
    1  A    between atoms: C_7  and  C_19
    2  A    between atoms: C_10  and  C_17
    3  A    between atoms: C_10  and  O_20
    4  A    between atoms: O_20  and  C_29
    5  A    between atoms: C_29  and  C_30
                            x       y       z     vdW  Elec       q    Type
                         _______ _______ _______ _____ _____    ______ ____

>  <TORSDO>
F 5

$$$$
=
 OpenBabel11122413033D

 32 36  0  0  1  0  0  0  0  0999 V2000
  161.1060  210.3560  151.8820 C   0  0  1  0  0  3  0  0  0  0  0  0
  157.7680  213.6150  153.4530 C   0  0  0  0  0  3  0  0  0  0  0  0
  158.1060  214.4530  152.3900 C   0  0  0  0  0  3  0  0  0  0  0  0
  162.1270  210.5610  149.5660 C   0  0  2  0  0  3  0  0  0  0  0  0
  162.3030  211.5870  148.4350 C   0  0  2  0  0  3  0  0  0  0  0  0
  161.7610  208.5860  153.5060 C   0  0  2  0  0  3  0  0  0  0  0  0
  159.7340  209.9380  153.9520 O   0  0  0  0  0  0  0  0  0  0  0  0
  161.5970  213.3630  147.2060 C   0  0  2  0  0  3  0  0  0  0  0  0
  158.3230  212.3370  153.5380 C   0  0  0  0  0  3  0  0  0  0  0  0
  159.7750  210.4880  152.6340 C   0  0  1  0  0  3  0  0  0  0  0  0
  159.2280  211.8880  152.5650 C   0  0  0  0  0  0  0  0  0  0  0  0
  160.5580  212.2990  150.4230 C   0  0  2  0  0  3  0  0  0  0  0  0
  162.7960  213.8880  147.9720 C   0  0  0  0  0  2  0  0  0  0  0  0
  161.0100  209.5550  154.4480 C   0  0  2  0  0  3  0  0  0  0  0  0
  163.2770  212.7000  148.7800 C   0  0  0  0  0  2  0  0  0  0  0  0
  158.9900  214.0100  151.4040 C   0  0  0  0  0  3  0  0  0  0  0  0
  159.5350  212.7190  151.4600 C   0  0  0  0  0  0  0  0  0  0  0  0
  160.1300  212.6640  149.0020 C   0  0  0  0  0  2  0  0  0  0  0  0
  161.5580  208.9150  152.0240 C   0  0  0  0  0  2  0  0  0  0  0  0
  162.0560  209.2800  149.0160 O   0  0  0  0  0  1  0  0  0  0  0  0
  160.5770  214.4530  146.8810 C   0  0  0  0  0  1  0  0  0  0  0  0
  160.8950  210.8090  150.4400 C   0  0  2  0  0  3  0  0  0  0  0  0
  161.0620  212.2070  147.9360 N   0  0  2  0  0  0  0  0  0  0  0  0
  161.0620  211.6560  155.8000 C   0  0  0  0  0  1  0  0  0  0  0  0
  161.8510  210.7740  154.8490 C   0  0  1  0  0  3  0  0  0  0  0  0
  163.0360  210.3690  155.4700 O   0  0  0  0  0  0  0  0  0  0  0  0
  163.3910  211.4380  156.2970 C   0  0  0  0  0  2  0  0  0  0  0  0
  164.8590  211.6720  156.2220 C   0  0  0  0  0  0  0  0  0  0  0  0
  165.5030  211.9800  157.2580 O   0  0  0  0  0  1  0  0  0  0  0  0
  165.5240  211.5220  155.0130 O   0  0  0  0  0  0  0  0  0  0  0  0
  161.8970  206.2950  152.8470 O   0  0  0  0  0  1  0  0  0  0  0  0
  161.3300  207.1580  153.7860 C   0  0  0  0  0  2  0  0  0  0  0  0
  1 19  1  6  0  0  0
  1 10  1  0  0  0  0
  2  9  1  0  0  0  0
  3  2  2  0  0  0  0
  4 20  1  6  0  0  0
  4 22  1  0  0  0  0
  5 15  1  1  0  0  0
  5  4  1  0  0  0  0
  6 32  1  6  0  0  0
  6 14  1  0  0  0  0
  7 14  1  0  0  0  0
  8 21  1  1  0  0  0
  8 23  1  0  0  0  0
  8 13  1  0  0  0  0
 10 11  1  1  0  0  0
 10  7  1  0  0  0  0
 11  9  2  0  0  0  0
 12 18  1  6  0  0  0
 12 22  1  0  0  0  0
 12 17  1  0  0  0  0
 13 15  1  0  0  0  0
 14 25  1  6  0  0  0
 16 17  2  0  0  0  0
 16  3  1  0  0  0  0
 17 11  1  0  0  0  0
 19  6  1  0  0  0  0
 22  1  1  0  0  0  0
 23  5  1  0  0  0  0
 23 18  1  0  0  0  0
 25 26  1  0  0  0  0
 25 24  1  0  0  0  0
 26 27  1  0  0  0  0
 28 27  1  0  0  0  0
 28 29  1  0  0  0  0
 30 28  2  0  0  0  0
 31 32  1  0  0  0  0
M  END
>  <MODEL>
6

>  <REMARK>
 VINA RESULT:      -2.2      2.782      6.559
  Name = 
  5 active torsions:
  status: ('A' for Active; 'I' for Inactive)
    1  A    between atoms: C_7  and  C_19
    2  A    between atoms: C_10  and  C_17
    3  A    between atoms: C_10  and  O_20
    4  A    between atoms: O_20  and  C_29
    5  A    between atoms: C_29  and  C_30
                            x       y       z     vdW  Elec       q    Type
                         _______ _______ _______ _____ _____    ______ ____

>  <TORSDO>
F 5

$$$$
