=
 OpenBabel11122412393D

 30 35  0  0  1  0  0  0  0  0999 V2000
  161.4150  206.3580  150.4390 C   0  0  0  0  0  0  0  0  0  0  0  0
  161.1400  203.8520  150.3920 C   0  0  0  0  0  0  0  0  0  0  0  0
  160.6990  206.5060  154.6330 C   0  0  0  0  0  2  0  0  0  0  0  0
  161.4060  207.5650  151.1940 C   0  0  0  0  0  0  0  0  0  0  0  0
  161.6810  206.4240  149.1060 N   0  0  0  0  0  0  0  0  0  0  0  0
  162.1870  209.9870  148.4950 O   0  0  0  0  0  1  0  0  0  0  0  0
  160.3280  210.3690  152.0180 C   0  0  1  0  0  3  0  0  0  0  0  0
  161.9290  208.7940  149.1650 C   0  0  0  0  0  0  0  0  0  0  0  0
  160.0860  209.5840  153.2530 N   0  0  2  0  0  0  0  0  0  0  0  0
  160.8450  207.9470  154.8700 N   0  0  0  0  0  0  0  0  0  0  0  0
  161.9360  207.5910  148.4590 C   0  0  0  0  0  0  0  0  0  0  0  0
  161.6580  208.7930  150.5390 C   0  0  0  0  0  0  0  0  0  0  0  0
  160.8840  202.6720  151.0970 C   0  0  0  0  0  3  0  0  0  0  0  0
  160.0220  210.5660  154.3320 C   0  0  0  0  0  2  0  0  0  0  0  0
  160.1930  211.8430  152.3440 C   0  0  0  0  0  2  0  0  0  0  0  0
  161.4270  203.6460  148.6670 Cl  0  0  0  0  0  0  0  0  0  0  0  0
  160.9000  206.3040  153.1820 C   0  0  0  0  0  0  0  0  0  0  0  0
  160.6380  202.6910  152.4660 C   0  0  0  0  0  3  0  0  0  0  0  0
  161.1540  205.1030  151.0770 C   0  0  0  0  0  0  0  0  0  0  0  0
  161.1360  207.4920  152.5690 C   0  0  0  0  0  0  0  0  0  0  0  0
  162.0270  208.1220  155.6980 C   0  0  0  0  0  1  0  0  0  0  0  0
  161.1260  208.5900  153.5720 C   0  0  1  0  0  3  0  0  0  0  0  0
  159.6070  211.8810  153.7250 C   0  0  0  0  0  2  0  0  0  0  0  0
  162.7740  210.2790  152.0640 O   0  0  0  0  0  1  0  0  0  0  0  0
  160.6440  203.8990  153.1540 C   0  0  0  0  0  3  0  0  0  0  0  0
  160.8960  205.0980  152.4790 C   0  0  0  0  0  0  0  0  0  0  0  0
  161.6430  210.1130  151.2590 C   0  0  2  0  0  3  0  0  0  0  0  0
  162.2050  207.5930  147.0910 O   0  0  0  0  0  0  0  0  0  0  0  0
  160.7660  206.2770  145.9290 C   0  0  0  0  0  1  0  0  0  0  0  0
  162.1450  206.4310  146.3530 N   0  0  0  0  0  2  0  0  0  0  0  0
  1 19  2  0  0  0  0
  1  4  1  0  0  0  0
  2 19  1  0  0  0  0
  2 13  2  0  0  0  0
  3 10  1  0  0  0  0
  4 20  2  0  0  0  0
  5  1  1  0  0  0  0
  6  8  1  0  0  0  0
  7 15  1  1  0  0  0
  7  9  1  0  0  0  0
  8 12  2  0  0  0  0
  9 22  1  0  0  0  0
  9 14  1  1  0  0  0
 10 21  1  0  0  0  0
 11  5  2  0  0  0  0
 11  8  1  0  0  0  0
 12  4  1  0  0  0  0
 12 27  1  0  0  0  0
 13 18  1  0  0  0  0
 15 23  1  0  0  0  0
 16  2  1  0  0  0  0
 17  3  1  0  0  0  0
 18 25  2  0  0  0  0
 19 26  1  0  0  0  0
 20 17  1  0  0  0  0
 22 20  1  6  0  0  0
 22 10  1  0  0  0  0
 23 14  1  0  0  0  0
 26 25  1  0  0  0  0
 26 17  2  0  0  0  0
 27  7  1  0  0  0  0
 27 24  1  1  0  0  0
 28 11  1  0  0  0  0
 29 30  1  0  0  0  0
 30 28  1  0  0  0  0
M  END
>  <MODEL>
1

>  <REMARK>
 VINA RESULT:      -8.1      0.000      0.000
  Name = 
  2 active torsions:
  status: ('A' for Active; 'I' for Inactive)
    1  A    between atoms: C_11  and  O_28
    2  A    between atoms: O_28  and  N_30
                            x       y       z     vdW  Elec       q    Type
                         _______ _______ _______ _____ _____    ______ ____

>  <TORSDO>
F 2

$$$$
=
 OpenBabel11122412393D

 30 35  0  0  1  0  0  0  0  0999 V2000
  161.3790  207.8680  151.0980 C   0  0  0  0  0  0  0  0  0  0  0  0
  161.4490  205.5410  150.1280 C   0  0  0  0  0  0  0  0  0  0  0  0
  160.5680  206.3770  155.0020 C   0  0  0  0  0  2  0  0  0  0  0  0
  161.1910  208.7020  152.2360 C   0  0  0  0  0  0  0  0  0  0  0  0
  161.6590  208.4510  149.9000 N   0  0  0  0  0  0  0  0  0  0  0  0
  161.6870  212.0210  150.6550 O   0  0  0  0  0  1  0  0  0  0  0  0
  159.7250  210.8570  153.9420 C   0  0  1  0  0  3  0  0  0  0  0  0
  161.5810  210.6440  150.8290 C   0  0  0  0  0  0  0  0  0  0  0  0
  159.5690  209.6490  154.7900 N   0  0  2  0  0  0  0  0  0  0  0  0
  160.5120  207.6370  155.7530 N   0  0  0  0  0  0  0  0  0  0  0  0
  161.7660  209.7950  149.7380 C   0  0  0  0  0  0  0  0  0  0  0  0
  161.2860  210.1060  152.0880 C   0  0  0  0  0  0  0  0  0  0  0  0
  161.3420  204.1630  150.3400 C   0  0  0  0  0  3  0  0  0  0  0  0
  159.3500  210.1510  156.1440 C   0  0  0  0  0  2  0  0  0  0  0  0
  159.3850  212.0810  154.7690 C   0  0  0  0  0  2  0  0  0  0  0  0
  161.7950  206.0190  148.4690 Cl  0  0  0  0  0  0  0  0  0  0  0  0
  160.8230  206.7480  153.5930 C   0  0  0  0  0  0  0  0  0  0  0  0
  161.0700  203.6480  151.6030 C   0  0  0  0  0  3  0  0  0  0  0  0
  161.2790  206.4450  151.2180 C   0  0  0  0  0  0  0  0  0  0  0  0
  160.9070  208.0970  153.4690 C   0  0  0  0  0  0  0  0  0  0  0  0
  161.6420  207.6350  156.6660 C   0  0  0  0  0  1  0  0  0  0  0  0
  160.7280  208.7410  154.7980 C   0  0  1  0  0  3  0  0  0  0  0  0
  158.7710  211.5380  156.0270 C   0  0  0  0  0  2  0  0  0  0  0  0
  162.1590  211.0490  154.1180 O   0  0  0  0  0  1  0  0  0  0  0  0
  160.8980  204.5090  152.6800 C   0  0  0  0  0  3  0  0  0  0  0  0
  160.9970  205.8930  152.5030 C   0  0  0  0  0  0  0  0  0  0  0  0
  161.0770  211.0570  153.2330 C   0  0  2  0  0  3  0  0  0  0  0  0
  162.0580  210.3320  148.4840 O   0  0  0  0  0  0  0  0  0  0  0  0
  162.0730  212.3450  147.4370 C   0  0  0  0  0  1  0  0  0  0  0  0
  161.2270  211.2600  147.8970 N   0  0  0  0  0  2  0  0  0  0  0  0
  1 19  2  0  0  0  0
  1  4  1  0  0  0  0
  2 13  2  0  0  0  0
  2 19  1  0  0  0  0
  3 10  1  0  0  0  0
  4 20  2  0  0  0  0
  5  1  1  0  0  0  0
  6  8  1  0  0  0  0
  7 15  1  1  0  0  0
  7  9  1  0  0  0  0
  8 12  2  0  0  0  0
  9 22  1  0  0  0  0
  9 14  1  1  0  0  0
 10 21  1  0  0  0  0
 11  5  2  0  0  0  0
 11  8  1  0  0  0  0
 12  4  1  0  0  0  0
 12 27  1  0  0  0  0
 13 18  1  0  0  0  0
 15 23  1  0  0  0  0
 16  2  1  0  0  0  0
 17  3  1  0  0  0  0
 18 25  2  0  0  0  0
 19 26  1  0  0  0  0
 20 17  1  0  0  0  0
 22 20  1  6  0  0  0
 22 10  1  0  0  0  0
 23 14  1  0  0  0  0
 26 25  1  0  0  0  0
 26 17  2  0  0  0  0
 27  7  1  0  0  0  0
 27 24  1  1  0  0  0
 28 11  1  0  0  0  0
 29 30  1  0  0  0  0
 30 28  1  0  0  0  0
M  END
>  <MODEL>
2

>  <REMARK>
 VINA RESULT:      -6.9      1.745      2.375
  Name = 
  2 active torsions:
  status: ('A' for Active; 'I' for Inactive)
    1  A    between atoms: C_11  and  O_28
    2  A    between atoms: O_28  and  N_30
                            x       y       z     vdW  Elec       q    Type
                         _______ _______ _______ _____ _____    ______ ____

>  <TORSDO>
F 2

$$$$
=
 OpenBabel11122412393D

 30 35  0  0  1  0  0  0  0  0999 V2000
  160.8980  210.2100  151.7180 C   0  0  0  0  0  0  0  0  0  0  0  0
  161.9760  208.1410  150.7620 C   0  0  0  0  0  0  0  0  0  0  0  0
  160.1470  208.2800  155.4370 C   0  0  0  0  0  2  0  0  0  0  0  0
  160.2470  210.8420  152.8160 C   0  0  0  0  0  0  0  0  0  0  0  0
  161.1100  210.9300  150.5830 N   0  0  0  0  0  0  0  0  0  0  0  0
  159.6870  214.2020  151.3490 O   0  0  0  0  0  1  0  0  0  0  0  0
  157.8490  212.1890  154.2770 C   0  0  1  0  0  3  0  0  0  0  0  0
  160.0810  212.8750  151.4970 C   0  0  0  0  0  0  0  0  0  0  0  0
  158.0350  210.9580  155.0850 N   0  0  2  0  0  0  0  0  0  0  0  0
  159.5130  209.3790  156.1760 N   0  0  0  0  0  0  0  0  0  0  0  0
  160.7270  212.2260  150.4460 C   0  0  0  0  0  0  0  0  0  0  0  0
  159.8300  212.1870  152.6910 C   0  0  0  0  0  0  0  0  0  0  0  0
  162.3640  206.8100  150.9480 C   0  0  0  0  0  3  0  0  0  0  0  0
  157.4500  211.2560  156.3890 C   0  0  0  0  0  2  0  0  0  0  0  0
  156.9580  213.1450  155.0450 C   0  0  0  0  0  2  0  0  0  0  0  0
  162.3550  208.8170  149.1810 Cl  0  0  0  0  0  0  0  0  0  0  0  0
  160.4460  208.8070  154.0890 C   0  0  0  0  0  0  0  0  0  0  0  0
  162.1240  206.1520  152.1490 C   0  0  0  0  0  3  0  0  0  0  0  0
  161.3220  208.8460  151.8150 C   0  0  0  0  0  0  0  0  0  0  0  0
  160.0350  210.0970  153.9850 C   0  0  0  0  0  0  0  0  0  0  0  0
  160.4160  209.7370  157.2570 C   0  0  0  0  0  1  0  0  0  0  0  0
  159.4360  210.5430  155.2730 C   0  0  1  0  0  3  0  0  0  0  0  0
  156.4170  212.3350  156.1880 C   0  0  0  0  0  2  0  0  0  0  0  0
  159.9800  213.2550  154.8390 O   0  0  0  0  0  1  0  0  0  0  0  0
  161.4870  206.8180  153.1890 C   0  0  0  0  0  3  0  0  0  0  0  0
  161.0840  208.1490  153.0370 C   0  0  0  0  0  0  0  0  0  0  0  0
  159.1150  212.9190  153.7930 C   0  0  2  0  0  3  0  0  0  0  0  0
  160.9760  212.9110  149.2570 O   0  0  0  0  0  0  0  0  0  0  0  0
  162.7480  212.6140  147.8700 C   0  0  0  0  0  1  0  0  0  0  0  0
  161.3680  212.2410  148.1190 N   0  0  0  0  0  2  0  0  0  0  0  0
  1 19  2  0  0  0  0
  1  4  1  0  0  0  0
  2 13  2  0  0  0  0
  2 19  1  0  0  0  0
  3 10  1  0  0  0  0
  4 20  2  0  0  0  0
  5  1  1  0  0  0  0
  6  8  1  0  0  0  0
  7 15  1  1  0  0  0
  7  9  1  0  0  0  0
  8 12  2  0  0  0  0
  9 22  1  0  0  0  0
  9 14  1  1  0  0  0
 10 21  1  0  0  0  0
 11  5  2  0  0  0  0
 11  8  1  0  0  0  0
 12  4  1  0  0  0  0
 12 27  1  0  0  0  0
 13 18  1  0  0  0  0
 15 23  1  0  0  0  0
 16  2  1  0  0  0  0
 17  3  1  0  0  0  0
 18 25  2  0  0  0  0
 19 26  1  0  0  0  0
 20 17  1  0  0  0  0
 22 20  1  6  0  0  0
 22 10  1  0  0  0  0
 23 14  1  0  0  0  0
 26 25  1  0  0  0  0
 26 17  2  0  0  0  0
 27  7  1  0  0  0  0
 27 24  1  1  0  0  0
 28 11  1  0  0  0  0
 29 30  1  0  0  0  0
 30 28  1  0  0  0  0
M  END
>  <MODEL>
3

>  <REMARK>
 VINA RESULT:      -6.4      2.994      4.292
  Name = 
  2 active torsions:
  status: ('A' for Active; 'I' for Inactive)
    1  A    between atoms: C_11  and  O_28
    2  A    between atoms: O_28  and  N_30
                            x       y       z     vdW  Elec       q    Type
                         _______ _______ _______ _____ _____    ______ ____

>  <TORSDO>
F 2

$$$$
=
 OpenBabel11122412393D

 30 35  0  0  1  0  0  0  0  0999 V2000
  161.5240  207.7570  151.4410 C   0  0  0  0  0  0  0  0  0  0  0  0
  161.6340  210.2110  150.8710 C   0  0  0  0  0  0  0  0  0  0  0  0
  162.0370  206.6370  147.3660 C   0  0  0  0  0  2  0  0  0  0  0  0
  161.5490  206.4060  150.9930 C   0  0  0  0  0  0  0  0  0  0  0  0
  161.3800  208.0010  152.7720 N   0  0  0  0  0  0  0  0  0  0  0  0
  161.1370  204.6700  154.2450 O   0  0  0  0  0  1  0  0  0  0  0  0
  160.3400  203.5810  150.4790 C   0  0  1  0  0  3  0  0  0  0  0  0
  161.2690  205.6780  153.2940 C   0  0  0  0  0  0  0  0  0  0  0  0
  160.5890  204.0540  149.0950 N   0  0  2  0  0  0  0  0  0  0  0  0
  162.0230  205.1740  147.4960 N   0  0  0  0  0  0  0  0  0  0  0  0
  161.2560  207.0130  153.6960 C   0  0  0  0  0  0  0  0  0  0  0  0
  161.4110  205.3610  151.9370 C   0  0  0  0  0  0  0  0  0  0  0  0
  161.7750  211.1970  149.8900 C   0  0  0  0  0  3  0  0  0  0  0  0
  160.6890  202.8450  148.2830 C   0  0  0  0  0  2  0  0  0  0  0  0
  160.0810  202.0880  150.4440 C   0  0  0  0  0  2  0  0  0  0  0  0
  161.4380  210.8130  152.5140 Cl  0  0  0  0  0  0  0  0  0  0  0  0
  161.8380  207.1740  148.7290 C   0  0  0  0  0  0  0  0  0  0  0  0
  161.9360  210.8600  148.5500 C   0  0  0  0  0  3  0  0  0  0  0  0
  161.6530  208.8320  150.5050 C   0  0  0  0  0  0  0  0  0  0  0  0
  161.7030  206.1590  149.6210 C   0  0  0  0  0  0  0  0  0  0  0  0
  163.3520  204.7060  147.1410 C   0  0  0  0  0  1  0  0  0  0  0  0
  161.8150  204.8510  148.9200 C   0  0  1  0  0  3  0  0  0  0  0  0
  159.9200  201.7580  148.9890 C   0  0  0  0  0  2  0  0  0  0  0  0
  162.6790  203.4600  151.1920 O   0  0  0  0  0  1  0  0  0  0  0  0
  161.9560  209.5240  148.1690 C   0  0  0  0  0  3  0  0  0  0  0  0
  161.8150  208.5120  149.1240 C   0  0  0  0  0  0  0  0  0  0  0  0
  161.4020  203.9100  151.5430 C   0  0  2  0  0  3  0  0  0  0  0  0
  161.1140  207.3280  155.0470 O   0  0  0  0  0  0  0  0  0  0  0  0
  160.0810  206.9530  157.0330 C   0  0  0  0  0  1  0  0  0  0  0  0
  159.8750  207.3350  155.6490 N   0  0  0  0  0  2  0  0  0  0  0  0
  1  5  1  0  0  0  0
  2 16  1  0  0  0  0
  3 10  1  0  0  0  0
  3 17  1  0  0  0  0
  4  1  1  0  0  0  0
  4 12  1  0  0  0  0
  5 11  2  0  0  0  0
  7 15  1  6  0  0  0
  7 27  1  0  0  0  0
  8 11  1  0  0  0  0
  8  6  1  0  0  0  0
  9 14  1  6  0  0  0
  9  7  1  0  0  0  0
 10 22  1  0  0  0  0
 11 28  1  0  0  0  0
 12  8  2  0  0  0  0
 13  2  2  0  0  0  0
 14 23  1  0  0  0  0
 17 26  2  0  0  0  0
 17 20  1  0  0  0  0
 18 13  1  0  0  0  0
 19  2  1  0  0  0  0
 19  1  2  0  0  0  0
 20  4  2  0  0  0  0
 21 10  1  0  0  0  0
 22  9  1  0  0  0  0
 22 20  1  1  0  0  0
 23 15  1  0  0  0  0
 25 18  2  0  0  0  0
 25 26  1  0  0  0  0
 26 19  1  0  0  0  0
 27 24  1  6  0  0  0
 27 12  1  0  0  0  0
 28 30  1  0  0  0  0
 30 29  1  0  0  0  0
M  END
>  <MODEL>
4

>  <REMARK>
 VINA RESULT:      -6.1      2.888      7.237
  Name = 
  2 active torsions:
  status: ('A' for Active; 'I' for Inactive)
    1  A    between atoms: C_11  and  O_28
    2  A    between atoms: O_28  and  N_30
                            x       y       z     vdW  Elec       q    Type
                         _______ _______ _______ _____ _____    ______ ____

>  <TORSDO>
F 2

$$$$
=
 OpenBabel11122412393D

 30 35  0  0  1  0  0  0  0  0999 V2000
  161.0790  209.5170  152.1160 C   0  0  0  0  0  0  0  0  0  0  0  0
  162.0850  209.4730  149.8040 C   0  0  0  0  0  0  0  0  0  0  0  0
  159.6970  213.5100  151.5990 C   0  0  0  0  0  2  0  0  0  0  0  0
  160.3750  210.2430  153.1180 C   0  0  0  0  0  0  0  0  0  0  0  0
  161.4530  208.2350  152.3790 N   0  0  0  0  0  0  0  0  0  0  0  0
  160.2400  207.6540  155.7720 O   0  0  0  0  0  1  0  0  0  0  0  0
  160.0510  211.6490  155.8790 C   0  0  1  0  0  3  0  0  0  0  0  0
  160.5060  208.2950  154.5640 C   0  0  0  0  0  0  0  0  0  0  0  0
  159.9180  212.7940  154.9440 N   0  0  2  0  0  0  0  0  0  0  0  0
  159.0320  213.7230  152.8900 N   0  0  0  0  0  0  0  0  0  0  0  0
  161.1880  207.6140  153.5570 C   0  0  0  0  0  0  0  0  0  0  0  0
  160.0970  209.6190  154.3570 C   0  0  0  0  0  0  0  0  0  0  0  0
  162.3290  210.1450  148.6020 C   0  0  0  0  0  3  0  0  0  0  0  0
  159.1790  213.8150  155.6820 C   0  0  0  0  0  2  0  0  0  0  0  0
  159.5690  212.0810  157.2490 C   0  0  0  0  0  2  0  0  0  0  0  0
  162.7040  207.8270  149.8800 Cl  0  0  0  0  0  0  0  0  0  0  0  0
  160.2600  212.1440  151.6450 C   0  0  0  0  0  0  0  0  0  0  0  0
  161.8960  211.4530  148.4080 C   0  0  0  0  0  3  0  0  0  0  0  0
  161.3810  210.1290  150.8570 C   0  0  0  0  0  0  0  0  0  0  0  0
  159.9880  211.5620  152.8410 C   0  0  0  0  0  0  0  0  0  0  0  0
  157.6110  213.8600  152.6160 C   0  0  0  0  0  1  0  0  0  0  0  0
  159.2020  212.4960  153.6920 C   0  0  1  0  0  3  0  0  0  0  0  0
  159.4090  213.5700  157.1510 C   0  0  0  0  0  2  0  0  0  0  0  0
  158.0150  210.4640  155.2090 O   0  0  0  0  0  1  0  0  0  0  0  0
  161.2100  212.1130  149.4210 C   0  0  0  0  0  3  0  0  0  0  0  0
  160.9510  211.4710  150.6360 C   0  0  0  0  0  0  0  0  0  0  0  0
  159.3800  210.3230  155.4760 C   0  0  2  0  0  3  0  0  0  0  0  0
  161.5940  206.2960  153.7650 O   0  0  0  0  0  0  0  0  0  0  0  0
  161.6000  204.8680  152.0010 C   0  0  0  0  0  1  0  0  0  0  0  0
  160.8980  205.2430  153.2140 N   0  0  0  0  0  2  0  0  0  0  0  0
  1  5  1  0  0  0  0
  1  4  1  0  0  0  0
  2 16  1  0  0  0  0
  2 19  1  0  0  0  0
  3 17  1  0  0  0  0
  3 10  1  0  0  0  0
  4 12  1  0  0  0  0
  5 11  2  0  0  0  0
  7 15  1  1  0  0  0
  8  6  1  0  0  0  0
  9 14  1  1  0  0  0
  9  7  1  0  0  0  0
 10 22  1  0  0  0  0
 11 28  1  0  0  0  0
 11  8  1  0  0  0  0
 12  8  2  0  0  0  0
 12 27  1  0  0  0  0
 13  2  2  0  0  0  0
 14 23  1  0  0  0  0
 17 20  1  0  0  0  0
 18 13  1  0  0  0  0
 18 25  2  0  0  0  0
 19  1  2  0  0  0  0
 20  4  2  0  0  0  0
 21 10  1  0  0  0  0
 22 20  1  6  0  0  0
 22  9  1  0  0  0  0
 23 15  1  0  0  0  0
 25 26  1  0  0  0  0
 26 19  1  0  0  0  0
 26 17  2  0  0  0  0
 27 24  1  6  0  0  0
 27  7  1  0  0  0  0
 29 30  1  0  0  0  0
 30 28  1  0  0  0  0
M  END
>  <MODEL>
5

>  <REMARK>
 VINA RESULT:      -5.3      3.000      5.915
  Name = 
  2 active torsions:
  status: ('A' for Active; 'I' for Inactive)
    1  A    between atoms: C_11  and  O_28
    2  A    between atoms: O_28  and  N_30
                            x       y       z     vdW  Elec       q    Type
                         _______ _______ _______ _____ _____    ______ ____

>  <TORSDO>
F 2

$$$$
=
 OpenBabel11122412393D

 30 35  0  0  1  0  0  0  0  0999 V2000
  161.4870  208.4120  151.3550 C   0  0  0  0  0  0  0  0  0  0  0  0
  161.4890  208.6660  153.8630 C   0  0  0  0  0  0  0  0  0  0  0  0
  160.9360  204.2000  151.6320 C   0  0  0  0  0  2  0  0  0  0  0  0
  161.4030  207.5530  150.2220 C   0  0  0  0  0  0  0  0  0  0  0  0
  161.6390  209.7490  151.1490 N   0  0  0  0  0  0  0  0  0  0  0  0
  161.7280  210.0670  147.5140 O   0  0  0  0  0  1  0  0  0  0  0  0
  162.4860  206.1420  147.6650 C   0  0  1  0  0  3  0  0  0  0  0  0
  161.6430  209.4930  148.7800 C   0  0  0  0  0  0  0  0  0  0  0  0
  162.2620  204.9870  148.5700 N   0  0  2  0  0  0  0  0  0  0  0  0
  160.8840  203.8510  150.2070 N   0  0  0  0  0  0  0  0  0  0  0  0
  161.7160  210.3040  149.9120 C   0  0  0  0  0  0  0  0  0  0  0  0
  161.4920  208.1080  148.9240 C   0  0  0  0  0  0  0  0  0  0  0  0
  161.3950  208.0560  155.1180 C   0  0  0  0  0  3  0  0  0  0  0  0
  162.1100  203.8300  147.6920 C   0  0  0  0  0  2  0  0  0  0  0  0
  162.6770  205.6250  146.2530 C   0  0  0  0  0  2  0  0  0  0  0  0
  161.7080  210.4130  153.8940 Cl  0  0  0  0  0  0  0  0  0  0  0  0
  161.1550  205.6610  151.6910 C   0  0  0  0  0  0  0  0  0  0  0  0
  161.2230  206.6810  155.2390 C   0  0  0  0  0  3  0  0  0  0  0  0
  161.4090  207.8750  152.6790 C   0  0  0  0  0  0  0  0  0  0  0  0
  161.2420  206.1770  150.4380 C   0  0  0  0  0  0  0  0  0  0  0  0
  159.5360  203.3810  149.9360 C   0  0  0  0  0  1  0  0  0  0  0  0
  161.0730  205.0930  149.4320 C   0  0  1  0  0  3  0  0  0  0  0  0
  162.8270  204.1390  146.4030 C   0  0  0  0  0  2  0  0  0  0  0  0
  160.1420  206.8060  147.4220 O   0  0  0  0  0  1  0  0  0  0  0  0
  161.1440  205.8900  154.0990 C   0  0  0  0  0  3  0  0  0  0  0  0
  161.2370  206.4670  152.8290 C   0  0  0  0  0  0  0  0  0  0  0  0
  161.4360  207.2680  147.6780 C   0  0  2  0  0  3  0  0  0  0  0  0
  161.8670  211.6830  149.7670 O   0  0  0  0  0  0  0  0  0  0  0  0
  160.9500  213.4000  148.6020 C   0  0  0  0  0  1  0  0  0  0  0  0
  160.7730  212.5190  149.7410 N   0  0  0  0  0  2  0  0  0  0  0  0
  1 19  1  0  0  0  0
  2 16  1  0  0  0  0
  2 13  1  0  0  0  0
  3 17  1  0  0  0  0
  4 20  1  0  0  0  0
  4  1  2  0  0  0  0
  5  1  1  0  0  0  0
  6  8  1  0  0  0  0
  7 15  1  6  0  0  0
  7 27  1  0  0  0  0
  7  9  1  0  0  0  0
  8 12  2  0  0  0  0
  8 11  1  0  0  0  0
  9 14  1  6  0  0  0
  9 22  1  0  0  0  0
 10  3  1  0  0  0  0
 11  5  2  0  0  0  0
 12  4  1  0  0  0  0
 13 18  2  0  0  0  0
 15 23  1  0  0  0  0
 17 26  1  0  0  0  0
 19 26  1  0  0  0  0
 19  2  2  0  0  0  0
 20 17  2  0  0  0  0
 21 10  1  0  0  0  0
 22 10  1  0  0  0  0
 22 20  1  1  0  0  0
 23 14  1  0  0  0  0
 25 18  1  0  0  0  0
 26 25  2  0  0  0  0
 27 24  1  1  0  0  0
 27 12  1  0  0  0  0
 28 11  1  0  0  0  0
 29 30  1  0  0  0  0
 30 28  1  0  0  0  0
M  END
>  <MODEL>
6

>  <REMARK>
 VINA RESULT:      -5.3      2.458      5.678
  Name = 
  2 active torsions:
  status: ('A' for Active; 'I' for Inactive)
    1  A    between atoms: C_11  and  O_28
    2  A    between atoms: O_28  and  N_30
                            x       y       z     vdW  Elec       q    Type
                         _______ _______ _______ _____ _____    ______ ____

>  <TORSDO>
F 2

$$$$
