=
 OpenBabel11122413293D

 31 35  0  0  1  0  0  0  0  0999 V2000
  161.0970  205.4590  145.0760 C   0  0  2  0  0  3  0  0  0  0  0  0
  160.5090  205.5080  148.9020 C   0  0  2  0  0  3  0  0  0  0  0  0
  160.7830  204.4830  149.9830 C   0  0  0  0  0  0  0  0  0  0  0  0
  161.1010  202.1800  150.6850 C   0  0  0  0  0  0  0  0  0  0  0  0
  161.1660  205.1480  147.5610 C   0  0  1  0  0  3  0  0  0  0  0  0
  162.5770  205.8300  145.0740 C   0  0  0  0  0  2  0  0  0  0  0  0
  160.8790  203.1190  149.6750 C   0  0  0  0  0  3  0  0  0  0  0  0
  162.3840  207.1830  149.3480 C   0  0  2  0  0  3  0  0  0  0  0  0
  160.4510  206.1210  144.0340 O   0  0  0  0  0  1  0  0  0  0  0  0
  160.7270  206.2410  151.6700 O   0  0  0  0  0  0  0  0  0  0  0  0
  161.2170  200.7370  150.3450 C   0  0  0  0  0  1  0  0  0  0  0  0
  162.9700  206.8840  147.9710 C   0  0  0  0  0  2  0  0  0  0  0  0
  160.8660  206.9460  149.3460 C   0  0  2  0  0  3  0  0  0  0  0  0
  160.4590  205.8560  146.4030 C   0  0  0  0  0  2  0  0  0  0  0  0
  161.2150  202.5950  152.0140 C   0  0  0  0  0  3  0  0  0  0  0  0
  162.6800  205.4390  147.5700 C   0  0  2  0  0  3  0  0  0  0  0  0
  163.3050  205.1140  146.2120 C   0  0  0  0  0  2  0  0  0  0  0  0
  160.2670  207.2100  150.7280 C   0  0  0  0  0  2  0  0  0  0  0  0
  160.8620  204.8920  151.3300 C   0  0  0  0  0  0  0  0  0  0  0  0
  161.0940  203.9490  152.3360 C   0  0  0  0  0  3  0  0  0  0  0  0
  161.3730  209.4870  148.0010 O   0  0  0  0  0  0  0  0  0  0  0  0
  162.1260  209.6740  148.9970 C   0  0  0  0  0  0  0  0  0  0  0  0
  162.6740  208.5640  149.7080 N   0  0  0  0  0  2  0  0  0  0  0  0
  160.8030  213.3640  148.8460 C   0  0  0  0  0  0  0  0  0  0  0  0
  161.4110  211.5730  150.3910 C   0  0  0  0  0  3  0  0  0  0  0  0
  163.6130  211.7740  147.4620 O   0  0  0  0  0  0  0  0  0  0  0  0
  159.9350  214.4520  148.5560 N   0  0  0  0  0  1  0  0  0  0  0  0
  160.6400  212.6240  150.1080 C   0  0  0  0  0  3  0  0  0  0  0  0
  162.6540  211.9720  148.2530 C   0  0  0  0  0  0  0  0  0  0  0  0
  162.4620  211.0620  149.4400 C   0  0  2  0  0  3  0  0  0  0  0  0
  161.7480  213.0540  148.0100 N   0  0  0  0  0  0  0  0  0  0  0  0
  1  9  1  6  0  0  0
  1 14  1  0  0  0  0
  2 13  1  0  0  0  0
  2  3  1  1  0  0  0
  3 19  1  0  0  0  0
  4 15  2  0  0  0  0
  5 14  1  6  0  0  0
  5 16  1  0  0  0  0
  5  2  1  0  0  0  0
  6  1  1  0  0  0  0
  6 17  1  0  0  0  0
  7  3  2  0  0  0  0
  7  4  1  0  0  0  0
  8 23  1  6  0  0  0
 11  4  1  0  0  0  0
 12  8  1  0  0  0  0
 13  8  1  0  0  0  0
 13 18  1  1  0  0  0
 15 20  1  0  0  0  0
 16 17  1  6  0  0  0
 16 12  1  0  0  0  0
 18 10  1  0  0  0  0
 19 10  1  0  0  0  0
 19 20  2  0  0  0  0
 21 22  2  0  0  0  0
 22 23  1  0  0  0  0
 24 28  1  0  0  0  0
 26 29  2  0  0  0  0
 27 24  1  0  0  0  0
 28 25  2  0  0  0  0
 29 30  1  0  0  0  0
 30 22  1  6  0  0  0
 30 25  1  0  0  0  0
 31 29  1  0  0  0  0
 31 24  2  0  0  0  0
M  END
>  <MODEL>
1

>  <REMARK>
 VINA RESULT:      -6.2      0.000      0.000
  Name = 
  2 active torsions:
  status: ('A' for Active; 'I' for Inactive)
    1  A    between atoms: C_5  and  C_30
    2  A    between atoms: C_10  and  N_16
                            x       y       z     vdW  Elec       q    Type
                         _______ _______ _______ _____ _____    ______ ____

>  <TORSDO>
F 2

$$$$
=
 OpenBabel11122413293D

 31 35  0  0  1  0  0  0  0  0999 V2000
  161.4050  205.2720  144.7060 C   0  0  2  0  0  3  0  0  0  0  0  0
  160.4720  205.0460  148.4560 C   0  0  2  0  0  3  0  0  0  0  0  0
  160.7290  203.9820  149.5030 C   0  0  0  0  0  0  0  0  0  0  0  0
  161.1660  201.6700  150.1080 C   0  0  0  0  0  0  0  0  0  0  0  0
  161.2740  204.8180  147.1660 C   0  0  1  0  0  3  0  0  0  0  0  0
  162.8450  205.7520  144.8630 C   0  0  0  0  0  2  0  0  0  0  0  0
  160.9610  202.6490  149.1330 C   0  0  0  0  0  3  0  0  0  0  0  0
  162.1590  206.8270  149.1650 C   0  0  2  0  0  3  0  0  0  0  0  0
  160.8040  205.9460  143.6440 O   0  0  0  0  0  1  0  0  0  0  0  0
  160.3800  205.6260  151.2680 O   0  0  0  0  0  0  0  0  0  0  0  0
  161.4270  200.2640  149.7050 C   0  0  0  0  0  1  0  0  0  0  0  0
  162.8880  206.6570  147.8360 C   0  0  0  0  0  2  0  0  0  0  0  0
  160.6710  206.4780  149.0070 C   0  0  2  0  0  3  0  0  0  0  0  0
  160.6200  205.5390  145.9850 C   0  0  0  0  0  2  0  0  0  0  0  0
  161.1260  202.0130  151.4620 C   0  0  0  0  0  3  0  0  0  0  0  0
  162.7520  205.2210  147.3340 C   0  0  2  0  0  3  0  0  0  0  0  0
  163.5220  205.0250  146.0250 C   0  0  0  0  0  2  0  0  0  0  0  0
  159.9300  206.6130  150.3390 C   0  0  0  0  0  2  0  0  0  0  0  0
  160.6530  204.3140  150.8710 C   0  0  0  0  0  0  0  0  0  0  0  0
  160.8680  203.3320  151.8430 C   0  0  0  0  0  3  0  0  0  0  0  0
  162.2840  207.6530  151.8950 O   0  0  0  0  0  0  0  0  0  0  0  0
  162.3710  208.5470  151.0070 C   0  0  0  0  0  0  0  0  0  0  0  0
  162.3040  208.2020  149.6240 N   0  0  0  0  0  2  0  0  0  0  0  0
  160.3150  211.6850  152.1540 C   0  0  0  0  0  0  0  0  0  0  0  0
  162.1190  210.1840  152.8300 C   0  0  0  0  0  3  0  0  0  0  0  0
  162.1390  210.9570  149.2410 O   0  0  0  0  0  0  0  0  0  0  0  0
  159.1950  212.4650  152.5510 N   0  0  0  0  0  1  0  0  0  0  0  0
  161.0880  210.9570  153.1730 C   0  0  0  0  0  3  0  0  0  0  0  0
  161.7840  210.8830  150.4470 C   0  0  0  0  0  0  0  0  0  0  0  0
  162.5350  209.9820  151.3950 C   0  0  2  0  0  3  0  0  0  0  0  0
  160.6620  211.6470  150.9030 N   0  0  0  0  0  0  0  0  0  0  0  0
  1  9  1  6  0  0  0
  1  6  1  0  0  0  0
  1 14  1  0  0  0  0
  2 13  1  0  0  0  0
  2  3  1  1  0  0  0
  3 19  1  0  0  0  0
  4 15  2  0  0  0  0
  5 14  1  6  0  0  0
  5 16  1  0  0  0  0
  5  2  1  0  0  0  0
  6 17  1  0  0  0  0
  7  3  2  0  0  0  0
  7  4  1  0  0  0  0
  8 23  1  6  0  0  0
 11  4  1  0  0  0  0
 12  8  1  0  0  0  0
 13  8  1  0  0  0  0
 13 18  1  1  0  0  0
 15 20  1  0  0  0  0
 16 17  1  6  0  0  0
 16 12  1  0  0  0  0
 18 10  1  0  0  0  0
 19 10  1  0  0  0  0
 19 20  2  0  0  0  0
 22 21  2  0  0  0  0
 23 22  1  0  0  0  0
 24 27  1  0  0  0  0
 24 28  1  0  0  0  0
 25 28  2  0  0  0  0
 26 29  2  0  0  0  0
 29 31  1  0  0  0  0
 29 30  1  0  0  0  0
 30 22  1  6  0  0  0
 30 25  1  0  0  0  0
 31 24  2  0  0  0  0
M  END
>  <MODEL>
2

>  <REMARK>
 VINA RESULT:      -5.3      1.606      1.947
  Name = 
  2 active torsions:
  status: ('A' for Active; 'I' for Inactive)
    1  A    between atoms: C_5  and  C_30
    2  A    between atoms: C_10  and  N_16
                            x       y       z     vdW  Elec       q    Type
                         _______ _______ _______ _____ _____    ______ ____

>  <TORSDO>
F 2

$$$$
=
 OpenBabel11122413293D

 31 35  0  0  1  0  0  0  0  0999 V2000
  162.0470  213.9470  146.8070 C   0  0  2  0  0  3  0  0  0  0  0  0
  161.7050  211.9720  150.1190 C   0  0  2  0  0  3  0  0  0  0  0  0
  160.5740  211.8600  151.1200 C   0  0  0  0  0  0  0  0  0  0  0  0
  158.5830  212.7680  152.1750 C   0  0  0  0  0  0  0  0  0  0  0  0
  161.2770  212.6600  148.8130 C   0  0  1  0  0  3  0  0  0  0  0  0
  161.3120  212.9740  145.8900 C   0  0  0  0  0  2  0  0  0  0  0  0
  159.6040  212.8680  151.2270 C   0  0  0  0  0  3  0  0  0  0  0  0
  161.5360  209.7050  148.9560 C   0  0  2  0  0  3  0  0  0  0  0  0
  163.1650  214.4530  146.1450 O   0  0  0  0  0  1  0  0  0  0  0  0
  161.5170  209.7760  151.9590 O   0  0  0  0  0  0  0  0  0  0  0  0
  157.5510  213.8340  152.2700 C   0  0  0  0  0  1  0  0  0  0  0  0
  161.2080  210.4100  147.6430 C   0  0  0  0  0  2  0  0  0  0  0  0
  162.3940  210.6140  149.8500 C   0  0  2  0  0  3  0  0  0  0  0  0
  162.4910  213.2350  148.0800 C   0  0  0  0  0  2  0  0  0  0  0  0
  158.5330  211.6690  153.0360 C   0  0  0  0  0  3  0  0  0  0  0  0
  160.4600  211.7150  147.9110 C   0  0  2  0  0  3  0  0  0  0  0  0
  160.0820  212.4060  146.5990 C   0  0  0  0  0  2  0  0  0  0  0  0
  162.7060  209.9350  151.1850 C   0  0  0  0  0  2  0  0  0  0  0  0
  160.5380  210.7720  152.0150 C   0  0  0  0  0  0  0  0  0  0  0  0
  159.5090  210.6730  152.9570 C   0  0  0  0  0  3  0  0  0  0  0  0
  160.3250  207.1360  148.6680 O   0  0  0  0  0  0  0  0  0  0  0  0
  161.5770  207.2120  148.5310 C   0  0  0  0  0  0  0  0  0  0  0  0
  162.2470  208.4650  148.6750 N   0  0  0  0  0  2  0  0  0  0  0  0
  161.4360  203.8580  146.5010 C   0  0  0  0  0  0  0  0  0  0  0  0
  162.7040  205.9290  146.7570 C   0  0  0  0  0  3  0  0  0  0  0  0
  161.4860  204.5700  149.9410 O   0  0  0  0  0  0  0  0  0  0  0  0
  160.9380  202.8600  145.6200 N   0  0  0  0  0  1  0  0  0  0  0  0
  162.2560  204.9550  145.9630 C   0  0  0  0  0  3  0  0  0  0  0  0
  161.6690  204.7480  148.7080 C   0  0  0  0  0  0  0  0  0  0  0  0
  162.3790  205.9880  148.2280 C   0  0  2  0  0  3  0  0  0  0  0  0
  161.1880  203.7740  147.7740 N   0  0  0  0  0  0  0  0  0  0  0  0
  1  9  1  6  0  0  0
  1 14  1  0  0  0  0
  2  3  1  1  0  0  0
  3  7  2  0  0  0  0
  3 19  1  0  0  0  0
  4 11  1  0  0  0  0
  4 15  2  0  0  0  0
  5 14  1  6  0  0  0
  5  2  1  0  0  0  0
  6 17  1  0  0  0  0
  6  1  1  0  0  0  0
  7  4  1  0  0  0  0
  8 23  1  6  0  0  0
  8 13  1  0  0  0  0
 10 19  1  0  0  0  0
 12 16  1  0  0  0  0
 12  8  1  0  0  0  0
 13  2  1  0  0  0  0
 13 18  1  1  0  0  0
 16 17  1  6  0  0  0
 16  5  1  0  0  0  0
 18 10  1  0  0  0  0
 19 20  2  0  0  0  0
 20 15  1  0  0  0  0
 22 21  2  0  0  0  0
 22 23  1  0  0  0  0
 24 31  2  0  0  0  0
 25 30  1  0  0  0  0
 27 24  1  0  0  0  0
 28 24  1  0  0  0  0
 28 25  2  0  0  0  0
 29 26  2  0  0  0  0
 30 22  1  6  0  0  0
 30 29  1  0  0  0  0
 31 29  1  0  0  0  0
M  END
>  <MODEL>
3

>  <REMARK>
 VINA RESULT:      -4.4      2.660      7.613
  Name = 
  2 active torsions:
  status: ('A' for Active; 'I' for Inactive)
    1  A    between atoms: C_5  and  C_30
    2  A    between atoms: C_10  and  N_16
                            x       y       z     vdW  Elec       q    Type
                         _______ _______ _______ _____ _____    ______ ____

>  <TORSDO>
F 2

$$$$
=
 OpenBabel11122413293D

 31 35  0  0  1  0  0  0  0  0999 V2000
  161.0280  206.4360  150.6800 C   0  0  2  0  0  3  0  0  0  0  0  0
  160.0840  209.5120  152.8340 C   0  0  2  0  0  3  0  0  0  0  0  0
  160.6040  210.0160  154.1640 C   0  0  0  0  0  0  0  0  0  0  0  0
  161.6690  209.6140  156.3100 C   0  0  0  0  0  0  0  0  0  0  0  0
  160.9580  208.3960  152.2380 C   0  0  1  0  0  3  0  0  0  0  0  0
  162.2630  207.0140  149.9960 C   0  0  0  0  0  2  0  0  0  0  0  0
  161.2210  209.1440  155.0730 C   0  0  0  0  0  3  0  0  0  0  0  0
  161.1660  211.1850  151.2360 C   0  0  2  0  0  3  0  0  0  0  0  0
  160.2920  205.6940  149.7590 O   0  0  0  0  0  1  0  0  0  0  0  0
  159.7440  212.2400  153.6640 O   0  0  0  0  0  0  0  0  0  0  0  0
  162.3360  208.6850  157.2610 C   0  0  0  0  0  1  0  0  0  0  0  0
  161.9540  210.0490  150.5900 C   0  0  0  0  0  2  0  0  0  0  0  0
  159.8460  210.6550  151.8200 C   0  0  2  0  0  3  0  0  0  0  0  0
  160.1600  207.5610  151.2340 C   0  0  0  0  0  2  0  0  0  0  0  0
  161.4900  210.9560  156.6550 C   0  0  0  0  0  3  0  0  0  0  0  0
  162.2520  208.9560  151.6150 C   0  0  2  0  0  3  0  0  0  0  0  0
  163.0850  207.8350  150.9900 C   0  0  0  0  0  2  0  0  0  0  0  0
  159.0580  211.7760  152.5000 C   0  0  0  0  0  2  0  0  0  0  0  0
  160.3940  211.3600  154.5330 C   0  0  0  0  0  0  0  0  0  0  0  0
  160.8520  211.8270  155.7690 C   0  0  0  0  0  3  0  0  0  0  0  0
  161.9660  211.0840  148.4980 O   0  0  0  0  0  0  0  0  0  0  0  0
  161.3150  212.0950  148.8820 C   0  0  0  0  0  0  0  0  0  0  0  0
  160.8950  212.2130  150.2410 N   0  0  0  0  0  2  0  0  0  0  0  0
  161.4610  212.9920  145.0650 C   0  0  0  0  0  0  0  0  0  0  0  0
  159.9280  212.7270  146.9480 C   0  0  0  0  0  3  0  0  0  0  0  0
  163.1270  214.2640  147.8850 O   0  0  0  0  0  0  0  0  0  0  0  0
  161.6840  212.8290  143.6710 N   0  0  0  0  0  1  0  0  0  0  0  0
  160.1560  212.6240  145.6380 C   0  0  0  0  0  3  0  0  0  0  0  0
  162.2270  213.6850  147.2220 C   0  0  0  0  0  0  0  0  0  0  0  0
  160.9850  213.1900  147.9190 C   0  0  2  0  0  3  0  0  0  0  0  0
  162.3980  213.4930  145.8130 N   0  0  0  0  0  0  0  0  0  0  0  0
  1  9  1  6  0  0  0
  1 14  1  0  0  0  0
  2  3  1  1  0  0  0
  3 19  2  0  0  0  0
  3  7  1  0  0  0  0
  4 15  1  0  0  0  0
  4 11  1  0  0  0  0
  5 14  1  6  0  0  0
  5  2  1  0  0  0  0
  6  1  1  0  0  0  0
  6 17  1  0  0  0  0
  7  4  2  0  0  0  0
  8 23  1  6  0  0  0
  8 13  1  0  0  0  0
 10 19  1  0  0  0  0
 12  8  1  0  0  0  0
 13 18  1  1  0  0  0
 13  2  1  0  0  0  0
 16 12  1  6  0  0  0
 16  5  1  0  0  0  0
 17 16  1  0  0  0  0
 18 10  1  0  0  0  0
 19 20  1  0  0  0  0
 20 15  2  0  0  0  0
 21 22  2  0  0  0  0
 22 23  1  0  0  0  0
 24 28  1  0  0  0  0
 24 31  2  0  0  0  0
 25 30  1  0  0  0  0
 27 24  1  0  0  0  0
 28 25  2  0  0  0  0
 29 26  2  0  0  0  0
 29 30  1  0  0  0  0
 30 22  1  1  0  0  0
 31 29  1  0  0  0  0
M  END
>  <MODEL>
4

>  <REMARK>
 VINA RESULT:      -3.4      3.506      5.763
  Name = 
  2 active torsions:
  status: ('A' for Active; 'I' for Inactive)
    1  A    between atoms: C_5  and  C_30
    2  A    between atoms: C_10  and  N_16
                            x       y       z     vdW  Elec       q    Type
                         _______ _______ _______ _____ _____    ______ ____

>  <TORSDO>
F 2

$$$$
