=
 OpenBabel11122412483D

 32 37  0  0  1  0  0  0  0  0999 V2000
  161.8330  201.4170  148.9710 C   0  0  0  0  0  3  0  0  0  0  0  0
  160.9500  206.1050  151.4920 C   0  0  1  0  0  3  0  0  0  0  0  0
  162.3090  209.6830  148.3710 C   0  0  0  0  0  3  0  0  0  0  0  0
  162.1060  210.6520  149.3520 C   0  0  0  0  0  3  0  0  0  0  0  0
  160.9590  206.6340  154.0320 C   0  0  0  0  0  0  0  0  0  0  0  0
  161.0590  207.6840  155.0470 C   0  0  0  0  0  0  0  0  0  0  0  0
  160.5510  203.7930  150.6130 C   0  0  1  0  0  3  0  0  0  0  0  0
  161.0600  205.6980  149.0250 C   0  0  0  0  0  2  0  0  0  0  0  0
  161.4860  209.6350  155.8960 C   0  0  0  0  0  0  0  0  0  0  0  0
  160.6040  203.4510  148.0500 C   0  0  0  0  0  2  0  0  0  0  0  0
  162.1460  208.3660  148.6690 N   0  0  0  0  0  0  0  0  0  0  0  0
  161.6890  206.4610  150.1900 C   0  0  1  0  0  3  0  0  0  0  0  0
  161.7750  207.9440  149.9120 C   0  0  0  0  0  0  0  0  0  0  0  0
  161.1400  208.4690  152.3100 C   0  0  2  0  0  3  0  0  0  0  0  0
  161.1920  208.7790  156.9030 N   0  0  0  0  0  0  0  0  0  0  0  0
  161.8080  201.5930  150.2970 C   0  0  0  0  0  3  0  0  0  0  0  0
  161.1860  204.1950  149.2590 C   0  0  2  0  0  3  0  0  0  0  0  0
  160.9350  207.5800  156.3830 N   0  0  0  0  0  2  0  0  0  0  0  0
  160.6580  202.2990  150.9650 C   0  0  0  0  0  2  0  0  0  0  0  0
  160.7090  201.9190  148.1000 C   0  0  1  0  0  3  0  0  0  0  0  0
  161.7490  210.2510  150.6380 C   0  0  0  0  0  3  0  0  0  0  0  0
  161.6100  208.8920  150.9440 C   0  0  0  0  0  0  0  0  0  0  0  0
  161.6010  209.3800  153.3680 N   0  0  0  0  0  2  0  0  0  0  0  0
  161.1620  204.6130  151.7490 C   0  0  0  0  0  2  0  0  0  0  0  0
  160.5540  205.4820  154.3400 O   0  0  0  0  0  0  0  0  0  0  0  0
  161.8270  211.0710  156.0790 C   0  0  0  0  0  1  0  0  0  0  0  0
  161.4680  206.9850  152.6360 C   0  0  2  0  0  3  0  0  0  0  0  0
  161.3990  208.9530  154.7140 C   0  0  0  0  0  0  0  0  0  0  0  0
  160.8430  201.3790  146.6850 C   0  0  0  0  0  2  0  0  0  0  0  0
  160.8620  202.4920  145.6930 C   0  0  0  0  0  0  0  0  0  0  0  0
  161.9290  203.3800  145.6650 O   0  0  0  0  0  1  0  0  0  0  0  0
  159.9260  202.6100  144.8600 O   0  0  0  0  0  0  0  0  0  0  0  0
  1 16  2  0  0  0  0
  2 24  1  1  0  0  0
  2 27  1  0  0  0  0
  3 11  2  0  0  0  0
  3  4  1  0  0  0  0
  4 21  2  0  0  0  0
  5 25  2  0  0  0  0
  5  6  1  0  0  0  0
  6 18  1  0  0  0  0
  7 19  1  1  0  0  0
  7 24  1  0  0  0  0
  8 17  1  0  0  0  0
  9 26  1  0  0  0  0
  9 15  2  0  0  0  0
 10 20  1  0  0  0  0
 11 13  1  0  0  0  0
 12  8  1  6  0  0  0
 12  2  1  0  0  0  0
 13 12  1  0  0  0  0
 13 22  2  0  0  0  0
 14 22  1  6  0  0  0
 14 27  1  0  0  0  0
 14 23  1  0  0  0  0
 16 19  1  0  0  0  0
 17 10  1  6  0  0  0
 17  7  1  0  0  0  0
 18 15  1  0  0  0  0
 20 29  1  6  0  0  0
 20  1  1  0  0  0  0
 21 22  1  0  0  0  0
 23 28  1  0  0  0  0
 27  5  1  1  0  0  0
 28  6  2  0  0  0  0
 28  9  1  0  0  0  0
 30 29  1  0  0  0  0
 31 30  1  0  0  0  0
 32 30  2  0  0  0  0
M  END
>  <MODEL>
1

>  <REMARK>
 VINA RESULT:     -10.0      0.000      0.000
  Name = 
  2 active torsions:
  status: ('A' for Active; 'I' for Inactive)
    1  A    between atoms: C_20  and  C_29
    2  A    between atoms: C_29  and  C_30
                            x       y       z     vdW  Elec       q    Type
                         _______ _______ _______ _____ _____    ______ ____

>  <TORSDO>
F 2

$$$$
=
 OpenBabel11122412483D

 32 37  0  0  1  0  0  0  0  0999 V2000
  159.7090  209.1490  156.6000 C   0  0  0  0  0  3  0  0  0  0  0  0
  161.3650  206.4010  152.2630 C   0  0  1  0  0  3  0  0  0  0  0  0
  162.1080  209.7090  148.6730 C   0  0  0  0  0  3  0  0  0  0  0  0
  162.3470  208.6920  147.7500 C   0  0  0  0  0  3  0  0  0  0  0  0
  160.8600  203.9490  151.5760 C   0  0  0  0  0  0  0  0  0  0  0  0
  160.8420  202.9810  150.4780 C   0  0  0  0  0  0  0  0  0  0  0  0
  161.2110  207.1780  154.6390 C   0  0  1  0  0  3  0  0  0  0  0  0
  161.7820  208.8110  152.7900 C   0  0  0  0  0  2  0  0  0  0  0  0
  160.8620  202.2460  148.4370 C   0  0  0  0  0  0  0  0  0  0  0  0
  161.7260  209.6640  155.1300 C   0  0  0  0  0  2  0  0  0  0  0  0
  161.7510  209.4010  149.9490 N   0  0  0  0  0  0  0  0  0  0  0  0
  161.1510  207.8480  151.7850 C   0  0  1  0  0  3  0  0  0  0  0  0
  161.6250  208.1120  150.3750 C   0  0  0  0  0  0  0  0  0  0  0  0
  161.7420  205.6230  149.9070 C   0  0  2  0  0  3  0  0  0  0  0  0
  160.5870  201.2120  149.2670 N   0  0  0  0  0  0  0  0  0  0  0  0
  159.4390  207.8630  156.3460 C   0  0  0  0  0  3  0  0  0  0  0  0
  161.1200  208.6470  154.1550 C   0  0  2  0  0  3  0  0  0  0  0  0
  160.5700  201.6640  150.5200 N   0  0  0  0  0  2  0  0  0  0  0  0
  160.5380  206.8950  155.9930 C   0  0  0  0  0  2  0  0  0  0  0  0
  161.1220  209.6720  156.5430 C   0  0  1  0  0  3  0  0  0  0  0  0
  162.2040  207.3650  148.1490 C   0  0  0  0  0  3  0  0  0  0  0  0
  161.8110  207.0570  149.4570 C   0  0  0  0  0  0  0  0  0  0  0  0
  161.3390  204.7140  148.8230 N   0  0  0  0  0  2  0  0  0  0  0  0
  160.6220  206.2370  153.5890 C   0  0  0  0  0  2  0  0  0  0  0  0
  160.7750  203.5630  152.7720 O   0  0  0  0  0  0  0  0  0  0  0  0
  160.9680  202.1370  146.9580 C   0  0  0  0  0  1  0  0  0  0  0  0
  160.8780  205.4250  151.1840 C   0  0  2  0  0  3  0  0  0  0  0  0
  161.0310  203.3720  149.1950 C   0  0  0  0  0  0  0  0  0  0  0  0
  161.1970  211.0790  157.1120 C   0  0  0  0  0  2  0  0  0  0  0  0
  160.1300  211.9440  156.5330 C   0  0  0  0  0  0  0  0  0  0  0  0
  158.9770  212.2060  157.2610 O   0  0  0  0  0  1  0  0  0  0  0  0
  160.2860  212.4630  155.3960 O   0  0  0  0  0  0  0  0  0  0  0  0
  2 24  1  1  0  0  0
  3 11  1  0  0  0  0
  4 21  1  0  0  0  0
  4  3  2  0  0  0  0
  5 25  2  0  0  0  0
  6 18  1  0  0  0  0
  6  5  1  0  0  0  0
  7 24  1  6  0  0  0
  7 19  1  0  0  0  0
  9 28  1  0  0  0  0
  9 15  2  0  0  0  0
 10 20  1  0  0  0  0
 11 13  2  0  0  0  0
 12  2  1  0  0  0  0
 12  8  1  1  0  0  0
 13 12  1  0  0  0  0
 14 23  1  6  0  0  0
 14 27  1  0  0  0  0
 15 18  1  0  0  0  0
 16  1  2  0  0  0  0
 17  8  1  6  0  0  0
 17  7  1  0  0  0  0
 17 10  1  0  0  0  0
 19 16  1  0  0  0  0
 20  1  1  0  0  0  0
 20 29  1  6  0  0  0
 21 22  2  0  0  0  0
 22 14  1  0  0  0  0
 22 13  1  0  0  0  0
 23 28  1  0  0  0  0
 26  9  1  0  0  0  0
 27  5  1  1  0  0  0
 27  2  1  0  0  0  0
 28  6  2  0  0  0  0
 30 29  1  0  0  0  0
 30 31  1  0  0  0  0
 32 30  2  0  0  0  0
M  END
>  <MODEL>
2

>  <REMARK>
 VINA RESULT:      -9.4      2.874      8.092
  Name = 
  2 active torsions:
  status: ('A' for Active; 'I' for Inactive)
    1  A    between atoms: C_20  and  C_29
    2  A    between atoms: C_29  and  C_30
                            x       y       z     vdW  Elec       q    Type
                         _______ _______ _______ _____ _____    ______ ____

>  <TORSDO>
F 2

$$$$
=
 OpenBabel11122412483D

 32 37  0  0  1  0  0  0  0  0999 V2000
  161.8980  202.2290  148.0170 C   0  0  0  0  0  3  0  0  0  0  0  0
  160.9170  206.4900  151.1770 C   0  0  1  0  0  3  0  0  0  0  0  0
  162.2530  210.5000  148.6240 C   0  0  0  0  0  3  0  0  0  0  0  0
  162.0250  211.3140  149.7330 C   0  0  0  0  0  3  0  0  0  0  0  0
  160.8900  206.6470  153.7680 C   0  0  0  0  0  0  0  0  0  0  0  0
  160.9640  207.5400  154.9250 C   0  0  0  0  0  0  0  0  0  0  0  0
  160.5630  204.3250  149.9680 C   0  0  1  0  0  3  0  0  0  0  0  0
  161.0590  206.4470  148.6790 C   0  0  0  0  0  2  0  0  0  0  0  0
  161.3510  209.3530  156.0520 C   0  0  0  0  0  0  0  0  0  0  0  0
  160.6480  204.3580  147.3850 C   0  0  0  0  0  2  0  0  0  0  0  0
  162.1080  209.1520  148.7270 N   0  0  0  0  0  0  0  0  0  0  0  0
  161.6640  207.0410  149.9500 C   0  0  1  0  0  3  0  0  0  0  0  0
  161.7300  208.5500  149.8910 C   0  0  0  0  0  0  0  0  0  0  0  0
  161.0610  208.7140  152.3310 C   0  0  2  0  0  3  0  0  0  0  0  0
  161.0600  208.3560  156.9210 N   0  0  0  0  0  0  0  0  0  0  0  0
  161.8570  202.2110  149.3550 C   0  0  0  0  0  3  0  0  0  0  0  0
  161.2060  204.9270  148.6950 C   0  0  2  0  0  3  0  0  0  0  0  0
  160.8260  207.2420  156.2300 N   0  0  0  0  0  2  0  0  0  0  0  0
  160.6890  202.7980  150.1020 C   0  0  0  0  0  2  0  0  0  0  0  0
  160.7760  202.8360  147.2130 C   0  0  1  0  0  3  0  0  0  0  0  0
  161.6600  210.7270  150.9420 C   0  0  0  0  0  3  0  0  0  0  0  0
  161.5390  209.3360  151.0470 C   0  0  0  0  0  0  0  0  0  0  0  0
  161.4980  209.4680  153.5160 N   0  0  0  0  0  2  0  0  0  0  0  0
  161.1490  204.9800  151.2190 C   0  0  0  0  0  2  0  0  0  0  0  0
  160.5000  205.4570  153.9010 O   0  0  0  0  0  0  0  0  0  0  0  0
  161.6680  210.7520  156.4450 C   0  0  0  0  0  1  0  0  0  0  0  0
  161.4090  207.2030  152.4440 C   0  0  2  0  0  3  0  0  0  0  0  0
  161.2880  208.8480  154.7830 C   0  0  0  0  0  0  0  0  0  0  0  0
  160.9340  202.5090  145.7370 C   0  0  0  0  0  2  0  0  0  0  0  0
  160.4950  201.1130  145.4540 C   0  0  0  0  0  0  0  0  0  0  0  0
  159.6090  200.8610  144.4140 O   0  0  0  0  0  0  0  0  0  0  0  0
  160.9490  200.1580  146.1370 O   0  0  0  0  0  1  0  0  0  0  0  0
  1 16  2  0  0  0  0
  2 24  1  1  0  0  0
  2 27  1  0  0  0  0
  3 11  2  0  0  0  0
  3  4  1  0  0  0  0
  4 21  2  0  0  0  0
  5 25  2  0  0  0  0
  5  6  1  0  0  0  0
  6 18  1  0  0  0  0
  7 19  1  1  0  0  0
  7 24  1  0  0  0  0
  8 17  1  0  0  0  0
  9 26  1  0  0  0  0
  9 15  2  0  0  0  0
 11 13  1  0  0  0  0
 12  8  1  6  0  0  0
 12  2  1  0  0  0  0
 13 12  1  0  0  0  0
 13 22  2  0  0  0  0
 14 22  1  6  0  0  0
 14 27  1  0  0  0  0
 14 23  1  0  0  0  0
 16 19  1  0  0  0  0
 17 10  1  6  0  0  0
 17  7  1  0  0  0  0
 18 15  1  0  0  0  0
 20 29  1  6  0  0  0
 20 10  1  0  0  0  0
 20  1  1  0  0  0  0
 21 22  1  0  0  0  0
 23 28  1  0  0  0  0
 27  5  1  1  0  0  0
 28  6  2  0  0  0  0
 28  9  1  0  0  0  0
 30 29  1  0  0  0  0
 30 32  1  0  0  0  0
 31 30  2  0  0  0  0
M  END
>  <MODEL>
3

>  <REMARK>
 VINA RESULT:      -8.8      0.964      1.124
  Name = 
  2 active torsions:
  status: ('A' for Active; 'I' for Inactive)
    1  A    between atoms: C_20  and  C_29
    2  A    between atoms: C_29  and  C_30
                            x       y       z     vdW  Elec       q    Type
                         _______ _______ _______ _____ _____    ______ ____

>  <TORSDO>
F 2

$$$$
=
 OpenBabel11122412483D

 32 37  0  0  1  0  0  0  0  0999 V2000
  159.8050  208.2200  156.0780 C   0  0  0  0  0  3  0  0  0  0  0  0
  161.6500  207.3770  151.0790 C   0  0  1  0  0  3  0  0  0  0  0  0
  161.9270  211.7970  148.8940 C   0  0  0  0  0  3  0  0  0  0  0  0
  162.2560  211.2040  147.6770 C   0  0  0  0  0  3  0  0  0  0  0  0
  161.4070  205.2830  149.5660 C   0  0  0  0  0  0  0  0  0  0  0  0
  161.4690  204.7670  148.1980 C   0  0  0  0  0  0  0  0  0  0  0  0
  161.4690  207.2480  153.5740 C   0  0  1  0  0  3  0  0  0  0  0  0
  161.8070  209.4800  152.4260 C   0  0  0  0  0  2  0  0  0  0  0  0
  161.5210  204.8030  146.0280 C   0  0  0  0  0  0  0  0  0  0  0  0
  161.7150  209.4440  154.9160 C   0  0  0  0  0  2  0  0  0  0  0  0
  161.6390  211.0230  149.9740 N   0  0  0  0  0  0  0  0  0  0  0  0
  161.2630  208.8660  151.1370 C   0  0  1  0  0  3  0  0  0  0  0  0
  161.6690  209.6610  149.9180 C   0  0  0  0  0  0  0  0  0  0  0  0
  162.0530  207.5250  148.6060 C   0  0  2  0  0  3  0  0  0  0  0  0
  161.3850  203.5190  146.4380 N   0  0  0  0  0  0  0  0  0  0  0  0
  159.6760  207.0830  155.3840 C   0  0  0  0  0  3  0  0  0  0  0  0
  161.2020  208.7720  153.6360 C   0  0  2  0  0  3  0  0  0  0  0  0
  161.3480  203.4970  147.7690 N   0  0  0  0  0  2  0  0  0  0  0  0
  160.8670  206.4330  154.7310 C   0  0  0  0  0  2  0  0  0  0  0  0
  161.1490  208.8870  156.2310 C   0  0  1  0  0  3  0  0  0  0  0  0
  162.2730  209.8140  147.5810 C   0  0  0  0  0  3  0  0  0  0  0  0
  161.9490  209.0240  148.6900 C   0  0  0  0  0  0  0  0  0  0  0  0
  161.7270  207.0150  147.2660 N   0  0  0  0  0  2  0  0  0  0  0  0
  160.9640  206.6750  152.2500 C   0  0  0  0  0  2  0  0  0  0  0  0
  161.3950  204.4950  150.5470 O   0  0  0  0  0  0  0  0  0  0  0  0
  161.6020  205.2340  144.6070 C   0  0  0  0  0  1  0  0  0  0  0  0
  161.2490  206.7940  149.7170 C   0  0  2  0  0  3  0  0  0  0  0  0
  161.5810  205.6030  147.1360 C   0  0  0  0  0  0  0  0  0  0  0  0
  161.0800  210.0030  157.2610 C   0  0  0  0  0  2  0  0  0  0  0  0
  160.2290  211.1250  156.7710 C   0  0  0  0  0  0  0  0  0  0  0  0
  158.8500  211.0680  156.9210 O   0  0  0  0  0  1  0  0  0  0  0  0
  160.7610  212.1390  156.2470 O   0  0  0  0  0  0  0  0  0  0  0  0
  1 20  1  0  0  0  0
  2 12  1  0  0  0  0
  2 24  1  1  0  0  0
  3 11  1  0  0  0  0
  4  3  2  0  0  0  0
  5 25  2  0  0  0  0
  6  5  1  0  0  0  0
  7 24  1  6  0  0  0
  7 17  1  0  0  0  0
  7 19  1  0  0  0  0
  9 15  2  0  0  0  0
  9 28  1  0  0  0  0
 10 20  1  0  0  0  0
 12  8  1  1  0  0  0
 13 11  2  0  0  0  0
 13 12  1  0  0  0  0
 14 23  1  6  0  0  0
 14 22  1  0  0  0  0
 14 27  1  0  0  0  0
 15 18  1  0  0  0  0
 16  1  2  0  0  0  0
 17  8  1  6  0  0  0
 17 10  1  0  0  0  0
 18  6  1  0  0  0  0
 19 16  1  0  0  0  0
 20 29  1  1  0  0  0
 21  4  1  0  0  0  0
 21 22  2  0  0  0  0
 22 13  1  0  0  0  0
 26  9  1  0  0  0  0
 27  5  1  1  0  0  0
 27  2  1  0  0  0  0
 28 23  1  0  0  0  0
 28  6  2  0  0  0  0
 30 31  1  0  0  0  0
 30 29  1  0  0  0  0
 32 30  2  0  0  0  0
M  END
>  <MODEL>
4

>  <REMARK>
 VINA RESULT:      -7.2      3.046      8.049
  Name = 
  2 active torsions:
  status: ('A' for Active; 'I' for Inactive)
    1  A    between atoms: C_20  and  C_29
    2  A    between atoms: C_29  and  C_30
                            x       y       z     vdW  Elec       q    Type
                         _______ _______ _______ _____ _____    ______ ____

>  <TORSDO>
F 2

$$$$
