=
 OpenBabel11122413163D

 31 35  0  0  1  0  0  0  0  0999 V2000
  160.7320  207.6980  156.3360 C   0  0  0  0  0  0  0  0  0  0  0  0
  161.8760  208.7740  152.8680 C   0  0  2  0  0  3  0  0  0  0  0  0
  161.4930  207.6420  151.9210 C   0  0  0  0  0  0  0  0  0  0  0  0
  160.9800  205.2870  151.5710 C   0  0  0  0  0  0  0  0  0  0  0  0
  161.1160  208.7450  154.1760 C   0  0  0  0  0  0  0  0  0  0  0  0
  159.6870  208.5880  156.5880 C   0  0  0  0  0  3  0  0  0  0  0  0
  161.2510  206.3550  152.4270 C   0  0  0  0  0  3  0  0  0  0  0  0
  160.3420  210.6370  152.1260 C   0  0  2  0  0  3  0  0  0  0  0  0
  161.0540  206.7540  157.2520 F   0  0  0  0  0  0  0  0  0  0  0  0
  161.7510  209.1700  149.8940 C   0  0  0  0  0  2  0  0  0  0  0  0
  160.6630  203.6970  152.2300 Cl  0  0  0  0  0  0  0  0  0  0  0  0
  159.7660  210.8080  153.5300 C   0  0  0  0  0  2  0  0  0  0  0  0
  161.8000  210.1610  152.2060 C   0  0  2  0  0  3  0  0  0  0  0  0
  161.4440  207.7790  155.1370 C   0  0  0  0  0  3  0  0  0  0  0  0
  160.9670  205.4860  150.1900 C   0  0  0  0  0  3  0  0  0  0  0  0
  160.0620  209.6510  154.4390 C   0  0  0  0  0  0  0  0  0  0  0  0
  159.3610  209.5670  155.6470 C   0  0  0  0  0  3  0  0  0  0  0  0
  162.4800  210.1220  150.8370 C   0  0  0  0  0  2  0  0  0  0  0  0
  161.5160  207.8260  150.5170 C   0  0  0  0  0  0  0  0  0  0  0  0
  161.2330  206.7520  149.6670 C   0  0  0  0  0  3  0  0  0  0  0  0
  158.0390  212.3260  151.9880 O   0  0  0  0  0  0  0  0  0  0  0  0
  159.0770  212.7020  151.3810 C   0  0  0  0  0  0  0  0  0  0  0  0
  160.2630  211.9040  151.4130 N   0  0  0  0  0  2  0  0  0  0  0  0
  157.6410  213.1090  148.2100 C   0  0  0  0  0  0  0  0  0  0  0  0
  157.6020  214.4500  150.3400 C   0  0  0  0  0  2  0  0  0  0  0  0
  161.2170  213.4160  149.3970 C   0  0  0  0  0  1  0  0  0  0  0  0
  157.0580  212.6380  147.2000 O   0  0  0  0  0  0  0  0  0  0  0  0
  156.8330  213.5100  149.4080 C   0  0  0  0  0  2  0  0  0  0  0  0
  159.7940  213.9250  149.2500 C   0  0  2  0  0  3  0  0  0  0  0  0
  159.0370  213.9790  150.5860 C   0  0  2  0  0  3  0  0  0  0  0  0
  159.0710  213.1510  148.2450 N   0  0  0  0  0  2  0  0  0  0  0  0
  1  6  1  0  0  0  0
  1  9  1  0  0  0  0
  2  3  1  6  0  0  0
  2  5  1  0  0  0  0
  3  7  1  0  0  0  0
  4 11  1  0  0  0  0
  4  7  2  0  0  0  0
  5 16  2  0  0  0  0
  5 14  1  0  0  0  0
  8 23  1  1  0  0  0
  8 13  1  0  0  0  0
  8 12  1  0  0  0  0
 10 19  1  0  0  0  0
 10 18  1  0  0  0  0
 12 16  1  0  0  0  0
 13 18  1  6  0  0  0
 13  2  1  0  0  0  0
 14  1  2  0  0  0  0
 15  4  1  0  0  0  0
 16 17  1  0  0  0  0
 17  6  2  0  0  0  0
 19  3  2  0  0  0  0
 20 15  2  0  0  0  0
 20 19  1  0  0  0  0
 22 23  1  0  0  0  0
 22 21  2  0  0  0  0
 24 31  1  0  0  0  0
 24 28  1  0  0  0  0
 25 30  1  0  0  0  0
 27 24  2  0  0  0  0
 28 25  1  0  0  0  0
 29 26  1  1  0  0  0
 29 30  1  0  0  0  0
 30 22  1  6  0  0  0
 31 29  1  0  0  0  0
M  END
>  <MODEL>
1

>  <REMARK>
 VINA RESULT:      -7.8      0.000      0.000
  Name = 
  2 active torsions:
  status: ('A' for Active; 'I' for Inactive)
    1  A    between atoms: C_5  and  C_30
    2  A    between atoms: C_10  and  N_16
                            x       y       z     vdW  Elec       q    Type
                         _______ _______ _______ _____ _____    ______ ____

>  <TORSDO>
F 2

$$$$
=
 OpenBabel11122413163D

 31 35  0  0  1  0  0  0  0  0999 V2000
  160.9290  206.5960  146.6920 C   0  0  0  0  0  0  0  0  0  0  0  0
  160.3060  205.0770  150.1270 C   0  0  2  0  0  3  0  0  0  0  0  0
  160.7580  203.6230  150.0400 C   0  0  0  0  0  0  0  0  0  0  0  0
  161.2020  201.6450  148.6900 C   0  0  0  0  0  0  0  0  0  0  0  0
  160.8850  205.9510  149.0350 C   0  0  0  0  0  0  0  0  0  0  0  0
  161.9720  207.4860  146.9520 C   0  0  0  0  0  3  0  0  0  0  0  0
  160.8700  202.9970  148.7880 C   0  0  0  0  0  3  0  0  0  0  0  0
  162.0120  206.0750  151.6990 C   0  0  2  0  0  3  0  0  0  0  0  0
  160.4440  206.4670  145.4340 F   0  0  0  0  0  0  0  0  0  0  0  0
  160.8440  203.4340  152.5830 C   0  0  0  0  0  2  0  0  0  0  0  0
  161.3540  200.8940  147.1170 Cl  0  0  0  0  0  0  0  0  0  0  0  0
  162.4030  207.1540  150.6920 C   0  0  0  0  0  2  0  0  0  0  0  0
  160.5350  205.6930  151.5190 C   0  0  2  0  0  3  0  0  0  0  0  0
  160.3860  205.8350  147.7310 C   0  0  0  0  0  3  0  0  0  0  0  0
  161.4080  200.8910  149.8460 C   0  0  0  0  0  3  0  0  0  0  0  0
  161.9350  206.8610  149.2960 C   0  0  0  0  0  0  0  0  0  0  0  0
  162.4650  207.6250  148.2510 C   0  0  0  0  0  3  0  0  0  0  0  0
  160.0420  204.7320  152.6010 C   0  0  0  0  0  2  0  0  0  0  0  0
  160.9310  202.8410  151.2080 C   0  0  0  0  0  0  0  0  0  0  0  0
  161.2730  201.4890  151.0990 C   0  0  0  0  0  3  0  0  0  0  0  0
  160.5750  208.1980  152.9640 O   0  0  0  0  0  0  0  0  0  0  0  0
  161.4890  207.6370  153.6240 C   0  0  0  0  0  0  0  0  0  0  0  0
  162.2440  206.5670  153.0500 N   0  0  0  0  0  2  0  0  0  0  0  0
  159.3640  209.5360  155.6640 C   0  0  0  0  0  0  0  0  0  0  0  0
  160.8590  207.5490  156.0550 C   0  0  0  0  0  2  0  0  0  0  0  0
  162.7130  210.3390  154.1040 C   0  0  0  0  0  1  0  0  0  0  0  0
  158.2820  210.1480  155.8530 O   0  0  0  0  0  0  0  0  0  0  0  0
  159.4240  208.0550  155.8910 C   0  0  0  0  0  2  0  0  0  0  0  0
  161.8330  209.6680  155.1440 C   0  0  2  0  0  3  0  0  0  0  0  0
  161.8060  208.1380  155.0070 C   0  0  2  0  0  3  0  0  0  0  0  0
  160.4900  210.2400  155.1290 N   0  0  0  0  0  2  0  0  0  0  0  0
  1  6  2  0  0  0  0
  1 14  1  0  0  0  0
  2  5  1  6  0  0  0
  2 13  1  0  0  0  0
  3  2  1  0  0  0  0
  3 19  1  0  0  0  0
  4  7  1  0  0  0  0
  4 15  2  0  0  0  0
  5 16  1  0  0  0  0
  6 17  1  0  0  0  0
  7  3  2  0  0  0  0
  8 23  1  1  0  0  0
  9  1  1  0  0  0  0
 10 18  1  0  0  0  0
 11  4  1  0  0  0  0
 12  8  1  0  0  0  0
 13  8  1  0  0  0  0
 13 18  1  1  0  0  0
 14  5  2  0  0  0  0
 15 20  1  0  0  0  0
 16 12  1  0  0  0  0
 17 16  2  0  0  0  0
 19 10  1  0  0  0  0
 20 19  2  0  0  0  0
 21 22  2  0  0  0  0
 23 22  1  0  0  0  0
 24 27  2  0  0  0  0
 24 28  1  0  0  0  0
 28 25  1  0  0  0  0
 29 26  1  6  0  0  0
 30 22  1  6  0  0  0
 30 29  1  0  0  0  0
 30 25  1  0  0  0  0
 31 29  1  0  0  0  0
 31 24  1  0  0  0  0
M  END
>  <MODEL>
2

>  <REMARK>
 VINA RESULT:      -7.5      4.735      6.997
  Name = 
  2 active torsions:
  status: ('A' for Active; 'I' for Inactive)
    1  A    between atoms: C_5  and  C_30
    2  A    between atoms: C_10  and  N_16
                            x       y       z     vdW  Elec       q    Type
                         _______ _______ _______ _____ _____    ______ ____

>  <TORSDO>
F 2

$$$$
=
 OpenBabel11122413163D

 31 35  0  0  1  0  0  0  0  0999 V2000
  160.9790  204.6020  144.9310 C   0  0  0  0  0  0  0  0  0  0  0  0
  160.5020  205.0700  148.6780 C   0  0  2  0  0  3  0  0  0  0  0  0
  160.9300  203.7590  149.3310 C   0  0  0  0  0  0  0  0  0  0  0  0
  161.2810  201.3550  149.1660 C   0  0  0  0  0  0  0  0  0  0  0  0
  161.0390  205.2440  147.2740 C   0  0  0  0  0  0  0  0  0  0  0  0
  162.0460  205.4620  144.6630 C   0  0  0  0  0  3  0  0  0  0  0  0
  160.9720  202.5790  148.5710 C   0  0  0  0  0  3  0  0  0  0  0  0
  162.2950  206.6670  149.4600 C   0  0  2  0  0  3  0  0  0  0  0  0
  160.4330  203.8680  143.9330 F   0  0  0  0  0  0  0  0  0  0  0  0
  161.1350  204.8900  151.6090 C   0  0  0  0  0  2  0  0  0  0  0  0
  161.3460  199.9020  148.1930 Cl  0  0  0  0  0  0  0  0  0  0  0  0
  162.6530  207.0670  148.0310 C   0  0  0  0  0  2  0  0  0  0  0  0
  160.8060  206.3010  149.5510 C   0  0  2  0  0  3  0  0  0  0  0  0
  160.4770  204.4970  146.2300 C   0  0  0  0  0  3  0  0  0  0  0  0
  161.5310  201.2880  150.5370 C   0  0  0  0  0  3  0  0  0  0  0  0
  162.1140  206.1210  146.9970 C   0  0  0  0  0  0  0  0  0  0  0  0
  162.6030  206.2250  145.6910 C   0  0  0  0  0  3  0  0  0  0  0  0
  160.3530  206.0440  150.9890 C   0  0  0  0  0  2  0  0  0  0  0  0
  161.1470  203.6760  150.7280 C   0  0  0  0  0  0  0  0  0  0  0  0
  161.4650  202.4460  151.3130 C   0  0  0  0  0  3  0  0  0  0  0  0
  161.2790  209.3290  149.2290 O   0  0  0  0  0  0  0  0  0  0  0  0
  162.0580  209.0830  150.1880 C   0  0  0  0  0  0  0  0  0  0  0  0
  162.5990  207.7700  150.3610 N   0  0  0  0  0  2  0  0  0  0  0  0
  159.9010  210.8070  152.3460 C   0  0  0  0  0  0  0  0  0  0  0  0
  162.2060  209.8210  152.5850 C   0  0  0  0  0  2  0  0  0  0  0  0
  161.9230  211.9710  149.3720 C   0  0  0  0  0  1  0  0  0  0  0  0
  158.7510  211.0270  152.8030 O   0  0  0  0  0  0  0  0  0  0  0  0
  160.7160  209.6820  152.9120 C   0  0  0  0  0  2  0  0  0  0  0  0
  161.7760  211.5460  150.8220 C   0  0  2  0  0  3  0  0  0  0  0  0
  162.4460  210.1970  151.1210 C   0  0  2  0  0  3  0  0  0  0  0  0
  160.3720  211.5570  151.2220 N   0  0  0  0  0  2  0  0  0  0  0  0
  1 14  1  0  0  0  0
  2  5  1  6  0  0  0
  2  3  1  0  0  0  0
  2 13  1  0  0  0  0
  3 19  1  0  0  0  0
  4 15  2  0  0  0  0
  6  1  2  0  0  0  0
  6 17  1  0  0  0  0
  7  4  1  0  0  0  0
  7  3  2  0  0  0  0
  8 13  1  0  0  0  0
  8 23  1  1  0  0  0
  9  1  1  0  0  0  0
 11  4  1  0  0  0  0
 12  8  1  0  0  0  0
 13 18  1  1  0  0  0
 14  5  2  0  0  0  0
 15 20  1  0  0  0  0
 16  5  1  0  0  0  0
 16 12  1  0  0  0  0
 17 16  2  0  0  0  0
 18 10  1  0  0  0  0
 19 20  2  0  0  0  0
 19 10  1  0  0  0  0
 21 22  2  0  0  0  0
 22 23  1  0  0  0  0
 24 27  2  0  0  0  0
 24 28  1  0  0  0  0
 25 28  1  0  0  0  0
 29 26  1  6  0  0  0
 29 30  1  0  0  0  0
 29 31  1  0  0  0  0
 30 22  1  6  0  0  0
 30 25  1  0  0  0  0
 31 24  1  0  0  0  0
M  END
>  <MODEL>
3

>  <REMARK>
 VINA RESULT:      -7.3      3.840      6.834
  Name = 
  2 active torsions:
  status: ('A' for Active; 'I' for Inactive)
    1  A    between atoms: C_5  and  C_30
    2  A    between atoms: C_10  and  N_16
                            x       y       z     vdW  Elec       q    Type
                         _______ _______ _______ _____ _____    ______ ____

>  <TORSDO>
F 2

$$$$
=
 OpenBabel11122413163D

 31 35  0  0  1  0  0  0  0  0999 V2000
  161.1370  203.9230  145.5550 C   0  0  0  0  0  0  0  0  0  0  0  0
  160.5200  205.7680  148.8270 C   0  0  2  0  0  3  0  0  0  0  0  0
  160.8950  204.7980  149.9420 C   0  0  0  0  0  0  0  0  0  0  0  0
  161.2040  202.5060  150.7090 C   0  0  0  0  0  0  0  0  0  0  0  0
  161.1160  205.3990  147.4860 C   0  0  0  0  0  0  0  0  0  0  0  0
  162.2300  204.6160  145.0310 C   0  0  0  0  0  3  0  0  0  0  0  0
  160.9440  203.4180  149.6850 C   0  0  0  0  0  3  0  0  0  0  0  0
  162.3110  207.5350  149.0310 C   0  0  2  0  0  3  0  0  0  0  0  0
  160.6170  202.8690  144.8820 F   0  0  0  0  0  0  0  0  0  0  0  0
  161.0310  206.7010  151.6350 C   0  0  0  0  0  2  0  0  0  0  0  0
  161.2790  200.7940  150.3560 Cl  0  0  0  0  0  0  0  0  0  0  0  0
  162.7330  207.3670  147.5730 C   0  0  0  0  0  2  0  0  0  0  0  0
  160.8130  207.2350  149.1860 C   0  0  2  0  0  3  0  0  0  0  0  0
  160.5810  204.3160  146.7740 C   0  0  0  0  0  3  0  0  0  0  0  0
  161.3980  202.9600  152.0140 C   0  0  0  0  0  3  0  0  0  0  0  0
  162.2180  206.1040  146.9480 C   0  0  0  0  0  0  0  0  0  0  0  0
  162.7610  205.7070  145.7210 C   0  0  0  0  0  3  0  0  0  0  0  0
  160.2970  207.5400  150.5930 C   0  0  0  0  0  2  0  0  0  0  0  0
  161.0540  205.2450  151.2760 C   0  0  0  0  0  0  0  0  0  0  0  0
  161.3240  204.3250  152.2940 C   0  0  0  0  0  3  0  0  0  0  0  0
  161.2990  209.9170  147.8160 O   0  0  0  0  0  0  0  0  0  0  0  0
  162.0620  210.0480  148.8090 C   0  0  0  0  0  0  0  0  0  0  0  0
  162.6000  208.8950  149.4640 N   0  0  0  0  0  2  0  0  0  0  0  0
  160.7090  213.0510  147.6130 C   0  0  0  0  0  0  0  0  0  0  0  0
  161.2480  212.1580  149.9040 C   0  0  0  0  0  2  0  0  0  0  0  0
  164.2180  211.6520  147.4650 C   0  0  0  0  0  1  0  0  0  0  0  0
  159.9490  213.6780  146.8320 O   0  0  0  0  0  0  0  0  0  0  0  0
  160.1530  212.4820  148.8840 C   0  0  0  0  0  2  0  0  0  0  0  0
  163.0590  212.3200  148.1830 C   0  0  2  0  0  3  0  0  0  0  0  0
  162.4360  211.4300  149.2690 C   0  0  2  0  0  3  0  0  0  0  0  0
  162.0620  212.7920  147.2260 N   0  0  0  0  0  2  0  0  0  0  0  0
  1 14  1  0  0  0  0
  2  5  1  6  0  0  0
  2 13  1  0  0  0  0
  2  3  1  0  0  0  0
  3 19  1  0  0  0  0
  4 15  2  0  0  0  0
  6  1  2  0  0  0  0
  6 17  1  0  0  0  0
  7  3  2  0  0  0  0
  7  4  1  0  0  0  0
  8 13  1  0  0  0  0
  8 23  1  6  0  0  0
  9  1  1  0  0  0  0
 11  4  1  0  0  0  0
 12  8  1  0  0  0  0
 13 18  1  1  0  0  0
 14  5  2  0  0  0  0
 15 20  1  0  0  0  0
 16  5  1  0  0  0  0
 16 12  1  0  0  0  0
 17 16  2  0  0  0  0
 18 10  1  0  0  0  0
 19 10  1  0  0  0  0
 19 20  2  0  0  0  0
 21 22  2  0  0  0  0
 22 23  1  0  0  0  0
 24 28  1  0  0  0  0
 27 24  2  0  0  0  0
 28 25  1  0  0  0  0
 29 26  1  6  0  0  0
 29 30  1  0  0  0  0
 30 22  1  6  0  0  0
 30 25  1  0  0  0  0
 31 24  1  0  0  0  0
 31 29  1  0  0  0  0
M  END
>  <MODEL>
4

>  <REMARK>
 VINA RESULT:      -6.8      3.913      6.229
  Name = 
  2 active torsions:
  status: ('A' for Active; 'I' for Inactive)
    1  A    between atoms: C_5  and  C_30
    2  A    between atoms: C_10  and  N_16
                            x       y       z     vdW  Elec       q    Type
                         _______ _______ _______ _____ _____    ______ ____

>  <TORSDO>
F 2

$$$$
=
 OpenBabel11122413163D

 31 35  0  0  1  0  0  0  0  0999 V2000
  161.9830  206.5970  147.4320 C   0  0  0  0  0  0  0  0  0  0  0  0
  162.3400  209.2610  150.1270 C   0  0  2  0  0  3  0  0  0  0  0  0
  161.6780  210.5190  149.5760 C   0  0  0  0  0  0  0  0  0  0  0  0
  160.9580  211.8390  147.6600 C   0  0  0  0  0  0  0  0  0  0  0  0
  161.9080  207.9950  149.4180 C   0  0  0  0  0  0  0  0  0  0  0  0
  161.0810  205.7070  148.0180 C   0  0  0  0  0  3  0  0  0  0  0  0
  161.4870  210.6620  148.1920 C   0  0  0  0  0  3  0  0  0  0  0  0
  160.7870  208.6210  152.0130 C   0  0  2  0  0  3  0  0  0  0  0  0
  162.4550  206.3600  146.1850 F   0  0  0  0  0  0  0  0  0  0  0  0
  161.5410  211.5430  151.9090 C   0  0  0  0  0  2  0  0  0  0  0  0
  160.7120  211.9830  145.9330 Cl  0  0  0  0  0  0  0  0  0  0  0  0
  160.5690  207.2200  151.4430 C   0  0  0  0  0  2  0  0  0  0  0  0
  162.1920  209.1260  151.6530 C   0  0  2  0  0  3  0  0  0  0  0  0
  162.3960  207.7330  148.1310 C   0  0  0  0  0  3  0  0  0  0  0  0
  160.6320  212.9020  148.5030 C   0  0  0  0  0  3  0  0  0  0  0  0
  161.0020  207.0870  150.0120 C   0  0  0  0  0  0  0  0  0  0  0  0
  160.6020  205.9470  149.3070 C   0  0  0  0  0  3  0  0  0  0  0  0
  162.5270  210.4560  152.3290 C   0  0  0  0  0  2  0  0  0  0  0  0
  161.3810  211.6170  150.4200 C   0  0  0  0  0  0  0  0  0  0  0  0
  160.8420  212.7890  149.8770 C   0  0  0  0  0  3  0  0  0  0  0  0
  159.1680  210.4160  153.5390 O   0  0  0  0  0  0  0  0  0  0  0  0
  159.7930  209.5180  154.1640 C   0  0  0  0  0  0  0  0  0  0  0  0
  160.6180  208.5870  153.4590 N   0  0  0  0  0  2  0  0  0  0  0  0
  162.3480  210.3260  156.4220 C   0  0  0  0  0  0  0  0  0  0  0  0
  159.8880  210.8490  156.2930 C   0  0  0  0  0  2  0  0  0  0  0  0
  160.5530  207.0710  155.7330 C   0  0  0  0  0  1  0  0  0  0  0  0
  163.5320  210.6760  156.6610 O   0  0  0  0  0  0  0  0  0  0  0  0
  161.3160  211.3720  156.1180 C   0  0  0  0  0  2  0  0  0  0  0  0
  160.6450  208.4630  156.3340 C   0  0  2  0  0  3  0  0  0  0  0  0
  159.6950  209.4670  155.6640 C   0  0  2  0  0  3  0  0  0  0  0  0
  162.0260  208.9340  156.3330 N   0  0  0  0  0  2  0  0  0  0  0  0
  1  6  2  0  0  0  0
  1 14  1  0  0  0  0
  2  5  1  6  0  0  0
  2 13  1  0  0  0  0
  3  2  1  0  0  0  0
  3 19  1  0  0  0  0
  4  7  1  0  0  0  0
  4 15  2  0  0  0  0
  5 16  1  0  0  0  0
  6 17  1  0  0  0  0
  7  3  2  0  0  0  0
  8 23  1  1  0  0  0
  9  1  1  0  0  0  0
 10 18  1  0  0  0  0
 11  4  1  0  0  0  0
 12  8  1  0  0  0  0
 13  8  1  0  0  0  0
 13 18  1  1  0  0  0
 14  5  2  0  0  0  0
 15 20  1  0  0  0  0
 16 12  1  0  0  0  0
 17 16  2  0  0  0  0
 19 10  1  0  0  0  0
 20 19  2  0  0  0  0
 21 22  2  0  0  0  0
 23 22  1  0  0  0  0
 24 27  2  0  0  0  0
 28 25  1  0  0  0  0
 28 24  1  0  0  0  0
 29 26  1  6  0  0  0
 30 22  1  6  0  0  0
 30 25  1  0  0  0  0
 30 29  1  0  0  0  0
 31 29  1  0  0  0  0
 31 24  1  0  0  0  0
M  END
>  <MODEL>
5

>  <REMARK>
 VINA RESULT:      -5.9      3.731      6.985
  Name = 
  2 active torsions:
  status: ('A' for Active; 'I' for Inactive)
    1  A    between atoms: C_5  and  C_30
    2  A    between atoms: C_10  and  N_16
                            x       y       z     vdW  Elec       q    Type
                         _______ _______ _______ _____ _____    ______ ____

>  <TORSDO>
F 2

$$$$
=
 OpenBabel11122413163D

 31 35  0  0  1  0  0  0  0  0999 V2000
  161.9920  213.0770  147.8880 C   0  0  0  0  0  0  0  0  0  0  0  0
  159.6390  213.9910  150.7370 C   0  0  2  0  0  3  0  0  0  0  0  0
  158.2340  214.0060  150.1430 C   0  0  0  0  0  0  0  0  0  0  0  0
  156.7840  214.2410  148.2000 C   0  0  0  0  0  0  0  0  0  0  0  0
  160.6360  213.2190  149.8990 C   0  0  0  0  0  0  0  0  0  0  0  0
  162.4220  211.8020  148.2620 C   0  0  0  0  0  3  0  0  0  0  0  0
  158.0600  214.1420  148.7560 C   0  0  0  0  0  3  0  0  0  0  0  0
  159.5430  212.0000  152.2870 C   0  0  2  0  0  3  0  0  0  0  0  0
  162.4320  213.6290  146.7320 F   0  0  0  0  0  0  0  0  0  0  0  0
  157.1860  213.8780  152.4650 C   0  0  0  0  0  2  0  0  0  0  0  0
  156.5950  214.3890  146.4670 Cl  0  0  0  0  0  0  0  0  0  0  0  0
  160.7470  211.3400  151.6170 C   0  0  0  0  0  2  0  0  0  0  0  0
  159.6640  213.5280  152.2040 C   0  0  2  0  0  3  0  0  0  0  0  0
  161.1060  213.7820  148.7050 C   0  0  0  0  0  3  0  0  0  0  0  0
  155.6600  214.2280  149.0260 C   0  0  0  0  0  3  0  0  0  0  0  0
  161.0800  211.9310  150.2790 C   0  0  0  0  0  0  0  0  0  0  0  0
  161.9750  211.2380  149.4580 C   0  0  0  0  0  3  0  0  0  0  0  0
  158.5690  214.2460  152.9950 C   0  0  0  0  0  2  0  0  0  0  0  0
  157.0890  214.0320  150.9770 C   0  0  0  0  0  0  0  0  0  0  0  0
  155.8140  214.1220  150.4090 C   0  0  0  0  0  3  0  0  0  0  0  0
  160.2240  209.4020  153.2680 O   0  0  0  0  0  0  0  0  0  0  0  0
  159.8230  210.2550  154.1030 C   0  0  0  0  0  0  0  0  0  0  0  0
  159.4690  211.5740  153.6770 N   0  0  0  0  0  2  0  0  0  0  0  0
  162.3160  210.4660  156.5570 C   0  0  0  0  0  0  0  0  0  0  0  0
  159.8670  211.0470  156.4870 C   0  0  0  0  0  2  0  0  0  0  0  0
  160.5100  207.4950  155.0740 C   0  0  0  0  0  1  0  0  0  0  0  0
  163.4960  210.7300  156.9040 O   0  0  0  0  0  0  0  0  0  0  0  0
  161.3050  211.5720  156.4790 C   0  0  0  0  0  2  0  0  0  0  0  0
  160.5970  208.7050  155.9870 C   0  0  2  0  0  3  0  0  0  0  0  0
  159.6790  209.8550  155.5460 C   0  0  2  0  0  3  0  0  0  0  0  0
  161.9830  209.1400  156.1350 N   0  0  0  0  0  2  0  0  0  0  0  0
  1  6  2  0  0  0  0
  1 14  1  0  0  0  0
  2  5  1  6  0  0  0
  2 13  1  0  0  0  0
  3  2  1  0  0  0  0
  3 19  1  0  0  0  0
  4  7  1  0  0  0  0
  4 15  2  0  0  0  0
  5 16  1  0  0  0  0
  6 17  1  0  0  0  0
  7  3  2  0  0  0  0
  8 23  1  1  0  0  0
  9  1  1  0  0  0  0
 10 18  1  0  0  0  0
 11  4  1  0  0  0  0
 12  8  1  0  0  0  0
 13  8  1  0  0  0  0
 13 18  1  1  0  0  0
 14  5  2  0  0  0  0
 15 20  1  0  0  0  0
 16 12  1  0  0  0  0
 17 16  2  0  0  0  0
 19 10  1  0  0  0  0
 20 19  2  0  0  0  0
 21 22  2  0  0  0  0
 23 22  1  0  0  0  0
 24 27  2  0  0  0  0
 28 25  1  0  0  0  0
 28 24  1  0  0  0  0
 29 26  1  6  0  0  0
 29 31  1  0  0  0  0
 30 22  1  6  0  0  0
 30 29  1  0  0  0  0
 30 25  1  0  0  0  0
 31 24  1  0  0  0  0
M  END
>  <MODEL>
6

>  <REMARK>
 VINA RESULT:      -5.6      4.282      8.060
  Name = 
  2 active torsions:
  status: ('A' for Active; 'I' for Inactive)
    1  A    between atoms: C_5  and  C_30
    2  A    between atoms: C_10  and  N_16
                            x       y       z     vdW  Elec       q    Type
                         _______ _______ _______ _____ _____    ______ ____

>  <TORSDO>
F 2

$$$$
=
 OpenBabel11122413163D

 31 35  0  0  1  0  0  0  0  0999 V2000
  160.6720  201.6150  148.7990 C   0  0  0  0  0  0  0  0  0  0  0  0
  162.2020  204.9060  149.9470 C   0  0  2  0  0  3  0  0  0  0  0  0
  161.6790  205.9760  148.9950 C   0  0  0  0  0  0  0  0  0  0  0  0
  160.7710  206.5780  146.8160 C   0  0  0  0  0  0  0  0  0  0  0  0
  161.3700  203.6420  149.9440 C   0  0  0  0  0  0  0  0  0  0  0  0
  159.7920  201.3220  149.8420 C   0  0  0  0  0  3  0  0  0  0  0  0
  161.1780  205.6100  147.7350 C   0  0  0  0  0  3  0  0  0  0  0  0
  161.0770  205.5280  152.1210 C   0  0  2  0  0  3  0  0  0  0  0  0
  160.7620  200.7830  147.7340 F   0  0  0  0  0  0  0  0  0  0  0  0
  162.3310  207.8290  150.6220 C   0  0  0  0  0  2  0  0  0  0  0  0
  160.1320  206.0940  145.2610 Cl  0  0  0  0  0  0  0  0  0  0  0  0
  160.4570  204.1400  152.2710 C   0  0  0  0  0  2  0  0  0  0  0  0
  162.4170  205.4310  151.3780 C   0  0  2  0  0  3  0  0  0  0  0  0
  161.4590  202.7670  148.8520 C   0  0  0  0  0  3  0  0  0  0  0  0
  160.8780  207.9320  147.1350 C   0  0  0  0  0  3  0  0  0  0  0  0
  160.4830  203.3380  151.0030 C   0  0  0  0  0  0  0  0  0  0  0  0
  159.7060  202.1760  150.9430 C   0  0  0  0  0  3  0  0  0  0  0  0
  163.1610  206.7660  151.3350 C   0  0  0  0  0  2  0  0  0  0  0  0
  161.8200  207.3530  149.2950 C   0  0  0  0  0  0  0  0  0  0  0  0
  161.4000  208.3160  148.3710 C   0  0  0  0  0  3  0  0  0  0  0  0
  160.4560  208.2220  152.8470 O   0  0  0  0  0  0  0  0  0  0  0  0
  160.9420  207.4750  153.7370 C   0  0  0  0  0  0  0  0  0  0  0  0
  161.2720  206.1150  153.4390 N   0  0  0  0  0  2  0  0  0  0  0  0
  158.9530  209.8170  155.4220 C   0  0  0  0  0  0  0  0  0  0  0  0
  160.1050  207.6830  156.0970 C   0  0  0  0  0  2  0  0  0  0  0  0
  162.5020  210.0120  154.1330 C   0  0  0  0  0  1  0  0  0  0  0  0
  157.9590  210.5870  155.4630 O   0  0  0  0  0  0  0  0  0  0  0  0
  158.7770  208.3670  155.7610 C   0  0  0  0  0  2  0  0  0  0  0  0
  161.4490  209.5610  155.1300 C   0  0  2  0  0  3  0  0  0  0  0  0
  161.2120  208.0430  155.1030 C   0  0  2  0  0  3  0  0  0  0  0  0
  160.2100  210.3100  154.9470 N   0  0  0  0  0  2  0  0  0  0  0  0
  1 14  2  0  0  0  0
  1  6  1  0  0  0  0
  2  3  1  6  0  0  0
  2 13  1  0  0  0  0
  3 19  1  0  0  0  0
  4 15  2  0  0  0  0
  4  7  1  0  0  0  0
  5  2  1  0  0  0  0
  5 16  2  0  0  0  0
  6 17  2  0  0  0  0
  7  3  2  0  0  0  0
  8 12  1  0  0  0  0
  8 23  1  1  0  0  0
  9  1  1  0  0  0  0
 10 18  1  0  0  0  0
 11  4  1  0  0  0  0
 13 18  1  6  0  0  0
 13  8  1  0  0  0  0
 14  5  1  0  0  0  0
 15 20  1  0  0  0  0
 16 12  1  0  0  0  0
 17 16  1  0  0  0  0
 19 10  1  0  0  0  0
 20 19  2  0  0  0  0
 21 22  2  0  0  0  0
 23 22  1  0  0  0  0
 24 27  2  0  0  0  0
 24 28  1  0  0  0  0
 28 25  1  0  0  0  0
 29 26  1  6  0  0  0
 30 22  1  6  0  0  0
 30 29  1  0  0  0  0
 30 25  1  0  0  0  0
 31 29  1  0  0  0  0
 31 24  1  0  0  0  0
M  END
>  <MODEL>
7

>  <REMARK>
 VINA RESULT:      -5.3      4.518      6.777
  Name = 
  2 active torsions:
  status: ('A' for Active; 'I' for Inactive)
    1  A    between atoms: C_5  and  C_30
    2  A    between atoms: C_10  and  N_16
                            x       y       z     vdW  Elec       q    Type
                         _______ _______ _______ _____ _____    ______ ____

>  <TORSDO>
F 2

$$$$
=
 OpenBabel11122413163D

 31 35  0  0  1  0  0  0  0  0999 V2000
  161.7070  202.9880  151.8850 C   0  0  0  0  0  0  0  0  0  0  0  0
  162.3610  206.4930  150.5520 C   0  0  2  0  0  3  0  0  0  0  0  0
  161.7950  206.5250  149.1370 C   0  0  0  0  0  0  0  0  0  0  0  0
  161.1420  205.3340  147.1150 C   0  0  0  0  0  0  0  0  0  0  0  0
  161.8040  205.3660  151.3960 C   0  0  0  0  0  0  0  0  0  0  0  0
  160.7480  203.2240  152.8710 C   0  0  0  0  0  3  0  0  0  0  0  0
  161.5810  205.3240  148.4390 C   0  0  0  0  0  3  0  0  0  0  0  0
  160.8080  208.0560  151.7850 C   0  0  2  0  0  3  0  0  0  0  0  0
  162.1240  201.7240  151.6350 F   0  0  0  0  0  0  0  0  0  0  0  0
  161.8070  209.0760  149.1240 C   0  0  0  0  0  2  0  0  0  0  0  0
  160.8640  203.8230  146.2760 Cl  0  0  0  0  0  0  0  0  0  0  0  0
  160.4560  206.9920  152.8220 C   0  0  0  0  0  2  0  0  0  0  0  0
  162.2410  207.8460  151.2760 C   0  0  2  0  0  3  0  0  0  0  0  0
  162.2340  204.0540  151.1540 C   0  0  0  0  0  3  0  0  0  0  0  0
  160.9300  206.5460  146.4580 C   0  0  0  0  0  3  0  0  0  0  0  0
  160.8390  205.6030  152.4020 C   0  0  0  0  0  0  0  0  0  0  0  0
  160.3240  204.5280  153.1340 C   0  0  0  0  0  3  0  0  0  0  0  0
  162.7060  208.9730  150.3520 C   0  0  0  0  0  2  0  0  0  0  0  0
  161.6150  207.7500  148.4500 C   0  0  0  0  0  0  0  0  0  0  0  0
  161.1650  207.7490  147.1250 C   0  0  0  0  0  3  0  0  0  0  0  0
  161.5810  208.7630  154.4450 O   0  0  0  0  0  0  0  0  0  0  0  0
  161.0790  209.6660  153.7240 C   0  0  0  0  0  0  0  0  0  0  0  0
  160.6730  209.3770  152.3830 N   0  0  0  0  0  2  0  0  0  0  0  0
  158.0970  210.8840  155.1020 C   0  0  0  0  0  0  0  0  0  0  0  0
  160.5150  210.9740  155.7940 C   0  0  0  0  0  2  0  0  0  0  0  0
  160.0810  211.9680  152.0720 C   0  0  0  0  0  1  0  0  0  0  0  0
  156.8800  210.7420  155.3860 O   0  0  0  0  0  0  0  0  0  0  0  0
  159.1400  210.3480  156.0370 C   0  0  0  0  0  2  0  0  0  0  0  0
  159.8310  211.8940  153.5680 C   0  0  2  0  0  3  0  0  0  0  0  0
  160.8700  211.0370  154.3060 C   0  0  2  0  0  3  0  0  0  0  0  0
  158.4670  211.4540  153.8420 N   0  0  0  0  0  2  0  0  0  0  0  0
  1  6  1  0  0  0  0
  2  3  1  6  0  0  0
  2 13  1  0  0  0  0
  2  5  1  0  0  0  0
  4  7  1  0  0  0  0
  5 16  2  0  0  0  0
  6 17  2  0  0  0  0
  7  3  2  0  0  0  0
  8 23  1  1  0  0  0
  8 12  1  0  0  0  0
  9  1  1  0  0  0  0
 10 18  1  0  0  0  0
 11  4  1  0  0  0  0
 13 18  1  6  0  0  0
 13  8  1  0  0  0  0
 14  5  1  0  0  0  0
 14  1  2  0  0  0  0
 15  4  2  0  0  0  0
 15 20  1  0  0  0  0
 16 12  1  0  0  0  0
 16 17  1  0  0  0  0
 19 10  1  0  0  0  0
 19  3  1  0  0  0  0
 20 19  2  0  0  0  0
 22 21  2  0  0  0  0
 23 22  1  0  0  0  0
 24 27  2  0  0  0  0
 24 28  1  0  0  0  0
 25 28  1  0  0  0  0
 29 26  1  6  0  0  0
 29 31  1  0  0  0  0
 29 30  1  0  0  0  0
 30 22  1  6  0  0  0
 30 25  1  0  0  0  0
 31 24  1  0  0  0  0
M  END
>  <MODEL>
8

>  <REMARK>
 VINA RESULT:      -5.1      3.356      5.025
  Name = 
  2 active torsions:
  status: ('A' for Active; 'I' for Inactive)
    1  A    between atoms: C_5  and  C_30
    2  A    between atoms: C_10  and  N_16
                            x       y       z     vdW  Elec       q    Type
                         _______ _______ _______ _____ _____    ______ ____

>  <TORSDO>
F 2

$$$$
