=
 OpenBabel11122412373D

 30 34  0  0  1  0  0  0  0  0999 V2000
  161.3470  204.7500  148.7260 C   0  0  0  0  0  0  0  0  0  0  0  0
  160.9850  202.2510  148.3910 C   0  0  0  0  0  0  0  0  0  0  0  0
  161.1770  204.3730  152.8940 N   0  0  0  0  0  2  0  0  0  0  0  0
  161.5660  205.8470  149.5910 C   0  0  0  0  0  0  0  0  0  0  0  0
  161.2120  204.9740  147.3480 O   0  0  0  0  0  0  0  0  0  0  0  0
  160.7310  208.4860  147.3080 O   0  0  0  0  0  0  0  0  0  0  0  0
  161.0730  208.6580  151.0640 C   0  0  2  0  0  3  0  0  0  0  0  0
  161.1920  207.3800  147.7010 C   0  0  0  0  0  0  0  0  0  0  0  0
  160.5500  207.5430  151.7750 O   0  0  0  0  0  0  0  0  0  0  0  0
  161.2670  205.7600  153.2170 C   0  0  0  0  0  0  0  0  0  0  0  0
  161.3950  206.2490  146.7280 C   0  0  2  0  0  3  0  0  0  0  0  0
  161.5900  207.1930  149.0720 N   0  0  0  0  0  0  0  0  0  0  0  0
  161.0770  200.8670  148.9700 C   0  0  0  0  0  2  0  0  0  0  0  0
  160.7680  202.3740  147.1570 O   0  0  0  0  0  0  0  0  0  0  0  0
  161.3800  204.3500  151.4880 C   0  0  0  0  0  0  0  0  0  0  0  0
  160.8380  200.8300  150.4550 C   0  0  0  0  0  3  0  0  0  0  0  0
  161.2060  203.4370  149.2550 C   0  0  0  0  0  0  0  0  0  0  0  0
  161.6010  205.6050  150.9690 C   0  0  0  0  0  0  0  0  0  0  0  0
  161.1130  206.1920  154.3880 O   0  0  0  0  0  0  0  0  0  0  0  0
  161.5890  206.6320  152.0440 C   0  0  1  0  0  3  0  0  0  0  0  0
  162.5560  209.5190  149.1560 C   0  0  0  0  0  1  0  0  0  0  0  0
  160.9310  201.9140  151.2280 C   0  0  0  0  0  3  0  0  0  0  0  0
  161.2070  203.2430  150.6560 C   0  0  0  0  0  0  0  0  0  0  0  0
  162.0680  208.2980  149.9300 C   0  0  1  0  0  3  0  0  0  0  0  0
  161.6770  209.6710  152.0340 C   0  0  0  0  0  2  0  0  0  0  0  0
  161.1720  209.8390  154.4490 C   0  0  0  0  0  1  0  0  0  0  0  0
  160.6420  210.1020  153.0560 C   0  0  0  0  0  2  0  0  0  0  0  0
  160.5010  206.3550  145.4970 C   0  0  0  0  0  2  0  0  0  0  0  0
  161.4760  205.3830  143.7720 C   0  0  0  0  0  1  0  0  0  0  0  0
  160.5270  205.1640  144.7690 O   0  0  0  0  0  0  0  0  0  0  0  0
  1 17  2  0  0  0  0
  1  4  1  0  0  0  0
  2 13  1  0  0  0  0
  2 17  1  0  0  0  0
  3 10  1  0  0  0  0
  4 18  2  0  0  0  0
  5  1  1  0  0  0  0
  6  8  2  0  0  0  0
  7  9  1  0  0  0  0
  7 25  1  1  0  0  0
  8 12  1  0  0  0  0
  9 20  1  0  0  0  0
 10 19  2  0  0  0  0
 11 28  1  6  0  0  0
 11  5  1  0  0  0  0
 11  8  1  0  0  0  0
 12  4  1  0  0  0  0
 12 24  1  0  0  0  0
 13 16  1  0  0  0  0
 14  2  2  0  0  0  0
 15  3  1  0  0  0  0
 16 22  2  0  0  0  0
 17 23  1  0  0  0  0
 18 15  1  0  0  0  0
 20 18  1  6  0  0  0
 20 10  1  0  0  0  0
 23 22  1  0  0  0  0
 23 15  2  0  0  0  0
 24 21  1  6  0  0  0
 24  7  1  0  0  0  0
 25 27  1  0  0  0  0
 27 26  1  0  0  0  0
 29 30  1  0  0  0  0
 30 28  1  0  0  0  0
M  END
>  <MODEL>
1

>  <REMARK>
 VINA RESULT:      -7.7      0.000      0.000
  Name = 
  4 active torsions:
  status: ('A' for Active; 'I' for Inactive)
    1  A    between atoms: C_7  and  C_15
    2  A    between atoms: C_11  and  C_28
    3  A    between atoms: C_15  and  C_23
    4  A    between atoms: C_28  and  O_30
                            x       y       z     vdW  Elec       q    Type
                         _______ _______ _______ _____ _____    ______ ____

>  <TORSDO>
F 4

$$$$
=
 OpenBabel11122412373D

 30 34  0  0  1  0  0  0  0  0999 V2000
  161.2840  208.3390  151.4500 C   0  0  0  0  0  0  0  0  0  0  0  0
  161.4610  209.5360  153.6920 C   0  0  0  0  0  0  0  0  0  0  0  0
  160.8920  204.6020  153.3000 N   0  0  0  0  0  2  0  0  0  0  0  0
  161.0570  207.1540  150.7130 C   0  0  0  0  0  0  0  0  0  0  0  0
  161.6120  209.5220  150.7720 O   0  0  0  0  0  0  0  0  0  0  0  0
  162.4060  208.2290  147.5670 O   0  0  0  0  0  0  0  0  0  0  0  0
  161.6090  204.7160  148.6970 C   0  0  2  0  0  3  0  0  0  0  0  0
  161.8020  208.3100  148.6710 C   0  0  0  0  0  0  0  0  0  0  0  0
  161.9370  204.4220  150.0490 O   0  0  0  0  0  0  0  0  0  0  0  0
  160.8870  203.8010  152.1190 C   0  0  0  0  0  0  0  0  0  0  0  0
  161.6230  209.6440  149.3470 C   0  0  2  0  0  3  0  0  0  0  0  0
  161.2200  207.1430  149.2790 N   0  0  0  0  0  0  0  0  0  0  0  0
  161.1730  209.5150  155.1670 C   0  0  0  0  0  2  0  0  0  0  0  0
  161.8420  210.6150  153.1680 O   0  0  0  0  0  0  0  0  0  0  0  0
  160.8680  205.9300  152.7960 C   0  0  0  0  0  0  0  0  0  0  0  0
  161.2190  208.1320  155.7590 C   0  0  0  0  0  3  0  0  0  0  0  0
  161.2390  208.3190  152.8710 C   0  0  0  0  0  0  0  0  0  0  0  0
  160.8270  205.9690  151.4220 C   0  0  0  0  0  0  0  0  0  0  0  0
  160.9300  202.5450  152.1540 O   0  0  0  0  0  0  0  0  0  0  0  0
  160.7950  204.5950  150.8530 C   0  0  1  0  0  3  0  0  0  0  0  0
  160.4620  206.2940  147.0300 C   0  0  0  0  0  1  0  0  0  0  0  0
  161.1260  207.0270  155.0170 C   0  0  0  0  0  3  0  0  0  0  0  0
  161.0440  207.0920  153.5480 C   0  0  0  0  0  0  0  0  0  0  0  0
  160.7380  205.9830  148.4980 C   0  0  1  0  0  3  0  0  0  0  0  0
  160.9810  203.4970  148.0250 C   0  0  0  0  0  2  0  0  0  0  0  0
  160.3180  201.3360  149.0290 C   0  0  0  0  0  1  0  0  0  0  0  0
  161.4910  202.2210  148.6670 C   0  0  0  0  0  2  0  0  0  0  0  0
  162.6720  210.6690  148.9270 C   0  0  0  0  0  2  0  0  0  0  0  0
  163.1330  212.5550  147.8780 C   0  0  0  0  0  1  0  0  0  0  0  0
  162.0700  211.7380  148.2590 O   0  0  0  0  0  0  0  0  0  0  0  0
  1 17  1  0  0  0  0
  2 13  1  0  0  0  0
  4 18  1  0  0  0  0
  4  1  2  0  0  0  0
  5  1  1  0  0  0  0
  6  8  2  0  0  0  0
  7 25  1  1  0  0  0
  7  9  1  0  0  0  0
  8 12  1  0  0  0  0
  8 11  1  0  0  0  0
 10 19  2  0  0  0  0
 10  3  1  0  0  0  0
 11 28  1  1  0  0  0
 11  5  1  0  0  0  0
 12  4  1  0  0  0  0
 13 16  1  0  0  0  0
 14  2  2  0  0  0  0
 15  3  1  0  0  0  0
 15 23  1  0  0  0  0
 17 23  2  0  0  0  0
 17  2  1  0  0  0  0
 18 15  2  0  0  0  0
 20  9  1  6  0  0  0
 20 18  1  0  0  0  0
 20 10  1  0  0  0  0
 22 16  2  0  0  0  0
 23 22  1  0  0  0  0
 24 21  1  6  0  0  0
 24  7  1  0  0  0  0
 24 12  1  0  0  0  0
 25 27  1  0  0  0  0
 27 26  1  0  0  0  0
 29 30  1  0  0  0  0
 30 28  1  0  0  0  0
M  END
>  <MODEL>
2

>  <REMARK>
 VINA RESULT:      -7.6      1.939      5.958
  Name = 
  4 active torsions:
  status: ('A' for Active; 'I' for Inactive)
    1  A    between atoms: C_7  and  C_15
    2  A    between atoms: C_11  and  C_28
    3  A    between atoms: C_15  and  C_23
    4  A    between atoms: C_28  and  O_30
                            x       y       z     vdW  Elec       q    Type
                         _______ _______ _______ _____ _____    ______ ____

>  <TORSDO>
F 4

$$$$
=
 OpenBabel11122412373D

 30 34  0  0  1  0  0  0  0  0999 V2000
  161.7580  207.4170  151.2360 C   0  0  0  0  0  0  0  0  0  0  0  0
  161.8910  209.9540  151.0410 C   0  0  0  0  0  0  0  0  0  0  0  0
  161.6260  206.9500  147.0760 N   0  0  0  0  0  2  0  0  0  0  0  0
  161.7510  206.1440  150.6200 C   0  0  0  0  0  0  0  0  0  0  0  0
  161.5940  207.5130  152.6250 O   0  0  0  0  0  0  0  0  0  0  0  0
  160.4410  204.2430  153.3680 O   0  0  0  0  0  0  0  0  0  0  0  0
  160.7090  203.2370  149.7390 C   0  0  2  0  0  3  0  0  0  0  0  0
  161.1050  205.1350  152.7720 C   0  0  0  0  0  0  0  0  0  0  0  0
  160.4060  204.2600  148.7990 O   0  0  0  0  0  0  0  0  0  0  0  0
  161.4420  205.5350  147.0460 C   0  0  0  0  0  0  0  0  0  0  0  0
  161.5320  206.3830  153.4990 C   0  0  2  0  0  3  0  0  0  0  0  0
  161.5180  204.9550  151.4040 N   0  0  0  0  0  0  0  0  0  0  0  0
  162.2440  211.1440  150.1950 C   0  0  0  0  0  2  0  0  0  0  0  0
  161.6650  210.1310  152.2670 O   0  0  0  0  0  0  0  0  0  0  0  0
  161.8420  207.2230  148.4530 C   0  0  0  0  0  0  0  0  0  0  0  0
  162.0030  210.9180  148.7270 C   0  0  0  0  0  3  0  0  0  0  0  0
  161.8690  208.5940  150.4460 C   0  0  0  0  0  0  0  0  0  0  0  0
  161.8200  206.0850  149.2240 C   0  0  0  0  0  0  0  0  0  0  0  0
  161.1960  204.9080  145.9840 O   0  0  0  0  0  0  0  0  0  0  0  0
  161.5990  204.8790  148.3820 C   0  0  1  0  0  3  0  0  0  0  0  0
  162.0140  202.5200  151.8290 C   0  0  0  0  0  1  0  0  0  0  0  0
  161.8770  209.7000  148.1950 C   0  0  0  0  0  3  0  0  0  0  0  0
  161.8950  208.4900  149.0350 C   0  0  0  0  0  0  0  0  0  0  0  0
  161.7650  203.6250  150.8060 C   0  0  1  0  0  3  0  0  0  0  0  0
  161.0960  201.9490  149.0160 C   0  0  0  0  0  2  0  0  0  0  0  0
  160.8400  201.5090  146.5960 C   0  0  0  0  0  1  0  0  0  0  0  0
  160.1030  201.6480  147.9100 C   0  0  0  0  0  2  0  0  0  0  0  0
  160.6450  206.7060  154.6970 C   0  0  0  0  0  2  0  0  0  0  0  0
  161.4320  208.2130  156.1040 C   0  0  0  0  0  1  0  0  0  0  0  0
  160.6540  208.0790  154.9550 O   0  0  0  0  0  0  0  0  0  0  0  0
  1  5  1  0  0  0  0
  2 14  2  0  0  0  0
  3 15  1  0  0  0  0
  4  1  1  0  0  0  0
  4 12  1  0  0  0  0
  5 11  1  0  0  0  0
  7 25  1  6  0  0  0
  7 24  1  0  0  0  0
  8  6  2  0  0  0  0
  8 11  1  0  0  0  0
  9  7  1  0  0  0  0
 10  3  1  0  0  0  0
 11 28  1  1  0  0  0
 12  8  1  0  0  0  0
 13  2  1  0  0  0  0
 15 23  2  0  0  0  0
 15 18  1  0  0  0  0
 16 13  1  0  0  0  0
 17  2  1  0  0  0  0
 17  1  2  0  0  0  0
 18  4  2  0  0  0  0
 19 10  2  0  0  0  0
 20 10  1  6  0  0  0
 20  9  1  0  0  0  0
 20 18  1  0  0  0  0
 22 16  2  0  0  0  0
 22 23  1  0  0  0  0
 23 17  1  0  0  0  0
 24 12  1  0  0  0  0
 24 21  1  1  0  0  0
 26 27  1  0  0  0  0
 27 25  1  0  0  0  0
 28 30  1  0  0  0  0
 30 29  1  0  0  0  0
M  END
>  <MODEL>
3

>  <REMARK>
 VINA RESULT:      -7.2      1.641      7.448
  Name = 
  4 active torsions:
  status: ('A' for Active; 'I' for Inactive)
    1  A    between atoms: C_7  and  C_15
    2  A    between atoms: C_11  and  C_28
    3  A    between atoms: C_15  and  C_23
    4  A    between atoms: C_28  and  O_30
                            x       y       z     vdW  Elec       q    Type
                         _______ _______ _______ _____ _____    ______ ____

>  <TORSDO>
F 4

$$$$
=
 OpenBabel11122412373D

 30 34  0  0  1  0  0  0  0  0999 V2000
  161.5450  205.4760  149.5490 C   0  0  0  0  0  0  0  0  0  0  0  0
  161.1880  202.9830  149.1640 C   0  0  0  0  0  0  0  0  0  0  0  0
  160.9190  205.0870  153.6720 N   0  0  0  0  0  2  0  0  0  0  0  0
  161.6840  206.5670  150.4380 C   0  0  0  0  0  0  0  0  0  0  0  0
  161.5630  205.7060  148.1660 O   0  0  0  0  0  0  0  0  0  0  0  0
  161.1370  209.2260  148.0920 O   0  0  0  0  0  0  0  0  0  0  0  0
  161.0720  209.3790  151.8630 C   0  0  2  0  0  3  0  0  0  0  0  0
  161.5380  208.1120  148.5260 C   0  0  0  0  0  0  0  0  0  0  0  0
  160.4600  208.2690  152.5080 O   0  0  0  0  0  0  0  0  0  0  0  0
  160.9930  206.4710  154.0100 C   0  0  0  0  0  0  0  0  0  0  0  0
  161.8290  206.9810  147.5750 C   0  0  2  0  0  3  0  0  0  0  0  0
  161.7810  207.9140  149.9310 N   0  0  0  0  0  0  0  0  0  0  0  0
  161.1980  201.5970  149.7430 C   0  0  0  0  0  2  0  0  0  0  0  0
  161.1070  203.1140  147.9150 O   0  0  0  0  0  0  0  0  0  0  0  0
  161.2730  205.0660  152.2960 C   0  0  0  0  0  0  0  0  0  0  0  0
  160.7980  201.5580  151.1930 C   0  0  0  0  0  3  0  0  0  0  0  0
  161.3300  204.1640  150.0530 C   0  0  0  0  0  0  0  0  0  0  0  0
  161.5660  206.3200  151.8100 C   0  0  0  0  0  0  0  0  0  0  0  0
  160.7180  206.9020  155.1590 O   0  0  0  0  0  0  0  0  0  0  0  0
  161.4510  207.3430  152.8830 C   0  0  1  0  0  3  0  0  0  0  0  0
  162.7650  210.2270  150.1310 C   0  0  0  0  0  1  0  0  0  0  0  0
  160.8220  202.6380  151.9770 C   0  0  0  0  0  3  0  0  0  0  0  0
  161.1760  203.9650  151.4450 C   0  0  0  0  0  0  0  0  0  0  0  0
  162.1790  209.0100  150.8410 C   0  0  1  0  0  3  0  0  0  0  0  0
  161.5810  210.3800  152.8970 C   0  0  0  0  0  2  0  0  0  0  0  0
  159.7000  211.8690  152.2950 C   0  0  0  0  0  1  0  0  0  0  0  0
  160.4300  211.2040  153.4420 C   0  0  0  0  0  2  0  0  0  0  0  0
  161.0760  207.1040  146.2550 C   0  0  0  0  0  2  0  0  0  0  0  0
  161.2640  205.4180  144.8440 C   0  0  0  0  0  1  0  0  0  0  0  0
  160.4930  205.8830  145.9090 O   0  0  0  0  0  0  0  0  0  0  0  0
  1 17  2  0  0  0  0
  1  4  1  0  0  0  0
  2 13  1  0  0  0  0
  2 17  1  0  0  0  0
  3 10  1  0  0  0  0
  4 18  2  0  0  0  0
  5  1  1  0  0  0  0
  6  8  2  0  0  0  0
  7  9  1  0  0  0  0
  7 25  1  1  0  0  0
  8 12  1  0  0  0  0
  9 20  1  0  0  0  0
 10 19  2  0  0  0  0
 11 28  1  6  0  0  0
 11  5  1  0  0  0  0
 11  8  1  0  0  0  0
 12  4  1  0  0  0  0
 12 24  1  0  0  0  0
 13 16  1  0  0  0  0
 14  2  2  0  0  0  0
 15  3  1  0  0  0  0
 16 22  2  0  0  0  0
 17 23  1  0  0  0  0
 18 15  1  0  0  0  0
 20 18  1  6  0  0  0
 20 10  1  0  0  0  0
 23 22  1  0  0  0  0
 23 15  2  0  0  0  0
 24 21  1  6  0  0  0
 24  7  1  0  0  0  0
 25 27  1  0  0  0  0
 26 27  1  0  0  0  0
 29 30  1  0  0  0  0
 30 28  1  0  0  0  0
M  END
>  <MODEL>
4

>  <REMARK>
 VINA RESULT:      -7.1      1.066      1.261
  Name = 
  4 active torsions:
  status: ('A' for Active; 'I' for Inactive)
    1  A    between atoms: C_7  and  C_15
    2  A    between atoms: C_11  and  C_28
    3  A    between atoms: C_15  and  C_23
    4  A    between atoms: C_28  and  O_30
                            x       y       z     vdW  Elec       q    Type
                         _______ _______ _______ _____ _____    ______ ____

>  <TORSDO>
F 4

$$$$
=
 OpenBabel11122412373D

 30 34  0  0  1  0  0  0  0  0999 V2000
  161.1890  207.1280  150.5820 C   0  0  0  0  0  0  0  0  0  0  0  0
  161.2860  208.1270  152.9240 C   0  0  0  0  0  0  0  0  0  0  0  0
  160.8280  203.2370  152.0890 N   0  0  0  0  0  2  0  0  0  0  0  0
  161.0040  206.0080  149.7390 C   0  0  0  0  0  0  0  0  0  0  0  0
  161.5090  208.3720  150.0180 O   0  0  0  0  0  0  0  0  0  0  0  0
  162.4070  207.3790  146.7350 O   0  0  0  0  0  0  0  0  0  0  0  0
  161.6550  203.7670  147.5330 C   0  0  2  0  0  3  0  0  0  0  0  0
  161.7750  207.3520  147.8250 C   0  0  0  0  0  0  0  0  0  0  0  0
  161.9560  203.3610  148.8630 O   0  0  0  0  0  0  0  0  0  0  0  0
  160.8680  202.5430  150.8430 C   0  0  0  0  0  0  0  0  0  0  0  0
  161.5520  208.6190  148.6100 C   0  0  2  0  0  3  0  0  0  0  0  0
  161.2020  206.1260  148.3140 N   0  0  0  0  0  0  0  0  0  0  0  0
  160.9620  207.9720  154.3830 C   0  0  0  0  0  2  0  0  0  0  0  0
  161.6580  209.2550  152.5050 O   0  0  0  0  0  0  0  0  0  0  0  0
  160.7890  204.6030  151.7020 C   0  0  0  0  0  0  0  0  0  0  0  0
  161.0220  206.5430  154.8530 C   0  0  0  0  0  3  0  0  0  0  0  0
  161.1090  206.9830  151.9940 C   0  0  0  0  0  0  0  0  0  0  0  0
  160.7810  204.7620  150.3350 C   0  0  0  0  0  0  0  0  0  0  0  0
  160.9360  201.2890  150.7690 O   0  0  0  0  0  0  0  0  0  0  0  0
  160.7910  203.4430  149.6490 C   0  0  1  0  0  3  0  0  0  0  0  0
  160.5170  205.4630  145.9810 C   0  0  0  0  0  1  0  0  0  0  0  0
  160.9700  205.5060  154.0160 C   0  0  0  0  0  3  0  0  0  0  0  0
  160.9230  205.6980  152.5560 C   0  0  0  0  0  0  0  0  0  0  0  0
  160.7630  205.0300  147.4230 C   0  0  1  0  0  3  0  0  0  0  0  0
  161.0690  202.6000  146.7420 C   0  0  0  0  0  2  0  0  0  0  0  0
  161.1940  200.1510  146.4180 C   0  0  0  0  0  1  0  0  0  0  0  0
  161.4410  201.2820  147.3930 C   0  0  0  0  0  2  0  0  0  0  0  0
  162.5890  209.6950  148.3090 C   0  0  0  0  0  2  0  0  0  0  0  0
  161.7160  211.7200  148.2030 C   0  0  0  0  0  1  0  0  0  0  0  0
  162.3480  210.8360  149.0770 O   0  0  0  0  0  0  0  0  0  0  0  0
  1 17  1  0  0  0  0
  2 13  1  0  0  0  0
  4 18  1  0  0  0  0
  4  1  2  0  0  0  0
  5  1  1  0  0  0  0
  6  8  2  0  0  0  0
  7 25  1  1  0  0  0
  7  9  1  0  0  0  0
  8 12  1  0  0  0  0
  8 11  1  0  0  0  0
 10  3  1  0  0  0  0
 11 28  1  1  0  0  0
 11  5  1  0  0  0  0
 12  4  1  0  0  0  0
 13 16  1  0  0  0  0
 14  2  2  0  0  0  0
 15  3  1  0  0  0  0
 15 23  1  0  0  0  0
 17 23  2  0  0  0  0
 17  2  1  0  0  0  0
 18 15  2  0  0  0  0
 19 10  2  0  0  0  0
 20  9  1  6  0  0  0
 20 18  1  0  0  0  0
 20 10  1  0  0  0  0
 22 16  2  0  0  0  0
 23 22  1  0  0  0  0
 24 21  1  6  0  0  0
 24  7  1  0  0  0  0
 24 12  1  0  0  0  0
 25 27  1  0  0  0  0
 26 27  1  0  0  0  0
 28 30  1  0  0  0  0
 29 30  1  0  0  0  0
M  END
>  <MODEL>
5

>  <REMARK>
 VINA RESULT:      -6.6      1.766      5.862
  Name = 
  4 active torsions:
  status: ('A' for Active; 'I' for Inactive)
    1  A    between atoms: C_7  and  C_15
    2  A    between atoms: C_11  and  C_28
    3  A    between atoms: C_15  and  C_23
    4  A    between atoms: C_28  and  O_30
                            x       y       z     vdW  Elec       q    Type
                         _______ _______ _______ _____ _____    ______ ____

>  <TORSDO>
F 4

$$$$
=
 OpenBabel11122412373D

 30 34  0  0  1  0  0  0  0  0999 V2000
  161.1730  205.2950  149.6360 C   0  0  0  0  0  0  0  0  0  0  0  0
  161.4090  204.0780  147.4110 C   0  0  0  0  0  0  0  0  0  0  0  0
  162.0750  208.9920  147.8850 N   0  0  0  0  0  2  0  0  0  0  0  0
  161.1390  206.5050  150.3690 C   0  0  0  0  0  0  0  0  0  0  0  0
  161.0660  204.0730  150.3150 O   0  0  0  0  0  0  0  0  0  0  0  0
  161.6170  205.1380  153.6520 O   0  0  0  0  0  0  0  0  0  0  0  0
  161.9550  208.7290  152.5360 C   0  0  2  0  0  3  0  0  0  0  0  0
  161.2070  205.2090  152.4620 C   0  0  0  0  0  0  0  0  0  0  0  0
  162.5690  208.9180  151.2680 O   0  0  0  0  0  0  0  0  0  0  0  0
  162.0770  209.7750  149.0780 C   0  0  0  0  0  0  0  0  0  0  0  0
  160.8060  203.9620  151.7170 C   0  0  2  0  0  3  0  0  0  0  0  0
  161.0560  206.4830  151.8090 N   0  0  0  0  0  0  0  0  0  0  0  0
  161.3890  204.1620  145.9110 C   0  0  0  0  0  2  0  0  0  0  0  0
  161.4060  202.9410  147.9510 O   0  0  0  0  0  0  0  0  0  0  0  0
  161.6240  207.7200  148.3290 C   0  0  0  0  0  0  0  0  0  0  0  0
  161.8880  205.4810  145.3850 C   0  0  0  0  0  3  0  0  0  0  0  0
  161.3750  205.3160  148.2280 C   0  0  0  0  0  0  0  0  0  0  0  0
  161.3450  207.7030  149.6760 C   0  0  0  0  0  0  0  0  0  0  0  0
  162.4480  210.9770  149.0970 O   0  0  0  0  0  0  0  0  0  0  0  0
  161.5730  209.0420  150.2810 C   0  0  1  0  0  3  0  0  0  0  0  0
  160.1760  207.5170  153.9330 C   0  0  0  0  0  1  0  0  0  0  0  0
  161.9600  206.5780  146.1420 C   0  0  0  0  0  3  0  0  0  0  0  0
  161.6190  206.5470  147.5740 C   0  0  0  0  0  0  0  0  0  0  0  0
  160.7650  207.7340  152.5430 C   0  0  1  0  0  3  0  0  0  0  0  0
  161.5580  210.0740  153.1410 C   0  0  0  0  0  2  0  0  0  0  0  0
  161.4050  210.8940  155.4690 C   0  0  0  0  0  1  0  0  0  0  0  0
  162.3350  210.3260  154.4190 C   0  0  0  0  0  2  0  0  0  0  0  0
  161.4690  202.7030  152.2650 C   0  0  0  0  0  2  0  0  0  0  0  0
  160.8310  201.2050  150.7750 C   0  0  0  0  0  1  0  0  0  0  0  0
  161.9490  201.9090  151.2210 O   0  0  0  0  0  0  0  0  0  0  0  0
  1  5  1  0  0  0  0
  1  4  1  0  0  0  0
  2 14  2  0  0  0  0
  2 17  1  0  0  0  0
  3 15  1  0  0  0  0
  3 10  1  0  0  0  0
  4 12  1  0  0  0  0
  5 11  1  0  0  0  0
  7 24  1  0  0  0  0
  7 25  1  6  0  0  0
  8  6  2  0  0  0  0
  9  7  1  0  0  0  0
 10 19  2  0  0  0  0
 11 28  1  1  0  0  0
 11  8  1  0  0  0  0
 12  8  1  0  0  0  0
 12 24  1  0  0  0  0
 13  2  1  0  0  0  0
 15 18  1  0  0  0  0
 16 13  1  0  0  0  0
 16 22  2  0  0  0  0
 17  1  2  0  0  0  0
 18 20  1  0  0  0  0
 18  4  2  0  0  0  0
 20 10  1  6  0  0  0
 20  9  1  0  0  0  0
 22 23  1  0  0  0  0
 23 17  1  0  0  0  0
 23 15  2  0  0  0  0
 24 21  1  1  0  0  0
 25 27  1  0  0  0  0
 27 26  1  0  0  0  0
 29 30  1  0  0  0  0
 30 28  1  0  0  0  0
M  END
>  <MODEL>
6

>  <REMARK>
 VINA RESULT:      -6.4      1.762      4.793
  Name = 
  4 active torsions:
  status: ('A' for Active; 'I' for Inactive)
    1  A    between atoms: C_7  and  C_15
    2  A    between atoms: C_11  and  C_28
    3  A    between atoms: C_15  and  C_23
    4  A    between atoms: C_28  and  O_30
                            x       y       z     vdW  Elec       q    Type
                         _______ _______ _______ _____ _____    ______ ____

>  <TORSDO>
F 4

$$$$
=
 OpenBabel11122412373D

 30 34  0  0  1  0  0  0  0  0999 V2000
  161.9020  207.4530  149.0960 C   0  0  0  0  0  0  0  0  0  0  0  0
  161.7750  206.0040  147.0040 C   0  0  0  0  0  0  0  0  0  0  0  0
  161.1110  204.1840  151.5930 N   0  0  0  0  0  2  0  0  0  0  0  0
  161.9040  207.5630  150.5050 C   0  0  0  0  0  0  0  0  0  0  0  0
  161.9670  208.6130  148.3110 O   0  0  0  0  0  0  0  0  0  0  0  0
  161.2500  211.0830  150.7520 O   0  0  0  0  0  0  0  0  0  0  0  0
  160.9890  208.4560  153.4510 C   0  0  2  0  0  3  0  0  0  0  0  0
  161.7220  210.0090  150.2880 C   0  0  0  0  0  0  0  0  0  0  0  0
  160.4420  207.2100  153.0380 O   0  0  0  0  0  0  0  0  0  0  0  0
  161.0510  204.8960  152.8290 C   0  0  0  0  0  0  0  0  0  0  0  0
  162.1540  209.9250  148.8470 C   0  0  2  0  0  3  0  0  0  0  0  0
  161.9130  208.8620  151.1360 N   0  0  0  0  0  0  0  0  0  0  0  0
  161.8740  204.6290  146.4050 C   0  0  0  0  0  2  0  0  0  0  0  0
  161.7450  206.9970  146.2310 O   0  0  0  0  0  0  0  0  0  0  0  0
  161.5320  205.1740  150.6650 C   0  0  0  0  0  0  0  0  0  0  0  0
  161.4090  203.5430  147.3370 C   0  0  0  0  0  3  0  0  0  0  0  0
  161.7740  206.1780  148.4780 C   0  0  0  0  0  0  0  0  0  0  0  0
  161.7410  206.3970  151.2600 C   0  0  0  0  0  0  0  0  0  0  0  0
  160.6850  204.3540  153.9030 O   0  0  0  0  0  0  0  0  0  0  0  0
  161.4880  206.3230  152.7240 C   0  0  1  0  0  3  0  0  0  0  0  0
  162.6870  210.3340  153.0300 C   0  0  0  0  0  1  0  0  0  0  0  0
  161.3040  203.7210  148.6560 C   0  0  0  0  0  3  0  0  0  0  0  0
  161.5700  205.0290  149.2780 C   0  0  0  0  0  0  0  0  0  0  0  0
  162.1720  208.9670  152.5880 C   0  0  1  0  0  3  0  0  0  0  0  0
  161.3600  208.4090  154.9320 C   0  0  0  0  0  2  0  0  0  0  0  0
  159.9970  207.1350  156.5550 C   0  0  0  0  0  1  0  0  0  0  0  0
  160.1100  208.4350  155.7890 C   0  0  0  0  0  2  0  0  0  0  0  0
  161.4580  210.9490  147.9570 C   0  0  0  0  0  2  0  0  0  0  0  0
  161.4310  213.0340  147.2340 C   0  0  0  0  0  1  0  0  0  0  0  0
  162.2810  212.0570  147.7490 O   0  0  0  0  0  0  0  0  0  0  0  0
  1  4  1  0  0  0  0
  2 17  1  0  0  0  0
  3 10  1  0  0  0  0
  4 12  1  0  0  0  0
  4 18  2  0  0  0  0
  5 11  1  0  0  0  0
  5  1  1  0  0  0  0
  7 25  1  1  0  0  0
  8  6  2  0  0  0  0
  8 12  1  0  0  0  0
  9  7  1  0  0  0  0
 10 19  2  0  0  0  0
 11 28  1  6  0  0  0
 11  8  1  0  0  0  0
 12 24  1  0  0  0  0
 13  2  1  0  0  0  0
 13 16  1  0  0  0  0
 14  2  2  0  0  0  0
 15 18  1  0  0  0  0
 15  3  1  0  0  0  0
 16 22  2  0  0  0  0
 17  1  2  0  0  0  0
 17 23  1  0  0  0  0
 20 18  1  6  0  0  0
 20 10  1  0  0  0  0
 20  9  1  0  0  0  0
 22 23  1  0  0  0  0
 23 15  2  0  0  0  0
 24 21  1  1  0  0  0
 24  7  1  0  0  0  0
 25 27  1  0  0  0  0
 27 26  1  0  0  0  0
 29 30  1  0  0  0  0
 30 28  1  0  0  0  0
M  END
>  <MODEL>
7

>  <REMARK>
 VINA RESULT:      -6.4      1.977      3.736
  Name = 
  4 active torsions:
  status: ('A' for Active; 'I' for Inactive)
    1  A    between atoms: C_7  and  C_15
    2  A    between atoms: C_11  and  C_28
    3  A    between atoms: C_15  and  C_23
    4  A    between atoms: C_28  and  O_30
                            x       y       z     vdW  Elec       q    Type
                         _______ _______ _______ _____ _____    ______ ____

>  <TORSDO>
F 4

$$$$
=
 OpenBabel11122412373D

 30 34  0  0  1  0  0  0  0  0999 V2000
  160.7440  211.8130  151.6930 C   0  0  0  0  0  0  0  0  0  0  0  0
  160.6450  213.7260  150.0140 C   0  0  0  0  0  0  0  0  0  0  0  0
  162.2480  209.1630  148.8190 N   0  0  0  0  0  2  0  0  0  0  0  0
  161.1180  210.4870  152.0130 C   0  0  0  0  0  0  0  0  0  0  0  0
  160.0570  212.5850  152.6410 O   0  0  0  0  0  0  0  0  0  0  0  0
  159.0980  210.0690  154.9490 O   0  0  0  0  0  0  0  0  0  0  0  0
  160.8310  207.4140  152.9000 C   0  0  2  0  0  3  0  0  0  0  0  0
  159.8290  210.6550  154.1040 C   0  0  0  0  0  0  0  0  0  0  0  0
  160.7890  207.6070  151.4910 O   0  0  0  0  0  0  0  0  0  0  0  0
  162.2550  207.9860  149.6260 C   0  0  0  0  0  0  0  0  0  0  0  0
  159.8020  212.1560  153.9810 C   0  0  2  0  0  3  0  0  0  0  0  0
  160.7460  209.9090  153.2820 N   0  0  0  0  0  0  0  0  0  0  0  0
  161.1510  214.3090  148.7250 C   0  0  0  0  0  2  0  0  0  0  0  0
  159.9540  214.4530  150.7740 O   0  0  0  0  0  0  0  0  0  0  0  0
  161.8950  210.1880  149.7370 C   0  0  0  0  0  0  0  0  0  0  0  0
  161.5110  213.2650  147.7030 C   0  0  0  0  0  3  0  0  0  0  0  0
  161.0080  212.3390  150.3990 C   0  0  0  0  0  0  0  0  0  0  0  0
  161.7150  209.7100  151.0150 C   0  0  0  0  0  0  0  0  0  0  0  0
  162.5030  206.8460  149.1570 O   0  0  0  0  0  0  0  0  0  0  0  0
  161.9710  208.2460  151.0730 C   0  0  1  0  0  3  0  0  0  0  0  0
  161.3240  208.4010  155.2170 C   0  0  0  0  0  1  0  0  0  0  0  0
  161.7370  211.9890  148.0250 C   0  0  0  0  0  3  0  0  0  0  0  0
  161.5770  211.5050  149.4070 C   0  0  0  0  0  0  0  0  0  0  0  0
  161.3530  208.6300  153.7080 C   0  0  1  0  0  3  0  0  0  0  0  0
  161.6090  206.1450  153.2390 C   0  0  0  0  0  2  0  0  0  0  0  0
  161.5830  204.3120  151.5790 C   0  0  0  0  0  1  0  0  0  0  0  0
  160.8540  204.9210  152.7570 C   0  0  0  0  0  2  0  0  0  0  0  0
  158.4970  212.7700  154.4780 C   0  0  0  0  0  2  0  0  0  0  0  0
  156.3030  212.6710  154.2610 C   0  0  0  0  0  1  0  0  0  0  0  0
  157.4870  212.6070  153.5280 O   0  0  0  0  0  0  0  0  0  0  0  0
  1  4  1  0  0  0  0
  1  5  1  0  0  0  0
  2 17  1  0  0  0  0
  2 14  2  0  0  0  0
  3 10  1  0  0  0  0
  3 15  1  0  0  0  0
  4 12  1  0  0  0  0
  5 11  1  0  0  0  0
  7 25  1  6  0  0  0
  7 24  1  0  0  0  0
  8  6  2  0  0  0  0
  9  7  1  0  0  0  0
 11  8  1  0  0  0  0
 11 28  1  6  0  0  0
 12 24  1  0  0  0  0
 12  8  1  0  0  0  0
 13  2  1  0  0  0  0
 15 18  1  0  0  0  0
 16 22  2  0  0  0  0
 16 13  1  0  0  0  0
 17  1  2  0  0  0  0
 18 20  1  0  0  0  0
 18  4  2  0  0  0  0
 19 10  2  0  0  0  0
 20 10  1  6  0  0  0
 20  9  1  0  0  0  0
 22 23  1  0  0  0  0
 23 15  2  0  0  0  0
 23 17  1  0  0  0  0
 24 21  1  1  0  0  0
 26 27  1  0  0  0  0
 27 25  1  0  0  0  0
 30 29  1  0  0  0  0
 30 28  1  0  0  0  0
M  END
>  <MODEL>
8

>  <REMARK>
 VINA RESULT:      -6.3      3.281      8.268
  Name = 
  4 active torsions:
  status: ('A' for Active; 'I' for Inactive)
    1  A    between atoms: C_7  and  C_15
    2  A    between atoms: C_11  and  C_28
    3  A    between atoms: C_15  and  C_23
    4  A    between atoms: C_28  and  O_30
                            x       y       z     vdW  Elec       q    Type
                         _______ _______ _______ _____ _____    ______ ____

>  <TORSDO>
F 4

$$$$
=
 OpenBabel11122412373D

 30 34  0  0  1  0  0  0  0  0999 V2000
  160.9080  204.0040  148.2300 C   0  0  0  0  0  0  0  0  0  0  0  0
  160.8720  203.7760  145.6930 C   0  0  0  0  0  0  0  0  0  0  0  0
  161.7830  208.0940  148.0030 N   0  0  0  0  0  2  0  0  0  0  0  0
  160.9960  204.8210  149.3810 C   0  0  0  0  0  0  0  0  0  0  0  0
  160.8180  202.6130  148.3760 O   0  0  0  0  0  0  0  0  0  0  0  0
  161.7400  202.2600  151.7810 O   0  0  0  0  0  0  0  0  0  0  0  0
  162.1130  205.9980  152.1520 C   0  0  2  0  0  3  0  0  0  0  0  0
  161.2170  202.7990  150.7680 C   0  0  0  0  0  0  0  0  0  0  0  0
  162.6070  206.6780  151.0050 O   0  0  0  0  0  0  0  0  0  0  0  0
  161.9360  208.3370  149.4010 C   0  0  0  0  0  0  0  0  0  0  0  0
  160.6940  201.9520  149.6370 C   0  0  2  0  0  3  0  0  0  0  0  0
  161.0550  204.2270  150.6950 N   0  0  0  0  0  0  0  0  0  0  0  0
  160.7070  204.4520  144.3610 C   0  0  0  0  0  2  0  0  0  0  0  0
  160.8750  202.5180  145.7340 O   0  0  0  0  0  0  0  0  0  0  0  0
  161.3270  206.7500  147.9520 C   0  0  0  0  0  0  0  0  0  0  0  0
  161.2050  205.8710  144.3520 C   0  0  0  0  0  3  0  0  0  0  0  0
  160.9690  204.5860  146.9330 C   0  0  0  0  0  0  0  0  0  0  0  0
  161.1820  206.1960  149.2030 C   0  0  0  0  0  0  0  0  0  0  0  0
  162.3560  209.4320  149.8550 O   0  0  0  0  0  0  0  0  0  0  0  0
  161.5230  207.1840  150.2620 C   0  0  1  0  0  3  0  0  0  0  0  0
  160.4330  204.3260  153.1360 C   0  0  0  0  0  1  0  0  0  0  0  0
  161.3970  206.5750  145.4690 C   0  0  0  0  0  3  0  0  0  0  0  0
  161.1990  205.9760  146.7990 C   0  0  0  0  0  0  0  0  0  0  0  0
  160.8900  205.0810  151.8910 C   0  0  1  0  0  3  0  0  0  0  0  0
  161.8340  206.9900  153.2790 C   0  0  0  0  0  2  0  0  0  0  0  0
  161.2070  209.3820  153.2950 C   0  0  0  0  0  1  0  0  0  0  0  0
  160.7890  207.9990  152.8450 C   0  0  0  0  0  2  0  0  0  0  0  0
  161.3550  200.5790  149.5670 C   0  0  0  0  0  2  0  0  0  0  0  0
  161.5810  199.8280  147.5040 C   0  0  0  0  0  1  0  0  0  0  0  0
  162.2580  200.5260  148.5030 O   0  0  0  0  0  0  0  0  0  0  0  0
  1  5  1  0  0  0  0
  1  4  1  0  0  0  0
  2 14  2  0  0  0  0
  2 17  1  0  0  0  0
  3 10  1  0  0  0  0
  4 12  1  0  0  0  0
  5 11  1  0  0  0  0
  7 25  1  1  0  0  0
  8  6  2  0  0  0  0
  9  7  1  0  0  0  0
 10 19  2  0  0  0  0
 10 20  1  0  0  0  0
 11 28  1  6  0  0  0
 11  8  1  0  0  0  0
 12  8  1  0  0  0  0
 12 24  1  0  0  0  0
 13  2  1  0  0  0  0
 15  3  1  0  0  0  0
 15 18  1  0  0  0  0
 16 13  1  0  0  0  0
 16 22  2  0  0  0  0
 17  1  2  0  0  0  0
 18  4  2  0  0  0  0
 20 18  1  6  0  0  0
 20  9  1  0  0  0  0
 22 23  1  0  0  0  0
 23 17  1  0  0  0  0
 23 15  2  0  0  0  0
 24  7  1  0  0  0  0
 24 21  1  1  0  0  0
 27 25  1  0  0  0  0
 27 26  1  0  0  0  0
 29 30  1  0  0  0  0
 30 28  1  0  0  0  0
M  END
>  <MODEL>
9

>  <REMARK>
 VINA RESULT:      -6.2      1.726      4.746
  Name = 
  4 active torsions:
  status: ('A' for Active; 'I' for Inactive)
    1  A    between atoms: C_7  and  C_15
    2  A    between atoms: C_11  and  C_28
    3  A    between atoms: C_15  and  C_23
    4  A    between atoms: C_28  and  O_30
                            x       y       z     vdW  Elec       q    Type
                         _______ _______ _______ _____ _____    ______ ____

>  <TORSDO>
F 4

$$$$
