=
 OpenBabel11122412363D

 30 35  0  0  1  0  0  0  0  0999 V2000
  161.3590  205.9980  150.1280 C   0  0  0  0  0  0  0  0  0  0  0  0
  161.0440  203.5030  150.0040 C   0  0  0  0  0  0  0  0  0  0  0  0
  161.0260  205.9240  154.3120 N   0  0  0  0  0  0  0  0  0  0  0  0
  161.4270  207.1770  150.9270 C   0  0  0  0  0  0  0  0  0  0  0  0
  161.5200  206.1260  148.7430 C   0  0  0  0  0  3  0  0  0  0  0  0
  162.0060  209.7690  148.3420 O   0  0  0  0  0  1  0  0  0  0  0  0
  160.3620  209.8500  152.0200 C   0  0  1  0  0  3  0  0  0  0  0  0
  161.7810  208.5240  148.9230 C   0  0  0  0  0  0  0  0  0  0  0  0
  160.3930  209.1050  153.3000 N   0  0  2  0  0  0  0  0  0  0  0  0
  161.2140  207.1720  154.6010 C   0  0  0  0  0  0  0  0  0  0  0  0
  161.7290  207.3590  148.1280 C   0  0  0  0  0  0  0  0  0  0  0  0
  161.6150  208.4400  150.3160 C   0  0  0  0  0  0  0  0  0  0  0  0
  160.8260  202.2930  150.6670 C   0  0  0  0  0  3  0  0  0  0  0  0
  160.6470  210.1220  154.3140 C   0  0  0  0  0  2  0  0  0  0  0  0
  160.0910  211.3110  152.3250 C   0  0  0  0  0  2  0  0  0  0  0  0
  161.1670  203.4650  148.6200 O   0  0  0  0  0  1  0  0  0  0  0  0
  161.0730  205.8240  152.9000 C   0  0  0  0  0  0  0  0  0  0  0  0
  160.6910  202.2520  152.0530 C   0  0  0  0  0  3  0  0  0  0  0  0
  161.1320  204.7190  150.7380 C   0  0  0  0  0  0  0  0  0  0  0  0
  161.2880  207.0400  152.3160 C   0  0  0  0  0  0  0  0  0  0  0  0
  161.2990  207.6330  156.0140 C   0  0  0  0  0  1  0  0  0  0  0  0
  161.4330  208.0670  153.3970 C   0  0  1  0  0  3  0  0  0  0  0  0
  160.0180  211.4030  153.8260 C   0  0  0  0  0  2  0  0  0  0  0  0
  162.9360  210.0430  151.7580 C   0  0  0  0  0  1  0  0  0  0  0  0
  160.7720  203.4270  152.7950 C   0  0  0  0  0  3  0  0  0  0  0  0
  160.9860  204.6520  152.1540 C   0  0  0  0  0  0  0  0  0  0  0  0
  161.5970  209.7220  151.1040 C   0  0  2  0  0  3  0  0  0  0  0  0
  161.8800  207.3610  146.7330 O   0  0  0  0  0  0  0  0  0  0  0  0
  160.4230  206.1070  145.2810 C   0  0  0  0  0  1  0  0  0  0  0  0
  161.8050  206.2110  145.9000 C   0  0  0  0  0  2  0  0  0  0  0  0
  1 19  2  0  0  0  0
  1  4  1  0  0  0  0
  2 13  2  0  0  0  0
  2 19  1  0  0  0  0
  3 10  2  0  0  0  0
  4 20  2  0  0  0  0
  5  1  1  0  0  0  0
  6  8  1  0  0  0  0
  7 15  1  1  0  0  0
  7  9  1  0  0  0  0
  8 12  2  0  0  0  0
  9 22  1  0  0  0  0
  9 14  1  1  0  0  0
 10 21  1  0  0  0  0
 11  5  2  0  0  0  0
 11  8  1  0  0  0  0
 12  4  1  0  0  0  0
 12 27  1  0  0  0  0
 13 18  1  0  0  0  0
 15 23  1  0  0  0  0
 16  2  1  0  0  0  0
 17  3  1  0  0  0  0
 18 25  2  0  0  0  0
 19 26  1  0  0  0  0
 20 17  1  0  0  0  0
 22 20  1  6  0  0  0
 22 10  1  0  0  0  0
 23 14  1  0  0  0  0
 26 25  1  0  0  0  0
 26 17  2  0  0  0  0
 27 24  1  1  0  0  0
 27  7  1  0  0  0  0
 28 11  1  0  0  0  0
 29 30  1  0  0  0  0
 30 28  1  0  0  0  0
M  END
>  <MODEL>
1

>  <REMARK>
 VINA RESULT:      -8.7      0.000      0.000
  Name = 
  2 active torsions:
  status: ('A' for Active; 'I' for Inactive)
    1  A    between atoms: C_11  and  O_28
    2  A    between atoms: O_28  and  C_30
                            x       y       z     vdW  Elec       q    Type
                         _______ _______ _______ _____ _____    ______ ____

>  <TORSDO>
F 2

$$$$
=
 OpenBabel11122412363D

 30 35  0  0  1  0  0  0  0  0999 V2000
  161.4030  207.6490  150.9880 C   0  0  0  0  0  0  0  0  0  0  0  0
  161.3900  205.3750  149.9080 C   0  0  0  0  0  0  0  0  0  0  0  0
  160.6160  205.9660  154.7520 N   0  0  0  0  0  0  0  0  0  0  0  0
  161.2470  208.4370  152.1660 C   0  0  0  0  0  0  0  0  0  0  0  0
  161.7030  208.3050  149.7880 C   0  0  0  0  0  3  0  0  0  0  0  0
  161.8130  211.8490  150.8350 O   0  0  0  0  0  1  0  0  0  0  0  0
  159.7700  210.4190  154.0000 C   0  0  1  0  0  3  0  0  0  0  0  0
  161.6680  210.4650  150.8750 C   0  0  0  0  0  0  0  0  0  0  0  0
  159.7430  209.2460  154.9040 N   0  0  2  0  0  0  0  0  0  0  0  0
  160.6270  207.0190  155.5060 C   0  0  0  0  0  0  0  0  0  0  0  0
  161.8370  209.6900  149.7090 C   0  0  0  0  0  0  0  0  0  0  0  0
  161.3580  209.8460  152.0990 C   0  0  0  0  0  0  0  0  0  0  0  0
  161.2390  203.9930  150.0380 C   0  0  0  0  0  3  0  0  0  0  0  0
  159.7640  209.8140  156.2470 C   0  0  0  0  0  2  0  0  0  0  0  0
  159.3020  211.6340  154.7790 C   0  0  0  0  0  2  0  0  0  0  0  0
  161.6710  205.8750  148.6410 O   0  0  0  0  0  1  0  0  0  0  0  0
  160.8320  206.4140  153.4260 C   0  0  0  0  0  0  0  0  0  0  0  0
  160.9560  203.4180  151.2750 C   0  0  0  0  0  3  0  0  0  0  0  0
  161.2570  206.2230  151.0420 C   0  0  0  0  0  0  0  0  0  0  0  0
  160.9710  207.7730  153.3700 C   0  0  0  0  0  0  0  0  0  0  0  0
  160.5010  206.9120  156.9850 C   0  0  0  0  0  1  0  0  0  0  0  0
  160.8760  208.3170  154.7620 C   0  0  1  0  0  3  0  0  0  0  0  0
  159.0510  211.1420  156.1800 C   0  0  0  0  0  2  0  0  0  0  0  0
  162.3180  210.8590  154.2080 C   0  0  0  0  0  1  0  0  0  0  0  0
  160.8190  204.2250  152.4010 C   0  0  0  0  0  3  0  0  0  0  0  0
  160.9630  205.6120  152.2960 C   0  0  0  0  0  0  0  0  0  0  0  0
  161.1060  210.7280  153.2930 C   0  0  2  0  0  3  0  0  0  0  0  0
  162.1420  210.2330  148.4510 O   0  0  0  0  0  0  0  0  0  0  0  0
  162.8690  212.4110  147.7230 C   0  0  0  0  0  1  0  0  0  0  0  0
  161.6870  211.4910  147.9710 C   0  0  0  0  0  2  0  0  0  0  0  0
  1 19  2  0  0  0  0
  1  4  1  0  0  0  0
  2 13  2  0  0  0  0
  2 19  1  0  0  0  0
  3 10  2  0  0  0  0
  4 20  2  0  0  0  0
  5  1  1  0  0  0  0
  6  8  1  0  0  0  0
  7 15  1  1  0  0  0
  7  9  1  0  0  0  0
  8 12  2  0  0  0  0
  9 14  1  1  0  0  0
 10 21  1  0  0  0  0
 11  5  2  0  0  0  0
 11  8  1  0  0  0  0
 12  4  1  0  0  0  0
 12 27  1  0  0  0  0
 13 18  1  0  0  0  0
 15 23  1  0  0  0  0
 16  2  1  0  0  0  0
 17  3  1  0  0  0  0
 18 25  2  0  0  0  0
 19 26  1  0  0  0  0
 20 17  1  0  0  0  0
 22 20  1  6  0  0  0
 22  9  1  0  0  0  0
 22 10  1  0  0  0  0
 23 14  1  0  0  0  0
 26 25  1  0  0  0  0
 26 17  2  0  0  0  0
 27  7  1  0  0  0  0
 27 24  1  1  0  0  0
 28 11  1  0  0  0  0
 29 30  1  0  0  0  0
 30 28  1  0  0  0  0
M  END
>  <MODEL>
2

>  <REMARK>
 VINA RESULT:      -7.3      1.654      2.615
  Name = 
  2 active torsions:
  status: ('A' for Active; 'I' for Inactive)
    1  A    between atoms: C_11  and  O_28
    2  A    between atoms: O_28  and  C_30
                            x       y       z     vdW  Elec       q    Type
                         _______ _______ _______ _____ _____    ______ ____

>  <TORSDO>
F 2

$$$$
=
 OpenBabel11122412363D

 30 35  0  0  1  0  0  0  0  0999 V2000
  161.4350  207.8740  151.4960 C   0  0  0  0  0  0  0  0  0  0  0  0
  161.5820  210.3340  150.9830 C   0  0  0  0  0  0  0  0  0  0  0  0
  162.2830  206.8970  147.5040 N   0  0  0  0  0  0  0  0  0  0  0  0
  161.4920  206.5280  151.0280 C   0  0  0  0  0  0  0  0  0  0  0  0
  161.1820  208.0920  152.8560 C   0  0  0  0  0  3  0  0  0  0  0  0
  160.8320  204.6470  154.1530 O   0  0  0  0  0  1  0  0  0  0  0  0
  160.2770  203.8100  150.2500 C   0  0  1  0  0  3  0  0  0  0  0  0
  161.0180  205.7160  153.2810 C   0  0  0  0  0  0  0  0  0  0  0  0
  160.8000  204.1870  148.9180 N   0  0  2  0  0  0  0  0  0  0  0  0
  162.3010  205.6030  147.5590 C   0  0  0  0  0  0  0  0  0  0  0  0
  160.9740  207.0450  153.7520 C   0  0  0  0  0  0  0  0  0  0  0  0
  161.2600  205.4550  151.9210 C   0  0  0  0  0  0  0  0  0  0  0  0
  161.7900  211.3480  150.0440 C   0  0  0  0  0  3  0  0  0  0  0  0
  161.1230  202.9190  148.2740 C   0  0  0  0  0  2  0  0  0  0  0  0
  159.8250  202.3620  150.1940 C   0  0  0  0  0  2  0  0  0  0  0  0
  161.3260  210.7160  152.2960 O   0  0  0  0  0  1  0  0  0  0  0  0
  161.9600  207.3550  148.8040 C   0  0  0  0  0  0  0  0  0  0  0  0
  162.0520  211.0430  148.7100 C   0  0  0  0  0  3  0  0  0  0  0  0
  161.6330  208.9680  150.5900 C   0  0  0  0  0  0  0  0  0  0  0  0
  161.7690  206.3150  149.6700 C   0  0  0  0  0  0  0  0  0  0  0  0
  162.6800  204.7840  146.3750 C   0  0  0  0  0  1  0  0  0  0  0  0
  162.0060  205.0330  148.9320 C   0  0  1  0  0  3  0  0  0  0  0  0
  160.1500  201.8930  148.8010 C   0  0  0  0  0  2  0  0  0  0  0  0
  162.5930  203.3860  151.3390 C   0  0  0  0  0  1  0  0  0  0  0  0
  162.1070  209.7150  148.2990 C   0  0  0  0  0  3  0  0  0  0  0  0
  161.8980  208.6820  149.2190 C   0  0  0  0  0  0  0  0  0  0  0  0
  161.2140  204.0230  151.4580 C   0  0  2  0  0  3  0  0  0  0  0  0
  160.7330  207.3880  155.0930 O   0  0  0  0  0  0  0  0  0  0  0  0
  161.9440  208.8140  156.6090 C   0  0  0  0  0  1  0  0  0  0  0  0
  160.7950  208.7050  155.6230 C   0  0  0  0  0  2  0  0  0  0  0  0
  1  5  2  0  0  0  0
  2 16  1  0  0  0  0
  3 10  2  0  0  0  0
  3 17  1  0  0  0  0
  4  1  1  0  0  0  0
  4 12  2  0  0  0  0
  5 11  1  0  0  0  0
  7 15  1  6  0  0  0
  7 27  1  0  0  0  0
  8 11  2  0  0  0  0
  8  6  1  0  0  0  0
  9 14  1  6  0  0  0
  9 22  1  0  0  0  0
  9  7  1  0  0  0  0
 11 28  1  0  0  0  0
 12  8  1  0  0  0  0
 13  2  2  0  0  0  0
 14 23  1  0  0  0  0
 17 26  1  0  0  0  0
 17 20  2  0  0  0  0
 18 13  1  0  0  0  0
 19  2  1  0  0  0  0
 19  1  1  0  0  0  0
 20  4  1  0  0  0  0
 21 10  1  0  0  0  0
 22 10  1  6  0  0  0
 22 20  1  0  0  0  0
 23 15  1  0  0  0  0
 25 18  2  0  0  0  0
 25 26  1  0  0  0  0
 26 19  2  0  0  0  0
 27 24  1  6  0  0  0
 27 12  1  0  0  0  0
 28 30  1  0  0  0  0
 30 29  1  0  0  0  0
M  END
>  <MODEL>
3

>  <REMARK>
 VINA RESULT:      -7.0      2.704      7.246
  Name = 
  2 active torsions:
  status: ('A' for Active; 'I' for Inactive)
    1  A    between atoms: C_11  and  O_28
    2  A    between atoms: O_28  and  C_30
                            x       y       z     vdW  Elec       q    Type
                         _______ _______ _______ _____ _____    ______ ____

>  <TORSDO>
F 2

$$$$
=
 OpenBabel11122412363D

 30 35  0  0  1  0  0  0  0  0999 V2000
  161.4910  207.9990  151.2130 C   0  0  0  0  0  0  0  0  0  0  0  0
  161.4000  208.1930  153.7210 C   0  0  0  0  0  0  0  0  0  0  0  0
  160.5770  203.9070  151.4050 N   0  0  0  0  0  0  0  0  0  0  0  0
  161.3960  207.1760  150.0530 C   0  0  0  0  0  0  0  0  0  0  0  0
  161.7640  209.3610  151.0380 C   0  0  0  0  0  3  0  0  0  0  0  0
  162.0420  209.6420  147.3620 O   0  0  0  0  0  1  0  0  0  0  0  0
  162.5350  205.6520  147.6340 C   0  0  1  0  0  3  0  0  0  0  0  0
  161.8730  209.1050  148.6360 C   0  0  0  0  0  0  0  0  0  0  0  0
  162.0080  204.4860  148.3780 N   0  0  2  0  0  0  0  0  0  0  0  0
  160.5280  203.6010  150.1480 C   0  0  0  0  0  0  0  0  0  0  0  0
  161.9550  209.9270  149.7790 C   0  0  0  0  0  0  0  0  0  0  0  0
  161.6110  207.7310  148.7680 C   0  0  0  0  0  0  0  0  0  0  0  0
  161.2060  207.5770  154.9600 C   0  0  0  0  0  3  0  0  0  0  0  0
  161.6480  203.5200  147.3460 C   0  0  0  0  0  2  0  0  0  0  0  0
  162.9510  205.1880  146.2500 C   0  0  0  0  0  2  0  0  0  0  0  0
  161.6780  209.5560  153.7170 O   0  0  0  0  0  1  0  0  0  0  0  0
  160.9250  205.2780  151.4750 C   0  0  0  0  0  0  0  0  0  0  0  0
  160.9240  206.2160  155.0450 C   0  0  0  0  0  3  0  0  0  0  0  0
  161.3110  207.4360  152.5200 C   0  0  0  0  0  0  0  0  0  0  0  0
  161.1000  205.8170  150.2320 C   0  0  0  0  0  0  0  0  0  0  0  0
  160.1170  202.2420  149.6990 C   0  0  0  0  0  1  0  0  0  0  0  0
  160.8240  204.7560  149.2110 C   0  0  1  0  0  3  0  0  0  0  0  0
  162.6000  203.7240  146.1940 C   0  0  0  0  0  2  0  0  0  0  0  0
  160.2210  206.6190  146.9720 C   0  0  0  0  0  1  0  0  0  0  0  0
  160.8320  205.4520  153.8850 C   0  0  0  0  0  3  0  0  0  0  0  0
  161.0250  206.0440  152.6330 C   0  0  0  0  0  0  0  0  0  0  0  0
  161.6170  206.8870  147.5220 C   0  0  2  0  0  3  0  0  0  0  0  0
  162.2180  211.3060  149.7300 O   0  0  0  0  0  0  0  0  0  0  0  0
  162.3510  213.0630  148.0890 C   0  0  0  0  0  1  0  0  0  0  0  0
  161.4500  212.2600  149.0090 C   0  0  0  0  0  2  0  0  0  0  0  0
  1 19  1  0  0  0  0
  2 13  1  0  0  0  0
  3 17  1  0  0  0  0
  4 20  1  0  0  0  0
  4  1  2  0  0  0  0
  5  1  1  0  0  0  0
  6  8  1  0  0  0  0
  7 15  1  6  0  0  0
  7  9  1  0  0  0  0
  8 12  2  0  0  0  0
  8 11  1  0  0  0  0
  9 14  1  6  0  0  0
  9 22  1  0  0  0  0
 10  3  2  0  0  0  0
 11  5  2  0  0  0  0
 12  4  1  0  0  0  0
 13 18  2  0  0  0  0
 16  2  1  0  0  0  0
 17 26  1  0  0  0  0
 19 26  1  0  0  0  0
 19  2  2  0  0  0  0
 20 17  2  0  0  0  0
 21 10  1  0  0  0  0
 22 10  1  1  0  0  0
 22 20  1  0  0  0  0
 23 15  1  0  0  0  0
 23 14  1  0  0  0  0
 25 18  1  0  0  0  0
 26 25  2  0  0  0  0
 27 24  1  1  0  0  0
 27  7  1  0  0  0  0
 27 12  1  0  0  0  0
 28 11  1  0  0  0  0
 29 30  1  0  0  0  0
 30 28  1  0  0  0  0
M  END
>  <MODEL>
4

>  <REMARK>
 VINA RESULT:      -6.9      2.256      5.658
  Name = 
  2 active torsions:
  status: ('A' for Active; 'I' for Inactive)
    1  A    between atoms: C_11  and  O_28
    2  A    between atoms: O_28  and  C_30
                            x       y       z     vdW  Elec       q    Type
                         _______ _______ _______ _____ _____    ______ ____

>  <TORSDO>
F 2

$$$$
=
 OpenBabel11122412363D

 30 35  0  0  1  0  0  0  0  0999 V2000
  161.2280  208.8350  151.9910 C   0  0  0  0  0  0  0  0  0  0  0  0
  162.0940  208.8190  149.6270 C   0  0  0  0  0  0  0  0  0  0  0  0
  160.1220  212.8700  151.6560 N   0  0  0  0  0  0  0  0  0  0  0  0
  160.6390  209.5640  153.0660 C   0  0  0  0  0  0  0  0  0  0  0  0
  161.5250  207.4810  152.1930 C   0  0  0  0  0  3  0  0  0  0  0  0
  160.4340  206.9500  155.6850 O   0  0  0  0  0  1  0  0  0  0  0  0
  160.6660  210.9710  155.8030 C   0  0  1  0  0  3  0  0  0  0  0  0
  160.7090  207.5670  154.4680 C   0  0  0  0  0  0  0  0  0  0  0  0
  160.3620  212.1560  154.9690 N   0  0  2  0  0  0  0  0  0  0  0  0
  159.5820  213.0800  152.8140 C   0  0  0  0  0  0  0  0  0  0  0  0
  161.2780  206.8370  153.4030 C   0  0  0  0  0  0  0  0  0  0  0  0
  160.4040  208.9300  154.3090 C   0  0  0  0  0  0  0  0  0  0  0  0
  162.3280  209.5120  148.4370 C   0  0  0  0  0  3  0  0  0  0  0  0
  159.5650  213.0200  155.8320 C   0  0  0  0  0  2  0  0  0  0  0  0
  160.4960  211.3560  157.2610 C   0  0  0  0  0  2  0  0  0  0  0  0
  162.4610  207.4790  149.6740 O   0  0  0  0  0  1  0  0  0  0  0  0
  160.5810  211.5300  151.6590 C   0  0  0  0  0  0  0  0  0  0  0  0
  161.9870  210.8570  148.3140 C   0  0  0  0  0  3  0  0  0  0  0  0
  161.5030  209.4800  150.7400 C   0  0  0  0  0  0  0  0  0  0  0  0
  160.3220  210.9120  152.8510 C   0  0  0  0  0  0  0  0  0  0  0  0
  158.9240  214.3760  153.1370 C   0  0  0  0  0  1  0  0  0  0  0  0
  159.6000  211.8790  153.7390 C   0  0  1  0  0  3  0  0  0  0  0  0
  160.0320  212.7890  157.2470 C   0  0  0  0  0  2  0  0  0  0  0  0
  158.3590  209.8250  155.4980 C   0  0  0  0  0  1  0  0  0  0  0  0
  161.4080  211.5280  149.3870 C   0  0  0  0  0  3  0  0  0  0  0  0
  161.1670  210.8570  150.5910 C   0  0  0  0  0  0  0  0  0  0  0  0
  159.8760  209.6800  155.5030 C   0  0  2  0  0  3  0  0  0  0  0  0
  161.6150  205.4770  153.4850 O   0  0  0  0  0  0  0  0  0  0  0  0
  161.6530  204.0430  151.5500 C   0  0  0  0  0  1  0  0  0  0  0  0
  160.9250  204.4220  152.8270 C   0  0  0  0  0  2  0  0  0  0  0  0
  1  5  2  0  0  0  0
  1  4  1  0  0  0  0
  2 16  1  0  0  0  0
  2 19  1  0  0  0  0
  3 17  1  0  0  0  0
  3 10  2  0  0  0  0
  4 12  2  0  0  0  0
  5 11  1  0  0  0  0
  7 15  1  1  0  0  0
  8  6  1  0  0  0  0
  9  7  1  0  0  0  0
  9 14  1  1  0  0  0
 10 21  1  0  0  0  0
 11 28  1  0  0  0  0
 11  8  2  0  0  0  0
 12  8  1  0  0  0  0
 12 27  1  0  0  0  0
 13  2  2  0  0  0  0
 14 23  1  0  0  0  0
 17 20  2  0  0  0  0
 18 13  1  0  0  0  0
 18 25  2  0  0  0  0
 19  1  1  0  0  0  0
 20  4  1  0  0  0  0
 20 22  1  0  0  0  0
 22 10  1  6  0  0  0
 22  9  1  0  0  0  0
 23 15  1  0  0  0  0
 25 26  1  0  0  0  0
 26 19  2  0  0  0  0
 26 17  1  0  0  0  0
 27 24  1  6  0  0  0
 27  7  1  0  0  0  0
 29 30  1  0  0  0  0
 30 28  1  0  0  0  0
M  END
>  <MODEL>
5

>  <REMARK>
 VINA RESULT:      -5.8      2.642      5.843
  Name = 
  2 active torsions:
  status: ('A' for Active; 'I' for Inactive)
    1  A    between atoms: C_11  and  O_28
    2  A    between atoms: O_28  and  C_30
                            x       y       z     vdW  Elec       q    Type
                         _______ _______ _______ _____ _____    ______ ____

>  <TORSDO>
F 2

$$$$
