=
 OpenBabel11122413493D

 37 42  0  0  1  0  0  0  0  0999 V2000
  161.3070  205.9910  149.3660 C   0  0  0  0  0  0  0  0  0  0  0  0
  161.3370  207.4210  153.2600 C   0  0  0  0  0  0  0  0  0  0  0  0
  159.8650  210.3880  153.8900 C   0  0  0  0  0  2  0  0  0  0  0  0
  161.2470  205.4590  151.8600 C   0  0  0  0  0  0  0  0  0  0  0  0
  161.6060  208.7630  153.0330 C   0  0  0  0  0  0  0  0  0  0  0  0
  159.5390  212.5220  150.8980 C   0  0  0  0  0  0  0  0  0  0  0  0
  161.5060  206.7940  152.0710 C   0  0  0  0  0  0  0  0  0  0  0  0
  161.3050  209.8830  153.9970 C   0  0  2  0  0  3  0  0  0  0  0  0
  160.8260  204.7000  152.9680 C   0  0  0  0  0  3  0  0  0  0  0  0
  160.3030  213.4480  150.1190 N   0  0  0  0  0  2  0  0  0  0  0  0
  161.8250  207.7130  151.1320 C   0  0  0  0  0  0  0  0  0  0  0  0
  159.8290  206.2610  149.1360 C   0  0  0  0  0  1  0  0  0  0  0  0
  160.6990  207.3980  155.6960 C   0  0  0  0  0  2  0  0  0  0  0  0
  160.6510  205.3330  154.2290 C   0  0  0  0  0  3  0  0  0  0  0  0
  162.0230  207.3320  149.6930 C   0  0  0  0  0  2  0  0  0  0  0  0
  160.2050  211.5350  151.6990 N   0  0  0  0  0  0  0  0  0  0  0  0
  159.4050  210.5530  152.4370 C   0  0  0  0  0  2  0  0  0  0  0  0
  160.9030  206.7160  154.3840 C   0  0  0  0  0  0  0  0  0  0  0  0
  161.8750  208.9420  151.7000 N   0  0  0  0  0  0  0  0  0  0  0  0
  161.4620  204.9070  150.4740 C   0  0  0  0  0  2  0  0  0  0  0  0
  161.7480  209.7100  155.4640 C   0  0  1  0  0  3  0  0  0  0  0  0
  161.8880  205.4450  148.0810 C   0  0  0  0  0  1  0  0  0  0  0  0
  161.6660  211.4510  151.6580 C   0  0  0  0  0  2  0  0  0  0  0  0
  158.2790  212.5780  150.8840 O   0  0  0  0  0  0  0  0  0  0  0  0
  162.1540  210.1800  150.9590 C   0  0  0  0  0  2  0  0  0  0  0  0
  161.8980  208.2820  156.0100 C   0  0  0  0  0  2  0  0  0  0  0  0
  163.1760  211.0730  156.9950 C   0  0  0  0  0  3  0  0  0  0  0  0
  162.9840  210.5050  155.7300 C   0  0  0  0  0  0  0  0  0  0  0  0
  163.9490  210.6980  154.7300 C   0  0  0  0  0  3  0  0  0  0  0  0
  166.1120  211.6570  153.9320 C   0  0  0  0  0  1  0  0  0  0  0  0
  165.2810  212.0170  156.2590 C   0  0  0  0  0  3  0  0  0  0  0  0
  165.0940  211.4530  154.9950 C   0  0  0  0  0  0  0  0  0  0  0  0
  164.3230  211.8280  157.2590 C   0  0  0  0  0  3  0  0  0  0  0  0
  158.1730  214.3730  149.3420 C   0  0  0  0  0  1  0  0  0  0  0  0
  159.6900  214.4520  149.2580 C   0  0  2  0  0  3  0  0  0  0  0  0
  161.2770  213.2560  147.6890 C   0  0  0  0  0  1  0  0  0  0  0  0
  160.1680  214.2900  147.8180 C   0  0  0  0  0  2  0  0  0  0  0  0
  1 15  1  0  0  0  0
  1 20  1  0  0  0  0
  2 18  1  0  0  0  0
  4  7  1  0  0  0  0
  4  9  2  0  0  0  0
  5  2  2  0  0  0  0
  5  8  1  0  0  0  0
  6 16  1  0  0  0  0
  7  2  1  0  0  0  0
  8  3  1  1  0  0  0
  8 21  1  0  0  0  0
  9 14  1  0  0  0  0
 10  6  1  0  0  0  0
 11 19  1  0  0  0  0
 11  7  2  0  0  0  0
 12  1  1  0  0  0  0
 13 26  1  0  0  0  0
 14 18  2  0  0  0  0
 15 11  1  0  0  0  0
 16 17  1  0  0  0  0
 17  3  1  0  0  0  0
 18 13  1  0  0  0  0
 19  5  1  0  0  0  0
 20  4  1  0  0  0  0
 21 28  1  6  0  0  0
 21 26  1  0  0  0  0
 22  1  1  0  0  0  0
 23 16  1  0  0  0  0
 24  6  2  0  0  0  0
 25 23  1  0  0  0  0
 25 19  1  0  0  0  0
 27 33  1  0  0  0  0
 28 27  2  0  0  0  0
 29 32  2  0  0  0  0
 29 28  1  0  0  0  0
 30 32  1  0  0  0  0
 31 33  2  0  0  0  0
 32 31  1  0  0  0  0
 35 34  1  6  0  0  0
 35 10  1  0  0  0  0
 36 37  1  0  0  0  0
 37 35  1  0  0  0  0
M  END
>  <MODEL>
1

>  <REMARK>
 VINA RESULT:      -2.6      0.000      0.000
  Name = 
  3 active torsions:
  status: ('A' for Active; 'I' for Inactive)
    1  A    between atoms: C_4  and  N_12
    2  A    between atoms: C_4  and  C_37
    3  A    between atoms: C_23  and  C_30
                            x       y       z     vdW  Elec       q    Type
                         _______ _______ _______ _____ _____    ______ ____

>  <TORSDO>
F 3

$$$$
