=
 OpenBabel11122413153D

 31 35  0  0  1  0  0  0  0  0999 V2000
  160.8210  208.8420  154.5570 C   0  0  0  0  0  0  0  0  0  0  0  0
  162.2550  209.9530  151.2290 C   0  0  2  0  0  3  0  0  0  0  0  0
  161.7390  208.8220  150.3460 C   0  0  0  0  0  0  0  0  0  0  0  0
  160.8800  206.5640  150.0580 C   0  0  0  0  0  0  0  0  0  0  0  0
  161.5470  210.1050  152.5820 C   0  0  2  0  0  3  0  0  0  0  0  0
  159.7270  209.8250  154.7220 C   0  0  0  0  0  3  0  0  0  0  0  0
  161.3140  207.6000  150.8890 C   0  0  0  0  0  3  0  0  0  0  0  0
  160.7440  211.7330  150.3430 N   0  0  0  0  0  0  0  0  0  0  0  0
  160.9740  207.7340  155.5360 C   0  0  0  0  0  1  0  0  0  0  0  0
  162.2230  210.1610  148.3670 O   0  0  0  0  0  0  0  0  0  0  0  0
  160.4180  205.2820  150.6500 C   0  0  0  0  0  1  0  0  0  0  0  0
  160.1090  211.8820  151.6590 C   0  0  0  0  0  2  0  0  0  0  0  0
  162.1550  211.3170  150.5030 C   0  0  2  0  0  3  0  0  0  0  0  0
  161.6690  208.9400  153.5270 C   0  0  0  0  0  3  0  0  0  0  0  0
  160.8830  206.7330  148.6720 C   0  0  0  0  0  3  0  0  0  0  0  0
  160.0970  210.5510  152.3950 C   0  0  2  0  0  3  0  0  0  0  0  0
  159.4080  210.6630  153.7270 C   0  0  0  0  0  3  0  0  0  0  0  0
  162.8510  211.1790  149.1440 C   0  0  0  0  0  2  0  0  0  0  0  0
  161.7710  208.9700  148.9430 C   0  0  0  0  0  0  0  0  0  0  0  0
  161.3290  207.9330  148.1160 C   0  0  0  0  0  3  0  0  0  0  0  0
  160.7060  213.0580  149.7350 C   0  0  0  0  0  2  0  0  0  0  0  0
  158.4770  212.9940  148.9240 O   0  0  0  0  0  0  0  0  0  0  0  0
  159.7000  213.0720  148.6290 C   0  0  0  0  0  0  0  0  0  0  0  0
  160.8090  213.1290  144.5110 N   0  0  0  0  0  0  0  0  0  0  0  0
  159.1810  212.5680  146.2380 C   0  0  0  0  0  2  0  0  0  0  0  0
  161.9940  214.4510  147.5670 O   0  0  0  0  0  0  0  0  0  0  0  0
  161.4150  212.6320  143.2890 C   0  0  0  0  0  1  0  0  0  0  0  0
  159.9360  212.0690  145.0090 C   0  0  0  0  0  2  0  0  0  0  0  0
  161.3490  213.6700  146.8190 C   0  0  0  0  0  0  0  0  0  0  0  0
  160.1090  213.0750  147.2510 N   0  0  0  0  0  0  0  0  0  0  0  0
  161.8960  213.3240  145.4680 C   0  0  0  0  0  2  0  0  0  0  0  0
  1  6  1  0  0  0  0
  1  9  1  0  0  0  0
  2  3  1  6  0  0  0
  2  5  1  0  0  0  0
  3  7  1  0  0  0  0
  4 11  1  0  0  0  0
  4  7  2  0  0  0  0
  5 14  1  6  0  0  0
  8 13  1  0  0  0  0
  8 12  1  0  0  0  0
 10 19  1  0  0  0  0
 10 18  1  0  0  0  0
 13 18  1  6  0  0  0
 13  2  1  0  0  0  0
 14  1  2  0  0  0  0
 15  4  1  0  0  0  0
 16 12  1  1  0  0  0
 16  5  1  0  0  0  0
 16 17  1  0  0  0  0
 17  6  2  0  0  0  0
 19  3  2  0  0  0  0
 20 15  2  0  0  0  0
 20 19  1  0  0  0  0
 21  8  1  0  0  0  0
 23 22  2  0  0  0  0
 23 21  1  0  0  0  0
 24 28  1  0  0  0  0
 24 31  1  0  0  0  0
 25 30  1  0  0  0  0
 27 24  1  0  0  0  0
 28 25  1  0  0  0  0
 29 30  1  0  0  0  0
 29 26  2  0  0  0  0
 30 23  1  0  0  0  0
 31 29  1  0  0  0  0
M  END
>  <MODEL>
1

>  <REMARK>
 VINA RESULT:      -5.8      0.000      0.000
  Name = 
  2 active torsions:
  status: ('A' for Active; 'I' for Inactive)
    1  A    between atoms: C_5  and  C_16
    2  A    between atoms: N_10  and  C_16
                            x       y       z     vdW  Elec       q    Type
                         _______ _______ _______ _____ _____    ______ ____

>  <TORSDO>
F 2

$$$$
=
 OpenBabel11122413153D

 31 35  0  0  1  0  0  0  0  0999 V2000
  161.4370  207.5990  152.3840 C   0  0  0  0  0  0  0  0  0  0  0  0
  159.3560  210.6320  153.2980 C   0  0  2  0  0  3  0  0  0  0  0  0
  160.0680  211.0450  154.5820 C   0  0  0  0  0  0  0  0  0  0  0  0
  161.5030  210.5410  156.4800 C   0  0  0  0  0  0  0  0  0  0  0  0
  160.1460  209.6860  152.3840 C   0  0  2  0  0  3  0  0  0  0  0  0
  162.2110  208.1360  151.2430 C   0  0  0  0  0  3  0  0  0  0  0  0
  160.8910  210.1530  155.2860 C   0  0  0  0  0  3  0  0  0  0  0  0
  160.1700  212.5250  151.8870 N   0  0  0  0  0  0  0  0  0  0  0  0
  161.7290  206.2360  152.9010 C   0  0  0  0  0  1  0  0  0  0  0  0
  158.9850  213.2260  154.4700 O   0  0  0  0  0  0  0  0  0  0  0  0
  162.3840  209.5890  157.2050 C   0  0  0  0  0  1  0  0  0  0  0  0
  160.8860  211.5930  151.0080 C   0  0  0  0  0  2  0  0  0  0  0  0
  158.9690  211.8710  152.4520 C   0  0  2  0  0  3  0  0  0  0  0  0
  160.4800  208.3370  152.9590 C   0  0  0  0  0  3  0  0  0  0  0  0
  161.2860  211.8210  156.9930 C   0  0  0  0  0  3  0  0  0  0  0  0
  161.3710  210.3870  151.7980 C   0  0  2  0  0  3  0  0  0  0  0  0
  162.1520  209.4370  150.9310 C   0  0  0  0  0  3  0  0  0  0  0  0
  158.1860  212.8310  153.3550 C   0  0  0  0  0  2  0  0  0  0  0  0
  159.8280  212.3250  155.1260 C   0  0  0  0  0  0  0  0  0  0  0  0
  160.4490  212.7110  156.3170 C   0  0  0  0  0  3  0  0  0  0  0  0
  159.7500  213.6290  151.0320 C   0  0  0  0  0  2  0  0  0  0  0  0
  161.2810  212.9910  149.3350 O   0  0  0  0  0  0  0  0  0  0  0  0
  160.0960  213.3220  149.6100 C   0  0  0  0  0  0  0  0  0  0  0  0
  157.3010  213.7490  146.4160 N   0  0  0  0  0  0  0  0  0  0  0  0
  159.6150  213.7000  147.1880 C   0  0  0  0  0  2  0  0  0  0  0  0
  157.2740  212.7920  149.8190 O   0  0  0  0  0  0  0  0  0  0  0  0
  156.3950  214.4510  145.5270 C   0  0  0  0  0  1  0  0  0  0  0  0
  158.5790  214.4530  146.3570 C   0  0  0  0  0  2  0  0  0  0  0  0
  157.7170  213.3440  148.7780 C   0  0  0  0  0  0  0  0  0  0  0  0
  159.1340  213.4920  148.5560 N   0  0  0  0  0  0  0  0  0  0  0  0
  156.7560  213.8880  147.7650 C   0  0  0  0  0  2  0  0  0  0  0  0
  1  9  1  0  0  0  0
  1 14  2  0  0  0  0
  2  3  1  1  0  0  0
  3 19  2  0  0  0  0
  3  7  1  0  0  0  0
  4 15  1  0  0  0  0
  4 11  1  0  0  0  0
  5 14  1  1  0  0  0
  5  2  1  0  0  0  0
  6  1  1  0  0  0  0
  7  4  2  0  0  0  0
  8 13  1  0  0  0  0
 10 19  1  0  0  0  0
 12 16  1  0  0  0  0
 12  8  1  0  0  0  0
 13  2  1  0  0  0  0
 13 18  1  1  0  0  0
 16 17  1  6  0  0  0
 16  5  1  0  0  0  0
 17  6  2  0  0  0  0
 18 10  1  0  0  0  0
 19 20  1  0  0  0  0
 20 15  2  0  0  0  0
 21  8  1  0  0  0  0
 22 23  2  0  0  0  0
 23 21  1  0  0  0  0
 24 31  1  0  0  0  0
 25 30  1  0  0  0  0
 27 24  1  0  0  0  0
 28 24  1  0  0  0  0
 28 25  1  0  0  0  0
 29 26  2  0  0  0  0
 30 29  1  0  0  0  0
 30 23  1  0  0  0  0
 31 29  1  0  0  0  0
M  END
>  <MODEL>
2

>  <REMARK>
 VINA RESULT:      -4.9      2.263      4.956
  Name = 
  2 active torsions:
  status: ('A' for Active; 'I' for Inactive)
    1  A    between atoms: C_5  and  C_16
    2  A    between atoms: N_10  and  C_16
                            x       y       z     vdW  Elec       q    Type
                         _______ _______ _______ _____ _____    ______ ____

>  <TORSDO>
F 2

$$$$
=
 OpenBabel11122413153D

 31 35  0  0  1  0  0  0  0  0999 V2000
  161.1670  203.4640  145.6020 C   0  0  0  0  0  0  0  0  0  0  0  0
  160.2660  205.4290  148.7140 C   0  0  2  0  0  3  0  0  0  0  0  0
  160.6850  204.4190  149.7770 C   0  0  0  0  0  0  0  0  0  0  0  0
  161.2060  202.1460  150.4690 C   0  0  0  0  0  0  0  0  0  0  0  0
  160.8490  205.1910  147.3150 C   0  0  2  0  0  3  0  0  0  0  0  0
  162.3790  204.1920  145.1640 C   0  0  0  0  0  3  0  0  0  0  0  0
  160.8580  203.0610  149.4720 C   0  0  0  0  0  3  0  0  0  0  0  0
  162.1170  207.0580  149.1080 N   0  0  0  0  0  0  0  0  0  0  0  0
  160.7450  202.2310  144.8860 C   0  0  0  0  0  1  0  0  0  0  0  0
  160.6170  206.1790  151.4630 O   0  0  0  0  0  0  0  0  0  0  0  0
  161.4000  200.7130  150.1270 C   0  0  0  0  0  1  0  0  0  0  0  0
  162.6320  206.8370  147.7510 C   0  0  0  0  0  2  0  0  0  0  0  0
  160.6500  206.8710  149.1330 C   0  0  2  0  0  3  0  0  0  0  0  0
  160.4530  203.9050  146.6430 C   0  0  0  0  0  3  0  0  0  0  0  0
  161.3690  202.5770  151.7870 C   0  0  0  0  0  3  0  0  0  0  0  0
  162.3620  205.4080  147.3080 C   0  0  2  0  0  3  0  0  0  0  0  0
  162.9230  205.1390  145.9390 C   0  0  0  0  0  3  0  0  0  0  0  0
  160.0810  207.1200  150.5350 C   0  0  0  0  0  2  0  0  0  0  0  0
  160.8180  204.8390  151.1180 C   0  0  0  0  0  0  0  0  0  0  0  0
  161.1740  203.9220  152.1100 C   0  0  0  0  0  3  0  0  0  0  0  0
  162.4220  208.4490  149.4240 C   0  0  0  0  0  2  0  0  0  0  0  0
  163.0810  207.7630  151.5980 O   0  0  0  0  0  0  0  0  0  0  0  0
  162.4740  208.6260  150.9080 C   0  0  0  0  0  0  0  0  0  0  0  0
  160.4510  211.7970  152.9190 N   0  0  0  0  0  0  0  0  0  0  0  0
  161.3990  209.5500  152.9650 C   0  0  0  0  0  2  0  0  0  0  0  0
  162.1340  211.2830  149.8530 O   0  0  0  0  0  0  0  0  0  0  0  0
  159.3110  212.5790  153.3600 C   0  0  0  0  0  1  0  0  0  0  0  0
  160.1860  210.4130  153.3030 C   0  0  0  0  0  2  0  0  0  0  0  0
  161.5160  210.9570  150.9010 C   0  0  0  0  0  0  0  0  0  0  0  0
  161.7670  209.6970  151.5550 N   0  0  0  0  0  0  0  0  0  0  0  0
  160.4750  211.8780  151.4600 C   0  0  0  0  0  2  0  0  0  0  0  0
  1 14  2  0  0  0  0
  2 13  1  0  0  0  0
  2  3  1  1  0  0  0
  3 19  1  0  0  0  0
  4 15  2  0  0  0  0
  5 14  1  1  0  0  0
  5  2  1  0  0  0  0
  6  1  1  0  0  0  0
  6 17  2  0  0  0  0
  7  3  2  0  0  0  0
  7  4  1  0  0  0  0
  8 13  1  0  0  0  0
  8 21  1  0  0  0  0
  9  1  1  0  0  0  0
 11  4  1  0  0  0  0
 12  8  1  0  0  0  0
 13 18  1  1  0  0  0
 15 20  1  0  0  0  0
 16 17  1  6  0  0  0
 16  5  1  0  0  0  0
 16 12  1  0  0  0  0
 18 10  1  0  0  0  0
 19 10  1  0  0  0  0
 19 20  2  0  0  0  0
 21 23  1  0  0  0  0
 23 30  1  0  0  0  0
 23 22  2  0  0  0  0
 24 28  1  0  0  0  0
 24 27  1  0  0  0  0
 25 28  1  0  0  0  0
 26 29  2  0  0  0  0
 29 31  1  0  0  0  0
 29 30  1  0  0  0  0
 30 25  1  0  0  0  0
 31 24  1  0  0  0  0
M  END
>  <MODEL>
3

>  <REMARK>
 VINA RESULT:      -4.3      3.437      7.079
  Name = 
  2 active torsions:
  status: ('A' for Active; 'I' for Inactive)
    1  A    between atoms: C_5  and  C_16
    2  A    between atoms: N_10  and  C_16
                            x       y       z     vdW  Elec       q    Type
                         _______ _______ _______ _____ _____    ______ ____

>  <TORSDO>
F 2

$$$$
=
 OpenBabel11122413153D

 31 35  0  0  1  0  0  0  0  0999 V2000
  161.3590  201.1760  148.8270 C   0  0  0  0  0  0  0  0  0  0  0  0
  162.2350  204.8000  148.1510 C   0  0  2  0  0  3  0  0  0  0  0  0
  161.4120  205.0230  146.8860 C   0  0  0  0  0  0  0  0  0  0  0  0
  160.2290  204.1780  144.9360 C   0  0  0  0  0  0  0  0  0  0  0  0
  161.8350  203.5780  148.9870 C   0  0  2  0  0  3  0  0  0  0  0  0
  160.4560  201.3280  149.9900 C   0  0  0  0  0  3  0  0  0  0  0  0
  160.9490  203.9500  146.1120 C   0  0  0  0  0  3  0  0  0  0  0  0
  160.8220  206.1870  149.6720 N   0  0  0  0  0  0  0  0  0  0  0  0
  161.5580  199.8350  148.2160 C   0  0  0  0  0  1  0  0  0  0  0  0
  161.6630  207.4330  147.1610 O   0  0  0  0  0  0  0  0  0  0  0  0
  159.7310  203.0300  144.1360 C   0  0  0  0  0  1  0  0  0  0  0  0
  160.4860  205.0050  150.4760 C   0  0  0  0  0  2  0  0  0  0  0  0
  162.1710  206.0360  149.0830 C   0  0  2  0  0  3  0  0  0  0  0  0
  161.9910  202.2390  148.3180 C   0  0  0  0  0  3  0  0  0  0  0  0
  159.9780  205.4850  144.5140 C   0  0  0  0  0  3  0  0  0  0  0  0
  160.4470  203.7620  149.6000 C   0  0  2  0  0  3  0  0  0  0  0  0
  160.0570  202.5430  150.3890 C   0  0  0  0  0  3  0  0  0  0  0  0
  162.5590  207.2680  148.2580 C   0  0  0  0  0  2  0  0  0  0  0  0
  161.1840  206.3400  146.4330 C   0  0  0  0  0  0  0  0  0  0  0  0
  160.4560  206.5640  145.2600 C   0  0  0  0  0  3  0  0  0  0  0  0
  160.8350  207.3070  150.6060 C   0  0  0  0  0  2  0  0  0  0  0  0
  162.0650  205.7830  151.9450 O   0  0  0  0  0  0  0  0  0  0  0  0
  161.4230  206.8680  151.9080 C   0  0  0  0  0  0  0  0  0  0  0  0
  160.8180  209.0090  155.5470 N   0  0  0  0  0  0  0  0  0  0  0  0
  161.3030  206.9100  154.4030 C   0  0  0  0  0  2  0  0  0  0  0  0
  161.2260  209.7330  152.1110 O   0  0  0  0  0  0  0  0  0  0  0  0
  160.0590  209.5770  156.6450 C   0  0  0  0  0  1  0  0  0  0  0  0
  160.4560  207.5960  155.4710 C   0  0  0  0  0  2  0  0  0  0  0  0
  160.9560  209.0280  153.1190 C   0  0  0  0  0  0  0  0  0  0  0  0
  161.1860  207.6050  153.1190 N   0  0  0  0  0  0  0  0  0  0  0  0
  160.3540  209.6720  154.3300 C   0  0  0  0  0  2  0  0  0  0  0  0
  1  6  1  0  0  0  0
  2  3  1  6  0  0  0
  2  5  1  0  0  0  0
  2 13  1  0  0  0  0
  4  7  1  0  0  0  0
  5 14  1  6  0  0  0
  5 16  1  0  0  0  0
  6 17  2  0  0  0  0
  7  3  2  0  0  0  0
  8 12  1  0  0  0  0
  8 21  1  0  0  0  0
  9  1  1  0  0  0  0
 10 18  1  0  0  0  0
 11  4  1  0  0  0  0
 13 18  1  6  0  0  0
 13  8  1  0  0  0  0
 14  1  2  0  0  0  0
 15  4  2  0  0  0  0
 15 20  1  0  0  0  0
 16 17  1  1  0  0  0
 16 12  1  0  0  0  0
 19  3  1  0  0  0  0
 19 10  1  0  0  0  0
 20 19  2  0  0  0  0
 21 23  1  0  0  0  0
 23 22  2  0  0  0  0
 23 30  1  0  0  0  0
 24 27  1  0  0  0  0
 25 28  1  0  0  0  0
 26 29  2  0  0  0  0
 28 24  1  0  0  0  0
 29 30  1  0  0  0  0
 29 31  1  0  0  0  0
 30 25  1  0  0  0  0
 31 24  1  0  0  0  0
M  END
>  <MODEL>
4

>  <REMARK>
 VINA RESULT:      -4.1      4.290      7.843
  Name = 
  2 active torsions:
  status: ('A' for Active; 'I' for Inactive)
    1  A    between atoms: C_5  and  C_16
    2  A    between atoms: N_10  and  C_16
                            x       y       z     vdW  Elec       q    Type
                         _______ _______ _______ _____ _____    ______ ____

>  <TORSDO>
F 2

$$$$
=
 OpenBabel11122413153D

 31 35  0  0  1  0  0  0  0  0999 V2000
  161.3240  213.0760  147.7500 C   0  0  0  0  0  0  0  0  0  0  0  0
  161.9990  211.2590  151.0070 C   0  0  2  0  0  3  0  0  0  0  0  0
  160.6430  211.4450  151.6810 C   0  0  0  0  0  0  0  0  0  0  0  0
  158.5230  212.6130  151.9180 C   0  0  0  0  0  0  0  0  0  0  0  0
  162.0150  211.4890  149.4900 C   0  0  2  0  0  3  0  0  0  0  0  0
  161.2160  211.9310  146.8190 C   0  0  0  0  0  3  0  0  0  0  0  0
  159.7430  212.4360  151.2610 C   0  0  0  0  0  3  0  0  0  0  0  0
  161.7640  208.8170  150.5400 N   0  0  0  0  0  0  0  0  0  0  0  0
  161.0440  214.4530  147.2650 C   0  0  0  0  0  1  0  0  0  0  0  0
  161.2080  209.6910  153.2770 O   0  0  0  0  0  0  0  0  0  0  0  0
  157.5740  213.6560  151.4510 C   0  0  0  0  0  1  0  0  0  0  0  0
  161.8190  209.0640  149.0940 C   0  0  0  0  0  2  0  0  0  0  0  0
  162.5580  209.8370  151.2610 C   0  0  2  0  0  3  0  0  0  0  0  0
  161.6660  212.8780  149.0280 C   0  0  0  0  0  3  0  0  0  0  0  0
  158.1960  211.8110  153.0120 C   0  0  0  0  0  3  0  0  0  0  0  0
  161.2050  210.4160  148.7640 C   0  0  2  0  0  3  0  0  0  0  0  0
  161.2040  210.6740  147.2820 C   0  0  0  0  0  3  0  0  0  0  0  0
  162.5390  209.5880  152.7740 C   0  0  0  0  0  2  0  0  0  0  0  0
  160.3190  210.6620  152.8100 C   0  0  0  0  0  0  0  0  0  0  0  0
  159.0930  210.8380  153.4580 C   0  0  0  0  0  3  0  0  0  0  0  0
  162.3790  207.5100  150.7400 C   0  0  0  0  0  2  0  0  0  0  0  0
  160.8180  206.8290  152.3920 O   0  0  0  0  0  0  0  0  0  0  0  0
  161.3660  206.5580  151.2890 C   0  0  0  0  0  0  0  0  0  0  0  0
  160.4250  202.8530  149.3970 N   0  0  0  0  0  0  0  0  0  0  0  0
  160.5260  204.2090  151.4220 C   0  0  0  0  0  2  0  0  0  0  0  0
  161.3140  206.1380  148.4410 O   0  0  0  0  0  0  0  0  0  0  0  0
  160.6770  201.5180  148.8870 C   0  0  0  0  0  1  0  0  0  0  0  0
  160.8650  202.8620  150.7900 C   0  0  0  0  0  2  0  0  0  0  0  0
  161.2180  205.1430  149.2080 C   0  0  0  0  0  0  0  0  0  0  0  0
  161.0840  205.3100  150.6340 N   0  0  0  0  0  0  0  0  0  0  0  0
  161.2790  203.7610  148.6350 C   0  0  0  0  0  2  0  0  0  0  0  0
  1 14  2  0  0  0  0
  2 13  1  0  0  0  0
  2  3  1  6  0  0  0
  3 19  1  0  0  0  0
  4 15  2  0  0  0  0
  5 14  1  1  0  0  0
  5  2  1  0  0  0  0
  6 17  2  0  0  0  0
  6  1  1  0  0  0  0
  7  3  2  0  0  0  0
  7  4  1  0  0  0  0
  8 21  1  0  0  0  0
  8 13  1  0  0  0  0
  9  1  1  0  0  0  0
 11  4  1  0  0  0  0
 12  8  1  0  0  0  0
 13 18  1  1  0  0  0
 15 20  1  0  0  0  0
 16 17  1  6  0  0  0
 16 12  1  0  0  0  0
 16  5  1  0  0  0  0
 18 10  1  0  0  0  0
 19 10  1  0  0  0  0
 19 20  2  0  0  0  0
 21 23  1  0  0  0  0
 23 22  2  0  0  0  0
 24 28  1  0  0  0  0
 26 29  2  0  0  0  0
 27 24  1  0  0  0  0
 28 25  1  0  0  0  0
 29 30  1  0  0  0  0
 30 23  1  0  0  0  0
 30 25  1  0  0  0  0
 31 29  1  0  0  0  0
 31 24  1  0  0  0  0
M  END
>  <MODEL>
5

>  <REMARK>
 VINA RESULT:      -3.8      3.007      7.338
  Name = 
  2 active torsions:
  status: ('A' for Active; 'I' for Inactive)
    1  A    between atoms: C_5  and  C_16
    2  A    between atoms: N_10  and  C_16
                            x       y       z     vdW  Elec       q    Type
                         _______ _______ _______ _____ _____    ______ ____

>  <TORSDO>
F 2

$$$$
=
 OpenBabel11122413153D

 31 35  0  0  1  0  0  0  0  0999 V2000
  162.2930  213.8200  147.0410 C   0  0  0  0  0  0  0  0  0  0  0  0
  159.9900  214.3820  149.9970 C   0  0  2  0  0  3  0  0  0  0  0  0
  158.6480  214.1300  149.3180 C   0  0  0  0  0  0  0  0  0  0  0  0
  157.2610  213.9830  147.3250 C   0  0  0  0  0  0  0  0  0  0  0  0
  161.2160  213.8490  149.2460 C   0  0  2  0  0  3  0  0  0  0  0  0
  162.8770  212.5080  147.3980 C   0  0  0  0  0  3  0  0  0  0  0  0
  158.5080  214.1810  147.9230 C   0  0  0  0  0  3  0  0  0  0  0  0
  160.0300  212.2900  151.3600 N   0  0  0  0  0  0  0  0  0  0  0  0
  162.6120  214.4380  145.7270 C   0  0  0  0  0  1  0  0  0  0  0  0
  157.5940  213.9070  151.5060 O   0  0  0  0  0  0  0  0  0  0  0  0
  157.1340  214.0240  145.8450 C   0  0  0  0  0  1  0  0  0  0  0  0
  161.2260  211.8220  150.6480 C   0  0  0  0  0  2  0  0  0  0  0  0
  160.0190  213.7690  151.4190 C   0  0  2  0  0  3  0  0  0  0  0  0
  161.4750  214.4510  147.8910 C   0  0  0  0  0  3  0  0  0  0  0  0
  156.1360  213.7490  148.1170 C   0  0  0  0  0  3  0  0  0  0  0  0
  161.2170  212.3210  149.2120 C   0  0  2  0  0  3  0  0  0  0  0  0
  162.4070  211.8150  148.4440 C   0  0  0  0  0  3  0  0  0  0  0  0
  158.7930  214.2860  152.1800 C   0  0  0  0  0  2  0  0  0  0  0  0
  157.4980  213.9270  150.1120 C   0  0  0  0  0  0  0  0  0  0  0  0
  156.2540  213.7220  149.5080 C   0  0  0  0  0  3  0  0  0  0  0  0
  160.1460  211.7630  152.7150 C   0  0  0  0  0  2  0  0  0  0  0  0
  161.0320  209.8970  151.5490 O   0  0  0  0  0  0  0  0  0  0  0  0
  160.7040  210.3770  152.6670 C   0  0  0  0  0  0  0  0  0  0  0  0
  161.0110  207.8980  156.1240 N   0  0  0  0  0  0  0  0  0  0  0  0
  160.8160  208.1060  153.7020 C   0  0  0  0  0  2  0  0  0  0  0  0
  161.3000  211.3280  155.3180 O   0  0  0  0  0  0  0  0  0  0  0  0
  160.5290  207.1350  157.2610 C   0  0  0  0  0  1  0  0  0  0  0  0
  160.2790  207.4190  154.9550 C   0  0  0  0  0  2  0  0  0  0  0  0
  160.9400  210.1310  155.1640 C   0  0  0  0  0  0  0  0  0  0  0  0
  160.7790  209.5630  153.8490 N   0  0  0  0  0  0  0  0  0  0  0  0
  160.6390  209.2900  156.3670 C   0  0  0  0  0  2  0  0  0  0  0  0
  1  6  1  0  0  0  0
  1 14  2  0  0  0  0
  2  3  1  6  0  0  0
  2 13  1  0  0  0  0
  3 19  1  0  0  0  0
  4  7  1  0  0  0  0
  4 15  2  0  0  0  0
  5 14  1  6  0  0  0
  5  2  1  0  0  0  0
  6 17  2  0  0  0  0
  7  3  2  0  0  0  0
  8 13  1  0  0  0  0
  8 21  1  0  0  0  0
  9  1  1  0  0  0  0
 10 18  1  0  0  0  0
 11  4  1  0  0  0  0
 12  8  1  0  0  0  0
 13 18  1  1  0  0  0
 15 20  1  0  0  0  0
 16 17  1  6  0  0  0
 16  5  1  0  0  0  0
 16 12  1  0  0  0  0
 19 10  1  0  0  0  0
 20 19  2  0  0  0  0
 22 23  2  0  0  0  0
 23 21  1  0  0  0  0
 23 30  1  0  0  0  0
 24 31  1  0  0  0  0
 24 27  1  0  0  0  0
 25 30  1  0  0  0  0
 25 28  1  0  0  0  0
 28 24  1  0  0  0  0
 29 26  2  0  0  0  0
 29 31  1  0  0  0  0
 30 29  1  0  0  0  0
M  END
>  <MODEL>
6

>  <REMARK>
 VINA RESULT:      -3.7      2.996      8.061
  Name = 
  2 active torsions:
  status: ('A' for Active; 'I' for Inactive)
    1  A    between atoms: C_5  and  C_16
    2  A    between atoms: N_10  and  C_16
                            x       y       z     vdW  Elec       q    Type
                         _______ _______ _______ _____ _____    ______ ____

>  <TORSDO>
F 2

$$$$
=
 OpenBabel11122413153D

 31 35  0  0  1  0  0  0  0  0999 V2000
  162.0600  213.7420  147.0420 C   0  0  0  0  0  0  0  0  0  0  0  0
  159.9930  214.4530  150.1380 C   0  0  2  0  0  3  0  0  0  0  0  0
  158.5990  214.2220  149.5640 C   0  0  0  0  0  0  0  0  0  0  0  0
  157.0680  214.0620  147.6810 C   0  0  0  0  0  0  0  0  0  0  0  0
  161.1470  213.8630  149.3170 C   0  0  2  0  0  3  0  0  0  0  0  0
  162.6310  212.4230  147.3960 C   0  0  0  0  0  3  0  0  0  0  0  0
  158.3600  214.2390  148.1830 C   0  0  0  0  0  3  0  0  0  0  0  0
  160.0740  212.3990  151.5560 N   0  0  0  0  0  0  0  0  0  0  0  0
  162.3000  214.3140  145.6910 C   0  0  0  0  0  1  0  0  0  0  0  0
  157.7010  214.0910  151.8280 O   0  0  0  0  0  0  0  0  0  0  0  0
  156.8350  214.0660  146.2140 C   0  0  0  0  0  1  0  0  0  0  0  0
  161.2020  211.8760  150.7740 C   0  0  0  0  0  2  0  0  0  0  0  0
  160.1090  213.8790  151.5720 C   0  0  2  0  0  3  0  0  0  0  0  0
  161.3240  214.4200  147.9300 C   0  0  0  0  0  3  0  0  0  0  0  0
  155.9970  213.8830  148.5580 C   0  0  0  0  0  3  0  0  0  0  0  0
  161.1020  212.3360  149.3280 C   0  0  2  0  0  3  0  0  0  0  0  0
  162.2200  211.7740  148.4930 C   0  0  0  0  0  3  0  0  0  0  0  0
  158.9550  214.4520  152.4030 C   0  0  0  0  0  2  0  0  0  0  0  0
  157.5050  214.0750  150.4440 C   0  0  0  0  0  0  0  0  0  0  0  0
  156.2150  213.8910  149.9370 C   0  0  0  0  0  3  0  0  0  0  0  0
  160.2730  211.9060  152.9140 C   0  0  0  0  0  2  0  0  0  0  0  0
  158.7030  210.1350  152.7470 O   0  0  0  0  0  0  0  0  0  0  0  0
  159.0490  211.1770  153.3660 C   0  0  0  0  0  0  0  0  0  0  0  0
  156.5470  212.6100  156.5100 N   0  0  0  0  0  0  0  0  0  0  0  0
  156.8150  211.2860  154.4790 C   0  0  0  0  0  2  0  0  0  0  0  0
  159.9880  212.5740  155.7020 O   0  0  0  0  0  0  0  0  0  0  0  0
  155.6470  213.5310  157.1790 C   0  0  0  0  0  1  0  0  0  0  0  0
  155.9710  212.3370  155.1970 C   0  0  0  0  0  2  0  0  0  0  0  0
  158.7500  212.5110  155.4840 C   0  0  0  0  0  0  0  0  0  0  0  0
  158.2190  211.6970  154.4190 N   0  0  0  0  0  0  0  0  0  0  0  0
  157.8110  213.3210  156.3250 C   0  0  0  0  0  2  0  0  0  0  0  0
  1  6  1  0  0  0  0
  1 14  2  0  0  0  0
  2  3  1  6  0  0  0
  2 13  1  0  0  0  0
  3 19  1  0  0  0  0
  4  7  1  0  0  0  0
  4 15  2  0  0  0  0
  5 14  1  6  0  0  0
  5 16  1  0  0  0  0
  5  2  1  0  0  0  0
  6 17  2  0  0  0  0
  7  3  2  0  0  0  0
  8 13  1  0  0  0  0
  8 21  1  0  0  0  0
  9  1  1  0  0  0  0
 10 18  1  0  0  0  0
 11  4  1  0  0  0  0
 12  8  1  0  0  0  0
 13 18  1  1  0  0  0
 15 20  1  0  0  0  0
 16 17  1  6  0  0  0
 16 12  1  0  0  0  0
 19 10  1  0  0  0  0
 20 19  2  0  0  0  0
 21 23  1  0  0  0  0
 22 23  2  0  0  0  0
 23 30  1  0  0  0  0
 24 27  1  0  0  0  0
 25 28  1  0  0  0  0
 28 24  1  0  0  0  0
 29 26  2  0  0  0  0
 29 31  1  0  0  0  0
 30 25  1  0  0  0  0
 30 29  1  0  0  0  0
 31 24  1  0  0  0  0
M  END
>  <MODEL>
7

>  <REMARK>
 VINA RESULT:      -3.7      3.584      8.077
  Name = 
  2 active torsions:
  status: ('A' for Active; 'I' for Inactive)
    1  A    between atoms: C_5  and  C_16
    2  A    between atoms: N_10  and  C_16
                            x       y       z     vdW  Elec       q    Type
                         _______ _______ _______ _____ _____    ______ ____

>  <TORSDO>
F 2

$$$$
=
 OpenBabel11122413153D

 31 35  0  0  1  0  0  0  0  0999 V2000
  160.7710  201.5970  148.6650 C   0  0  0  0  0  0  0  0  0  0  0  0
  162.3510  204.8260  149.8650 C   0  0  2  0  0  3  0  0  0  0  0  0
  161.7940  205.7810  148.8140 C   0  0  0  0  0  0  0  0  0  0  0  0
  160.8170  206.2100  146.6290 C   0  0  0  0  0  0  0  0  0  0  0  0
  161.6190  203.4830  149.9860 C   0  0  2  0  0  3  0  0  0  0  0  0
  159.7310  201.4030  149.7000 C   0  0  0  0  0  3  0  0  0  0  0  0
  161.2870  205.3150  147.5930 C   0  0  0  0  0  3  0  0  0  0  0  0
  160.9670  205.6470  151.7750 N   0  0  0  0  0  0  0  0  0  0  0  0
  160.8360  200.6760  147.5000 C   0  0  0  0  0  1  0  0  0  0  0  0
  162.4050  207.6730  150.2260 O   0  0  0  0  0  0  0  0  0  0  0  0
  160.2670  205.6990  145.3470 C   0  0  0  0  0  1  0  0  0  0  0  0
  160.3090  204.3400  151.8900 C   0  0  0  0  0  2  0  0  0  0  0  0
  162.3480  205.4790  151.2700 C   0  0  2  0  0  3  0  0  0  0  0  0
  161.6500  202.6010  148.7680 C   0  0  0  0  0  3  0  0  0  0  0  0
  160.8640  207.5840  146.8700 C   0  0  0  0  0  3  0  0  0  0  0  0
  160.2020  203.6780  150.5250 C   0  0  2  0  0  3  0  0  0  0  0  0
  159.4870  202.3580  150.6070 C   0  0  0  0  0  3  0  0  0  0  0  0
  163.0690  206.8270  151.1630 C   0  0  0  0  0  2  0  0  0  0  0  0
  161.8710  207.1730  149.0350 C   0  0  0  0  0  0  0  0  0  0  0  0
  161.3920  208.0640  148.0710 C   0  0  0  0  0  3  0  0  0  0  0  0
  161.0200  206.1840  153.1300 C   0  0  0  0  0  2  0  0  0  0  0  0
  160.2890  208.1620  152.0440 O   0  0  0  0  0  0  0  0  0  0  0  0
  160.7640  207.6560  153.0960 C   0  0  0  0  0  0  0  0  0  0  0  0
  161.7950  210.2460  156.3250 N   0  0  0  0  0  0  0  0  0  0  0  0
  161.3690  209.9260  153.9440 C   0  0  0  0  0  2  0  0  0  0  0  0
  160.6240  206.9400  155.8810 O   0  0  0  0  0  0  0  0  0  0  0  0
  162.6760  210.9190  157.2610 C   0  0  0  0  0  1  0  0  0  0  0  0
  162.3150  210.5170  154.9870 C   0  0  0  0  0  2  0  0  0  0  0  0
  161.1770  208.0230  155.5560 C   0  0  0  0  0  0  0  0  0  0  0  0
  161.1390  208.5020  154.1960 N   0  0  0  0  0  0  0  0  0  0  0  0
  161.9180  208.8140  156.5900 C   0  0  0  0  0  2  0  0  0  0  0  0
  1 14  2  0  0  0  0
  1  6  1  0  0  0  0
  2  3  1  6  0  0  0
  2  5  1  0  0  0  0
  2 13  1  0  0  0  0
  3 19  1  0  0  0  0
  4 15  2  0  0  0  0
  4  7  1  0  0  0  0
  5 14  1  6  0  0  0
  5 16  1  0  0  0  0
  6 17  2  0  0  0  0
  7  3  2  0  0  0  0
  8 12  1  0  0  0  0
  8 21  1  0  0  0  0
  9  1  1  0  0  0  0
 10 18  1  0  0  0  0
 11  4  1  0  0  0  0
 13 18  1  6  0  0  0
 13  8  1  0  0  0  0
 15 20  1  0  0  0  0
 16 17  1  1  0  0  0
 16 12  1  0  0  0  0
 19 10  1  0  0  0  0
 20 19  2  0  0  0  0
 22 23  2  0  0  0  0
 23 21  1  0  0  0  0
 23 30  1  0  0  0  0
 24 31  1  0  0  0  0
 24 27  1  0  0  0  0
 25 30  1  0  0  0  0
 25 28  1  0  0  0  0
 28 24  1  0  0  0  0
 29 26  2  0  0  0  0
 29 31  1  0  0  0  0
 30 29  1  0  0  0  0
M  END
>  <MODEL>
8

>  <REMARK>
 VINA RESULT:      -3.7      4.393      7.891
  Name = 
  2 active torsions:
  status: ('A' for Active; 'I' for Inactive)
    1  A    between atoms: C_5  and  C_16
    2  A    between atoms: N_10  and  C_16
                            x       y       z     vdW  Elec       q    Type
                         _______ _______ _______ _____ _____    ______ ____

>  <TORSDO>
F 2

$$$$
=
 OpenBabel11122413153D

 31 35  0  0  1  0  0  0  0  0999 V2000
  161.7350  203.8410  151.8780 C   0  0  0  0  0  0  0  0  0  0  0  0
  162.6910  207.4870  151.4890 C   0  0  2  0  0  3  0  0  0  0  0  0
  162.1210  207.7470  150.0980 C   0  0  0  0  0  0  0  0  0  0  0  0
  161.3360  206.9600  147.9350 C   0  0  0  0  0  0  0  0  0  0  0  0
  162.1510  206.2380  152.1970 C   0  0  2  0  0  3  0  0  0  0  0  0
  160.6270  203.9550  152.8530 C   0  0  0  0  0  3  0  0  0  0  0  0
  161.8220  206.6970  149.2180 C   0  0  0  0  0  3  0  0  0  0  0  0
  161.0030  208.8220  152.7550 N   0  0  0  0  0  0  0  0  0  0  0  0
  162.0580  202.5210  151.2760 C   0  0  0  0  0  1  0  0  0  0  0  0
  162.2940  210.1480  150.4870 O   0  0  0  0  0  0  0  0  0  0  0  0
  161.0090  205.8350  147.0210 C   0  0  0  0  0  1  0  0  0  0  0  0
  160.5310  207.6150  153.4450 C   0  0  0  0  0  2  0  0  0  0  0  0
  162.4400  208.6930  152.4290 C   0  0  2  0  0  3  0  0  0  0  0  0
  162.4420  204.9220  151.5300 C   0  0  0  0  0  3  0  0  0  0  0  0
  161.1580  208.2780  147.5120 C   0  0  0  0  0  3  0  0  0  0  0  0
  160.6710  206.4000  152.5410 C   0  0  2  0  0  3  0  0  0  0  0  0
  160.1490  205.1560  153.2040 C   0  0  0  0  0  3  0  0  0  0  0  0
  162.9670  209.9520  151.7300 C   0  0  0  0  0  2  0  0  0  0  0  0
  161.9710  209.0770  149.6500 C   0  0  0  0  0  0  0  0  0  0  0  0
  161.4770  209.3350  148.3670 C   0  0  0  0  0  3  0  0  0  0  0  0
  160.8300  209.9130  153.7070 C   0  0  0  0  0  2  0  0  0  0  0  0
  159.4110  210.9220  152.0950 O   0  0  0  0  0  0  0  0  0  0  0  0
  159.6410  210.7320  153.3200 C   0  0  0  0  0  0  0  0  0  0  0  0
  157.1340  212.6510  156.1880 N   0  0  0  0  0  0  0  0  0  0  0  0
  158.0390  212.5520  153.9250 C   0  0  0  0  0  2  0  0  0  0  0  0
  158.9900  209.6560  155.9090 O   0  0  0  0  0  0  0  0  0  0  0  0
  156.8010  213.5710  157.2600 C   0  0  0  0  0  1  0  0  0  0  0  0
  157.7620  213.4420  155.1330 C   0  0  0  0  0  2  0  0  0  0  0  0
  158.6630  210.8420  155.6400 C   0  0  0  0  0  0  0  0  0  0  0  0
  158.8260  211.3790  154.3130 N   0  0  0  0  0  0  0  0  0  0  0  0
  158.1260  211.7230  156.7260 C   0  0  0  0  0  2  0  0  0  0  0  0
  1  6  1  0  0  0  0
  2  3  1  6  0  0  0
  2  5  1  0  0  0  0
  2 13  1  0  0  0  0
  4  7  1  0  0  0  0
  5 14  1  6  0  0  0
  5 16  1  0  0  0  0
  6 17  2  0  0  0  0
  7  3  2  0  0  0  0
  8 12  1  0  0  0  0
  8 21  1  0  0  0  0
  9  1  1  0  0  0  0
 10 18  1  0  0  0  0
 11  4  1  0  0  0  0
 13 18  1  6  0  0  0
 13  8  1  0  0  0  0
 14  1  2  0  0  0  0
 15  4  2  0  0  0  0
 15 20  1  0  0  0  0
 16 17  1  1  0  0  0
 16 12  1  0  0  0  0
 19  3  1  0  0  0  0
 19 10  1  0  0  0  0
 20 19  2  0  0  0  0
 22 23  2  0  0  0  0
 23 21  1  0  0  0  0
 23 30  1  0  0  0  0
 24 31  1  0  0  0  0
 24 27  1  0  0  0  0
 25 30  1  0  0  0  0
 25 28  1  0  0  0  0
 28 24  1  0  0  0  0
 29 26  2  0  0  0  0
 29 31  1  0  0  0  0
 30 29  1  0  0  0  0
M  END
>  <MODEL>
9

>  <REMARK>
 VINA RESULT:      -3.0      3.559      6.468
  Name = 
  2 active torsions:
  status: ('A' for Active; 'I' for Inactive)
    1  A    between atoms: C_5  and  C_16
    2  A    between atoms: N_10  and  C_16
                            x       y       z     vdW  Elec       q    Type
                         _______ _______ _______ _____ _____    ______ ____

>  <TORSDO>
F 2

$$$$
