=
 OpenBabel11122412463D

 30 35  0  0  1  0  0  0  0  0999 V2000
  161.5110  208.5240  152.2620 C   0  0  1  0  0  3  0  0  0  0  0  0
  161.2590  206.9870  154.2860 C   0  0  0  0  0  0  0  0  0  0  0  0
  160.3780  211.8870  154.6140 N   0  0  0  0  0  2  0  0  0  0  0  0
  162.0430  209.9060  151.8340 C   0  0  1  0  0  3  0  0  0  0  0  0
  162.2610  207.5270  151.5990 O   0  0  0  0  0  0  0  0  0  0  0  0
  162.3090  208.9130  148.3300 O   0  0  0  0  0  0  0  0  0  0  0  0
  160.5420  211.9910  149.7770 C   0  0  1  0  0  3  0  0  0  0  0  0
  162.1120  208.8470  149.5740 C   0  0  0  0  0  0  0  0  0  0  0  0
  160.3350  212.6780  151.0960 C   0  0  1  0  0  3  0  0  0  0  0  0
  159.5670  212.3000  153.4660 C   0  0  2  0  0  3  0  0  0  0  0  0
  161.9170  207.5070  150.2250 C   0  0  2  0  0  3  0  0  0  0  0  0
  162.0040  210.0390  150.3670 N   0  0  0  0  0  0  0  0  0  0  0  0
  160.3470  206.8390  155.4660 C   0  0  0  0  0  2  0  0  0  0  0  0
  159.1560  213.5930  150.8260 C   0  0  0  0  0  2  0  0  0  0  0  0
  160.3190  213.0670  148.7370 C   0  0  0  0  0  2  0  0  0  0  0  0
  161.7730  205.9870  153.8080 O   0  0  0  0  0  0  0  0  0  0  0  0
  161.3380  210.8940  154.1330 C   0  0  2  0  0  3  0  0  0  0  0  0
  159.2300  207.8680  155.3850 C   0  0  0  0  0  2  0  0  0  0  0  0
  161.6460  208.3640  153.7790 C   0  0  2  0  0  3  0  0  0  0  0  0
  161.4580  211.1090  152.6310 C   0  0  2  0  0  3  0  0  0  0  0  0
  158.1230  211.8880  153.6820 C   0  0  0  0  0  1  0  0  0  0  0  0
  160.1100  211.6450  152.2010 C   0  0  2  0  0  3  0  0  0  0  0  0
  159.3000  214.0070  149.3660 C   0  0  0  0  0  2  0  0  0  0  0  0
  162.8530  211.8300  149.1270 O   0  0  0  0  0  0  0  0  0  0  0  0
  159.7890  209.2490  155.2040 C   0  0  0  0  0  3  0  0  0  0  0  0
  160.8760  209.4840  154.4420 C   0  0  0  0  0  0  0  0  0  0  0  0
  161.8690  211.3090  149.7190 C   0  0  0  0  0  0  0  0  0  0  0  0
  160.5030  206.9740  149.9890 C   0  0  0  0  0  2  0  0  0  0  0  0
  160.4610  206.2350  147.7200 O   0  0  0  0  0  1  0  0  0  0  0  0
  160.5200  205.7890  149.0400 C   0  0  0  0  0  2  0  0  0  0  0  0
  1  5  1  6  0  0  0
  1 19  1  0  0  0  0
  2 13  1  0  0  0  0
  4 12  1  6  0  0  0
  4  1  1  0  0  0  0
  4 20  1  0  0  0  0
  6  8  2  0  0  0  0
  7 15  1  6  0  0  0
  7  9  1  0  0  0  0
  8 11  1  0  0  0  0
  8 12  1  0  0  0  0
  9 14  1  6  0  0  0
  9 22  1  0  0  0  0
 10 21  1  1  0  0  0
 10  3  1  0  0  0  0
 11 28  1  1  0  0  0
 11  5  1  0  0  0  0
 15 23  1  0  0  0  0
 16  2  2  0  0  0  0
 17 26  1  6  0  0  0
 17  3  1  0  0  0  0
 18 13  1  0  0  0  0
 19  2  1  1  0  0  0
 19 26  1  0  0  0  0
 20 17  1  0  0  0  0
 22 20  1  0  0  0  0
 22 10  1  0  0  0  0
 23 14  1  0  0  0  0
 24 27  2  0  0  0  0
 25 18  1  0  0  0  0
 26 25  2  0  0  0  0
 27  7  1  0  0  0  0
 27 12  1  0  0  0  0
 29 30  1  0  0  0  0
 30 28  1  0  0  0  0
M  END
>  <MODEL>
1

>  <REMARK>
 VINA RESULT:      -5.5      0.000      0.000
  Name = 
  2 active torsions:
  status: ('A' for Active; 'I' for Inactive)
    1  A    between atoms: C_11  and  C_28
    2  A    between atoms: C_28  and  C_30
                            x       y       z     vdW  Elec       q    Type
                         _______ _______ _______ _____ _____    ______ ____

>  <TORSDO>
F 2

$$$$
=
 OpenBabel11122412463D

 30 35  0  0  1  0  0  0  0  0999 V2000
  160.1570  211.6580  153.6750 C   0  0  1  0  0  3  0  0  0  0  0  0
  160.3350  210.8790  156.1010 C   0  0  0  0  0  0  0  0  0  0  0  0
  157.1290  214.4530  154.7410 N   0  0  0  0  0  2  0  0  0  0  0  0
  160.0120  212.9200  152.8020 C   0  0  1  0  0  3  0  0  0  0  0  0
  161.4030  211.0530  153.3910 O   0  0  0  0  0  0  0  0  0  0  0  0
  161.3460  211.2420  149.8450 O   0  0  0  0  0  0  0  0  0  0  0  0
  158.0770  213.2170  150.1580 C   0  0  1  0  0  3  0  0  0  0  0  0
  160.9900  211.4480  151.0370 C   0  0  0  0  0  0  0  0  0  0  0  0
  157.3310  214.0440  151.1640 C   0  0  1  0  0  3  0  0  0  0  0  0
  156.4390  214.0300  153.5210 C   0  0  2  0  0  3  0  0  0  0  0  0
  161.3620  210.4590  152.1060 C   0  0  2  0  0  3  0  0  0  0  0  0
  160.1740  212.5800  151.3770 N   0  0  0  0  0  0  0  0  0  0  0  0
  159.4180  210.6300  157.2600 C   0  0  0  0  0  2  0  0  0  0  0  0
  155.9240  214.0880  150.5980 C   0  0  0  0  0  2  0  0  0  0  0  0
  157.5450  213.6640  148.8140 C   0  0  0  0  0  2  0  0  0  0  0  0
  161.3460  210.2040  155.9920 O   0  0  0  0  0  0  0  0  0  0  0  0
  158.5200  214.0150  154.6280 C   0  0  2  0  0  3  0  0  0  0  0  0
  157.9760  210.8520  156.8330 C   0  0  0  0  0  2  0  0  0  0  0  0
  160.0820  212.0400  155.1550 C   0  0  2  0  0  3  0  0  0  0  0  0
  158.7840  213.8130  153.1410 C   0  0  2  0  0  3  0  0  0  0  0  0
  155.3680  213.0120  153.8630 C   0  0  0  0  0  1  0  0  0  0  0  0
  157.4470  213.4180  152.5540 C   0  0  2  0  0  3  0  0  0  0  0  0
  156.1030  214.0720  149.0840 C   0  0  0  0  0  2  0  0  0  0  0  0
  160.2450  214.1000  149.6030 O   0  0  0  0  0  0  0  0  0  0  0  0
  157.8110  212.1990  156.1930 C   0  0  0  0  0  3  0  0  0  0  0  0
  158.7600  212.7320  155.3970 C   0  0  0  0  0  0  0  0  0  0  0  0
  159.5540  213.3420  150.3360 C   0  0  0  0  0  0  0  0  0  0  0  0
  160.4560  209.2280  152.0650 C   0  0  0  0  0  2  0  0  0  0  0  0
  162.3340  208.2350  150.9750 O   0  0  0  0  0  1  0  0  0  0  0  0
  161.2670  207.9650  151.8310 C   0  0  0  0  0  2  0  0  0  0  0  0
  1  5  1  1  0  0  0
  1 19  1  0  0  0  0
  2 13  1  0  0  0  0
  4 12  1  6  0  0  0
  4 20  1  0  0  0  0
  4  1  1  0  0  0  0
  6  8  2  0  0  0  0
  7 15  1  6  0  0  0
  7 27  1  0  0  0  0
  7  9  1  0  0  0  0
  8 12  1  0  0  0  0
  8 11  1  0  0  0  0
  9 14  1  6  0  0  0
  9 22  1  0  0  0  0
 10 21  1  1  0  0  0
 10  3  1  0  0  0  0
 11 28  1  1  0  0  0
 11  5  1  0  0  0  0
 15 23  1  0  0  0  0
 16  2  2  0  0  0  0
 17  3  1  6  0  0  0
 17 26  1  0  0  0  0
 18 13  1  0  0  0  0
 19 26  1  1  0  0  0
 19  2  1  0  0  0  0
 20 17  1  0  0  0  0
 22 20  1  0  0  0  0
 22 10  1  0  0  0  0
 23 14  1  0  0  0  0
 24 27  2  0  0  0  0
 25 18  1  0  0  0  0
 26 25  2  0  0  0  0
 27 12  1  0  0  0  0
 29 30  1  0  0  0  0
 30 28  1  0  0  0  0
M  END
>  <MODEL>
2

>  <REMARK>
 VINA RESULT:      -4.2      2.460      3.647
  Name = 
  2 active torsions:
  status: ('A' for Active; 'I' for Inactive)
    1  A    between atoms: C_11  and  C_28
    2  A    between atoms: C_28  and  C_30
                            x       y       z     vdW  Elec       q    Type
                         _______ _______ _______ _____ _____    ______ ____

>  <TORSDO>
F 2

$$$$
=
 OpenBabel11122412463D

 30 35  0  0  1  0  0  0  0  0999 V2000
  160.8210  210.8610  151.6500 C   0  0  1  0  0  3  0  0  0  0  0  0
  160.1260  210.5890  154.0930 C   0  0  0  0  0  0  0  0  0  0  0  0
  158.5570  214.4530  151.3530 N   0  0  0  0  0  2  0  0  0  0  0  0
  161.2790  211.9090  150.6170 C   0  0  1  0  0  3  0  0  0  0  0  0
  161.8700  209.9340  151.8470 O   0  0  0  0  0  0  0  0  0  0  0  0
  162.8000  209.3830  148.4640 O   0  0  0  0  0  0  0  0  0  0  0  0
  160.2740  212.0950  147.4900 C   0  0  1  0  0  3  0  0  0  0  0  0
  162.2190  209.9120  149.4500 C   0  0  0  0  0  0  0  0  0  0  0  0
  159.5610  213.2680  148.0990 C   0  0  1  0  0  3  0  0  0  0  0  0
  158.1180  213.9590  150.0460 C   0  0  2  0  0  3  0  0  0  0  0  0
  161.9980  209.1100  150.7010 C   0  0  2  0  0  3  0  0  0  0  0  0
  161.7040  211.2500  149.3700 N   0  0  0  0  0  0  0  0  0  0  0  0
  158.9060  210.8120  154.9350 C   0  0  0  0  0  2  0  0  0  0  0  0
  158.4260  213.5230  147.1260 C   0  0  0  0  0  2  0  0  0  0  0  0
  160.2640  212.3630  146.0010 C   0  0  0  0  0  2  0  0  0  0  0  0
  160.8920  209.6870  154.3910 O   0  0  0  0  0  0  0  0  0  0  0  0
  159.7410  213.6840  151.7330 C   0  0  2  0  0  3  0  0  0  0  0  0
  157.7530  211.2750  154.0580 C   0  0  0  0  0  2  0  0  0  0  0  0
  160.4740  211.5510  152.9720 C   0  0  2  0  0  3  0  0  0  0  0  0
  160.3160  213.1190  150.4410 C   0  0  2  0  0  3  0  0  0  0  0  0
  156.7490  213.3180  150.1720 C   0  0  0  0  0  1  0  0  0  0  0  0
  159.1240  212.9380  149.5270 C   0  0  2  0  0  3  0  0  0  0  0  0
  158.9830  213.1480  145.7580 C   0  0  0  0  0  2  0  0  0  0  0  0
  162.6700  212.3040  147.5200 O   0  0  0  0  0  0  0  0  0  0  0  0
  158.1560  212.4580  153.2270 C   0  0  0  0  0  3  0  0  0  0  0  0
  159.3920  212.5720  152.7000 C   0  0  0  0  0  0  0  0  0  0  0  0
  161.6240  211.9020  148.0980 C   0  0  0  0  0  0  0  0  0  0  0  0
  160.8200  208.1470  150.5440 C   0  0  0  0  0  2  0  0  0  0  0  0
  160.4280  206.3440  149.0300 O   0  0  0  0  0  1  0  0  0  0  0  0
  161.2870  206.7960  150.0310 C   0  0  0  0  0  2  0  0  0  0  0  0
  1  5  1  1  0  0  0
  1 19  1  0  0  0  0
  2 16  2  0  0  0  0
  2 13  1  0  0  0  0
  4 12  1  6  0  0  0
  4  1  1  0  0  0  0
  6  8  2  0  0  0  0
  7 15  1  6  0  0  0
  7 27  1  0  0  0  0
  7  9  1  0  0  0  0
  8 11  1  0  0  0  0
  9 14  1  6  0  0  0
  9 22  1  0  0  0  0
 10 21  1  1  0  0  0
 10  3  1  0  0  0  0
 11 28  1  6  0  0  0
 11  5  1  0  0  0  0
 12  8  1  0  0  0  0
 17  3  1  6  0  0  0
 17 26  1  0  0  0  0
 18 13  1  0  0  0  0
 19 26  1  6  0  0  0
 19  2  1  0  0  0  0
 20  4  1  0  0  0  0
 20 17  1  0  0  0  0
 22 10  1  0  0  0  0
 22 20  1  0  0  0  0
 23 15  1  0  0  0  0
 23 14  1  0  0  0  0
 24 27  2  0  0  0  0
 25 18  1  0  0  0  0
 26 25  2  0  0  0  0
 27 12  1  0  0  0  0
 29 30  1  0  0  0  0
 30 28  1  0  0  0  0
M  END
>  <MODEL>
3

>  <REMARK>
 VINA RESULT:      -4.1      2.021      3.080
  Name = 
  2 active torsions:
  status: ('A' for Active; 'I' for Inactive)
    1  A    between atoms: C_11  and  C_28
    2  A    between atoms: C_28  and  C_30
                            x       y       z     vdW  Elec       q    Type
                         _______ _______ _______ _____ _____    ______ ____

>  <TORSDO>
F 2

$$$$
=
 OpenBabel11122412463D

 30 35  0  0  1  0  0  0  0  0999 V2000
  161.2740  210.2130  151.1330 C   0  0  1  0  0  3  0  0  0  0  0  0
  161.3030  212.3030  149.6660 C   0  0  0  0  0  0  0  0  0  0  0  0
  162.6880  207.8520  147.8860 N   0  0  0  0  0  2  0  0  0  0  0  0
  162.0810  208.9440  151.4730 C   0  0  1  0  0  3  0  0  0  0  0  0
  161.2070  211.0260  152.2880 O   0  0  0  0  0  0  0  0  0  0  0  0
  160.4280  208.5420  154.7030 O   0  0  0  0  0  0  0  0  0  0  0  0
  160.8310  205.9340  151.9240 C   0  0  1  0  0  3  0  0  0  0  0  0
  160.7640  209.0330  153.5920 C   0  0  0  0  0  0  0  0  0  0  0  0
  161.4920  205.7810  150.5850 C   0  0  1  0  0  3  0  0  0  0  0  0
  161.7110  206.8470  148.3120 C   0  0  2  0  0  3  0  0  0  0  0  0
  160.3410  210.4320  153.2390 C   0  0  2  0  0  3  0  0  0  0  0  0
  161.4870  208.2510  152.6280 N   0  0  0  0  0  0  0  0  0  0  0  0
  160.9970  212.6710  148.2460 C   0  0  0  0  0  2  0  0  0  0  0  0
  160.7860  204.5790  149.9880 C   0  0  0  0  0  2  0  0  0  0  0  0
  160.6450  204.5210  152.4310 C   0  0  0  0  0  2  0  0  0  0  0  0
  161.1200  213.1320  150.5430 O   0  0  0  0  0  0  0  0  0  0  0  0
  162.8690  208.7820  149.0000 C   0  0  2  0  0  3  0  0  0  0  0  0
  160.4670  211.4550  147.5020 C   0  0  0  0  0  2  0  0  0  0  0  0
  161.9570  210.9730  149.9940 C   0  0  2  0  0  3  0  0  0  0  0  0
  162.4230  208.0400  150.2530 C   0  0  2  0  0  3  0  0  0  0  0  0
  160.4620  206.9510  147.4590 C   0  0  0  0  0  1  0  0  0  0  0  0
  161.3590  207.0730  149.7780 C   0  0  2  0  0  3  0  0  0  0  0  0
  160.4560  203.6810  151.1750 C   0  0  0  0  0  2  0  0  0  0  0  0
  162.3750  206.3810  153.7140 O   0  0  0  0  0  0  0  0  0  0  0  0
  161.3990  210.2890  147.6530 C   0  0  0  0  0  3  0  0  0  0  0  0
  162.0580  210.0460  148.8030 C   0  0  0  0  0  0  0  0  0  0  0  0
  161.6140  206.8380  152.8190 C   0  0  0  0  0  0  0  0  0  0  0  0
  158.8770  210.4760  152.7980 C   0  0  0  0  0  2  0  0  0  0  0  0
  158.2070  212.6060  151.9550 O   0  0  0  0  0  1  0  0  0  0  0  0
  158.2570  211.8270  153.1100 C   0  0  0  0  0  2  0  0  0  0  0  0
  1  4  1  0  0  0  0
  1  5  1  1  0  0  0
  2 19  1  0  0  0  0
  2 16  2  0  0  0  0
  3 10  1  0  0  0  0
  4 12  1  1  0  0  0
  5 11  1  0  0  0  0
  7 15  1  1  0  0  0
  7 27  1  0  0  0  0
  8  6  2  0  0  0  0
  9 14  1  6  0  0  0
  9  7  1  0  0  0  0
 10 21  1  6  0  0  0
 10 22  1  0  0  0  0
 11 28  1  6  0  0  0
 11  8  1  0  0  0  0
 12 27  1  0  0  0  0
 12  8  1  0  0  0  0
 13  2  1  0  0  0  0
 14 23  1  0  0  0  0
 17  3  1  6  0  0  0
 17 20  1  0  0  0  0
 18 25  1  0  0  0  0
 18 13  1  0  0  0  0
 19 26  1  6  0  0  0
 19  1  1  0  0  0  0
 20  4  1  0  0  0  0
 22 20  1  0  0  0  0
 22  9  1  0  0  0  0
 23 15  1  0  0  0  0
 25 26  2  0  0  0  0
 26 17  1  0  0  0  0
 27 24  2  0  0  0  0
 28 30  1  0  0  0  0
 29 30  1  0  0  0  0
M  END
>  <MODEL>
4

>  <REMARK>
 VINA RESULT:      -3.8      2.301      6.764
  Name = 
  2 active torsions:
  status: ('A' for Active; 'I' for Inactive)
    1  A    between atoms: C_11  and  C_28
    2  A    between atoms: C_28  and  C_30
                            x       y       z     vdW  Elec       q    Type
                         _______ _______ _______ _____ _____    ______ ____

>  <TORSDO>
F 2

$$$$
=
 OpenBabel11122412463D

 30 35  0  0  1  0  0  0  0  0999 V2000
  160.5080  211.6510  151.7090 C   0  0  1  0  0  3  0  0  0  0  0  0
  160.3520  213.4670  149.9200 C   0  0  0  0  0  0  0  0  0  0  0  0
  162.9040  209.2510  149.1360 N   0  0  0  0  0  2  0  0  0  0  0  0
  161.4910  210.6610  152.3660 C   0  0  1  0  0  3  0  0  0  0  0  0
  160.0810  212.5780  152.6860 O   0  0  0  0  0  0  0  0  0  0  0  0
  159.4370  210.3410  155.3680 O   0  0  0  0  0  0  0  0  0  0  0  0
  160.8310  207.5370  153.1600 C   0  0  1  0  0  3  0  0  0  0  0  0
  159.8460  210.7380  154.2430 C   0  0  0  0  0  0  0  0  0  0  0  0
  161.7250  207.3560  151.9670 C   0  0  1  0  0  3  0  0  0  0  0  0
  162.0980  208.1180  149.5950 C   0  0  2  0  0  3  0  0  0  0  0  0
  159.2090  211.9380  153.6010 C   0  0  2  0  0  3  0  0  0  0  0  0
  160.8660  210.0170  153.5350 N   0  0  0  0  0  0  0  0  0  0  0  0
  160.2200  213.5530  148.4300 C   0  0  0  0  0  2  0  0  0  0  0  0
  161.3930  205.9520  151.4980 C   0  0  0  0  0  2  0  0  0  0  0  0
  160.8570  206.2030  153.8730 C   0  0  0  0  0  2  0  0  0  0  0  0
  159.8560  214.3450  150.6080 O   0  0  0  0  0  0  0  0  0  0  0  0
  162.7000  210.3430  150.0870 C   0  0  2  0  0  3  0  0  0  0  0  0
  160.0850  212.1560  147.8430 C   0  0  0  0  0  2  0  0  0  0  0  0
  161.2020  212.3820  150.5570 C   0  0  2  0  0  3  0  0  0  0  0  0
  162.2120  209.7000  151.3780 C   0  0  2  0  0  3  0  0  0  0  0  0
  161.0160  207.8110  148.5770 C   0  0  0  0  0  1  0  0  0  0  0  0
  161.4660  208.4580  150.9390 C   0  0  2  0  0  3  0  0  0  0  0  0
  161.0600  205.1770  152.7670 C   0  0  0  0  0  2  0  0  0  0  0  0
  161.9260  208.5710  155.0360 O   0  0  0  0  0  0  0  0  0  0  0  0
  161.1990  211.2690  148.3150 C   0  0  0  0  0  3  0  0  0  0  0  0
  161.6910  211.3470  149.5680 C   0  0  0  0  0  0  0  0  0  0  0  0
  161.2490  208.7120  153.9810 C   0  0  0  0  0  0  0  0  0  0  0  0
  157.8630  211.5830  152.9680 C   0  0  0  0  0  2  0  0  0  0  0  0
  156.2350  211.0780  154.6390 O   0  0  0  0  0  1  0  0  0  0  0  0
  156.7120  212.0970  153.8150 C   0  0  0  0  0  2  0  0  0  0  0  0
  1  4  1  0  0  0  0
  1  5  1  1  0  0  0
  2 19  1  0  0  0  0
  2 16  2  0  0  0  0
  3 10  1  0  0  0  0
  4 12  1  1  0  0  0
  5 11  1  0  0  0  0
  7 15  1  1  0  0  0
  7 27  1  0  0  0  0
  8  6  2  0  0  0  0
  9 14  1  6  0  0  0
  9  7  1  0  0  0  0
 10 21  1  6  0  0  0
 10 22  1  0  0  0  0
 11 28  1  6  0  0  0
 11  8  1  0  0  0  0
 12 27  1  0  0  0  0
 12  8  1  0  0  0  0
 13  2  1  0  0  0  0
 14 23  1  0  0  0  0
 17  3  1  6  0  0  0
 17 20  1  0  0  0  0
 18 25  1  0  0  0  0
 18 13  1  0  0  0  0
 19 26  1  6  0  0  0
 19  1  1  0  0  0  0
 20  4  1  0  0  0  0
 22 20  1  0  0  0  0
 22  9  1  0  0  0  0
 23 15  1  0  0  0  0
 25 26  2  0  0  0  0
 26 17  1  0  0  0  0
 27 24  2  0  0  0  0
 28 30  1  0  0  0  0
 30 29  1  0  0  0  0
M  END
>  <MODEL>
5

>  <REMARK>
 VINA RESULT:      -3.7      2.460      6.696
  Name = 
  2 active torsions:
  status: ('A' for Active; 'I' for Inactive)
    1  A    between atoms: C_11  and  C_28
    2  A    between atoms: C_28  and  C_30
                            x       y       z     vdW  Elec       q    Type
                         _______ _______ _______ _____ _____    ______ ____

>  <TORSDO>
F 2

$$$$
=
 OpenBabel11122412463D

 30 35  0  0  1  0  0  0  0  0999 V2000
  159.2580  209.8050  138.1620 C   0  0  1  0  0  3  0  0  0  0  0  0
  160.9710  207.9240  137.9400 C   0  0  0  0  0  0  0  0  0  0  0  0
  161.8540  211.9280  140.7840 N   0  0  0  0  0  2  0  0  0  0  0  0
  159.1250  211.3400  138.2090 C   0  0  1  0  0  3  0  0  0  0  0  0
  158.5890  209.3300  137.0120 O   0  0  0  0  0  0  0  0  0  0  0  0
  155.6050  211.2420  137.2440 O   0  0  0  0  0  0  0  0  0  0  0  0
  157.1740  213.0400  140.2420 C   0  0  1  0  0  3  0  0  0  0  0  0
  156.7780  210.8600  137.5070 C   0  0  0  0  0  0  0  0  0  0  0  0
  158.5280  213.3170  140.8310 C   0  0  1  0  0  3  0  0  0  0  0  0
  160.6620  212.2110  141.5860 C   0  0  2  0  0  3  0  0  0  0  0  0
  157.1890  209.4490  137.1920 C   0  0  2  0  0  3  0  0  0  0  0  0
  157.7060  211.7340  138.1670 N   0  0  0  0  0  0  0  0  0  0  0  0
  161.9540  207.2040  138.8130 C   0  0  0  0  0  2  0  0  0  0  0  0
  158.2040  213.7360  142.2530 C   0  0  0  0  0  2  0  0  0  0  0  0
  156.2790  214.1270  140.7930 C   0  0  0  0  0  2  0  0  0  0  0  0
  160.4440  207.3180  137.0210 O   0  0  0  0  0  0  0  0  0  0  0  0
  161.3980  211.5010  139.4620 C   0  0  2  0  0  3  0  0  0  0  0  0
  161.8420  207.7130  140.2420 C   0  0  0  0  0  2  0  0  0  0  0  0
  160.7370  209.4140  138.1100 C   0  0  2  0  0  3  0  0  0  0  0  0
  159.9820  212.0380  139.3060 C   0  0  2  0  0  3  0  0  0  0  0  0
  160.5790  211.2370  142.7460 C   0  0  0  0  0  1  0  0  0  0  0  0
  159.4210  212.0820  140.7110 C   0  0  2  0  0  3  0  0  0  0  0  0
  156.8630  214.4530  142.1610 C   0  0  0  0  0  2  0  0  0  0  0  0
  156.8920  213.9210  138.0220 O   0  0  0  0  0  0  0  0  0  0  0  0
  161.9550  209.2080  140.2860 C   0  0  0  0  0  3  0  0  0  0  0  0
  161.4210  209.9930  139.3290 C   0  0  0  0  0  0  0  0  0  0  0  0
  157.2350  212.9530  138.7530 C   0  0  0  0  0  0  0  0  0  0  0  0
  156.6530  208.4670  138.2340 C   0  0  0  0  0  2  0  0  0  0  0  0
  154.3310  208.6630  138.7560 O   0  0  0  0  0  1  0  0  0  0  0  0
  155.2350  208.0380  137.8980 C   0  0  0  0  0  2  0  0  0  0  0  0
  1  5  1  6  0  0  0
  1  4  1  0  0  0  0
  2 13  1  0  0  0  0
  3 10  1  0  0  0  0
  4 12  1  1  0  0  0
  4 20  1  0  0  0  0
  5 11  1  0  0  0  0
  6  8  2  0  0  0  0
  7 15  1  6  0  0  0
  7  9  1  0  0  0  0
  8 12  1  0  0  0  0
  9 14  1  1  0  0  0
 10 21  1  1  0  0  0
 11  8  1  0  0  0  0
 11 28  1  1  0  0  0
 12 27  1  0  0  0  0
 13 18  1  0  0  0  0
 15 23  1  0  0  0  0
 16  2  2  0  0  0  0
 17 26  1  1  0  0  0
 17  3  1  0  0  0  0
 18 25  1  0  0  0  0
 19  2  1  1  0  0  0
 19  1  1  0  0  0  0
 19 26  1  0  0  0  0
 20 17  1  0  0  0  0
 20 22  1  0  0  0  0
 22  9  1  0  0  0  0
 22 10  1  0  0  0  0
 23 14  1  0  0  0  0
 24 27  2  0  0  0  0
 26 25  2  0  0  0  0
 27  7  1  0  0  0  0
 30 28  1  0  0  0  0
 30 29  1  0  0  0  0
M  END
>  <MODEL>
6

>  <REMARK>
 VINA RESULT:      -3.1     10.784     13.269
  Name = 
  2 active torsions:
  status: ('A' for Active; 'I' for Inactive)
    1  A    between atoms: C_11  and  C_28
    2  A    between atoms: C_28  and  C_30
                            x       y       z     vdW  Elec       q    Type
                         _______ _______ _______ _____ _____    ______ ____

>  <TORSDO>
F 2

$$$$
=
 OpenBabel11122412463D

 30 35  0  0  1  0  0  0  0  0999 V2000
  161.4400  209.6530  151.3610 C   0  0  1  0  0  3  0  0  0  0  0  0
  161.6870  209.1920  148.8610 C   0  0  0  0  0  0  0  0  0  0  0  0
  162.4760  205.6230  152.2570 N   0  0  0  0  0  2  0  0  0  0  0  0
  162.0940  209.3720  152.7280 C   0  0  1  0  0  3  0  0  0  0  0  0
  161.5000  211.0420  151.1090 O   0  0  0  0  0  0  0  0  0  0  0  0
  160.4840  212.2530  154.2900 O   0  0  0  0  0  0  0  0  0  0  0  0
  160.4980  208.6180  155.5050 C   0  0  1  0  0  3  0  0  0  0  0  0
  160.8490  211.4260  153.4110 C   0  0  0  0  0  0  0  0  0  0  0  0
  161.1030  207.2920  155.1430 C   0  0  1  0  0  3  0  0  0  0  0  0
  161.3940  205.6620  153.2440 C   0  0  2  0  0  3  0  0  0  0  0  0
  160.5910  211.7200  151.9600 C   0  0  2  0  0  3  0  0  0  0  0  0
  161.4480  210.1740  153.7810 N   0  0  0  0  0  0  0  0  0  0  0  0
  161.3940  208.0810  147.8990 C   0  0  0  0  0  2  0  0  0  0  0  0
  160.2410  206.3030  155.9030 C   0  0  0  0  0  2  0  0  0  0  0  0
  160.1530  208.5020  156.9730 C   0  0  0  0  0  2  0  0  0  0  0  0
  161.6280  210.3460  148.4660 O   0  0  0  0  0  0  0  0  0  0  0  0
  162.7960  207.0060  151.9080 C   0  0  2  0  0  3  0  0  0  0  0  0
  160.7010  206.9390  148.6270 C   0  0  0  0  0  2  0  0  0  0  0  0
  162.1820  208.8860  150.2630 C   0  0  2  0  0  3  0  0  0  0  0  0
  162.2930  207.8650  153.0610 C   0  0  2  0  0  3  0  0  0  0  0  0
  160.1470  205.0240  152.6650 C   0  0  0  0  0  1  0  0  0  0  0  0
  161.1080  207.1100  153.6250 C   0  0  2  0  0  3  0  0  0  0  0  0
  159.8330  207.0280  157.1800 C   0  0  0  0  0  2  0  0  0  0  0  0
  162.1280  210.3130  156.0130 O   0  0  0  0  0  0  0  0  0  0  0  0
  161.4880  206.5210  149.8340 C   0  0  0  0  0  3  0  0  0  0  0  0
  162.1400  207.4140  150.6050 C   0  0  0  0  0  0  0  0  0  0  0  0
  161.4070  209.7480  155.1470 C   0  0  0  0  0  0  0  0  0  0  0  0
  159.1340  211.4470  151.5870 C   0  0  0  0  0  2  0  0  0  0  0  0
  159.1480  213.8210  151.3410 O   0  0  0  0  0  1  0  0  0  0  0  0
  158.3210  212.7290  151.6000 C   0  0  0  0  0  2  0  0  0  0  0  0
  1  5  1  6  0  0  0
  1  4  1  0  0  0  0
  3 10  1  0  0  0  0
  4 20  1  0  0  0  0
  4 12  1  1  0  0  0
  5 11  1  0  0  0  0
  7 15  1  1  0  0  0
  8 12  1  0  0  0  0
  8  6  2  0  0  0  0
  9  7  1  0  0  0  0
  9 14  1  1  0  0  0
 10 21  1  6  0  0  0
 10 22  1  0  0  0  0
 11 28  1  6  0  0  0
 11  8  1  0  0  0  0
 12 27  1  0  0  0  0
 13 18  1  0  0  0  0
 13  2  1  0  0  0  0
 14 23  1  0  0  0  0
 15 23  1  0  0  0  0
 16  2  2  0  0  0  0
 17 26  1  6  0  0  0
 17  3  1  0  0  0  0
 17 20  1  0  0  0  0
 18 25  1  0  0  0  0
 19  2  1  6  0  0  0
 19 26  1  0  0  0  0
 19  1  1  0  0  0  0
 20 22  1  0  0  0  0
 22  9  1  0  0  0  0
 25 26  2  0  0  0  0
 27  7  1  0  0  0  0
 27 24  2  0  0  0  0
 28 30  1  0  0  0  0
 29 30  1  0  0  0  0
M  END
>  <MODEL>
7

>  <REMARK>
 VINA RESULT:      -3.1      2.285      6.327
  Name = 
  2 active torsions:
  status: ('A' for Active; 'I' for Inactive)
    1  A    between atoms: C_11  and  C_28
    2  A    between atoms: C_28  and  C_30
                            x       y       z     vdW  Elec       q    Type
                         _______ _______ _______ _____ _____    ______ ____

>  <TORSDO>
F 2

$$$$
=
 OpenBabel11122412463D

 30 35  0  0  1  0  0  0  0  0999 V2000
  160.5510  212.0590  151.4300 C   0  0  1  0  0  3  0  0  0  0  0  0
  161.0520  212.6800  149.0040 C   0  0  0  0  0  0  0  0  0  0  0  0
  162.9040  208.5310  151.0660 N   0  0  0  0  0  2  0  0  0  0  0  0
  161.2030  211.5010  152.7110 C   0  0  1  0  0  3  0  0  0  0  0  0
  160.1270  213.3840  151.6800 O   0  0  0  0  0  0  0  0  0  0  0  0
  158.6130  212.9190  154.8590 O   0  0  0  0  0  0  0  0  0  0  0  0
  159.8590  209.2970  154.7500 C   0  0  1  0  0  3  0  0  0  0  0  0
  159.2850  212.6450  153.8280 C   0  0  0  0  0  0  0  0  0  0  0  0
  160.9080  208.4670  154.0680 C   0  0  1  0  0  3  0  0  0  0  0  0
  161.8370  207.8540  151.8070 C   0  0  2  0  0  3  0  0  0  0  0  0
  159.0020  213.3690  152.5420 C   0  0  2  0  0  3  0  0  0  0  0  0
  160.2700  211.6010  153.8470 N   0  0  0  0  0  0  0  0  0  0  0  0
  161.2120  211.9840  147.6870 C   0  0  0  0  0  2  0  0  0  0  0  0
  160.4190  207.0470  154.2870 C   0  0  0  0  0  2  0  0  0  0  0  0
  159.5140  208.5330  156.0090 C   0  0  0  0  0  2  0  0  0  0  0  0
  160.6060  213.8160  149.0210 O   0  0  0  0  0  0  0  0  0  0  0  0
  162.7300  209.9690  151.2690 C   0  0  2  0  0  3  0  0  0  0  0  0
  160.9360  210.4980  147.8530 C   0  0  0  0  0  2  0  0  0  0  0  0
  161.5620  212.0380  150.2810 C   0  0  2  0  0  3  0  0  0  0  0  0
  161.9070  210.1240  152.5410 C   0  0  2  0  0  3  0  0  0  0  0  0
  160.9210  207.1280  150.8410 C   0  0  0  0  0  1  0  0  0  0  0  0
  161.0420  208.8830  152.6020 C   0  0  2  0  0  3  0  0  0  0  0  0
  159.7270  207.0700  155.6440 C   0  0  0  0  0  2  0  0  0  0  0  0
  160.7610  211.0900  156.0750 O   0  0  0  0  0  0  0  0  0  0  0  0
  161.7670  209.9220  148.9620 C   0  0  0  0  0  3  0  0  0  0  0  0
  162.0290  210.6120  150.0900 C   0  0  0  0  0  0  0  0  0  0  0  0
  160.3240  210.7000  154.9590 C   0  0  0  0  0  0  0  0  0  0  0  0
  157.7520  212.8180  151.8550 C   0  0  0  0  0  2  0  0  0  0  0  0
  157.2910  213.0580  149.5250 O   0  0  0  0  0  1  0  0  0  0  0  0
  157.2920  213.7420  150.7410 C   0  0  0  0  0  2  0  0  0  0  0  0
  1  5  1  1  0  0  0
  1  4  1  0  0  0  0
  2 16  2  0  0  0  0
  3 17  1  0  0  0  0
  3 10  1  0  0  0  0
  4 12  1  1  0  0  0
  5 11  1  0  0  0  0
  7 27  1  0  0  0  0
  7 15  1  1  0  0  0
  8 12  1  0  0  0  0
  8  6  2  0  0  0  0
  9 14  1  6  0  0  0
  9  7  1  0  0  0  0
 10 21  1  6  0  0  0
 10 22  1  0  0  0  0
 11 28  1  6  0  0  0
 11  8  1  0  0  0  0
 12 27  1  0  0  0  0
 13 18  1  0  0  0  0
 13  2  1  0  0  0  0
 14 23  1  0  0  0  0
 17 26  1  6  0  0  0
 17 20  1  0  0  0  0
 18 25  1  0  0  0  0
 19  2  1  6  0  0  0
 19  1  1  0  0  0  0
 20 22  1  0  0  0  0
 20  4  1  0  0  0  0
 22  9  1  0  0  0  0
 23 15  1  0  0  0  0
 25 26  2  0  0  0  0
 26 19  1  0  0  0  0
 27 24  2  0  0  0  0
 29 30  1  0  0  0  0
 30 28  1  0  0  0  0
M  END
>  <MODEL>
8

>  <REMARK>
 VINA RESULT:      -2.9      2.568      6.548
  Name = 
  2 active torsions:
  status: ('A' for Active; 'I' for Inactive)
    1  A    between atoms: C_11  and  C_28
    2  A    between atoms: C_28  and  C_30
                            x       y       z     vdW  Elec       q    Type
                         _______ _______ _______ _____ _____    ______ ____

>  <TORSDO>
F 2

$$$$
