=
 OpenBabel11122413463D

 37 44  0  0  1  0  0  0  0  0999 V2000
  160.6200  207.7890  151.4250 C   0  0  0  0  0  2  0  0  0  0  0  0
  160.3590  207.7170  156.4390 C   0  0  0  0  0  0  0  0  0  0  0  0
  159.5310  211.2760  154.2610 C   0  0  0  0  0  0  0  0  0  0  0  0
  161.4590  206.7240  150.7050 C   0  0  1  0  0  3  0  0  0  0  0  0
  161.0770  211.8070  150.8740 C   0  0  0  0  0  2  0  0  0  0  0  0
  159.6130  210.1740  156.4460 C   0  0  0  0  0  0  0  0  0  0  0  0
  160.0450  210.9720  153.0560 C   0  0  0  0  0  0  0  0  0  0  0  0
  162.0610  208.5120  149.0280 C   0  0  1  0  0  3  0  0  0  0  0  0
  159.8320  210.1860  155.1410 C   0  0  0  0  0  0  0  0  0  0  0  0
  160.0180  211.8460  151.8920 N   0  0  0  0  0  0  0  0  0  0  0  0
  159.0750  211.4250  157.1080 C   0  0  0  0  0  2  0  0  0  0  0  0
  162.5580  207.3030  149.8130 C   0  0  0  0  0  2  0  0  0  0  0  0
  160.5170  209.1700  154.4100 C   0  0  0  0  0  0  0  0  0  0  0  0
  159.0120  207.0610  156.1860 C   0  0  0  0  0  1  0  0  0  0  0  0
  158.1950  213.5310  153.9710 C   0  0  0  0  0  2  0  0  0  0  0  0
  158.5780  212.4850  156.1280 C   0  0  0  0  0  3  0  0  0  0  0  0
  161.0770  207.9580  155.0890 C   0  0  0  0  0  2  0  0  0  0  0  0
  162.4010  209.8320  149.7230 C   0  0  1  0  0  3  0  0  0  0  0  0
  161.1440  210.4080  150.3400 C   0  0  1  0  0  3  0  0  0  0  0  0
  158.8350  212.4660  154.8070 C   0  0  0  0  0  0  0  0  0  0  0  0
  160.6920  209.6070  153.1670 C   0  0  0  0  0  0  0  0  0  0  0  0
  160.1520  209.0190  157.2610 C   0  0  0  0  0  2  0  0  0  0  0  0
  158.9020  212.7860  151.7370 C   0  0  1  0  0  3  0  0  0  0  0  0
  161.1990  206.7630  157.2610 C   0  0  0  0  0  1  0  0  0  0  0  0
  162.2180  209.8400  151.2420 C   0  0  1  0  0  3  0  0  0  0  0  0
  162.6360  208.5040  147.7580 O   0  0  0  0  0  1  0  0  0  0  0  0
  161.4830  208.8400  152.1340 C   0  0  2  0  0  3  0  0  0  0  0  0
  159.0060  213.9100  152.7500 C   0  0  0  0  0  2  0  0  0  0  0  0
  157.4060  213.3300  149.8060 C   0  0  0  0  0  3  0  0  0  0  0  0
  158.7020  213.2820  150.3310 C   0  0  0  0  0  0  0  0  0  0  0  0
  159.7900  213.6510  149.5230 C   0  0  0  0  0  3  0  0  0  0  0  0
  160.6800  214.4530  147.3950 N   0  0  0  0  0  1  0  0  0  0  0  0
  158.2780  214.1290  147.6940 C   0  0  0  0  0  3  0  0  0  0  0  0
  159.5760  214.0770  148.2090 C   0  0  0  0  0  0  0  0  0  0  0  0
  157.1930  213.7560  148.4920 C   0  0  0  0  0  3  0  0  0  0  0  0
  161.0980  204.8760  152.1790 O   0  0  0  0  0  1  0  0  0  0  0  0
  162.0740  205.7500  151.6990 C   0  0  0  0  0  2  0  0  0  0  0  0
  1 27  1  0  0  0  0
  2 24  1  0  0  0  0
  2 22  1  0  0  0  0
  3 20  1  0  0  0  0
  3  9  1  0  0  0  0
  4  1  1  0  0  0  0
  4 37  1  1  0  0  0
  5 10  1  0  0  0  0
  6 11  1  0  0  0  0
  6 22  1  0  0  0  0
  7 21  1  0  0  0  0
  7  3  2  0  0  0  0
  8 26  1  6  0  0  0
  8 18  1  0  0  0  0
  8 12  1  0  0  0  0
  9  6  2  0  0  0  0
 10  7  1  0  0  0  0
 12  4  1  0  0  0  0
 13 17  1  0  0  0  0
 13  9  1  0  0  0  0
 14  2  1  0  0  0  0
 15 20  1  0  0  0  0
 16 11  1  0  0  0  0
 17  2  1  0  0  0  0
 18 19  1  0  0  0  0
 18 25  1  0  0  0  0
 19  5  1  0  0  0  0
 19 25  1  0  0  0  0
 20 16  2  0  0  0  0
 21 13  2  0  0  0  0
 23 10  1  0  0  0  0
 23 28  1  0  0  0  0
 25 27  1  0  0  0  0
 27 21  1  0  0  0  0
 28 15  1  0  0  0  0
 29 30  1  0  0  0  0
 30 23  1  0  0  0  0
 31 30  2  0  0  0  0
 32 34  1  0  0  0  0
 33 34  2  0  0  0  0
 33 35  1  0  0  0  0
 34 31  1  0  0  0  0
 35 29  2  0  0  0  0
 37 36  1  0  0  0  0
M  END
>  <MODEL>
1

>  <REMARK>
 VINA RESULT:      -5.9      0.000      0.000
  Name = 
  2 active torsions:
  status: ('A' for Active; 'I' for Inactive)
    1  A    between atoms: C_4  and  C_37
    2  A    between atoms: C_23  and  C_30
                            x       y       z     vdW  Elec       q    Type
                         _______ _______ _______ _____ _____    ______ ____

>  <TORSDO>
F 2

$$$$
=
 OpenBabel11122413463D

 37 44  0  0  1  0  0  0  0  0999 V2000
  160.5760  207.7550  151.4170 C   0  0  0  0  0  2  0  0  0  0  0  0
  160.3230  207.7370  156.4320 C   0  0  0  0  0  0  0  0  0  0  0  0
  159.7580  211.3330  154.2310 C   0  0  0  0  0  0  0  0  0  0  0  0
  161.3320  206.6250  150.7030 C   0  0  1  0  0  3  0  0  0  0  0  0
  161.3310  211.7240  150.8370 C   0  0  0  0  0  2  0  0  0  0  0  0
  159.7620  210.2420  156.4230 C   0  0  0  0  0  0  0  0  0  0  0  0
  160.2440  210.9840  153.0270 C   0  0  0  0  0  0  0  0  0  0  0  0
  162.0610  208.3520  149.0120 C   0  0  1  0  0  3  0  0  0  0  0  0
  159.9780  210.2290  155.1180 C   0  0  0  0  0  0  0  0  0  0  0  0
  160.2800  211.8490  151.8570 N   0  0  0  0  0  0  0  0  0  0  0  0
  159.3210  211.5350  157.0780 C   0  0  0  0  0  2  0  0  0  0  0  0
  162.4680  207.1150  149.8040 C   0  0  0  0  0  2  0  0  0  0  0  0
  160.5840  209.1600  154.3920 C   0  0  0  0  0  0  0  0  0  0  0  0
  158.9300  207.1810  156.1860 C   0  0  0  0  0  1  0  0  0  0  0  0
  158.5940  213.6800  153.9280 C   0  0  0  0  0  2  0  0  0  0  0  0
  158.9030  212.6220  156.0920 C   0  0  0  0  0  3  0  0  0  0  0  0
  161.0530  207.9140  155.0790 C   0  0  0  0  0  2  0  0  0  0  0  0
  162.5010  209.6480  149.6970 C   0  0  1  0  0  3  0  0  0  0  0  0
  161.2920  210.3210  150.3130 C   0  0  1  0  0  3  0  0  0  0  0  0
  159.1540  212.5760  154.7700 C   0  0  0  0  0  0  0  0  0  0  0  0
  160.7880  209.5750  153.1460 C   0  0  0  0  0  0  0  0  0  0  0  0
  160.2160  209.0570  157.2450 C   0  0  0  0  0  2  0  0  0  0  0  0
  159.2370  212.8690  151.6980 C   0  0  1  0  0  3  0  0  0  0  0  0
  161.0910  206.7280  157.2580 C   0  0  0  0  0  1  0  0  0  0  0  0
  162.3220  209.6800  151.2160 C   0  0  1  0  0  3  0  0  0  0  0  0
  162.6300  208.2930  147.7410 O   0  0  0  0  0  1  0  0  0  0  0  0
  161.5170  208.7440  152.1160 C   0  0  2  0  0  3  0  0  0  0  0  0
  159.4280  213.9890  152.7020 C   0  0  0  0  0  2  0  0  0  0  0  0
  160.1830  213.9010  149.6240 C   0  0  0  0  0  3  0  0  0  0  0  0
  159.0720  213.3690  150.2890 C   0  0  0  0  0  0  0  0  0  0  0  0
  157.8230  213.3550  149.6480 C   0  0  0  0  0  3  0  0  0  0  0  0
  156.4270  213.8360  147.7030 N   0  0  0  0  0  1  0  0  0  0  0  0
  158.8080  214.3790  147.6880 C   0  0  0  0  0  3  0  0  0  0  0  0
  157.6940  213.8550  148.3490 C   0  0  0  0  0  0  0  0  0  0  0  0
  160.0520  214.4020  148.3250 C   0  0  0  0  0  3  0  0  0  0  0  0
  161.1500  204.4250  151.6200 O   0  0  0  0  0  1  0  0  0  0  0  0
  161.8740  205.6150  151.7020 C   0  0  0  0  0  2  0  0  0  0  0  0
  1 27  1  0  0  0  0
  2 22  1  0  0  0  0
  2 24  1  0  0  0  0
  3 20  1  0  0  0  0
  3  9  1  0  0  0  0
  4  1  1  0  0  0  0
  4 37  1  1  0  0  0
  5 10  1  0  0  0  0
  6 11  1  0  0  0  0
  6 22  1  0  0  0  0
  7 21  1  0  0  0  0
  7  3  2  0  0  0  0
  8 26  1  6  0  0  0
  8 18  1  0  0  0  0
  8 12  1  0  0  0  0
  9  6  2  0  0  0  0
 10  7  1  0  0  0  0
 12  4  1  0  0  0  0
 13 17  1  0  0  0  0
 13  9  1  0  0  0  0
 14  2  1  0  0  0  0
 15 20  1  0  0  0  0
 16 11  1  0  0  0  0
 17  2  1  0  0  0  0
 18 19  1  0  0  0  0
 18 25  1  0  0  0  0
 19  5  1  0  0  0  0
 19 25  1  0  0  0  0
 20 16  2  0  0  0  0
 21 13  2  0  0  0  0
 23 10  1  0  0  0  0
 23 28  1  0  0  0  0
 25 27  1  0  0  0  0
 27 21  1  0  0  0  0
 28 15  1  0  0  0  0
 29 30  1  0  0  0  0
 30 23  1  0  0  0  0
 31 30  2  0  0  0  0
 32 34  1  0  0  0  0
 33 35  1  0  0  0  0
 33 34  2  0  0  0  0
 34 31  1  0  0  0  0
 35 29  2  0  0  0  0
 36 37  1  0  0  0  0
M  END
>  <MODEL>
2

>  <REMARK>
 VINA RESULT:      -5.7      0.773      1.107
  Name = 
  2 active torsions:
  status: ('A' for Active; 'I' for Inactive)
    1  A    between atoms: C_4  and  C_37
    2  A    between atoms: C_23  and  C_30
                            x       y       z     vdW  Elec       q    Type
                         _______ _______ _______ _____ _____    ______ ____

>  <TORSDO>
F 2

$$$$
=
 OpenBabel11122413463D

 37 44  0  0  1  0  0  0  0  0999 V2000
  160.7750  208.1690  151.4310 C   0  0  0  0  0  2  0  0  0  0  0  0
  161.0260  209.1780  156.3430 C   0  0  0  0  0  0  0  0  0  0  0  0
  159.9490  212.1980  153.5480 C   0  0  0  0  0  0  0  0  0  0  0  0
  161.5460  206.9640  150.8750 C   0  0  1  0  0  3  0  0  0  0  0  0
  161.1380  211.9690  149.9860 C   0  0  0  0  0  2  0  0  0  0  0  0
  160.2630  211.5890  155.8980 C   0  0  0  0  0  0  0  0  0  0  0  0
  160.3400  211.6360  152.3900 C   0  0  0  0  0  0  0  0  0  0  0  0
  161.9580  208.3420  148.8000 C   0  0  1  0  0  3  0  0  0  0  0  0
  160.3480  211.3180  154.6050 C   0  0  0  0  0  0  0  0  0  0  0  0
  160.1880  212.2400  151.0730 N   0  0  0  0  0  0  0  0  0  0  0  0
  159.7840  212.9590  156.3270 C   0  0  0  0  0  2  0  0  0  0  0  0
  162.5430  207.3240  149.7720 C   0  0  0  0  0  2  0  0  0  0  0  0
  160.9630  210.1590  154.0440 C   0  0  0  0  0  0  0  0  0  0  0  0
  159.6660  208.5010  156.3740 C   0  0  0  0  0  1  0  0  0  0  0  0
  158.5710  214.3560  152.9170 C   0  0  0  0  0  2  0  0  0  0  0  0
  159.1810  213.7910  155.1980 C   0  0  0  0  0  3  0  0  0  0  0  0
  161.6010  209.1140  154.9070 C   0  0  0  0  0  2  0  0  0  0  0  0
  162.3560  209.7760  149.1580 C   0  0  1  0  0  3  0  0  0  0  0  0
  161.1630  210.4880  149.7610 C   0  0  1  0  0  3  0  0  0  0  0  0
  159.3020  213.4870  153.8930 C   0  0  0  0  0  0  0  0  0  0  0  0
  161.0080  210.3180  152.7250 C   0  0  0  0  0  0  0  0  0  0  0  0
  160.8920  210.6290  156.8820 C   0  0  0  0  0  2  0  0  0  0  0  0
  159.0530  213.1400  150.8350 C   0  0  1  0  0  3  0  0  0  0  0  0
  161.9530  208.4110  157.2610 C   0  0  0  0  0  1  0  0  0  0  0  0
  162.3280  210.1130  150.6500 C   0  0  1  0  0  3  0  0  0  0  0  0
  162.4000  208.0550  147.5100 O   0  0  0  0  0  1  0  0  0  0  0  0
  161.6960  209.3370  151.8060 C   0  0  2  0  0  3  0  0  0  0  0  0
  159.2500  214.4530  151.5660 C   0  0  0  0  0  2  0  0  0  0  0  0
  157.4350  212.9520  148.9360 C   0  0  0  0  0  3  0  0  0  0  0  0
  158.7080  213.3250  149.3820 C   0  0  0  0  0  0  0  0  0  0  0  0
  159.6470  213.8180  148.4630 C   0  0  0  0  0  3  0  0  0  0  0  0
  160.2610  214.4530  146.1860 N   0  0  0  0  0  1  0  0  0  0  0  0
  158.0320  213.5810  146.6750 C   0  0  0  0  0  3  0  0  0  0  0  0
  159.3070  213.9500  147.1130 C   0  0  0  0  0  0  0  0  0  0  0  0
  157.0960  213.0830  147.5860 C   0  0  0  0  0  3  0  0  0  0  0  0
  161.4290  206.0820  153.0940 O   0  0  0  0  0  1  0  0  0  0  0  0
  162.2670  206.2170  151.9870 C   0  0  0  0  0  2  0  0  0  0  0  0
  1 27  1  0  0  0  0
  2 14  1  0  0  0  0
  2 22  1  0  0  0  0
  2 24  1  0  0  0  0
  3 20  1  0  0  0  0
  3  9  1  0  0  0  0
  4  1  1  0  0  0  0
  4 37  1  1  0  0  0
  5 10  1  0  0  0  0
  6 11  1  0  0  0  0
  6 22  1  0  0  0  0
  7 21  1  0  0  0  0
  7  3  2  0  0  0  0
  8 26  1  6  0  0  0
  8 18  1  0  0  0  0
  8 12  1  0  0  0  0
  9  6  2  0  0  0  0
 10  7  1  0  0  0  0
 12  4  1  0  0  0  0
 13  9  1  0  0  0  0
 13 17  1  0  0  0  0
 15 20  1  0  0  0  0
 16 11  1  0  0  0  0
 17  2  1  0  0  0  0
 18 19  1  0  0  0  0
 18 25  1  0  0  0  0
 19  5  1  0  0  0  0
 19 25  1  0  0  0  0
 20 16  2  0  0  0  0
 21 13  2  0  0  0  0
 23 10  1  0  0  0  0
 23 28  1  0  0  0  0
 25 27  1  0  0  0  0
 27 21  1  0  0  0  0
 28 15  1  0  0  0  0
 29 30  1  0  0  0  0
 30 23  1  0  0  0  0
 31 30  2  0  0  0  0
 32 34  1  0  0  0  0
 33 34  2  0  0  0  0
 33 35  1  0  0  0  0
 34 31  1  0  0  0  0
 35 29  2  0  0  0  0
 37 36  1  0  0  0  0
M  END
>  <MODEL>
3

>  <REMARK>
 VINA RESULT:      -3.7      1.040      1.172
  Name = 
  2 active torsions:
  status: ('A' for Active; 'I' for Inactive)
    1  A    between atoms: C_4  and  C_37
    2  A    between atoms: C_23  and  C_30
                            x       y       z     vdW  Elec       q    Type
                         _______ _______ _______ _____ _____    ______ ____

>  <TORSDO>
F 2

$$$$
