=
 OpenBabel11122414363D

 34 42  0  0  1  0  0  0  0  0999 V2000
  161.0150  204.5210  151.1260 C   0  0  0  0  0  0  0  0  0  0  0  0
  160.6150  205.7810  153.2010 C   0  0  0  0  0  3  0  0  0  0  0  0
  161.4250  204.6120  144.5740 C   0  0  2  0  0  0  0  0  0  0  0  0
  161.4820  203.5590  148.9240 C   0  0  0  0  0  0  0  0  0  0  0  0
  161.9300  205.0730  147.0670 C   0  0  0  0  0  0  0  0  0  0  0  0
  161.1330  206.0560  144.9310 C   0  0  2  0  0  3  0  0  0  0  0  0
  160.9900  205.5820  143.4990 C   0  0  0  0  0  2  0  0  0  0  0  0
  160.7180  202.4530  145.7050 C   0  0  0  0  0  2  0  0  0  0  0  0
  161.0410  206.8760  151.4000 C   0  0  0  0  0  0  0  0  0  0  0  0
  162.4170  209.5720  151.7140 C   0  0  0  0  0  3  0  0  0  0  0  0
  161.7910  206.1330  147.9070 N   0  0  0  0  0  0  0  0  0  0  0  0
  161.9310  202.5880  146.6320 C   0  0  0  0  0  2  0  0  0  0  0  0
  161.3570  207.1110  150.0600 C   0  0  0  0  0  0  0  0  0  0  0  0
  160.6060  207.0900  153.5630 N   0  0  0  0  0  0  0  0  0  0  0  0
  161.7930  203.7580  147.5670 C   0  0  0  0  0  0  0  0  0  0  0  0
  160.2550  203.7820  145.1000 C   0  0  0  0  0  2  0  0  0  0  0  0
  161.0450  209.2580  152.3120 C   0  0  1  0  0  3  0  0  0  0  0  0
  161.3330  204.6770  149.7620 C   0  0  0  0  0  0  0  0  0  0  0  0
  162.2800  205.3410  145.6220 C   0  0  2  0  0  3  0  0  0  0  0  0
  161.5000  205.9830  149.2260 C   0  0  0  0  0  0  0  0  0  0  0  0
  160.9690  202.0910  150.9360 C   0  0  0  0  0  3  0  0  0  0  0  0
  162.5470  209.3400  150.1960 C   0  0  0  0  0  3  0  0  0  0  0  0
  161.3100  202.1560  149.4690 C   0  0  0  0  0  2  0  0  0  0  0  0
  161.4410  208.5140  149.5300 C   0  0  0  0  0  2  0  0  0  0  0  0
  160.8780  207.7700  152.4240 C   0  0  0  0  0  0  0  0  0  0  0  0
  160.8350  203.1770  151.6970 C   0  0  0  0  0  3  0  0  0  0  0  0
  160.8850  205.6400  151.8860 N   0  0  0  0  0  0  0  0  0  0  0  0
  160.9410  209.8540  153.5710 O   0  0  0  0  0  0  0  0  0  0  0  0
  160.8880  211.1850  153.3180 N   0  0  0  0  0  2  0  0  0  0  0  0
  157.8500  211.8900  154.1640 O   0  0  0  0  0  0  0  0  0  0  0  0
  159.5710  210.7450  155.2960 C   0  0  0  0  0  2  0  0  0  0  0  0
  160.2050  211.8040  154.4420 C   0  0  2  0  0  3  0  0  0  0  0  0
  158.1080  211.1140  155.3010 C   0  0  0  0  0  2  0  0  0  0  0  0
  159.0330  212.6130  153.9350 C   0  0  0  0  0  2  0  0  0  0  0  0
  1 26  1  0  0  0  0
  1 27  1  0  0  0  0
  2 14  2  0  0  0  0
  3  7  1  6  0  0  0
  3  6  1  0  0  0  0
  3 16  1  0  0  0  0
  3 19  1  0  0  0  0
  4 23  1  0  0  0  0
  4 18  1  0  0  0  0
  5 15  1  0  0  0  0
  5 11  2  0  0  0  0
  6  7  1  6  0  0  0
  6 19  1  0  0  0  0
  8 12  1  0  0  0  0
  9 27  1  0  0  0  0
  9 25  2  0  0  0  0
 10 17  1  0  0  0  0
 11 20  1  0  0  0  0
 12 15  1  0  0  0  0
 13  9  1  0  0  0  0
 15  4  2  0  0  0  0
 16  8  1  0  0  0  0
 17 25  1  0  0  0  0
 17 28  1  1  0  0  0
 18  1  2  0  0  0  0
 19  5  1  1  0  0  0
 20 18  1  0  0  0  0
 20 13  2  0  0  0  0
 21 26  2  0  0  0  0
 22 10  2  0  0  0  0
 23 21  1  0  0  0  0
 24 13  1  0  0  0  0
 24 22  1  0  0  0  0
 25 14  1  0  0  0  0
 27  2  1  0  0  0  0
 29 28  1  0  0  0  0
 30 33  1  0  0  0  0
 31 33  1  0  0  0  0
 32 29  1  6  0  0  0
 32 31  1  0  0  0  0
 34 30  1  0  0  0  0
 34 32  1  0  0  0  0
M  END
>  <MODEL>
1

>  <REMARK>
 VINA RESULT:      -9.3      0.000      0.000
  Name = 
  3 active torsions:
  status: ('A' for Active; 'I' for Inactive)
    1  A    between atoms: C_17  and  O_28
    2  A    between atoms: O_28  and  N_29
    3  A    between atoms: N_29  and  C_32
                            x       y       z     vdW  Elec       q    Type
                         _______ _______ _______ _____ _____    ______ ____

>  <TORSDO>
F 3

$$$$
=
 OpenBabel11122414363D

 34 42  0  0  1  0  0  0  0  0999 V2000
  161.4230  207.3540  149.5280 C   0  0  0  0  0  0  0  0  0  0  0  0
  161.0080  205.6870  147.7670 C   0  0  0  0  0  3  0  0  0  0  0  0
  160.7150  209.0590  155.8290 C   0  0  2  0  0  0  0  0  0  0  0  0
  161.7910  208.7660  151.4930 C   0  0  0  0  0  0  0  0  0  0  0  0
  161.4570  207.7900  153.7020 C   0  0  0  0  0  0  0  0  0  0  0  0
  160.0660  207.6910  155.7570 C   0  0  2  0  0  3  0  0  0  0  0  0
  159.8410  208.5780  156.9640 C   0  0  0  0  0  2  0  0  0  0  0  0
  160.8790  210.9050  154.0940 C   0  0  0  0  0  2  0  0  0  0  0  0
  160.7890  205.0880  149.8210 C   0  0  0  0  0  0  0  0  0  0  0  0
  161.3280  202.1660  150.4740 C   0  0  0  0  0  3  0  0  0  0  0  0
  161.1470  206.6000  153.1220 N   0  0  0  0  0  0  0  0  0  0  0  0
  162.1300  210.2160  153.5380 C   0  0  0  0  0  2  0  0  0  0  0  0
  160.7980  205.1800  151.2140 C   0  0  0  0  0  0  0  0  0  0  0  0
  160.6680  204.3720  147.7270 N   0  0  0  0  0  0  0  0  0  0  0  0
  161.8030  208.8970  152.8940 C   0  0  0  0  0  0  0  0  0  0  0  0
  159.9480  209.9620  154.8630 C   0  0  0  0  0  2  0  0  0  0  0  0
  160.2290  202.6190  149.5130 C   0  0  1  0  0  3  0  0  0  0  0  0
  161.4530  207.5250  150.9270 C   0  0  0  0  0  0  0  0  0  0  0  0
  161.4720  207.8730  155.2110 C   0  0  2  0  0  3  0  0  0  0  0  0
  161.1330  206.4290  151.7740 C   0  0  0  0  0  0  0  0  0  0  0  0
  162.0750  209.6700  149.1340 C   0  0  0  0  0  3  0  0  0  0  0  0
  161.2730  202.7860  151.8840 C   0  0  0  0  0  3  0  0  0  0  0  0
  162.1370  209.9500  150.6140 C   0  0  0  0  0  2  0  0  0  0  0  0
  160.3710  204.0140  152.0590 C   0  0  0  0  0  2  0  0  0  0  0  0
  160.5350  204.0050  149.0230 C   0  0  0  0  0  0  0  0  0  0  0  0
  161.7480  208.4770  148.6350 C   0  0  0  0  0  3  0  0  0  0  0  0
  161.0900  206.1310  149.0390 N   0  0  0  0  0  0  0  0  0  0  0  0
  160.1580  201.7290  148.4380 O   0  0  0  0  0  0  0  0  0  0  0  0
  161.3350  201.0570  148.4700 N   0  0  0  0  0  2  0  0  0  0  0  0
  160.6090  199.3480  145.8260 O   0  0  0  0  0  0  0  0  0  0  0  0
  160.8490  201.6650  146.1820 C   0  0  0  0  0  2  0  0  0  0  0  0
  161.8040  200.9550  147.0980 C   0  0  2  0  0  3  0  0  0  0  0  0
  160.4140  200.5930  145.2140 C   0  0  0  0  0  2  0  0  0  0  0  0
  161.7350  199.5140  146.6480 C   0  0  0  0  0  2  0  0  0  0  0  0
  1 18  2  0  0  0  0
  2 27  1  0  0  0  0
  3 16  1  6  0  0  0
  3  7  1  0  0  0  0
  4 15  2  0  0  0  0
  6  3  1  0  0  0  0
  6  7  1  1  0  0  0
  8 16  1  0  0  0  0
  9 13  1  0  0  0  0
 10 22  2  0  0  0  0
 11  5  2  0  0  0  0
 12  8  1  0  0  0  0
 13 20  2  0  0  0  0
 13 24  1  0  0  0  0
 14  2  2  0  0  0  0
 14 25  1  0  0  0  0
 15 12  1  0  0  0  0
 15  5  1  0  0  0  0
 17 28  1  6  0  0  0
 17 10  1  0  0  0  0
 18  4  1  0  0  0  0
 18 20  1  0  0  0  0
 19  5  1  6  0  0  0
 19  6  1  0  0  0  0
 19  3  1  0  0  0  0
 20 11  1  0  0  0  0
 21 23  1  0  0  0  0
 22 24  1  0  0  0  0
 23  4  1  0  0  0  0
 25 17  1  0  0  0  0
 25  9  2  0  0  0  0
 26 21  2  0  0  0  0
 26  1  1  0  0  0  0
 27  1  1  0  0  0  0
 27  9  1  0  0  0  0
 28 29  1  0  0  0  0
 30 34  1  0  0  0  0
 31 32  1  0  0  0  0
 32 29  1  1  0  0  0
 33 30  1  0  0  0  0
 33 31  1  0  0  0  0
 34 32  1  0  0  0  0
M  END
>  <MODEL>
2

>  <REMARK>
 VINA RESULT:      -8.5      3.277      9.147
  Name = 
  3 active torsions:
  status: ('A' for Active; 'I' for Inactive)
    1  A    between atoms: C_17  and  O_28
    2  A    between atoms: O_28  and  N_29
    3  A    between atoms: N_29  and  C_32
                            x       y       z     vdW  Elec       q    Type
                         _______ _______ _______ _____ _____    ______ ____

>  <TORSDO>
F 3

$$$$
