=
 OpenBabel11122413223D

 31 35  0  0  1  0  0  0  0  0999 V2000
  160.8960  206.8130  154.5840 C   0  0  0  0  0  0  0  0  0  0  0  0
  160.8510  209.0110  151.5330 N   0  0  0  0  0  0  0  0  0  0  0  0
  160.6880  210.3480  152.1240 C   0  0  2  0  0  3  0  0  0  0  0  0
  161.8150  204.9830  148.1690 O   0  0  0  0  0  0  0  0  0  0  0  0
  161.7660  206.0610  147.5190 C   0  0  0  0  0  0  0  0  0  0  0  0
  159.2360  211.9080  153.3620 C   0  0  2  0  0  3  0  0  0  0  0  0
  160.9550  207.8530  152.3870 C   0  0  0  0  0  0  0  0  0  0  0  0
  161.1670  205.5710  154.0060 C   0  0  0  0  0  3  0  0  0  0  0  0
  159.2900  210.5350  152.7090 C   0  0  0  0  0  2  0  0  0  0  0  0
  161.3740  207.5040  149.5950 C   0  0  0  0  0  0  0  0  0  0  0  0
  160.7340  206.9160  155.9250 F   0  0  0  0  0  0  0  0  0  0  0  0
  161.9980  211.2610  150.0160 C   0  0  0  0  0  2  0  0  0  0  0  0
  157.9040  212.0890  154.0610 C   0  0  0  0  0  1  0  0  0  0  0  0
  161.4130  206.4880  150.4060 N   0  0  0  0  0  0  0  0  0  0  0  0
  161.1480  208.9120  150.0940 C   0  0  2  0  0  3  0  0  0  0  0  0
  161.5440  207.3130  148.1850 N   0  0  0  0  0  2  0  0  0  0  0  0
  160.7900  207.9500  153.7780 C   0  0  0  0  0  3  0  0  0  0  0  0
  159.4140  213.0040  152.3100 C   0  0  0  0  0  2  0  0  0  0  0  0
  161.2320  206.6040  151.8160 C   0  0  0  0  0  0  0  0  0  0  0  0
  161.3350  205.4670  152.6230 C   0  0  0  0  0  3  0  0  0  0  0  0
  162.3540  209.7900  149.7930 C   0  0  0  0  0  2  0  0  0  0  0  0
  161.0440  211.4770  151.1630 C   0  0  0  0  0  0  0  0  0  0  0  0
  160.5000  212.6960  151.3070 C   0  0  0  0  0  3  0  0  0  0  0  0
  160.6420  203.6780  144.7980 C   0  0  1  0  0  3  0  0  0  0  0  0
  160.6180  206.1400  145.2860 C   0  0  0  0  0  2  0  0  0  0  0  0
  163.9350  204.6540  146.2630 O   0  0  0  0  0  1  0  0  0  0  0  0
  159.8320  202.4010  144.8860 C   0  0  0  0  0  1  0  0  0  0  0  0
  159.8190  204.8380  145.3490 C   0  0  0  0  0  2  0  0  0  0  0  0
  162.7520  204.8030  145.5360 C   0  0  2  0  0  3  0  0  0  0  0  0
  161.9530  206.0200  146.0300 C   0  0  2  0  0  3  0  0  0  0  0  0
  161.9310  203.5170  145.5980 C   0  0  0  0  0  2  0  0  0  0  0  0
  1 11  1  0  0  0  0
  2  3  1  0  0  0  0
  2  7  1  0  0  0  0
  3  9  1  6  0  0  0
  5  4  2  0  0  0  0
  5 16  1  0  0  0  0
  6 13  1  6  0  0  0
  7 17  1  0  0  0  0
  8  1  1  0  0  0  0
  9  6  1  0  0  0  0
 10 15  1  0  0  0  0
 10 14  2  0  0  0  0
 12 22  1  0  0  0  0
 14 19  1  0  0  0  0
 15 21  1  1  0  0  0
 15  2  1  0  0  0  0
 16 10  1  0  0  0  0
 17  1  2  0  0  0  0
 18  6  1  0  0  0  0
 19  7  2  0  0  0  0
 19 20  1  0  0  0  0
 20  8  2  0  0  0  0
 21 12  1  0  0  0  0
 22 23  2  0  0  0  0
 22  3  1  0  0  0  0
 23 18  1  0  0  0  0
 24 27  1  1  0  0  0
 24 28  1  0  0  0  0
 24 31  1  0  0  0  0
 25 28  1  0  0  0  0
 25 30  1  0  0  0  0
 29 31  1  0  0  0  0
 29 30  1  0  0  0  0
 29 26  1  1  0  0  0
 30  5  1  1  0  0  0
M  END
>  <MODEL>
1

>  <REMARK>
 VINA RESULT:      -7.4      0.000      0.000
  Name = 
  1 active torsions:
  status: ('A' for Active; 'I' for Inactive)
    1  A    between atoms: C_5  and  C_30
                            x       y       z     vdW  Elec       q    Type
                         _______ _______ _______ _____ _____    ______ ____

>  <TORSDO>
F 1

$$$$
=
 OpenBabel11122413223D

 31 35  0  0  1  0  0  0  0  0999 V2000
  162.5270  209.3940  148.8430 C   0  0  0  0  0  0  0  0  0  0  0  0
  161.0560  207.8940  151.9610 N   0  0  0  0  0  0  0  0  0  0  0  0
  161.4450  206.4810  151.8310 C   0  0  2  0  0  3  0  0  0  0  0  0
  159.3670  212.5850  153.8600 O   0  0  0  0  0  0  0  0  0  0  0  0
  159.1050  211.6820  154.6990 C   0  0  0  0  0  0  0  0  0  0  0  0
  161.1880  204.3610  150.6000 C   0  0  2  0  0  3  0  0  0  0  0  0
  161.4670  208.8490  150.9620 C   0  0  0  0  0  0  0  0  0  0  0  0
  162.2460  210.7470  149.0470 C   0  0  0  0  0  3  0  0  0  0  0  0
  160.6710  205.7880  150.7130 C   0  0  0  0  0  2  0  0  0  0  0  0
  160.1690  209.8240  153.2970 C   0  0  0  0  0  0  0  0  0  0  0  0
  163.1730  208.9980  147.7200 F   0  0  0  0  0  0  0  0  0  0  0  0
  161.4320  206.4040  154.4750 C   0  0  0  0  0  2  0  0  0  0  0  0
  160.5320  203.6720  149.4220 C   0  0  0  0  0  1  0  0  0  0  0  0
  160.5220  210.6350  152.3450 N   0  0  0  0  0  0  0  0  0  0  0  0
  160.4640  208.3440  153.2320 C   0  0  2  0  0  3  0  0  0  0  0  0
  159.4770  210.3190  154.4520 N   0  0  0  0  0  2  0  0  0  0  0  0
  162.1390  208.4480  149.7960 C   0  0  0  0  0  3  0  0  0  0  0  0
  160.8850  203.5830  151.8820 C   0  0  0  0  0  2  0  0  0  0  0  0
  161.1940  210.2090  151.1620 C   0  0  0  0  0  0  0  0  0  0  0  0
  161.5810  211.1530  150.2060 C   0  0  0  0  0  3  0  0  0  0  0  0
  161.3910  207.9290  154.3660 C   0  0  0  0  0  2  0  0  0  0  0  0
  161.3420  205.7070  153.1420 C   0  0  0  0  0  0  0  0  0  0  0  0
  161.1510  204.3780  153.1380 C   0  0  0  0  0  3  0  0  0  0  0  0
  156.0110  213.7190  155.4890 C   0  0  1  0  0  3  0  0  0  0  0  0
  156.9880  211.4710  156.0330 C   0  0  0  0  0  2  0  0  0  0  0  0
  159.6690  214.1100  156.1300 O   0  0  0  0  0  1  0  0  0  0  0  0
  155.0600  214.4530  154.5690 C   0  0  0  0  0  1  0  0  0  0  0  0
  156.0230  212.2360  155.1270 C   0  0  0  0  0  2  0  0  0  0  0  0
  158.3890  213.5660  156.2550 C   0  0  2  0  0  3  0  0  0  0  0  0
  158.4030  212.0550  155.9730 C   0  0  2  0  0  3  0  0  0  0  0  0
  157.4110  214.3090  155.3470 C   0  0  0  0  0  2  0  0  0  0  0  0
  1  8  2  0  0  0  0
  1 17  1  0  0  0  0
  2 15  1  0  0  0  0
  3  9  1  6  0  0  0
  3  2  1  0  0  0  0
  3 22  1  0  0  0  0
  4  5  2  0  0  0  0
  6 13  1  6  0  0  0
  6  9  1  0  0  0  0
  6 18  1  0  0  0  0
  7 19  1  0  0  0  0
  7  2  1  0  0  0  0
  8 20  1  0  0  0  0
 10 16  1  0  0  0  0
 11  1  1  0  0  0  0
 14 10  2  0  0  0  0
 15 10  1  0  0  0  0
 15 21  1  1  0  0  0
 16  5  1  0  0  0  0
 17  7  2  0  0  0  0
 18 23  1  0  0  0  0
 19 14  1  0  0  0  0
 20 19  2  0  0  0  0
 21 12  1  0  0  0  0
 22 12  1  0  0  0  0
 23 22  2  0  0  0  0
 24 27  1  6  0  0  0
 28 24  1  0  0  0  0
 28 25  1  0  0  0  0
 29 26  1  6  0  0  0
 30  5  1  6  0  0  0
 30 25  1  0  0  0  0
 30 29  1  0  0  0  0
 31 24  1  0  0  0  0
 31 29  1  0  0  0  0
M  END
>  <MODEL>
2

>  <REMARK>
 VINA RESULT:      -7.0      4.084      9.222
  Name = 
  1 active torsions:
  status: ('A' for Active; 'I' for Inactive)
    1  A    between atoms: C_5  and  C_30
                            x       y       z     vdW  Elec       q    Type
                         _______ _______ _______ _____ _____    ______ ____

>  <TORSDO>
F 1

$$$$
=
 OpenBabel11122413223D

 31 35  0  0  1  0  0  0  0  0999 V2000
  162.6790  209.7650  148.6420 C   0  0  0  0  0  0  0  0  0  0  0  0
  161.0710  208.6990  151.8700 N   0  0  0  0  0  0  0  0  0  0  0  0
  161.4960  207.2940  151.9710 C   0  0  2  0  0  3  0  0  0  0  0  0
  159.1810  213.5680  152.9600 O   0  0  0  0  0  0  0  0  0  0  0  0
  158.8930  212.7910  153.9090 C   0  0  0  0  0  0  0  0  0  0  0  0
  161.3520  205.0100  151.0580 C   0  0  2  0  0  3  0  0  0  0  0  0
  161.5160  209.5080  150.7620 C   0  0  0  0  0  0  0  0  0  0  0  0
  162.3590  211.1250  148.6280 C   0  0  0  0  0  3  0  0  0  0  0  0
  160.8000  206.4230  150.9310 C   0  0  0  0  0  2  0  0  0  0  0  0
  160.0710  210.7790  152.8570 C   0  0  0  0  0  0  0  0  0  0  0  0
  163.3940  209.2270  147.6260 F   0  0  0  0  0  0  0  0  0  0  0  0
  161.3400  207.6080  154.5930 C   0  0  0  0  0  2  0  0  0  0  0  0
  160.7770  204.1360  149.9630 C   0  0  0  0  0  1  0  0  0  0  0  0
  160.4580  211.4510  151.8130 N   0  0  0  0  0  0  0  0  0  0  0  0
  160.4000  209.3140  153.0270 C   0  0  2  0  0  3  0  0  0  0  0  0
  159.3070  211.4180  153.8870 N   0  0  0  0  0  2  0  0  0  0  0  0
  162.2590  208.9600  149.7050 C   0  0  0  0  0  3  0  0  0  0  0  0
  160.9950  204.4210  152.4240 C   0  0  0  0  0  2  0  0  0  0  0  0
  161.2040  210.8740  150.7430 C   0  0  0  0  0  0  0  0  0  0  0  0
  161.6220  211.6780  149.6780 C   0  0  0  0  0  3  0  0  0  0  0  0
  161.2720  209.0980  154.2560 C   0  0  0  0  0  2  0  0  0  0  0  0
  161.3380  206.7200  153.3750 C   0  0  0  0  0  0  0  0  0  0  0  0
  161.1750  205.4000  153.5600 C   0  0  0  0  0  3  0  0  0  0  0  0
  155.9010  211.5370  155.8650 C   0  0  1  0  0  3  0  0  0  0  0  0
  158.2150  212.4080  156.2980 C   0  0  0  0  0  2  0  0  0  0  0  0
  156.5520  214.4290  153.5940 O   0  0  0  0  0  1  0  0  0  0  0  0
  155.0750  210.2800  155.6930 C   0  0  0  0  0  1  0  0  0  0  0  0
  157.3540  211.1560  156.1340 C   0  0  0  0  0  2  0  0  0  0  0  0
  156.6460  213.6500  154.7480 C   0  0  2  0  0  3  0  0  0  0  0  0
  158.1140  213.3270  155.0760 C   0  0  2  0  0  3  0  0  0  0  0  0
  155.8020  212.3850  154.6010 C   0  0  0  0  0  2  0  0  0  0  0  0
  1 17  1  0  0  0  0
  2  3  1  0  0  0  0
  2 15  1  0  0  0  0
  3  9  1  6  0  0  0
  3 22  1  0  0  0  0
  4  5  2  0  0  0  0
  6 13  1  6  0  0  0
  6 18  1  0  0  0  0
  7  2  1  0  0  0  0
  8  1  2  0  0  0  0
  8 20  1  0  0  0  0
  9  6  1  0  0  0  0
 10 15  1  0  0  0  0
 10 16  1  0  0  0  0
 11  1  1  0  0  0  0
 14 10  2  0  0  0  0
 15 21  1  1  0  0  0
 16  5  1  0  0  0  0
 17  7  2  0  0  0  0
 18 23  1  0  0  0  0
 19  7  1  0  0  0  0
 19 14  1  0  0  0  0
 20 19  2  0  0  0  0
 21 12  1  0  0  0  0
 22 23  2  0  0  0  0
 22 12  1  0  0  0  0
 24 27  1  6  0  0  0
 24 28  1  0  0  0  0
 28 25  1  0  0  0  0
 29 26  1  6  0  0  0
 29 30  1  0  0  0  0
 30  5  1  6  0  0  0
 30 25  1  0  0  0  0
 31 29  1  0  0  0  0
 31 24  1  0  0  0  0
M  END
>  <MODEL>
3

>  <REMARK>
 VINA RESULT:      -6.7      4.240      8.943
  Name = 
  1 active torsions:
  status: ('A' for Active; 'I' for Inactive)
    1  A    between atoms: C_5  and  C_30
                            x       y       z     vdW  Elec       q    Type
                         _______ _______ _______ _____ _____    ______ ____

>  <TORSDO>
F 1

$$$$
=
 OpenBabel11122413223D

 31 35  0  0  1  0  0  0  0  0999 V2000
  161.7090  207.2910  148.3060 C   0  0  0  0  0  0  0  0  0  0  0  0
  161.4830  210.3710  150.4510 N   0  0  0  0  0  0  0  0  0  0  0  0
  161.2940  211.4280  149.4460 C   0  0  2  0  0  3  0  0  0  0  0  0
  161.7110  207.6420  155.0300 O   0  0  0  0  0  0  0  0  0  0  0  0
  161.5630  208.8660  155.2860 C   0  0  0  0  0  0  0  0  0  0  0  0
  162.2570  212.7110  147.5750 C   0  0  2  0  0  3  0  0  0  0  0  0
  161.5800  208.9930  150.0380 C   0  0  0  0  0  0  0  0  0  0  0  0
  161.7720  206.2960  149.2830 C   0  0  0  0  0  3  0  0  0  0  0  0
  162.5650  211.6620  148.6340 C   0  0  0  0  0  2  0  0  0  0  0  0
  161.4620  209.5530  152.8240 C   0  0  0  0  0  0  0  0  0  0  0  0
  161.7430  206.9550  146.9940 F   0  0  0  0  0  0  0  0  0  0  0  0
  159.9720  212.7460  151.3200 C   0  0  0  0  0  2  0  0  0  0  0  0
  163.4570  212.8870  146.6680 C   0  0  0  0  0  1  0  0  0  0  0  0
  161.5940  208.3320  152.3960 N   0  0  0  0  0  0  0  0  0  0  0  0
  161.3240  210.7190  151.8730 C   0  0  2  0  0  3  0  0  0  0  0  0
  161.4450  209.8300  154.2300 N   0  0  0  0  0  2  0  0  0  0  0  0
  161.6140  208.6340  148.6800 C   0  0  0  0  0  3  0  0  0  0  0  0
  161.9140  214.0470  148.2350 C   0  0  0  0  0  2  0  0  0  0  0  0
  161.6370  207.9880  151.0120 C   0  0  0  0  0  0  0  0  0  0  0  0
  161.7350  206.6450  150.6360 C   0  0  0  0  0  3  0  0  0  0  0  0
  159.9760  211.4030  152.0510 C   0  0  0  0  0  2  0  0  0  0  0  0
  160.7630  212.7300  150.0370 C   0  0  0  0  0  0  0  0  0  0  0  0
  161.0050  213.9040  149.4320 C   0  0  0  0  0  3  0  0  0  0  0  0
  159.9390  211.7880  157.0680 C   0  0  1  0  0  3  0  0  0  0  0  0
  160.0680  209.2880  157.2600 C   0  0  0  0  0  2  0  0  0  0  0  0
  163.4550  210.7030  156.4300 O   0  0  0  0  0  1  0  0  0  0  0  0
  159.1180  212.9360  156.5200 C   0  0  0  0  0  1  0  0  0  0  0  0
  159.2520  210.4680  156.7310 C   0  0  0  0  0  2  0  0  0  0  0  0
  162.1740  210.6640  156.9840 C   0  0  2  0  0  3  0  0  0  0  0  0
  161.5020  209.3060  156.7210 C   0  0  2  0  0  3  0  0  0  0  0  0
  161.3370  211.8280  156.4570 C   0  0  0  0  0  2  0  0  0  0  0  0
  1 17  2  0  0  0  0
  1  8  1  0  0  0  0
  2 15  1  0  0  0  0
  3  9  1  1  0  0  0
  3 22  1  0  0  0  0
  3  2  1  0  0  0  0
  4  5  2  0  0  0  0
  6 13  1  6  0  0  0
  6 18  1  0  0  0  0
  6  9  1  0  0  0  0
  7  2  1  0  0  0  0
  7 19  2  0  0  0  0
  8 20  2  0  0  0  0
 10 16  1  0  0  0  0
 11  1  1  0  0  0  0
 12 21  1  0  0  0  0
 14 10  2  0  0  0  0
 15 21  1  6  0  0  0
 15 10  1  0  0  0  0
 16  5  1  0  0  0  0
 17  7  1  0  0  0  0
 18 23  1  0  0  0  0
 19 14  1  0  0  0  0
 20 19  1  0  0  0  0
 22 12  1  0  0  0  0
 23 22  2  0  0  0  0
 24 27  1  6  0  0  0
 28 24  1  0  0  0  0
 28 25  1  0  0  0  0
 29 26  1  6  0  0  0
 30  5  1  6  0  0  0
 30 29  1  0  0  0  0
 30 25  1  0  0  0  0
 31 29  1  0  0  0  0
 31 24  1  0  0  0  0
M  END
>  <MODEL>
4

>  <REMARK>
 VINA RESULT:      -6.0      3.768      8.035
  Name = 
  1 active torsions:
  status: ('A' for Active; 'I' for Inactive)
    1  A    between atoms: C_5  and  C_30
                            x       y       z     vdW  Elec       q    Type
                         _______ _______ _______ _____ _____    ______ ____

>  <TORSDO>
F 1

$$$$
=
 OpenBabel11122413223D

 31 35  0  0  1  0  0  0  0  0999 V2000
  162.3150  207.2470  147.4710 C   0  0  0  0  0  0  0  0  0  0  0  0
  161.2730  205.6150  150.6950 N   0  0  0  0  0  0  0  0  0  0  0  0
  161.4830  204.1900  150.3950 C   0  0  2  0  0  3  0  0  0  0  0  0
  160.4470  210.2530  153.2000 O   0  0  0  0  0  0  0  0  0  0  0  0
  160.2460  209.3060  154.0060 C   0  0  0  0  0  0  0  0  0  0  0  0
  160.7920  202.2190  149.0870 C   0  0  2  0  0  3  0  0  0  0  0  0
  161.5970  206.6140  149.7070 C   0  0  0  0  0  0  0  0  0  0  0  0
  162.2180  208.5960  147.8180 C   0  0  0  0  0  3  0  0  0  0  0  0
  160.4550  203.6710  149.3940 C   0  0  0  0  0  2  0  0  0  0  0  0
  160.8440  207.4910  152.3050 C   0  0  0  0  0  0  0  0  0  0  0  0
  162.7070  206.8950  146.2230 F   0  0  0  0  0  0  0  0  0  0  0  0
  161.9320  203.8810  152.9840 C   0  0  0  0  0  2  0  0  0  0  0  0
  159.8690  201.6980  148.0050 C   0  0  0  0  0  1  0  0  0  0  0  0
  161.1050  208.3490  151.3630 N   0  0  0  0  0  0  0  0  0  0  0  0
  160.9660  206.0020  152.0820 C   0  0  2  0  0  3  0  0  0  0  0  0
  160.4240  207.9420  153.5990 N   0  0  0  0  0  2  0  0  0  0  0  0
  162.0060  206.2590  148.4110 C   0  0  0  0  0  3  0  0  0  0  0  0
  160.6420  201.3610  150.3440 C   0  0  0  0  0  2  0  0  0  0  0  0
  161.5080  207.9700  150.0480 C   0  0  0  0  0  0  0  0  0  0  0  0
  161.8150  208.9560  149.1070 C   0  0  0  0  0  3  0  0  0  0  0  0
  162.0320  205.4070  152.9910 C   0  0  0  0  0  2  0  0  0  0  0  0
  161.5350  203.3160  151.6440 C   0  0  0  0  0  0  0  0  0  0  0  0
  161.2080  202.0150  151.5830 C   0  0  0  0  0  3  0  0  0  0  0  0
  162.0730  210.5870  157.0670 C   0  0  1  0  0  3  0  0  0  0  0  0
  160.0100  211.1120  155.7360 C   0  0  0  0  0  2  0  0  0  0  0  0
  160.3800  207.3900  156.1440 O   0  0  0  0  0  1  0  0  0  0  0  0
  163.5320  210.9420  157.2600 C   0  0  0  0  0  1  0  0  0  0  0  0
  161.4820  211.4590  155.9630 C   0  0  0  0  0  2  0  0  0  0  0  0
  160.4890  208.7410  156.4780 C   0  0  2  0  0  3  0  0  0  0  0  0
  159.8240  209.6270  155.4120 C   0  0  2  0  0  3  0  0  0  0  0  0
  161.9550  209.1120  156.6960 C   0  0  0  0  0  2  0  0  0  0  0  0
  1  8  2  0  0  0  0
  1 17  1  0  0  0  0
  2 15  1  0  0  0  0
  3  9  1  6  0  0  0
  3  2  1  0  0  0  0
  3 22  1  0  0  0  0
  4  5  2  0  0  0  0
  6 13  1  6  0  0  0
  6  9  1  0  0  0  0
  6 18  1  0  0  0  0
  7 19  1  0  0  0  0
  7  2  1  0  0  0  0
  8 20  1  0  0  0  0
 10 16  1  0  0  0  0
 11  1  1  0  0  0  0
 12 21  1  0  0  0  0
 14 10  2  0  0  0  0
 15 10  1  0  0  0  0
 15 21  1  1  0  0  0
 16  5  1  0  0  0  0
 17  7  2  0  0  0  0
 18 23  1  0  0  0  0
 19 14  1  0  0  0  0
 20 19  2  0  0  0  0
 22 12  1  0  0  0  0
 23 22  2  0  0  0  0
 24 27  1  6  0  0  0
 25 28  1  0  0  0  0
 28 24  1  0  0  0  0
 29 26  1  6  0  0  0
 29 31  1  0  0  0  0
 30  5  1  6  0  0  0
 30 25  1  0  0  0  0
 30 29  1  0  0  0  0
 31 24  1  0  0  0  0
M  END
>  <MODEL>
5

>  <REMARK>
 VINA RESULT:      -5.8      3.698      8.945
  Name = 
  1 active torsions:
  status: ('A' for Active; 'I' for Inactive)
    1  A    between atoms: C_5  and  C_30
                            x       y       z     vdW  Elec       q    Type
                         _______ _______ _______ _____ _____    ______ ____

>  <TORSDO>
F 1

$$$$
=
 OpenBabel11122413223D

 31 35  0  0  1  0  0  0  0  0999 V2000
  162.7720  212.5560  147.6070 C   0  0  0  0  0  0  0  0  0  0  0  0
  161.4820  210.4110  150.4130 N   0  0  0  0  0  0  0  0  0  0  0  0
  162.1040  209.1120  150.1120 C   0  0  2  0  0  3  0  0  0  0  0  0
  158.9850  214.4510  152.8420 O   0  0  0  0  0  0  0  0  0  0  0  0
  158.8530  213.4080  153.5360 C   0  0  0  0  0  0  0  0  0  0  0  0
  162.2380  207.1760  148.5920 C   0  0  2  0  0  3  0  0  0  0  0  0
  161.7570  211.5520  149.5750 C   0  0  0  0  0  0  0  0  0  0  0  0
  162.2650  213.8040  147.9780 C   0  0  0  0  0  3  0  0  0  0  0  0
  161.4880  208.4710  148.8720 C   0  0  0  0  0  2  0  0  0  0  0  0
  160.2500  211.9630  151.9510 C   0  0  0  0  0  0  0  0  0  0  0  0
  163.5070  212.4330  146.4750 F   0  0  0  0  0  0  0  0  0  0  0  0
  162.0290  208.6580  152.7160 C   0  0  0  0  0  2  0  0  0  0  0  0
  161.7390  206.5650  147.2990 C   0  0  0  0  0  1  0  0  0  0  0  0
  160.4900  212.9480  151.1370 N   0  0  0  0  0  0  0  0  0  0  0  0
  160.7880  210.5740  151.7010 C   0  0  2  0  0  3  0  0  0  0  0  0
  159.4530  212.1710  153.1250 N   0  0  0  0  0  2  0  0  0  0  0  0
  162.5200  211.4350  148.4020 C   0  0  0  0  0  3  0  0  0  0  0  0
  162.0310  206.1850  149.7390 C   0  0  0  0  0  2  0  0  0  0  0  0
  161.2580  212.8080  149.9430 C   0  0  0  0  0  0  0  0  0  0  0  0
  161.5090  213.9290  149.1460 C   0  0  0  0  0  3  0  0  0  0  0  0
  161.7390  210.1560  152.8130 C   0  0  0  0  0  2  0  0  0  0  0  0
  162.0940  208.1530  151.2970 C   0  0  0  0  0  0  0  0  0  0  0  0
  162.1260  206.8250  151.1040 C   0  0  0  0  0  3  0  0  0  0  0  0
  158.9910  211.5170  156.8150 C   0  0  1  0  0  3  0  0  0  0  0  0
  158.9370  213.8910  155.9990 C   0  0  0  0  0  2  0  0  0  0  0  0
  156.5330  211.7820  154.0160 O   0  0  0  0  0  1  0  0  0  0  0  0
  159.9020  210.3930  157.2600 C   0  0  0  0  0  1  0  0  0  0  0  0
  159.8320  212.7420  156.4670 C   0  0  0  0  0  2  0  0  0  0  0  0
  157.2740  212.1960  155.1240 C   0  0  2  0  0  3  0  0  0  0  0  0
  158.0630  213.4780  154.8110 C   0  0  2  0  0  3  0  0  0  0  0  0
  158.1860  211.0660  155.6000 C   0  0  0  0  0  2  0  0  0  0  0  0
  1  8  2  0  0  0  0
  1 17  1  0  0  0  0
  2 15  1  0  0  0  0
  3  9  1  6  0  0  0
  3  2  1  0  0  0  0
  3 22  1  0  0  0  0
  4  5  2  0  0  0  0
  6 13  1  6  0  0  0
  6  9  1  0  0  0  0
  6 18  1  0  0  0  0
  7 19  1  0  0  0  0
  7  2  1  0  0  0  0
  8 20  1  0  0  0  0
 10 16  1  0  0  0  0
 11  1  1  0  0  0  0
 12 21  1  0  0  0  0
 14 10  2  0  0  0  0
 15 10  1  0  0  0  0
 15 21  1  1  0  0  0
 16  5  1  0  0  0  0
 17  7  2  0  0  0  0
 18 23  1  0  0  0  0
 19 14  1  0  0  0  0
 20 19  2  0  0  0  0
 22 12  1  0  0  0  0
 23 22  2  0  0  0  0
 24 27  1  6  0  0  0
 25 28  1  0  0  0  0
 28 24  1  0  0  0  0
 29 26  1  6  0  0  0
 29 31  1  0  0  0  0
 30  5  1  6  0  0  0
 30 29  1  0  0  0  0
 30 25  1  0  0  0  0
 31 24  1  0  0  0  0
M  END
>  <MODEL>
6

>  <REMARK>
 VINA RESULT:      -5.8      4.245      9.192
  Name = 
  1 active torsions:
  status: ('A' for Active; 'I' for Inactive)
    1  A    between atoms: C_5  and  C_30
                            x       y       z     vdW  Elec       q    Type
                         _______ _______ _______ _____ _____    ______ ____

>  <TORSDO>
F 1

$$$$
=
 OpenBabel11122413223D

 31 35  0  0  1  0  0  0  0  0999 V2000
  162.3320  207.3390  147.5290 C   0  0  0  0  0  0  0  0  0  0  0  0
  161.2360  205.8240  150.7920 N   0  0  0  0  0  0  0  0  0  0  0  0
  161.4220  204.3860  150.5360 C   0  0  2  0  0  3  0  0  0  0  0  0
  160.4810  210.5480  153.1530 O   0  0  0  0  0  0  0  0  0  0  0  0
  160.2560  209.6300  153.9850 C   0  0  0  0  0  0  0  0  0  0  0  0
  160.7030  202.3910  149.2810 C   0  0  2  0  0  3  0  0  0  0  0  0
  161.5870  206.7870  149.7770 C   0  0  0  0  0  0  0  0  0  0  0  0
  162.2570  208.7000  147.8360 C   0  0  0  0  0  3  0  0  0  0  0  0
  160.3910  203.8580  149.5430 C   0  0  0  0  0  2  0  0  0  0  0  0
  160.8310  207.7540  152.3420 C   0  0  0  0  0  0  0  0  0  0  0  0
  162.7250  206.9440  146.2950 F   0  0  0  0  0  0  0  0  0  0  0  0
  161.8470  204.1470  153.1360 C   0  0  0  0  0  2  0  0  0  0  0  0
  159.7770  201.8560  148.2090 C   0  0  0  0  0  1  0  0  0  0  0  0
  161.1150  208.5790  151.3780 N   0  0  0  0  0  0  0  0  0  0  0  0
  160.9280  206.2570  152.1640 C   0  0  2  0  0  3  0  0  0  0  0  0
  160.4110  208.2510  153.6200 N   0  0  0  0  0  2  0  0  0  0  0  0
  161.9980  206.3860  148.4950 C   0  0  0  0  0  3  0  0  0  0  0  0
  160.5270  201.5740  150.5620 C   0  0  0  0  0  2  0  0  0  0  0  0
  161.5200  208.1530  150.0780 C   0  0  0  0  0  0  0  0  0  0  0  0
  161.8520  209.1060  149.1100 C   0  0  0  0  0  3  0  0  0  0  0  0
  161.9750  205.6700  153.0990 C   0  0  0  0  0  2  0  0  0  0  0  0
  161.4480  203.5490  151.8100 C   0  0  0  0  0  0  0  0  0  0  0  0
  161.0980  202.2530  151.7850 C   0  0  0  0  0  3  0  0  0  0  0  0
  158.5950  212.6800  155.4980 C   0  0  1  0  0  3  0  0  0  0  0  0
  158.3130  210.1850  155.4770 C   0  0  0  0  0  2  0  0  0  0  0  0
  161.9550  211.0770  155.7970 O   0  0  0  0  0  1  0  0  0  0  0  0
  158.1430  213.9710  154.8510 C   0  0  0  0  0  1  0  0  0  0  0  0
  157.8640  211.5070  154.8510 C   0  0  0  0  0  2  0  0  0  0  0  0
  160.5740  211.2160  155.9520 C   0  0  2  0  0  3  0  0  0  0  0  0
  159.8300  210.0000  155.3770 C   0  0  2  0  0  3  0  0  0  0  0  0
  160.1030  212.5260  155.3220 C   0  0  0  0  0  2  0  0  0  0  0  0
  1  8  2  0  0  0  0
  1 17  1  0  0  0  0
  2 15  1  0  0  0  0
  3  9  1  6  0  0  0
  3  2  1  0  0  0  0
  3 22  1  0  0  0  0
  4  5  2  0  0  0  0
  6 13  1  6  0  0  0
  6  9  1  0  0  0  0
  6 18  1  0  0  0  0
  7 19  1  0  0  0  0
  7  2  1  0  0  0  0
  8 20  1  0  0  0  0
 10 16  1  0  0  0  0
 11  1  1  0  0  0  0
 14 10  2  0  0  0  0
 15 10  1  0  0  0  0
 15 21  1  1  0  0  0
 16  5  1  0  0  0  0
 17  7  2  0  0  0  0
 18 23  1  0  0  0  0
 19 14  1  0  0  0  0
 20 19  2  0  0  0  0
 21 12  1  0  0  0  0
 22 12  1  0  0  0  0
 23 22  2  0  0  0  0
 24 27  1  6  0  0  0
 28 25  1  0  0  0  0
 28 24  1  0  0  0  0
 29 26  1  6  0  0  0
 30  5  1  6  0  0  0
 30 25  1  0  0  0  0
 30 29  1  0  0  0  0
 31 24  1  0  0  0  0
 31 29  1  0  0  0  0
M  END
>  <MODEL>
7

>  <REMARK>
 VINA RESULT:      -5.7      3.627      8.928
  Name = 
  1 active torsions:
  status: ('A' for Active; 'I' for Inactive)
    1  A    between atoms: C_5  and  C_30
                            x       y       z     vdW  Elec       q    Type
                         _______ _______ _______ _____ _____    ______ ____

>  <TORSDO>
F 1

$$$$
=
 OpenBabel11122413223D

 31 35  0  0  1  0  0  0  0  0999 V2000
  160.3830  208.4380  154.8250 C   0  0  0  0  0  0  0  0  0  0  0  0
  158.6630  211.6380  153.8540 N   0  0  0  0  0  0  0  0  0  0  0  0
  157.7940  211.8800  155.0170 C   0  0  2  0  0  3  0  0  0  0  0  0
  161.4670  212.2080  149.3510 O   0  0  0  0  0  0  0  0  0  0  0  0
  160.7010  213.1980  149.4880 C   0  0  0  0  0  0  0  0  0  0  0  0
  155.8510  211.1500  156.3460 C   0  0  2  0  0  3  0  0  0  0  0  0
  159.5450  210.4970  153.8390 C   0  0  0  0  0  0  0  0  0  0  0  0
  161.2810  208.2930  153.7650 C   0  0  0  0  0  3  0  0  0  0  0  0
  156.6490  210.8740  155.0790 C   0  0  0  0  0  2  0  0  0  0  0  0
  159.7610  212.3880  151.7260 C   0  0  0  0  0  0  0  0  0  0  0  0
  160.3500  207.5150  155.8150 F   0  0  0  0  0  0  0  0  0  0  0  0
  158.0290  214.4530  154.4490 C   0  0  0  0  0  2  0  0  0  0  0  0
  154.7750  210.0980  156.5100 C   0  0  0  0  0  1  0  0  0  0  0  0
  160.5000  211.3190  151.7400 N   0  0  0  0  0  0  0  0  0  0  0  0
  158.7890  212.6980  152.8410 C   0  0  2  0  0  3  0  0  0  0  0  0
  159.8470  213.3140  150.6360 N   0  0  0  0  0  2  0  0  0  0  0  0
  159.5180  209.5360  154.8630 C   0  0  0  0  0  3  0  0  0  0  0  0
  155.2060  212.5350  156.2750 C   0  0  0  0  0  2  0  0  0  0  0  0
  160.4520  210.3470  152.7830 C   0  0  0  0  0  0  0  0  0  0  0  0
  161.3150  209.2470  152.7450 C   0  0  0  0  0  3  0  0  0  0  0  0
  159.1730  213.9910  153.5450 C   0  0  0  0  0  2  0  0  0  0  0  0
  157.2810  213.3140  155.0930 C   0  0  0  0  0  0  0  0  0  0  0  0
  156.1310  213.5960  155.7280 C   0  0  0  0  0  3  0  0  0  0  0  0
  160.0310  213.2040  145.7600 C   0  0  1  0  0  3  0  0  0  0  0  0
  159.3100  214.4530  147.8150 C   0  0  0  0  0  2  0  0  0  0  0  0
  163.0190  213.8280  147.9110 O   0  0  0  0  0  1  0  0  0  0  0  0
  159.6740  212.0660  144.8270 C   0  0  0  0  0  1  0  0  0  0  0  0
  158.9670  213.3190  146.8480 C   0  0  0  0  0  2  0  0  0  0  0  0
  161.7660  214.0670  147.3450 C   0  0  2  0  0  3  0  0  0  0  0  0
  160.6990  214.2670  148.4340 C   0  0  2  0  0  3  0  0  0  0  0  0
  161.3980  212.9380  146.3830 C   0  0  0  0  0  2  0  0  0  0  0  0
  1 17  1  0  0  0  0
  1 11  1  0  0  0  0
  2  3  1  0  0  0  0
  3  9  1  6  0  0  0
  3 22  1  0  0  0  0
  4  5  2  0  0  0  0
  5 16  1  0  0  0  0
  6 13  1  6  0  0  0
  7  2  1  0  0  0  0
  7 17  2  0  0  0  0
  8  1  2  0  0  0  0
  9  6  1  0  0  0  0
 10 14  2  0  0  0  0
 10 15  1  0  0  0  0
 12 22  1  0  0  0  0
 14 19  1  0  0  0  0
 15 21  1  1  0  0  0
 15  2  1  0  0  0  0
 16 10  1  0  0  0  0
 18  6  1  0  0  0  0
 19  7  1  0  0  0  0
 20 19  2  0  0  0  0
 20  8  1  0  0  0  0
 21 12  1  0  0  0  0
 22 23  2  0  0  0  0
 23 18  1  0  0  0  0
 24 27  1  6  0  0  0
 24 31  1  0  0  0  0
 24 28  1  0  0  0  0
 25 30  1  0  0  0  0
 28 25  1  0  0  0  0
 29 26  1  1  0  0  0
 29 30  1  0  0  0  0
 30  5  1  1  0  0  0
 31 29  1  0  0  0  0
M  END
>  <MODEL>
8

>  <REMARK>
 VINA RESULT:      -5.2      4.876      6.374
  Name = 
  1 active torsions:
  status: ('A' for Active; 'I' for Inactive)
    1  A    between atoms: C_5  and  C_30
                            x       y       z     vdW  Elec       q    Type
                         _______ _______ _______ _____ _____    ______ ____

>  <TORSDO>
F 1

$$$$
=
 OpenBabel11122413223D

 31 35  0  0  1  0  0  0  0  0999 V2000
  161.9220  205.7200  146.3910 C   0  0  0  0  0  0  0  0  0  0  0  0
  161.2780  205.4460  150.0860 N   0  0  0  0  0  0  0  0  0  0  0  0
  161.3200  203.9900  150.2940 C   0  0  2  0  0  3  0  0  0  0  0  0
  161.2480  210.7270  150.8420 O   0  0  0  0  0  0  0  0  0  0  0  0
  161.1010  210.1510  151.9520 C   0  0  0  0  0  0  0  0  0  0  0  0
  160.2690  201.8010  149.8720 C   0  0  2  0  0  3  0  0  0  0  0  0
  161.5210  205.9930  148.7740 C   0  0  0  0  0  0  0  0  0  0  0  0
  161.9920  207.1060  146.2410 C   0  0  0  0  0  3  0  0  0  0  0  0
  160.1060  203.3020  149.6780 C   0  0  0  0  0  2  0  0  0  0  0  0
  161.2680  207.8000  150.9560 C   0  0  0  0  0  0  0  0  0  0  0  0
  162.0780  204.9130  145.3140 F   0  0  0  0  0  0  0  0  0  0  0  0
  162.1510  204.5300  152.7470 C   0  0  0  0  0  2  0  0  0  0  0  0
  159.1450  201.0690  149.1700 C   0  0  0  0  0  1  0  0  0  0  0  0
  161.4440  208.2400  149.7450 N   0  0  0  0  0  0  0  0  0  0  0  0
  161.2300  206.3220  151.2680 C   0  0  2  0  0  3  0  0  0  0  0  0
  161.0990  208.7190  152.0430 N   0  0  0  0  0  2  0  0  0  0  0  0
  161.6870  205.1640  147.6520 C   0  0  0  0  0  3  0  0  0  0  0  0
  160.2520  201.4550  151.3620 C   0  0  0  0  0  2  0  0  0  0  0  0
  161.6000  207.3830  148.6150 C   0  0  0  0  0  0  0  0  0  0  0  0
  161.8320  207.9370  147.3530 C   0  0  0  0  0  3  0  0  0  0  0  0
  162.3750  205.9380  152.1950 C   0  0  0  0  0  2  0  0  0  0  0  0
  161.4990  203.5980  151.7570 C   0  0  0  0  0  0  0  0  0  0  0  0
  161.0610  202.4110  152.2060 C   0  0  0  0  0  3  0  0  0  0  0  0
  160.1800  209.3700  155.5430 C   0  0  1  0  0  3  0  0  0  0  0  0
  161.9550  210.6080  154.2700 C   0  0  0  0  0  2  0  0  0  0  0  0
  158.5740  211.2630  152.7520 O   0  0  0  0  0  1  0  0  0  0  0  0
  159.8360  208.0510  156.2020 C   0  0  0  0  0  1  0  0  0  0  0  0
  161.5860  209.2920  154.9560 C   0  0  0  0  0  2  0  0  0  0  0  0
  159.5070  210.9870  153.7540 C   0  0  2  0  0  3  0  0  0  0  0  0
  160.9370  210.9860  153.1890 C   0  0  2  0  0  3  0  0  0  0  0  0
  159.1640  209.6680  154.4440 C   0  0  0  0  0  2  0  0  0  0  0  0
  1 17  1  0  0  0  0
  2  3  1  0  0  0  0
  2 15  1  0  0  0  0
  3  9  1  1  0  0  0
  3 22  1  0  0  0  0
  4  5  2  0  0  0  0
  5 16  1  0  0  0  0
  6 13  1  6  0  0  0
  6 18  1  0  0  0  0
  7  2  1  0  0  0  0
  8  1  2  0  0  0  0
  8 20  1  0  0  0  0
  9  6  1  0  0  0  0
 10 15  1  0  0  0  0
 10 16  1  0  0  0  0
 11  1  1  0  0  0  0
 14 10  2  0  0  0  0
 15 21  1  1  0  0  0
 17  7  2  0  0  0  0
 18 23  1  0  0  0  0
 19  7  1  0  0  0  0
 19 14  1  0  0  0  0
 20 19  2  0  0  0  0
 21 12  1  0  0  0  0
 22 23  2  0  0  0  0
 22 12  1  0  0  0  0
 24 27  1  6  0  0  0
 25 28  1  0  0  0  0
 28 24  1  0  0  0  0
 29 26  1  6  0  0  0
 29 31  1  0  0  0  0
 30  5  1  6  0  0  0
 30 29  1  0  0  0  0
 30 25  1  0  0  0  0
 31 24  1  0  0  0  0
M  END
>  <MODEL>
9

>  <REMARK>
 VINA RESULT:      -4.6      3.474      8.397
  Name = 
  1 active torsions:
  status: ('A' for Active; 'I' for Inactive)
    1  A    between atoms: C_5  and  C_30
                            x       y       z     vdW  Elec       q    Type
                         _______ _______ _______ _____ _____    ______ ____

>  <TORSDO>
F 1

$$$$
