=
 OpenBabel11122413203D

 31 35  0  0  1  0  0  0  0  0999 V2000
  161.8790  210.8840  149.6270 C   0  0  0  0  0  0  0  0  0  0  0  0
  161.3400  208.3540  152.4450 C   0  0  0  0  0  0  0  0  0  0  0  0
  160.8120  209.0650  153.5570 C   0  0  0  0  0  0  0  0  0  0  0  0
  159.8800  211.0700  154.5830 C   0  0  0  0  0  0  0  0  0  0  0  0
  161.5580  208.9620  151.0910 C   0  0  0  0  0  0  0  0  0  0  0  0
  162.0470  210.0340  148.5330 C   0  0  0  0  0  3  0  0  0  0  0  0
  160.3980  210.4040  153.4700 C   0  0  0  0  0  3  0  0  0  0  0  0
  162.2640  206.1950  151.4710 C   0  0  1  0  0  3  0  0  0  0  0  0
  161.9490  212.2600  149.4550 O   0  0  0  0  0  1  0  0  0  0  0  0
  161.0420  207.0970  154.9220 N   0  0  0  0  0  0  0  0  0  0  0  0
  159.4540  212.4890  154.4660 C   0  0  0  0  0  1  0  0  0  0  0  0
  161.6640  206.6300  150.1350 C   0  0  0  0  0  2  0  0  0  0  0  0
  161.6670  206.9860  152.6130 C   0  0  0  0  0  0  0  0  0  0  0  0
  161.6410  210.3510  150.8960 C   0  0  0  0  0  3  0  0  0  0  0  0
  159.7630  210.4040  155.8030 C   0  0  0  0  0  3  0  0  0  0  0  0
  161.7560  208.1140  149.9780 C   0  0  0  0  0  0  0  0  0  0  0  0
  161.9830  208.6510  148.7090 C   0  0  0  0  0  3  0  0  0  0  0  0
  161.5300  206.3930  153.8730 C   0  0  0  0  0  3  0  0  0  0  0  0
  160.6760  208.3970  154.8000 C   0  0  0  0  0  0  0  0  0  0  0  0
  160.1580  209.0700  155.9100 C   0  0  0  0  0  3  0  0  0  0  0  0
  162.0590  204.8210  151.6410 O   0  0  0  0  0  0  0  0  0  0  0  0
  159.7630  204.1540  151.6060 C   0  0  0  0  0  1  0  0  0  0  0  0
  160.9990  204.5000  150.7870 C   0  0  2  0  0  3  0  0  0  0  0  0
  160.8530  201.2270  147.9060 C   0  0  1  0  0  3  0  0  0  0  0  0
  160.8270  202.0190  150.2750 C   0  0  0  0  0  2  0  0  0  0  0  0
  161.6450  204.8670  147.9700 O   0  0  0  0  0  1  0  0  0  0  0  0
  161.3120  200.1200  146.9820 C   0  0  0  0  0  1  0  0  0  0  0  0
  161.2840  200.9110  149.3330 C   0  0  0  0  0  2  0  0  0  0  0  0
  161.0270  203.6840  148.3790 C   0  0  2  0  0  3  0  0  0  0  0  0
  161.4070  203.3690  149.8340 C   0  0  1  0  0  3  0  0  0  0  0  0
  161.4650  202.5490  147.4570 C   0  0  0  0  0  2  0  0  0  0  0  0
  1 14  1  0  0  0  0
  2 13  2  0  0  0  0
  2  3  1  0  0  0  0
  3 19  1  0  0  0  0
  4 15  2  0  0  0  0
  5  2  1  0  0  0  0
  6 17  1  0  0  0  0
  6  1  2  0  0  0  0
  7  3  2  0  0  0  0
  7  4  1  0  0  0  0
  8 21  1  1  0  0  0
  8 13  1  0  0  0  0
  9  1  1  0  0  0  0
 11  4  1  0  0  0  0
 12  8  1  0  0  0  0
 13 18  1  0  0  0  0
 14  5  2  0  0  0  0
 15 20  1  0  0  0  0
 16 12  1  0  0  0  0
 16  5  1  0  0  0  0
 17 16  2  0  0  0  0
 18 10  2  0  0  0  0
 19 10  1  0  0  0  0
 19 20  2  0  0  0  0
 23 22  1  1  0  0  0
 23 21  1  0  0  0  0
 24 27  1  6  0  0  0
 24 28  1  0  0  0  0
 28 25  1  0  0  0  0
 29 26  1  6  0  0  0
 29 30  1  0  0  0  0
 30 25  1  0  0  0  0
 30 23  1  1  0  0  0
 31 24  1  0  0  0  0
 31 29  1  0  0  0  0
M  END
>  <MODEL>
1

>  <REMARK>
 VINA RESULT:      -9.4      0.000      0.000
  Name = 
  3 active torsions:
  status: ('A' for Active; 'I' for Inactive)
    1  A    between atoms: C_5  and  O_16
    2  A    between atoms: C_5  and  C_30
    3  A    between atoms: C_10  and  O_16
                            x       y       z     vdW  Elec       q    Type
                         _______ _______ _______ _____ _____    ______ ____

>  <TORSDO>
F 3

$$$$
=
 OpenBabel11122413203D

 31 35  0  0  1  0  0  0  0  0999 V2000
  161.1320  207.3970  147.5390 C   0  0  0  0  0  0  0  0  0  0  0  0
  161.2150  206.1050  151.1380 C   0  0  0  0  0  0  0  0  0  0  0  0
  161.1110  204.6890  151.0820 C   0  0  0  0  0  0  0  0  0  0  0  0
  161.0820  202.5800  149.8600 C   0  0  0  0  0  0  0  0  0  0  0  0
  161.3620  206.9810  149.9290 C   0  0  0  0  0  0  0  0  0  0  0  0
  161.5890  208.7040  147.7130 C   0  0  0  0  0  3  0  0  0  0  0  0
  161.1850  203.9730  149.8760 C   0  0  0  0  0  3  0  0  0  0  0  0
  161.2710  208.2390  152.5200 C   0  0  1  0  0  3  0  0  0  0  0  0
  160.7940  206.9430  146.2720 O   0  0  0  0  0  1  0  0  0  0  0  0
  160.8920  204.6110  153.4770 N   0  0  0  0  0  0  0  0  0  0  0  0
  161.1570  201.8460  148.5700 C   0  0  0  0  0  1  0  0  0  0  0  0
  162.1880  208.8200  151.4460 C   0  0  0  0  0  2  0  0  0  0  0  0
  161.1970  206.7320  152.4080 C   0  0  0  0  0  0  0  0  0  0  0  0
  161.0170  206.5450  148.6400 C   0  0  0  0  0  3  0  0  0  0  0  0
  160.9070  201.8780  151.0520 C   0  0  0  0  0  3  0  0  0  0  0  0
  161.7970  208.3150  150.0940 C   0  0  0  0  0  0  0  0  0  0  0  0
  161.9230  209.1610  148.9890 C   0  0  0  0  0  3  0  0  0  0  0  0
  161.0090  205.9590  153.5590 C   0  0  0  0  0  3  0  0  0  0  0  0
  160.9450  203.9620  152.2880 C   0  0  0  0  0  0  0  0  0  0  0  0
  160.8410  202.5680  152.2640 C   0  0  0  0  0  3  0  0  0  0  0  0
  161.7320  208.6340  153.7810 O   0  0  0  0  0  0  0  0  0  0  0  0
  162.3660  210.6060  154.9740 C   0  0  0  0  0  1  0  0  0  0  0  0
  161.5830  210.0250  153.8060 C   0  0  2  0  0  3  0  0  0  0  0  0
  157.8300  212.0670  154.6870 C   0  0  1  0  0  3  0  0  0  0  0  0
  159.5420  210.3490  155.2820 C   0  0  0  0  0  2  0  0  0  0  0  0
  160.2570  211.7610  151.8780 O   0  0  0  0  0  1  0  0  0  0  0  0
  156.3500  212.3890  154.7000 C   0  0  0  0  0  1  0  0  0  0  0  0
  158.0550  210.6850  155.2880 C   0  0  0  0  0  2  0  0  0  0  0  0
  159.8330  211.7690  153.2080 C   0  0  2  0  0  3  0  0  0  0  0  0
  160.0950  210.4000  153.8520 C   0  0  1  0  0  3  0  0  0  0  0  0
  158.3440  212.1020  153.2520 C   0  0  0  0  0  2  0  0  0  0  0  0
  1  6  2  0  0  0  0
  1 14  1  0  0  0  0
  2 13  1  0  0  0  0
  3  2  2  0  0  0  0
  3 19  1  0  0  0  0
  4  7  2  0  0  0  0
  4 15  1  0  0  0  0
  5 16  1  0  0  0  0
  5  2  1  0  0  0  0
  6 17  1  0  0  0  0
  7  3  1  0  0  0  0
  8 21  1  1  0  0  0
  9  1  1  0  0  0  0
 10 18  1  0  0  0  0
 11  4  1  0  0  0  0
 12  8  1  0  0  0  0
 13  8  1  0  0  0  0
 13 18  2  0  0  0  0
 14  5  2  0  0  0  0
 15 20  2  0  0  0  0
 16 12  1  0  0  0  0
 17 16  2  0  0  0  0
 19 10  2  0  0  0  0
 20 19  1  0  0  0  0
 21 23  1  0  0  0  0
 23 22  1  1  0  0  0
 24 27  1  6  0  0  0
 24 28  1  0  0  0  0
 25 28  1  0  0  0  0
 29 26  1  6  0  0  0
 29 31  1  0  0  0  0
 29 30  1  0  0  0  0
 30 23  1  1  0  0  0
 30 25  1  0  0  0  0
 31 24  1  0  0  0  0
M  END
>  <MODEL>
2

>  <REMARK>
 VINA RESULT:      -9.3      1.733      7.493
  Name = 
  3 active torsions:
  status: ('A' for Active; 'I' for Inactive)
    1  A    between atoms: C_5  and  O_16
    2  A    between atoms: C_5  and  C_30
    3  A    between atoms: C_10  and  O_16
                            x       y       z     vdW  Elec       q    Type
                         _______ _______ _______ _____ _____    ______ ____

>  <TORSDO>
F 3

$$$$
=
 OpenBabel11122413203D

 31 35  0  0  1  0  0  0  0  0999 V2000
  161.1580  205.6300  145.9850 C   0  0  0  0  0  0  0  0  0  0  0  0
  161.2070  204.7770  149.7140 C   0  0  0  0  0  0  0  0  0  0  0  0
  161.1260  203.3620  149.8260 C   0  0  0  0  0  0  0  0  0  0  0  0
  161.1480  201.1230  148.8630 C   0  0  0  0  0  0  0  0  0  0  0  0
  161.3580  205.5050  148.4110 C   0  0  0  0  0  0  0  0  0  0  0  0
  161.5910  206.9560  146.0080 C   0  0  0  0  0  3  0  0  0  0  0  0
  161.2290  202.5090  148.7150 C   0  0  0  0  0  3  0  0  0  0  0  0
  161.2080  207.0600  150.8310 C   0  0  1  0  0  3  0  0  0  0  0  0
  160.8450  205.0220  144.7770 O   0  0  0  0  0  1  0  0  0  0  0  0
  160.8720  203.5660  152.2090 N   0  0  0  0  0  0  0  0  0  0  0  0
  161.2540  200.2420  147.6700 C   0  0  0  0  0  1  0  0  0  0  0  0
  162.1330  207.5250  149.7080 C   0  0  0  0  0  2  0  0  0  0  0  0
  161.1600  205.5500  150.8990 C   0  0  0  0  0  0  0  0  0  0  0  0
  161.0390  204.9120  147.1780 C   0  0  0  0  0  3  0  0  0  0  0  0
  160.9670  200.5650  150.1280 C   0  0  0  0  0  3  0  0  0  0  0  0
  161.7700  206.8570  148.4210 C   0  0  0  0  0  0  0  0  0  0  0  0
  161.8980  207.5670  147.2250 C   0  0  0  0  0  3  0  0  0  0  0  0
  160.9660  204.9160  152.1310 C   0  0  0  0  0  3  0  0  0  0  0  0
  160.9530  202.7810  151.1070 C   0  0  0  0  0  0  0  0  0  0  0  0
  160.8710  201.3930  151.2480 C   0  0  0  0  0  3  0  0  0  0  0  0
  161.6440  207.6110  152.0420 O   0  0  0  0  0  0  0  0  0  0  0  0
  162.2970  209.8990  151.8140 C   0  0  0  0  0  1  0  0  0  0  0  0
  161.1540  208.9210  152.0470 C   0  0  2  0  0  3  0  0  0  0  0  0
  160.0800  210.4500  155.9890 C   0  0  1  0  0  3  0  0  0  0  0  0
  161.1770  208.7060  154.5770 C   0  0  0  0  0  2  0  0  0  0  0  0
  159.2470  211.0920  152.4150 O   0  0  0  0  0  1  0  0  0  0  0  0
  159.2910  210.6910  157.2580 C   0  0  0  0  0  1  0  0  0  0  0  0
  160.3820  208.9630  155.8520 C   0  0  0  0  0  2  0  0  0  0  0  0
  160.0380  210.6880  153.4920 C   0  0  2  0  0  3  0  0  0  0  0  0
  160.3980  209.2020  153.3520 C   0  0  1  0  0  3  0  0  0  0  0  0
  159.2700  210.9300  154.7900 C   0  0  0  0  0  2  0  0  0  0  0  0
  1  6  2  0  0  0  0
  1 14  1  0  0  0  0
  2  3  2  0  0  0  0
  2 13  1  0  0  0  0
  3 19  1  0  0  0  0
  4 15  1  0  0  0  0
  5 16  1  0  0  0  0
  5  2  1  0  0  0  0
  6 17  1  0  0  0  0
  7  4  2  0  0  0  0
  7  3  1  0  0  0  0
  8 13  1  0  0  0  0
  8 21  1  1  0  0  0
  9  1  1  0  0  0  0
 11  4  1  0  0  0  0
 12  8  1  0  0  0  0
 13 18  2  0  0  0  0
 14  5  2  0  0  0  0
 15 20  2  0  0  0  0
 16 12  1  0  0  0  0
 17 16  2  0  0  0  0
 18 10  1  0  0  0  0
 19 20  1  0  0  0  0
 19 10  2  0  0  0  0
 21 23  1  0  0  0  0
 23 22  1  1  0  0  0
 24 27  1  1  0  0  0
 25 28  1  0  0  0  0
 28 24  1  0  0  0  0
 29 26  1  6  0  0  0
 29 31  1  0  0  0  0
 30 23  1  6  0  0  0
 30 29  1  0  0  0  0
 30 25  1  0  0  0  0
 31 24  1  0  0  0  0
M  END
>  <MODEL>
3

>  <REMARK>
 VINA RESULT:      -8.8      1.853      7.847
  Name = 
  3 active torsions:
  status: ('A' for Active; 'I' for Inactive)
    1  A    between atoms: C_5  and  O_16
    2  A    between atoms: C_5  and  C_30
    3  A    between atoms: C_10  and  O_16
                            x       y       z     vdW  Elec       q    Type
                         _______ _______ _______ _____ _____    ______ ____

>  <TORSDO>
F 3

$$$$
=
 OpenBabel11122413203D

 31 35  0  0  1  0  0  0  0  0999 V2000
  161.1620  202.3460  151.1030 C   0  0  0  0  0  0  0  0  0  0  0  0
  161.5290  205.6680  149.2430 C   0  0  0  0  0  0  0  0  0  0  0  0
  161.5150  205.3780  147.8510 C   0  0  0  0  0  0  0  0  0  0  0  0
  161.1980  203.8560  145.9730 C   0  0  0  0  0  0  0  0  0  0  0  0
  161.2680  204.6480  150.3120 C   0  0  0  0  0  0  0  0  0  0  0  0
  160.8390  202.7910  152.3850 C   0  0  0  0  0  3  0  0  0  0  0  0
  161.2050  204.1040  147.3480 C   0  0  0  0  0  3  0  0  0  0  0  0
  161.8460  207.3520  151.1200 C   0  0  1  0  0  3  0  0  0  0  0  0
  161.2690  200.9850  150.8460 O   0  0  0  0  0  1  0  0  0  0  0  0
  162.0880  207.6640  147.3700 N   0  0  0  0  0  0  0  0  0  0  0  0
  160.8710  202.4970  145.4670 C   0  0  0  0  0  1  0  0  0  0  0  0
  160.8230  206.5440  151.9150 C   0  0  0  0  0  2  0  0  0  0  0  0
  161.7870  206.9990  149.6500 C   0  0  0  0  0  0  0  0  0  0  0  0
  161.3790  203.2680  150.0760 C   0  0  0  0  0  3  0  0  0  0  0  0
  161.4970  204.8820  145.0770 C   0  0  0  0  0  3  0  0  0  0  0  0
  160.9650  205.0850  151.6210 C   0  0  0  0  0  0  0  0  0  0  0  0
  160.7380  204.1590  152.6420 C   0  0  0  0  0  3  0  0  0  0  0  0
  162.0880  207.9710  148.6900 C   0  0  0  0  0  3  0  0  0  0  0  0
  161.8060  206.4140  146.9280 C   0  0  0  0  0  0  0  0  0  0  0  0
  161.7990  206.1590  145.5540 C   0  0  0  0  0  3  0  0  0  0  0  0
  161.6140  208.7170  151.3250 O   0  0  0  0  0  0  0  0  0  0  0  0
  159.7500  209.8220  152.3350 C   0  0  0  0  0  1  0  0  0  0  0  0
  160.8540  208.7870  152.4980 C   0  0  2  0  0  3  0  0  0  0  0  0
  162.5520  210.5890  156.0890 C   0  0  1  0  0  3  0  0  0  0  0  0
  162.4130  210.4610  153.5980 C   0  0  0  0  0  2  0  0  0  0  0  0
  160.5010  207.6260  155.1460 O   0  0  0  0  0  1  0  0  0  0  0  0
  163.4800  210.8320  157.2600 C   0  0  0  0  0  1  0  0  0  0  0  0
  163.3360  210.7030  154.7870 C   0  0  0  0  0  2  0  0  0  0  0  0
  161.0050  208.9220  155.0310 C   0  0  2  0  0  3  0  0  0  0  0  0
  161.7590  209.0780  153.7020 C   0  0  1  0  0  3  0  0  0  0  0  0
  161.9380  209.1990  156.2080 C   0  0  0  0  0  2  0  0  0  0  0  0
  1  6  1  0  0  0  0
  2 13  1  0  0  0  0
  2  5  1  0  0  0  0
  3  2  2  0  0  0  0
  4  7  2  0  0  0  0
  5 16  2  0  0  0  0
  6 17  2  0  0  0  0
  7  3  1  0  0  0  0
  8 21  1  6  0  0  0
  8 12  1  0  0  0  0
  9  1  1  0  0  0  0
 10 18  1  0  0  0  0
 11  4  1  0  0  0  0
 13  8  1  0  0  0  0
 14  5  1  0  0  0  0
 14  1  2  0  0  0  0
 15 20  2  0  0  0  0
 15  4  1  0  0  0  0
 16 12  1  0  0  0  0
 16 17  1  0  0  0  0
 18 13  2  0  0  0  0
 19 10  2  0  0  0  0
 19  3  1  0  0  0  0
 20 19  1  0  0  0  0
 21 23  1  0  0  0  0
 23 22  1  6  0  0  0
 24 31  1  0  0  0  0
 24 27  1  1  0  0  0
 25 30  1  0  0  0  0
 25 28  1  0  0  0  0
 28 24  1  0  0  0  0
 29 26  1  1  0  0  0
 29 31  1  0  0  0  0
 30 23  1  6  0  0  0
 30 29  1  0  0  0  0
M  END
>  <MODEL>
4

>  <REMARK>
 VINA RESULT:      -8.5      2.655      8.521
  Name = 
  3 active torsions:
  status: ('A' for Active; 'I' for Inactive)
    1  A    between atoms: C_5  and  O_16
    2  A    between atoms: C_5  and  C_30
    3  A    between atoms: C_10  and  O_16
                            x       y       z     vdW  Elec       q    Type
                         _______ _______ _______ _____ _____    ______ ____

>  <TORSDO>
F 3

$$$$
=
 OpenBabel11122413203D

 31 35  0  0  1  0  0  0  0  0999 V2000
  161.2060  207.2960  147.5540 C   0  0  0  0  0  0  0  0  0  0  0  0
  161.2610  204.8800  150.5190 C   0  0  0  0  0  0  0  0  0  0  0  0
  161.0500  203.5720  150.0040 C   0  0  0  0  0  0  0  0  0  0  0  0
  160.8380  201.9950  148.1570 C   0  0  0  0  0  0  0  0  0  0  0  0
  161.4500  206.0970  149.6620 C   0  0  0  0  0  0  0  0  0  0  0  0
  161.7630  208.4390  148.1290 C   0  0  0  0  0  3  0  0  0  0  0  0
  161.0460  203.2940  148.6270 C   0  0  0  0  0  3  0  0  0  0  0  0
  161.5040  206.4260  152.5230 C   0  0  1  0  0  3  0  0  0  0  0  0
  160.8100  207.3110  146.2240 O   0  0  0  0  0  1  0  0  0  0  0  0
  160.8720  202.7190  152.2470 N   0  0  0  0  0  0  0  0  0  0  0  0
  160.8330  201.7290  146.6950 C   0  0  0  0  0  1  0  0  0  0  0  0
  162.4420  207.2700  151.6620 C   0  0  0  0  0  2  0  0  0  0  0  0
  161.3150  205.0500  151.9240 C   0  0  0  0  0  0  0  0  0  0  0  0
  161.0480  206.1360  148.3160 C   0  0  0  0  0  3  0  0  0  0  0  0
  160.6340  200.9510  149.0580 C   0  0  0  0  0  3  0  0  0  0  0  0
  161.9880  207.2690  150.2380 C   0  0  0  0  0  0  0  0  0  0  0  0
  162.1550  208.4240  149.4690 C   0  0  0  0  0  3  0  0  0  0  0  0
  161.0910  203.9520  152.7630 C   0  0  0  0  0  3  0  0  0  0  0  0
  160.8530  202.4990  150.9090 C   0  0  0  0  0  0  0  0  0  0  0  0
  160.6440  201.2020  150.4310 C   0  0  0  0  0  3  0  0  0  0  0  0
  162.0180  206.3500  153.8230 O   0  0  0  0  0  0  0  0  0  0  0  0
  159.8030  206.6050  154.6860 C   0  0  0  0  0  1  0  0  0  0  0  0
  161.2050  207.1920  154.5880 C   0  0  2  0  0  3  0  0  0  0  0  0
  160.0220  211.2460  153.4940 C   0  0  1  0  0  3  0  0  0  0  0  0
  160.0800  208.8030  152.9790 C   0  0  0  0  0  2  0  0  0  0  0  0
  162.2320  209.5450  155.9640 O   0  0  0  0  0  1  0  0  0  0  0  0
  160.0780  212.6340  152.8910 C   0  0  0  0  0  1  0  0  0  0  0  0
  160.1350  210.2060  152.3860 C   0  0  0  0  0  2  0  0  0  0  0  0
  161.1430  209.6810  155.1010 C   0  0  2  0  0  3  0  0  0  0  0  0
  161.2070  208.6100  154.0020 C   0  0  1  0  0  3  0  0  0  0  0  0
  161.1670  211.0780  154.4860 C   0  0  0  0  0  2  0  0  0  0  0  0
  1  6  2  0  0  0  0
  1 14  1  0  0  0  0
  2 13  1  0  0  0  0
  3  2  2  0  0  0  0
  3 19  1  0  0  0  0
  4  7  2  0  0  0  0
  4 15  1  0  0  0  0
  5 16  1  0  0  0  0
  5  2  1  0  0  0  0
  6 17  1  0  0  0  0
  7  3  1  0  0  0  0
  8 21  1  1  0  0  0
  9  1  1  0  0  0  0
 10 18  1  0  0  0  0
 11  4  1  0  0  0  0
 12  8  1  0  0  0  0
 13  8  1  0  0  0  0
 13 18  2  0  0  0  0
 14  5  2  0  0  0  0
 15 20  2  0  0  0  0
 16 12  1  0  0  0  0
 17 16  2  0  0  0  0
 19 10  2  0  0  0  0
 20 19  1  0  0  0  0
 21 23  1  0  0  0  0
 23 22  1  6  0  0  0
 24 27  1  6  0  0  0
 24 31  1  0  0  0  0
 25 30  1  0  0  0  0
 28 25  1  0  0  0  0
 28 24  1  0  0  0  0
 29 26  1  1  0  0  0
 30 23  1  1  0  0  0
 30 29  1  0  0  0  0
 31 29  1  0  0  0  0
M  END
>  <MODEL>
5

>  <REMARK>
 VINA RESULT:      -8.5      1.996      7.416
  Name = 
  3 active torsions:
  status: ('A' for Active; 'I' for Inactive)
    1  A    between atoms: C_5  and  O_16
    2  A    between atoms: C_5  and  C_30
    3  A    between atoms: C_10  and  O_16
                            x       y       z     vdW  Elec       q    Type
                         _______ _______ _______ _____ _____    ______ ____

>  <TORSDO>
F 3

$$$$
=
 OpenBabel11122413203D

 31 35  0  0  1  0  0  0  0  0999 V2000
  161.0950  201.6900  150.4910 C   0  0  0  0  0  0  0  0  0  0  0  0
  161.2000  205.0530  148.6700 C   0  0  0  0  0  0  0  0  0  0  0  0
  161.1140  204.7830  147.2770 C   0  0  0  0  0  0  0  0  0  0  0  0
  160.7520  203.2760  145.3950 C   0  0  0  0  0  0  0  0  0  0  0  0
  161.0500  204.0070  149.7350 C   0  0  0  0  0  0  0  0  0  0  0  0
  160.8310  202.1010  151.7980 C   0  0  0  0  0  3  0  0  0  0  0  0
  160.8310  203.5040  146.7710 C   0  0  0  0  0  3  0  0  0  0  0  0
  161.5560  206.7220  150.5540 C   0  0  1  0  0  3  0  0  0  0  0  0
  161.2470  200.3400  150.2050 O   0  0  0  0  0  1  0  0  0  0  0  0
  161.5550  207.1000  146.8020 N   0  0  0  0  0  0  0  0  0  0  0  0
  160.4560  201.9120  144.8860 C   0  0  0  0  0  1  0  0  0  0  0  0
  160.6200  205.8570  151.3950 C   0  0  0  0  0  2  0  0  0  0  0  0
  161.4230  206.3880  149.0850 C   0  0  0  0  0  0  0  0  0  0  0  0
  161.2080  202.6370  149.4690 C   0  0  0  0  0  3  0  0  0  0  0  0
  160.9500  204.3270  144.5010 C   0  0  0  0  0  3  0  0  0  0  0  0
  160.8080  204.4100  151.0670 C   0  0  0  0  0  0  0  0  0  0  0  0
  160.6850  203.4590  152.0840 C   0  0  0  0  0  3  0  0  0  0  0  0
  161.6220  207.3870  148.1250 C   0  0  0  0  0  3  0  0  0  0  0  0
  161.3030  205.8450  146.3570 C   0  0  0  0  0  0  0  0  0  0  0  0
  161.2230  205.6100  144.9810 C   0  0  0  0  0  3  0  0  0  0  0  0
  161.2750  208.0720  150.7970 O   0  0  0  0  0  0  0  0  0  0  0  0
  162.7060  207.1530  152.4770 C   0  0  0  0  0  1  0  0  0  0  0  0
  161.9430  208.3760  151.9880 C   0  0  2  0  0  3  0  0  0  0  0  0
  160.2500  210.2040  155.5690 C   0  0  1  0  0  3  0  0  0  0  0  0
  161.1040  208.1820  154.3770 C   0  0  0  0  0  2  0  0  0  0  0  0
  160.8310  211.0690  151.9930 O   0  0  0  0  0  1  0  0  0  0  0  0
  159.2280  210.7060  156.5670 C   0  0  0  0  0  1  0  0  0  0  0  0
  160.0800  208.7010  155.3790 C   0  0  0  0  0  2  0  0  0  0  0  0
  161.0690  210.4270  153.2090 C   0  0  2  0  0  3  0  0  0  0  0  0
  160.9520  208.9060  153.0330 C   0  0  1  0  0  3  0  0  0  0  0  0
  160.0580  210.9230  154.2390 C   0  0  0  0  0  2  0  0  0  0  0  0
  1  6  1  0  0  0  0
  2 13  1  0  0  0  0
  2  5  1  0  0  0  0
  3  2  2  0  0  0  0
  4  7  2  0  0  0  0
  5 16  2  0  0  0  0
  6 17  2  0  0  0  0
  7  3  1  0  0  0  0
  8 21  1  6  0  0  0
  8 12  1  0  0  0  0
  9  1  1  0  0  0  0
 10 18  1  0  0  0  0
 11  4  1  0  0  0  0
 13  8  1  0  0  0  0
 14  5  1  0  0  0  0
 14  1  2  0  0  0  0
 15 20  2  0  0  0  0
 15  4  1  0  0  0  0
 16 12  1  0  0  0  0
 16 17  1  0  0  0  0
 18 13  2  0  0  0  0
 19 10  2  0  0  0  0
 19  3  1  0  0  0  0
 20 19  1  0  0  0  0
 21 23  1  0  0  0  0
 23 22  1  1  0  0  0
 24 27  1  1  0  0  0
 25 28  1  0  0  0  0
 28 24  1  0  0  0  0
 29 26  1  6  0  0  0
 29 31  1  0  0  0  0
 30 23  1  6  0  0  0
 30 29  1  0  0  0  0
 30 25  1  0  0  0  0
 31 24  1  0  0  0  0
M  END
>  <MODEL>
6

>  <REMARK>
 VINA RESULT:      -8.2      2.423      8.617
  Name = 
  3 active torsions:
  status: ('A' for Active; 'I' for Inactive)
    1  A    between atoms: C_5  and  O_16
    2  A    between atoms: C_5  and  C_30
    3  A    between atoms: C_10  and  O_16
                            x       y       z     vdW  Elec       q    Type
                         _______ _______ _______ _____ _____    ______ ____

>  <TORSDO>
F 3

$$$$
=
 OpenBabel11122413203D

 31 35  0  0  1  0  0  0  0  0999 V2000
  159.5210  211.3840  154.1460 C   0  0  0  0  0  0  0  0  0  0  0  0
  161.1690  209.6860  151.1410 C   0  0  0  0  0  0  0  0  0  0  0  0
  161.3900  210.6880  150.1570 C   0  0  0  0  0  0  0  0  0  0  0  0
  161.4320  213.0130  149.4250 C   0  0  0  0  0  0  0  0  0  0  0  0
  160.6690  209.9700  152.5260 C   0  0  0  0  0  0  0  0  0  0  0  0
  159.6860  210.4070  155.1290 C   0  0  0  0  0  3  0  0  0  0  0  0
  161.2010  212.0560  150.4150 C   0  0  0  0  0  3  0  0  0  0  0  0
  161.2000  207.2320  151.8050 C   0  0  1  0  0  3  0  0  0  0  0  0
  158.8760  212.5740  154.4520 O   0  0  0  0  0  1  0  0  0  0  0  0
  162.0530  208.9940  148.5820 N   0  0  0  0  0  0  0  0  0  0  0  0
  161.2190  214.4530  149.7230 C   0  0  0  0  0  1  0  0  0  0  0  0
  161.5160  207.7000  153.2250 C   0  0  0  0  0  2  0  0  0  0  0  0
  161.4510  208.3400  150.8050 C   0  0  0  0  0  0  0  0  0  0  0  0
  160.0050  211.1640  152.8540 C   0  0  0  0  0  3  0  0  0  0  0  0
  161.8600  212.6180  148.1580 C   0  0  0  0  0  3  0  0  0  0  0  0
  160.8050  208.9800  153.5250 C   0  0  0  0  0  0  0  0  0  0  0  0
  160.3300  209.2090  154.8190 C   0  0  0  0  0  3  0  0  0  0  0  0
  161.8680  208.0220  149.5080 C   0  0  0  0  0  3  0  0  0  0  0  0
  161.8360  210.3010  148.8680 C   0  0  0  0  0  0  0  0  0  0  0  0
  162.0630  211.2650  147.8810 C   0  0  0  0  0  3  0  0  0  0  0  0
  161.9680  206.0990  151.5130 O   0  0  0  0  0  0  0  0  0  0  0  0
  161.1420  204.5180  153.1040 C   0  0  0  0  0  1  0  0  0  0  0  0
  161.0960  205.0160  151.6670 C   0  0  2  0  0  3  0  0  0  0  0  0
  160.7510  201.6860  148.8700 C   0  0  1  0  0  3  0  0  0  0  0  0
  161.0980  202.5210  151.1980 C   0  0  0  0  0  2  0  0  0  0  0  0
  161.1420  205.3890  148.7780 O   0  0  0  0  0  1  0  0  0  0  0  0
  161.1410  200.6140  147.8740 C   0  0  0  0  0  1  0  0  0  0  0  0
  161.4820  201.4470  150.1860 C   0  0  0  0  0  2  0  0  0  0  0  0
  160.7470  204.1570  149.3000 C   0  0  2  0  0  3  0  0  0  0  0  0
  161.4320  203.9140  150.6530 C   0  0  1  0  0  3  0  0  0  0  0  0
  161.1180  203.0560  148.3100 C   0  0  0  0  0  2  0  0  0  0  0  0
  1  9  1  0  0  0  0
  1  6  1  0  0  0  0
  2  5  1  0  0  0  0
  3  7  1  0  0  0  0
  3  2  2  0  0  0  0
  4 11  1  0  0  0  0
  4  7  2  0  0  0  0
  5 14  1  0  0  0  0
  5 16  2  0  0  0  0
  8 21  1  6  0  0  0
  8 12  1  0  0  0  0
 10 19  2  0  0  0  0
 10 18  1  0  0  0  0
 12 16  1  0  0  0  0
 13  2  1  0  0  0  0
 13  8  1  0  0  0  0
 14  1  2  0  0  0  0
 15  4  1  0  0  0  0
 16 17  1  0  0  0  0
 17  6  2  0  0  0  0
 18 13  2  0  0  0  0
 19  3  1  0  0  0  0
 20 15  2  0  0  0  0
 20 19  1  0  0  0  0
 21 23  1  0  0  0  0
 23 22  1  1  0  0  0
 24 27  1  6  0  0  0
 24 28  1  0  0  0  0
 28 25  1  0  0  0  0
 29 26  1  6  0  0  0
 29 30  1  0  0  0  0
 30 25  1  0  0  0  0
 30 23  1  1  0  0  0
 31 24  1  0  0  0  0
 31 29  1  0  0  0  0
M  END
>  <MODEL>
7

>  <REMARK>
 VINA RESULT:      -8.1      2.036      4.212
  Name = 
  3 active torsions:
  status: ('A' for Active; 'I' for Inactive)
    1  A    between atoms: C_5  and  O_16
    2  A    between atoms: C_5  and  C_30
    3  A    between atoms: C_10  and  O_16
                            x       y       z     vdW  Elec       q    Type
                         _______ _______ _______ _____ _____    ______ ____

>  <TORSDO>
F 3

$$$$
=
 OpenBabel11122413203D

 31 35  0  0  1  0  0  0  0  0999 V2000
  161.1280  202.3450  151.0750 C   0  0  0  0  0  0  0  0  0  0  0  0
  161.4650  205.6270  149.1410 C   0  0  0  0  0  0  0  0  0  0  0  0
  161.4880  205.3020  147.7570 C   0  0  0  0  0  0  0  0  0  0  0  0
  161.2440  203.7280  145.9120 C   0  0  0  0  0  0  0  0  0  0  0  0
  161.2020  204.6290  150.2290 C   0  0  0  0  0  0  0  0  0  0  0  0
  160.7670  202.8140  152.3390 C   0  0  0  0  0  3  0  0  0  0  0  0
  161.2160  204.0100  147.2790 C   0  0  0  0  0  3  0  0  0  0  0  0
  161.7060  207.3630  150.9820 C   0  0  1  0  0  3  0  0  0  0  0  0
  161.2680  200.9810  150.8560 O   0  0  0  0  0  1  0  0  0  0  0  0
  162.0240  207.5880  147.2310 N   0  0  0  0  0  0  0  0  0  0  0  0
  160.9570  202.3510  145.4320 C   0  0  0  0  0  1  0  0  0  0  0  0
  160.6830  206.5540  151.7750 C   0  0  0  0  0  2  0  0  0  0  0  0
  161.6860  206.9730  149.5200 C   0  0  0  0  0  0  0  0  0  0  0  0
  161.3470  203.2460  150.0310 C   0  0  0  0  0  3  0  0  0  0  0  0
  161.5410  204.7380  144.9970 C   0  0  0  0  0  3  0  0  0  0  0  0
  160.8620  205.0910  151.5200 C   0  0  0  0  0  0  0  0  0  0  0  0
  160.6320  204.1860  152.5600 C   0  0  0  0  0  3  0  0  0  0  0  0
  161.9890  207.9270  148.5420 C   0  0  0  0  0  3  0  0  0  0  0  0
  161.7780  206.3210  146.8150 C   0  0  0  0  0  0  0  0  0  0  0  0
  161.8060  206.0320  145.4470 C   0  0  0  0  0  3  0  0  0  0  0  0
  161.4410  208.7280  151.1480 O   0  0  0  0  0  0  0  0  0  0  0  0
  161.5580  207.8380  153.3630 C   0  0  0  0  0  1  0  0  0  0  0  0
  161.8470  209.0240  152.4530 C   0  0  2  0  0  3  0  0  0  0  0  0
  159.1840  211.8210  154.4820 C   0  0  1  0  0  3  0  0  0  0  0  0
  159.7060  210.3880  152.5040 C   0  0  0  0  0  2  0  0  0  0  0  0
  162.6560  210.5140  154.8220 O   0  0  0  0  0  1  0  0  0  0  0  0
  158.5580  213.1260  154.9280 C   0  0  0  0  0  1  0  0  0  0  0  0
  159.0800  211.6990  152.9660 C   0  0  0  0  0  2  0  0  0  0  0  0
  161.3080  210.4870  154.4600 C   0  0  2  0  0  3  0  0  0  0  0  0
  161.1740  210.3140  152.9400 C   0  0  1  0  0  3  0  0  0  0  0  0
  160.6480  211.7880  154.9080 C   0  0  0  0  0  2  0  0  0  0  0  0
  1  6  1  0  0  0  0
  2 13  1  0  0  0  0
  2  5  1  0  0  0  0
  3  2  2  0  0  0  0
  4  7  2  0  0  0  0
  5 16  2  0  0  0  0
  6 17  2  0  0  0  0
  7  3  1  0  0  0  0
  8 21  1  6  0  0  0
  8 12  1  0  0  0  0
  9  1  1  0  0  0  0
 10 18  1  0  0  0  0
 11  4  1  0  0  0  0
 13  8  1  0  0  0  0
 14  5  1  0  0  0  0
 14  1  2  0  0  0  0
 15 20  2  0  0  0  0
 15  4  1  0  0  0  0
 16 12  1  0  0  0  0
 16 17  1  0  0  0  0
 18 13  2  0  0  0  0
 19 10  2  0  0  0  0
 19  3  1  0  0  0  0
 20 19  1  0  0  0  0
 21 23  1  0  0  0  0
 23 22  1  1  0  0  0
 24 31  1  0  0  0  0
 24 27  1  6  0  0  0
 25 30  1  0  0  0  0
 25 28  1  0  0  0  0
 28 24  1  0  0  0  0
 29 26  1  6  0  0  0
 29 31  1  0  0  0  0
 30 23  1  1  0  0  0
 30 29  1  0  0  0  0
M  END
>  <MODEL>
8

>  <REMARK>
 VINA RESULT:      -8.0      2.522      8.684
  Name = 
  3 active torsions:
  status: ('A' for Active; 'I' for Inactive)
    1  A    between atoms: C_5  and  O_16
    2  A    between atoms: C_5  and  C_30
    3  A    between atoms: C_10  and  O_16
                            x       y       z     vdW  Elec       q    Type
                         _______ _______ _______ _____ _____    ______ ____

>  <TORSDO>
F 3

$$$$
=
 OpenBabel11122413203D

 31 35  0  0  1  0  0  0  0  0999 V2000
  161.3340  202.3210  151.0490 C   0  0  0  0  0  0  0  0  0  0  0  0
  161.1800  205.4230  148.8180 C   0  0  0  0  0  0  0  0  0  0  0  0
  161.1290  204.9730  147.4700 C   0  0  0  0  0  0  0  0  0  0  0  0
  160.9070  203.2160  145.7950 C   0  0  0  0  0  0  0  0  0  0  0  0
  161.1060  204.5120  150.0070 C   0  0  0  0  0  0  0  0  0  0  0  0
  161.0250  202.8700  152.2940 C   0  0  0  0  0  3  0  0  0  0  0  0
  160.9560  203.6220  147.1300 C   0  0  0  0  0  3  0  0  0  0  0  0
  161.3810  207.3410  150.4750 C   0  0  1  0  0  3  0  0  0  0  0  0
  161.5970  200.9620  150.9360 O   0  0  0  0  0  1  0  0  0  0  0  0
  161.3830  207.2400  146.7050 N   0  0  0  0  0  0  0  0  0  0  0  0
  160.7290  201.7790  145.4620 C   0  0  0  0  0  1  0  0  0  0  0  0
  160.5110  206.5140  151.4200 C   0  0  0  0  0  2  0  0  0  0  0  0
  161.2890  206.8140  149.0590 C   0  0  0  0  0  0  0  0  0  0  0  0
  161.3770  203.1360  149.9160 C   0  0  0  0  0  3  0  0  0  0  0  0
  161.0270  204.1590  144.7740 C   0  0  0  0  0  3  0  0  0  0  0  0
  160.8200  205.0580  151.2780 C   0  0  0  0  0  0  0  0  0  0  0  0
  160.7660  204.2370  152.4070 C   0  0  0  0  0  3  0  0  0  0  0  0
  161.4150  207.6960  147.9810 C   0  0  0  0  0  3  0  0  0  0  0  0
  161.2380  205.9220  146.4230 C   0  0  0  0  0  0  0  0  0  0  0  0
  161.1900  205.5100  145.0880 C   0  0  0  0  0  3  0  0  0  0  0  0
  160.9890  208.6830  150.5450 O   0  0  0  0  0  0  0  0  0  0  0  0
  162.2910  209.3300  152.4430 C   0  0  0  0  0  1  0  0  0  0  0  0
  162.1390  209.3800  150.9290 C   0  0  2  0  0  3  0  0  0  0  0  0
  161.0190  212.9580  148.6990 C   0  0  1  0  0  3  0  0  0  0  0  0
  162.3730  210.8680  148.8850 C   0  0  0  0  0  2  0  0  0  0  0  0
  160.5820  211.5380  152.1150 O   0  0  0  0  0  1  0  0  0  0  0  0
  161.0210  214.3890  148.2040 C   0  0  0  0  0  1  0  0  0  0  0  0
  162.3630  212.3110  148.3910 C   0  0  0  0  0  2  0  0  0  0  0  0
  160.7670  211.5110  150.7320 C   0  0  2  0  0  3  0  0  0  0  0  0
  162.0940  210.8170  150.3920 C   0  0  1  0  0  3  0  0  0  0  0  0
  160.7640  212.9420  150.2020 C   0  0  0  0  0  2  0  0  0  0  0  0
  1  6  1  0  0  0  0
  2 13  1  0  0  0  0
  2  5  1  0  0  0  0
  3  2  2  0  0  0  0
  4  7  2  0  0  0  0
  5 16  2  0  0  0  0
  6 17  2  0  0  0  0
  7  3  1  0  0  0  0
  8 21  1  6  0  0  0
  8 12  1  0  0  0  0
  9  1  1  0  0  0  0
 10 18  1  0  0  0  0
 11  4  1  0  0  0  0
 13  8  1  0  0  0  0
 14  5  1  0  0  0  0
 14  1  2  0  0  0  0
 15 20  2  0  0  0  0
 15  4  1  0  0  0  0
 16 12  1  0  0  0  0
 16 17  1  0  0  0  0
 18 13  2  0  0  0  0
 19 10  2  0  0  0  0
 19  3  1  0  0  0  0
 20 19  1  0  0  0  0
 21 23  1  0  0  0  0
 23 22  1  1  0  0  0
 24 27  1  1  0  0  0
 24 31  1  0  0  0  0
 25 30  1  0  0  0  0
 28 24  1  0  0  0  0
 28 25  1  0  0  0  0
 29 26  1  1  0  0  0
 30 29  1  0  0  0  0
 30 23  1  6  0  0  0
 31 29  1  0  0  0  0
M  END
>  <MODEL>
9

>  <REMARK>
 VINA RESULT:      -7.7      2.796      8.654
  Name = 
  3 active torsions:
  status: ('A' for Active; 'I' for Inactive)
    1  A    between atoms: C_5  and  O_16
    2  A    between atoms: C_5  and  C_30
    3  A    between atoms: C_10  and  O_16
                            x       y       z     vdW  Elec       q    Type
                         _______ _______ _______ _____ _____    ______ ____

>  <TORSDO>
F 3

$$$$
