=
 OpenBabel11122412413D

 30 35  0  0  1  0  0  0  0  0999 V2000
  160.5800  211.8250  151.9920 C   0  0  2  0  0  3  0  0  0  0  0  0
  160.4410  213.6000  150.1640 C   0  0  0  0  0  0  0  0  0  0  0  0
  162.2390  209.1510  149.1380 N   0  0  0  0  0  2  0  0  0  0  0  0
  161.1700  210.4880  152.3660 N   0  0  1  0  0  0  0  0  0  0  0  0
  159.0890  211.9470  152.3430 C   0  0  0  0  0  2  0  0  0  0  0  0
  160.9000  211.4820  155.1140 O   0  0  0  0  0  1  0  0  0  0  0  0
  160.7220  207.2970  153.4790 C   0  0  1  0  0  3  0  0  0  0  0  0
  159.8410  210.8150  154.4930 C   0  0  1  0  0  3  0  0  0  0  0  0
  160.8140  207.1940  151.9500 C   0  0  2  0  0  3  0  0  0  0  0  0
  162.1880  207.9620  149.9110 C   0  0  0  0  0  0  0  0  0  0  0  0
  158.8970  211.8370  153.8580 C   0  0  2  0  0  3  0  0  0  0  0  0
  160.3730  209.8380  153.4320 C   0  0  2  0  0  3  0  0  0  0  0  0
  160.6370  214.0250  148.8470 C   0  0  0  0  0  3  0  0  0  0  0  0
  161.2770  205.7730  151.7560 C   0  0  0  0  0  2  0  0  0  0  0  0
  161.5240  206.2950  154.0470 O   0  0  0  0  0  0  0  0  0  0  0  0
  159.8680  214.4530  151.0490 F   0  0  0  0  0  0  0  0  0  0  0  0
  162.0500  210.2050  150.1120 C   0  0  2  0  0  3  0  0  0  0  0  0
  161.2470  213.1800  147.9170 C   0  0  0  0  0  3  0  0  0  0  0  0
  160.8350  212.3070  150.5600 C   0  0  0  0  0  0  0  0  0  0  0  0
  161.1770  209.6030  151.1870 C   0  0  1  0  0  3  0  0  0  0  0  0
  162.5040  206.8400  149.4340 O   0  0  0  0  0  0  0  0  0  0  0  0
  161.8110  208.2080  151.3440 C   0  0  1  0  0  3  0  0  0  0  0  0
  161.4350  205.2200  153.1540 C   0  0  0  0  0  2  0  0  0  0  0  0
  161.9400  208.7920  154.8710 O   0  0  0  0  0  0  0  0  0  0  0  0
  161.6700  211.9080  148.3040 C   0  0  0  0  0  3  0  0  0  0  0  0
  161.4490  211.4640  149.6130 C   0  0  0  0  0  0  0  0  0  0  0  0
  161.0720  208.6530  154.0220 C   0  0  0  0  0  0  0  0  0  0  0  0
  157.4550  211.4710  154.1790 C   0  0  0  0  0  2  0  0  0  0  0  0
  155.9060  211.4800  156.1350 C   0  0  0  0  0  1  0  0  0  0  0  0
  157.2910  211.1010  155.6450 C   0  0  0  0  0  2  0  0  0  0  0  0
  1  5  1  6  0  0  0
  1  4  1  0  0  0  0
  2 19  1  0  0  0  0
  2 16  1  0  0  0  0
  3 10  1  0  0  0  0
  3 17  1  0  0  0  0
  4 12  1  0  0  0  0
  5 11  1  0  0  0  0
  7 27  1  0  0  0  0
  7 15  1  0  0  0  0
  8  6  1  0  0  0  0
  9  7  1  0  0  0  0
 10 22  1  0  0  0  0
 11 28  1  0  0  0  0
 11  8  1  0  0  0  0
 12 27  1  0  0  0  0
 12  8  1  0  0  0  0
 13  2  2  0  0  0  0
 14  9  1  0  0  0  0
 14 23  1  0  0  0  0
 17 20  1  0  0  0  0
 18 25  2  0  0  0  0
 18 13  1  0  0  0  0
 19  1  1  0  0  0  0
 20 22  1  0  0  0  0
 20  4  1  0  0  0  0
 21 10  2  0  0  0  0
 22  9  1  0  0  0  0
 23 15  1  0  0  0  0
 25 26  1  0  0  0  0
 26 17  1  0  0  0  0
 26 19  2  0  0  0  0
 27 24  2  0  0  0  0
 28 30  1  0  0  0  0
 30 29  1  0  0  0  0
M  END
>  <MODEL>
1

>  <REMARK>
 VINA RESULT:      -6.4      0.000      0.000
  Name = 
  2 active torsions:
  status: ('A' for Active; 'I' for Inactive)
    1  A    between atoms: C_11  and  C_28
    2  A    between atoms: C_28  and  C_30
                            x       y       z     vdW  Elec       q    Type
                         _______ _______ _______ _____ _____    ______ ____

>  <TORSDO>
F 2

$$$$
=
 OpenBabel11122412413D

 30 35  0  0  1  0  0  0  0  0999 V2000
  161.9880  207.8390  151.5410 C   0  0  2  0  0  3  0  0  0  0  0  0
  162.0410  210.2940  150.8490 C   0  0  0  0  0  0  0  0  0  0  0  0
  161.6130  206.7900  147.4410 N   0  0  0  0  0  2  0  0  0  0  0  0
  162.0930  206.4190  151.0440 N   0  0  1  0  0  0  0  0  0  0  0  0
  160.8230  208.0520  152.5200 C   0  0  0  0  0  2  0  0  0  0  0  0
  163.0090  205.8570  153.7760 O   0  0  0  0  0  1  0  0  0  0  0  0
  160.7770  203.2800  150.8420 C   0  0  1  0  0  3  0  0  0  0  0  0
  161.6470  205.8390  153.4650 C   0  0  1  0  0  3  0  0  0  0  0  0
  160.3900  203.9770  149.5310 C   0  0  2  0  0  3  0  0  0  0  0  0
  161.3250  205.4100  147.6040 C   0  0  0  0  0  0  0  0  0  0  0  0
  161.0350  207.2050  153.7780 C   0  0  2  0  0  3  0  0  0  0  0  0
  161.4400  205.4800  151.9860 C   0  0  2  0  0  3  0  0  0  0  0  0
  162.0100  211.2980  149.8760 C   0  0  0  0  0  3  0  0  0  0  0  0
  160.1930  202.8100  148.5980 C   0  0  0  0  0  2  0  0  0  0  0  0
  161.2530  201.9950  150.5460 O   0  0  0  0  0  0  0  0  0  0  0  0
  162.1150  210.6520  152.1560 F   0  0  0  0  0  0  0  0  0  0  0  0
  162.1270  207.1900  148.7340 C   0  0  2  0  0  3  0  0  0  0  0  0
  161.9590  210.9640  148.5210 C   0  0  0  0  0  3  0  0  0  0  0  0
  161.9980  208.9380  150.4730 C   0  0  0  0  0  0  0  0  0  0  0  0
  161.4280  206.3010  149.7340 C   0  0  1  0  0  3  0  0  0  0  0  0
  161.0350  204.6680  146.6290 O   0  0  0  0  0  0  0  0  0  0  0  0
  161.4890  204.9390  149.0210 C   0  0  1  0  0  3  0  0  0  0  0  0
  160.5090  201.5890  149.4310 C   0  0  0  0  0  2  0  0  0  0  0  0
  162.8150  203.5500  152.0390 O   0  0  0  0  0  0  0  0  0  0  0  0
  161.9470  209.6240  148.1340 C   0  0  0  0  0  3  0  0  0  0  0  0
  161.9470  208.6140  149.1030 C   0  0  0  0  0  0  0  0  0  0  0  0
  161.7610  204.0510  151.6760 C   0  0  0  0  0  0  0  0  0  0  0  0
  159.7160  207.0190  154.5150 C   0  0  0  0  0  2  0  0  0  0  0  0
  161.1840  208.0180  156.2680 C   0  0  0  0  0  1  0  0  0  0  0  0
  159.8610  207.3280  155.9970 C   0  0  0  0  0  2  0  0  0  0  0  0
  1  5  1  6  0  0  0
  2 16  1  0  0  0  0
  3 10  1  0  0  0  0
  3 17  1  0  0  0  0
  4  1  1  0  0  0  0
  4 12  1  0  0  0  0
  5 11  1  0  0  0  0
  7 27  1  0  0  0  0
  8  6  1  0  0  0  0
  8 11  1  0  0  0  0
  9  7  1  0  0  0  0
 10 22  1  0  0  0  0
 11 28  1  0  0  0  0
 12  8  1  0  0  0  0
 13  2  2  0  0  0  0
 14 23  1  0  0  0  0
 14  9  1  0  0  0  0
 15  7  1  0  0  0  0
 17 26  1  0  0  0  0
 17 20  1  0  0  0  0
 18 13  1  0  0  0  0
 19  2  1  0  0  0  0
 19  1  1  0  0  0  0
 20  4  1  0  0  0  0
 21 10  2  0  0  0  0
 22  9  1  0  0  0  0
 22 20  1  0  0  0  0
 23 15  1  0  0  0  0
 25 18  2  0  0  0  0
 25 26  1  0  0  0  0
 26 19  2  0  0  0  0
 27 12  1  0  0  0  0
 27 24  2  0  0  0  0
 28 30  1  0  0  0  0
 30 29  1  0  0  0  0
M  END
>  <MODEL>
2

>  <REMARK>
 VINA RESULT:      -6.3      3.084      4.442
  Name = 
  2 active torsions:
  status: ('A' for Active; 'I' for Inactive)
    1  A    between atoms: C_11  and  C_28
    2  A    between atoms: C_28  and  C_30
                            x       y       z     vdW  Elec       q    Type
                         _______ _______ _______ _____ _____    ______ ____

>  <TORSDO>
F 2

$$$$
=
 OpenBabel11122412413D

 30 35  0  0  1  0  0  0  0  0999 V2000
  160.1610  212.2150  152.0540 C   0  0  2  0  0  3  0  0  0  0  0  0
  160.1590  213.4650  149.8300 C   0  0  0  0  0  0  0  0  0  0  0  0
  162.3440  209.0860  150.1850 N   0  0  0  0  0  2  0  0  0  0  0  0
  160.7770  211.0720  152.8210 N   0  0  1  0  0  0  0  0  0  0  0  0
  158.6330  212.2810  152.1910 C   0  0  0  0  0  2  0  0  0  0  0  0
  160.0840  212.6820  155.1760 O   0  0  0  0  0  1  0  0  0  0  0  0
  160.3800  208.2250  154.6560 C   0  0  1  0  0  3  0  0  0  0  0  0
  159.1600  211.7870  154.6300 C   0  0  1  0  0  3  0  0  0  0  0  0
  160.6810  207.7580  153.2250 C   0  0  2  0  0  3  0  0  0  0  0  0
  162.2640  208.1240  151.2260 C   0  0  0  0  0  0  0  0  0  0  0  0
  158.2480  212.5300  153.6520 C   0  0  2  0  0  3  0  0  0  0  0  0
  159.8860  210.6330  153.9220 C   0  0  2  0  0  3  0  0  0  0  0  0
  160.5020  213.5690  148.4780 C   0  0  0  0  0  3  0  0  0  0  0  0
  161.2510  206.3820  153.4540 C   0  0  0  0  0  2  0  0  0  0  0  0
  161.1590  207.4730  155.5470 O   0  0  0  0  0  0  0  0  0  0  0  0
  159.4220  214.4530  150.3970 F   0  0  0  0  0  0  0  0  0  0  0  0
  161.9640  210.3250  150.8300 C   0  0  2  0  0  3  0  0  0  0  0  0
  161.2800  212.5820  147.8710 C   0  0  0  0  0  3  0  0  0  0  0  0
  160.5750  212.3510  150.5850 C   0  0  0  0  0  0  0  0  0  0  0  0
  160.9950  209.9280  151.9170 C   0  0  1  0  0  3  0  0  0  0  0  0
  162.7080  206.9540  151.0900 O   0  0  0  0  0  0  0  0  0  0  0  0
  161.6850  208.6800  152.4960 C   0  0  1  0  0  3  0  0  0  0  0  0
  161.2550  206.2070  154.9550 C   0  0  0  0  0  2  0  0  0  0  0  0
  161.3100  210.1230  155.7470 O   0  0  0  0  0  0  0  0  0  0  0  0
  161.7250  211.4890  148.6150 C   0  0  0  0  0  3  0  0  0  0  0  0
  161.3600  211.3620  149.9610 C   0  0  0  0  0  0  0  0  0  0  0  0
  160.5720  209.7000  154.8690 C   0  0  0  0  0  0  0  0  0  0  0  0
  156.8010  212.1230  153.8910 C   0  0  0  0  0  2  0  0  0  0  0  0
  155.5640  210.4690  155.2900 C   0  0  0  0  0  1  0  0  0  0  0  0
  156.6050  211.5710  155.2950 C   0  0  0  0  0  2  0  0  0  0  0  0
  1  5  1  6  0  0  0
  1  4  1  0  0  0  0
  2 16  1  0  0  0  0
  2 19  1  0  0  0  0
  3 17  1  0  0  0  0
  3 10  1  0  0  0  0
  4 12  1  0  0  0  0
  5 11  1  0  0  0  0
  7 27  1  0  0  0  0
  7 15  1  0  0  0  0
  8  6  1  0  0  0  0
  9 14  1  0  0  0  0
  9  7  1  0  0  0  0
 10 22  1  0  0  0  0
 11 28  1  0  0  0  0
 11  8  1  0  0  0  0
 12  8  1  0  0  0  0
 12 27  1  0  0  0  0
 13  2  2  0  0  0  0
 14 23  1  0  0  0  0
 17 20  1  0  0  0  0
 18 13  1  0  0  0  0
 18 25  2  0  0  0  0
 19  1  1  0  0  0  0
 20 22  1  0  0  0  0
 20  4  1  0  0  0  0
 21 10  2  0  0  0  0
 22  9  1  0  0  0  0
 23 15  1  0  0  0  0
 25 26  1  0  0  0  0
 26 19  2  0  0  0  0
 26 17  1  0  0  0  0
 27 24  2  0  0  0  0
 28 30  1  0  0  0  0
 29 30  1  0  0  0  0
M  END
>  <MODEL>
3

>  <REMARK>
 VINA RESULT:      -5.9      1.038      1.178
  Name = 
  2 active torsions:
  status: ('A' for Active; 'I' for Inactive)
    1  A    between atoms: C_11  and  C_28
    2  A    between atoms: C_28  and  C_30
                            x       y       z     vdW  Elec       q    Type
                         _______ _______ _______ _____ _____    ______ ____

>  <TORSDO>
F 2

$$$$
=
 OpenBabel11122412413D

 30 35  0  0  1  0  0  0  0  0999 V2000
  161.7490  204.9420  149.2960 C   0  0  2  0  0  3  0  0  0  0  0  0
  161.3700  202.4200  149.3470 C   0  0  0  0  0  0  0  0  0  0  0  0
  160.9710  205.0480  153.4720 N   0  0  0  0  0  2  0  0  0  0  0  0
  161.9820  206.1680  150.1430 N   0  0  1  0  0  0  0  0  0  0  0  0
  160.7100  205.1630  148.1870 C   0  0  0  0  0  2  0  0  0  0  0  0
  163.3280  207.1940  147.7460 O   0  0  0  0  0  1  0  0  0  0  0  0
  161.0950  209.3470  151.0030 C   0  0  1  0  0  3  0  0  0  0  0  0
  161.9520  207.3660  147.9170 C   0  0  1  0  0  3  0  0  0  0  0  0
  160.4420  208.4360  152.0520 C   0  0  2  0  0  3  0  0  0  0  0  0
  160.9000  206.4560  153.6350 C   0  0  0  0  0  0  0  0  0  0  0  0
  161.2060  206.2330  147.2100 C   0  0  2  0  0  3  0  0  0  0  0  0
  161.5970  207.3980  149.4110 C   0  0  2  0  0  3  0  0  0  0  0  0
  161.0690  201.2360  150.0280 C   0  0  0  0  0  3  0  0  0  0  0  0
  160.2840  209.3680  153.2250 C   0  0  0  0  0  2  0  0  0  0  0  0
  161.7000  210.4290  151.6600 O   0  0  0  0  0  0  0  0  0  0  0  0
  161.5700  202.3720  148.0060 F   0  0  0  0  0  0  0  0  0  0  0  0
  161.5950  204.8830  152.1760 C   0  0  2  0  0  3  0  0  0  0  0  0
  160.8810  201.2460  151.4110 C   0  0  0  0  0  3  0  0  0  0  0  0
  161.4640  203.6380  150.0480 C   0  0  0  0  0  0  0  0  0  0  0  0
  161.1670  206.0850  151.3700 C   0  0  1  0  0  3  0  0  0  0  0  0
  160.5870  206.9870  154.7340 O   0  0  0  0  0  0  0  0  0  0  0  0
  161.3190  207.2130  152.4070 C   0  0  1  0  0  3  0  0  0  0  0  0
  160.8750  210.6800  152.7630 C   0  0  0  0  0  2  0  0  0  0  0  0
  163.2200  209.0290  149.9820 O   0  0  0  0  0  0  0  0  0  0  0  0
  161.0020  202.4410  152.1220 C   0  0  0  0  0  3  0  0  0  0  0  0
  161.2730  203.6360  151.4430 C   0  0  0  0  0  0  0  0  0  0  0  0
  162.0680  208.6400  150.1010 C   0  0  0  0  0  0  0  0  0  0  0  0
  160.0370  206.8040  146.4200 C   0  0  0  0  0  2  0  0  0  0  0  0
  161.2460  205.5190  144.6560 C   0  0  0  0  0  1  0  0  0  0  0  0
  159.9270  206.1570  145.0470 C   0  0  0  0  0  2  0  0  0  0  0  0
  1  5  1  6  0  0  0
  1 19  1  0  0  0  0
  1  4  1  0  0  0  0
  2 13  2  0  0  0  0
  2 19  1  0  0  0  0
  3 10  1  0  0  0  0
  4 20  1  0  0  0  0
  6  8  1  0  0  0  0
  7 15  1  0  0  0  0
  7  9  1  0  0  0  0
  8 12  1  0  0  0  0
  9 22  1  0  0  0  0
  9 14  1  0  0  0  0
 10 21  2  0  0  0  0
 11  8  1  0  0  0  0
 11  5  1  0  0  0  0
 12 27  1  0  0  0  0
 12  4  1  0  0  0  0
 13 18  1  0  0  0  0
 15 23  1  0  0  0  0
 16  2  1  0  0  0  0
 17  3  1  0  0  0  0
 18 25  2  0  0  0  0
 19 26  2  0  0  0  0
 20 17  1  0  0  0  0
 20 22  1  0  0  0  0
 22 10  1  0  0  0  0
 23 14  1  0  0  0  0
 24 27  2  0  0  0  0
 26 25  1  0  0  0  0
 26 17  1  0  0  0  0
 27  7  1  0  0  0  0
 28 11  1  0  0  0  0
 29 30  1  0  0  0  0
 30 28  1  0  0  0  0
M  END
>  <MODEL>
4

>  <REMARK>
 VINA RESULT:      -5.3      3.794      8.009
  Name = 
  2 active torsions:
  status: ('A' for Active; 'I' for Inactive)
    1  A    between atoms: C_11  and  C_28
    2  A    between atoms: C_28  and  C_30
                            x       y       z     vdW  Elec       q    Type
                         _______ _______ _______ _____ _____    ______ ____

>  <TORSDO>
F 2

$$$$
=
 OpenBabel11122412413D

 30 35  0  0  1  0  0  0  0  0999 V2000
  161.6870  208.1690  151.1930 C   0  0  2  0  0  3  0  0  0  0  0  0
  161.2410  206.8100  153.3060 C   0  0  0  0  0  0  0  0  0  0  0  0
  160.2980  211.6240  153.2380 N   0  0  0  0  0  2  0  0  0  0  0  0
  161.8210  209.5630  150.6340 N   0  0  1  0  0  0  0  0  0  0  0  0
  160.8310  207.2450  150.3150 C   0  0  0  0  0  2  0  0  0  0  0  0
  163.5350  208.2650  148.6360 O   0  0  0  0  0  1  0  0  0  0  0  0
  160.8960  211.8940  148.3230 C   0  0  1  0  0  3  0  0  0  0  0  0
  162.1540  208.3460  148.4420 C   0  0  1  0  0  3  0  0  0  0  0  0
  160.0720  212.2050  149.5790 C   0  0  2  0  0  3  0  0  0  0  0  0
  160.2390  212.5120  152.1320 C   0  0  0  0  0  0  0  0  0  0  0  0
  161.4930  207.0610  148.9460 C   0  0  2  0  0  3  0  0  0  0  0  0
  161.5810  209.5710  149.1710 C   0  0  2  0  0  3  0  0  0  0  0  0
  160.8120  206.7050  154.6330 C   0  0  0  0  0  3  0  0  0  0  0  0
  159.7630  213.6690  149.4000 C   0  0  0  0  0  2  0  0  0  0  0  0
  161.4230  213.0930  147.8210 O   0  0  0  0  0  0  0  0  0  0  0  0
  161.6370  205.6860  152.6560 F   0  0  0  0  0  0  0  0  0  0  0  0
  161.1030  210.5230  152.7540 C   0  0  2  0  0  3  0  0  0  0  0  0
  160.4210  207.8450  155.3380 C   0  0  0  0  0  3  0  0  0  0  0  0
  161.2600  208.0620  152.6610 C   0  0  0  0  0  0  0  0  0  0  0  0
  160.8310  210.4500  151.2710 C   0  0  1  0  0  3  0  0  0  0  0  0
  159.7780  213.6790  152.2350 O   0  0  0  0  0  0  0  0  0  0  0  0
  160.8540  211.9410  150.8860 C   0  0  1  0  0  3  0  0  0  0  0  0
  160.4490  214.0570  148.1100 C   0  0  0  0  0  2  0  0  0  0  0  0
  163.1410  211.1090  148.2650 O   0  0  0  0  0  0  0  0  0  0  0  0
  160.4640  209.0960  154.7210 C   0  0  0  0  0  3  0  0  0  0  0  0
  160.8630  209.2040  153.3830 C   0  0  0  0  0  0  0  0  0  0  0  0
  161.9750  210.8690  148.5390 C   0  0  0  0  0  0  0  0  0  0  0  0
  160.4700  206.5780  147.9280 C   0  0  0  0  0  2  0  0  0  0  0  0
  161.5810  204.3840  147.5110 C   0  0  0  0  0  1  0  0  0  0  0  0
  161.1110  205.6810  146.8810 C   0  0  0  0  0  2  0  0  0  0  0  0
  1  5  1  6  0  0  0
  1 19  1  0  0  0  0
  2 13  1  0  0  0  0
  4  1  1  0  0  0  0
  4 20  1  0  0  0  0
  7 27  1  0  0  0  0
  7  9  1  0  0  0  0
  8  6  1  0  0  0  0
  8 11  1  0  0  0  0
  8 12  1  0  0  0  0
  9 22  1  0  0  0  0
 10 21  2  0  0  0  0
 10  3  1  0  0  0  0
 11  5  1  0  0  0  0
 12  4  1  0  0  0  0
 13 18  2  0  0  0  0
 14  9  1  0  0  0  0
 15 23  1  0  0  0  0
 15  7  1  0  0  0  0
 16  2  1  0  0  0  0
 17  3  1  0  0  0  0
 17 26  1  0  0  0  0
 19  2  2  0  0  0  0
 19 26  1  0  0  0  0
 20 17  1  0  0  0  0
 22 20  1  0  0  0  0
 22 10  1  0  0  0  0
 23 14  1  0  0  0  0
 24 27  2  0  0  0  0
 25 18  1  0  0  0  0
 26 25  2  0  0  0  0
 27 12  1  0  0  0  0
 28 11  1  0  0  0  0
 30 29  1  0  0  0  0
 30 28  1  0  0  0  0
M  END
>  <MODEL>
5

>  <REMARK>
 VINA RESULT:      -4.8      2.975      7.187
  Name = 
  2 active torsions:
  status: ('A' for Active; 'I' for Inactive)
    1  A    between atoms: C_11  and  C_28
    2  A    between atoms: C_28  and  C_30
                            x       y       z     vdW  Elec       q    Type
                         _______ _______ _______ _____ _____    ______ ____

>  <TORSDO>
F 2

$$$$
=
 OpenBabel11122412413D

 30 35  0  0  1  0  0  0  0  0999 V2000
  160.4750  213.5700  148.2570 C   0  0  2  0  0  3  0  0  0  0  0  0
  158.6350  213.6790  150.0200 C   0  0  0  0  0  0  0  0  0  0  0  0
  157.5350  214.3060  145.2800 N   0  0  0  0  0  2  0  0  0  0  0  0
  160.8200  213.8680  146.8190 N   0  0  1  0  0  0  0  0  0  0  0  0
  160.9540  212.1850  148.7180 C   0  0  0  0  0  2  0  0  0  0  0  0
  163.5620  214.0830  147.8420 O   0  0  0  0  0  1  0  0  0  0  0  0
  162.0260  212.8020  143.8140 C   0  0  1  0  0  3  0  0  0  0  0  0
  163.0490  212.8480  147.4370 C   0  0  1  0  0  3  0  0  0  0  0  0
  160.4980  212.7290  143.6960 C   0  0  2  0  0  3  0  0  0  0  0  0
  158.3310  214.0540  144.1320 C   0  0  0  0  0  0  0  0  0  0  0  0
  162.4820  212.1100  148.6520 C   0  0  2  0  0  3  0  0  0  0  0  0
  161.9640  213.0430  146.3670 C   0  0  2  0  0  3  0  0  0  0  0  0
  157.2970  213.8480  150.3920 C   0  0  0  0  0  3  0  0  0  0  0  0
  160.2890  212.8340  142.2070 C   0  0  0  0  0  2  0  0  0  0  0  0
  162.5390  213.4000  142.6530 O   0  0  0  0  0  0  0  0  0  0  0  0
  159.5510  213.3990  150.9810 F   0  0  0  0  0  0  0  0  0  0  0  0
  158.5030  214.4530  146.3460 C   0  0  2  0  0  3  0  0  0  0  0  0
  156.3330  214.1610  149.4320 C   0  0  0  0  0  3  0  0  0  0  0  0
  159.0180  213.7990  148.6700 C   0  0  0  0  0  0  0  0  0  0  0  0
  159.6610  213.5660  145.9590 C   0  0  1  0  0  3  0  0  0  0  0  0
  157.8490  214.0590  142.9690 O   0  0  0  0  0  0  0  0  0  0  0  0
  159.7870  213.8740  144.4560 C   0  0  1  0  0  3  0  0  0  0  0  0
  161.6780  212.9860  141.6300 C   0  0  0  0  0  2  0  0  0  0  0  0
  163.2770  214.4510  144.9850 O   0  0  0  0  0  0  0  0  0  0  0  0
  156.7040  214.3140  148.0960 C   0  0  0  0  0  3  0  0  0  0  0  0
  158.0360  214.1150  147.7110 C   0  0  0  0  0  0  0  0  0  0  0  0
  162.5110  213.5020  145.0520 C   0  0  0  0  0  0  0  0  0  0  0  0
  162.9350  210.6580  148.6270 C   0  0  0  0  0  2  0  0  0  0  0  0
  162.2450  208.2830  148.9560 C   0  0  0  0  0  1  0  0  0  0  0  0
  161.8660  209.7330  149.1880 C   0  0  0  0  0  2  0  0  0  0  0  0
  1 19  1  0  0  0  0
  1  5  1  6  0  0  0
  2 13  1  0  0  0  0
  2 16  1  0  0  0  0
  3 17  1  0  0  0  0
  4  1  1  0  0  0  0
  7 27  1  0  0  0  0
  8  6  1  0  0  0  0
  8 11  1  0  0  0  0
  9  7  1  0  0  0  0
  9 22  1  0  0  0  0
 10 22  1  0  0  0  0
 10  3  1  0  0  0  0
 11  5  1  0  0  0  0
 12  4  1  0  0  0  0
 12  8  1  0  0  0  0
 14  9  1  0  0  0  0
 15  7  1  0  0  0  0
 17 26  1  0  0  0  0
 18 13  2  0  0  0  0
 19  2  2  0  0  0  0
 20 17  1  0  0  0  0
 20  4  1  0  0  0  0
 21 10  2  0  0  0  0
 22 20  1  0  0  0  0
 23 14  1  0  0  0  0
 23 15  1  0  0  0  0
 24 27  2  0  0  0  0
 25 18  1  0  0  0  0
 26 25  2  0  0  0  0
 26 19  1  0  0  0  0
 27 12  1  0  0  0  0
 28 11  1  0  0  0  0
 28 30  1  0  0  0  0
 29 30  1  0  0  0  0
M  END
>  <MODEL>
6

>  <REMARK>
 VINA RESULT:      -4.7      4.794      8.290
  Name = 
  2 active torsions:
  status: ('A' for Active; 'I' for Inactive)
    1  A    between atoms: C_11  and  C_28
    2  A    between atoms: C_28  and  C_30
                            x       y       z     vdW  Elec       q    Type
                         _______ _______ _______ _____ _____    ______ ____

>  <TORSDO>
F 2

$$$$
=
 OpenBabel11122412413D

 30 35  0  0  1  0  0  0  0  0999 V2000
  162.0830  208.0280  151.3820 C   0  0  2  0  0  3  0  0  0  0  0  0
  161.7270  205.9610  149.9280 C   0  0  0  0  0  0  0  0  0  0  0  0
  160.2780  205.9470  154.6160 N   0  0  0  0  0  2  0  0  0  0  0  0
  162.0830  208.5510  152.7960 N   0  0  1  0  0  0  0  0  0  0  0  0
  161.3550  208.9530  150.3950 C   0  0  0  0  0  2  0  0  0  0  0  0
  163.9800  210.5250  151.7390 O   0  0  0  0  0  1  0  0  0  0  0  0
  160.9800  210.8340  155.0750 C   0  0  1  0  0  3  0  0  0  0  0  0
  162.6040  210.7590  151.6790 C   0  0  1  0  0  3  0  0  0  0  0  0
  160.0930  209.5960  155.2650 C   0  0  2  0  0  3  0  0  0  0  0  0
  160.1560  207.0330  155.5210 C   0  0  0  0  0  0  0  0  0  0  0  0
  162.0700  210.3040  150.3190 C   0  0  2  0  0  3  0  0  0  0  0  0
  161.8850  210.0190  152.8170 C   0  0  2  0  0  3  0  0  0  0  0  0
  161.2750  204.6500  149.7450 C   0  0  0  0  0  3  0  0  0  0  0  0
  159.6350  209.7510  156.6930 C   0  0  0  0  0  2  0  0  0  0  0  0
  161.3890  211.2920  156.3360 O   0  0  0  0  0  0  0  0  0  0  0  0
  162.2580  206.6240  148.8710 F   0  0  0  0  0  0  0  0  0  0  0  0
  161.2100  206.4310  153.6200 C   0  0  2  0  0  3  0  0  0  0  0  0
  160.7450  203.9310  150.8180 C   0  0  0  0  0  3  0  0  0  0  0  0
  161.6300  206.5760  151.1920 C   0  0  0  0  0  0  0  0  0  0  0  0
  160.9880  207.9230  153.5570 C   0  0  1  0  0  3  0  0  0  0  0  0
  159.5710  206.9170  156.6300 O   0  0  0  0  0  0  0  0  0  0  0  0
  160.8630  208.2730  155.0510 C   0  0  1  0  0  3  0  0  0  0  0  0
  160.3110  211.0100  157.1840 C   0  0  0  0  0  2  0  0  0  0  0  0
  163.2960  210.8430  154.5340 O   0  0  0  0  0  0  0  0  0  0  0  0
  160.6720  204.5180  152.0820 C   0  0  0  0  0  3  0  0  0  0  0  0
  161.0940  205.8400  152.2660 C   0  0  0  0  0  0  0  0  0  0  0  0
  162.1550  210.6090  154.1660 C   0  0  0  0  0  0  0  0  0  0  0  0
  161.1330  211.3630  149.7570 C   0  0  0  0  0  2  0  0  0  0  0  0
  162.8810  212.2490  148.2130 C   0  0  0  0  0  1  0  0  0  0  0  0
  161.4730  211.6940  148.3120 C   0  0  0  0  0  2  0  0  0  0  0  0
  1  5  1  6  0  0  0
  1  4  1  0  0  0  0
  2 19  1  0  0  0  0
  3 10  1  0  0  0  0
  4 12  1  0  0  0  0
  4 20  1  0  0  0  0
  7  9  1  0  0  0  0
  7 15  1  0  0  0  0
  8  6  1  0  0  0  0
  8 12  1  0  0  0  0
  9 14  1  0  0  0  0
 10 21  2  0  0  0  0
 11  5  1  0  0  0  0
 11  8  1  0  0  0  0
 12 27  1  0  0  0  0
 13  2  2  0  0  0  0
 13 18  1  0  0  0  0
 14 23  1  0  0  0  0
 15 23  1  0  0  0  0
 16  2  1  0  0  0  0
 17  3  1  0  0  0  0
 18 25  2  0  0  0  0
 19  1  1  0  0  0  0
 19 26  2  0  0  0  0
 20 17  1  0  0  0  0
 20 22  1  0  0  0  0
 22  9  1  0  0  0  0
 22 10  1  0  0  0  0
 25 26  1  0  0  0  0
 26 17  1  0  0  0  0
 27 24  2  0  0  0  0
 27  7  1  0  0  0  0
 28 11  1  0  0  0  0
 29 30  1  0  0  0  0
 30 28  1  0  0  0  0
M  END
>  <MODEL>
7

>  <REMARK>
 VINA RESULT:      -4.3      2.702      6.159
  Name = 
  2 active torsions:
  status: ('A' for Active; 'I' for Inactive)
    1  A    between atoms: C_11  and  C_28
    2  A    between atoms: C_28  and  C_30
                            x       y       z     vdW  Elec       q    Type
                         _______ _______ _______ _____ _____    ______ ____

>  <TORSDO>
F 2

$$$$
=
 OpenBabel11122412413D

 30 35  0  0  1  0  0  0  0  0999 V2000
  161.8360  207.1920  150.5220 C   0  0  2  0  0  3  0  0  0  0  0  0
  161.4250  205.3500  152.2380 C   0  0  0  0  0  0  0  0  0  0  0  0
  160.8740  210.0570  153.5090 N   0  0  0  0  0  2  0  0  0  0  0  0
  162.0440  208.6740  150.3360 N   0  0  1  0  0  0  0  0  0  0  0  0
  160.8490  206.5890  149.5110 C   0  0  0  0  0  2  0  0  0  0  0  0
  163.5070  207.8540  147.9270 O   0  0  0  0  0  1  0  0  0  0  0  0
  161.1570  211.5870  148.8010 C   0  0  1  0  0  3  0  0  0  0  0  0
  162.1270  208.0670  147.8820 C   0  0  1  0  0  3  0  0  0  0  0  0
  160.4480  211.6030  150.1620 C   0  0  2  0  0  3  0  0  0  0  0  0
  160.8120  211.2090  152.6820 C   0  0  0  0  0  0  0  0  0  0  0  0
  161.4000  206.7370  148.0900 C   0  0  2  0  0  3  0  0  0  0  0  0
  161.7070  209.0860  148.9520 C   0  0  2  0  0  3  0  0  0  0  0  0
  161.0800  204.9220  153.5250 C   0  0  0  0  0  3  0  0  0  0  0  0
  160.2480  213.0780  150.3980 C   0  0  0  0  0  2  0  0  0  0  0  0
  161.7440  212.8430  148.5850 O   0  0  0  0  0  0  0  0  0  0  0  0
  161.6840  204.4180  151.2860 F   0  0  0  0  0  0  0  0  0  0  0  0
  161.5530  209.0780  152.6870 C   0  0  2  0  0  3  0  0  0  0  0  0
  160.8320  205.8550  154.5340 C   0  0  0  0  0  3  0  0  0  0  0  0
  161.5020  206.7250  151.9430 C   0  0  0  0  0  0  0  0  0  0  0  0
  161.1750  209.4180  151.2660 C   0  0  1  0  0  3  0  0  0  0  0  0
  160.4560  212.3320  153.1260 O   0  0  0  0  0  0  0  0  0  0  0  0
  161.2940  210.9530  151.2820 C   0  0  1  0  0  3  0  0  0  0  0  0
  160.8740  213.7520  149.1990 C   0  0  0  0  0  2  0  0  0  0  0  0
  163.3220  210.7120  148.3450 O   0  0  0  0  0  0  0  0  0  0  0  0
  160.9340  207.2200  154.2620 C   0  0  0  0  0  3  0  0  0  0  0  0
  161.2490  207.6550  152.9690 C   0  0  0  0  0  0  0  0  0  0  0  0
  162.1610  210.4790  148.6480 C   0  0  0  0  0  0  0  0  0  0  0  0
  160.2740  206.6050  147.0740 C   0  0  0  0  0  2  0  0  0  0  0  0
  161.5120  204.8600  145.7900 C   0  0  0  0  0  1  0  0  0  0  0  0
  160.8050  206.1990  145.7080 C   0  0  0  0  0  2  0  0  0  0  0  0
  1  5  1  6  0  0  0
  1 19  1  0  0  0  0
  2 13  1  0  0  0  0
  4  1  1  0  0  0  0
  4 20  1  0  0  0  0
  7  9  1  0  0  0  0
  8  6  1  0  0  0  0
  8 11  1  0  0  0  0
  8 12  1  0  0  0  0
  9 14  1  0  0  0  0
  9 22  1  0  0  0  0
 10 21  2  0  0  0  0
 10  3  1  0  0  0  0
 11  5  1  0  0  0  0
 12  4  1  0  0  0  0
 13 18  2  0  0  0  0
 15  7  1  0  0  0  0
 15 23  1  0  0  0  0
 16  2  1  0  0  0  0
 17 26  1  0  0  0  0
 17  3  1  0  0  0  0
 19  2  2  0  0  0  0
 19 26  1  0  0  0  0
 20 22  1  0  0  0  0
 20 17  1  0  0  0  0
 22 10  1  0  0  0  0
 23 14  1  0  0  0  0
 24 27  2  0  0  0  0
 25 18  1  0  0  0  0
 26 25  2  0  0  0  0
 27  7  1  0  0  0  0
 27 12  1  0  0  0  0
 28 11  1  0  0  0  0
 30 29  1  0  0  0  0
 30 28  1  0  0  0  0
M  END
>  <MODEL>
8

>  <REMARK>
 VINA RESULT:      -4.3      3.026      7.426
  Name = 
  2 active torsions:
  status: ('A' for Active; 'I' for Inactive)
    1  A    between atoms: C_11  and  C_28
    2  A    between atoms: C_28  and  C_30
                            x       y       z     vdW  Elec       q    Type
                         _______ _______ _______ _____ _____    ______ ____

>  <TORSDO>
F 2

$$$$
=
 OpenBabel11122412413D

 30 35  0  0  1  0  0  0  0  0999 V2000
  161.1410  212.7300  141.4110 C   0  0  2  0  0  3  0  0  0  0  0  0
  161.8970  213.1620  143.8090 C   0  0  0  0  0  0  0  0  0  0  0  0
  157.3820  214.4530  142.3870 N   0  0  0  0  0  2  0  0  0  0  0  0
  160.0910  213.0500  140.3770 N   0  0  1  0  0  0  0  0  0  0  0  0
  161.4840  211.2350  141.4810 C   0  0  0  0  0  2  0  0  0  0  0  0
  162.2370  212.4600  138.4630 O   0  0  0  0  0  1  0  0  0  0  0  0
  157.7800  211.9670  138.1160 C   0  0  1  0  0  3  0  0  0  0  0  0
  161.4140  211.4390  138.9460 C   0  0  1  0  0  3  0  0  0  0  0  0
  156.9900  212.3030  139.3880 C   0  0  2  0  0  3  0  0  0  0  0  0
  156.6780  214.1010  141.2060 C   0  0  0  0  0  0  0  0  0  0  0  0
  162.0840  210.7720  140.1500 C   0  0  2  0  0  3  0  0  0  0  0  0
  160.0370  211.9980  139.3350 C   0  0  2  0  0  3  0  0  0  0  0  0
  161.6670  213.6390  145.1040 C   0  0  0  0  0  3  0  0  0  0  0  0
  155.6140  212.5850  138.8410 C   0  0  0  0  0  2  0  0  0  0  0  0
  157.1060  212.5080  137.0110 O   0  0  0  0  0  0  0  0  0  0  0  0
  163.0870  212.5740  143.5300 F   0  0  0  0  0  0  0  0  0  0  0  0
  158.7710  214.2530  142.0330 C   0  0  2  0  0  3  0  0  0  0  0  0
  160.4630  214.2720  145.4180 C   0  0  0  0  0  3  0  0  0  0  0  0
  160.9060  213.2930  142.8170 C   0  0  0  0  0  0  0  0  0  0  0  0
  158.7680  213.1320  141.0220 C   0  0  1  0  0  3  0  0  0  0  0  0
  155.4470  214.3310  141.0680 O   0  0  0  0  0  0  0  0  0  0  0  0
  157.5670  213.5240  140.1420 C   0  0  1  0  0  3  0  0  0  0  0  0
  155.7490  212.4200  137.3440 C   0  0  0  0  0  2  0  0  0  0  0  0
  159.6800  213.1310  137.2830 O   0  0  0  0  0  0  0  0  0  0  0  0
  159.4850  214.4360  144.4360 C   0  0  0  0  0  3  0  0  0  0  0  0
  159.6960  213.9330  143.1460 C   0  0  0  0  0  0  0  0  0  0  0  0
  159.2150  212.4100  138.1540 C   0  0  0  0  0  0  0  0  0  0  0  0
  161.9780  209.2600  140.0230 C   0  0  0  0  0  2  0  0  0  0  0  0
  161.6570  207.3350  138.4690 C   0  0  0  0  0  1  0  0  0  0  0  0
  161.8890  208.8300  138.5670 C   0  0  0  0  0  2  0  0  0  0  0  0
  1  5  1  1  0  0  0
  1 19  1  0  0  0  0
  2 13  1  0  0  0  0
  4 20  1  0  0  0  0
  4  1  1  0  0  0  0
  6  8  1  0  0  0  0
  7 27  1  0  0  0  0
  7  9  1  0  0  0  0
  8 12  1  0  0  0  0
  8 11  1  0  0  0  0
  9 22  1  0  0  0  0
 10  3  1  0  0  0  0
 11  5  1  0  0  0  0
 12  4  1  0  0  0  0
 13 18  2  0  0  0  0
 14  9  1  0  0  0  0
 15 23  1  0  0  0  0
 15  7  1  0  0  0  0
 16  2  1  0  0  0  0
 17  3  1  0  0  0  0
 17 26  1  0  0  0  0
 19 26  1  0  0  0  0
 19  2  2  0  0  0  0
 20 17  1  0  0  0  0
 21 10  2  0  0  0  0
 22 20  1  0  0  0  0
 22 10  1  0  0  0  0
 23 14  1  0  0  0  0
 24 27  2  0  0  0  0
 25 18  1  0  0  0  0
 26 25  2  0  0  0  0
 27 12  1  0  0  0  0
 28 11  1  0  0  0  0
 29 30  1  0  0  0  0
 30 28  1  0  0  0  0
M  END
>  <MODEL>
9

>  <REMARK>
 VINA RESULT:      -4.2      9.687     13.285
  Name = 
  2 active torsions:
  status: ('A' for Active; 'I' for Inactive)
    1  A    between atoms: C_11  and  C_28
    2  A    between atoms: C_28  and  C_30
                            x       y       z     vdW  Elec       q    Type
                         _______ _______ _______ _____ _____    ______ ____

>  <TORSDO>
F 2

$$$$
