=
 OpenBabel11122412403D

 30 35  0  0  1  0  0  0  0  0999 V2000
  161.4020  208.5830  151.7540 C   0  0  0  0  0  0  0  0  0  0  0  0
  161.0730  209.5630  154.0090 C   0  0  0  0  0  0  0  0  0  0  0  0
  160.9390  204.7600  153.2000 N   0  0  0  0  0  2  0  0  0  0  0  0
  161.4410  207.4470  150.9060 C   0  0  0  0  0  0  0  0  0  0  0  0
  161.5900  209.8540  151.1990 O   0  0  0  0  0  0  0  0  0  0  0  0
  161.9640  209.1360  147.7250 O   0  0  0  0  0  0  0  0  0  0  0  0
  162.0930  205.4610  148.5630 C   0  0  1  0  0  3  0  0  0  0  0  0
  161.8600  208.9490  148.9690 C   0  0  0  0  0  0  0  0  0  0  0  0
  161.8680  204.4400  149.6690 C   0  0  2  0  0  3  0  0  0  0  0  0
  161.1540  204.1140  152.0340 C   0  0  0  0  0  0  0  0  0  0  0  0
  162.1920  210.0620  149.9230 C   0  0  1  0  0  3  0  0  0  0  0  0
  161.5090  207.6530  149.4820 N   0  0  0  0  0  0  0  0  0  0  0  0
  160.8170  209.3840  155.3710 C   0  0  0  0  0  3  0  0  0  0  0  0
  160.9760  203.3760  149.0630 C   0  0  0  0  0  2  0  0  0  0  0  0
  161.9860  204.6760  147.2660 C   0  0  0  0  0  2  0  0  0  0  0  0
  161.2460  210.8280  153.5520 F   0  0  0  0  0  0  0  0  0  0  0  0
  161.0400  206.0520  152.8450 C   0  0  0  0  0  0  0  0  0  0  0  0
  160.6310  208.1040  155.8960 C   0  0  0  0  0  3  0  0  0  0  0  0
  161.1460  208.4470  153.1470 C   0  0  0  0  0  0  0  0  0  0  0  0
  161.2940  206.1750  151.5010 C   0  0  0  0  0  0  0  0  0  0  0  0
  161.1920  202.8570  151.9630 O   0  0  0  0  0  0  0  0  0  0  0  0
  161.3620  204.9290  150.9640 N   0  0  0  0  0  0  0  0  0  0  0  0
  161.3670  203.3270  147.6000 C   0  0  0  0  0  2  0  0  0  0  0  0
  159.6380  206.2560  148.6720 C   0  0  0  0  0  1  0  0  0  0  0  0
  160.7010  206.9900  155.0620 C   0  0  0  0  0  3  0  0  0  0  0  0
  160.9530  207.1520  153.6950 C   0  0  0  0  0  0  0  0  0  0  0  0
  161.1120  206.6260  148.5320 C   0  0  2  0  0  3  0  0  0  0  0  0
  161.8180  211.4420  149.3840 C   0  0  0  0  0  2  0  0  0  0  0  0
  162.4880  213.3760  147.9900 C   0  0  0  0  0  1  0  0  0  0  0  0
  162.8770  211.9830  148.4380 C   0  0  0  0  0  2  0  0  0  0  0  0
  1 19  1  0  0  0  0
  2 13  1  0  0  0  0
  4 20  1  0  0  0  0
  4  1  2  0  0  0  0
  5  1  1  0  0  0  0
  6  8  2  0  0  0  0
  7 15  1  6  0  0  0
  7  9  1  0  0  0  0
  8 12  1  0  0  0  0
  8 11  1  0  0  0  0
  9 14  1  6  0  0  0
  9 22  1  0  0  0  0
 10  3  1  0  0  0  0
 11 28  1  6  0  0  0
 11  5  1  0  0  0  0
 12  4  1  0  0  0  0
 13 18  2  0  0  0  0
 15 23  1  0  0  0  0
 16  2  1  0  0  0  0
 17  3  1  0  0  0  0
 17 26  1  0  0  0  0
 19 26  1  0  0  0  0
 19  2  2  0  0  0  0
 20 17  2  0  0  0  0
 21 10  2  0  0  0  0
 22 20  1  0  0  0  0
 22 10  1  0  0  0  0
 23 14  1  0  0  0  0
 25 18  1  0  0  0  0
 26 25  2  0  0  0  0
 27  7  1  0  0  0  0
 27 24  1  1  0  0  0
 27 12  1  0  0  0  0
 29 30  1  0  0  0  0
 30 28  1  0  0  0  0
M  END
>  <MODEL>
1

>  <REMARK>
 VINA RESULT:      -8.0      0.000      0.000
  Name = 
  2 active torsions:
  status: ('A' for Active; 'I' for Inactive)
    1  A    between atoms: C_11  and  C_28
    2  A    between atoms: C_28  and  C_30
                            x       y       z     vdW  Elec       q    Type
                         _______ _______ _______ _____ _____    ______ ____

>  <TORSDO>
F 2

$$$$
=
 OpenBabel11122412403D

 30 35  0  0  1  0  0  0  0  0999 V2000
  161.0170  204.8920  149.1020 C   0  0  0  0  0  0  0  0  0  0  0  0
  160.9820  202.4450  148.6930 C   0  0  0  0  0  0  0  0  0  0  0  0
  161.0510  204.3480  153.1800 N   0  0  0  0  0  2  0  0  0  0  0  0
  161.0810  205.9820  150.0080 C   0  0  0  0  0  0  0  0  0  0  0  0
  160.9860  205.1500  147.7270 O   0  0  0  0  0  0  0  0  0  0  0  0
  161.2060  208.7080  147.5990 O   0  0  0  0  0  0  0  0  0  0  0  0
  160.7720  208.8060  151.3440 C   0  0  1  0  0  3  0  0  0  0  0  0
  161.0790  207.5450  148.0730 C   0  0  0  0  0  0  0  0  0  0  0  0
  160.7520  207.9560  152.6060 C   0  0  2  0  0  3  0  0  0  0  0  0
  161.0200  205.6530  153.5220 C   0  0  0  0  0  0  0  0  0  0  0  0
  160.6300  206.4200  147.1830 C   0  0  1  0  0  3  0  0  0  0  0  0
  161.2770  207.3070  149.4770 N   0  0  0  0  0  0  0  0  0  0  0  0
  160.9830  201.1430  149.2000 C   0  0  0  0  0  3  0  0  0  0  0  0
  161.6910  208.6450  153.5750 C   0  0  0  0  0  2  0  0  0  0  0  0
  161.0740  210.2180  151.8180 C   0  0  0  0  0  2  0  0  0  0  0  0
  160.9480  202.6090  147.3470 F   0  0  0  0  0  0  0  0  0  0  0  0
  161.0710  204.3940  151.8370 C   0  0  0  0  0  0  0  0  0  0  0  0
  161.0180  200.9160  150.5760 C   0  0  0  0  0  3  0  0  0  0  0  0
  161.0160  203.5500  149.5740 C   0  0  0  0  0  0  0  0  0  0  0  0
  161.0650  205.6930  151.3890 C   0  0  0  0  0  0  0  0  0  0  0  0
  160.9410  206.0280  154.7220 O   0  0  0  0  0  0  0  0  0  0  0  0
  161.0400  206.5160  152.4700 N   0  0  0  0  0  0  0  0  0  0  0  0
  161.5650  210.1200  153.2550 C   0  0  0  0  0  2  0  0  0  0  0  0
  163.2000  208.1120  150.8040 C   0  0  0  0  0  1  0  0  0  0  0  0
  161.0500  201.9930  151.4610 C   0  0  0  0  0  3  0  0  0  0  0  0
  161.0520  203.3040  150.9710 C   0  0  0  0  0  0  0  0  0  0  0  0
  161.7920  208.3980  150.2900 C   0  0  2  0  0  3  0  0  0  0  0  0
  161.1530  206.5450  145.7540 C   0  0  0  0  0  2  0  0  0  0  0  0
  160.7780  204.4320  144.5160 C   0  0  0  0  0  1  0  0  0  0  0  0
  161.7980  205.2550  145.2750 C   0  0  0  0  0  2  0  0  0  0  0  0
  1 19  2  0  0  0  0
  1  4  1  0  0  0  0
  2 13  2  0  0  0  0
  2 19  1  0  0  0  0
  3 10  1  0  0  0  0
  4 20  2  0  0  0  0
  5  1  1  0  0  0  0
  6  8  2  0  0  0  0
  7 15  1  1  0  0  0
  7  9  1  0  0  0  0
  8 12  1  0  0  0  0
  9 14  1  1  0  0  0
 10 21  2  0  0  0  0
 11 28  1  6  0  0  0
 11  5  1  0  0  0  0
 11  8  1  0  0  0  0
 12  4  1  0  0  0  0
 12 27  1  0  0  0  0
 13 18  1  0  0  0  0
 15 23  1  0  0  0  0
 16  2  1  0  0  0  0
 17  3  1  0  0  0  0
 18 25  2  0  0  0  0
 19 26  1  0  0  0  0
 20 17  1  0  0  0  0
 20 22  1  0  0  0  0
 22  9  1  0  0  0  0
 22 10  1  0  0  0  0
 23 14  1  0  0  0  0
 26 25  1  0  0  0  0
 26 17  2  0  0  0  0
 27 24  1  1  0  0  0
 27  7  1  0  0  0  0
 29 30  1  0  0  0  0
 30 28  1  0  0  0  0
M  END
>  <MODEL>
2

>  <REMARK>
 VINA RESULT:      -7.7      2.815      5.843
  Name = 
  2 active torsions:
  status: ('A' for Active; 'I' for Inactive)
    1  A    between atoms: C_11  and  C_28
    2  A    between atoms: C_28  and  C_30
                            x       y       z     vdW  Elec       q    Type
                         _______ _______ _______ _____ _____    ______ ____

>  <TORSDO>
F 2

$$$$
=
 OpenBabel11122412403D

 30 35  0  0  1  0  0  0  0  0999 V2000
  161.3220  208.7740  151.6180 C   0  0  0  0  0  0  0  0  0  0  0  0
  161.7180  211.0480  150.7090 C   0  0  0  0  0  0  0  0  0  0  0  0
  161.5890  207.0850  147.8760 N   0  0  0  0  0  2  0  0  0  0  0  0
  161.2170  207.3740  151.4130 C   0  0  0  0  0  0  0  0  0  0  0  0
  161.1990  209.2850  152.9150 O   0  0  0  0  0  0  0  0  0  0  0  0
  160.7650  206.3330  154.8720 O   0  0  0  0  0  0  0  0  0  0  0  0
  160.4450  204.3430  151.6840 C   0  0  1  0  0  3  0  0  0  0  0  0
  160.8670  207.0780  153.8580 C   0  0  0  0  0  0  0  0  0  0  0  0
  160.6220  204.3970  150.1740 C   0  0  2  0  0  3  0  0  0  0  0  0
  161.3330  205.8130  148.2500 C   0  0  0  0  0  0  0  0  0  0  0  0
  160.6010  208.5520  153.9830 C   0  0  1  0  0  3  0  0  0  0  0  0
  161.1520  206.5130  152.5670 N   0  0  0  0  0  0  0  0  0  0  0  0
  161.9720  211.8760  149.6120 C   0  0  0  0  0  3  0  0  0  0  0  0
  161.4520  203.1810  149.8180 C   0  0  0  0  0  2  0  0  0  0  0  0
  160.5020  202.8670  152.0410 C   0  0  0  0  0  2  0  0  0  0  0  0
  161.6100  211.6230  151.9330 F   0  0  0  0  0  0  0  0  0  0  0  0
  161.5560  207.7480  149.0450 C   0  0  0  0  0  0  0  0  0  0  0  0
  162.0930  211.3380  148.3300 C   0  0  0  0  0  3  0  0  0  0  0  0
  161.5800  209.6530  150.5300 C   0  0  0  0  0  0  0  0  0  0  0  0
  161.3000  206.8930  150.0890 C   0  0  0  0  0  0  0  0  0  0  0  0
  161.2270  204.8780  147.4120 O   0  0  0  0  0  0  0  0  0  0  0  0
  161.1620  205.6380  149.5880 N   0  0  0  0  0  0  0  0  0  0  0  0
  161.0500  202.1270  150.8290 C   0  0  0  0  0  2  0  0  0  0  0  0
  162.9400  204.8770  152.0880 C   0  0  0  0  0  1  0  0  0  0  0  0
  161.9590  209.9650  148.1320 C   0  0  0  0  0  3  0  0  0  0  0  0
  161.7070  209.1210  149.2200 C   0  0  0  0  0  0  0  0  0  0  0  0
  161.4870  205.1000  152.4970 C   0  0  2  0  0  3  0  0  0  0  0  0
  161.0450  209.1260  155.3280 C   0  0  0  0  0  2  0  0  0  0  0  0
  162.8260  210.6410  156.1460 C   0  0  0  0  0  1  0  0  0  0  0  0
  161.6740  210.5010  155.1720 C   0  0  0  0  0  2  0  0  0  0  0  0
  1  5  1  0  0  0  0
  2 16  1  0  0  0  0
  3 10  1  0  0  0  0
  3 17  1  0  0  0  0
  4  1  1  0  0  0  0
  4 12  1  0  0  0  0
  5 11  1  0  0  0  0
  7 15  1  1  0  0  0
  7 27  1  0  0  0  0
  8 11  1  0  0  0  0
  8  6  2  0  0  0  0
  9 14  1  1  0  0  0
  9  7  1  0  0  0  0
 10 22  1  0  0  0  0
 11 28  1  1  0  0  0
 12  8  1  0  0  0  0
 13  2  2  0  0  0  0
 14 23  1  0  0  0  0
 17 26  2  0  0  0  0
 17 20  1  0  0  0  0
 18 13  1  0  0  0  0
 19  2  1  0  0  0  0
 19  1  2  0  0  0  0
 20  4  2  0  0  0  0
 21 10  2  0  0  0  0
 22 20  1  0  0  0  0
 22  9  1  0  0  0  0
 23 15  1  0  0  0  0
 25 18  2  0  0  0  0
 25 26  1  0  0  0  0
 26 19  1  0  0  0  0
 27 24  1  6  0  0  0
 27 12  1  0  0  0  0
 30 28  1  0  0  0  0
 30 29  1  0  0  0  0
M  END
>  <MODEL>
3

>  <REMARK>
 VINA RESULT:      -7.0      1.724      4.851
  Name = 
  2 active torsions:
  status: ('A' for Active; 'I' for Inactive)
    1  A    between atoms: C_11  and  C_28
    2  A    between atoms: C_28  and  C_30
                            x       y       z     vdW  Elec       q    Type
                         _______ _______ _______ _____ _____    ______ ____

>  <TORSDO>
F 2

$$$$
=
 OpenBabel11122412403D

 30 35  0  0  1  0  0  0  0  0999 V2000
  161.3980  207.7720  151.2220 C   0  0  0  0  0  0  0  0  0  0  0  0
  161.6210  205.5540  150.1360 C   0  0  0  0  0  0  0  0  0  0  0  0
  160.4590  206.0580  154.8420 N   0  0  0  0  0  2  0  0  0  0  0  0
  161.1660  208.5490  152.3870 C   0  0  0  0  0  0  0  0  0  0  0  0
  161.6910  208.4220  150.0170 O   0  0  0  0  0  0  0  0  0  0  0  0
  161.7070  211.8590  150.9720 O   0  0  0  0  0  0  0  0  0  0  0  0
  160.3570  210.8620  154.3490 C   0  0  1  0  0  3  0  0  0  0  0  0
  161.5410  210.6100  151.0460 C   0  0  0  0  0  0  0  0  0  0  0  0
  160.0800  209.6790  155.2670 C   0  0  2  0  0  3  0  0  0  0  0  0
  160.2610  207.2070  155.5230 C   0  0  0  0  0  0  0  0  0  0  0  0
  161.3990  209.8000  149.7870 C   0  0  1  0  0  3  0  0  0  0  0  0
  161.4020  209.9700  152.3240 N   0  0  0  0  0  0  0  0  0  0  0  0
  161.5810  204.1600  150.2320 C   0  0  0  0  0  3  0  0  0  0  0  0
  160.7050  210.0440  156.5980 C   0  0  0  0  0  2  0  0  0  0  0  0
  160.4410  212.0690  155.2680 C   0  0  0  0  0  2  0  0  0  0  0  0
  161.9100  206.1040  148.9310 F   0  0  0  0  0  0  0  0  0  0  0  0
  160.8070  206.4960  153.6200 C   0  0  0  0  0  0  0  0  0  0  0  0
  161.2900  203.5400  151.4480 C   0  0  0  0  0  3  0  0  0  0  0  0
  161.3660  206.3520  151.2740 C   0  0  0  0  0  0  0  0  0  0  0  0
  160.8280  207.8690  153.5760 C   0  0  0  0  0  0  0  0  0  0  0  0
  159.8640  207.2150  156.7190 O   0  0  0  0  0  0  0  0  0  0  0  0
  160.4850  208.3390  154.8030 N   0  0  0  0  0  0  0  0  0  0  0  0
  160.5680  211.5490  156.6930 C   0  0  0  0  0  2  0  0  0  0  0  0
  162.8830  210.3280  154.2700 C   0  0  0  0  0  1  0  0  0  0  0  0
  161.0330  204.3100  152.5810 C   0  0  0  0  0  3  0  0  0  0  0  0
  161.0720  205.7070  152.5040 C   0  0  0  0  0  0  0  0  0  0  0  0
  161.6300  210.7680  153.5190 C   0  0  2  0  0  3  0  0  0  0  0  0
  162.2500  210.3320  148.6360 C   0  0  0  0  0  2  0  0  0  0  0  0
  162.6110  212.5780  147.6570 C   0  0  0  0  0  1  0  0  0  0  0  0
  161.5810  211.5040  147.9360 C   0  0  0  0  0  2  0  0  0  0  0  0
  1 19  2  0  0  0  0
  1  4  1  0  0  0  0
  2 13  2  0  0  0  0
  2 19  1  0  0  0  0
  3 10  1  0  0  0  0
  4 20  2  0  0  0  0
  5  1  1  0  0  0  0
  6  8  2  0  0  0  0
  7  9  1  0  0  0  0
  7 15  1  1  0  0  0
  8 12  1  0  0  0  0
  9 14  1  1  0  0  0
 10 21  2  0  0  0  0
 11 28  1  6  0  0  0
 11  5  1  0  0  0  0
 11  8  1  0  0  0  0
 12  4  1  0  0  0  0
 12 27  1  0  0  0  0
 13 18  1  0  0  0  0
 14 23  1  0  0  0  0
 15 23  1  0  0  0  0
 16  2  1  0  0  0  0
 17  3  1  0  0  0  0
 18 25  2  0  0  0  0
 19 26  1  0  0  0  0
 20 17  1  0  0  0  0
 20 22  1  0  0  0  0
 22  9  1  0  0  0  0
 22 10  1  0  0  0  0
 26 25  1  0  0  0  0
 26 17  2  0  0  0  0
 27 24  1  1  0  0  0
 27  7  1  0  0  0  0
 29 30  1  0  0  0  0
 30 28  1  0  0  0  0
M  END
>  <MODEL>
4

>  <REMARK>
 VINA RESULT:      -6.0      2.375      5.644
  Name = 
  2 active torsions:
  status: ('A' for Active; 'I' for Inactive)
    1  A    between atoms: C_11  and  C_28
    2  A    between atoms: C_28  and  C_30
                            x       y       z     vdW  Elec       q    Type
                         _______ _______ _______ _____ _____    ______ ____

>  <TORSDO>
F 2

$$$$
=
 OpenBabel11122412403D

 30 35  0  0  1  0  0  0  0  0999 V2000
  161.2700  206.0870  150.2140 C   0  0  0  0  0  0  0  0  0  0  0  0
  161.4050  203.6120  150.1220 C   0  0  0  0  0  0  0  0  0  0  0  0
  160.5680  206.0350  154.2670 N   0  0  0  0  0  2  0  0  0  0  0  0
  161.1220  207.2790  150.9690 C   0  0  0  0  0  0  0  0  0  0  0  0
  161.4840  206.1770  148.8330 O   0  0  0  0  0  0  0  0  0  0  0  0
  161.5860  209.7020  148.2920 O   0  0  0  0  0  0  0  0  0  0  0  0
  160.4620  210.2180  151.8540 C   0  0  1  0  0  3  0  0  0  0  0  0
  161.4180  208.5980  148.8810 C   0  0  0  0  0  0  0  0  0  0  0  0
  160.2410  209.5240  153.1910 C   0  0  2  0  0  3  0  0  0  0  0  0
  160.4240  207.3680  154.4270 C   0  0  0  0  0  0  0  0  0  0  0  0
  161.1860  207.3490  148.0770 C   0  0  1  0  0  3  0  0  0  0  0  0
  161.3620  208.5410  150.3160 N   0  0  0  0  0  0  0  0  0  0  0  0
  161.3630  202.3820  150.7840 C   0  0  0  0  0  3  0  0  0  0  0  0
  160.9570  210.3800  154.2150 C   0  0  0  0  0  2  0  0  0  0  0  0
  160.6160  211.6920  152.1900 C   0  0  0  0  0  2  0  0  0  0  0  0
  161.6150  203.6120  148.7820 F   0  0  0  0  0  0  0  0  0  0  0  0
  160.8350  205.9230  152.9540 C   0  0  0  0  0  0  0  0  0  0  0  0
  161.1510  202.3230  152.1620 C   0  0  0  0  0  3  0  0  0  0  0  0
  161.2330  204.8140  150.8460 C   0  0  0  0  0  0  0  0  0  0  0  0
  160.8620  207.1570  152.3500 C   0  0  0  0  0  0  0  0  0  0  0  0
  160.1090  207.8780  155.5360 O   0  0  0  0  0  0  0  0  0  0  0  0
  160.6050  208.0990  153.2940 N   0  0  0  0  0  0  0  0  0  0  0  0
  160.8360  211.7960  153.6920 C   0  0  0  0  0  2  0  0  0  0  0  0
  162.9730  209.6150  151.8510 C   0  0  0  0  0  1  0  0  0  0  0  0
  160.9770  203.4970  152.8930 C   0  0  0  0  0  3  0  0  0  0  0  0
  161.0190  204.7380  152.2470 C   0  0  0  0  0  0  0  0  0  0  0  0
  161.6750  209.7510  151.0610 C   0  0  2  0  0  3  0  0  0  0  0  0
  161.9600  207.3350  146.7600 C   0  0  0  0  0  2  0  0  0  0  0  0
  161.1730  205.4420  145.3700 C   0  0  0  0  0  1  0  0  0  0  0  0
  162.2670  205.9190  146.3020 C   0  0  0  0  0  2  0  0  0  0  0  0
  1 19  2  0  0  0  0
  1  4  1  0  0  0  0
  2 13  2  0  0  0  0
  2 19  1  0  0  0  0
  3 10  1  0  0  0  0
  4 20  2  0  0  0  0
  5  1  1  0  0  0  0
  6  8  2  0  0  0  0
  7 15  1  1  0  0  0
  7  9  1  0  0  0  0
  8 12  1  0  0  0  0
  9 22  1  0  0  0  0
  9 14  1  1  0  0  0
 10 21  2  0  0  0  0
 11 28  1  6  0  0  0
 11  5  1  0  0  0  0
 11  8  1  0  0  0  0
 12  4  1  0  0  0  0
 12 27  1  0  0  0  0
 13 18  1  0  0  0  0
 15 23  1  0  0  0  0
 16  2  1  0  0  0  0
 17  3  1  0  0  0  0
 18 25  2  0  0  0  0
 19 26  1  0  0  0  0
 20 17  1  0  0  0  0
 20 22  1  0  0  0  0
 22 10  1  0  0  0  0
 23 14  1  0  0  0  0
 26 25  1  0  0  0  0
 26 17  2  0  0  0  0
 27 24  1  1  0  0  0
 27  7  1  0  0  0  0
 29 30  1  0  0  0  0
 30 28  1  0  0  0  0
M  END
>  <MODEL>
5

>  <REMARK>
 VINA RESULT:      -5.9      2.581      5.566
  Name = 
  2 active torsions:
  status: ('A' for Active; 'I' for Inactive)
    1  A    between atoms: C_11  and  C_28
    2  A    between atoms: C_28  and  C_30
                            x       y       z     vdW  Elec       q    Type
                         _______ _______ _______ _____ _____    ______ ____

>  <TORSDO>
F 2

$$$$
=
 OpenBabel11122412403D

 30 35  0  0  1  0  0  0  0  0999 V2000
  161.7310  206.6640  148.3490 C   0  0  0  0  0  0  0  0  0  0  0  0
  161.9150  205.5970  146.1180 C   0  0  0  0  0  0  0  0  0  0  0  0
  160.7860  203.0800  150.1350 N   0  0  0  0  0  2  0  0  0  0  0  0
  161.5180  206.5510  149.7470 C   0  0  0  0  0  0  0  0  0  0  0  0
  162.0270  207.9180  147.8040 O   0  0  0  0  0  0  0  0  0  0  0  0
  162.0990  210.0190  150.6860 O   0  0  0  0  0  0  0  0  0  0  0  0
  160.7530  207.1520  152.7330 C   0  0  1  0  0  3  0  0  0  0  0  0
  161.9160  208.9960  149.9710 C   0  0  0  0  0  0  0  0  0  0  0  0
  160.4640  205.6580  152.7220 C   0  0  2  0  0  3  0  0  0  0  0  0
  160.6090  203.5590  151.3850 C   0  0  0  0  0  0  0  0  0  0  0  0
  161.7550  209.1430  148.4830 C   0  0  1  0  0  3  0  0  0  0  0  0
  161.7740  207.7010  150.5770 N   0  0  0  0  0  0  0  0  0  0  0  0
  161.8550  204.4450  145.3280 C   0  0  0  0  0  3  0  0  0  0  0  0
  161.1020  205.1120  153.9830 C   0  0  0  0  0  2  0  0  0  0  0  0
  160.8610  207.5270  154.2010 C   0  0  0  0  0  2  0  0  0  0  0  0
  162.2060  206.7740  145.5110 F   0  0  0  0  0  0  0  0  0  0  0  0
  161.1340  204.1790  149.4440 C   0  0  0  0  0  0  0  0  0  0  0  0
  161.5600  203.2060  145.9000 C   0  0  0  0  0  3  0  0  0  0  0  0
  161.6790  205.5180  147.5080 C   0  0  0  0  0  0  0  0  0  0  0  0
  161.1760  205.2820  150.2620 C   0  0  0  0  0  0  0  0  0  0  0  0
  160.2190  202.8270  152.3330 O   0  0  0  0  0  0  0  0  0  0  0  0
  160.8460  204.8920  151.5210 N   0  0  0  0  0  0  0  0  0  0  0  0
  160.9880  206.2340  154.9930 C   0  0  0  0  0  2  0  0  0  0  0  0
  163.2700  206.7620  152.3050 C   0  0  0  0  0  1  0  0  0  0  0  0
  161.3220  203.1080  147.2700 C   0  0  0  0  0  3  0  0  0  0  0  0
  161.3810  204.2510  148.0760 C   0  0  0  0  0  0  0  0  0  0  0  0
  162.0200  207.5840  152.0060 C   0  0  2  0  0  3  0  0  0  0  0  0
  162.6070  210.2680  147.8990 C   0  0  0  0  0  2  0  0  0  0  0  0
  162.9100  212.7260  147.9380 C   0  0  0  0  0  1  0  0  0  0  0  0
  161.8900  211.6070  147.9580 C   0  0  0  0  0  2  0  0  0  0  0  0
  1  4  1  0  0  0  0
  2 19  1  0  0  0  0
  3 10  1  0  0  0  0
  4 20  2  0  0  0  0
  4 12  1  0  0  0  0
  5  1  1  0  0  0  0
  5 11  1  0  0  0  0
  7 15  1  1  0  0  0
  8 12  1  0  0  0  0
  8  6  2  0  0  0  0
  9  7  1  0  0  0  0
  9 14  1  1  0  0  0
 10 22  1  0  0  0  0
 10 21  2  0  0  0  0
 11 28  1  6  0  0  0
 11  8  1  0  0  0  0
 12 27  1  0  0  0  0
 13 18  1  0  0  0  0
 13  2  2  0  0  0  0
 14 23  1  0  0  0  0
 15 23  1  0  0  0  0
 16  2  1  0  0  0  0
 17  3  1  0  0  0  0
 17 20  1  0  0  0  0
 18 25  2  0  0  0  0
 19 26  1  0  0  0  0
 19  1  2  0  0  0  0
 20 22  1  0  0  0  0
 22  9  1  0  0  0  0
 25 26  1  0  0  0  0
 26 17  2  0  0  0  0
 27 24  1  6  0  0  0
 27  7  1  0  0  0  0
 28 30  1  0  0  0  0
 29 30  1  0  0  0  0
M  END
>  <MODEL>
6

>  <REMARK>
 VINA RESULT:      -5.6      2.049      5.412
  Name = 
  2 active torsions:
  status: ('A' for Active; 'I' for Inactive)
    1  A    between atoms: C_11  and  C_28
    2  A    between atoms: C_28  and  C_30
                            x       y       z     vdW  Elec       q    Type
                         _______ _______ _______ _____ _____    ______ ____

>  <TORSDO>
F 2

$$$$
=
 OpenBabel11122412403D

 30 35  0  0  1  0  0  0  0  0999 V2000
  161.4490  205.7250  150.1170 C   0  0  0  0  0  0  0  0  0  0  0  0
  161.1170  204.8030  152.3950 C   0  0  0  0  0  0  0  0  0  0  0  0
  160.8100  202.0480  148.3880 N   0  0  0  0  0  2  0  0  0  0  0  0
  161.4590  205.5410  148.7100 C   0  0  0  0  0  0  0  0  0  0  0  0
  161.6970  207.0000  150.6390 O   0  0  0  0  0  0  0  0  0  0  0  0
  162.1070  208.9770  147.6980 O   0  0  0  0  0  0  0  0  0  0  0  0
  162.0760  205.8150  145.6440 C   0  0  1  0  0  3  0  0  0  0  0  0
  161.9720  207.9590  148.4320 C   0  0  0  0  0  0  0  0  0  0  0  0
  161.7910  204.3210  145.6840 C   0  0  2  0  0  3  0  0  0  0  0  0
  161.0200  202.4270  147.1090 C   0  0  0  0  0  0  0  0  0  0  0  0
  162.3310  208.0360  149.8900 C   0  0  1  0  0  3  0  0  0  0  0  0
  161.5610  206.7040  147.8650 N   0  0  0  0  0  0  0  0  0  0  0  0
  160.8290  203.7120  153.2190 C   0  0  0  0  0  3  0  0  0  0  0  0
  160.8690  204.0510  144.5130 C   0  0  0  0  0  2  0  0  0  0  0  0
  161.9620  206.2040  144.1790 C   0  0  0  0  0  2  0  0  0  0  0  0
  161.3480  206.0040  152.9810 F   0  0  0  0  0  0  0  0  0  0  0  0
  160.9670  203.1970  149.0660 C   0  0  0  0  0  0  0  0  0  0  0  0
  160.5830  202.4530  152.6700 C   0  0  0  0  0  3  0  0  0  0  0  0
  161.1620  204.6420  150.9920 C   0  0  0  0  0  0  0  0  0  0  0  0
  161.2510  204.2360  148.2140 C   0  0  0  0  0  0  0  0  0  0  0  0
  161.0110  201.6010  146.1570 O   0  0  0  0  0  0  0  0  0  0  0  0
  161.2800  203.7520  146.9460 N   0  0  0  0  0  0  0  0  0  0  0  0
  161.2840  205.0510  143.4530 C   0  0  0  0  0  2  0  0  0  0  0  0
  159.6520  206.3890  146.3270 C   0  0  0  0  0  1  0  0  0  0  0  0
  160.6240  202.2730  151.2880 C   0  0  0  0  0  3  0  0  0  0  0  0
  160.9080  203.3560  150.4480 C   0  0  0  0  0  0  0  0  0  0  0  0
  161.1420  206.6870  146.4720 C   0  0  2  0  0  3  0  0  0  0  0  0
  162.0210  209.3970  150.5090 C   0  0  0  0  0  2  0  0  0  0  0  0
  160.4560  209.8050  152.3860 C   0  0  0  0  0  1  0  0  0  0  0  0
  161.8360  209.3020  152.0150 C   0  0  0  0  0  2  0  0  0  0  0  0
  1  5  1  0  0  0  0
  1 19  1  0  0  0  0
  2 16  1  0  0  0  0
  2 13  1  0  0  0  0
  3 17  1  0  0  0  0
  4  1  2  0  0  0  0
  6  8  2  0  0  0  0
  7 15  1  6  0  0  0
  7  9  1  0  0  0  0
  7 27  1  0  0  0  0
  8 11  1  0  0  0  0
  9 14  1  6  0  0  0
  9 22  1  0  0  0  0
 10  3  1  0  0  0  0
 11 28  1  1  0  0  0
 11  5  1  0  0  0  0
 12  8  1  0  0  0  0
 12  4  1  0  0  0  0
 17 26  1  0  0  0  0
 18 13  2  0  0  0  0
 19  2  2  0  0  0  0
 20  4  1  0  0  0  0
 20 17  2  0  0  0  0
 21 10  2  0  0  0  0
 22 10  1  0  0  0  0
 22 20  1  0  0  0  0
 23 15  1  0  0  0  0
 23 14  1  0  0  0  0
 25 18  1  0  0  0  0
 26 19  1  0  0  0  0
 26 25  2  0  0  0  0
 27 24  1  1  0  0  0
 27 12  1  0  0  0  0
 28 30  1  0  0  0  0
 30 29  1  0  0  0  0
M  END
>  <MODEL>
7

>  <REMARK>
 VINA RESULT:      -5.6      2.627      4.255
  Name = 
  2 active torsions:
  status: ('A' for Active; 'I' for Inactive)
    1  A    between atoms: C_11  and  C_28
    2  A    between atoms: C_28  and  C_30
                            x       y       z     vdW  Elec       q    Type
                         _______ _______ _______ _____ _____    ______ ____

>  <TORSDO>
F 2

$$$$
=
 OpenBabel11122412403D

 30 35  0  0  1  0  0  0  0  0999 V2000
  160.8350  210.8280  151.6790 C   0  0  0  0  0  0  0  0  0  0  0  0
  159.8480  212.9170  152.5830 C   0  0  0  0  0  0  0  0  0  0  0  0
  159.9590  208.7620  155.1280 N   0  0  0  0  0  2  0  0  0  0  0  0
  161.1240  209.4470  151.8250 C   0  0  0  0  0  0  0  0  0  0  0  0
  161.1800  211.4740  150.4870 O   0  0  0  0  0  0  0  0  0  0  0  0
  162.5740  208.8270  148.5450 O   0  0  0  0  0  0  0  0  0  0  0  0
  162.4450  206.6080  151.5910 C   0  0  1  0  0  3  0  0  0  0  0  0
  162.1030  209.4450  149.5390 C   0  0  0  0  0  0  0  0  0  0  0  0
  161.9000  206.4880  153.0070 C   0  0  2  0  0  3  0  0  0  0  0  0
  160.5110  207.5860  154.7610 C   0  0  0  0  0  0  0  0  0  0  0  0
  162.1360  210.9480  149.5680 C   0  0  1  0  0  3  0  0  0  0  0  0
  161.6140  208.7220  150.6800 N   0  0  0  0  0  0  0  0  0  0  0  0
  159.1970  213.5860  153.6230 C   0  0  0  0  0  3  0  0  0  0  0  0
  161.2290  205.1310  153.0700 C   0  0  0  0  0  2  0  0  0  0  0  0
  162.7290  205.1820  151.1500 C   0  0  0  0  0  2  0  0  0  0  0  0
  160.1500  213.6170  151.4610 F   0  0  0  0  0  0  0  0  0  0  0  0
  160.1620  209.5330  154.0450 C   0  0  0  0  0  0  0  0  0  0  0  0
  158.8620  212.9140  154.7990 C   0  0  0  0  0  3  0  0  0  0  0  0
  160.1740  211.5480  152.7130 C   0  0  0  0  0  0  0  0  0  0  0  0
  160.8060  208.8320  153.0550 C   0  0  0  0  0  0  0  0  0  0  0  0
  160.5690  206.6010  155.5450 O   0  0  0  0  0  0  0  0  0  0  0  0
  161.0300  207.5700  153.5030 N   0  0  0  0  0  0  0  0  0  0  0  0
  162.0380  204.2530  152.1380 C   0  0  0  0  0  2  0  0  0  0  0  0
  160.0700  206.7950  150.5940 C   0  0  0  0  0  1  0  0  0  0  0  0
  159.1770  211.5650  154.9470 C   0  0  0  0  0  3  0  0  0  0  0  0
  159.8260  210.8780  153.9150 C   0  0  0  0  0  0  0  0  0  0  0  0
  161.5180  207.2740  150.5820 C   0  0  2  0  0  3  0  0  0  0  0  0
  161.9410  211.5760  148.1890 C   0  0  0  0  0  2  0  0  0  0  0  0
  162.2920  214.0280  148.1630 C   0  0  0  0  0  1  0  0  0  0  0  0
  161.2560  212.9300  148.2790 C   0  0  0  0  0  2  0  0  0  0  0  0
  1  4  2  0  0  0  0
  1 19  1  0  0  0  0
  2 19  2  0  0  0  0
  2 13  1  0  0  0  0
  4 20  1  0  0  0  0
  5  1  1  0  0  0  0
  6  8  2  0  0  0  0
  7 15  1  6  0  0  0
  7  9  1  0  0  0  0
  8 11  1  0  0  0  0
  8 12  1  0  0  0  0
  9 14  1  6  0  0  0
  9 22  1  0  0  0  0
 10  3  1  0  0  0  0
 10 21  2  0  0  0  0
 11 28  1  6  0  0  0
 11  5  1  0  0  0  0
 12  4  1  0  0  0  0
 13 18  2  0  0  0  0
 15 23  1  0  0  0  0
 16  2  1  0  0  0  0
 17  3  1  0  0  0  0
 18 25  1  0  0  0  0
 19 26  1  0  0  0  0
 20 22  1  0  0  0  0
 20 17  2  0  0  0  0
 22 10  1  0  0  0  0
 23 14  1  0  0  0  0
 26 17  1  0  0  0  0
 26 25  2  0  0  0  0
 27 24  1  1  0  0  0
 27 12  1  0  0  0  0
 27  7  1  0  0  0  0
 28 30  1  0  0  0  0
 29 30  1  0  0  0  0
M  END
>  <MODEL>
8

>  <REMARK>
 VINA RESULT:      -5.6      2.359      3.415
  Name = 
  2 active torsions:
  status: ('A' for Active; 'I' for Inactive)
    1  A    between atoms: C_11  and  C_28
    2  A    between atoms: C_28  and  C_30
                            x       y       z     vdW  Elec       q    Type
                         _______ _______ _______ _____ _____    ______ ____

>  <TORSDO>
F 2

$$$$
=
 OpenBabel11122412403D

 30 35  0  0  1  0  0  0  0  0999 V2000
  160.0760  212.0570  151.9900 C   0  0  0  0  0  0  0  0  0  0  0  0
  160.6370  213.3240  149.9330 C   0  0  0  0  0  0  0  0  0  0  0  0
  162.2490  208.7960  150.7400 N   0  0  0  0  0  2  0  0  0  0  0  0
  160.2150  210.8930  152.7880 C   0  0  0  0  0  0  0  0  0  0  0  0
  159.3030  213.1220  152.4680 O   0  0  0  0  0  0  0  0  0  0  0  0
  158.2740  211.9560  155.6780 O   0  0  0  0  0  0  0  0  0  0  0  0
  159.6990  208.5680  154.8350 C   0  0  1  0  0  3  0  0  0  0  0  0
  158.7740  211.9480  154.5190 C   0  0  0  0  0  0  0  0  0  0  0  0
  160.5660  207.8070  153.8430 C   0  0  2  0  0  3  0  0  0  0  0  0
  161.9690  207.9970  151.7910 C   0  0  0  0  0  0  0  0  0  0  0  0
  158.3410  212.9760  153.5110 C   0  0  1  0  0  3  0  0  0  0  0  0
  159.6900  210.9120  154.1310 N   0  0  0  0  0  0  0  0  0  0  0  0
  161.3030  213.3870  148.7050 C   0  0  0  0  0  3  0  0  0  0  0  0
  161.5770  207.0530  154.6820 C   0  0  0  0  0  2  0  0  0  0  0  0
  159.7200  207.7340  156.1050 C   0  0  0  0  0  2  0  0  0  0  0  0
  159.9070  214.3980  150.3210 F   0  0  0  0  0  0  0  0  0  0  0  0
  161.6010  209.9320  151.0510 C   0  0  0  0  0  0  0  0  0  0  0  0
  162.0690  212.3110  148.2570 C   0  0  0  0  0  3  0  0  0  0  0  0
  160.7350  212.1650  150.7350 C   0  0  0  0  0  0  0  0  0  0  0  0
  160.9620  209.8170  152.2620 C   0  0  0  0  0  0  0  0  0  0  0  0
  162.3630  206.8010  151.8460 O   0  0  0  0  0  0  0  0  0  0  0  0
  161.1990  208.5740  152.7530 N   0  0  0  0  0  0  0  0  0  0  0  0
  160.8460  206.7200  155.9660 C   0  0  0  0  0  2  0  0  0  0  0  0
  161.6380  210.1590  155.4520 C   0  0  0  0  0  1  0  0  0  0  0  0
  162.1770  211.1580  149.0320 C   0  0  0  0  0  3  0  0  0  0  0  0
  161.5190  211.0780  150.2650 C   0  0  0  0  0  0  0  0  0  0  0  0
  160.1520  209.9870  155.1540 C   0  0  2  0  0  3  0  0  0  0  0  0
  158.0360  214.3350  154.1380 C   0  0  0  0  0  2  0  0  0  0  0  0
  155.6950  214.0390  153.3860 C   0  0  0  0  0  1  0  0  0  0  0  0
  156.5770  214.4530  154.5460 C   0  0  0  0  0  2  0  0  0  0  0  0
  1  5  1  0  0  0  0
  1  4  1  0  0  0  0
  2 16  1  0  0  0  0
  2 19  1  0  0  0  0
  3 17  1  0  0  0  0
  3 10  1  0  0  0  0
  4 12  1  0  0  0  0
  5 11  1  0  0  0  0
  7 27  1  0  0  0  0
  7 15  1  1  0  0  0
  8  6  2  0  0  0  0
  9 14  1  1  0  0  0
  9  7  1  0  0  0  0
 10 21  2  0  0  0  0
 10 22  1  0  0  0  0
 11 28  1  1  0  0  0
 11  8  1  0  0  0  0
 12  8  1  0  0  0  0
 12 27  1  0  0  0  0
 13  2  2  0  0  0  0
 14 23  1  0  0  0  0
 17 20  1  0  0  0  0
 18 13  1  0  0  0  0
 18 25  2  0  0  0  0
 19  1  2  0  0  0  0
 20 22  1  0  0  0  0
 20  4  2  0  0  0  0
 22  9  1  0  0  0  0
 23 15  1  0  0  0  0
 25 26  1  0  0  0  0
 26 19  1  0  0  0  0
 26 17  2  0  0  0  0
 27 24  1  6  0  0  0
 28 30  1  0  0  0  0
 29 30  1  0  0  0  0
M  END
>  <MODEL>
9

>  <REMARK>
 VINA RESULT:      -5.4      3.338      6.553
  Name = 
  2 active torsions:
  status: ('A' for Active; 'I' for Inactive)
    1  A    between atoms: C_11  and  C_28
    2  A    between atoms: C_28  and  C_30
                            x       y       z     vdW  Elec       q    Type
                         _______ _______ _______ _____ _____    ______ ____

>  <TORSDO>
F 2

$$$$
