=
 OpenBabel11122414223D

 34 42  0  0  1  0  0  0  0  0999 V2000
  160.8610  205.5200  151.4540 C   0  0  0  0  0  0  0  0  0  0  0  0
  160.6020  206.7270  153.6750 C   0  0  0  0  0  2  0  0  0  0  0  0
  161.5380  205.4530  144.9660 C   0  0  2  0  0  3  0  0  0  0  0  0
  161.5090  204.4720  149.3620 C   0  0  0  0  0  0  0  0  0  0  0  0
  161.6990  205.9010  147.2470 C   0  0  1  0  0  0  0  0  0  0  0  0
  160.3170  205.9470  146.9320 O   0  0  0  0  0  0  0  0  0  0  0  0
  160.2050  205.9110  145.5280 C   0  0  0  0  0  2  0  0  0  0  0  0
  161.0670  203.3460  145.9170 C   0  0  0  0  0  2  0  0  0  0  0  0
  160.5550  208.0310  151.6360 C   0  0  2  0  0  3  0  0  0  0  0  0
  162.8590  210.2340  151.6330 C   0  0  0  0  0  2  0  0  0  0  0  0
  162.0520  207.0580  148.1780 C   0  0  0  0  0  2  0  0  0  0  0  0
  161.9830  203.2760  147.1360 C   0  0  0  0  0  2  0  0  0  0  0  0
  161.4950  208.1360  150.4220 C   0  0  1  0  0  3  0  0  0  0  0  0
  160.4390  208.1850  154.0580 C   0  0  0  0  0  2  0  0  0  0  0  0
  162.0560  204.5790  147.9600 C   0  0  2  0  0  3  0  0  0  0  0  0
  161.6810  204.0390  144.8460 O   0  0  0  0  0  0  0  0  0  0  0  0
  162.1100  209.7880  152.8840 C   0  0  1  0  0  0  0  0  0  0  0  0
  161.2130  205.6390  150.0990 C   0  0  0  0  0  0  0  0  0  0  0  0
  162.5000  206.0030  145.9690 C   0  0  0  0  0  2  0  0  0  0  0  0
  161.1740  207.0040  149.4350 C   0  0  2  0  0  3  0  0  0  0  0  0
  161.1160  203.1270  151.2860 C   0  0  0  0  0  3  0  0  0  0  0  0
  161.8760  210.6720  150.5580 C   0  0  0  0  0  2  0  0  0  0  0  0
  161.4660  203.2590  149.9810 N   0  0  0  0  0  0  0  0  0  0  0  0
  161.3540  209.4960  149.7300 C   0  0  0  0  0  2  0  0  0  0  0  0
  160.7460  209.0180  152.8070 C   0  0  1  0  0  3  0  0  0  0  0  0
  160.8130  204.2550  152.0480 C   0  0  0  0  0  3  0  0  0  0  0  0
  160.6120  206.7040  152.2260 N   0  0  0  0  0  0  0  0  0  0  0  0
  162.9630  209.3720  153.9230 O   0  0  0  0  0  0  0  0  0  0  0  0
  162.4330  210.6780  154.0360 C   0  0  2  0  0  3  0  0  0  0  0  0
  161.0950  211.6070  157.2610 C   0  0  0  0  0  2  0  0  0  0  0  0
  160.4980  211.9430  154.9530 C   0  0  0  0  0  2  0  0  0  0  0  0
  161.3870  210.7340  155.1400 C   0  0  2  0  0  3  0  0  0  0  0  0
  160.2510  212.4690  156.3450 C   0  0  0  0  0  2  0  0  0  0  0  0
  162.0340  210.8630  156.4350 N   0  0  0  0  0  2  0  0  0  0  0  0
  1 26  1  0  0  0  0
  1 27  1  0  0  0  0
  2 14  1  0  0  0  0
  3  7  1  1  0  0  0
  3 19  1  0  0  0  0
  4 23  2  0  0  0  0
  4 18  1  0  0  0  0
  5 19  1  6  0  0  0
  5 15  1  0  0  0  0
  5 11  1  0  0  0  0
  6  5  1  0  0  0  0
  7  6  1  0  0  0  0
  8 12  1  0  0  0  0
  9 27  1  1  0  0  0
  9 25  1  0  0  0  0
 13 24  1  6  0  0  0
 13  9  1  0  0  0  0
 15 12  1  6  0  0  0
 15  4  1  0  0  0  0
 16  3  1  0  0  0  0
 16  8  1  0  0  0  0
 17 10  1  6  0  0  0
 17 28  1  0  0  0  0
 17 29  1  0  0  0  0
 18  1  2  0  0  0  0
 20 11  1  6  0  0  0
 20 18  1  0  0  0  0
 20 13  1  0  0  0  0
 21 26  2  0  0  0  0
 22 10  1  0  0  0  0
 23 21  1  0  0  0  0
 24 22  1  0  0  0  0
 25 17  1  0  0  0  0
 25 14  1  1  0  0  0
 27  2  1  0  0  0  0
 29 28  1  1  0  0  0
 29 32  1  0  0  0  0
 31 33  1  0  0  0  0
 32 31  1  6  0  0  0
 32 34  1  0  0  0  0
 33 30  1  0  0  0  0
 34 30  1  0  0  0  0
M  END
>  <MODEL>
1

>  <REMARK>
 VINA RESULT:      -7.0      0.000      0.000
  Name = 
  1 active torsions:
  status: ('A' for Active; 'I' for Inactive)
    1  A    between atoms: C_29  and  C_32
                            x       y       z     vdW  Elec       q    Type
                         _______ _______ _______ _____ _____    ______ ____

>  <TORSDO>
F 1

$$$$
=
 OpenBabel11122414223D

 34 42  0  0  1  0  0  0  0  0999 V2000
  161.4510  208.0450  150.8280 C   0  0  0  0  0  0  0  0  0  0  0  0
  161.4260  210.3430  151.9120 C   0  0  0  0  0  2  0  0  0  0  0  0
  161.3070  201.5290  151.1050 C   0  0  2  0  0  3  0  0  0  0  0  0
  161.0650  205.8510  149.8620 C   0  0  0  0  0  0  0  0  0  0  0  0
  160.9250  203.8090  151.3980 C   0  0  1  0  0  0  0  0  0  0  0  0
  162.3190  203.6170  151.5750 O   0  0  0  0  0  0  0  0  0  0  0  0
  162.5470  202.2270  151.6340 C   0  0  0  0  0  2  0  0  0  0  0  0
  161.8780  202.4000  148.9890 C   0  0  0  0  0  2  0  0  0  0  0  0
  161.5260  208.3900  153.3390 C   0  0  2  0  0  3  0  0  0  0  0  0
  159.0500  208.3100  155.3460 C   0  0  0  0  0  2  0  0  0  0  0  0
  160.4010  204.7680  152.4630 C   0  0  0  0  0  2  0  0  0  0  0  0
  160.8760  203.5310  148.7700 C   0  0  0  0  0  2  0  0  0  0  0  0
  160.6810  207.1070  153.4420 C   0  0  1  0  0  3  0  0  0  0  0  0
  161.4320  210.8180  153.3520 C   0  0  0  0  0  2  0  0  0  0  0  0
  160.6260  204.4150  150.0100 C   0  0  2  0  0  3  0  0  0  0  0  0
  161.2960  201.3200  149.6950 O   0  0  0  0  0  0  0  0  0  0  0  0
  159.7310  209.5940  154.8840 C   0  0  1  0  0  0  0  0  0  0  0  0
  161.2000  206.6740  151.0010 C   0  0  0  0  0  0  0  0  0  0  0  0
  160.2240  202.4750  151.5140 C   0  0  0  0  0  2  0  0  0  0  0  0
  161.1770  206.0910  152.4030 C   0  0  2  0  0  3  0  0  0  0  0  0
  161.4150  207.7260  148.4360 C   0  0  0  0  0  3  0  0  0  0  0  0
  160.0760  207.3480  155.9270 C   0  0  0  0  0  2  0  0  0  0  0  0
  161.1610  206.4040  148.6200 N   0  0  0  0  0  0  0  0  0  0  0  0
  160.7610  206.5050  154.8500 C   0  0  0  0  0  2  0  0  0  0  0  0
  161.1570  209.5920  154.2340 C   0  0  1  0  0  3  0  0  0  0  0  0
  161.5580  208.5710  149.5360 C   0  0  0  0  0  3  0  0  0  0  0  0
  161.5350  208.9000  151.9780 N   0  0  0  0  0  0  0  0  0  0  0  0
  158.8360  210.5320  154.3380 O   0  0  0  0  0  0  0  0  0  0  0  0
  159.2410  210.7620  155.6740 C   0  0  2  0  0  3  0  0  0  0  0  0
  160.1220  214.2590  155.8870 C   0  0  0  0  0  2  0  0  0  0  0  0
  160.5130  212.2710  157.1870 C   0  0  0  0  0  2  0  0  0  0  0  0
  160.1870  211.9520  155.7450 C   0  0  2  0  0  3  0  0  0  0  0  0
  160.5390  213.7770  157.2610 C   0  0  0  0  0  2  0  0  0  0  0  0
  159.5540  213.1280  155.1700 N   0  0  0  0  0  2  0  0  0  0  0  0
  1 18  1  0  0  0  0
  1 27  1  0  0  0  0
  2 27  1  0  0  0  0
  2 14  1  0  0  0  0
  3 19  1  6  0  0  0
  3  7  1  0  0  0  0
  4 15  1  0  0  0  0
  4 18  2  0  0  0  0
  5 19  1  1  0  0  0
  5  6  1  0  0  0  0
  5 11  1  0  0  0  0
  6  7  1  0  0  0  0
  8 16  1  0  0  0  0
  9 27  1  6  0  0  0
  9 13  1  0  0  0  0
  9 25  1  0  0  0  0
 10 22  1  0  0  0  0
 12  8  1  0  0  0  0
 13 24  1  1  0  0  0
 15 12  1  6  0  0  0
 15  5  1  0  0  0  0
 16  3  1  0  0  0  0
 17 10  1  1  0  0  0
 17 29  1  0  0  0  0
 18 20  1  0  0  0  0
 20 11  1  6  0  0  0
 20 13  1  0  0  0  0
 21 23  2  0  0  0  0
 21 26  1  0  0  0  0
 23  4  1  0  0  0  0
 24 22  1  0  0  0  0
 25 14  1  6  0  0  0
 25 17  1  0  0  0  0
 26  1  2  0  0  0  0
 28 17  1  0  0  0  0
 29 28  1  6  0  0  0
 29 32  1  0  0  0  0
 30 33  1  0  0  0  0
 31 33  1  0  0  0  0
 32 31  1  1  0  0  0
 34 32  1  0  0  0  0
 34 30  1  0  0  0  0
M  END
>  <MODEL>
2

>  <REMARK>
 VINA RESULT:      -5.9      2.392      4.240
  Name = 
  1 active torsions:
  status: ('A' for Active; 'I' for Inactive)
    1  A    between atoms: C_29  and  C_32
                            x       y       z     vdW  Elec       q    Type
                         _______ _______ _______ _____ _____    ______ ____

>  <TORSDO>
F 1

$$$$
=
 OpenBabel11122414223D

 34 42  0  0  1  0  0  0  0  0999 V2000
  161.3500  208.4650  150.6690 C   0  0  0  0  0  0  0  0  0  0  0  0
  161.0860  207.1710  148.4980 C   0  0  0  0  0  2  0  0  0  0  0  0
  160.9340  209.0000  157.1570 C   0  0  2  0  0  3  0  0  0  0  0  0
  161.9470  209.4760  152.7940 C   0  0  0  0  0  0  0  0  0  0  0  0
  161.3160  208.2880  154.9720 C   0  0  1  0  0  0  0  0  0  0  0  0
  159.9610  208.7030  155.0200 O   0  0  0  0  0  0  0  0  0  0  0  0
  159.6360  208.9180  156.3740 C   0  0  0  0  0  2  0  0  0  0  0  0
  161.3290  211.0380  156.0360 C   0  0  0  0  0  2  0  0  0  0  0  0
  160.2870  206.1670  150.5490 C   0  0  2  0  0  3  0  0  0  0  0  0
  161.7250  203.3740  151.0930 C   0  0  0  0  0  2  0  0  0  0  0  0
  161.4260  206.9880  154.1790 C   0  0  0  0  0  2  0  0  0  0  0  0
  162.4080  210.6940  155.0110 C   0  0  0  0  0  2  0  0  0  0  0  0
  160.9300  205.9050  151.9230 C   0  0  1  0  0  3  0  0  0  0  0  0
  160.5280  205.8030  148.1590 C   0  0  0  0  0  2  0  0  0  0  0  0
  162.1910  209.3530  154.2780 C   0  0  2  0  0  3  0  0  0  0  0  0
  161.5020  210.3050  157.2350 O   0  0  0  0  0  0  0  0  0  0  0  0
  161.3770  203.8960  149.7030 C   0  0  1  0  0  0  0  0  0  0  0  0
  161.4170  208.3860  152.0690 C   0  0  0  0  0  0  0  0  0  0  0  0
  161.8190  208.0780  156.3810 C   0  0  0  0  0  2  0  0  0  0  0  0
  160.8310  207.1770  152.7780 C   0  0  2  0  0  3  0  0  0  0  0  0
  162.3310  210.6680  150.7690 C   0  0  0  0  0  3  0  0  0  0  0  0
  160.4900  203.3750  151.9820 C   0  0  0  0  0  2  0  0  0  0  0  0
  162.4000  210.5720  152.1220 N   0  0  0  0  0  0  0  0  0  0  0  0
  160.2460  204.7350  152.6400 C   0  0  0  0  0  2  0  0  0  0  0  0
  160.3400  205.0510  149.4840 C   0  0  1  0  0  3  0  0  0  0  0  0
  161.8110  209.6150  150.0180 C   0  0  0  0  0  3  0  0  0  0  0  0
  160.8640  207.3420  149.9190 N   0  0  0  0  0  0  0  0  0  0  0  0
  162.4770  203.9170  148.8260 O   0  0  0  0  0  0  0  0  0  0  0  0
  161.5810  202.8340  148.6760 C   0  0  2  0  0  3  0  0  0  0  0  0
  161.0700  203.0570  145.1060 C   0  0  0  0  0  2  0  0  0  0  0  0
  160.3250  201.6310  146.8980 C   0  0  0  0  0  2  0  0  0  0  0  0
  160.7690  202.9870  147.3970 C   0  0  2  0  0  3  0  0  0  0  0  0
  160.4560  201.7030  145.3960 C   0  0  0  0  0  2  0  0  0  0  0  0
  161.5860  203.5920  146.3570 N   0  0  0  0  0  2  0  0  0  0  0  0
  1 18  1  0  0  0  0
  2 27  1  0  0  0  0
  3  7  1  6  0  0  0
  3 16  1  0  0  0  0
  4 15  1  0  0  0  0
  5 11  1  6  0  0  0
  5  6  1  0  0  0  0
  5 19  1  0  0  0  0
  6  7  1  0  0  0  0
  8 16  1  0  0  0  0
  9 27  1  6  0  0  0
  9 13  1  0  0  0  0
 10 22  1  0  0  0  0
 12  8  1  0  0  0  0
 13 24  1  1  0  0  0
 13 20  1  0  0  0  0
 14  2  1  0  0  0  0
 15  5  1  0  0  0  0
 15 12  1  1  0  0  0
 17 10  1  1  0  0  0
 18 20  1  0  0  0  0
 18  4  2  0  0  0  0
 19  3  1  0  0  0  0
 20 11  1  1  0  0  0
 21 23  2  0  0  0  0
 22 24  1  0  0  0  0
 23  4  1  0  0  0  0
 25 14  1  6  0  0  0
 25 17  1  0  0  0  0
 25  9  1  0  0  0  0
 26  1  2  0  0  0  0
 26 21  1  0  0  0  0
 27  1  1  0  0  0  0
 28 17  1  0  0  0  0
 29 28  1  6  0  0  0
 29 17  1  0  0  0  0
 30 33  1  0  0  0  0
 30 34  1  0  0  0  0
 32 31  1  6  0  0  0
 32 29  1  0  0  0  0
 33 31  1  0  0  0  0
 34 32  1  0  0  0  0
M  END
>  <MODEL>
3

>  <REMARK>
 VINA RESULT:      -5.7      1.954      8.875
  Name = 
  1 active torsions:
  status: ('A' for Active; 'I' for Inactive)
    1  A    between atoms: C_29  and  C_32
                            x       y       z     vdW  Elec       q    Type
                         _______ _______ _______ _____ _____    ______ ____

>  <TORSDO>
F 1

$$$$
=
 OpenBabel11122414223D

 34 42  0  0  1  0  0  0  0  0999 V2000
  161.8880  207.7010  150.4190 C   0  0  0  0  0  0  0  0  0  0  0  0
  162.1430  209.8710  151.7170 C   0  0  0  0  0  2  0  0  0  0  0  0
  160.8220  201.2750  150.0710 C   0  0  2  0  0  3  0  0  0  0  0  0
  161.2370  205.6820  149.2390 C   0  0  0  0  0  0  0  0  0  0  0  0
  160.7520  203.5500  150.5690 C   0  0  1  0  0  0  0  0  0  0  0  0
  162.0970  203.1450  150.7630 O   0  0  0  0  0  0  0  0  0  0  0  0
  162.1250  201.7370  150.6950 C   0  0  0  0  0  2  0  0  0  0  0  0
  161.5910  202.2430  148.0630 C   0  0  0  0  0  2  0  0  0  0  0  0
  161.9130  207.8020  152.9530 C   0  0  2  0  0  3  0  0  0  0  0  0
  159.3750  207.8960  154.8790 C   0  0  0  0  0  2  0  0  0  0  0  0
  160.3260  204.4740  151.7070 C   0  0  0  0  0  2  0  0  0  0  0  0
  160.7660  203.5210  147.9270 C   0  0  0  0  0  2  0  0  0  0  0  0
  160.8930  206.6500  152.9120 C   0  0  1  0  0  3  0  0  0  0  0  0
  162.1610  210.2070  153.1950 C   0  0  0  0  0  2  0  0  0  0  0  0
  160.5950  204.3160  149.2390 C   0  0  2  0  0  3  0  0  0  0  0  0
  160.8360  201.1980  148.6470 O   0  0  0  0  0  0  0  0  0  0  0  0
  160.2460  209.1060  154.5600 C   0  0  1  0  0  0  0  0  0  0  0  0
  161.4410  206.3700  150.4550 C   0  0  0  0  0  0  0  0  0  0  0  0
  159.8670  202.3250  150.5400 C   0  0  0  0  0  2  0  0  0  0  0  0
  161.2820  205.6710  151.7940 C   0  0  2  0  0  3  0  0  0  0  0  0
  161.9000  207.6080  148.0080 C   0  0  0  0  0  3  0  0  0  0  0  0
  160.2320  206.7490  155.3910 C   0  0  0  0  0  2  0  0  0  0  0  0
  161.4570  206.3250  148.0580 N   0  0  0  0  0  0  0  0  0  0  0  0
  160.8340  205.9170  154.2570 C   0  0  0  0  0  2  0  0  0  0  0  0
  161.6820  208.9590  153.9480 C   0  0  1  0  0  3  0  0  0  0  0  0
  162.1180  208.3210  149.1860 C   0  0  0  0  0  3  0  0  0  0  0  0
  162.0460  208.4270  151.6470 N   0  0  0  0  0  0  0  0  0  0  0  0
  159.5130  210.2080  154.0830 O   0  0  0  0  0  0  0  0  0  0  0  0
  159.8950  210.2550  155.4440 C   0  0  2  0  0  3  0  0  0  0  0  0
  161.7540  212.7640  157.2610 C   0  0  0  0  0  2  0  0  0  0  0  0
  162.2180  210.6290  156.2500 C   0  0  0  0  0  2  0  0  0  0  0  0
  160.9940  211.2870  155.6530 C   0  0  2  0  0  3  0  0  0  0  0  0
  162.7520  211.6250  157.2490 C   0  0  0  0  0  2  0  0  0  0  0  0
  160.5490  212.3090  156.5850 N   0  0  0  0  0  2  0  0  0  0  0  0
  1 18  1  0  0  0  0
  1 27  1  0  0  0  0
  2 14  1  0  0  0  0
  3 19  1  6  0  0  0
  3  7  1  0  0  0  0
  4 15  1  0  0  0  0
  4 18  2  0  0  0  0
  5 19  1  6  0  0  0
  5  6  1  0  0  0  0
  5 11  1  0  0  0  0
  7  6  1  0  0  0  0
  8 16  1  0  0  0  0
  9 27  1  6  0  0  0
  9 25  1  0  0  0  0
 10 22  1  0  0  0  0
 12  8  1  0  0  0  0
 13  9  1  0  0  0  0
 13 24  1  1  0  0  0
 15 12  1  6  0  0  0
 15  5  1  0  0  0  0
 16  3  1  0  0  0  0
 17 10  1  1  0  0  0
 17 29  1  0  0  0  0
 18 20  1  0  0  0  0
 20 11  1  6  0  0  0
 20 13  1  0  0  0  0
 21 23  2  0  0  0  0
 21 26  1  0  0  0  0
 23  4  1  0  0  0  0
 24 22  1  0  0  0  0
 25 14  1  6  0  0  0
 25 17  1  0  0  0  0
 26  1  2  0  0  0  0
 27  2  1  0  0  0  0
 28 17  1  0  0  0  0
 29 28  1  6  0  0  0
 29 32  1  0  0  0  0
 31 33  1  0  0  0  0
 32 31  1  1  0  0  0
 32 34  1  0  0  0  0
 33 30  1  0  0  0  0
 34 30  1  0  0  0  0
M  END
>  <MODEL>
4

>  <REMARK>
 VINA RESULT:      -4.7      2.128      3.900
  Name = 
  1 active torsions:
  status: ('A' for Active; 'I' for Inactive)
    1  A    between atoms: C_29  and  C_32
                            x       y       z     vdW  Elec       q    Type
                         _______ _______ _______ _____ _____    ______ ____

>  <TORSDO>
F 1

$$$$
=
 OpenBabel11122414223D

 34 42  0  0  1  0  0  0  0  0999 V2000
  158.5980  213.7800  142.1430 C   0  0  0  0  0  0  0  0  0  0  0  0
  157.3630  214.1820  144.3270 C   0  0  0  0  0  2  0  0  0  0  0  0
  164.0530  212.9180  138.6710 C   0  0  2  0  0  3  0  0  0  0  0  0
  159.8140  213.0040  140.1900 C   0  0  0  0  0  0  0  0  0  0  0  0
  162.3670  212.8510  140.2780 C   0  0  1  0  0  0  0  0  0  0  0  0
  162.6400  214.2240  140.0500 O   0  0  0  0  0  0  0  0  0  0  0  0
  163.8060  214.2940  139.2610 C   0  0  0  0  0  2  0  0  0  0  0  0
  162.1180  213.2720  137.3700 C   0  0  0  0  0  2  0  0  0  0  0  0
  159.7820  214.2600  144.3340 C   0  0  2  0  0  3  0  0  0  0  0  0
  160.9910  212.1110  146.3540 C   0  0  0  0  0  2  0  0  0  0  0  0
  162.2030  212.6040  141.7750 C   0  0  0  0  0  2  0  0  0  0  0  0
  161.0610  212.3870  138.0280 C   0  0  0  0  0  2  0  0  0  0  0  0
  160.8760  213.2950  143.8420 C   0  0  1  0  0  3  0  0  0  0  0  0
  157.8160  214.4530  145.7480 C   0  0  0  0  0  2  0  0  0  0  0  0
  161.0630  212.4260  139.5710 C   0  0  2  0  0  3  0  0  0  0  0  0
  163.4010  212.6770  137.4270 O   0  0  0  0  0  0  0  0  0  0  0  0
  159.6860  212.8620  146.5920 C   0  0  1  0  0  0  0  0  0  0  0  0
  159.8110  213.3980  141.5460 C   0  0  0  0  0  0  0  0  0  0  0  0
  163.5120  212.0240  139.7400 C   0  0  0  0  0  2  0  0  0  0  0  0
  161.1010  213.5120  142.3380 C   0  0  2  0  0  3  0  0  0  0  0  0
  157.4630  213.3580  140.0560 C   0  0  0  0  0  3  0  0  0  0  0  0
  162.1220  213.0910  146.0780 C   0  0  0  0  0  2  0  0  0  0  0  0
  158.6420  212.9810  139.4950 N   0  0  0  0  0  0  0  0  0  0  0  0
  162.1860  213.5080  144.6080 C   0  0  0  0  0  2  0  0  0  0  0  0
  159.3230  214.1680  145.8040 C   0  0  1  0  0  3  0  0  0  0  0  0
  157.4190  213.7580  141.3910 C   0  0  0  0  0  3  0  0  0  0  0  0
  158.5750  214.1300  143.5350 N   0  0  0  0  0  0  0  0  0  0  0  0
  158.5960  212.0120  146.8580 O   0  0  0  0  0  0  0  0  0  0  0  0
  159.1920  212.6330  147.9810 C   0  0  2  0  0  3  0  0  0  0  0  0
  156.4500  213.9300  149.9420 C   0  0  0  0  0  2  0  0  0  0  0  0
  158.8350  214.2430  149.8430 C   0  0  0  0  0  2  0  0  0  0  0  0
  158.2760  213.7110  148.5420 C   0  0  2  0  0  3  0  0  0  0  0  0
  157.6330  214.4510  150.7300 C   0  0  0  0  0  2  0  0  0  0  0  0
  156.9640  213.1540  148.8250 N   0  0  0  0  0  2  0  0  0  0  0  0
  1 27  1  0  0  0  0
  2 14  1  0  0  0  0
  3  7  1  1  0  0  0
  3 19  1  0  0  0  0
  4 18  2  0  0  0  0
  5 19  1  6  0  0  0
  5 11  1  0  0  0  0
  6  5  1  0  0  0  0
  7  6  1  0  0  0  0
  8 16  1  0  0  0  0
  8 12  1  0  0  0  0
  9 27  1  6  0  0  0
  9 25  1  0  0  0  0
 13  9  1  0  0  0  0
 13 24  1  1  0  0  0
 15 12  1  6  0  0  0
 15  4  1  0  0  0  0
 15  5  1  0  0  0  0
 16  3  1  0  0  0  0
 17 10  1  6  0  0  0
 17 28  1  0  0  0  0
 17 29  1  0  0  0  0
 18  1  1  0  0  0  0
 18 20  1  0  0  0  0
 20 11  1  6  0  0  0
 20 13  1  0  0  0  0
 21 26  1  0  0  0  0
 22 10  1  0  0  0  0
 23 21  2  0  0  0  0
 23  4  1  0  0  0  0
 24 22  1  0  0  0  0
 25 14  1  6  0  0  0
 25 17  1  0  0  0  0
 26  1  2  0  0  0  0
 27  2  1  0  0  0  0
 29 28  1  6  0  0  0
 29 32  1  0  0  0  0
 30 33  1  0  0  0  0
 31 33  1  0  0  0  0
 32 34  1  0  0  0  0
 32 31  1  1  0  0  0
 34 30  1  0  0  0  0
M  END
>  <MODEL>
5

>  <REMARK>
 VINA RESULT:      -4.1      8.427     10.366
  Name = 
  1 active torsions:
  status: ('A' for Active; 'I' for Inactive)
    1  A    between atoms: C_29  and  C_32
                            x       y       z     vdW  Elec       q    Type
                         _______ _______ _______ _____ _____    ______ ____

>  <TORSDO>
F 1

$$$$
