=
 OpenBabel11122413313D

 37 44  0  0  1  0  0  0  0  0999 V2000
  161.2190  209.6630  148.5210 C   0  0  0  0  0  2  0  0  0  0  0  0
  161.6580  205.6920  146.2640 C   0  0  0  0  0  0  0  0  0  0  0  0
  161.1720  205.4310  150.4230 C   0  0  0  0  0  0  0  0  0  0  0  0
  161.8590  210.9450  147.9770 C   0  0  2  0  0  3  0  0  0  0  0  0
  161.0760  208.7130  152.4310 O   0  0  0  0  0  0  0  0  0  0  0  0
  161.3510  204.2560  148.3130 C   0  0  0  0  0  0  0  0  0  0  0  0
  161.3390  206.7530  150.8360 C   0  0  0  0  0  0  0  0  0  0  0  0
  161.5570  211.7650  150.3310 C   0  0  0  0  0  0  0  0  0  0  0  0
  161.3960  205.4020  149.0750 C   0  0  0  0  0  0  0  0  0  0  0  0
  161.1380  207.3160  152.2360 C   0  0  0  0  0  0  0  0  0  0  0  0
  161.0750  203.0440  148.9550 C   0  0  0  0  0  3  0  0  0  0  0  0
  162.3690  211.8790  149.0780 C   0  0  0  0  0  2  0  0  0  0  0  0
  161.7210  206.5890  148.5850 N   0  0  0  0  0  0  0  0  0  0  0  0
  160.2570  206.0800  145.8280 C   0  0  0  0  0  1  0  0  0  0  0  0
  160.7710  204.1330  152.5450 C   0  0  0  0  0  3  0  0  0  0  0  0
  160.8550  203.0420  150.3500 C   0  0  0  0  0  3  0  0  0  0  0  0
  162.2080  206.7850  147.2160 C   0  0  0  0  0  2  0  0  0  0  0  0
  161.9300  210.7530  151.3720 C   0  0  1  0  0  3  0  0  0  0  0  0
  161.0730  209.5850  151.3340 C   0  0  1  0  0  3  0  0  0  0  0  0
  160.9060  204.2400  151.1020 C   0  0  0  0  0  0  0  0  0  0  0  0
  161.7220  207.4430  149.6320 C   0  0  0  0  0  0  0  0  0  0  0  0
  161.6130  204.3690  146.9110 N   0  0  0  0  0  2  0  0  0  0  0  0
  160.9800  206.5650  153.3590 C   0  0  0  0  0  0  0  0  0  0  0  0
  162.5410  205.6160  145.0380 C   0  0  0  0  0  1  0  0  0  0  0  0
  162.4350  209.4810  150.7830 N   0  0  1  0  0  0  0  0  0  0  0  0
  160.5920  212.4920  150.5000 O   0  0  0  0  0  0  0  0  0  0  0  0
  162.1580  208.8900  149.4650 C   0  0  2  0  0  3  0  0  0  0  0  0
  160.8150  205.0980  153.4540 C   0  0  0  0  0  3  0  0  0  0  0  0
  160.0670  206.7460  155.6860 C   0  0  0  0  0  3  0  0  0  0  0  0
  160.9170  207.2380  154.6820 C   0  0  0  0  0  0  0  0  0  0  0  0
  161.7340  208.3470  154.9620 C   0  0  0  0  0  3  0  0  0  0  0  0
  162.7020  210.3480  156.5470 Cl  0  0  0  0  0  0  0  0  0  0  0  0
  160.8290  208.4720  157.2040 C   0  0  0  0  0  3  0  0  0  0  0  0
  161.6860  208.9630  156.2150 C   0  0  0  0  0  0  0  0  0  0  0  0
  160.0210  207.3630  156.9400 C   0  0  0  0  0  3  0  0  0  0  0  0
  161.4370  213.0280  146.6710 C   0  0  0  0  0  1  0  0  0  0  0  0
  160.8670  211.6890  147.0980 C   0  0  0  0  0  2  0  0  0  0  0  0
  1 27  1  0  0  0  0
  2 22  1  0  0  0  0
  2 17  1  0  0  0  0
  3  7  1  0  0  0  0
  3 20  1  0  0  0  0
  4 37  1  1  0  0  0
  4  1  1  0  0  0  0
  4 12  1  0  0  0  0
  6 11  2  0  0  0  0
  6  9  1  0  0  0  0
  7 10  1  0  0  0  0
  8 26  2  0  0  0  0
  9  3  2  0  0  0  0
 10  5  1  0  0  0  0
 10 23  2  0  0  0  0
 11 16  1  0  0  0  0
 12  8  1  0  0  0  0
 13  9  1  0  0  0  0
 13 21  1  0  0  0  0
 14  2  1  0  0  0  0
 15 28  2  0  0  0  0
 16 20  2  0  0  0  0
 17 13  1  0  0  0  0
 18  8  1  6  0  0  0
 19 18  1  0  0  0  0
 19  5  1  1  0  0  0
 20 15  1  0  0  0  0
 21  7  2  0  0  0  0
 22  6  1  0  0  0  0
 23 28  1  0  0  0  0
 23 30  1  0  0  0  0
 24  2  1  0  0  0  0
 25 19  1  0  0  0  0
 25 18  1  0  0  0  0
 27 21  1  0  0  0  0
 27 25  1  0  0  0  0
 29 35  1  0  0  0  0
 30 31  1  0  0  0  0
 30 29  2  0  0  0  0
 31 34  2  0  0  0  0
 34 32  1  0  0  0  0
 34 33  1  0  0  0  0
 35 33  2  0  0  0  0
 36 37  1  0  0  0  0
M  END
>  <MODEL>
1

>  <REMARK>
 VINA RESULT:     -10.0      0.000      0.000
  Name = 
  2 active torsions:
  status: ('A' for Active; 'I' for Inactive)
    1  A    between atoms: C_4  and  C_37
    2  A    between atoms: C_23  and  C_30
                            x       y       z     vdW  Elec       q    Type
                         _______ _______ _______ _____ _____    ______ ____

>  <TORSDO>
F 2

$$$$
