=
 OpenBabel11122413043D

 32 38  0  0  1  0  0  0  0  0999 V2000
  161.5060  205.6380  144.3370 O   0  0  0  0  0  0  0  0  0  0  0  0
  161.3390  207.1090  149.2680 C   0  0  2  0  0  3  0  0  0  0  0  0
  160.9230  203.1060  152.1060 C   0  0  0  0  0  3  0  0  0  0  0  0
  160.7750  203.9100  153.2340 C   0  0  0  0  0  3  0  0  0  0  0  0
  161.5240  209.3220  150.4910 C   0  0  0  0  0  0  0  0  0  0  0  0
  161.7800  210.0920  151.7590 C   0  0  1  0  0  3  0  0  0  0  0  0
  162.2390  206.6780  146.9490 C   0  0  1  0  0  3  0  0  0  0  0  0
  161.6610  204.7860  148.3970 O   0  0  0  0  0  0  0  0  0  0  0  0
  161.6730  210.1000  154.0790 C   0  0  2  0  0  3  0  0  0  0  0  0
  162.4040  204.2900  146.1290 C   0  0  0  0  0  2  0  0  0  0  0  0
  161.1430  203.6920  150.8590 C   0  0  0  0  0  3  0  0  0  0  0  0
  161.4140  205.6170  149.5000 C   0  0  0  0  0  0  0  0  0  0  0  0
  161.2100  205.0870  150.7180 C   0  0  0  0  0  0  0  0  0  0  0  0
  161.2210  207.2490  151.7840 C   0  0  0  0  0  0  0  0  0  0  0  0
  160.8860  211.3030  153.5750 C   0  0  0  0  0  2  0  0  0  0  0  0
  160.4470  205.8570  145.2400 C   0  0  2  0  0  3  0  0  0  0  0  0
  162.4980  205.2210  147.3280 C   0  0  1  0  0  3  0  0  0  0  0  0
  160.6820  211.0680  152.1000 C   0  0  0  0  0  2  0  0  0  0  0  0
  160.8490  206.8620  146.3300 C   0  0  0  0  0  2  0  0  0  0  0  0
  161.2080  204.5750  145.2170 C   0  0  1  0  0  0  0  0  0  0  0  0
  160.8590  205.2970  153.1170 C   0  0  0  0  0  3  0  0  0  0  0  0
  161.0850  205.9080  151.8690 C   0  0  0  0  0  0  0  0  0  0  0  0
  161.0680  208.1280  152.9920 C   0  0  0  0  0  2  0  0  0  0  0  0
  162.3710  207.5330  148.2100 C   0  0  0  0  0  2  0  0  0  0  0  0
  161.3840  209.9550  149.4080 O   0  0  0  0  0  0  0  0  0  0  0  0
  162.9390  210.5680  154.7700 C   0  0  0  0  0  1  0  0  0  0  0  0
  161.4510  207.8840  150.5130 N   0  0  0  0  0  0  0  0  0  0  0  0
  162.0120  209.2480  152.9410 N   0  0  1  0  0  0  0  0  0  0  0  0
  160.5490  203.4140  144.4840 C   0  0  0  0  0  2  0  0  0  0  0  0
  160.4700  202.1830  145.3320 C   0  0  0  0  0  0  0  0  0  0  0  0
  159.8400  200.9490  144.7850 C   0  0  0  0  0  1  0  0  0  0  0  0
  160.8930  202.1920  146.4760 O   0  0  0  0  0  0  0  0  0  0  0  0
  1 20  1  0  0  0  0
  1 16  1  0  0  0  0
  2 24  1  6  0  0  0
  2 12  1  0  0  0  0
  2 27  1  0  0  0  0
  3  4  1  0  0  0  0
  5 27  1  0  0  0  0
  5  6  1  0  0  0  0
  6 18  1  1  0  0  0
  6 28  1  0  0  0  0
  7 19  1  1  0  0  0
  7 17  1  0  0  0  0
  7 24  1  0  0  0  0
  8 12  1  0  0  0  0
  9 26  1  6  0  0  0
 11  3  2  0  0  0  0
 12 13  2  0  0  0  0
 13 11  1  0  0  0  0
 13 22  1  0  0  0  0
 14 22  2  0  0  0  0
 14 23  1  0  0  0  0
 15  9  1  0  0  0  0
 16 19  1  1  0  0  0
 17 10  1  6  0  0  0
 17  8  1  0  0  0  0
 18 15  1  0  0  0  0
 20 29  1  6  0  0  0
 20 16  1  0  0  0  0
 20 10  1  0  0  0  0
 21  4  2  0  0  0  0
 22 21  1  0  0  0  0
 25  5  2  0  0  0  0
 27 14  1  0  0  0  0
 28 23  1  6  0  0  0
 28  9  1  0  0  0  0
 29 30  1  0  0  0  0
 30 32  2  0  0  0  0
 31 30  1  0  0  0  0
M  END
>  <MODEL>
1

>  <REMARK>
 VINA RESULT:      -8.9      0.000      0.000
  Name = 
  2 active torsions:
  status: ('A' for Active; 'I' for Inactive)
    1  A    between atoms: C_20  and  C_29
    2  A    between atoms: C_29  and  C_30
                            x       y       z     vdW  Elec       q    Type
                         _______ _______ _______ _____ _____    ______ ____

>  <TORSDO>
F 2

$$$$
=
 OpenBabel11122413043D

 32 38  0  0  1  0  0  0  0  0999 V2000
  160.2930  207.1740  156.8230 O   0  0  0  0  0  0  0  0  0  0  0  0
  161.1510  206.8410  151.7570 C   0  0  2  0  0  3  0  0  0  0  0  0
  161.9600  211.3630  149.9830 C   0  0  0  0  0  3  0  0  0  0  0  0
  161.9900  210.8580  148.6850 C   0  0  0  0  0  3  0  0  0  0  0  0
  161.3450  204.9420  150.0880 C   0  0  0  0  0  0  0  0  0  0  0  0
  161.8030  204.4260  148.7500 C   0  0  1  0  0  3  0  0  0  0  0  0
  161.5050  206.5980  154.2450 C   0  0  1  0  0  3  0  0  0  0  0  0
  161.5460  208.8270  153.2260 O   0  0  0  0  0  0  0  0  0  0  0  0
  162.2670  204.9320  146.5310 C   0  0  2  0  0  3  0  0  0  0  0  0
  161.7680  208.6850  155.6500 C   0  0  0  0  0  2  0  0  0  0  0  0
  161.7900  210.4950  151.0620 C   0  0  0  0  0  3  0  0  0  0  0  0
  161.4720  208.3090  151.9250 C   0  0  0  0  0  0  0  0  0  0  0  0
  161.6410  209.1140  150.8630 C   0  0  0  0  0  0  0  0  0  0  0  0
  161.6360  207.2630  149.3180 C   0  0  0  0  0  0  0  0  0  0  0  0
  161.2330  203.8130  146.5450 C   0  0  0  0  0  2  0  0  0  0  0  0
  159.4690  207.3480  155.6940 C   0  0  2  0  0  3  0  0  0  0  0  0
  162.0330  208.0290  154.3040 C   0  0  1  0  0  3  0  0  0  0  0  0
  160.7060  203.7620  147.9560 C   0  0  0  0  0  2  0  0  0  0  0  0
  159.9930  206.5430  154.4960 C   0  0  0  0  0  2  0  0  0  0  0  0
  160.3590  208.4350  156.1930 C   0  0  1  0  0  0  0  0  0  0  0  0
  161.8640  209.4860  148.4680 C   0  0  0  0  0  3  0  0  0  0  0  0
  161.6980  208.5930  149.5430 C   0  0  0  0  0  0  0  0  0  0  0  0
  161.6720  206.7040  147.9240 C   0  0  0  0  0  2  0  0  0  0  0  0
  161.8300  206.0210  152.8670 C   0  0  0  0  0  2  0  0  0  0  0  0
  160.8640  204.1300  150.9250 O   0  0  0  0  0  0  0  0  0  0  0  0
  163.5930  204.3990  146.0240 C   0  0  0  0  0  1  0  0  0  0  0  0
  161.4650  206.3410  150.4100 N   0  0  0  0  0  0  0  0  0  0  0  0
  162.4230  205.4460  147.8900 N   0  0  1  0  0  0  0  0  0  0  0  0
  159.6950  209.5140  157.0390 C   0  0  0  0  0  2  0  0  0  0  0  0
  159.7160  210.8520  156.3670 C   0  0  0  0  0  0  0  0  0  0  0  0
  158.9660  211.0520  155.0960 C   0  0  0  0  0  1  0  0  0  0  0  0
  160.3660  211.7700  156.8380 O   0  0  0  0  0  0  0  0  0  0  0  0
  2 12  1  0  0  0  0
  2 24  1  1  0  0  0
  3 11  2  0  0  0  0
  4  3  1  0  0  0  0
  5 27  1  0  0  0  0
  5 25  2  0  0  0  0
  6 18  1  6  0  0  0
  6  5  1  0  0  0  0
  7 24  1  6  0  0  0
  7 17  1  0  0  0  0
  7 19  1  0  0  0  0
  8 17  1  0  0  0  0
  9 26  1  1  0  0  0
  9 15  1  0  0  0  0
  9 28  1  0  0  0  0
 10 20  1  0  0  0  0
 12  8  1  0  0  0  0
 13 11  1  0  0  0  0
 13 12  2  0  0  0  0
 14 22  2  0  0  0  0
 14 27  1  0  0  0  0
 15 18  1  0  0  0  0
 16 19  1  6  0  0  0
 16 20  1  0  0  0  0
 16  1  1  0  0  0  0
 17 10  1  1  0  0  0
 20  1  1  0  0  0  0
 20 29  1  1  0  0  0
 21  4  2  0  0  0  0
 21 22  1  0  0  0  0
 22 13  1  0  0  0  0
 23 14  1  0  0  0  0
 27  2  1  0  0  0  0
 28 23  1  6  0  0  0
 28  6  1  0  0  0  0
 30 32  2  0  0  0  0
 30 29  1  0  0  0  0
 31 30  1  0  0  0  0
M  END
>  <MODEL>
2

>  <REMARK>
 VINA RESULT:      -7.4      2.844      8.645
  Name = 
  2 active torsions:
  status: ('A' for Active; 'I' for Inactive)
    1  A    between atoms: C_20  and  C_29
    2  A    between atoms: C_29  and  C_30
                            x       y       z     vdW  Elec       q    Type
                         _______ _______ _______ _____ _____    ______ ____

>  <TORSDO>
F 2

$$$$
=
 OpenBabel11122413043D

 32 38  0  0  1  0  0  0  0  0999 V2000
  161.7700  211.0780  153.4410 O   0  0  0  0  0  0  0  0  0  0  0  0
  161.6110  207.0920  150.1850 C   0  0  2  0  0  3  0  0  0  0  0  0
  160.8300  202.9680  152.7610 C   0  0  0  0  0  3  0  0  0  0  0  0
  160.9970  202.2050  151.6070 C   0  0  0  0  0  3  0  0  0  0  0  0
  161.7330  206.8220  147.6670 C   0  0  0  0  0  0  0  0  0  0  0  0
  161.4830  205.9980  146.4320 C   0  0  1  0  0  3  0  0  0  0  0  0
  160.9420  209.2220  151.3630 C   0  0  1  0  0  3  0  0  0  0  0  0
  160.9290  207.1010  152.5920 O   0  0  0  0  0  0  0  0  0  0  0  0
  161.2940  203.8680  145.5260 C   0  0  2  0  0  3  0  0  0  0  0  0
  160.3930  209.1310  153.8310 C   0  0  0  0  0  2  0  0  0  0  0  0
  160.8950  204.3600  152.6890 C   0  0  0  0  0  3  0  0  0  0  0  0
  161.2010  206.3520  151.4390 C   0  0  0  0  0  0  0  0  0  0  0  0
  161.1360  205.0100  151.4680 C   0  0  0  0  0  0  0  0  0  0  0  0
  161.4350  204.8300  149.0830 C   0  0  0  0  0  0  0  0  0  0  0  0
  162.3700  204.6110  144.7430 C   0  0  0  0  0  2  0  0  0  0  0  0
  162.7270  210.1280  153.0360 C   0  0  2  0  0  3  0  0  0  0  0  0
  160.3420  208.3970  152.5000 C   0  0  1  0  0  3  0  0  0  0  0  0
  162.7060  205.8280  145.5670 C   0  0  0  0  0  2  0  0  0  0  0  0
  162.4080  209.5800  151.6370 C   0  0  0  0  0  2  0  0  0  0  0  0
  161.7280  209.8300  154.1010 C   0  0  1  0  0  0  0  0  0  0  0  0
  161.2160  202.8340  150.3810 C   0  0  0  0  0  3  0  0  0  0  0  0
  161.2810  204.2370  150.2870 C   0  0  0  0  0  0  0  0  0  0  0  0
  161.6130  204.0200  147.8300 C   0  0  0  0  0  2  0  0  0  0  0  0
  160.8310  208.4120  150.0710 C   0  0  0  0  0  2  0  0  0  0  0  0
  162.1360  208.0100  147.5390 O   0  0  0  0  0  0  0  0  0  0  0  0
  160.0750  203.6580  144.6500 C   0  0  0  0  0  1  0  0  0  0  0  0
  161.5040  206.2630  148.9750 N   0  0  0  0  0  0  0  0  0  0  0  0
  160.9340  204.6600  146.7000 N   0  0  1  0  0  0  0  0  0  0  0  0
  162.2210  209.9460  155.5380 C   0  0  0  0  0  2  0  0  0  0  0  0
  161.4830  209.0280  156.4630 C   0  0  0  0  0  0  0  0  0  0  0  0
  160.3260  209.5420  157.2460 C   0  0  0  0  0  1  0  0  0  0  0  0
  161.8410  207.8700  156.5990 O   0  0  0  0  0  0  0  0  0  0  0  0
  1 20  1  0  0  0  0
  2 24  1  6  0  0  0
  2 12  1  0  0  0  0
  4  3  1  0  0  0  0
  5 27  1  0  0  0  0
  6 18  1  1  0  0  0
  6 28  1  0  0  0  0
  6  5  1  0  0  0  0
  7 24  1  6  0  0  0
  7 19  1  0  0  0  0
  7 17  1  0  0  0  0
  9 26  1  6  0  0  0
  9 28  1  0  0  0  0
 10 20  1  0  0  0  0
 11  3  2  0  0  0  0
 12 13  2  0  0  0  0
 12  8  1  0  0  0  0
 13 11  1  0  0  0  0
 14 22  2  0  0  0  0
 15  9  1  0  0  0  0
 15 18  1  0  0  0  0
 16 19  1  6  0  0  0
 16  1  1  0  0  0  0
 16 20  1  0  0  0  0
 17  8  1  0  0  0  0
 17 10  1  1  0  0  0
 20 29  1  1  0  0  0
 21  4  2  0  0  0  0
 22 21  1  0  0  0  0
 22 13  1  0  0  0  0
 23 14  1  0  0  0  0
 25  5  2  0  0  0  0
 27 14  1  0  0  0  0
 27  2  1  0  0  0  0
 28 23  1  1  0  0  0
 29 30  1  0  0  0  0
 30 32  2  0  0  0  0
 30 31  1  0  0  0  0
M  END
>  <MODEL>
3

>  <REMARK>
 VINA RESULT:      -7.4      2.342      7.760
  Name = 
  2 active torsions:
  status: ('A' for Active; 'I' for Inactive)
    1  A    between atoms: C_20  and  C_29
    2  A    between atoms: C_29  and  C_30
                            x       y       z     vdW  Elec       q    Type
                         _______ _______ _______ _____ _____    ______ ____

>  <TORSDO>
F 2

$$$$
=
 OpenBabel11122413043D

 32 38  0  0  1  0  0  0  0  0999 V2000
  160.7490  201.4030  150.8010 O   0  0  0  0  0  0  0  0  0  0  0  0
  161.2900  206.2980  152.3040 C   0  0  2  0  0  3  0  0  0  0  0  0
  161.9150  209.1230  148.3190 C   0  0  0  0  0  3  0  0  0  0  0  0
  162.1490  210.2310  149.1310 C   0  0  0  0  0  3  0  0  0  0  0  0
  161.2000  207.5170  154.5260 C   0  0  0  0  0  0  0  0  0  0  0  0
  161.0410  208.7960  155.3040 C   0  0  1  0  0  3  0  0  0  0  0  0
  160.2160  204.0570  151.8590 C   0  0  1  0  0  3  0  0  0  0  0  0
  160.9010  205.4700  149.9760 O   0  0  0  0  0  0  0  0  0  0  0  0
  161.3230  211.1010  155.3260 C   0  0  2  0  0  3  0  0  0  0  0  0
  159.9880  203.2670  149.4670 C   0  0  0  0  0  2  0  0  0  0  0  0
  161.6020  207.8920  148.8970 C   0  0  0  0  0  3  0  0  0  0  0  0
  161.2310  206.5450  150.8130 C   0  0  0  0  0  0  0  0  0  0  0  0
  161.5260  207.7470  150.2910 C   0  0  0  0  0  0  0  0  0  0  0  0
  161.5970  208.7970  152.4600 C   0  0  0  0  0  0  0  0  0  0  0  0
  162.0710  210.5310  156.5260 C   0  0  0  0  0  2  0  0  0  0  0  0
  161.8730  202.2230  151.0250 C   0  0  2  0  0  3  0  0  0  0  0  0
  159.9850  204.4640  150.4050 C   0  0  1  0  0  3  0  0  0  0  0  0
  162.1620  209.0460  156.2810 C   0  0  0  0  0  2  0  0  0  0  0  0
  161.5560  203.3330  152.0370 C   0  0  0  0  0  2  0  0  0  0  0  0
  161.1120  202.2660  149.7440 C   0  0  1  0  0  0  0  0  0  0  0  0
  162.0580  210.1120  150.5170 C   0  0  0  0  0  3  0  0  0  0  0  0
  161.7390  208.8800  151.1200 C   0  0  0  0  0  0  0  0  0  0  0  0
  161.8420  209.9840  153.3470 C   0  0  0  0  0  2  0  0  0  0  0  0
  160.1810  205.3190  152.7230 C   0  0  0  0  0  2  0  0  0  0  0  0
  161.2580  206.4230  155.1510 O   0  0  0  0  0  0  0  0  0  0  0  0
  160.1130  211.8830  155.8010 C   0  0  0  0  0  1  0  0  0  0  0  0
  161.2720  207.5430  153.0880 N   0  0  0  0  0  0  0  0  0  0  0  0
  160.8980  209.9970  154.4680 N   0  0  1  0  0  0  0  0  0  0  0  0
  161.7130  201.4920  148.5770 C   0  0  0  0  0  2  0  0  0  0  0  0
  161.3530  202.0960  147.2550 C   0  0  0  0  0  0  0  0  0  0  0  0
  161.7870  203.4840  146.9340 C   0  0  0  0  0  1  0  0  0  0  0  0
  160.6840  201.4680  146.4510 O   0  0  0  0  0  0  0  0  0  0  0  0
  1 16  1  0  0  0  0
  2 24  1  1  0  0  0
  2 27  1  0  0  0  0
  3 11  2  0  0  0  0
  3  4  1  0  0  0  0
  4 21  2  0  0  0  0
  5 25  2  0  0  0  0
  5  6  1  0  0  0  0
  6 18  1  1  0  0  0
  7 19  1  6  0  0  0
  7 24  1  0  0  0  0
  8 17  1  0  0  0  0
  8 12  1  0  0  0  0
  9 26  1  1  0  0  0
  9 15  1  0  0  0  0
 10 20  1  0  0  0  0
 11 13  1  0  0  0  0
 12  2  1  0  0  0  0
 13 12  2  0  0  0  0
 13 22  1  0  0  0  0
 14 27  1  0  0  0  0
 14 23  1  0  0  0  0
 16 19  1  1  0  0  0
 17 10  1  6  0  0  0
 17  7  1  0  0  0  0
 18 15  1  0  0  0  0
 20 29  1  6  0  0  0
 20  1  1  0  0  0  0
 20 16  1  0  0  0  0
 21 22  1  0  0  0  0
 22 14  2  0  0  0  0
 27  5  1  0  0  0  0
 28 23  1  6  0  0  0
 28  6  1  0  0  0  0
 28  9  1  0  0  0  0
 30 29  1  0  0  0  0
 31 30  1  0  0  0  0
 32 30  2  0  0  0  0
M  END
>  <MODEL>
4

>  <REMARK>
 VINA RESULT:      -6.8      2.112      4.555
  Name = 
  2 active torsions:
  status: ('A' for Active; 'I' for Inactive)
    1  A    between atoms: C_20  and  C_29
    2  A    between atoms: C_29  and  C_30
                            x       y       z     vdW  Elec       q    Type
                         _______ _______ _______ _____ _____    ______ ____

>  <TORSDO>
F 2

$$$$
=
 OpenBabel11122413043D

 32 38  0  0  1  0  0  0  0  0999 V2000
  161.0560  203.0090  147.9330 O   0  0  0  0  0  0  0  0  0  0  0  0
  161.3320  207.0220  151.1480 C   0  0  2  0  0  3  0  0  0  0  0  0
  162.1590  211.1050  148.5230 C   0  0  0  0  0  3  0  0  0  0  0  0
  162.2990  211.8430  149.6980 C   0  0  0  0  0  3  0  0  0  0  0  0
  161.0410  207.3470  153.6460 C   0  0  0  0  0  0  0  0  0  0  0  0
  160.7860  208.2540  154.8200 C   0  0  1  0  0  3  0  0  0  0  0  0
  160.3640  205.0940  149.8360 C   0  0  1  0  0  3  0  0  0  0  0  0
  161.1400  207.0970  148.6550 O   0  0  0  0  0  0  0  0  0  0  0  0
  160.9930  210.3930  155.7000 C   0  0  2  0  0  3  0  0  0  0  0  0
  160.3360  205.2300  147.3100 C   0  0  0  0  0  2  0  0  0  0  0  0
  161.8440  209.7480  148.5880 C   0  0  0  0  0  3  0  0  0  0  0  0
  161.3750  207.7940  149.8490 C   0  0  0  0  0  0  0  0  0  0  0  0
  161.6700  209.1050  149.8240 C   0  0  0  0  0  0  0  0  0  0  0  0
  161.5490  209.2930  152.2240 C   0  0  0  0  0  0  0  0  0  0  0  0
  161.6690  209.4280  156.6660 C   0  0  0  0  0  2  0  0  0  0  0  0
  162.1340  203.6930  148.5280 C   0  0  2  0  0  3  0  0  0  0  0  0
  160.2280  206.0020  148.6160 C   0  0  1  0  0  3  0  0  0  0  0  0
  161.8240  208.1340  155.9070 C   0  0  0  0  0  2  0  0  0  0  0  0
  161.7100  204.3580  149.8450 C   0  0  0  0  0  2  0  0  0  0  0  0
  161.4680  204.1980  147.2940 C   0  0  1  0  0  0  0  0  0  0  0  0
  162.1100  211.2260  150.9340 C   0  0  0  0  0  3  0  0  0  0  0  0
  161.7860  209.8590  151.0220 C   0  0  0  0  0  0  0  0  0  0  0  0
  161.6910  210.0760  153.4980 C   0  0  0  0  0  2  0  0  0  0  0  0
  160.2270  205.9540  151.0930 C   0  0  0  0  0  2  0  0  0  0  0  0
  161.0870  206.1010  153.8340 O   0  0  0  0  0  0  0  0  0  0  0  0
  159.7280  210.9460  156.3270 C   0  0  0  0  0  1  0  0  0  0  0  0
  161.2180  207.8960  152.3260 N   0  0  0  0  0  0  0  0  0  0  0  0
  160.6670  209.6770  154.4680 N   0  0  1  0  0  0  0  0  0  0  0  0
  162.1760  203.9040  145.9780 C   0  0  0  0  0  2  0  0  0  0  0  0
  161.2950  204.1580  144.7940 C   0  0  0  0  0  0  0  0  0  0  0  0
  161.5180  205.3670  143.9530 C   0  0  0  0  0  1  0  0  0  0  0  0
  160.3810  203.3950  144.5290 O   0  0  0  0  0  0  0  0  0  0  0  0
  1 16  1  0  0  0  0
  2 24  1  6  0  0  0
  2 27  1  0  0  0  0
  3 11  2  0  0  0  0
  3  4  1  0  0  0  0
  4 21  2  0  0  0  0
  5 25  2  0  0  0  0
  5  6  1  0  0  0  0
  6 18  1  1  0  0  0
  7 19  1  1  0  0  0
  7 24  1  0  0  0  0
  8 12  1  0  0  0  0
  9 26  1  1  0  0  0
  9 15  1  0  0  0  0
 11 13  1  0  0  0  0
 12  2  1  0  0  0  0
 13 12  2  0  0  0  0
 13 22  1  0  0  0  0
 14 27  1  0  0  0  0
 14 23  1  0  0  0  0
 16 19  1  1  0  0  0
 17 10  1  6  0  0  0
 17  8  1  0  0  0  0
 17  7  1  0  0  0  0
 18 15  1  0  0  0  0
 20 29  1  6  0  0  0
 20 10  1  0  0  0  0
 20  1  1  0  0  0  0
 20 16  1  0  0  0  0
 21 22  1  0  0  0  0
 22 14  2  0  0  0  0
 27  5  1  0  0  0  0
 28 23  1  6  0  0  0
 28  6  1  0  0  0  0
 28  9  1  0  0  0  0
 30 29  1  0  0  0  0
 31 30  1  0  0  0  0
 32 30  2  0  0  0  0
M  END
>  <MODEL>
5

>  <REMARK>
 VINA RESULT:      -6.4      1.995      4.204
  Name = 
  2 active torsions:
  status: ('A' for Active; 'I' for Inactive)
    1  A    between atoms: C_20  and  C_29
    2  A    between atoms: C_29  and  C_30
                            x       y       z     vdW  Elec       q    Type
                         _______ _______ _______ _____ _____    ______ ____

>  <TORSDO>
F 2

$$$$
=
 OpenBabel11122413043D

 32 38  0  0  1  0  0  0  0  0999 V2000
  162.0790  206.8120  148.1080 O   0  0  0  0  0  0  0  0  0  0  0  0
  160.6190  209.3980  152.3140 C   0  0  2  0  0  3  0  0  0  0  0  0
  160.5590  206.3010  156.1410 C   0  0  0  0  0  3  0  0  0  0  0  0
  160.0150  207.2960  156.9500 C   0  0  0  0  0  3  0  0  0  0  0  0
  160.0580  211.8150  152.8330 C   0  0  0  0  0  0  0  0  0  0  0  0
  159.8800  212.9250  153.8350 C   0  0  1  0  0  3  0  0  0  0  0  0
  162.0320  208.6460  150.3610 C   0  0  1  0  0  3  0  0  0  0  0  0
  161.6180  207.1060  152.2240 O   0  0  0  0  0  0  0  0  0  0  0  0
  159.3200  213.4990  156.0150 C   0  0  2  0  0  3  0  0  0  0  0  0
  162.8850  206.2650  150.3190 C   0  0  0  0  0  2  0  0  0  0  0  0
  160.8830  206.5830  154.8140 C   0  0  0  0  0  3  0  0  0  0  0  0
  160.9790  208.0930  152.9880 C   0  0  0  0  0  0  0  0  0  0  0  0
  160.6630  207.8590  154.2730 C   0  0  0  0  0  0  0  0  0  0  0  0
  159.9790  210.1420  154.6380 C   0  0  0  0  0  0  0  0  0  0  0  0
  158.3980  214.2730  155.0800 C   0  0  0  0  0  2  0  0  0  0  0  0
  160.8420  206.9610  148.7640 C   0  0  2  0  0  3  0  0  0  0  0  0
  162.5310  207.4620  151.1870 C   0  0  1  0  0  3  0  0  0  0  0  0
  158.5470  213.6210  153.7290 C   0  0  0  0  0  2  0  0  0  0  0  0
  160.7850  208.2810  149.5460 C   0  0  0  0  0  2  0  0  0  0  0  0
  161.8590  205.9710  149.2210 C   0  0  1  0  0  0  0  0  0  0  0  0
  159.8080  208.5760  156.4360 C   0  0  0  0  0  3  0  0  0  0  0  0
  160.1320  208.8830  155.1010 C   0  0  0  0  0  0  0  0  0  0  0  0
  159.3980  211.2270  155.4990 C   0  0  0  0  0  2  0  0  0  0  0  0
  161.7170  209.7990  151.3160 C   0  0  0  0  0  2  0  0  0  0  0  0
  159.9960  212.0870  151.6030 O   0  0  0  0  0  0  0  0  0  0  0  0
  160.2870  214.4530  156.6880 C   0  0  0  0  0  1  0  0  0  0  0  0
  160.3070  210.4670  153.2740 N   0  0  0  0  0  0  0  0  0  0  0  0
  160.0580  212.5080  155.2340 N   0  0  1  0  0  0  0  0  0  0  0  0
  161.6350  204.5270  148.7910 C   0  0  0  0  0  2  0  0  0  0  0  0
  160.9430  203.7240  149.8490 C   0  0  0  0  0  0  0  0  0  0  0  0
  160.8090  202.2500  149.6870 C   0  0  0  0  0  1  0  0  0  0  0  0
  160.4660  204.2730  150.8280 O   0  0  0  0  0  0  0  0  0  0  0  0
  1 16  1  0  0  0  0
  1 20  1  0  0  0  0
  2 24  1  1  0  0  0
  2 12  1  0  0  0  0
  2 27  1  0  0  0  0
  3  4  1  0  0  0  0
  5 27  1  0  0  0  0
  5  6  1  0  0  0  0
  6 18  1  1  0  0  0
  6 28  1  0  0  0  0
  7 19  1  1  0  0  0
  7 17  1  0  0  0  0
  7 24  1  0  0  0  0
  8 12  1  0  0  0  0
  9 26  1  6  0  0  0
 11  3  2  0  0  0  0
 12 13  2  0  0  0  0
 13 11  1  0  0  0  0
 13 22  1  0  0  0  0
 14 22  2  0  0  0  0
 14 23  1  0  0  0  0
 15  9  1  0  0  0  0
 16 20  1  0  0  0  0
 16 19  1  1  0  0  0
 17 10  1  6  0  0  0
 17  8  1  0  0  0  0
 18 15  1  0  0  0  0
 20 29  1  6  0  0  0
 20 10  1  0  0  0  0
 21  4  2  0  0  0  0
 22 21  1  0  0  0  0
 25  5  2  0  0  0  0
 27 14  1  0  0  0  0
 28 23  1  6  0  0  0
 28  9  1  0  0  0  0
 29 30  1  0  0  0  0
 30 32  2  0  0  0  0
 31 30  1  0  0  0  0
M  END
>  <MODEL>
6

>  <REMARK>
 VINA RESULT:      -6.2      2.746      4.371
  Name = 
  2 active torsions:
  status: ('A' for Active; 'I' for Inactive)
    1  A    between atoms: C_20  and  C_29
    2  A    between atoms: C_29  and  C_30
                            x       y       z     vdW  Elec       q    Type
                         _______ _______ _______ _____ _____    ______ ____

>  <TORSDO>
F 2

$$$$
=
 OpenBabel11122413043D

 32 38  0  0  1  0  0  0  0  0999 V2000
  160.3700  208.3900  156.9280 O   0  0  0  0  0  0  0  0  0  0  0  0
  160.7370  206.0570  152.3530 C   0  0  2  0  0  3  0  0  0  0  0  0
  161.9530  209.4080  148.9550 C   0  0  0  0  0  3  0  0  0  0  0  0
  161.8070  208.4550  147.9490 C   0  0  0  0  0  3  0  0  0  0  0  0
  160.5440  203.6660  151.5340 C   0  0  0  0  0  0  0  0  0  0  0  0
  160.8160  202.6230  150.4820 C   0  0  1  0  0  3  0  0  0  0  0  0
  161.2710  206.7150  154.7310 C   0  0  1  0  0  3  0  0  0  0  0  0
  161.5050  208.3660  152.9340 O   0  0  0  0  0  0  0  0  0  0  0  0
  161.1460  202.1850  148.2250 C   0  0  2  0  0  3  0  0  0  0  0  0
  161.9170  209.1120  155.2180 C   0  0  0  0  0  2  0  0  0  0  0  0
  161.7700  209.0450  150.2890 C   0  0  0  0  0  3  0  0  0  0  0  0
  161.2540  207.4160  151.9340 C   0  0  0  0  0  0  0  0  0  0  0  0
  161.4310  207.7280  150.6400 C   0  0  0  0  0  0  0  0  0  0  0  0
  161.0590  205.4570  149.9240 C   0  0  0  0  0  0  0  0  0  0  0  0
  159.9840  201.3200  148.7000 C   0  0  0  0  0  2  0  0  0  0  0  0
  159.4800  208.2500  155.8450 C   0  0  2  0  0  3  0  0  0  0  0  0
  161.9790  207.9680  154.2190 C   0  0  1  0  0  3  0  0  0  0  0  0
  159.5800  201.8820  150.0390 C   0  0  0  0  0  2  0  0  0  0  0  0
  159.7920  206.9850  155.0320 C   0  0  0  0  0  2  0  0  0  0  0  0
  160.5390  209.2980  155.8600 C   0  0  1  0  0  0  0  0  0  0  0  0
  161.4910  207.1370  148.2790 C   0  0  0  0  0  3  0  0  0  0  0  0
  161.3070  206.7480  149.6200 C   0  0  0  0  0  0  0  0  0  0  0  0
  160.9020  204.4170  148.8510 C   0  0  0  0  0  2  0  0  0  0  0  0
  161.4000  205.6220  153.6690 C   0  0  0  0  0  2  0  0  0  0  0  0
  160.0390  203.3080  152.6330 O   0  0  0  0  0  0  0  0  0  0  0  0
  162.3460  201.3080  147.9190 C   0  0  0  0  0  1  0  0  0  0  0  0
  160.8670  205.0480  151.2910 N   0  0  0  0  0  0  0  0  0  0  0  0
  161.4830  203.1410  149.2780 N   0  0  1  0  0  0  0  0  0  0  0  0
  160.0920  210.7020  156.2490 C   0  0  0  0  0  2  0  0  0  0  0  0
  159.8510  211.5690  155.0520 C   0  0  0  0  0  0  0  0  0  0  0  0
  159.3390  210.9630  153.7920 C   0  0  0  0  0  1  0  0  0  0  0  0
  160.0970  212.7630  155.0940 O   0  0  0  0  0  0  0  0  0  0  0  0
  2 24  1  1  0  0  0
  3 11  2  0  0  0  0
  4 21  2  0  0  0  0
  4  3  1  0  0  0  0
  5 25  2  0  0  0  0
  6 18  1  6  0  0  0
  6  5  1  0  0  0  0
  7 24  1  6  0  0  0
  7 19  1  0  0  0  0
  8 17  1  0  0  0  0
  9 26  1  1  0  0  0
  9 15  1  0  0  0  0
  9 28  1  0  0  0  0
 10 20  1  0  0  0  0
 11 13  1  0  0  0  0
 12  2  1  0  0  0  0
 12  8  1  0  0  0  0
 13 12  2  0  0  0  0
 14 27  1  0  0  0  0
 15 18  1  0  0  0  0
 16 19  1  6  0  0  0
 16 20  1  0  0  0  0
 16  1  1  0  0  0  0
 17  7  1  0  0  0  0
 17 10  1  1  0  0  0
 20 29  1  1  0  0  0
 20  1  1  0  0  0  0
 21 22  1  0  0  0  0
 22 14  2  0  0  0  0
 22 13  1  0  0  0  0
 23 14  1  0  0  0  0
 27  5  1  0  0  0  0
 27  2  1  0  0  0  0
 28 23  1  6  0  0  0
 28  6  1  0  0  0  0
 30 32  2  0  0  0  0
 30 29  1  0  0  0  0
 31 30  1  0  0  0  0
M  END
>  <MODEL>
7

>  <REMARK>
 VINA RESULT:      -6.1      3.051      8.685
  Name = 
  2 active torsions:
  status: ('A' for Active; 'I' for Inactive)
    1  A    between atoms: C_20  and  C_29
    2  A    between atoms: C_29  and  C_30
                            x       y       z     vdW  Elec       q    Type
                         _______ _______ _______ _____ _____    ______ ____

>  <TORSDO>
F 2

$$$$
