=
 OpenBabel11122414373D

 34 40  0  0  1  0  0  0  0  0999 V2000
  161.3930  208.4450  152.8100 C   0  0  0  0  0  0  0  0  0  0  0  0
  161.2160  205.9470  153.3420 C   0  0  0  0  0  2  0  0  0  0  0  0
  161.5620  213.6370  148.7720 C   0  0  1  0  0  3  0  0  0  0  0  0
  161.1200  210.7150  152.0540 C   0  0  0  0  0  0  0  0  0  0  0  0
  162.1750  211.3840  149.8690 C   0  0  2  0  0  3  0  0  0  0  0  0
  163.4370  212.1800  147.8880 C   0  0  0  0  0  1  0  0  0  0  0  0
  161.9280  214.4530  147.6980 O   0  0  0  0  0  1  0  0  0  0  0  0
  159.5650  213.1430  150.2350 C   0  0  0  0  0  2  0  0  0  0  0  0
  161.4190  206.6910  151.1140 C   0  0  1  0  0  3  0  0  0  0  0  0
  160.7110  205.0180  148.6300 C   0  0  0  0  0  2  0  0  0  0  0  0
  162.2270  209.9480  149.5550 N   0  0  0  0  0  0  0  0  0  0  0  0
  159.8350  211.7770  150.3630 O   0  0  0  0  0  0  0  0  0  0  0  0
  162.1780  207.5530  150.0950 C   0  0  2  0  0  3  0  0  0  0  0  0
  161.3380  204.7070  152.4570 C   0  0  0  0  0  2  0  0  0  0  0  0
  161.1070  211.7200  150.9400 C   0  0  1  0  0  3  0  0  0  0  0  0
  160.0390  213.6520  148.8790 C   0  0  0  0  0  2  0  0  0  0  0  0
  160.4720  204.6290  150.0890 C   0  0  2  0  0  3  0  0  0  0  0  0
  161.4960  209.4000  151.7860 C   0  0  0  0  0  0  0  0  0  0  0  0
  162.0740  212.1980  148.5680 C   0  0  2  0  0  3  0  0  0  0  0  0
  161.9510  209.0190  150.4240 C   0  0  0  0  0  0  0  0  0  0  0  0
  160.6290  210.1210  154.2910 C   0  0  0  0  0  3  0  0  0  0  0  0
  160.5340  206.5130  148.3960 C   0  0  0  0  0  2  0  0  0  0  0  0
  160.6870  211.0490  153.2970 N   0  0  0  0  0  0  0  0  0  0  0  0
  161.8600  207.2320  148.6230 C   0  0  0  0  0  2  0  0  0  0  0  0
  161.5590  205.1880  151.0160 C   0  0  1  0  0  3  0  0  0  0  0  0
  160.9850  208.8300  154.0480 N   0  0  0  0  0  0  0  0  0  0  0  0
  161.8390  207.0430  152.5160 C   0  0  1  0  0  3  0  0  0  0  0  0
  160.4360  203.2350  150.1800 O   0  0  0  0  0  0  0  0  0  0  0  0
  161.3040  202.7870  149.1800 C   0  0  0  0  0  2  0  0  0  0  0  0
  160.8820  201.0310  146.0600 C   0  0  0  0  0  2  0  0  0  0  0  0
  161.6270  200.4860  148.2790 C   0  0  0  0  0  2  0  0  0  0  0  0
  160.6630  201.6480  148.4110 C   0  0  0  0  0  3  0  0  0  0  0  0
  161.3260  199.8760  146.9320 C   0  0  0  0  0  2  0  0  0  0  0  0
  160.3360  202.0930  146.9980 C   0  0  0  0  0  2  0  0  0  0  0  0
  1 26  1  0  0  0  0
  3  7  1  6  0  0  0
  3 16  1  0  0  0  0
  4 23  2  0  0  0  0
  5 11  1  6  0  0  0
  5 15  1  0  0  0  0
  6 19  1  0  0  0  0
  8 12  1  0  0  0  0
  9 27  1  0  0  0  0
 10 17  1  0  0  0  0
 11 20  2  0  0  0  0
 12 15  1  0  0  0  0
 13 20  1  0  0  0  0
 13  9  1  0  0  0  0
 14  2  1  0  0  0  0
 15  4  1  0  0  0  0
 16  8  1  0  0  0  0
 17 28  1  0  0  0  0
 17 25  1  0  0  0  0
 18  4  1  0  0  0  0
 18  1  2  0  0  0  0
 19  3  1  0  0  0  0
 19  5  1  0  0  0  0
 20 18  1  0  0  0  0
 22 24  1  0  0  0  0
 22 10  1  0  0  0  0
 23 21  1  0  0  0  0
 24 13  1  0  0  0  0
 25  9  1  0  0  0  0
 25 14  1  0  0  0  0
 26 21  2  0  0  0  0
 27  1  1  0  0  0  0
 27  2  1  0  0  0  0
 29 28  1  0  0  0  0
 30 33  1  0  0  0  0
 30 34  1  0  0  0  0
 31 32  1  0  0  0  0
 32 29  1  0  0  0  0
 33 31  1  0  0  0  0
 34 32  1  0  0  0  0
M  END
>  <MODEL>
1

>  <REMARK>
 VINA RESULT:      -8.8      0.000      0.000
  Name = 
  3 active torsions:
  status: ('A' for Active; 'I' for Inactive)
    1  A    between atoms: C_17  and  O_28
    2  A    between atoms: O_28  and  C_29
    3  A    between atoms: C_29  and  C_32
                            x       y       z     vdW  Elec       q    Type
                         _______ _______ _______ _____ _____    ______ ____

>  <TORSDO>
F 3

$$$$
=
 OpenBabel11122414373D

 34 40  0  0  1  0  0  0  0  0999 V2000
  160.7050  210.5910  152.6710 C   0  0  0  0  0  0  0  0  0  0  0  0
  160.6600  208.4410  154.0620 C   0  0  0  0  0  2  0  0  0  0  0  0
  161.2680  214.0090  147.0770 C   0  0  1  0  0  3  0  0  0  0  0  0
  160.3860  212.3730  151.0840 C   0  0  0  0  0  0  0  0  0  0  0  0
  161.8370  212.4190  149.0280 C   0  0  2  0  0  3  0  0  0  0  0  0
  163.4300  212.6890  147.1450 C   0  0  0  0  0  1  0  0  0  0  0  0
  161.7850  214.4530  145.8570 O   0  0  0  0  0  1  0  0  0  0  0  0
  159.0500  213.7090  148.2450 C   0  0  0  0  0  2  0  0  0  0  0  0
  161.2890  208.3920  151.7890 C   0  0  1  0  0  3  0  0  0  0  0  0
  161.3320  205.8660  150.0320 C   0  0  0  0  0  2  0  0  0  0  0  0
  162.1010  210.9960  149.2900 N   0  0  0  0  0  0  0  0  0  0  0  0
  159.4190  212.5420  148.9220 O   0  0  0  0  0  0  0  0  0  0  0  0
  162.1690  208.9660  150.6710 C   0  0  2  0  0  3  0  0  0  0  0  0
  161.1020  207.0130  153.7420 C   0  0  0  0  0  2  0  0  0  0  0  0
  160.5270  212.9110  149.6900 C   0  0  1  0  0  3  0  0  0  0  0  0
  159.7670  213.7920  146.9030 C   0  0  0  0  0  2  0  0  0  0  0  0
  160.8090  205.9700  151.4640 C   0  0  2  0  0  3  0  0  0  0  0  0
  160.9420  211.1340  151.3990 C   0  0  0  0  0  0  0  0  0  0  0  0
  161.9530  212.7010  147.5200 C   0  0  2  0  0  3  0  0  0  0  0  0
  161.7290  210.3920  150.3820 C   0  0  0  0  0  0  0  0  0  0  0  0
  159.4620  212.5140  153.2580 C   0  0  0  0  0  3  0  0  0  0  0  0
  161.0650  207.1320  149.2270 C   0  0  0  0  0  2  0  0  0  0  0  0
  159.6510  213.0350  152.0150 N   0  0  0  0  0  0  0  0  0  0  0  0
  162.2270  208.1060  149.3960 C   0  0  0  0  0  2  0  0  0  0  0  0
  161.5950  206.9970  152.2890 C   0  0  1  0  0  3  0  0  0  0  0  0
  159.9900  211.3020  153.5830 N   0  0  0  0  0  0  0  0  0  0  0  0
  161.3430  209.2750  153.0070 C   0  0  1  0  0  3  0  0  0  0  0  0
  160.8910  204.7100  152.0630 O   0  0  0  0  0  0  0  0  0  0  0  0
  161.6390  203.9370  151.1720 C   0  0  0  0  0  2  0  0  0  0  0  0
  161.0300  201.9550  148.2230 C   0  0  0  0  0  2  0  0  0  0  0  0
  161.1680  201.5610  150.5900 C   0  0  0  0  0  2  0  0  0  0  0  0
  160.7260  202.9980  150.4080 C   0  0  0  0  0  3  0  0  0  0  0  0
  160.8540  200.8840  149.2780 C   0  0  0  0  0  2  0  0  0  0  0  0
  160.8110  203.2860  148.9210 C   0  0  0  0  0  2  0  0  0  0  0  0
  1 27  1  0  0  0  0
  1 26  1  0  0  0  0
  3  7  1  6  0  0  0
  3 19  1  0  0  0  0
  4 18  1  0  0  0  0
  4 23  2  0  0  0  0
  5 11  1  6  0  0  0
  5 15  1  0  0  0  0
  6 19  1  0  0  0  0
  8 12  1  0  0  0  0
  9 25  1  0  0  0  0
  9 27  1  0  0  0  0
 10 17  1  0  0  0  0
 11 20  2  0  0  0  0
 12 15  1  0  0  0  0
 13  9  1  0  0  0  0
 14  2  1  0  0  0  0
 15  4  1  0  0  0  0
 16  3  1  0  0  0  0
 16  8  1  0  0  0  0
 17 28  1  0  0  0  0
 17 25  1  0  0  0  0
 18  1  2  0  0  0  0
 19  5  1  0  0  0  0
 20 13  1  0  0  0  0
 20 18  1  0  0  0  0
 21 26  2  0  0  0  0
 22 24  1  0  0  0  0
 22 10  1  0  0  0  0
 23 21  1  0  0  0  0
 24 13  1  0  0  0  0
 25 14  1  0  0  0  0
 27  2  1  0  0  0  0
 29 28  1  0  0  0  0
 30 34  1  0  0  0  0
 30 33  1  0  0  0  0
 32 31  1  0  0  0  0
 32 29  1  0  0  0  0
 33 31  1  0  0  0  0
 34 32  1  0  0  0  0
M  END
>  <MODEL>
2

>  <REMARK>
 VINA RESULT:      -8.6      1.382      2.063
  Name = 
  3 active torsions:
  status: ('A' for Active; 'I' for Inactive)
    1  A    between atoms: C_17  and  O_28
    2  A    between atoms: O_28  and  C_29
    3  A    between atoms: C_29  and  C_32
                            x       y       z     vdW  Elec       q    Type
                         _______ _______ _______ _____ _____    ______ ____

>  <TORSDO>
F 3

$$$$
=
 OpenBabel11122414373D

 34 40  0  0  1  0  0  0  0  0999 V2000
  159.6770  213.0820  149.9750 C   0  0  0  0  0  0  0  0  0  0  0  0
  159.8180  211.8480  152.2140 C   0  0  0  0  0  2  0  0  0  0  0  0
  160.8860  213.8470  143.5530 C   0  0  1  0  0  3  0  0  0  0  0  0
  159.3600  213.7940  147.6970 C   0  0  0  0  0  0  0  0  0  0  0  0
  161.2750  213.5380  146.0850 C   0  0  2  0  0  3  0  0  0  0  0  0
  163.2090  213.5910  144.5320 C   0  0  0  0  0  1  0  0  0  0  0  0
  161.5930  213.9120  142.3490 O   0  0  0  0  0  1  0  0  0  0  0  0
  158.5950  213.2410  144.4210 C   0  0  0  0  0  2  0  0  0  0  0  0
  161.0680  211.1140  150.3540 C   0  0  1  0  0  3  0  0  0  0  0  0
  162.3060  208.3110  150.0630 C   0  0  0  0  0  2  0  0  0  0  0  0
  161.8290  212.5620  147.0350 N   0  0  0  0  0  0  0  0  0  0  0  0
  159.0540  212.6860  145.6190 O   0  0  0  0  0  0  0  0  0  0  0  0
  162.0440  211.4650  149.2220 C   0  0  2  0  0  3  0  0  0  0  0  0
  160.7060  210.6970  152.6860 C   0  0  0  0  0  2  0  0  0  0  0  0
  159.7460  213.7250  146.2490 C   0  0  1  0  0  3  0  0  0  0  0  0
  159.6190  213.0310  143.3120 C   0  0  0  0  0  2  0  0  0  0  0  0
  161.3810  208.7870  151.1840 C   0  0  2  0  0  3  0  0  0  0  0  0
  160.1150  213.1030  148.6420 C   0  0  0  0  0  0  0  0  0  0  0  0
  161.7430  213.1990  144.6590 C   0  0  2  0  0  3  0  0  0  0  0  0
  161.3360  212.3660  148.2240 C   0  0  0  0  0  0  0  0  0  0  0  0
  157.8420  214.4530  149.3890 C   0  0  0  0  0  3  0  0  0  0  0  0
  161.9500  208.9340  148.7190 C   0  0  0  0  0  2  0  0  0  0  0  0
  158.2350  214.4490  148.0860 N   0  0  0  0  0  0  0  0  0  0  0  0
  162.7010  210.2500  148.5430 C   0  0  0  0  0  2  0  0  0  0  0  0
  161.5840  210.2740  151.5010 C   0  0  1  0  0  3  0  0  0  0  0  0
  158.5630  213.7780  150.3260 N   0  0  0  0  0  0  0  0  0  0  0  0
  160.5230  212.3660  150.9860 C   0  0  1  0  0  3  0  0  0  0  0  0
  161.6270  208.0160  152.3230 O   0  0  0  0  0  0  0  0  0  0  0  0
  162.1160  206.8010  151.8360 C   0  0  0  0  0  2  0  0  0  0  0  0
  160.8410  203.6800  150.5590 C   0  0  0  0  0  2  0  0  0  0  0  0
  161.3420  204.6040  152.7200 C   0  0  0  0  0  2  0  0  0  0  0  0
  161.0060  205.7680  151.8110 C   0  0  0  0  0  3  0  0  0  0  0  0
  160.7510  203.3920  152.0420 C   0  0  0  0  0  2  0  0  0  0  0  0
  160.8630  205.1920  150.4160 C   0  0  0  0  0  2  0  0  0  0  0  0
  1 26  1  0  0  0  0
  1 27  1  0  0  0  0
  2 14  1  0  0  0  0
  3  7  1  6  0  0  0
  3 19  1  0  0  0  0
  4 23  2  0  0  0  0
  4 18  1  0  0  0  0
  5 15  1  0  0  0  0
  5 11  1  1  0  0  0
  6 19  1  0  0  0  0
  8 12  1  0  0  0  0
  9 27  1  0  0  0  0
  9 25  1  0  0  0  0
 10 17  1  0  0  0  0
 11 20  2  0  0  0  0
 12 15  1  0  0  0  0
 13  9  1  0  0  0  0
 15  4  1  0  0  0  0
 16  3  1  0  0  0  0
 16  8  1  0  0  0  0
 17 25  1  0  0  0  0
 17 28  1  0  0  0  0
 18  1  2  0  0  0  0
 19  5  1  0  0  0  0
 20 18  1  0  0  0  0
 20 13  1  0  0  0  0
 21 26  2  0  0  0  0
 22 10  1  0  0  0  0
 23 21  1  0  0  0  0
 24 22  1  0  0  0  0
 24 13  1  0  0  0  0
 25 14  1  0  0  0  0
 27  2  1  0  0  0  0
 29 28  1  0  0  0  0
 30 33  1  0  0  0  0
 32 29  1  0  0  0  0
 32 31  1  0  0  0  0
 33 31  1  0  0  0  0
 34 30  1  0  0  0  0
 34 32  1  0  0  0  0
M  END
>  <MODEL>
3

>  <REMARK>
 VINA RESULT:      -7.4      2.921      5.175
  Name = 
  3 active torsions:
  status: ('A' for Active; 'I' for Inactive)
    1  A    between atoms: C_17  and  O_28
    2  A    between atoms: O_28  and  C_29
    3  A    between atoms: C_29  and  C_32
                            x       y       z     vdW  Elec       q    Type
                         _______ _______ _______ _____ _____    ______ ____

>  <TORSDO>
F 3

$$$$
=
 OpenBabel11122414373D

 34 40  0  0  1  0  0  0  0  0999 V2000
  161.0950  207.6420  153.5570 C   0  0  0  0  0  0  0  0  0  0  0  0
  161.2770  205.0890  153.6480 C   0  0  0  0  0  2  0  0  0  0  0  0
  160.4330  213.4210  150.4830 C   0  0  1  0  0  3  0  0  0  0  0  0
  160.4910  209.9460  153.2080 C   0  0  0  0  0  0  0  0  0  0  0  0
  161.3810  211.1210  151.1690 C   0  0  2  0  0  3  0  0  0  0  0  0
  162.4640  212.4140  149.3500 C   0  0  0  0  0  1  0  0  0  0  0  0
  160.6520  214.4520  149.5650 O   0  0  0  0  0  1  0  0  0  0  0  0
  158.5660  212.4090  151.8470 C   0  0  0  0  0  2  0  0  0  0  0  0
  161.3120  206.2250  151.5820 C   0  0  1  0  0  3  0  0  0  0  0  0
  160.7680  204.9210  148.8480 C   0  0  0  0  0  2  0  0  0  0  0  0
  161.6200  209.7820  150.6100 N   0  0  0  0  0  0  0  0  0  0  0  0
  159.0240  211.0930  151.7340 O   0  0  0  0  0  0  0  0  0  0  0  0
  161.9150  207.3470  150.7240 C   0  0  2  0  0  3  0  0  0  0  0  0
  161.5420  204.0490  152.5590 C   0  0  0  0  0  2  0  0  0  0  0  0
  160.3090  211.1160  152.2860 C   0  0  1  0  0  3  0  0  0  0  0  0
  158.9270  213.2040  150.5980 C   0  0  0  0  0  2  0  0  0  0  0  0
  160.6270  204.2580  150.2180 C   0  0  2  0  0  3  0  0  0  0  0  0
  161.0360  208.7620  152.7140 C   0  0  0  0  0  0  0  0  0  0  0  0
  161.1320  212.1240  150.0290 C   0  0  2  0  0  3  0  0  0  0  0  0
  161.5000  208.6880  151.3050 C   0  0  0  0  0  0  0  0  0  0  0  0
  160.1510  208.9150  155.3110 C   0  0  0  0  0  3  0  0  0  0  0  0
  160.3810  206.3940  148.8790 C   0  0  0  0  0  2  0  0  0  0  0  0
  160.0520  209.9980  154.4930 N   0  0  0  0  0  0  0  0  0  0  0  0
  161.6020  207.2420  149.2210 C   0  0  0  0  0  2  0  0  0  0  0  0
  161.6530  204.7960  151.2240 C   0  0  1  0  0  3  0  0  0  0  0  0
  160.6740  207.7470  154.8450 N   0  0  0  0  0  0  0  0  0  0  0  0
  161.7200  206.3870  153.0210 C   0  0  1  0  0  3  0  0  0  0  0  0
  160.7850  202.8780  150.0650 O   0  0  0  0  0  0  0  0  0  0  0  0
  160.1540  202.5760  148.8550 C   0  0  0  0  0  2  0  0  0  0  0  0
  161.4570  199.7180  147.0870 C   0  0  0  0  0  2  0  0  0  0  0  0
  160.5420  201.8600  146.5000 C   0  0  0  0  0  2  0  0  0  0  0  0
  161.1620  202.0080  147.8740 C   0  0  0  0  0  3  0  0  0  0  0  0
  161.1820  200.6280  145.9100 C   0  0  0  0  0  2  0  0  0  0  0  0
  161.5800  200.6150  148.3060 C   0  0  0  0  0  2  0  0  0  0  0  0
  1 26  1  0  0  0  0
  3  7  1  6  0  0  0
  3 16  1  0  0  0  0
  4 23  2  0  0  0  0
  5 11  1  6  0  0  0
  5 15  1  0  0  0  0
  6 19  1  0  0  0  0
  9 27  1  0  0  0  0
 10 22  1  0  0  0  0
 10 17  1  0  0  0  0
 11 20  2  0  0  0  0
 12  8  1  0  0  0  0
 12 15  1  0  0  0  0
 13 20  1  0  0  0  0
 13  9  1  0  0  0  0
 14  2  1  0  0  0  0
 15  4  1  0  0  0  0
 16  8  1  0  0  0  0
 17 25  1  0  0  0  0
 18  4  1  0  0  0  0
 18  1  2  0  0  0  0
 19  3  1  0  0  0  0
 19  5  1  0  0  0  0
 20 18  1  0  0  0  0
 22 24  1  0  0  0  0
 23 21  1  0  0  0  0
 24 13  1  0  0  0  0
 25  9  1  0  0  0  0
 25 14  1  0  0  0  0
 26 21  2  0  0  0  0
 27  1  1  0  0  0  0
 27  2  1  0  0  0  0
 28 17  1  0  0  0  0
 29 28  1  0  0  0  0
 30 34  1  0  0  0  0
 31 32  1  0  0  0  0
 32 34  1  0  0  0  0
 32 29  1  0  0  0  0
 33 31  1  0  0  0  0
 33 30  1  0  0  0  0
M  END
>  <MODEL>
4

>  <REMARK>
 VINA RESULT:      -7.1      1.049      1.439
  Name = 
  3 active torsions:
  status: ('A' for Active; 'I' for Inactive)
    1  A    between atoms: C_17  and  O_28
    2  A    between atoms: O_28  and  C_29
    3  A    between atoms: C_29  and  C_32
                            x       y       z     vdW  Elec       q    Type
                         _______ _______ _______ _____ _____    ______ ____

>  <TORSDO>
F 3

$$$$
=
 OpenBabel11122414373D

 34 40  0  0  1  0  0  0  0  0999 V2000
  158.6700  213.8820  147.8330 C   0  0  0  0  0  0  0  0  0  0  0  0
  158.2660  213.5080  150.3340 C   0  0  0  0  0  2  0  0  0  0  0  0
  161.9830  213.1350  142.1980 C   0  0  1  0  0  3  0  0  0  0  0  0
  159.0690  213.7200  145.4640 C   0  0  0  0  0  0  0  0  0  0  0  0
  161.4480  213.7530  144.6450 C   0  0  2  0  0  3  0  0  0  0  0  0
  163.7410  214.0820  143.7580 C   0  0  0  0  0  1  0  0  0  0  0  0
  163.0510  213.1090  141.2970 O   0  0  0  0  0  1  0  0  0  0  0  0
  159.7750  211.9840  142.6160 C   0  0  0  0  0  2  0  0  0  0  0  0
  160.2720  212.7960  149.3190 C   0  0  1  0  0  3  0  0  0  0  0  0
  162.2080  210.7240  150.5150 C   0  0  0  0  0  2  0  0  0  0  0  0
  161.8320  213.3850  146.0160 N   0  0  0  0  0  0  0  0  0  0  0  0
  159.8720  212.0230  144.0100 O   0  0  0  0  0  0  0  0  0  0  0  0
  161.4770  213.1450  148.4350 C   0  0  2  0  0  3  0  0  0  0  0  0
  159.1730  212.9750  151.4420 C   0  0  0  0  0  2  0  0  0  0  0  0
  159.9790  213.3830  144.3210 C   0  0  1  0  0  3  0  0  0  0  0  0
  161.1600  211.8660  141.9910 C   0  0  0  0  0  2  0  0  0  0  0  0
  160.8380  211.1180  151.0690 C   0  0  2  0  0  3  0  0  0  0  0  0
  159.5600  213.6770  146.7680 C   0  0  0  0  0  0  0  0  0  0  0  0
  162.4920  213.2160  143.6510 C   0  0  2  0  0  3  0  0  0  0  0  0
  160.9930  213.3740  147.0120 C   0  0  0  0  0  0  0  0  0  0  0  0
  156.9080  214.2150  146.2930 C   0  0  0  0  0  3  0  0  0  0  0  0
  162.2400  210.7420  148.9920 C   0  0  0  0  0  2  0  0  0  0  0  0
  157.7520  213.9800  145.2520 N   0  0  0  0  0  0  0  0  0  0  0  0
  162.6330  212.1310  148.4990 C   0  0  0  0  0  2  0  0  0  0  0  0
  160.5130  212.5920  150.7990 C   0  0  1  0  0  3  0  0  0  0  0  0
  157.3670  214.1710  147.5740 N   0  0  0  0  0  0  0  0  0  0  0  0
  159.2240  213.8720  149.2280 C   0  0  1  0  0  3  0  0  0  0  0  0
  160.8240  210.8680  152.4440 O   0  0  0  0  0  0  0  0  0  0  0  0
  161.6600  209.7620  152.6170 C   0  0  0  0  0  2  0  0  0  0  0  0
  161.5180  206.1760  152.9600 C   0  0  0  0  0  2  0  0  0  0  0  0
  160.8960  208.0790  154.2880 C   0  0  0  0  0  2  0  0  0  0  0  0
  160.8280  208.5130  152.8390 C   0  0  0  0  0  3  0  0  0  0  0  0
  160.8350  206.5720  154.2510 C   0  0  0  0  0  2  0  0  0  0  0  0
  161.3880  207.3640  152.0230 C   0  0  0  0  0  2  0  0  0  0  0  0
  1 27  1  0  0  0  0
  2 14  1  0  0  0  0
  3  7  1  6  0  0  0
  3 19  1  0  0  0  0
  4 18  1  0  0  0  0
  5 11  1  1  0  0  0
  8 12  1  0  0  0  0
  9 25  1  0  0  0  0
 10 17  1  0  0  0  0
 11 20  2  0  0  0  0
 12 15  1  0  0  0  0
 13 24  1  0  0  0  0
 13  9  1  0  0  0  0
 15  5  1  0  0  0  0
 15  4  1  0  0  0  0
 16  3  1  0  0  0  0
 16  8  1  0  0  0  0
 17 28  1  0  0  0  0
 18 20  1  0  0  0  0
 18  1  2  0  0  0  0
 19  6  1  0  0  0  0
 19  5  1  0  0  0  0
 20 13  1  0  0  0  0
 21 26  2  0  0  0  0
 22 10  1  0  0  0  0
 23  4  2  0  0  0  0
 23 21  1  0  0  0  0
 24 22  1  0  0  0  0
 25 17  1  0  0  0  0
 25 14  1  0  0  0  0
 26  1  1  0  0  0  0
 27  9  1  0  0  0  0
 27  2  1  0  0  0  0
 28 29  1  0  0  0  0
 29 32  1  0  0  0  0
 30 33  1  0  0  0  0
 32 31  1  0  0  0  0
 33 31  1  0  0  0  0
 34 32  1  0  0  0  0
 34 30  1  0  0  0  0
M  END
>  <MODEL>
5

>  <REMARK>
 VINA RESULT:      -7.0      4.423      7.344
  Name = 
  3 active torsions:
  status: ('A' for Active; 'I' for Inactive)
    1  A    between atoms: C_17  and  O_28
    2  A    between atoms: O_28  and  C_29
    3  A    between atoms: C_29  and  C_32
                            x       y       z     vdW  Elec       q    Type
                         _______ _______ _______ _____ _____    ______ ____

>  <TORSDO>
F 3

$$$$
=
 OpenBabel11122414373D

 34 40  0  0  1  0  0  0  0  0999 V2000
  160.8630  204.6090  151.4010 C   0  0  0  0  0  0  0  0  0  0  0  0
  160.8810  205.6490  153.7420 C   0  0  0  0  0  2  0  0  0  0  0  0
  161.6050  204.7350  144.8650 C   0  0  1  0  0  3  0  0  0  0  0  0
  161.3270  203.8160  149.1760 C   0  0  0  0  0  0  0  0  0  0  0  0
  160.7400  205.2990  147.2300 C   0  0  2  0  0  3  0  0  0  0  0  0
  159.9130  206.5770  145.2710 C   0  0  0  0  0  1  0  0  0  0  0  0
  161.4760  205.1520  143.5380 O   0  0  0  0  0  1  0  0  0  0  0  0
  163.2620  203.5780  146.3780 C   0  0  0  0  0  2  0  0  0  0  0  0
  161.1380  206.9960  151.8240 C   0  0  1  0  0  3  0  0  0  0  0  0
  162.2910  209.8500  151.8220 C   0  0  0  0  0  2  0  0  0  0  0  0
  160.7220  206.4090  148.1940 N   0  0  0  0  0  0  0  0  0  0  0  0
  162.9440  204.3290  147.5140 O   0  0  0  0  0  0  0  0  0  0  0  0
  160.6150  207.4010  150.4380 C   0  0  2  0  0  3  0  0  0  0  0  0
  160.9110  207.1040  154.2080 C   0  0  0  0  0  2  0  0  0  0  0  0
  161.5810  204.0960  147.7240 C   0  0  1  0  0  3  0  0  0  0  0  0
  163.0760  204.4170  145.1190 C   0  0  0  0  0  2  0  0  0  0  0  0
  162.2270  208.8930  153.0130 C   0  0  2  0  0  3  0  0  0  0  0  0
  160.9850  204.8650  150.0270 C   0  0  0  0  0  0  0  0  0  0  0  0
  161.1140  205.8280  145.8340 C   0  0  2  0  0  3  0  0  0  0  0  0
  160.8010  206.2350  149.4820 C   0  0  0  0  0  0  0  0  0  0  0  0
  161.3520  202.3280  151.0170 C   0  0  0  0  0  3  0  0  0  0  0  0
  162.5410  209.1190  150.5090 C   0  0  0  0  0  2  0  0  0  0  0  0
  161.5120  202.5700  149.6870 N   0  0  0  0  0  0  0  0  0  0  0  0
  161.2120  208.7070  149.8850 C   0  0  0  0  0  2  0  0  0  0  0  0
  160.9910  207.9890  152.9560 C   0  0  1  0  0  3  0  0  0  0  0  0
  161.0250  203.3410  151.8650 N   0  0  0  0  0  0  0  0  0  0  0  0
  160.4560  205.7420  152.2980 C   0  0  1  0  0  3  0  0  0  0  0  0
  162.2170  209.6460  154.1910 O   0  0  0  0  0  0  0  0  0  0  0  0
  161.5820  210.8420  153.8470 C   0  0  0  0  0  2  0  0  0  0  0  0
  158.5680  210.3410  155.7600 C   0  0  0  0  0  2  0  0  0  0  0  0
  160.9230  210.4610  156.2200 C   0  0  0  0  0  2  0  0  0  0  0  0
  160.6740  211.2900  154.9770 C   0  0  0  0  0  3  0  0  0  0  0  0
  159.5760  210.3410  156.8890 C   0  0  0  0  0  2  0  0  0  0  0  0
  159.2230  211.0660  154.5980 C   0  0  0  0  0  2  0  0  0  0  0  0
  1 26  1  0  0  0  0
  1 27  1  0  0  0  0
  2 14  1  0  0  0  0
  3  7  1  6  0  0  0
  3 16  1  0  0  0  0
  3 19  1  0  0  0  0
  4 23  2  0  0  0  0
  4 18  1  0  0  0  0
  5 15  1  0  0  0  0
  5 11  1  1  0  0  0
  6 19  1  0  0  0  0
  8 12  1  0  0  0  0
  9 27  1  0  0  0  0
  9 25  1  0  0  0  0
 10 17  1  0  0  0  0
 11 20  2  0  0  0  0
 12 15  1  0  0  0  0
 13  9  1  0  0  0  0
 15  4  1  0  0  0  0
 16  8  1  0  0  0  0
 17 28  1  0  0  0  0
 18  1  2  0  0  0  0
 19  5  1  0  0  0  0
 20 18  1  0  0  0  0
 20 13  1  0  0  0  0
 21 26  2  0  0  0  0
 22 10  1  0  0  0  0
 23 21  1  0  0  0  0
 24 13  1  0  0  0  0
 24 22  1  0  0  0  0
 25 17  1  0  0  0  0
 25 14  1  0  0  0  0
 27  2  1  0  0  0  0
 29 28  1  0  0  0  0
 29 32  1  0  0  0  0
 30 33  1  0  0  0  0
 31 33  1  0  0  0  0
 32 31  1  0  0  0  0
 34 32  1  0  0  0  0
 34 30  1  0  0  0  0
M  END
>  <MODEL>
6

>  <REMARK>
 VINA RESULT:      -6.4      3.387      7.911
  Name = 
  3 active torsions:
  status: ('A' for Active; 'I' for Inactive)
    1  A    between atoms: C_17  and  O_28
    2  A    between atoms: O_28  and  C_29
    3  A    between atoms: C_29  and  C_32
                            x       y       z     vdW  Elec       q    Type
                         _______ _______ _______ _____ _____    ______ ____

>  <TORSDO>
F 3

$$$$
