=
 OpenBabel11122414163D

 34 41  0  0  1  0  0  0  0  0999 V2000
  162.0160  208.2630  150.2640 C   0  0  1  0  0  3  0  0  0  0  0  0
  161.5240  210.2270  151.8740 C   0  0  0  0  0  3  0  0  0  0  0  0
  161.4920  202.1540  148.6110 C   0  0  1  0  0  3  0  0  0  0  0  0
  161.6710  206.3050  148.6230 C   0  0  0  0  0  0  0  0  0  0  0  0
  160.7380  204.2310  149.3950 N   0  0  0  0  0  0  0  0  0  0  0  0
  160.0880  201.8770  150.1700 C   0  0  0  0  0  2  0  0  0  0  0  0
  161.0750  200.9620  149.4420 C   0  0  0  0  0  2  0  0  0  0  0  0
  161.4690  203.2840  146.4100 C   0  0  0  0  0  3  0  0  0  0  0  0
  160.8570  208.1010  152.4650 C   0  0  0  0  0  0  0  0  0  0  0  0
  160.8560  207.1620  155.3670 C   0  0  0  0  0  3  0  0  0  0  0  0
  160.5200  204.7740  150.6710 N   0  0  0  0  0  2  0  0  0  0  0  0
  161.4550  204.5450  146.9170 C   0  0  0  0  0  3  0  0  0  0  0  0
  160.7110  206.6170  152.3790 C   0  0  1  0  0  3  0  0  0  0  0  0
  161.0760  210.1850  153.2660 N   0  0  0  0  0  0  0  0  0  0  0  0
  161.3070  205.0420  148.3360 C   0  0  0  0  0  0  0  0  0  0  0  0
  161.4050  202.0640  147.1760 N   0  0  0  0  0  2  0  0  0  0  0  0
  160.3960  208.3350  154.9080 C   0  0  0  0  0  0  0  0  0  0  0  0
  161.4970  206.8610  149.9930 C   0  0  0  0  0  0  0  0  0  0  0  0
  160.2830  202.8980  149.0650 C   0  0  2  0  0  3  0  0  0  0  0  0
  160.9310  206.1100  150.9710 C   0  0  0  0  0  0  0  0  0  0  0  0
  162.7200  208.4860  147.8900 C   0  0  0  0  0  2  0  0  0  0  0  0
  161.6690  206.1610  154.6420 C   0  0  0  0  0  3  0  0  0  0  0  0
  162.1870  207.1630  147.5930 N   0  0  0  0  0  2  0  0  0  0  0  0
  161.6490  205.9330  153.3270 C   0  0  0  0  0  3  0  0  0  0  0  0
  160.7180  208.8370  153.5470 C   0  0  0  0  0  0  0  0  0  0  0  0
  161.9200  209.1340  149.0140 C   0  0  0  0  0  2  0  0  0  0  0  0
  161.2970  208.8780  151.3710 N   0  0  0  0  0  0  0  0  0  0  0  0
  159.6400  209.1300  155.8290 N   0  0  0  0  0  2  0  0  0  0  0  0
  160.1720  210.1960  156.6710 C   0  0  0  0  0  2  0  0  0  0  0  0
  159.2320  213.3280  155.0200 N   0  0  0  0  0  2  0  0  0  0  0  0
  158.1530  211.2700  155.6350 C   0  0  0  0  0  2  0  0  0  0  0  0
  159.3400  211.4650  156.5360 C   0  0  2  0  0  3  0  0  0  0  0  0
  157.9410  212.6450  155.0490 C   0  0  0  0  0  2  0  0  0  0  0  0
  160.1440  212.5420  155.8460 C   0  0  0  0  0  2  0  0  0  0  0  0
  1 26  1  6  0  0  0
  1 27  1  0  0  0  0
  2 14  2  0  0  0  0
  3 19  1  0  0  0  0
  3  7  1  1  0  0  0
  4 18  1  0  0  0  0
  5 11  1  0  0  0  0
  7  6  1  0  0  0  0
  8 12  2  0  0  0  0
  8 16  1  0  0  0  0
  9 25  2  0  0  0  0
 11 20  1  0  0  0  0
 12 15  1  0  0  0  0
 13  9  1  0  0  0  0
 13 24  1  1  0  0  0
 14 25  1  0  0  0  0
 15  4  2  0  0  0  0
 15  5  1  0  0  0  0
 16  3  1  0  0  0  0
 17 10  2  0  0  0  0
 17 28  1  0  0  0  0
 18  1  1  0  0  0  0
 18 20  2  0  0  0  0
 19  5  1  0  0  0  0
 19  6  1  1  0  0  0
 20 13  1  0  0  0  0
 21 26  1  0  0  0  0
 22 10  1  0  0  0  0
 23 21  1  0  0  0  0
 23  4  1  0  0  0  0
 24 22  2  0  0  0  0
 25 17  1  0  0  0  0
 27  2  1  0  0  0  0
 27  9  1  0  0  0  0
 28 29  1  0  0  0  0
 30 33  1  0  0  0  0
 30 34  1  0  0  0  0
 31 32  1  0  0  0  0
 32 29  1  6  0  0  0
 33 31  1  0  0  0  0
 34 32  1  0  0  0  0
M  END
>  <MODEL>
1

>  <REMARK>
 VINA RESULT:      -8.5      0.000      0.000
  Name = 
  3 active torsions:
  status: ('A' for Active; 'I' for Inactive)
    1  A    between atoms: C_17  and  N_28
    2  A    between atoms: N_28  and  C_29
    3  A    between atoms: C_29  and  C_32
                            x       y       z     vdW  Elec       q    Type
                         _______ _______ _______ _____ _____    ______ ____

>  <TORSDO>
F 3

$$$$
=
 OpenBabel11122414163D

 34 41  0  0  1  0  0  0  0  0999 V2000
  161.3360  207.8810  154.5940 C   0  0  1  0  0  3  0  0  0  0  0  0
  162.1980  205.8990  153.1720 C   0  0  0  0  0  3  0  0  0  0  0  0
  158.3260  213.4460  155.1420 C   0  0  1  0  0  3  0  0  0  0  0  0
  159.7480  209.5820  155.7030 C   0  0  0  0  0  0  0  0  0  0  0  0
  158.6490  211.2540  154.3740 N   0  0  0  0  0  0  0  0  0  0  0  0
  157.7070  213.2820  153.1240 C   0  0  0  0  0  2  0  0  0  0  0  0
  157.9600  214.4530  154.0760 C   0  0  0  0  0  2  0  0  0  0  0  0
  157.7160  212.3220  157.2600 C   0  0  0  0  0  3  0  0  0  0  0  0
  161.2330  207.7030  152.1090 C   0  0  0  0  0  0  0  0  0  0  0  0
  162.1800  208.6530  149.3700 C   0  0  0  0  0  3  0  0  0  0  0  0
  159.1700  210.6980  153.1960 N   0  0  0  0  0  2  0  0  0  0  0  0
  158.3030  211.1370  156.9470 C   0  0  0  0  0  2  0  0  0  0  0  0
  160.6210  209.0560  151.9490 C   0  0  1  0  0  3  0  0  0  0  0  0
  162.3950  205.8230  151.7250 N   0  0  0  0  0  0  0  0  0  0  0  0
  158.9310  210.6500  155.6620 C   0  0  0  0  0  0  0  0  0  0  0  0
  157.6150  213.4710  156.3940 N   0  0  0  0  0  0  0  0  0  0  0  0
  161.9490  207.3840  149.7380 C   0  0  0  0  0  0  0  0  0  0  0  0
  160.3510  209.0300  154.4590 C   0  0  0  0  0  0  0  0  0  0  0  0
  157.7150  212.3580  154.3270 C   0  0  2  0  0  3  0  0  0  0  0  0
  160.0560  209.5760  153.2530 C   0  0  0  0  0  0  0  0  0  0  0  0
  160.9950  207.8480  157.0570 C   0  0  0  0  0  2  0  0  0  0  0  0
  162.2590  209.8490  150.2380 C   0  0  0  0  0  3  0  0  0  0  0  0
  160.0110  208.9180  156.9490 N   0  0  0  0  0  2  0  0  0  0  0  0
  161.6140  210.0290  151.3920 C   0  0  0  0  0  3  0  0  0  0  0  0
  161.7980  206.9850  151.1610 C   0  0  0  0  0  0  0  0  0  0  0  0
  160.9880  206.9990  155.7910 C   0  0  0  0  0  2  0  0  0  0  0  0
  161.3800  207.0890  153.3720 N   0  0  0  0  0  0  0  0  0  0  0  0
  161.9380  206.4060  148.6920 N   0  0  0  0  0  2  0  0  0  0  0  0
  160.7560  205.7230  148.1790 C   0  0  0  0  0  2  0  0  0  0  0  0
  161.6150  205.5370  144.6220 N   0  0  0  0  0  2  0  0  0  0  0  0
  162.5550  204.7820  146.7020 C   0  0  0  0  0  2  0  0  0  0  0  0
  161.0770  204.9660  146.8960 C   0  0  2  0  0  3  0  0  0  0  0  0
  162.7010  204.7470  145.2000 C   0  0  0  0  0  2  0  0  0  0  0  0
  160.6540  205.7800  145.6940 C   0  0  0  0  0  2  0  0  0  0  0  0
  1 26  1  1  0  0  0
  2 27  1  0  0  0  0
  3  7  1  6  0  0  0
  3 16  1  0  0  0  0
  4 23  1  0  0  0  0
  5 15  1  0  0  0  0
  6  7  1  0  0  0  0
  9 27  1  0  0  0  0
 10 17  2  0  0  0  0
 10 22  1  0  0  0  0
 11 20  1  0  0  0  0
 11  5  1  0  0  0  0
 12  8  1  0  0  0  0
 13 24  1  1  0  0  0
 13  9  1  0  0  0  0
 13 20  1  0  0  0  0
 14  2  2  0  0  0  0
 15  4  2  0  0  0  0
 15 12  1  0  0  0  0
 16  8  2  0  0  0  0
 17 25  1  0  0  0  0
 18  1  1  0  0  0  0
 18  4  1  0  0  0  0
 19  6  1  6  0  0  0
 19  5  1  0  0  0  0
 19  3  1  0  0  0  0
 20 18  2  0  0  0  0
 22 24  2  0  0  0  0
 23 21  1  0  0  0  0
 25 14  1  0  0  0  0
 25  9  2  0  0  0  0
 26 21  1  0  0  0  0
 27  1  1  0  0  0  0
 28 17  1  0  0  0  0
 29 28  1  0  0  0  0
 30 33  1  0  0  0  0
 30 34  1  0  0  0  0
 31 32  1  0  0  0  0
 32 29  1  1  0  0  0
 33 31  1  0  0  0  0
 34 32  1  0  0  0  0
M  END
>  <MODEL>
2

>  <REMARK>
 VINA RESULT:      -8.0      2.025      9.340
  Name = 
  3 active torsions:
  status: ('A' for Active; 'I' for Inactive)
    1  A    between atoms: C_17  and  N_28
    2  A    between atoms: N_28  and  C_29
    3  A    between atoms: C_29  and  C_32
                            x       y       z     vdW  Elec       q    Type
                         _______ _______ _______ _____ _____    ______ ____

>  <TORSDO>
F 3

$$$$
=
 OpenBabel11122414163D

 34 41  0  0  1  0  0  0  0  0999 V2000
  162.0320  208.2200  150.2130 C   0  0  1  0  0  3  0  0  0  0  0  0
  161.5210  210.1340  151.8770 C   0  0  0  0  0  3  0  0  0  0  0  0
  161.5200  202.1680  148.3600 C   0  0  1  0  0  3  0  0  0  0  0  0
  161.7060  206.3160  148.5060 C   0  0  0  0  0  0  0  0  0  0  0  0
  160.7590  204.2210  149.1990 N   0  0  0  0  0  0  0  0  0  0  0  0
  160.0920  201.8460  149.8890 C   0  0  0  0  0  2  0  0  0  0  0  0
  161.0880  200.9520  149.1470 C   0  0  0  0  0  2  0  0  0  0  0  0
  161.5300  203.3680  146.1960 C   0  0  0  0  0  3  0  0  0  0  0  0
  160.8410  207.9920  152.3910 C   0  0  0  0  0  0  0  0  0  0  0  0
  160.7970  206.9620  155.2620 C   0  0  0  0  0  3  0  0  0  0  0  0
  160.5230  204.7240  150.4880 N   0  0  0  0  0  2  0  0  0  0  0  0
  161.5120  204.6120  146.7420 C   0  0  0  0  0  3  0  0  0  0  0  0
  160.6940  206.5110  152.2560 C   0  0  1  0  0  3  0  0  0  0  0  0
  161.0530  210.0490  153.2600 N   0  0  0  0  0  0  0  0  0  0  0  0
  161.3440  205.0640  148.1750 C   0  0  0  0  0  0  0  0  0  0  0  0
  161.4530  202.1240  146.9220 N   0  0  0  0  0  2  0  0  0  0  0  0
  160.3460  208.1500  154.8340 C   0  0  0  0  0  0  0  0  0  0  0  0
  161.5140  206.8290  149.8900 C   0  0  0  0  0  0  0  0  0  0  0  0
  160.3060  202.9010  148.8200 C   0  0  2  0  0  3  0  0  0  0  0  0
  160.9330  206.0490  150.8360 C   0  0  0  0  0  0  0  0  0  0  0  0
  162.7710  208.5170  147.8570 C   0  0  0  0  0  2  0  0  0  0  0  0
  161.6180  205.9820  154.5170 C   0  0  0  0  0  3  0  0  0  0  0  0
  162.2390  207.2050  147.5110 N   0  0  0  0  0  2  0  0  0  0  0  0
  161.6160  205.7960  153.1950 C   0  0  0  0  0  3  0  0  0  0  0  0
  160.6880  208.6940  153.4940 C   0  0  0  0  0  0  0  0  0  0  0  0
  161.9560  209.1310  148.9900 C   0  0  0  0  0  2  0  0  0  0  0  0
  161.2980  208.8020  151.3290 N   0  0  0  0  0  0  0  0  0  0  0  0
  159.5780  208.9170  155.7680 N   0  0  0  0  0  2  0  0  0  0  0  0
  160.1210  209.7620  156.8260 C   0  0  0  0  0  2  0  0  0  0  0  0
  162.9680  212.0260  157.2610 N   0  0  0  0  0  2  0  0  0  0  0  0
  162.6110  209.6530  157.1210 C   0  0  0  0  0  2  0  0  0  0  0  0
  161.4720  210.3400  156.4230 C   0  0  2  0  0  3  0  0  0  0  0  0
  163.6560  210.7380  157.2170 C   0  0  0  0  0  2  0  0  0  0  0  0
  161.5800  211.7760  156.8830 C   0  0  0  0  0  2  0  0  0  0  0  0
  1 26  1  6  0  0  0
  1 27  1  0  0  0  0
  2 14  2  0  0  0  0
  3 19  1  0  0  0  0
  3  7  1  1  0  0  0
  4 18  1  0  0  0  0
  5 11  1  0  0  0  0
  7  6  1  0  0  0  0
  8 12  2  0  0  0  0
  8 16  1  0  0  0  0
  9 25  2  0  0  0  0
 11 20  1  0  0  0  0
 12 15  1  0  0  0  0
 13  9  1  0  0  0  0
 13 24  1  1  0  0  0
 14 25  1  0  0  0  0
 15  4  2  0  0  0  0
 15  5  1  0  0  0  0
 16  3  1  0  0  0  0
 17 10  2  0  0  0  0
 17 28  1  0  0  0  0
 18  1  1  0  0  0  0
 18 20  2  0  0  0  0
 19  5  1  0  0  0  0
 19  6  1  1  0  0  0
 20 13  1  0  0  0  0
 21 26  1  0  0  0  0
 22 10  1  0  0  0  0
 23 21  1  0  0  0  0
 23  4  1  0  0  0  0
 24 22  2  0  0  0  0
 25 17  1  0  0  0  0
 27  2  1  0  0  0  0
 27  9  1  0  0  0  0
 28 29  1  0  0  0  0
 31 33  1  0  0  0  0
 32 29  1  1  0  0  0
 32 34  1  0  0  0  0
 32 31  1  0  0  0  0
 33 30  1  0  0  0  0
 34 30  1  0  0  0  0
M  END
>  <MODEL>
3

>  <REMARK>
 VINA RESULT:      -7.7      1.206      1.690
  Name = 
  3 active torsions:
  status: ('A' for Active; 'I' for Inactive)
    1  A    between atoms: C_17  and  N_28
    2  A    between atoms: N_28  and  C_29
    3  A    between atoms: C_29  and  C_32
                            x       y       z     vdW  Elec       q    Type
                         _______ _______ _______ _____ _____    ______ ____

>  <TORSDO>
F 3

$$$$
=
 OpenBabel11122414163D

 34 41  0  0  1  0  0  0  0  0999 V2000
  161.3910  207.4670  149.2820 C   0  0  1  0  0  3  0  0  0  0  0  0
  161.9980  205.7440  147.4500 C   0  0  0  0  0  3  0  0  0  0  0  0
  160.1920  208.9680  155.3340 C   0  0  1  0  0  3  0  0  0  0  0  0
  161.5280  208.9300  151.4010 C   0  0  0  0  0  0  0  0  0  0  0  0
  161.3400  207.9280  153.5750 N   0  0  0  0  0  0  0  0  0  0  0  0
  160.8040  207.0260  155.9120 C   0  0  0  0  0  2  0  0  0  0  0  0
  159.8530  208.0700  156.5020 C   0  0  0  0  0  2  0  0  0  0  0  0
  161.3450  211.0010  154.5210 C   0  0  0  0  0  3  0  0  0  0  0  0
  161.6200  205.0050  149.6000 C   0  0  0  0  0  0  0  0  0  0  0  0
  160.3250  202.3020  150.1690 C   0  0  0  0  0  3  0  0  0  0  0  0
  161.3050  206.6440  153.0090 N   0  0  0  0  0  2  0  0  0  0  0  0
  161.6440  210.4940  153.2960 C   0  0  0  0  0  3  0  0  0  0  0  0
  161.2390  205.0670  151.0440 C   0  0  1  0  0  3  0  0  0  0  0  0
  161.9150  204.2850  147.4970 N   0  0  0  0  0  0  0  0  0  0  0  0
  161.4850  209.1000  152.7340 C   0  0  0  0  0  0  0  0  0  0  0  0
  160.7080  210.2870  155.6000 N   0  0  0  0  0  2  0  0  0  0  0  0
  161.3010  202.5490  149.2830 C   0  0  0  0  0  0  0  0  0  0  0  0
  161.4280  207.5720  150.7970 C   0  0  0  0  0  0  0  0  0  0  0  0
  161.3650  208.1090  155.0100 C   0  0  2  0  0  3  0  0  0  0  0  0
  161.3290  206.4760  151.5890 C   0  0  0  0  0  0  0  0  0  0  0  0
  161.6390  209.9330  149.0810 C   0  0  0  0  0  2  0  0  0  0  0  0
  159.4940  203.2850  150.8990 C   0  0  0  0  0  3  0  0  0  0  0  0
  161.7260  210.0560  150.5310 N   0  0  0  0  0  2  0  0  0  0  0  0
  159.8630  204.5170  151.2570 C   0  0  0  0  0  3  0  0  0  0  0  0
  161.6500  203.9260  148.8470 C   0  0  0  0  0  0  0  0  0  0  0  0
  162.2010  208.5880  148.6340 C   0  0  0  0  0  2  0  0  0  0  0  0
  161.8760  206.1670  148.8390 N   0  0  0  0  0  0  0  0  0  0  0  0
  161.9440  201.4060  148.7050 N   0  0  0  0  0  2  0  0  0  0  0  0
  161.2890  200.3680  147.9180 C   0  0  0  0  0  2  0  0  0  0  0  0
  160.0620  200.0160  144.4840 N   0  0  0  0  0  2  0  0  0  0  0  0
  160.1900  201.7560  146.1380 C   0  0  0  0  0  2  0  0  0  0  0  0
  161.2560  200.7410  146.4410 C   0  0  2  0  0  3  0  0  0  0  0  0
  159.8130  201.4380  144.7110 C   0  0  0  0  0  2  0  0  0  0  0  0
  160.8600  199.5420  145.6110 C   0  0  0  0  0  2  0  0  0  0  0  0
  1 26  1  6  0  0  0
  1 18  1  0  0  0  0
  2 14  2  0  0  0  0
  2 27  1  0  0  0  0
  3 16  1  0  0  0  0
  3  7  1  1  0  0  0
  4 15  2  0  0  0  0
  5 19  1  0  0  0  0
  6  7  1  0  0  0  0
  8 16  1  0  0  0  0
  9 13  1  0  0  0  0
 10 22  1  0  0  0  0
 11  5  1  0  0  0  0
 12  8  2  0  0  0  0
 13 24  1  6  0  0  0
 13 20  1  0  0  0  0
 14 25  1  0  0  0  0
 15 12  1  0  0  0  0
 15  5  1  0  0  0  0
 17 10  2  0  0  0  0
 18  4  1  0  0  0  0
 18 20  2  0  0  0  0
 19  3  1  0  0  0  0
 19  6  1  1  0  0  0
 20 11  1  0  0  0  0
 21 23  1  0  0  0  0
 22 24  2  0  0  0  0
 23  4  1  0  0  0  0
 25 17  1  0  0  0  0
 25  9  2  0  0  0  0
 26 21  1  0  0  0  0
 27  1  1  0  0  0  0
 27  9  1  0  0  0  0
 28 17  1  0  0  0  0
 29 28  1  0  0  0  0
 30 33  1  0  0  0  0
 30 34  1  0  0  0  0
 31 32  1  0  0  0  0
 32 29  1  1  0  0  0
 33 31  1  0  0  0  0
 34 32  1  0  0  0  0
M  END
>  <MODEL>
4

>  <REMARK>
 VINA RESULT:      -5.9      1.819      8.775
  Name = 
  3 active torsions:
  status: ('A' for Active; 'I' for Inactive)
    1  A    between atoms: C_17  and  N_28
    2  A    between atoms: N_28  and  C_29
    3  A    between atoms: C_29  and  C_32
                            x       y       z     vdW  Elec       q    Type
                         _______ _______ _______ _____ _____    ______ ____

>  <TORSDO>
F 3

$$$$
=
 OpenBabel11122414163D

 34 41  0  0  1  0  0  0  0  0999 V2000
  160.6570  204.6840  151.7740 C   0  0  1  0  0  3  0  0  0  0  0  0
  161.1850  205.8810  154.0060 C   0  0  0  0  0  3  0  0  0  0  0  0
  160.9840  204.3120  145.4440 C   0  0  1  0  0  3  0  0  0  0  0  0
  160.9680  203.4830  149.5140 C   0  0  0  0  0  0  0  0  0  0  0  0
  161.7980  204.6870  147.6100 N   0  0  0  0  0  0  0  0  0  0  0  0
  162.3360  205.9410  145.4420 C   0  0  0  0  0  2  0  0  0  0  0  0
  161.3330  205.3790  144.4320 C   0  0  0  0  0  2  0  0  0  0  0  0
  161.1090  201.9310  146.1040 C   0  0  0  0  0  3  0  0  0  0  0  0
  161.7520  206.9100  152.0230 C   0  0  0  0  0  0  0  0  0  0  0  0
  161.6400  209.9400  151.6910 C   0  0  0  0  0  3  0  0  0  0  0  0
  162.0040  205.8340  148.3920 N   0  0  0  0  0  2  0  0  0  0  0  0
  161.1590  202.1730  147.4400 C   0  0  0  0  0  2  0  0  0  0  0  0
  161.8410  207.1300  150.5480 C   0  0  1  0  0  3  0  0  0  0  0  0
  161.5940  207.2670  154.2310 N   0  0  0  0  0  0  0  0  0  0  0  0
  161.2900  203.4680  148.2090 C   0  0  0  0  0  0  0  0  0  0  0  0
  161.1050  202.9280  145.0620 N   0  0  0  0  0  0  0  0  0  0  0  0
  162.1580  209.2700  152.7310 C   0  0  0  0  0  0  0  0  0  0  0  0
  161.1280  204.7180  150.3300 C   0  0  0  0  0  0  0  0  0  0  0  0
  162.2090  204.6480  146.2240 C   0  0  2  0  0  3  0  0  0  0  0  0
  161.6380  205.8450  149.7740 C   0  0  0  0  0  0  0  0  0  0  0  0
  160.0240  202.2910  151.5360 C   0  0  0  0  0  2  0  0  0  0  0  0
  160.8080  209.4040  150.5910 C   0  0  0  0  0  3  0  0  0  0  0  0
  160.5130  202.2840  150.1630 N   0  0  0  0  0  2  0  0  0  0  0  0
  160.8530  208.1630  150.1020 C   0  0  0  0  0  3  0  0  0  0  0  0
  161.8920  207.8260  152.9580 C   0  0  0  0  0  0  0  0  0  0  0  0
  160.8200  203.2880  152.3710 C   0  0  0  0  0  2  0  0  0  0  0  0
  161.3710  205.6680  152.5770 N   0  0  0  0  0  0  0  0  0  0  0  0
  162.9200  210.0370  153.6700 N   0  0  0  0  0  2  0  0  0  0  0  0
  162.3930  210.6970  154.8590 C   0  0  0  0  0  2  0  0  0  0  0  0
  159.1830  210.8150  156.6230 N   0  0  0  0  0  2  0  0  0  0  0  0
  160.1720  211.8580  154.6950 C   0  0  0  0  0  2  0  0  0  0  0  0
  160.8780  210.5530  154.9360 C   0  0  2  0  0  3  0  0  0  0  0  0
  158.9070  211.7150  155.5050 C   0  0  0  0  0  2  0  0  0  0  0  0
  160.4640  210.1720  156.3380 C   0  0  0  0  0  2  0  0  0  0  0  0
  1 26  1  1  0  0  0
  1 27  1  0  0  0  0
  2 14  2  0  0  0  0
  3  7  1  6  0  0  0
  3 19  1  0  0  0  0
  4 23  1  0  0  0  0
  4 18  1  0  0  0  0
  5 15  1  0  0  0  0
  5 11  1  0  0  0  0
  7  6  1  0  0  0  0
  8 12  1  0  0  0  0
  9 27  1  0  0  0  0
  9 25  2  0  0  0  0
 10 17  2  0  0  0  0
 11 20  1  0  0  0  0
 12 15  1  0  0  0  0
 13 24  1  6  0  0  0
 13  9  1  0  0  0  0
 15  4  2  0  0  0  0
 16  3  1  0  0  0  0
 16  8  2  0  0  0  0
 17 25  1  0  0  0  0
 17 28  1  0  0  0  0
 18  1  1  0  0  0  0
 19  6  1  6  0  0  0
 19  5  1  0  0  0  0
 20 18  2  0  0  0  0
 20 13  1  0  0  0  0
 21 26  1  0  0  0  0
 22 10  1  0  0  0  0
 23 21  1  0  0  0  0
 24 22  2  0  0  0  0
 25 14  1  0  0  0  0
 27  2  1  0  0  0  0
 28 29  1  0  0  0  0
 31 32  1  0  0  0  0
 31 33  1  0  0  0  0
 32 29  1  1  0  0  0
 32 34  1  0  0  0  0
 33 30  1  0  0  0  0
 34 30  1  0  0  0  0
M  END
>  <MODEL>
5

>  <REMARK>
 VINA RESULT:      -5.8      1.721      3.839
  Name = 
  3 active torsions:
  status: ('A' for Active; 'I' for Inactive)
    1  A    between atoms: C_17  and  N_28
    2  A    between atoms: N_28  and  C_29
    3  A    between atoms: C_29  and  C_32
                            x       y       z     vdW  Elec       q    Type
                         _______ _______ _______ _____ _____    ______ ____

>  <TORSDO>
F 3

$$$$
