=
 OpenBabel11122413403D

 37 43  0  0  1  0  0  0  0  0999 V2000
  161.8140  210.6100  154.6410 C   0  0  0  0  0  2  0  0  0  0  0  0
  161.9580  206.7650  151.3710 C   0  0  1  0  0  0  0  0  0  0  0  0
  160.7650  210.8490  151.3640 C   0  0  1  0  0  3  0  0  0  0  0  0
  162.5680  210.6080  155.9800 C   0  0  2  0  0  3  0  0  0  0  0  0
  158.1680  211.9470  154.0660 C   0  0  0  0  0  2  0  0  0  0  0  0
  161.9720  208.9780  150.0900 C   0  0  1  0  0  3  0  0  0  0  0  0
  159.6370  210.7930  152.3790 C   0  0  2  0  0  3  0  0  0  0  0  0
  160.5610  211.8880  156.8580 C   0  0  0  0  0  0  0  0  0  0  0  0
  160.8930  209.3950  151.0940 C   0  0  1  0  0  3  0  0  0  0  0  0
  159.4250  212.0840  153.2050 C   0  0  1  0  0  3  0  0  0  0  0  0
  162.7860  210.1840  149.6000 C   0  0  0  0  0  2  0  0  0  0  0  0
  161.7260  211.0100  157.2040 C   0  0  0  0  0  2  0  0  0  0  0  0
  161.0500  208.8070  152.3980 N   0  0  2  0  0  0  0  0  0  0  0  0
  162.7830  206.0020  152.1760 F   0  0  0  0  0  0  0  0  0  0  0  0
  160.1620  212.8760  150.0080 O   0  0  0  0  0  0  0  0  0  0  0  0
  161.8710  211.3510  149.1430 C   0  0  0  0  0  2  0  0  0  0  0  0
  160.8360  207.3740  152.2500 C   0  0  0  0  0  2  0  0  0  0  0  0
  159.5010  211.3720  156.0400 N   0  0  0  0  0  0  0  0  0  0  0  0
  158.4620  212.2560  155.5270 C   0  0  0  0  0  2  0  0  0  0  0  0
  160.5990  211.5350  150.0060 C   0  0  1  0  0  3  0  0  0  0  0  0
  160.0180  209.4880  153.1880 C   0  0  1  0  0  3  0  0  0  0  0  0
  162.8270  207.8370  150.6590 C   0  0  0  0  0  2  0  0  0  0  0  0
  159.3550  213.4030  152.4010 C   0  0  1  0  0  3  0  0  0  0  0  0
  161.3770  205.9380  150.4110 O   0  0  0  0  0  1  0  0  0  0  0  0
  159.5070  209.9600  155.6570 C   0  0  0  0  0  2  0  0  0  0  0  0
  160.5400  213.0810  157.2610 O   0  0  0  0  0  0  0  0  0  0  0  0
  160.5900  209.6760  154.6080 C   0  0  2  0  0  3  0  0  0  0  0  0
  160.8200  213.7390  151.3560 S   0  0  0  0  0  0  0  0  0  0  0  0
  156.9570  214.1300  152.4670 C   0  0  0  0  0  3  0  0  0  0  0  0
  158.0490  213.6940  151.7060 C   0  0  0  0  0  0  0  0  0  0  0  0
  157.9120  213.5610  150.3160 C   0  0  0  0  0  3  0  0  0  0  0  0
  156.5330  213.6820  147.9630 Cl  0  0  0  0  0  0  0  0  0  0  0  0
  155.6070  214.2840  150.4630 C   0  0  0  0  0  3  0  0  0  0  0  0
  156.6940  213.8530  149.6970 C   0  0  0  0  0  0  0  0  0  0  0  0
  155.7390  214.4230  151.8470 C   0  0  0  0  0  3  0  0  0  0  0  0
  164.2260  211.4690  157.1660 C   0  0  0  0  0  1  0  0  0  0  0  0
  163.6760  211.4520  155.8830 O   0  0  0  0  0  0  0  0  0  0  0  0
  1  4  1  0  0  0  0
  2 24  1  6  0  0  0
  2 14  1  0  0  0  0
  2 17  1  0  0  0  0
  3  7  1  0  0  0  0
  4 12  1  0  0  0  0
  5 19  1  0  0  0  0
  6 22  1  0  0  0  0
  6  9  1  0  0  0  0
  7 21  1  0  0  0  0
  7 10  1  0  0  0  0
  8 12  1  0  0  0  0
  8 26  2  0  0  0  0
  9  3  1  0  0  0  0
  9 13  1  0  0  0  0
 10  5  1  0  0  0  0
 11  6  1  0  0  0  0
 13 21  1  0  0  0  0
 15 28  1  0  0  0  0
 16 11  1  0  0  0  0
 16 20  1  0  0  0  0
 17 13  1  0  0  0  0
 18  8  1  0  0  0  0
 19 18  1  0  0  0  0
 20 15  1  0  0  0  0
 20  3  1  0  0  0  0
 21 27  1  0  0  0  0
 22  2  1  0  0  0  0
 23 10  1  0  0  0  0
 25 18  1  0  0  0  0
 27  1  1  0  0  0  0
 27 25  1  0  0  0  0
 28 23  1  0  0  0  0
 30 23  1  0  0  0  0
 30 29  2  0  0  0  0
 31 30  1  0  0  0  0
 32 34  1  0  0  0  0
 33 35  2  0  0  0  0
 34 31  2  0  0  0  0
 34 33  1  0  0  0  0
 35 29  1  0  0  0  0
 37  4  1  0  0  0  0
 37 36  1  0  0  0  0
M  END
>  <MODEL>
1

>  <REMARK>
 VINA RESULT:      -2.5      0.000      0.000
  Name = 
  2 active torsions:
  status: ('A' for Active; 'I' for Inactive)
    1  A    between atoms: C_4  and  O_37
    2  A    between atoms: C_23  and  C_30
                            x       y       z     vdW  Elec       q    Type
                         _______ _______ _______ _____ _____    ______ ____

>  <TORSDO>
F 2

$$$$
=
 OpenBabel11122413403D

 37 43  0  0  1  0  0  0  0  0999 V2000
  161.9440  210.5950  154.6680 C   0  0  0  0  0  2  0  0  0  0  0  0
  161.9240  206.6580  151.5050 C   0  0  1  0  0  0  0  0  0  0  0  0
  160.7770  210.7550  151.4250 C   0  0  1  0  0  3  0  0  0  0  0  0
  162.7470  210.6200  155.9770 C   0  0  2  0  0  3  0  0  0  0  0  0
  158.2950  211.9600  154.1880 C   0  0  0  0  0  2  0  0  0  0  0  0
  161.9150  208.8340  150.1620 C   0  0  1  0  0  3  0  0  0  0  0  0
  159.6870  210.7410  152.4820 C   0  0  2  0  0  3  0  0  0  0  0  0
  160.7890  211.9500  156.8920 C   0  0  0  0  0  0  0  0  0  0  0  0
  160.8780  209.2930  151.1930 C   0  0  1  0  0  3  0  0  0  0  0  0
  159.5200  212.0570  153.2790 C   0  0  1  0  0  3  0  0  0  0  0  0
  162.7230  210.0160  149.6080 C   0  0  0  0  0  2  0  0  0  0  0  0
  161.9550  211.0670  157.2190 C   0  0  0  0  0  2  0  0  0  0  0  0
  161.0770  208.7390  152.5060 N   0  0  2  0  0  0  0  0  0  0  0  0
  162.7680  205.9080  152.3000 F   0  0  0  0  0  0  0  0  0  0  0  0
  160.1470  212.7500  150.0350 O   0  0  0  0  0  0  0  0  0  0  0  0
  161.8060  211.1800  149.1520 C   0  0  0  0  0  2  0  0  0  0  0  0
  160.8410  207.3050  152.4070 C   0  0  0  0  0  2  0  0  0  0  0  0
  159.6930  211.4240  156.1280 N   0  0  0  0  0  0  0  0  0  0  0  0
  158.6460  212.3060  155.6280 C   0  0  0  0  0  2  0  0  0  0  0  0
  160.5690  211.4050  150.0550 C   0  0  1  0  0  3  0  0  0  0  0  0
  160.0830  209.4550  153.3140 C   0  0  1  0  0  3  0  0  0  0  0  0
  162.7770  207.6990  150.7310 C   0  0  0  0  0  2  0  0  0  0  0  0
  159.4350  213.3540  152.4400 C   0  0  1  0  0  3  0  0  0  0  0  0
  161.2980  205.8120  150.5910 O   0  0  0  0  0  1  0  0  0  0  0  0
  159.6690  210.0020  155.7850 C   0  0  0  0  0  2  0  0  0  0  0  0
  160.7960  213.1540  157.2610 O   0  0  0  0  0  0  0  0  0  0  0  0
  160.7090  209.6750  154.7060 C   0  0  2  0  0  3  0  0  0  0  0  0
  160.8640  213.6420  151.3330 S   0  0  0  0  0  0  0  0  0  0  0  0
  158.0240  213.6310  150.3890 C   0  0  0  0  0  3  0  0  0  0  0  0
  158.1080  213.6410  151.7860 C   0  0  0  0  0  0  0  0  0  0  0  0
  156.9550  213.8920  152.5450 C   0  0  0  0  0  3  0  0  0  0  0  0
  154.3030  214.4530  152.8660 Cl  0  0  0  0  0  0  0  0  0  0  0  0
  155.6580  214.1310  150.5160 C   0  0  0  0  0  3  0  0  0  0  0  0
  155.7340  214.1380  151.9110 C   0  0  0  0  0  0  0  0  0  0  0  0
  156.8020  213.8770  149.7550 C   0  0  0  0  0  3  0  0  0  0  0  0
  164.4810  211.4590  157.0660 C   0  0  0  0  0  1  0  0  0  0  0  0
  163.8600  211.4470  155.8160 O   0  0  0  0  0  0  0  0  0  0  0  0
  1 27  1  0  0  0  0
  1  4  1  0  0  0  0
  2 24  1  6  0  0  0
  2 14  1  0  0  0  0
  2 17  1  0  0  0  0
  3  7  1  0  0  0  0
  4 12  1  0  0  0  0
  5 19  1  0  0  0  0
  6 22  1  0  0  0  0
  6  9  1  0  0  0  0
  7 10  1  0  0  0  0
  7 21  1  0  0  0  0
  8 12  1  0  0  0  0
  8 26  2  0  0  0  0
  9  3  1  0  0  0  0
  9 13  1  0  0  0  0
 10  5  1  0  0  0  0
 11  6  1  0  0  0  0
 13 21  1  0  0  0  0
 15 20  1  0  0  0  0
 15 28  1  0  0  0  0
 16 11  1  0  0  0  0
 16 20  1  0  0  0  0
 17 13  1  0  0  0  0
 18  8  1  0  0  0  0
 19 18  1  0  0  0  0
 20  3  1  0  0  0  0
 21 27  1  0  0  0  0
 22  2  1  0  0  0  0
 23 10  1  0  0  0  0
 25 18  1  0  0  0  0
 27 25  1  0  0  0  0
 28 23  1  0  0  0  0
 29 30  1  0  0  0  0
 30 23  1  0  0  0  0
 30 31  2  0  0  0  0
 33 34  2  0  0  0  0
 34 31  1  0  0  0  0
 34 32  1  0  0  0  0
 35 29  2  0  0  0  0
 35 33  1  0  0  0  0
 37  4  1  0  0  0  0
 37 36  1  0  0  0  0
M  END
>  <MODEL>
2

>  <REMARK>
 VINA RESULT:      -2.1      0.912      1.208
  Name = 
  2 active torsions:
  status: ('A' for Active; 'I' for Inactive)
    1  A    between atoms: C_4  and  O_37
    2  A    between atoms: C_23  and  C_30
                            x       y       z     vdW  Elec       q    Type
                         _______ _______ _______ _____ _____    ______ ____

>  <TORSDO>
F 2

$$$$
