=
 OpenBabel11122414343D

 34 40  0  0  1  0  0  0  0  0999 V2000
  160.9360  208.8010  152.8590 C   0  0  0  0  0  0  0  0  0  0  0  0
  160.9450  206.3200  153.5580 C   0  0  0  0  0  3  0  0  0  0  0  0
  162.0610  213.7060  148.6300 C   0  0  0  0  0  0  0  0  0  0  0  0
  160.9660  211.0570  152.0230 C   0  0  0  0  0  0  0  0  0  0  0  0
  161.7800  211.4390  149.6590 C   0  0  0  0  0  0  0  0  0  0  0  0
  162.9050  211.6060  147.4800 C   0  0  0  0  0  1  0  0  0  0  0  0
  163.0560  214.4530  148.0110 O   0  0  0  0  0  1  0  0  0  0  0  0
  159.8270  213.7920  149.7880 C   0  0  0  0  0  3  0  0  0  0  0  0
  161.5680  206.9110  151.3680 C   0  0  0  0  0  0  0  0  0  0  0  0
  160.6060  205.2570  148.9690 C   0  0  0  0  0  3  0  0  0  0  0  0
  161.9240  210.0100  149.5450 N   0  0  0  0  0  0  0  0  0  0  0  0
  159.8820  212.7270  150.5840 C   0  0  0  0  0  3  0  0  0  0  0  0
  161.8170  207.7210  150.3320 C   0  0  0  0  0  0  0  0  0  0  0  0
  161.3820  205.0520  152.8030 C   0  0  0  0  0  3  0  0  0  0  0  0
  161.1720  212.0480  150.9090 C   0  0  0  0  0  0  0  0  0  0  0  0
  160.9920  214.3700  149.0950 C   0  0  0  0  0  2  0  0  0  0  0  0
  160.5290  204.8840  150.4380 C   0  0  2  0  0  3  0  0  0  0  0  0
  161.1660  209.6930  151.8080 C   0  0  0  0  0  0  0  0  0  0  0  0
  162.2080  212.2260  148.6510 C   0  0  0  0  0  0  0  0  0  0  0  0
  161.6380  209.1840  150.5060 C   0  0  0  0  0  0  0  0  0  0  0  0
  160.3500  210.6010  154.2680 C   0  0  0  0  0  3  0  0  0  0  0  0
  161.3270  206.2320  148.3830 C   0  0  0  0  0  3  0  0  0  0  0  0
  160.5650  211.4820  153.2520 N   0  0  0  0  0  0  0  0  0  0  0  0
  162.3230  207.1390  149.0500 C   0  0  0  0  0  2  0  0  0  0  0  0
  161.6480  205.4330  151.3340 C   0  0  1  0  0  3  0  0  0  0  0  0
  160.5330  209.2680  154.0700 N   0  0  0  0  0  0  0  0  0  0  0  0
  161.1440  207.4050  152.6230 N   0  0  0  0  0  0  0  0  0  0  0  0
  160.4520  203.4940  150.5530 O   0  0  0  0  0  0  0  0  0  0  0  0
  161.1500  203.0000  149.4480 C   0  0  0  0  0  2  0  0  0  0  0  0
  161.1050  201.2920  146.6740 O   0  0  0  0  0  0  0  0  0  0  0  0
  161.3960  200.6010  148.9110 C   0  0  0  0  0  2  0  0  0  0  0  0
  160.4520  201.7670  148.9020 C   0  0  2  0  0  3  0  0  0  0  0  0
  161.4900  200.1970  147.4600 C   0  0  0  0  0  2  0  0  0  0  0  0
  160.1430  201.9730  147.4360 C   0  0  0  0  0  2  0  0  0  0  0  0
  1 26  1  0  0  0  0
  3 19  2  0  0  0  0
  3 16  1  0  0  0  0
  4 23  2  0  0  0  0
  5 15  2  0  0  0  0
  6 19  1  0  0  0  0
  7  3  1  0  0  0  0
  8 12  2  0  0  0  0
  9 27  1  0  0  0  0
 10 17  1  0  0  0  0
 11  5  1  0  0  0  0
 11 20  2  0  0  0  0
 12 15  1  0  0  0  0
 13 20  1  0  0  0  0
 13  9  2  0  0  0  0
 14  2  2  0  0  0  0
 15  4  1  0  0  0  0
 16  8  1  0  0  0  0
 17 28  1  6  0  0  0
 17 25  1  0  0  0  0
 18  4  1  0  0  0  0
 18  1  2  0  0  0  0
 19  5  1  0  0  0  0
 20 18  1  0  0  0  0
 22 10  2  0  0  0  0
 22 24  1  0  0  0  0
 23 21  1  0  0  0  0
 24 13  1  0  0  0  0
 25  9  1  0  0  0  0
 25 14  1  1  0  0  0
 26 21  2  0  0  0  0
 27  1  1  0  0  0  0
 27  2  1  0  0  0  0
 29 28  1  0  0  0  0
 30 34  1  0  0  0  0
 30 33  1  0  0  0  0
 32 31  1  0  0  0  0
 32 29  1  6  0  0  0
 33 31  1  0  0  0  0
 34 32  1  0  0  0  0
M  END
>  <MODEL>
1

>  <REMARK>
 VINA RESULT:      -8.4      0.000      0.000
  Name = 
  3 active torsions:
  status: ('A' for Active; 'I' for Inactive)
    1  A    between atoms: C_17  and  O_28
    2  A    between atoms: O_28  and  C_29
    3  A    between atoms: C_29  and  C_32
                            x       y       z     vdW  Elec       q    Type
                         _______ _______ _______ _____ _____    ______ ____

>  <TORSDO>
F 3

$$$$
=
 OpenBabel11122414343D

 34 40  0  0  1  0  0  0  0  0999 V2000
  161.5570  206.0840  147.1320 C   0  0  0  0  0  0  0  0  0  0  0  0
  161.9450  208.0850  148.7100 C   0  0  0  0  0  3  0  0  0  0  0  0
  161.0310  199.6650  145.8220 C   0  0  0  0  0  0  0  0  0  0  0  0
  161.1820  204.1040  145.8190 C   0  0  0  0  0  0  0  0  0  0  0  0
  161.2260  201.8670  147.0000 C   0  0  0  0  0  0  0  0  0  0  0  0
  161.6370  199.8130  148.2840 C   0  0  0  0  0  1  0  0  0  0  0  0
  161.7440  198.4760  145.7110 O   0  0  0  0  0  1  0  0  0  0  0  0
  159.2430  201.1090  144.7960 C   0  0  0  0  0  3  0  0  0  0  0  0
  161.8450  205.9100  149.5980 C   0  0  0  0  0  0  0  0  0  0  0  0
  160.3290  205.3530  152.2070 C   0  0  0  0  0  3  0  0  0  0  0  0
  161.4280  202.5920  148.2290 N   0  0  0  0  0  0  0  0  0  0  0  0
  159.6060  202.3270  145.1890 C   0  0  0  0  0  3  0  0  0  0  0  0
  161.7180  204.5770  149.5880 C   0  0  0  0  0  0  0  0  0  0  0  0
  162.2240  208.1490  150.2220 C   0  0  0  0  0  3  0  0  0  0  0  0
  160.9780  202.6170  145.7040 C   0  0  1  0  0  3  0  0  0  0  0  0
  160.1070  199.9170  144.8850 C   0  0  0  0  0  3  0  0  0  0  0  0
  160.7180  206.7040  151.6360 C   0  0  2  0  0  3  0  0  0  0  0  0
  161.4020  204.6980  147.0620 C   0  0  0  0  0  0  0  0  0  0  0  0
  161.2800  200.5200  147.0140 C   0  0  0  0  0  0  0  0  0  0  0  0
  161.4990  203.8870  148.2910 C   0  0  0  0  0  0  0  0  0  0  0  0
  161.2940  206.2390  144.7910 C   0  0  0  0  0  3  0  0  0  0  0  0
  160.7740  204.1310  151.8600 C   0  0  0  0  0  3  0  0  0  0  0  0
  161.1360  204.8890  144.7090 N   0  0  0  0  0  0  0  0  0  0  0  0
  161.8590  203.8160  150.8670 C   0  0  0  0  0  2  0  0  0  0  0  0
  162.0130  206.7410  150.8110 C   0  0  1  0  0  3  0  0  0  0  0  0
  161.5020  206.8330  145.9980 N   0  0  0  0  0  0  0  0  0  0  0  0
  161.7810  206.6800  148.4140 N   0  0  0  0  0  0  0  0  0  0  0  0
  160.7750  207.6400  152.6720 O   0  0  0  0  0  0  0  0  0  0  0  0
  160.7880  206.8800  153.8440 C   0  0  0  0  0  2  0  0  0  0  0  0
  160.0990  209.8400  155.0180 O   0  0  0  0  0  0  0  0  0  0  0  0
  160.1380  207.7290  156.0720 C   0  0  0  0  0  2  0  0  0  0  0  0
  161.2080  207.7460  155.0190 C   0  0  2  0  0  3  0  0  0  0  0  0
  159.7280  209.1760  156.1950 C   0  0  0  0  0  2  0  0  0  0  0  0
  161.2650  209.1920  154.5820 C   0  0  0  0  0  2  0  0  0  0  0  0
  1 27  1  0  0  0  0
  2 14  2  0  0  0  0
  3 19  1  0  0  0  0
  4 18  2  0  0  0  0
  5 19  2  0  0  0  0
  5 11  1  0  0  0  0
  7  3  1  0  0  0  0
  8 16  1  0  0  0  0
  8 12  2  0  0  0  0
  9 25  1  0  0  0  0
 11 20  2  0  0  0  0
 13  9  2  0  0  0  0
 13 24  1  0  0  0  0
 15 12  1  1  0  0  0
 15  4  1  0  0  0  0
 15  5  1  0  0  0  0
 16  3  2  0  0  0  0
 17 10  1  0  0  0  0
 17 28  1  1  0  0  0
 18  1  1  0  0  0  0
 18 20  1  0  0  0  0
 19  6  1  0  0  0  0
 20 13  1  0  0  0  0
 21 26  1  0  0  0  0
 22 10  2  0  0  0  0
 23 21  2  0  0  0  0
 23  4  1  0  0  0  0
 24 22  1  0  0  0  0
 25 14  1  6  0  0  0
 25 17  1  0  0  0  0
 26  1  2  0  0  0  0
 27  2  1  0  0  0  0
 27  9  1  0  0  0  0
 28 29  1  0  0  0  0
 30 33  1  0  0  0  0
 31 33  1  0  0  0  0
 32 29  1  6  0  0  0
 32 31  1  0  0  0  0
 34 30  1  0  0  0  0
 34 32  1  0  0  0  0
M  END
>  <MODEL>
2

>  <REMARK>
 VINA RESULT:      -7.1      3.700      9.153
  Name = 
  3 active torsions:
  status: ('A' for Active; 'I' for Inactive)
    1  A    between atoms: C_17  and  O_28
    2  A    between atoms: O_28  and  C_29
    3  A    between atoms: C_29  and  C_32
                            x       y       z     vdW  Elec       q    Type
                         _______ _______ _______ _____ _____    ______ ____

>  <TORSDO>
F 3

$$$$
=
 OpenBabel11122414343D

 34 40  0  0  1  0  0  0  0  0999 V2000
  161.8490  209.5360  151.7140 C   0  0  0  0  0  0  0  0  0  0  0  0
  161.8450  211.0780  153.7800 C   0  0  0  0  0  3  0  0  0  0  0  0
  161.3820  203.6790  148.7680 C   0  0  0  0  0  0  0  0  0  0  0  0
  161.7830  207.9550  149.9030 C   0  0  0  0  0  0  0  0  0  0  0  0
  161.3310  205.5290  150.4570 C   0  0  0  0  0  0  0  0  0  0  0  0
  161.2060  203.2080  151.2560 C   0  0  0  0  0  1  0  0  0  0  0  0
  162.0240  202.4610  148.5750 O   0  0  0  0  0  1  0  0  0  0  0  0
  160.0850  205.5320  147.6610 C   0  0  0  0  0  3  0  0  0  0  0  0
  161.3510  208.7940  154.0360 C   0  0  0  0  0  0  0  0  0  0  0  0
  159.0730  207.8840  155.8810 C   0  0  0  0  0  3  0  0  0  0  0  0
  161.1850  205.9370  151.8310 N   0  0  0  0  0  0  0  0  0  0  0  0
  160.3790  206.5780  148.4300 C   0  0  0  0  0  3  0  0  0  0  0  0
  161.1550  207.5230  153.6620 C   0  0  0  0  0  0  0  0  0  0  0  0
  161.6470  210.7750  155.2750 C   0  0  0  0  0  3  0  0  0  0  0  0
  161.5390  206.5680  149.3710 C   0  0  1  0  0  3  0  0  0  0  0  0
  160.8080  204.2480  147.6970 C   0  0  0  0  0  3  0  0  0  0  0  0
  159.6980  209.2650  155.7970 C   0  0  2  0  0  3  0  0  0  0  0  0
  161.6420  208.2310  151.2620 C   0  0  0  0  0  0  0  0  0  0  0  0
  161.2990  204.2150  150.1530 C   0  0  0  0  0  0  0  0  0  0  0  0
  161.3080  207.1660  152.2290 C   0  0  0  0  0  0  0  0  0  0  0  0
  162.3310  210.2300  149.5090 C   0  0  0  0  0  3  0  0  0  0  0  0
  159.5320  206.7200  155.3860 C   0  0  0  0  0  3  0  0  0  0  0  0
  162.1280  208.9620  149.0550 N   0  0  0  0  0  0  0  0  0  0  0  0
  160.8500  206.4900  154.6990 C   0  0  0  0  0  2  0  0  0  0  0  0
  161.1830  209.3120  155.4130 C   0  0  1  0  0  3  0  0  0  0  0  0
  162.1900  210.5140  150.8330 N   0  0  0  0  0  0  0  0  0  0  0  0
  161.7000  209.8050  153.1120 N   0  0  0  0  0  0  0  0  0  0  0  0
  159.4860  209.9370  157.0030 O   0  0  0  0  0  0  0  0  0  0  0  0
  158.9840  211.1890  156.6360 C   0  0  0  0  0  2  0  0  0  0  0  0
  156.2880  212.7480  155.6810 O   0  0  0  0  0  0  0  0  0  0  0  0
  158.1570  211.9950  154.4510 C   0  0  0  0  0  2  0  0  0  0  0  0
  157.9130  211.0270  155.5720 C   0  0  2  0  0  3  0  0  0  0  0  0
  156.9090  212.8440  154.4270 C   0  0  0  0  0  2  0  0  0  0  0  0
  156.5770  211.4530  156.1370 C   0  0  0  0  0  2  0  0  0  0  0  0
  1 27  1  0  0  0  0
  2 14  2  0  0  0  0
  3 19  1  0  0  0  0
  4 18  2  0  0  0  0
  5 11  1  0  0  0  0
  7  3  1  0  0  0  0
  8 16  1  0  0  0  0
  8 12  2  0  0  0  0
  9 25  1  0  0  0  0
 11 20  2  0  0  0  0
 13  9  2  0  0  0  0
 13 24  1  0  0  0  0
 15 12  1  6  0  0  0
 15  4  1  0  0  0  0
 15  5  1  0  0  0  0
 16  3  2  0  0  0  0
 17 10  1  0  0  0  0
 17 28  1  1  0  0  0
 18  1  1  0  0  0  0
 18 20  1  0  0  0  0
 19  5  2  0  0  0  0
 19  6  1  0  0  0  0
 20 13  1  0  0  0  0
 21 26  1  0  0  0  0
 22 10  2  0  0  0  0
 23 21  2  0  0  0  0
 23  4  1  0  0  0  0
 24 22  1  0  0  0  0
 25 14  1  6  0  0  0
 25 17  1  0  0  0  0
 26  1  2  0  0  0  0
 27  2  1  0  0  0  0
 27  9  1  0  0  0  0
 29 28  1  0  0  0  0
 30 34  1  0  0  0  0
 31 32  1  0  0  0  0
 32 34  1  0  0  0  0
 32 29  1  1  0  0  0
 33 31  1  0  0  0  0
 33 30  1  0  0  0  0
M  END
>  <MODEL>
3

>  <REMARK>
 VINA RESULT:      -6.8      3.051      8.191
  Name = 
  3 active torsions:
  status: ('A' for Active; 'I' for Inactive)
    1  A    between atoms: C_17  and  O_28
    2  A    between atoms: O_28  and  C_29
    3  A    between atoms: C_29  and  C_32
                            x       y       z     vdW  Elec       q    Type
                         _______ _______ _______ _____ _____    ______ ____

>  <TORSDO>
F 3

$$$$
=
 OpenBabel11122414343D

 34 40  0  0  1  0  0  0  0  0999 V2000
  161.5660  208.5210  149.9250 C   0  0  0  0  0  0  0  0  0  0  0  0
  161.4740  206.9390  147.8910 C   0  0  0  0  0  3  0  0  0  0  0  0
  160.6680  209.9660  156.2730 C   0  0  0  0  0  0  0  0  0  0  0  0
  161.6160  209.8390  151.9360 C   0  0  2  0  0  3  0  0  0  0  0  0
  160.8640  208.7510  154.0920 C   0  0  0  0  0  0  0  0  0  0  0  0
  159.7920  207.6010  155.9800 C   0  0  0  0  0  1  0  0  0  0  0  0
  159.7060  210.2090  157.2480 O   0  0  0  0  0  1  0  0  0  0  0  0
  162.8770  210.7030  155.3180 C   0  0  0  0  0  3  0  0  0  0  0  0
  160.9160  206.1200  150.0230 C   0  0  0  0  0  0  0  0  0  0  0  0
  161.8840  203.3560  150.9400 C   0  0  0  0  0  3  0  0  0  0  0  0
  160.6840  207.5350  153.3400 N   0  0  0  0  0  0  0  0  0  0  0  0
  162.7760  210.3190  154.0470 C   0  0  0  0  0  3  0  0  0  0  0  0
  160.7120  206.1590  151.3460 C   0  0  0  0  0  0  0  0  0  0  0  0
  161.0190  205.4750  147.7600 C   0  0  0  0  0  3  0  0  0  0  0  0
  161.4610  209.9770  153.4270 C   0  0  0  0  0  0  0  0  0  0  0  0
  161.7430  210.7670  156.2580 C   0  0  0  0  0  3  0  0  0  0  0  0
  161.9190  203.9280  149.5340 C   0  0  2  0  0  3  0  0  0  0  0  0
  161.3840  208.6170  151.3060 C   0  0  0  0  0  0  0  0  0  0  0  0
  160.4800  208.7890  155.3840 C   0  0  0  0  0  0  0  0  0  0  0  0
  160.9260  207.4380  152.0680 C   0  0  0  0  0  0  0  0  0  0  0  0
  162.1710  210.8010  149.8390 C   0  0  0  0  0  3  0  0  0  0  0  0
  161.2030  203.7990  152.0130 C   0  0  0  0  0  3  0  0  0  0  0  0
  162.0020  210.9070  151.1860 N   0  0  0  0  0  0  0  0  0  0  0  0
  160.2170  204.9350  152.0490 C   0  0  0  0  0  2  0  0  0  0  0  0
  160.7960  204.9120  149.1770 C   0  0  1  0  0  3  0  0  0  0  0  0
  161.9560  209.6120  149.2130 N   0  0  0  0  0  0  0  0  0  0  0  0
  161.3250  207.2590  149.2920 N   0  0  0  0  0  0  0  0  0  0  0  0
  161.9560  202.8770  148.6140 O   0  0  0  0  0  0  0  0  0  0  0  0
  161.5040  201.7600  149.3230 C   0  0  0  0  0  2  0  0  0  0  0  0
  160.5830  201.7030  146.1990 O   0  0  0  0  0  0  0  0  0  0  0  0
  161.5810  200.0430  147.5470 C   0  0  0  0  0  2  0  0  0  0  0  0
  160.6760  200.8690  148.4150 C   0  0  2  0  0  3  0  0  0  0  0  0
  161.2060  200.4490  146.1430 C   0  0  0  0  0  2  0  0  0  0  0  0
  159.9120  201.7260  147.4310 C   0  0  0  0  0  2  0  0  0  0  0  0
  1 18  1  0  0  0  0
  2 27  1  0  0  0  0
  3  7  1  0  0  0  0
  4 23  1  1  0  0  0
  4 15  1  0  0  0  0
  5 19  1  0  0  0  0
  8 16  2  0  0  0  0
  9 13  2  0  0  0  0
 10 22  2  0  0  0  0
 11  5  2  0  0  0  0
 12  8  1  0  0  0  0
 13 24  1  0  0  0  0
 13 20  1  0  0  0  0
 14  2  2  0  0  0  0
 15 12  2  0  0  0  0
 15  5  1  0  0  0  0
 16  3  1  0  0  0  0
 17 28  1  6  0  0  0
 17 10  1  0  0  0  0
 18  4  1  0  0  0  0
 18 20  2  0  0  0  0
 19  6  1  0  0  0  0
 19  3  2  0  0  0  0
 20 11  1  0  0  0  0
 21 23  2  0  0  0  0
 22 24  1  0  0  0  0
 25 14  1  6  0  0  0
 25 17  1  0  0  0  0
 25  9  1  0  0  0  0
 26 21  1  0  0  0  0
 26  1  2  0  0  0  0
 27  1  1  0  0  0  0
 27  9  1  0  0  0  0
 28 29  1  0  0  0  0
 30 34  1  0  0  0  0
 31 32  1  0  0  0  0
 32 29  1  1  0  0  0
 33 30  1  0  0  0  0
 33 31  1  0  0  0  0
 34 32  1  0  0  0  0
M  END
>  <MODEL>
4

>  <REMARK>
 VINA RESULT:      -6.7      2.543      4.755
  Name = 
  3 active torsions:
  status: ('A' for Active; 'I' for Inactive)
    1  A    between atoms: C_17  and  O_28
    2  A    between atoms: O_28  and  C_29
    3  A    between atoms: C_29  and  C_32
                            x       y       z     vdW  Elec       q    Type
                         _______ _______ _______ _____ _____    ______ ____

>  <TORSDO>
F 3

$$$$
=
 OpenBabel11122414343D

 34 40  0  0  1  0  0  0  0  0999 V2000
  160.7730  206.8420  154.2610 C   0  0  0  0  0  0  0  0  0  0  0  0
  161.8210  204.6850  153.3140 C   0  0  0  0  0  3  0  0  0  0  0  0
  158.9580  213.1460  153.8570 C   0  0  0  0  0  0  0  0  0  0  0  0
  159.8010  208.9280  154.9620 C   0  0  0  0  0  0  0  0  0  0  0  0
  159.7600  210.8390  153.3050 C   0  0  0  0  0  0  0  0  0  0  0  0
  160.1250  212.6290  151.6620 C   0  0  0  0  0  1  0  0  0  0  0  0
  159.4300  214.4530  153.8080 O   0  0  0  0  0  1  0  0  0  0  0  0
  157.2330  211.6050  154.8510 C   0  0  0  0  0  3  0  0  0  0  0  0
  161.5850  206.5670  151.9240 C   0  0  0  0  0  0  0  0  0  0  0  0
  160.6350  206.2600  149.0220 C   0  0  0  0  0  3  0  0  0  0  0  0
  160.3490  209.9360  152.3480 N   0  0  0  0  0  0  0  0  0  0  0  0
  157.8630  210.4330  154.8390 C   0  0  0  0  0  3  0  0  0  0  0  0
  161.2500  207.8190  151.5880 C   0  0  0  0  0  0  0  0  0  0  0  0
  162.4440  204.3750  151.9420 C   0  0  0  0  0  3  0  0  0  0  0  0
  159.3440  210.3330  154.6740 C   0  0  0  0  0  0  0  0  0  0  0  0
  157.8950  212.9050  154.6390 C   0  0  0  0  0  2  0  0  0  0  0  0
  161.0920  205.1620  149.9660 C   0  0  2  0  0  3  0  0  0  0  0  0
  160.3890  208.1520  153.9630 C   0  0  0  0  0  0  0  0  0  0  0  0
  159.6030  212.1370  152.9760 C   0  0  0  0  0  0  0  0  0  0  0  0
  160.6350  208.6980  152.6150 C   0  0  0  0  0  0  0  0  0  0  0  0
  160.0110  207.1150  156.4780 C   0  0  0  0  0  3  0  0  0  0  0  0
  160.7910  207.5920  149.1400 C   0  0  0  0  0  3  0  0  0  0  0  0
  159.6270  208.3920  156.2010 N   0  0  0  0  0  0  0  0  0  0  0  0
  161.5580  208.3170  150.2110 C   0  0  0  0  0  2  0  0  0  0  0  0
  162.1530  205.5600  151.0010 C   0  0  1  0  0  3  0  0  0  0  0  0
  160.5790  206.3440  155.5110 N   0  0  0  0  0  0  0  0  0  0  0  0
  161.3750  206.0570  153.2260 N   0  0  0  0  0  0  0  0  0  0  0  0
  161.5310  204.0680  149.2160 O   0  0  0  0  0  0  0  0  0  0  0  0
  160.9080  204.2080  147.9730 C   0  0  0  0  0  2  0  0  0  0  0  0
  160.9310  204.2010  144.7160 O   0  0  0  0  0  0  0  0  0  0  0  0
  162.3690  205.2430  146.2700 C   0  0  0  0  0  2  0  0  0  0  0  0
  161.9060  203.9430  146.8600 C   0  0  2  0  0  3  0  0  0  0  0  0
  161.9560  205.1510  144.8210 C   0  0  0  0  0  2  0  0  0  0  0  0
  161.2050  203.2520  145.7120 C   0  0  0  0  0  2  0  0  0  0  0  0
  1 26  1  0  0  0  0
  3 16  1  0  0  0  0
  4 23  2  0  0  0  0
  5 15  2  0  0  0  0
  6 19  1  0  0  0  0
  7  3  1  0  0  0  0
  9 27  1  0  0  0  0
 10 22  2  0  0  0  0
 10 17  1  0  0  0  0
 11 20  2  0  0  0  0
 11  5  1  0  0  0  0
 12  8  2  0  0  0  0
 13  9  2  0  0  0  0
 13 20  1  0  0  0  0
 14  2  2  0  0  0  0
 15 12  1  0  0  0  0
 15  4  1  0  0  0  0
 16  8  1  0  0  0  0
 17 28  1  6  0  0  0
 17 25  1  0  0  0  0
 18  1  2  0  0  0  0
 18  4  1  0  0  0  0
 19  5  1  0  0  0  0
 19  3  2  0  0  0  0
 20 18  1  0  0  0  0
 22 24  1  0  0  0  0
 23 21  1  0  0  0  0
 24 13  1  0  0  0  0
 25  9  1  0  0  0  0
 25 14  1  1  0  0  0
 26 21  2  0  0  0  0
 27  2  1  0  0  0  0
 27  1  1  0  0  0  0
 29 28  1  0  0  0  0
 30 33  1  0  0  0  0
 30 34  1  0  0  0  0
 31 32  1  0  0  0  0
 32 29  1  1  0  0  0
 33 31  1  0  0  0  0
 34 32  1  0  0  0  0
M  END
>  <MODEL>
5

>  <REMARK>
 VINA RESULT:      -6.5      2.510      3.787
  Name = 
  3 active torsions:
  status: ('A' for Active; 'I' for Inactive)
    1  A    between atoms: C_17  and  O_28
    2  A    between atoms: O_28  and  C_29
    3  A    between atoms: C_29  and  C_32
                            x       y       z     vdW  Elec       q    Type
                         _______ _______ _______ _____ _____    ______ ____

>  <TORSDO>
F 3

$$$$
=
 OpenBabel11122414343D

 34 40  0  0  1  0  0  0  0  0999 V2000
  160.9630  205.0580  151.9280 C   0  0  0  0  0  0  0  0  0  0  0  0
  160.8580  206.3420  154.1610 C   0  0  0  0  0  3  0  0  0  0  0  0
  160.9480  204.6990  145.3640 C   0  0  0  0  0  0  0  0  0  0  0  0
  161.0840  204.0350  149.7540 C   0  0  0  0  0  0  0  0  0  0  0  0
  161.0090  205.5400  147.7230 C   0  0  0  0  0  0  0  0  0  0  0  0
  160.5910  207.1510  145.9150 C   0  0  0  0  0  1  0  0  0  0  0  0
  160.1530  204.8300  144.2320 O   0  0  0  0  0  1  0  0  0  0  0  0
  162.7190  203.3160  146.5000 C   0  0  0  0  0  3  0  0  0  0  0  0
  160.9020  207.5370  152.1360 C   0  0  0  0  0  0  0  0  0  0  0  0
  162.6220  210.0630  151.8480 C   0  0  0  0  0  3  0  0  0  0  0  0
  160.9720  206.6570  148.6330 N   0  0  0  0  0  0  0  0  0  0  0  0
  162.4740  203.5490  147.7880 C   0  0  0  0  0  3  0  0  0  0  0  0
  160.9420  207.7190  150.8100 C   0  0  0  0  0  0  0  0  0  0  0  0
  160.7290  207.8440  154.4650 C   0  0  0  0  0  3  0  0  0  0  0  0
  161.1800  204.1290  148.2550 C   0  0  0  0  0  0  0  0  0  0  0  0
  161.7930  203.6580  145.4050 C   0  0  0  0  0  3  0  0  0  0  0  0
  162.2670  209.3280  153.1280 C   0  0  2  0  0  3  0  0  0  0  0  0
  161.0220  205.1860  150.5380 C   0  0  0  0  0  0  0  0  0  0  0  0
  160.8700  205.7630  146.4000 C   0  0  2  0  0  3  0  0  0  0  0  0
  160.9910  206.5290  149.9250 C   0  0  0  0  0  0  0  0  0  0  0  0
  161.0110  202.7070  151.7200 C   0  0  0  0  0  3  0  0  0  0  0  0
  162.0680  209.9440  150.6270 C   0  0  0  0  0  3  0  0  0  0  0  0
  161.0730  202.8180  150.3640 N   0  0  0  0  0  0  0  0  0  0  0  0
  160.8750  209.1070  150.2570 C   0  0  0  0  0  2  0  0  0  0  0  0
  160.9050  208.6210  153.1450 C   0  0  1  0  0  3  0  0  0  0  0  0
  160.9580  203.8230  152.4960 N   0  0  0  0  0  0  0  0  0  0  0  0
  160.9020  206.2490  152.7190 N   0  0  0  0  0  0  0  0  0  0  0  0
  162.3700  210.2110  154.2060 O   0  0  0  0  0  0  0  0  0  0  0  0
  161.3010  211.0980  154.0500 C   0  0  0  0  0  2  0  0  0  0  0  0
  159.2290  210.2400  156.4130 O   0  0  0  0  0  0  0  0  0  0  0  0
  161.5130  210.8300  156.4970 C   0  0  0  0  0  2  0  0  0  0  0  0
  160.8640  211.6270  155.4040 C   0  0  2  0  0  3  0  0  0  0  0  0
  160.3490  210.2410  157.2570 C   0  0  0  0  0  2  0  0  0  0  0  0
  159.3860  211.3670  155.5920 C   0  0  0  0  0  2  0  0  0  0  0  0
  1 26  1  0  0  0  0
  1 27  1  0  0  0  0
  2 14  2  0  0  0  0
  3 16  2  0  0  0  0
  3 19  1  0  0  0  0
  4 23  2  0  0  0  0
  4 18  1  0  0  0  0
  5 15  2  0  0  0  0
  5 11  1  0  0  0  0
  7  3  1  0  0  0  0
  8 12  2  0  0  0  0
  9 27  1  0  0  0  0
  9 25  1  0  0  0  0
 10 17  1  0  0  0  0
 11 20  2  0  0  0  0
 12 15  1  0  0  0  0
 13  9  2  0  0  0  0
 15  4  1  0  0  0  0
 16  8  1  0  0  0  0
 17 25  1  0  0  0  0
 17 28  1  1  0  0  0
 18  1  2  0  0  0  0
 19  6  1  1  0  0  0
 19  5  1  0  0  0  0
 20 18  1  0  0  0  0
 20 13  1  0  0  0  0
 21 26  2  0  0  0  0
 22 10  2  0  0  0  0
 23 21  1  0  0  0  0
 24 22  1  0  0  0  0
 24 13  1  0  0  0  0
 25 14  1  1  0  0  0
 27  2  1  0  0  0  0
 29 28  1  0  0  0  0
 30 33  1  0  0  0  0
 31 33  1  0  0  0  0
 32 29  1  6  0  0  0
 32 34  1  0  0  0  0
 32 31  1  0  0  0  0
 34 30  1  0  0  0  0
M  END
>  <MODEL>
6

>  <REMARK>
 VINA RESULT:      -6.0      3.127      7.955
  Name = 
  3 active torsions:
  status: ('A' for Active; 'I' for Inactive)
    1  A    between atoms: C_17  and  O_28
    2  A    between atoms: O_28  and  C_29
    3  A    between atoms: C_29  and  C_32
                            x       y       z     vdW  Elec       q    Type
                         _______ _______ _______ _____ _____    ______ ____

>  <TORSDO>
F 3

$$$$
=
 OpenBabel11122414343D

 34 40  0  0  1  0  0  0  0  0999 V2000
  160.8180  204.1020  151.1190 C   0  0  0  0  0  0  0  0  0  0  0  0
  160.9180  206.2980  152.4650 C   0  0  0  0  0  3  0  0  0  0  0  0
  160.4360  200.6630  145.5300 C   0  0  0  0  0  0  0  0  0  0  0  0
  160.7540  202.1610  149.7000 C   0  0  0  0  0  0  0  0  0  0  0  0
  160.6770  202.5170  147.1970 C   0  0  0  0  0  0  0  0  0  0  0  0
  160.2790  203.1020  144.8440 C   0  0  0  0  0  1  0  0  0  0  0  0
  159.5940  200.3060  144.4830 O   0  0  0  0  0  1  0  0  0  0  0  0
  162.1640  199.8420  147.1670 C   0  0  0  0  0  3  0  0  0  0  0  0
  160.9400  206.3760  150.1150 C   0  0  0  0  0  0  0  0  0  0  0  0
  162.8130  208.3010  148.6310 C   0  0  0  0  0  3  0  0  0  0  0  0
  160.7660  203.9310  147.4610 N   0  0  0  0  0  0  0  0  0  0  0  0
  162.0030  200.6800  148.1890 C   0  0  0  0  0  3  0  0  0  0  0  0
  160.9230  205.9000  148.8640 C   0  0  0  0  0  0  0  0  0  0  0  0
  160.9100  207.7690  152.0140 C   0  0  0  0  0  3  0  0  0  0  0  0
  160.7780  201.5210  148.3370 C   0  0  0  0  0  0  0  0  0  0  0  0
  161.2080  199.6990  146.0540 C   0  0  0  0  0  2  0  0  0  0  0  0
  162.4750  208.2980  150.1110 C   0  0  2  0  0  3  0  0  0  0  0  0
  160.8130  203.5470  149.8370 C   0  0  0  0  0  0  0  0  0  0  0  0
  160.4860  202.0940  145.9310 C   0  0  0  0  0  0  0  0  0  0  0  0
  160.8430  204.4320  148.6560 C   0  0  0  0  0  0  0  0  0  0  0  0
  160.6910  201.9410  152.0620 C   0  0  0  0  0  3  0  0  0  0  0  0
  162.1900  207.6630  147.6230 C   0  0  0  0  0  3  0  0  0  0  0  0
  160.6910  201.3870  150.8180 N   0  0  0  0  0  0  0  0  0  0  0  0
  160.9240  206.8560  147.7140 C   0  0  0  0  0  2  0  0  0  0  0  0
  161.0700  207.8040  150.4820 C   0  0  1  0  0  3  0  0  0  0  0  0
  160.7570  203.2930  152.2100 N   0  0  0  0  0  0  0  0  0  0  0  0
  160.8800  205.5270  151.2440 N   0  0  0  0  0  0  0  0  0  0  0  0
  162.6950  209.5760  150.6330 O   0  0  0  0  0  0  0  0  0  0  0  0
  161.5960  210.3310  150.2140 C   0  0  0  0  0  2  0  0  0  0  0  0
  161.3230  212.0830  147.4810 O   0  0  0  0  0  0  0  0  0  0  0  0
  160.9250  212.6600  149.7350 C   0  0  0  0  0  2  0  0  0  0  0  0
  162.0610  211.6800  149.6970 C   0  0  2  0  0  3  0  0  0  0  0  0
  160.7540  213.0740  148.2930 C   0  0  0  0  0  2  0  0  0  0  0  0
  162.3940  211.5660  148.2260 C   0  0  0  0  0  2  0  0  0  0  0  0
  1 27  1  0  0  0  0
  1 26  1  0  0  0  0
  3 19  2  0  0  0  0
  3 16  1  0  0  0  0
  4 18  1  0  0  0  0
  4 23  2  0  0  0  0
  5 11  1  0  0  0  0
  5 15  2  0  0  0  0
  6 19  1  0  0  0  0
  7  3  1  0  0  0  0
  8 12  2  0  0  0  0
  9 25  1  0  0  0  0
  9 27  1  0  0  0  0
 10 17  1  0  0  0  0
 11 20  2  0  0  0  0
 12 15  1  0  0  0  0
 13  9  2  0  0  0  0
 14  2  2  0  0  0  0
 15  4  1  0  0  0  0
 16  8  1  0  0  0  0
 17 25  1  0  0  0  0
 17 28  1  6  0  0  0
 18  1  2  0  0  0  0
 19  5  1  0  0  0  0
 20 13  1  0  0  0  0
 20 18  1  0  0  0  0
 21 26  2  0  0  0  0
 22 24  1  0  0  0  0
 22 10  2  0  0  0  0
 23 21  1  0  0  0  0
 24 13  1  0  0  0  0
 25 14  1  1  0  0  0
 27  2  1  0  0  0  0
 29 28  1  0  0  0  0
 30 34  1  0  0  0  0
 30 33  1  0  0  0  0
 32 31  1  0  0  0  0
 32 29  1  6  0  0  0
 33 31  1  0  0  0  0
 34 32  1  0  0  0  0
M  END
>  <MODEL>
7

>  <REMARK>
 VINA RESULT:      -6.0      2.434      8.809
  Name = 
  3 active torsions:
  status: ('A' for Active; 'I' for Inactive)
    1  A    between atoms: C_17  and  O_28
    2  A    between atoms: O_28  and  C_29
    3  A    between atoms: C_29  and  C_32
                            x       y       z     vdW  Elec       q    Type
                         _______ _______ _______ _____ _____    ______ ____

>  <TORSDO>
F 3

$$$$
=
 OpenBabel11122414343D

 34 40  0  0  1  0  0  0  0  0999 V2000
  160.7540  203.7400  151.2660 C   0  0  0  0  0  0  0  0  0  0  0  0
  160.8510  205.8050  152.8050 C   0  0  0  0  0  3  0  0  0  0  0  0
  160.4560  200.8160  145.3860 C   0  0  0  0  0  0  0  0  0  0  0  0
  160.6990  201.9330  149.6780 C   0  0  0  0  0  0  0  0  0  0  0  0
  160.6820  202.5120  147.2160 C   0  0  0  0  0  0  0  0  0  0  0  0
  160.3430  203.3090  144.9170 C   0  0  0  0  0  1  0  0  0  0  0  0
  159.6340  200.5660  144.2940 O   0  0  0  0  0  1  0  0  0  0  0  0
  162.1370  199.8300  146.9800 C   0  0  0  0  0  3  0  0  0  0  0  0
  160.9250  206.0920  150.4720 C   0  0  0  0  0  0  0  0  0  0  0  0
  162.8540  208.1160  149.2050 C   0  0  0  0  0  3  0  0  0  0  0  0
  160.7820  203.8960  147.6070 N   0  0  0  0  0  0  0  0  0  0  0  0
  161.9640  200.5760  148.0680 C   0  0  0  0  0  3  0  0  0  0  0  0
  160.9310  205.7290  149.1830 C   0  0  0  0  0  0  0  0  0  0  0  0
  160.8700  207.3110  152.4870 C   0  0  0  0  0  3  0  0  0  0  0  0
  160.7460  201.4170  148.2650 C   0  0  0  0  0  0  0  0  0  0  0  0
  161.2050  199.8000  145.8380 C   0  0  0  0  0  3  0  0  0  0  0  0
  162.4830  207.9860  150.6720 C   0  0  2  0  0  3  0  0  0  0  0  0
  160.7720  203.3010  149.9400 C   0  0  0  0  0  0  0  0  0  0  0  0
  160.5140  202.2060  145.9140 C   0  0  2  0  0  3  0  0  0  0  0  0
  160.8380  204.2870  148.8440 C   0  0  0  0  0  0  0  0  0  0  0  0
  160.5810  201.5060  152.0090 C   0  0  0  0  0  3  0  0  0  0  0  0
  162.2450  207.5790  148.1310 C   0  0  0  0  0  3  0  0  0  0  0  0
  160.6020  201.0640  150.7210 N   0  0  0  0  0  0  0  0  0  0  0  0
  160.9680  206.7840  148.1230 C   0  0  0  0  0  2  0  0  0  0  0  0
  161.0640  207.4800  150.9670 C   0  0  1  0  0  3  0  0  0  0  0  0
  160.6600  202.8380  152.2790 N   0  0  0  0  0  0  0  0  0  0  0  0
  160.8310  205.1470  151.5190 N   0  0  0  0  0  0  0  0  0  0  0  0
  162.7060  209.2090  151.3100 O   0  0  0  0  0  0  0  0  0  0  0  0
  161.5810  209.9820  151.0130 C   0  0  0  0  0  2  0  0  0  0  0  0
  159.5730  210.3930  153.5450 O   0  0  0  0  0  0  0  0  0  0  0  0
  161.9260  210.5110  153.4020 C   0  0  0  0  0  2  0  0  0  0  0  0
  161.3530  211.0090  152.1070 C   0  0  2  0  0  3  0  0  0  0  0  0
  160.7350  210.4530  154.3270 C   0  0  0  0  0  2  0  0  0  0  0  0
  159.8720  211.1250  152.3860 C   0  0  0  0  0  2  0  0  0  0  0  0
  1 27  1  0  0  0  0
  1 26  1  0  0  0  0
  3 16  2  0  0  0  0
  3 19  1  0  0  0  0
  4 18  1  0  0  0  0
  4 23  2  0  0  0  0
  5 11  1  0  0  0  0
  5 15  2  0  0  0  0
  7  3  1  0  0  0  0
  8 12  2  0  0  0  0
  9 25  1  0  0  0  0
  9 27  1  0  0  0  0
 10 17  1  0  0  0  0
 11 20  2  0  0  0  0
 12 15  1  0  0  0  0
 13  9  2  0  0  0  0
 14  2  2  0  0  0  0
 15  4  1  0  0  0  0
 16  8  1  0  0  0  0
 17 25  1  0  0  0  0
 17 28  1  6  0  0  0
 18  1  2  0  0  0  0
 19  6  1  1  0  0  0
 19  5  1  0  0  0  0
 20 13  1  0  0  0  0
 20 18  1  0  0  0  0
 21 26  2  0  0  0  0
 22 10  2  0  0  0  0
 23 21  1  0  0  0  0
 24 22  1  0  0  0  0
 24 13  1  0  0  0  0
 25 14  1  1  0  0  0
 27  2  1  0  0  0  0
 29 28  1  0  0  0  0
 30 33  1  0  0  0  0
 31 33  1  0  0  0  0
 32 29  1  6  0  0  0
 32 34  1  0  0  0  0
 32 31  1  0  0  0  0
 34 30  1  0  0  0  0
M  END
>  <MODEL>
8

>  <REMARK>
 VINA RESULT:      -5.9      2.951      8.781
  Name = 
  3 active torsions:
  status: ('A' for Active; 'I' for Inactive)
    1  A    between atoms: C_17  and  O_28
    2  A    between atoms: O_28  and  C_29
    3  A    between atoms: C_29  and  C_32
                            x       y       z     vdW  Elec       q    Type
                         _______ _______ _______ _____ _____    ______ ____

>  <TORSDO>
F 3

$$$$
