=
 OpenBabel11122412313D

 30 35  0  0  1  0  0  0  0  0999 V2000
  161.4680  206.3570  150.0560 C   0  0  1  0  0  3  0  0  0  0  0  0
  161.2190  203.8240  149.8080 C   0  0  0  0  0  0  0  0  0  0  0  0
  160.8640  206.0000  154.3410 C   0  0  0  0  0  2  0  0  0  0  0  0
  161.7970  207.4610  151.0860 C   0  0  1  0  0  3  0  0  0  0  0  0
  162.3860  206.4260  148.9910 O   0  0  0  0  0  0  0  0  0  0  0  0
  162.0620  209.9480  148.4310 O   0  0  0  0  0  0  0  0  0  0  0  0
  160.4130  210.2700  151.9150 C   0  0  1  0  0  3  0  0  0  0  0  0
  161.9560  208.8350  149.0140 C   0  0  0  0  0  0  0  0  0  0  0  0
  160.2190  209.5410  153.2440 C   0  0  2  0  0  3  0  0  0  0  0  0
  160.8000  207.4680  154.5500 C   0  0  0  0  0  0  0  0  0  0  0  0
  162.0680  207.5640  148.2030 C   0  0  2  0  0  3  0  0  0  0  0  0
  161.6990  208.7690  150.4290 N   0  0  0  0  0  0  0  0  0  0  0  0
  161.0060  202.5580  150.3630 C   0  0  0  0  0  3  0  0  0  0  0  0
  160.6920  210.5190  154.3010 C   0  0  0  0  0  2  0  0  0  0  0  0
  160.2930  211.7500  152.2400 C   0  0  0  0  0  2  0  0  0  0  0  0
  161.2980  203.9450  148.4260 O   0  0  0  0  0  1  0  0  0  0  0  0
  161.3770  205.9830  152.9200 C   0  0  2  0  0  3  0  0  0  0  0  0
  160.8960  202.4000  151.7460 C   0  0  0  0  0  3  0  0  0  0  0  0
  161.3410  204.9510  150.6440 C   0  0  0  0  0  0  0  0  0  0  0  0
  160.8580  207.2510  152.2720 C   0  0  1  0  0  3  0  0  0  0  0  0
  160.6250  207.9830  155.6860 O   0  0  0  0  0  0  0  0  0  0  0  0
  160.8910  208.2390  153.3450 N   0  0  0  0  0  0  0  0  0  0  0  0
  160.3360  211.8850  153.7540 C   0  0  0  0  0  2  0  0  0  0  0  0
  162.9900  210.1130  152.0610 C   0  0  0  0  0  1  0  0  0  0  0  0
  160.9840  203.5110  152.5850 C   0  0  0  0  0  3  0  0  0  0  0  0
  161.1730  204.7860  152.0420 C   0  0  0  0  0  0  0  0  0  0  0  0
  161.7380  210.0120  151.1930 C   0  0  2  0  0  3  0  0  0  0  0  0
  160.8210  207.3380  147.3530 C   0  0  0  0  0  2  0  0  0  0  0  0
  160.3210  206.3280  145.4580 C   0  0  0  0  0  1  0  0  0  0  0  0
  160.9090  206.1080  146.7020 O   0  0  0  0  0  0  0  0  0  0  0  0
  1  5  1  6  0  0  0
  1 19  1  0  0  0  0
  1  4  1  0  0  0  0
  2 13  2  0  0  0  0
  2 19  1  0  0  0  0
  3 10  1  0  0  0  0
  4 12  1  6  0  0  0
  4 20  1  0  0  0  0
  6  8  2  0  0  0  0
  7 15  1  1  0  0  0
  7  9  1  0  0  0  0
  8 12  1  0  0  0  0
  9 22  1  0  0  0  0
  9 14  1  1  0  0  0
 10 21  2  0  0  0  0
 11 28  1  1  0  0  0
 11  5  1  0  0  0  0
 11  8  1  0  0  0  0
 12 27  1  0  0  0  0
 13 18  1  0  0  0  0
 15 23  1  0  0  0  0
 16  2  1  0  0  0  0
 17  3  1  1  0  0  0
 18 25  2  0  0  0  0
 19 26  2  0  0  0  0
 20 17  1  0  0  0  0
 20 22  1  1  0  0  0
 22 10  1  0  0  0  0
 23 14  1  0  0  0  0
 26 25  1  0  0  0  0
 26 17  1  0  0  0  0
 27  7  1  0  0  0  0
 27 24  1  1  0  0  0
 29 30  1  0  0  0  0
 30 28  1  0  0  0  0
M  END
>  <MODEL>
1

>  <REMARK>
 VINA RESULT:      -9.1      0.000      0.000
  Name = 
  2 active torsions:
  status: ('A' for Active; 'I' for Inactive)
    1  A    between atoms: C_11  and  C_28
    2  A    between atoms: C_28  and  O_30
                            x       y       z     vdW  Elec       q    Type
                         _______ _______ _______ _____ _____    ______ ____

>  <TORSDO>
F 2

$$$$
=
 OpenBabel11122412313D

 30 35  0  0  1  0  0  0  0  0999 V2000
  161.4180  204.6430  148.0350 C   0  0  1  0  0  3  0  0  0  0  0  0
  161.0630  202.3080  147.0520 C   0  0  0  0  0  0  0  0  0  0  0  0
  161.1760  202.9950  152.0440 C   0  0  0  0  0  2  0  0  0  0  0  0
  161.8720  205.3770  149.3160 C   0  0  1  0  0  3  0  0  0  0  0  0
  162.2420  205.0300  146.9610 O   0  0  0  0  0  0  0  0  0  0  0  0
  161.9880  208.5560  147.5310 O   0  0  0  0  0  0  0  0  0  0  0  0
  160.6600  207.8050  151.0860 C   0  0  1  0  0  3  0  0  0  0  0  0
  161.8960  207.3180  147.7550 C   0  0  0  0  0  0  0  0  0  0  0  0
  160.5580  206.7060  152.1420 C   0  0  2  0  0  3  0  0  0  0  0  0
  161.1800  204.3290  152.6960 C   0  0  0  0  0  0  0  0  0  0  0  0
  161.8950  206.3550  146.5890 C   0  0  2  0  0  3  0  0  0  0  0  0
  161.7610  206.8240  149.1010 N   0  0  0  0  0  0  0  0  0  0  0  0
  160.8570  200.9340  147.2130 C   0  0  0  0  0  3  0  0  0  0  0  0
  161.1540  207.3110  153.3970 C   0  0  0  0  0  2  0  0  0  0  0  0
  160.6180  209.1150  151.8550 C   0  0  0  0  0  2  0  0  0  0  0  0
  161.0260  202.8470  145.7710 O   0  0  0  0  0  1  0  0  0  0  0  0
  161.5630  203.4100  150.6450 C   0  0  2  0  0  3  0  0  0  0  0  0
  160.8620  200.3620  148.4870 C   0  0  0  0  0  3  0  0  0  0  0  0
  161.2950  203.1250  148.1760 C   0  0  0  0  0  0  0  0  0  0  0  0
  161.0330  204.8190  150.4640 C   0  0  1  0  0  3  0  0  0  0  0  0
  161.1220  204.4730  153.9450 O   0  0  0  0  0  0  0  0  0  0  0  0
  161.1920  205.4310  151.7790 N   0  0  0  0  0  0  0  0  0  0  0  0
  160.7980  208.7810  153.3280 C   0  0  0  0  0  2  0  0  0  0  0  0
  163.2330  207.5970  150.9370 C   0  0  0  0  0  1  0  0  0  0  0  0
  161.0600  201.1620  149.6120 C   0  0  0  0  0  3  0  0  0  0  0  0
  161.2440  202.5410  149.4670 C   0  0  0  0  0  0  0  0  0  0  0  0
  161.9080  207.7730  150.2000 C   0  0  2  0  0  3  0  0  0  0  0  0
  160.5720  206.4070  145.8310 C   0  0  0  0  0  2  0  0  0  0  0  0
  161.4210  205.9080  143.8580 C   0  0  0  0  0  1  0  0  0  0  0  0
  160.5560  205.4260  144.8390 O   0  0  0  0  0  0  0  0  0  0  0  0
  1  5  1  6  0  0  0
  1 19  1  0  0  0  0
  1  4  1  0  0  0  0
  2 13  2  0  0  0  0
  2 19  1  0  0  0  0
  3 10  1  0  0  0  0
  4 12  1  6  0  0  0
  4 20  1  0  0  0  0
  6  8  2  0  0  0  0
  7 15  1  1  0  0  0
  7  9  1  0  0  0  0
  8 12  1  0  0  0  0
  9 14  1  1  0  0  0
 10 21  2  0  0  0  0
 11 28  1  1  0  0  0
 11  5  1  0  0  0  0
 11  8  1  0  0  0  0
 12 27  1  0  0  0  0
 13 18  1  0  0  0  0
 15 23  1  0  0  0  0
 16  2  1  0  0  0  0
 17  3  1  1  0  0  0
 18 25  2  0  0  0  0
 19 26  2  0  0  0  0
 20 17  1  0  0  0  0
 20 22  1  1  0  0  0
 22  9  1  0  0  0  0
 22 10  1  0  0  0  0
 23 14  1  0  0  0  0
 26 25  1  0  0  0  0
 26 17  1  0  0  0  0
 27 24  1  1  0  0  0
 27  7  1  0  0  0  0
 29 30  1  0  0  0  0
 30 28  1  0  0  0  0
M  END
>  <MODEL>
2

>  <REMARK>
 VINA RESULT:      -6.9      1.920      2.958
  Name = 
  2 active torsions:
  status: ('A' for Active; 'I' for Inactive)
    1  A    between atoms: C_11  and  C_28
    2  A    between atoms: C_28  and  O_30
                            x       y       z     vdW  Elec       q    Type
                         _______ _______ _______ _____ _____    ______ ____

>  <TORSDO>
F 2

$$$$
=
 OpenBabel11122412313D

 30 35  0  0  1  0  0  0  0  0999 V2000
  161.1910  209.5890  151.8230 C   0  0  1  0  0  3  0  0  0  0  0  0
  161.0550  211.9420  150.8310 C   0  0  0  0  0  0  0  0  0  0  0  0
  162.0370  207.9730  147.8830 C   0  0  0  0  0  2  0  0  0  0  0  0
  161.7570  208.1760  151.5550 C   0  0  1  0  0  3  0  0  0  0  0  0
  161.7060  210.0720  153.0410 O   0  0  0  0  0  0  0  0  0  0  0  0
  160.9680  207.1420  154.9630 O   0  0  0  0  0  0  0  0  0  0  0  0
  160.5210  205.1830  151.6570 C   0  0  1  0  0  3  0  0  0  0  0  0
  161.1370  207.8720  153.9480 C   0  0  0  0  0  0  0  0  0  0  0  0
  160.8220  205.2340  150.1600 C   0  0  2  0  0  3  0  0  0  0  0  0
  161.9410  206.5620  148.3360 C   0  0  0  0  0  0  0  0  0  0  0  0
  161.0690  209.3750  154.1010 C   0  0  2  0  0  3  0  0  0  0  0  0
  161.3580  207.2870  152.6510 N   0  0  0  0  0  0  0  0  0  0  0  0
  161.1240  212.8120  149.7380 C   0  0  0  0  0  3  0  0  0  0  0  0
  161.5420  203.9350  149.8600 C   0  0  0  0  0  2  0  0  0  0  0  0
  160.4080  203.7070  152.0010 C   0  0  0  0  0  2  0  0  0  0  0  0
  160.6720  212.4480  152.0670 O   0  0  0  0  0  1  0  0  0  0  0  0
  162.0610  208.6560  149.2300 C   0  0  2  0  0  3  0  0  0  0  0  0
  161.4810  212.3350  148.4740 C   0  0  0  0  0  3  0  0  0  0  0  0
  161.3610  210.5760  150.6680 C   0  0  0  0  0  0  0  0  0  0  0  0
  161.2710  207.7630  150.1670 C   0  0  1  0  0  3  0  0  0  0  0  0
  162.1080  205.5870  147.5560 O   0  0  0  0  0  0  0  0  0  0  0  0
  161.5800  206.4100  149.7160 N   0  0  0  0  0  0  0  0  0  0  0  0
  160.9310  202.9240  150.8070 C   0  0  0  0  0  2  0  0  0  0  0  0
  163.0100  205.4760  152.2940 C   0  0  0  0  0  1  0  0  0  0  0  0
  161.7580  210.9800  148.2920 C   0  0  0  0  0  3  0  0  0  0  0  0
  161.6690  210.0950  149.3710 C   0  0  0  0  0  0  0  0  0  0  0  0
  161.5550  205.8420  152.5740 C   0  0  2  0  0  3  0  0  0  0  0  0
  159.6330  209.8460  154.3120 C   0  0  0  0  0  2  0  0  0  0  0  0
  160.2750  210.8680  156.1570 C   0  0  0  0  0  1  0  0  0  0  0  0
  159.3590  209.9340  155.6760 O   0  0  0  0  0  0  0  0  0  0  0  0
  1 19  1  6  0  0  0
  1  5  1  0  0  0  0
  2 16  1  0  0  0  0
  3 10  1  0  0  0  0
  4  1  1  0  0  0  0
  4 12  1  1  0  0  0
  5 11  1  0  0  0  0
  7 15  1  1  0  0  0
  7 27  1  0  0  0  0
  8 11  1  0  0  0  0
  8  6  2  0  0  0  0
  9 14  1  1  0  0  0
  9  7  1  0  0  0  0
 10 22  1  0  0  0  0
 11 28  1  6  0  0  0
 12  8  1  0  0  0  0
 13  2  2  0  0  0  0
 14 23  1  0  0  0  0
 17  3  1  6  0  0  0
 17 26  1  0  0  0  0
 17 20  1  0  0  0  0
 18 13  1  0  0  0  0
 19  2  1  0  0  0  0
 20 22  1  6  0  0  0
 20  4  1  0  0  0  0
 21 10  2  0  0  0  0
 22  9  1  0  0  0  0
 23 15  1  0  0  0  0
 25 18  2  0  0  0  0
 25 26  1  0  0  0  0
 26 19  2  0  0  0  0
 27 24  1  6  0  0  0
 27 12  1  0  0  0  0
 28 30  1  0  0  0  0
 30 29  1  0  0  0  0
M  END
>  <MODEL>
3

>  <REMARK>
 VINA RESULT:      -6.5      1.822      7.037
  Name = 
  2 active torsions:
  status: ('A' for Active; 'I' for Inactive)
    1  A    between atoms: C_11  and  C_28
    2  A    between atoms: C_28  and  O_30
                            x       y       z     vdW  Elec       q    Type
                         _______ _______ _______ _____ _____    ______ ____

>  <TORSDO>
F 2

$$$$
=
 OpenBabel11122412313D

 30 35  0  0  1  0  0  0  0  0999 V2000
  161.5990  208.1790  149.5480 C   0  0  1  0  0  3  0  0  0  0  0  0
  161.4850  206.1480  147.9990 C   0  0  0  0  0  0  0  0  0  0  0  0
  160.9280  205.6060  152.9790 C   0  0  0  0  0  2  0  0  0  0  0  0
  161.8500  208.5890  151.0160 C   0  0  1  0  0  3  0  0  0  0  0  0
  162.5340  208.8290  148.7180 O   0  0  0  0  0  0  0  0  0  0  0  0
  162.0410  212.1070  150.0720 O   0  0  0  0  0  0  0  0  0  0  0  0
  160.3080  210.4960  153.1320 C   0  0  1  0  0  3  0  0  0  0  0  0
  161.9810  210.8510  149.9800 C   0  0  0  0  0  0  0  0  0  0  0  0
  160.1250  209.1720  153.8720 C   0  0  2  0  0  3  0  0  0  0  0  0
  160.7850  206.7420  153.9240 C   0  0  0  0  0  0  0  0  0  0  0  0
  162.1740  210.1990  148.6300 C   0  0  2  0  0  3  0  0  0  0  0  0
  161.6980  210.0430  151.1390 N   0  0  0  0  0  0  0  0  0  0  0  0
  161.3270  204.7730  147.7990 C   0  0  0  0  0  3  0  0  0  0  0  0
  160.5260  209.4640  155.3040 C   0  0  0  0  0  2  0  0  0  0  0  0
  160.1050  211.5800  154.1790 C   0  0  0  0  0  2  0  0  0  0  0  0
  161.5860  206.9800  146.8900 O   0  0  0  0  0  1  0  0  0  0  0  0
  161.4690  206.3540  151.7840 C   0  0  2  0  0  3  0  0  0  0  0  0
  161.1970  203.9090  148.8880 C   0  0  0  0  0  3  0  0  0  0  0  0
  161.5330  206.6710  149.3060 C   0  0  0  0  0  0  0  0  0  0  0  0
  160.9000  207.7560  151.8740 C   0  0  1  0  0  3  0  0  0  0  0  0
  160.5600  206.5780  155.1520 O   0  0  0  0  0  0  0  0  0  0  0  0
  160.8600  208.0340  153.3060 N   0  0  0  0  0  0  0  0  0  0  0  0
  160.1120  210.9010  155.5390 C   0  0  0  0  0  2  0  0  0  0  0  0
  162.8860  210.3710  153.2880 C   0  0  0  0  0  1  0  0  0  0  0  0
  161.2110  204.4160  150.1870 C   0  0  0  0  0  3  0  0  0  0  0  0
  161.3450  205.7920  150.4020 C   0  0  0  0  0  0  0  0  0  0  0  0
  161.6590  210.7000  152.4420 C   0  0  2  0  0  3  0  0  0  0  0  0
  160.9580  210.4120  147.7330 C   0  0  0  0  0  2  0  0  0  0  0  0
  159.8840  212.2520  147.1670 C   0  0  0  0  0  1  0  0  0  0  0  0
  161.1030  211.5960  147.0110 O   0  0  0  0  0  0  0  0  0  0  0  0
  1  5  1  6  0  0  0
  1  4  1  0  0  0  0
  2 19  1  0  0  0  0
  3 10  1  0  0  0  0
  4 12  1  6  0  0  0
  4 20  1  0  0  0  0
  7  9  1  0  0  0  0
  7 15  1  1  0  0  0
  8  6  2  0  0  0  0
  8 12  1  0  0  0  0
  9 14  1  1  0  0  0
 10 21  2  0  0  0  0
 11 28  1  6  0  0  0
 11  5  1  0  0  0  0
 11  8  1  0  0  0  0
 12 27  1  0  0  0  0
 13  2  2  0  0  0  0
 13 18  1  0  0  0  0
 14 23  1  0  0  0  0
 15 23  1  0  0  0  0
 16  2  1  0  0  0  0
 17 20  1  0  0  0  0
 17  3  1  1  0  0  0
 18 25  2  0  0  0  0
 19  1  1  0  0  0  0
 19 26  2  0  0  0  0
 20 22  1  1  0  0  0
 22  9  1  0  0  0  0
 22 10  1  0  0  0  0
 25 26  1  0  0  0  0
 26 17  1  0  0  0  0
 27  7  1  0  0  0  0
 27 24  1  1  0  0  0
 30 29  1  0  0  0  0
 30 28  1  0  0  0  0
M  END
>  <MODEL>
4

>  <REMARK>
 VINA RESULT:      -6.3      1.563      2.524
  Name = 
  2 active torsions:
  status: ('A' for Active; 'I' for Inactive)
    1  A    between atoms: C_11  and  C_28
    2  A    between atoms: C_28  and  O_30
                            x       y       z     vdW  Elec       q    Type
                         _______ _______ _______ _____ _____    ______ ____

>  <TORSDO>
F 2

$$$$
