=
 OpenBabel11122412333D

 30 35  0  0  1  0  0  0  0  0999 V2000
  161.3420  210.7860  150.8350 C   0  0  0  0  0  0  0  0  0  0  0  0
  161.5260  212.1900  148.7740 C   0  0  0  0  0  0  0  0  0  0  0  0
  159.0170  213.7380  152.8520 C   0  0  0  0  0  2  0  0  0  0  0  0
  160.8420  210.6360  152.1520 C   0  0  0  0  0  0  0  0  0  0  0  0
  162.2520  209.7190  150.2860 C   0  0  0  0  0  2  0  0  0  0  0  0
  161.2590  206.9720  152.4660 O   0  0  0  0  0  0  0  0  0  0  0  0
  161.7210  210.4790  154.9680 C   0  0  1  0  0  3  0  0  0  0  0  0
  161.3330  208.1470  152.0140 C   0  0  0  0  0  0  0  0  0  0  0  0
  160.7210  211.6160  155.1500 C   0  0  2  0  0  3  0  0  0  0  0  0
  158.8470  212.9520  154.1660 C   0  0  1  0  0  3  0  0  0  0  0  0
  161.8430  208.3820  150.6940 N   0  0  0  0  0  0  0  0  0  0  0  0
  160.8010  209.2870  152.8310 C   0  0  1  0  0  3  0  0  0  0  0  0
  161.1990  213.3670  148.0930 C   0  0  0  0  0  3  0  0  0  0  0  0
  160.1020  211.3540  156.4920 C   0  0  0  0  0  2  0  0  0  0  0  0
  162.2050  210.1540  156.3070 N   0  0  0  0  0  2  0  0  0  0  0  0
  162.2770  211.2720  148.1170 F   0  0  0  0  0  0  0  0  0  0  0  0
  159.8280  212.8180  152.0140 C   0  0  0  0  0  0  0  0  0  0  0  0
  160.4180  214.3480  148.7010 C   0  0  0  0  0  3  0  0  0  0  0  0
  161.0640  211.9790  150.0970 C   0  0  0  0  0  0  0  0  0  0  0  0
  160.1520  211.7030  152.7270 C   0  0  0  0  0  0  0  0  0  0  0  0
  157.4080  212.4890  154.3010 C   0  0  0  0  0  1  0  0  0  0  0  0
  159.7340  211.7870  154.0820 N   0  0  0  0  0  0  0  0  0  0  0  0
  161.2180  210.6690  157.2600 C   0  0  0  0  0  2  0  0  0  0  0  0
  160.0880  208.6820  155.0380 O   0  0  0  0  0  1  0  0  0  0  0  0
  159.9560  214.1650  150.0010 C   0  0  0  0  0  3  0  0  0  0  0  0
  160.2680  212.9960  150.7020 C   0  0  0  0  0  0  0  0  0  0  0  0
  161.1670  209.2000  154.3170 C   0  0  2  0  0  3  0  0  0  0  0  0
  162.2180  207.2700  149.8310 C   0  0  0  0  0  2  0  0  0  0  0  0
  160.2590  206.4250  148.7810 O   0  0  0  0  0  1  0  0  0  0  0  0
  161.3530  207.2660  148.5850 C   0  0  0  0  0  2  0  0  0  0  0  0
  1  4  1  0  0  0  0
  2 19  1  0  0  0  0
  3 10  1  0  0  0  0
  4 20  2  0  0  0  0
  4 12  1  0  0  0  0
  5 11  1  0  0  0  0
  5  1  1  0  0  0  0
  7  9  1  0  0  0  0
  7 15  1  1  0  0  0
  8  6  2  0  0  0  0
  9 14  1  1  0  0  0
 10 21  1  6  0  0  0
 11  8  1  0  0  0  0
 12  8  1  6  0  0  0
 12 27  1  0  0  0  0
 13 18  1  0  0  0  0
 13  2  2  0  0  0  0
 14 23  1  0  0  0  0
 15 23  1  0  0  0  0
 16  2  1  0  0  0  0
 17 20  1  0  0  0  0
 17  3  1  0  0  0  0
 18 25  2  0  0  0  0
 19 26  1  0  0  0  0
 19  1  2  0  0  0  0
 20 22  1  0  0  0  0
 22 10  1  0  0  0  0
 22  9  1  0  0  0  0
 25 26  1  0  0  0  0
 26 17  2  0  0  0  0
 27  7  1  0  0  0  0
 27 24  1  1  0  0  0
 28 11  1  0  0  0  0
 30 29  1  0  0  0  0
 30 28  1  0  0  0  0
M  END
>  <MODEL>
1

>  <REMARK>
 VINA RESULT:      -6.7      0.000      0.000
  Name = 
  2 active torsions:
  status: ('A' for Active; 'I' for Inactive)
    1  A    between atoms: N_11  and  C_28
    2  A    between atoms: C_28  and  C_30
                            x       y       z     vdW  Elec       q    Type
                         _______ _______ _______ _____ _____    ______ ____

>  <TORSDO>
F 2

$$$$
=
 OpenBabel11122412333D

 30 35  0  0  1  0  0  0  0  0999 V2000
  160.5090  209.2130  153.4590 C   0  0  0  0  0  0  0  0  0  0  0  0
  160.8230  207.1770  154.8750 C   0  0  0  0  0  0  0  0  0  0  0  0
  159.2220  211.5460  156.7890 C   0  0  0  0  0  2  0  0  0  0  0  0
  160.1460  210.5800  153.3750 C   0  0  0  0  0  0  0  0  0  0  0  0
  160.8270  208.4750  152.1850 C   0  0  0  0  0  2  0  0  0  0  0  0
  161.6660  211.3340  150.0850 O   0  0  0  0  0  0  0  0  0  0  0  0
  158.0720  212.3710  152.2720 C   0  0  1  0  0  3  0  0  0  0  0  0
  161.2490  210.6940  151.0890 C   0  0  0  0  0  0  0  0  0  0  0  0
  157.9810  212.8520  153.7160 C   0  0  2  0  0  3  0  0  0  0  0  0
  158.9960  212.8520  156.0040 C   0  0  1  0  0  3  0  0  0  0  0  0
  161.5630  209.3010  151.2380 N   0  0  0  0  0  0  0  0  0  0  0  0
  160.5040  211.4190  152.1700 C   0  0  1  0  0  3  0  0  0  0  0  0
  160.7870  206.5790  156.1380 C   0  0  0  0  0  3  0  0  0  0  0  0
  157.7390  214.3290  153.6000 C   0  0  0  0  0  2  0  0  0  0  0  0
  157.1790  213.2360  151.5060 N   0  0  0  0  0  2  0  0  0  0  0  0
  161.2230  206.4110  153.8290 F   0  0  0  0  0  0  0  0  0  0  0  0
  159.6890  210.6030  155.7410 C   0  0  0  0  0  0  0  0  0  0  0  0
  160.4000  207.3090  157.2610 C   0  0  0  0  0  3  0  0  0  0  0  0
  160.4660  208.5400  154.7180 C   0  0  0  0  0  0  0  0  0  0  0  0
  159.6760  211.2150  154.5250 C   0  0  0  0  0  0  0  0  0  0  0  0
  160.0610  213.8650  156.3820 C   0  0  0  0  0  1  0  0  0  0  0  0
  159.1160  212.5190  154.5820 N   0  0  0  0  0  0  0  0  0  0  0  0
  156.9710  214.4530  152.2970 C   0  0  0  0  0  2  0  0  0  0  0  0
  160.0080  213.7100  151.6710 O   0  0  0  0  0  1  0  0  0  0  0  0
  160.0420  208.6480  157.1320 C   0  0  0  0  0  3  0  0  0  0  0  0
  160.0710  209.2680  155.8790 C   0  0  0  0  0  0  0  0  0  0  0  0
  159.4720  212.4200  151.6370 C   0  0  2  0  0  3  0  0  0  0  0  0
  162.4180  208.6230  150.2740 C   0  0  0  0  0  2  0  0  0  0  0  0
  162.3510  207.3290  148.2810 O   0  0  0  0  0  1  0  0  0  0  0  0
  161.5810  207.7400  149.3670 C   0  0  0  0  0  2  0  0  0  0  0  0
  1 19  1  0  0  0  0
  2 13  1  0  0  0  0
  4  1  2  0  0  0  0
  4 20  1  0  0  0  0
  5  1  1  0  0  0  0
  6  8  2  0  0  0  0
  7 15  1  6  0  0  0
  7  9  1  0  0  0  0
  8 11  1  0  0  0  0
  9 14  1  6  0  0  0
  9 22  1  0  0  0  0
 10 21  1  1  0  0  0
 10  3  1  0  0  0  0
 11  5  1  0  0  0  0
 12  8  1  6  0  0  0
 12  4  1  0  0  0  0
 13 18  2  0  0  0  0
 15 23  1  0  0  0  0
 16  2  1  0  0  0  0
 17 26  1  0  0  0  0
 17  3  1  0  0  0  0
 19  2  2  0  0  0  0
 19 26  1  0  0  0  0
 20 22  1  0  0  0  0
 20 17  2  0  0  0  0
 22 10  1  0  0  0  0
 23 14  1  0  0  0  0
 25 18  1  0  0  0  0
 26 25  2  0  0  0  0
 27 24  1  1  0  0  0
 27 12  1  0  0  0  0
 27  7  1  0  0  0  0
 28 11  1  0  0  0  0
 29 30  1  0  0  0  0
 30 28  1  0  0  0  0
M  END
>  <MODEL>
2

>  <REMARK>
 VINA RESULT:      -5.6      2.644      5.374
  Name = 
  2 active torsions:
  status: ('A' for Active; 'I' for Inactive)
    1  A    between atoms: N_11  and  C_28
    2  A    between atoms: C_28  and  C_30
                            x       y       z     vdW  Elec       q    Type
                         _______ _______ _______ _____ _____    ______ ____

>  <TORSDO>
F 2

$$$$
=
 OpenBabel11122412333D

 30 35  0  0  1  0  0  0  0  0999 V2000
  161.1390  207.7180  151.2770 C   0  0  0  0  0  0  0  0  0  0  0  0
  161.3510  205.3750  150.4300 C   0  0  0  0  0  0  0  0  0  0  0  0
  160.8200  206.4130  155.3250 C   0  0  0  0  0  2  0  0  0  0  0  0
  160.9940  208.5920  152.3820 C   0  0  0  0  0  0  0  0  0  0  0  0
  161.1170  208.3030  149.8890 C   0  0  0  0  0  2  0  0  0  0  0  0
  162.0460  211.7280  150.7200 O   0  0  0  0  0  0  0  0  0  0  0  0
  159.0830  210.4730  153.6210 C   0  0  1  0  0  3  0  0  0  0  0  0
  161.7050  210.5260  150.8950 C   0  0  0  0  0  0  0  0  0  0  0  0
  159.3130  209.6060  154.8550 C   0  0  2  0  0  3  0  0  0  0  0  0
  160.6820  207.8160  155.9450 C   0  0  1  0  0  3  0  0  0  0  0  0
  161.8090  209.5820  149.8190 N   0  0  0  0  0  0  0  0  0  0  0  0
  161.2770  210.0720  152.2590 C   0  0  1  0  0  3  0  0  0  0  0  0
  161.4300  204.0060  150.7010 C   0  0  0  0  0  3  0  0  0  0  0  0
  159.2980  210.5770  155.9990 C   0  0  0  0  0  2  0  0  0  0  0  0
  158.2270  211.5720  154.0600 N   0  0  0  0  0  2  0  0  0  0  0  0
  161.4420  205.7650  149.1340 F   0  0  0  0  0  0  0  0  0  0  0  0
  160.9470  206.7000  153.8730 C   0  0  0  0  0  0  0  0  0  0  0  0
  161.3590  203.5340  152.0100 C   0  0  0  0  0  3  0  0  0  0  0  0
  161.1990  206.3050  151.4880 C   0  0  0  0  0  0  0  0  0  0  0  0
  160.8310  208.0390  153.6520 C   0  0  0  0  0  0  0  0  0  0  0  0
  161.9450  208.1610  156.7120 C   0  0  0  0  0  1  0  0  0  0  0  0
  160.5070  208.7560  154.8340 N   0  0  0  0  0  0  0  0  0  0  0  0
  158.3540  211.6640  155.5180 C   0  0  0  0  0  2  0  0  0  0  0  0
  161.0830  211.8280  153.8780 O   0  0  0  0  0  1  0  0  0  0  0  0
  161.2060  204.4270  153.0660 C   0  0  0  0  0  3  0  0  0  0  0  0
  161.1260  205.8020  152.8200 C   0  0  0  0  0  0  0  0  0  0  0  0
  160.3470  211.0600  152.9710 C   0  0  2  0  0  3  0  0  0  0  0  0
  162.3700  209.9760  148.5350 C   0  0  0  0  0  2  0  0  0  0  0  0
  162.4580  212.1430  147.5600 O   0  0  0  0  0  1  0  0  0  0  0  0
  161.5810  211.1350  147.9560 C   0  0  0  0  0  2  0  0  0  0  0  0
  1 19  2  0  0  0  0
  1  4  1  0  0  0  0
  2 13  2  0  0  0  0
  2 19  1  0  0  0  0
  3 10  1  0  0  0  0
  4 20  2  0  0  0  0
  5  1  1  0  0  0  0
  6  8  2  0  0  0  0
  7 15  1  1  0  0  0
  7  9  1  0  0  0  0
  9 14  1  1  0  0  0
 10 21  1  6  0  0  0
 11  5  1  0  0  0  0
 11  8  1  0  0  0  0
 12  8  1  6  0  0  0
 12  4  1  0  0  0  0
 12 27  1  0  0  0  0
 13 18  1  0  0  0  0
 15 23  1  0  0  0  0
 16  2  1  0  0  0  0
 17  3  1  0  0  0  0
 18 25  2  0  0  0  0
 19 26  1  0  0  0  0
 20 17  1  0  0  0  0
 20 22  1  0  0  0  0
 22  9  1  0  0  0  0
 22 10  1  0  0  0  0
 23 14  1  0  0  0  0
 26 25  1  0  0  0  0
 26 17  2  0  0  0  0
 27  7  1  0  0  0  0
 27 24  1  1  0  0  0
 28 11  1  0  0  0  0
 29 30  1  0  0  0  0
 30 28  1  0  0  0  0
M  END
>  <MODEL>
3

>  <REMARK>
 VINA RESULT:      -5.6      2.782      5.468
  Name = 
  2 active torsions:
  status: ('A' for Active; 'I' for Inactive)
    1  A    between atoms: N_11  and  C_28
    2  A    between atoms: C_28  and  C_30
                            x       y       z     vdW  Elec       q    Type
                         _______ _______ _______ _____ _____    ______ ____

>  <TORSDO>
F 2

$$$$
=
 OpenBabel11122412333D

 30 35  0  0  1  0  0  0  0  0999 V2000
  160.6270  210.3530  151.7500 C   0  0  0  0  0  0  0  0  0  0  0  0
  161.7830  208.3470  150.8040 C   0  0  0  0  0  0  0  0  0  0  0  0
  160.4060  208.6110  155.6370 C   0  0  0  0  0  2  0  0  0  0  0  0
  160.0550  210.9960  152.8750 C   0  0  0  0  0  0  0  0  0  0  0  0
  160.5300  211.0290  150.4080 C   0  0  0  0  0  2  0  0  0  0  0  0
  160.0260  214.4530  151.5530 O   0  0  0  0  0  0  0  0  0  0  0  0
  157.4640  211.9170  153.9570 C   0  0  1  0  0  3  0  0  0  0  0  0
  160.1410  213.1990  151.6110 C   0  0  0  0  0  0  0  0  0  0  0  0
  157.8740  211.0700  155.1570 C   0  0  2  0  0  3  0  0  0  0  0  0
  159.6920  209.7960  156.3130 C   0  0  1  0  0  3  0  0  0  0  0  0
  160.6980  212.4730  150.5050 N   0  0  0  0  0  0  0  0  0  0  0  0
  159.7760  212.4820  152.8770 C   0  0  1  0  0  3  0  0  0  0  0  0
  162.3380  207.0800  151.0030 C   0  0  0  0  0  3  0  0  0  0  0  0
  157.3810  211.8450  156.3440 C   0  0  0  0  0  2  0  0  0  0  0  0
  156.2200  212.5780  154.3410 N   0  0  0  0  0  2  0  0  0  0  0  0
  161.8530  208.8750  149.5570 F   0  0  0  0  0  0  0  0  0  0  0  0
  160.5650  209.0730  154.2340 C   0  0  0  0  0  0  0  0  0  0  0  0
  162.3140  206.4820  152.2620 C   0  0  0  0  0  3  0  0  0  0  0  0
  161.1870  209.0450  151.8850 C   0  0  0  0  0  0  0  0  0  0  0  0
  159.9810  210.2930  154.0780 C   0  0  0  0  0  0  0  0  0  0  0  0
  160.6500  210.4950  157.2610 C   0  0  0  0  0  1  0  0  0  0  0  0
  159.2940  210.7180  155.2460 N   0  0  0  0  0  0  0  0  0  0  0  0
  156.1540  212.5590  155.8050 C   0  0  0  0  0  2  0  0  0  0  0  0
  158.7770  213.8710  154.5550 O   0  0  0  0  0  1  0  0  0  0  0  0
  161.7330  207.1450  153.3380 C   0  0  0  0  0  3  0  0  0  0  0  0
  161.1720  208.4150  153.1640 C   0  0  0  0  0  0  0  0  0  0  0  0
  158.4770  212.9860  153.5150 C   0  0  2  0  0  3  0  0  0  0  0  0
  161.2000  213.1740  149.3320 C   0  0  0  0  0  2  0  0  0  0  0  0
  163.0840  212.2490  148.2150 O   0  0  0  0  0  1  0  0  0  0  0  0
  161.6950  212.1760  148.3030 C   0  0  0  0  0  2  0  0  0  0  0  0
  1 19  2  0  0  0  0
  1  4  1  0  0  0  0
  2 13  2  0  0  0  0
  2 19  1  0  0  0  0
  3 10  1  0  0  0  0
  4 12  1  0  0  0  0
  4 20  2  0  0  0  0
  5 11  1  0  0  0  0
  5  1  1  0  0  0  0
  6  8  2  0  0  0  0
  7 15  1  1  0  0  0
  7  9  1  0  0  0  0
  9 22  1  0  0  0  0
  9 14  1  1  0  0  0
 10 21  1  1  0  0  0
 11  8  1  0  0  0  0
 12  8  1  6  0  0  0
 12 27  1  0  0  0  0
 13 18  1  0  0  0  0
 15 23  1  0  0  0  0
 16  2  1  0  0  0  0
 17  3  1  0  0  0  0
 18 25  2  0  0  0  0
 19 26  1  0  0  0  0
 20 17  1  0  0  0  0
 20 22  1  0  0  0  0
 22 10  1  0  0  0  0
 23 14  1  0  0  0  0
 26 25  1  0  0  0  0
 26 17  2  0  0  0  0
 27  7  1  0  0  0  0
 27 24  1  1  0  0  0
 28 11  1  0  0  0  0
 29 30  1  0  0  0  0
 30 28  1  0  0  0  0
M  END
>  <MODEL>
4

>  <REMARK>
 VINA RESULT:      -5.0      2.546      4.995
  Name = 
  2 active torsions:
  status: ('A' for Active; 'I' for Inactive)
    1  A    between atoms: N_11  and  C_28
    2  A    between atoms: C_28  and  C_30
                            x       y       z     vdW  Elec       q    Type
                         _______ _______ _______ _____ _____    ______ ____

>  <TORSDO>
F 2

$$$$
=
 OpenBabel11122412333D

 30 35  0  0  1  0  0  0  0  0999 V2000
  161.4410  209.0030  152.0390 C   0  0  0  0  0  0  0  0  0  0  0  0
  162.3260  208.9090  149.7030 C   0  0  0  0  0  0  0  0  0  0  0  0
  159.9140  212.9470  151.4890 C   0  0  0  0  0  2  0  0  0  0  0  0
  160.7500  209.7310  153.0390 C   0  0  0  0  0  0  0  0  0  0  0  0
  162.0360  207.6680  152.4040 C   0  0  0  0  0  2  0  0  0  0  0  0
  159.9530  206.9080  155.2960 O   0  0  0  0  0  0  0  0  0  0  0  0
  161.1550  211.0560  155.6480 C   0  0  1  0  0  3  0  0  0  0  0  0
  160.4510  207.5740  154.3480 C   0  0  0  0  0  0  0  0  0  0  0  0
  160.5470  212.2540  154.9250 C   0  0  2  0  0  3  0  0  0  0  0  0
  159.3330  213.1030  152.9080 C   0  0  1  0  0  3  0  0  0  0  0  0
  161.1780  206.9100  153.3050 N   0  0  0  0  0  0  0  0  0  0  0  0
  160.2000  209.0510  154.2710 C   0  0  1  0  0  3  0  0  0  0  0  0
  162.4780  209.5180  148.4540 C   0  0  0  0  0  3  0  0  0  0  0  0
  159.7050  212.9280  155.9690 C   0  0  0  0  0  2  0  0  0  0  0  0
  161.3310  211.4740  157.0360 N   0  0  0  0  0  2  0  0  0  0  0  0
  162.8320  207.6600  149.8570 F   0  0  0  0  0  0  0  0  0  0  0  0
  160.4980  211.5820  151.5160 C   0  0  0  0  0  0  0  0  0  0  0  0
  161.9710  210.7950  148.2180 C   0  0  0  0  0  3  0  0  0  0  0  0
  161.6510  209.5840  150.7500 C   0  0  0  0  0  0  0  0  0  0  0  0
  160.3590  211.0400  152.7580 C   0  0  0  0  0  0  0  0  0  0  0  0
  157.8170  213.0780  152.8440 C   0  0  0  0  0  1  0  0  0  0  0  0
  159.8130  211.9610  153.6920 N   0  0  0  0  0  0  0  0  0  0  0  0
  160.4380  212.6150  157.2610 C   0  0  0  0  0  2  0  0  0  0  0  0
  159.0470  209.9650  156.1640 O   0  0  0  0  0  1  0  0  0  0  0  0
  161.3060  211.4790  149.2310 C   0  0  0  0  0  3  0  0  0  0  0  0
  161.1410  210.8900  150.4890 C   0  0  0  0  0  0  0  0  0  0  0  0
  160.3200  209.7650  155.6220 C   0  0  2  0  0  3  0  0  0  0  0  0
  161.2960  205.4590  153.2860 C   0  0  0  0  0  2  0  0  0  0  0  0
  160.9780  203.5710  151.8760 O   0  0  0  0  0  1  0  0  0  0  0  0
  161.1950  204.9480  151.8610 C   0  0  0  0  0  2  0  0  0  0  0  0
  1  5  1  0  0  0  0
  1  4  1  0  0  0  0
  2 16  1  0  0  0  0
  2 19  1  0  0  0  0
  3 17  1  0  0  0  0
  3 10  1  0  0  0  0
  5 11  1  0  0  0  0
  7 15  1  1  0  0  0
  8  6  2  0  0  0  0
  9  7  1  0  0  0  0
  9 14  1  1  0  0  0
 10 21  1  6  0  0  0
 10 22  1  0  0  0  0
 11  8  1  0  0  0  0
 12  4  1  6  0  0  0
 12  8  1  0  0  0  0
 12 27  1  0  0  0  0
 13  2  2  0  0  0  0
 14 23  1  0  0  0  0
 15 23  1  0  0  0  0
 17 20  1  0  0  0  0
 18 13  1  0  0  0  0
 18 25  2  0  0  0  0
 19  1  2  0  0  0  0
 20  4  2  0  0  0  0
 20 22  1  0  0  0  0
 22  9  1  0  0  0  0
 25 26  1  0  0  0  0
 26 19  1  0  0  0  0
 26 17  2  0  0  0  0
 27  7  1  0  0  0  0
 27 24  1  6  0  0  0
 28 11  1  0  0  0  0
 30 29  1  0  0  0  0
 30 28  1  0  0  0  0
M  END
>  <MODEL>
5

>  <REMARK>
 VINA RESULT:      -4.8      1.860      2.613
  Name = 
  2 active torsions:
  status: ('A' for Active; 'I' for Inactive)
    1  A    between atoms: N_11  and  C_28
    2  A    between atoms: C_28  and  C_30
                            x       y       z     vdW  Elec       q    Type
                         _______ _______ _______ _____ _____    ______ ____

>  <TORSDO>
F 2

$$$$
=
 OpenBabel11122412333D

 30 35  0  0  1  0  0  0  0  0999 V2000
  160.8670  211.0060  152.2770 C   0  0  0  0  0  0  0  0  0  0  0  0
  161.9170  211.0830  150.0090 C   0  0  0  0  0  0  0  0  0  0  0  0
  158.4330  214.4110  151.4580 C   0  0  0  0  0  2  0  0  0  0  0  0
  159.9420  211.5580  153.1970 C   0  0  0  0  0  0  0  0  0  0  0  0
  161.7530  209.8780  152.7360 C   0  0  0  0  0  2  0  0  0  0  0  0
  159.7230  208.6830  155.5180 O   0  0  0  0  0  0  0  0  0  0  0  0
  159.8030  213.0080  155.7670 C   0  0  1  0  0  3  0  0  0  0  0  0
  160.1050  209.4300  154.5760 C   0  0  0  0  0  0  0  0  0  0  0  0
  158.9660  213.9920  154.9550 C   0  0  2  0  0  3  0  0  0  0  0  0
  157.7290  214.4490  152.8280 C   0  0  1  0  0  3  0  0  0  0  0  0
  161.0520  208.9490  153.6120 N   0  0  0  0  0  0  0  0  0  0  0  0
  159.4930  210.7910  154.4190 C   0  0  1  0  0  3  0  0  0  0  0  0
  162.0010  211.6790  148.7470 C   0  0  0  0  0  3  0  0  0  0  0  0
  157.9060  214.4530  155.9120 C   0  0  0  0  0  2  0  0  0  0  0  0
  159.7650  213.4930  157.1440 N   0  0  0  0  0  2  0  0  0  0  0  0
  162.7110  210.0100  150.2500 F   0  0  0  0  0  0  0  0  0  0  0  0
  159.3410  213.2430  151.5820 C   0  0  0  0  0  0  0  0  0  0  0  0
  161.2050  212.7770  148.4240 C   0  0  0  0  0  3  0  0  0  0  0  0
  161.0170  211.5890  150.9800 C   0  0  0  0  0  0  0  0  0  0  0  0
  159.2530  212.7150  152.8350 C   0  0  0  0  0  0  0  0  0  0  0  0
  156.2780  214.0350  152.6680 C   0  0  0  0  0  1  0  0  0  0  0  0
  158.4240  213.4890  153.6900 N   0  0  0  0  0  0  0  0  0  0  0  0
  158.5970  214.3710  157.2610 C   0  0  0  0  0  2  0  0  0  0  0  0
  158.0100  211.4260  156.1910 O   0  0  0  0  0  1  0  0  0  0  0  0
  160.3150  213.2930  149.3610 C   0  0  0  0  0  3  0  0  0  0  0  0
  160.2130  212.7130  150.6300 C   0  0  0  0  0  0  0  0  0  0  0  0
  159.3280  211.5460  155.7430 C   0  0  2  0  0  3  0  0  0  0  0  0
  161.5360  207.5760  153.6640 C   0  0  0  0  0  2  0  0  0  0  0  0
  162.3220  205.7910  152.3050 O   0  0  0  0  0  1  0  0  0  0  0  0
  161.6550  207.0140  152.2600 C   0  0  0  0  0  2  0  0  0  0  0  0
  1  5  1  0  0  0  0
  1  4  1  0  0  0  0
  2 16  1  0  0  0  0
  2 19  1  0  0  0  0
  3 17  1  0  0  0  0
  3 10  1  0  0  0  0
  5 11  1  0  0  0  0
  7 15  1  1  0  0  0
  8  6  2  0  0  0  0
  9  7  1  0  0  0  0
  9 14  1  1  0  0  0
 10 21  1  6  0  0  0
 10 22  1  0  0  0  0
 11 28  1  0  0  0  0
 11  8  1  0  0  0  0
 12  4  1  6  0  0  0
 12  8  1  0  0  0  0
 12 27  1  0  0  0  0
 13  2  2  0  0  0  0
 14 23  1  0  0  0  0
 15 23  1  0  0  0  0
 17 20  1  0  0  0  0
 18 13  1  0  0  0  0
 18 25  2  0  0  0  0
 19  1  2  0  0  0  0
 20  4  2  0  0  0  0
 20 22  1  0  0  0  0
 22  9  1  0  0  0  0
 25 26  1  0  0  0  0
 26 19  1  0  0  0  0
 26 17  2  0  0  0  0
 27  7  1  0  0  0  0
 27 24  1  6  0  0  0
 30 29  1  0  0  0  0
 30 28  1  0  0  0  0
M  END
>  <MODEL>
6

>  <REMARK>
 VINA RESULT:      -4.8      1.872      2.796
  Name = 
  2 active torsions:
  status: ('A' for Active; 'I' for Inactive)
    1  A    between atoms: N_11  and  C_28
    2  A    between atoms: C_28  and  C_30
                            x       y       z     vdW  Elec       q    Type
                         _______ _______ _______ _____ _____    ______ ____

>  <TORSDO>
F 2

$$$$
=
 OpenBabel11122412333D

 30 35  0  0  1  0  0  0  0  0999 V2000
  161.4330  210.2240  150.2070 C   0  0  0  0  0  0  0  0  0  0  0  0
  162.3390  207.9270  149.8120 C   0  0  0  0  0  0  0  0  0  0  0  0
  160.4540  209.3310  154.2610 C   0  0  0  0  0  2  0  0  0  0  0  0
  160.8460  211.1510  151.1020 C   0  0  0  0  0  0  0  0  0  0  0  0
  161.6140  210.6300  148.7680 C   0  0  0  0  0  2  0  0  0  0  0  0
  161.5610  214.2480  149.2050 O   0  0  0  0  0  0  0  0  0  0  0  0
  158.3370  212.6280  151.6040 C   0  0  1  0  0  3  0  0  0  0  0  0
  161.4540  213.0260  149.4990 C   0  0  0  0  0  0  0  0  0  0  0  0
  158.4500  211.9840  152.9820 C   0  0  2  0  0  3  0  0  0  0  0  0
  159.8740  210.7170  154.6040 C   0  0  1  0  0  3  0  0  0  0  0  0
  162.0100  212.0250  148.6340 N   0  0  0  0  0  0  0  0  0  0  0  0
  160.8240  212.6320  150.8020 C   0  0  1  0  0  3  0  0  0  0  0  0
  162.6440  206.6570  150.3110 C   0  0  0  0  0  3  0  0  0  0  0  0
  157.9550  213.0410  153.9270 C   0  0  0  0  0  2  0  0  0  0  0  0
  157.1850  213.5230  151.6760 N   0  0  0  0  0  2  0  0  0  0  0  0
  162.6470  208.1830  148.5160 F   0  0  0  0  0  0  0  0  0  0  0  0
  160.8560  209.4800  152.8390 C   0  0  0  0  0  0  0  0  0  0  0  0
  162.3680  206.3290  151.6370 C   0  0  0  0  0  3  0  0  0  0  0  0
  161.7430  208.9010  150.6520 C   0  0  0  0  0  0  0  0  0  0  0  0
  160.5100  210.7170  152.3850 C   0  0  0  0  0  0  0  0  0  0  0  0
  160.8150  211.4440  155.5470 C   0  0  0  0  0  1  0  0  0  0  0  0
  159.7690  211.4580  153.3440 N   0  0  0  0  0  0  0  0  0  0  0  0
  156.9410  213.8030  153.0940 C   0  0  0  0  0  2  0  0  0  0  0  0
  159.8790  214.4530  152.0410 O   0  0  0  0  0  1  0  0  0  0  0  0
  161.7810  207.2670  152.4810 C   0  0  0  0  0  3  0  0  0  0  0  0
  161.4680  208.5440  152.0050 C   0  0  0  0  0  0  0  0  0  0  0  0
  159.5620  213.4330  151.1400 C   0  0  2  0  0  3  0  0  0  0  0  0
  162.7610  212.4020  147.4450 C   0  0  0  0  0  2  0  0  0  0  0  0
  162.4990  213.0640  145.1770 O   0  0  0  0  0  1  0  0  0  0  0  0
  161.8210  212.9510  146.3890 C   0  0  0  0  0  2  0  0  0  0  0  0
  1 19  2  0  0  0  0
  1  4  1  0  0  0  0
  2 13  2  0  0  0  0
  2 19  1  0  0  0  0
  3 10  1  0  0  0  0
  4 20  2  0  0  0  0
  5  1  1  0  0  0  0
  6  8  2  0  0  0  0
  7 15  1  1  0  0  0
  7  9  1  0  0  0  0
  9 22  1  0  0  0  0
  9 14  1  1  0  0  0
 10 21  1  1  0  0  0
 11  5  1  0  0  0  0
 11  8  1  0  0  0  0
 12  8  1  6  0  0  0
 12  4  1  0  0  0  0
 12 27  1  0  0  0  0
 13 18  1  0  0  0  0
 15 23  1  0  0  0  0
 16  2  1  0  0  0  0
 17  3  1  0  0  0  0
 18 25  2  0  0  0  0
 19 26  1  0  0  0  0
 20 17  1  0  0  0  0
 20 22  1  0  0  0  0
 22 10  1  0  0  0  0
 23 14  1  0  0  0  0
 26 25  1  0  0  0  0
 26 17  2  0  0  0  0
 27  7  1  0  0  0  0
 27 24  1  1  0  0  0
 28 11  1  0  0  0  0
 29 30  1  0  0  0  0
 30 28  1  0  0  0  0
M  END
>  <MODEL>
7

>  <REMARK>
 VINA RESULT:      -4.7      2.849      5.162
  Name = 
  2 active torsions:
  status: ('A' for Active; 'I' for Inactive)
    1  A    between atoms: N_11  and  C_28
    2  A    between atoms: C_28  and  C_30
                            x       y       z     vdW  Elec       q    Type
                         _______ _______ _______ _____ _____    ______ ____

>  <TORSDO>
F 2

$$$$
=
 OpenBabel11122412333D

 30 35  0  0  1  0  0  0  0  0999 V2000
  161.6470  208.6080  150.8840 C   0  0  0  0  0  0  0  0  0  0  0  0
  162.3140  209.6810  148.7270 C   0  0  0  0  0  0  0  0  0  0  0  0
  160.0790  212.2640  152.4210 C   0  0  0  0  0  2  0  0  0  0  0  0
  161.0510  208.7380  152.1630 C   0  0  0  0  0  0  0  0  0  0  0  0
  162.2720  207.2890  150.5140 C   0  0  0  0  0  2  0  0  0  0  0  0
  160.4630  205.1480  152.8440 O   0  0  0  0  0  0  0  0  0  0  0  0
  161.6960  208.6710  155.0450 C   0  0  1  0  0  3  0  0  0  0  0  0
  160.8720  206.2070  152.2950 C   0  0  0  0  0  0  0  0  0  0  0  0
  161.0250  210.0410  155.0390 C   0  0  2  0  0  3  0  0  0  0  0  0
  159.6320  211.6970  153.7820 C   0  0  1  0  0  3  0  0  0  0  0  0
  161.5000  206.1560  151.0060 N   0  0  0  0  0  0  0  0  0  0  0  0
  160.6160  207.5290  152.9570 C   0  0  1  0  0  3  0  0  0  0  0  0
  162.3510  210.8190  147.9160 C   0  0  0  0  0  3  0  0  0  0  0  0
  160.2830  210.0960  156.3420 C   0  0  0  0  0  2  0  0  0  0  0  0
  161.9990  208.3820  156.4440 N   0  0  0  0  0  2  0  0  0  0  0  0
  162.8310  208.5340  148.2210 F   0  0  0  0  0  0  0  0  0  0  0  0
  160.6620  211.0790  151.7420 C   0  0  0  0  0  0  0  0  0  0  0  0
  161.8250  212.0300  148.3640 C   0  0  0  0  0  3  0  0  0  0  0  0
  161.7380  209.7430  150.0200 C   0  0  0  0  0  0  0  0  0  0  0  0
  160.6380  210.0040  152.5780 C   0  0  0  0  0  0  0  0  0  0  0  0
  158.1160  211.6400  153.8380 C   0  0  0  0  0  1  0  0  0  0  0  0
  160.1800  210.3420  153.8800 N   0  0  0  0  0  0  0  0  0  0  0  0
  161.1310  209.2360  157.2610 C   0  0  0  0  0  2  0  0  0  0  0  0
  159.6430  207.3750  155.1420 O   0  0  0  0  0  1  0  0  0  0  0  0
  161.2570  212.1160  149.6320 C   0  0  0  0  0  3  0  0  0  0  0  0
  161.2080  210.9910  150.4610 C   0  0  0  0  0  0  0  0  0  0  0  0
  160.8610  207.5150  154.4700 C   0  0  2  0  0  3  0  0  0  0  0  0
  161.6150  204.8970  150.2830 C   0  0  0  0  0  2  0  0  0  0  0  0
  160.9080  202.7260  150.9470 O   0  0  0  0  0  1  0  0  0  0  0  0
  161.7980  203.7510  151.2610 C   0  0  0  0  0  2  0  0  0  0  0  0
  1  4  1  0  0  0  0
  2 19  1  0  0  0  0
  3 10  1  0  0  0  0
  4 20  2  0  0  0  0
  5  1  1  0  0  0  0
  5 11  1  0  0  0  0
  7 15  1  1  0  0  0
  8  6  2  0  0  0  0
  8 12  1  0  0  0  0
  9  7  1  0  0  0  0
  9 14  1  1  0  0  0
 10 21  1  6  0  0  0
 10 22  1  0  0  0  0
 11  8  1  0  0  0  0
 12  4  1  6  0  0  0
 12 27  1  0  0  0  0
 13 18  1  0  0  0  0
 13  2  2  0  0  0  0
 14 23  1  0  0  0  0
 15 23  1  0  0  0  0
 16  2  1  0  0  0  0
 17  3  1  0  0  0  0
 17 20  1  0  0  0  0
 18 25  2  0  0  0  0
 19 26  1  0  0  0  0
 19  1  2  0  0  0  0
 20 22  1  0  0  0  0
 22  9  1  0  0  0  0
 25 26  1  0  0  0  0
 26 17  2  0  0  0  0
 27  7  1  0  0  0  0
 27 24  1  1  0  0  0
 28 11  1  0  0  0  0
 28 30  1  0  0  0  0
 29 30  1  0  0  0  0
M  END
>  <MODEL>
8

>  <REMARK>
 VINA RESULT:      -4.6      1.751      2.282
  Name = 
  2 active torsions:
  status: ('A' for Active; 'I' for Inactive)
    1  A    between atoms: N_11  and  C_28
    2  A    between atoms: C_28  and  C_30
                            x       y       z     vdW  Elec       q    Type
                         _______ _______ _______ _____ _____    ______ ____

>  <TORSDO>
F 2

$$$$
