=
 OpenBabel11122413053D

 32 37  0  0  1  0  0  0  0  0999 V2000
  160.9860  201.3170  149.9200 C   0  0  0  0  0  2  0  0  0  0  0  0
  161.3360  206.1850  151.8400 C   0  0  2  0  0  3  0  0  0  0  0  0
  162.2290  209.6140  148.4960 C   0  0  0  0  0  3  0  0  0  0  0  0
  162.2200  210.6170  149.4610 C   0  0  0  0  0  3  0  0  0  0  0  0
  160.8040  207.0060  154.1790 C   0  0  0  0  0  0  0  0  0  0  0  0
  160.4010  208.1200  155.1080 C   0  0  1  0  0  3  0  0  0  0  0  0
  160.6100  203.9510  150.9480 C   0  0  1  0  0  3  0  0  0  0  0  0
  161.4310  205.6990  149.3640 N   0  0  0  0  0  2  0  0  0  0  0  0
  160.4170  210.4040  155.5220 C   0  0  2  0  0  3  0  0  0  0  0  0
  161.1600  203.4400  148.4640 C   0  0  0  0  0  2  0  0  0  0  0  0
  161.9760  208.3280  148.8500 N   0  0  0  0  0  0  0  0  0  0  0  0
  161.4750  206.6700  150.4180 C   0  0  0  0  0  0  0  0  0  0  0  0
  161.7120  207.9620  150.1380 C   0  0  0  0  0  0  0  0  0  0  0  0
  161.3440  208.6420  152.4190 C   0  0  0  0  0  0  0  0  0  0  0  0
  161.0570  209.7120  156.7200 C   0  0  0  0  0  2  0  0  0  0  0  0
  162.2090  201.9480  150.5950 C   0  0  0  0  0  2  0  0  0  0  0  0
  160.6640  204.4610  149.4890 C   0  0  1  0  0  3  0  0  0  0  0  0
  161.3450  208.3030  156.2690 C   0  0  0  0  0  2  0  0  0  0  0  0
  161.8630  203.1950  151.4200 C   0  0  0  0  0  2  0  0  0  0  0  0
  160.5380  202.0500  148.6390 C   0  0  1  0  0  3  0  0  0  0  0  0
  161.9360  210.2840  150.7830 C   0  0  0  0  0  3  0  0  0  0  0  0
  161.6700  208.9540  151.1470 C   0  0  0  0  0  0  0  0  0  0  0  0
  161.3250  209.6840  153.5000 C   0  0  0  0  0  2  0  0  0  0  0  0
  160.2650  205.0930  151.9040 C   0  0  0  0  0  2  0  0  0  0  0  0
  160.8860  205.8310  154.6300 O   0  0  0  0  0  0  0  0  0  0  0  0
  159.0730  210.9820  155.9210 C   0  0  0  0  0  1  0  0  0  0  0  0
  161.0780  207.2780  152.7900 N   0  0  0  0  0  0  0  0  0  0  0  0
  160.2410  209.4260  154.4510 N   0  0  1  0  0  0  0  0  0  0  0  0
  160.8690  201.2090  147.4170 C   0  0  0  0  0  2  0  0  0  0  0  0
  160.6430  201.9820  146.1630 C   0  0  0  0  0  0  0  0  0  0  0  0
  161.4000  202.9460  145.8730 O   0  0  0  0  0  1  0  0  0  0  0  0
  159.6170  201.6240  145.3000 O   0  0  0  0  0  0  0  0  0  0  0  0
  1 16  1  0  0  0  0
  2 24  1  6  0  0  0
  2 27  1  0  0  0  0
  3 11  2  0  0  0  0
  3  4  1  0  0  0  0
  4 21  2  0  0  0  0
  5 25  2  0  0  0  0
  5  6  1  0  0  0  0
  6 18  1  1  0  0  0
  7 19  1  1  0  0  0
  7 24  1  0  0  0  0
  8 17  1  0  0  0  0
  8 12  1  0  0  0  0
  9 26  1  1  0  0  0
  9 15  1  0  0  0  0
 10 20  1  0  0  0  0
 11 13  1  0  0  0  0
 12  2  1  0  0  0  0
 13 12  2  0  0  0  0
 13 22  1  0  0  0  0
 14 27  1  0  0  0  0
 14 23  1  0  0  0  0
 16 19  1  0  0  0  0
 17 10  1  6  0  0  0
 17  7  1  0  0  0  0
 18 15  1  0  0  0  0
 20 29  1  6  0  0  0
 20  1  1  0  0  0  0
 21 22  1  0  0  0  0
 22 14  2  0  0  0  0
 27  5  1  0  0  0  0
 28 23  1  6  0  0  0
 28  6  1  0  0  0  0
 28  9  1  0  0  0  0
 30 29  1  0  0  0  0
 31 30  1  0  0  0  0
 32 30  2  0  0  0  0
M  END
>  <MODEL>
1

>  <REMARK>
 VINA RESULT:      -9.6      0.000      0.000
  Name = 
  2 active torsions:
  status: ('A' for Active; 'I' for Inactive)
    1  A    between atoms: C_20  and  C_29
    2  A    between atoms: C_29  and  C_30
                            x       y       z     vdW  Elec       q    Type
                         _______ _______ _______ _____ _____    ______ ____

>  <TORSDO>
F 2

$$$$
=
 OpenBabel11122413053D

 32 37  0  0  1  0  0  0  0  0999 V2000
  161.4560  210.7360  153.4710 C   0  0  0  0  0  2  0  0  0  0  0  0
  161.5940  206.6560  150.1800 C   0  0  2  0  0  3  0  0  0  0  0  0
  160.8270  202.3320  152.2920 C   0  0  0  0  0  3  0  0  0  0  0  0
  160.9580  201.6680  151.0750 C   0  0  0  0  0  3  0  0  0  0  0  0
  161.6950  206.6680  147.6470 C   0  0  0  0  0  0  0  0  0  0  0  0
  161.4280  205.9900  146.3290 C   0  0  1  0  0  3  0  0  0  0  0  0
  160.9980  208.6680  151.5610 C   0  0  1  0  0  3  0  0  0  0  0  0
  160.9870  206.4050  152.6170 N   0  0  0  0  0  2  0  0  0  0  0  0
  161.2010  203.9790  145.1910 C   0  0  2  0  0  3  0  0  0  0  0  0
  160.8180  208.3230  154.1270 C   0  0  0  0  0  2  0  0  0  0  0  0
  160.9090  203.6870  152.3380 N   0  0  0  0  0  0  0  0  0  0  0  0
  161.2000  205.7820  151.3450 C   0  0  0  0  0  0  0  0  0  0  0  0
  161.1250  204.4460  151.2250 C   0  0  0  0  0  0  0  0  0  0  0  0
  161.3840  204.5320  148.8320 C   0  0  0  0  0  0  0  0  0  0  0  0
  162.2880  204.7880  144.4910 C   0  0  0  0  0  2  0  0  0  0  0  0
  162.7090  210.0270  152.9470 C   0  0  0  0  0  2  0  0  0  0  0  0
  160.5090  207.7820  152.7300 C   0  0  1  0  0  3  0  0  0  0  0  0
  162.6450  205.9000  145.4440 C   0  0  0  0  0  2  0  0  0  0  0  0
  162.4410  209.1830  151.6930 C   0  0  0  0  0  2  0  0  0  0  0  0
  160.5160  209.8180  154.2800 C   0  0  1  0  0  3  0  0  0  0  0  0
  161.1590  202.4100  149.9150 C   0  0  0  0  0  3  0  0  0  0  0  0
  161.2400  203.8120  149.9640 C   0  0  0  0  0  0  0  0  0  0  0  0
  161.5360  203.8650  147.4950 C   0  0  0  0  0  2  0  0  0  0  0  0
  160.7890  207.9570  150.2240 C   0  0  0  0  0  2  0  0  0  0  0  0
  162.1040  207.8610  147.6500 O   0  0  0  0  0  0  0  0  0  0  0  0
  159.9750  203.8920  144.3040 C   0  0  0  0  0  1  0  0  0  0  0  0
  161.4730  205.9670  148.8860 N   0  0  0  0  0  0  0  0  0  0  0  0
  160.8600  204.6390  146.4500 N   0  0  1  0  0  0  0  0  0  0  0  0
  160.5810  210.1810  155.7550 C   0  0  0  0  0  2  0  0  0  0  0  0
  159.3110  210.8210  156.2000 C   0  0  0  0  0  0  0  0  0  0  0  0
  159.2860  211.5000  157.2610 O   0  0  0  0  0  1  0  0  0  0  0  0
  158.1620  210.6940  155.4330 O   0  0  0  0  0  0  0  0  0  0  0  0
  1 20  1  0  0  0  0
  2 24  1  6  0  0  0
  2 12  1  0  0  0  0
  3 11  2  0  0  0  0
  4  3  1  0  0  0  0
  5 25  2  0  0  0  0
  5 27  1  0  0  0  0
  6 18  1  1  0  0  0
  6 28  1  0  0  0  0
  6  5  1  0  0  0  0
  7 24  1  6  0  0  0
  7 19  1  0  0  0  0
  7 17  1  0  0  0  0
  8 17  1  0  0  0  0
  9 26  1  6  0  0  0
  9 28  1  0  0  0  0
 10 20  1  0  0  0  0
 12  8  1  0  0  0  0
 13 12  2  0  0  0  0
 13 11  1  0  0  0  0
 14 27  1  0  0  0  0
 14 22  2  0  0  0  0
 15  9  1  0  0  0  0
 15 18  1  0  0  0  0
 16  1  1  0  0  0  0
 17 10  1  1  0  0  0
 19 16  1  0  0  0  0
 20 29  1  1  0  0  0
 21 22  1  0  0  0  0
 21  4  2  0  0  0  0
 22 13  1  0  0  0  0
 23 14  1  0  0  0  0
 27  2  1  0  0  0  0
 28 23  1  1  0  0  0
 29 30  1  0  0  0  0
 30 31  1  0  0  0  0
 32 30  2  0  0  0  0
M  END
>  <MODEL>
2

>  <REMARK>
 VINA RESULT:      -7.9      2.546      8.780
  Name = 
  2 active torsions:
  status: ('A' for Active; 'I' for Inactive)
    1  A    between atoms: C_20  and  C_29
    2  A    between atoms: C_29  and  C_30
                            x       y       z     vdW  Elec       q    Type
                         _______ _______ _______ _____ _____    ______ ____

>  <TORSDO>
F 2

$$$$
=
 OpenBabel11122413053D

 32 37  0  0  1  0  0  0  0  0999 V2000
  160.8550  208.0320  157.0110 C   0  0  0  0  0  2  0  0  0  0  0  0
  160.8160  205.9800  152.1860 C   0  0  2  0  0  3  0  0  0  0  0  0
  161.9540  209.1260  148.6440 C   0  0  0  0  0  3  0  0  0  0  0  0
  161.8070  208.1450  147.6680 C   0  0  0  0  0  3  0  0  0  0  0  0
  160.5920  203.5490  151.5010 C   0  0  0  0  0  0  0  0  0  0  0  0
  160.8380  202.4480  150.5030 C   0  0  1  0  0  3  0  0  0  0  0  0
  161.3500  206.7260  154.5240 C   0  0  1  0  0  3  0  0  0  0  0  0
  161.5540  208.3510  152.6390 N   0  0  0  0  0  2  0  0  0  0  0  0
  161.1350  201.8830  148.2710 C   0  0  2  0  0  3  0  0  0  0  0  0
  161.6740  209.2730  154.9020 C   0  0  0  0  0  2  0  0  0  0  0  0
  161.7890  208.8110  149.9550 N   0  0  0  0  0  0  0  0  0  0  0  0
  161.3190  207.3100  151.6820 C   0  0  0  0  0  0  0  0  0  0  0  0
  161.4730  207.5500  150.3700 C   0  0  0  0  0  0  0  0  0  0  0  0
  161.0940  205.2440  149.7870 C   0  0  0  0  0  0  0  0  0  0  0  0
  159.9680  201.0610  148.8050 C   0  0  0  0  0  2  0  0  0  0  0  0
  159.6250  207.8000  156.1270 C   0  0  0  0  0  2  0  0  0  0  0  0
  161.9490  208.0570  154.0150 C   0  0  1  0  0  3  0  0  0  0  0  0
  159.5880  201.7000  150.1170 C   0  0  0  0  0  2  0  0  0  0  0  0
  159.8850  206.8060  154.9870 C   0  0  0  0  0  2  0  0  0  0  0  0
  161.8880  208.9980  156.3950 C   0  0  1  0  0  3  0  0  0  0  0  0
  161.5030  206.8430  148.0550 C   0  0  0  0  0  3  0  0  0  0  0  0
  161.3370  206.5170  149.4110 C   0  0  0  0  0  0  0  0  0  0  0  0
  160.9200  204.1490  148.7740 C   0  0  0  0  0  2  0  0  0  0  0  0
  161.5390  205.6200  153.4860 C   0  0  0  0  0  2  0  0  0  0  0  0
  160.1100  203.2560  152.6300 O   0  0  0  0  0  0  0  0  0  0  0  0
  162.3210  200.9770  148.0030 C   0  0  0  0  0  1  0  0  0  0  0  0
  160.9180  204.9150  151.1760 N   0  0  0  0  0  0  0  0  0  0  0  0
  161.4950  202.8930  149.2650 N   0  0  1  0  0  0  0  0  0  0  0  0
  161.8720  210.3210  157.1430 C   0  0  0  0  0  2  0  0  0  0  0  0
  160.6910  211.1400  156.7460 C   0  0  0  0  0  0  0  0  0  0  0  0
  159.5650  210.9100  157.2600 O   0  0  0  0  0  1  0  0  0  0  0  0
  160.8380  212.1750  155.8330 O   0  0  0  0  0  0  0  0  0  0  0  0
  2 24  1  1  0  0  0
  3 11  2  0  0  0  0
  4 21  2  0  0  0  0
  4  3  1  0  0  0  0
  5 25  2  0  0  0  0
  6 18  1  6  0  0  0
  6  5  1  0  0  0  0
  7 24  1  6  0  0  0
  7 19  1  0  0  0  0
  8 17  1  0  0  0  0
  9 26  1  1  0  0  0
  9 15  1  0  0  0  0
  9 28  1  0  0  0  0
 10 20  1  0  0  0  0
 11 13  1  0  0  0  0
 12  2  1  0  0  0  0
 12  8  1  0  0  0  0
 13 12  2  0  0  0  0
 14 27  1  0  0  0  0
 15 18  1  0  0  0  0
 16  1  1  0  0  0  0
 17  7  1  0  0  0  0
 17 10  1  1  0  0  0
 19 16  1  0  0  0  0
 20  1  1  0  0  0  0
 20 29  1  1  0  0  0
 21 22  1  0  0  0  0
 22 14  2  0  0  0  0
 22 13  1  0  0  0  0
 23 14  1  0  0  0  0
 27  5  1  0  0  0  0
 27  2  1  0  0  0  0
 28 23  1  6  0  0  0
 28  6  1  0  0  0  0
 30 29  1  0  0  0  0
 30 31  1  0  0  0  0
 32 30  2  0  0  0  0
M  END
>  <MODEL>
3

>  <REMARK>
 VINA RESULT:      -6.6      2.312      8.014
  Name = 
  2 active torsions:
  status: ('A' for Active; 'I' for Inactive)
    1  A    between atoms: C_20  and  C_29
    2  A    between atoms: C_29  and  C_30
                            x       y       z     vdW  Elec       q    Type
                         _______ _______ _______ _____ _____    ______ ____

>  <TORSDO>
F 2

$$$$
