=
 OpenBabel11122413333D

 37 44  0  0  1  0  0  0  0  0999 V2000
  161.1330  206.4310  151.6700 C   0  0  0  0  0  2  0  0  0  0  0  0
  160.5140  208.2200  155.8800 C   0  0  0  0  0  0  0  0  0  0  0  0
  160.2480  210.9800  152.7660 C   0  0  0  0  0  0  0  0  0  0  0  0
  161.9180  205.4540  150.9260 N   0  0  0  0  0  0  0  0  0  0  0  0
  162.0820  209.7520  149.5770 C   0  0  0  0  0  2  0  0  0  0  0  0
  159.6130  210.4410  155.0370 C   0  0  0  0  0  0  0  0  0  0  0  0
  160.8290  210.2850  151.7280 C   0  0  0  0  0  0  0  0  0  0  0  0
  161.1330  206.2400  148.6930 C   0  0  2  0  0  3  0  0  0  0  0  0
  160.1490  210.1040  153.8100 C   0  0  0  0  0  0  0  0  0  0  0  0
  161.2560  210.7340  150.3910 C   0  0  0  0  0  0  0  0  0  0  0  0
  159.1180  211.7460  155.1920 C   0  0  0  0  0  3  0  0  0  0  0  0
  161.1700  205.1030  149.7210 C   0  0  0  0  0  2  0  0  0  0  0  0
  160.6290  208.8990  153.4990 N   0  0  0  0  0  0  0  0  0  0  0  0
  160.0920  207.0470  156.7390 C   0  0  0  0  0  1  0  0  0  0  0  0
  159.7630  213.2290  151.7690 C   0  0  0  0  0  3  0  0  0  0  0  0
  159.1970  212.6600  154.1130 C   0  0  0  0  0  3  0  0  0  0  0  0
  160.5780  207.7520  154.4070 C   0  0  0  0  0  2  0  0  0  0  0  0
  162.2590  207.2610  148.8680 C   0  0  0  0  0  2  0  0  0  0  0  0
  162.0020  208.2740  149.9900 C   0  0  1  0  0  0  0  0  0  0  0  0
  159.7690  212.2790  152.8780 C   0  0  0  0  0  0  0  0  0  0  0  0
  161.0230  208.9900  152.2080 C   0  0  0  0  0  0  0  0  0  0  0  0
  159.5050  209.3770  156.0950 C   0  0  0  0  0  2  0  0  0  0  0  0
  161.0210  211.9770  149.8870 C   0  0  0  0  0  0  0  0  0  0  0  0
  161.8960  208.6630  156.3280 C   0  0  0  0  0  1  0  0  0  0  0  0
  162.9150  208.0320  151.0480 O   0  0  0  0  0  0  0  0  0  0  0  0
  159.8830  206.8620  148.6940 O   0  0  0  0  0  1  0  0  0  0  0  0
  161.5560  207.8760  151.3650 C   0  0  1  0  0  0  0  0  0  0  0  0
  160.2760  213.0820  150.5460 C   0  0  0  0  0  3  0  0  0  0  0  0
  162.8810  212.6030  148.3430 C   0  0  0  0  0  3  0  0  0  0  0  0
  161.5170  212.3430  148.5400 C   0  0  0  0  0  0  0  0  0  0  0  0
  160.6430  212.3840  147.4410 C   0  0  0  0  0  3  0  0  0  0  0  0
  160.2750  212.7480  145.1150 F   0  0  0  0  0  0  0  0  0  0  0  0
  162.4830  212.9720  145.9830 C   0  0  0  0  0  3  0  0  0  0  0  0
  161.1240  212.7030  146.1690 C   0  0  0  0  0  0  0  0  0  0  0  0
  163.3620  212.9200  147.0690 C   0  0  0  0  0  3  0  0  0  0  0  0
  160.9430  203.2530  151.2580 C   0  0  0  0  0  1  0  0  0  0  0  0
  161.9790  204.2520  151.7390 C   0  0  0  0  0  2  0  0  0  0  0  0
  2 22  1  0  0  0  0
  2 24  1  0  0  0  0
  2 14  1  0  0  0  0
  3 20  2  0  0  0  0
  3  9  1  0  0  0  0
  4  1  1  0  0  0  0
  4 37  1  0  0  0  0
  5 19  1  0  0  0  0
  5 10  1  0  0  0  0
  6 11  1  0  0  0  0
  6 22  1  0  0  0  0
  7 21  2  0  0  0  0
  7  3  1  0  0  0  0
  8 26  1  1  0  0  0
  8 18  1  0  0  0  0
  8 12  1  0  0  0  0
  9  6  2  0  0  0  0
 10  7  1  0  0  0  0
 12  4  1  0  0  0  0
 13  9  1  0  0  0  0
 13 17  1  0  0  0  0
 15 20  1  0  0  0  0
 16 11  2  0  0  0  0
 17  2  1  0  0  0  0
 19 18  1  6  0  0  0
 19 25  1  0  0  0  0
 19 27  1  0  0  0  0
 20 16  1  0  0  0  0
 21 13  1  0  0  0  0
 23 10  2  0  0  0  0
 23 28  1  0  0  0  0
 25 27  1  0  0  0  0
 27  1  1  1  0  0  0
 27 21  1  0  0  0  0
 28 15  2  0  0  0  0
 29 30  1  0  0  0  0
 30 23  1  0  0  0  0
 31 30  2  0  0  0  0
 32 34  1  0  0  0  0
 33 34  2  0  0  0  0
 33 35  1  0  0  0  0
 34 31  1  0  0  0  0
 35 29  2  0  0  0  0
 36 37  1  0  0  0  0
M  END
>  <MODEL>
1

>  <REMARK>
 VINA RESULT:      -8.2      0.000      0.000
  Name = 
  2 active torsions:
  status: ('A' for Active; 'I' for Inactive)
    1  A    between atoms: N_4  and  C_37
    2  A    between atoms: C_23  and  C_30
                            x       y       z     vdW  Elec       q    Type
                         _______ _______ _______ _____ _____    ______ ____

>  <TORSDO>
F 2

$$$$
