=
 OpenBabel11122413103D

 31 35  0  0  1  0  0  0  0  0999 V2000
  160.8490  206.4120  146.5480 C   0  0  0  0  0  0  0  0  0  0  0  0
  160.2410  205.0330  150.0390 C   0  0  2  0  0  3  0  0  0  0  0  0
  160.6910  203.5790  150.0180 C   0  0  0  0  0  0  0  0  0  0  0  0
  161.2890  201.5560  148.8070 C   0  0  0  0  0  0  0  0  0  0  0  0
  160.8270  205.8490  148.9100 C   0  0  0  0  0  0  0  0  0  0  0  0
  161.9430  207.2550  146.7540 C   0  0  0  0  0  3  0  0  0  0  0  0
  160.9070  202.9000  148.8090 C   0  0  0  0  0  3  0  0  0  0  0  0
  162.0170  205.9960  151.5490 C   0  0  2  0  0  3  0  0  0  0  0  0
  160.3150  206.2670  145.2750 O   0  0  0  0  0  1  0  0  0  0  0  0
  160.5720  203.5050  152.4520 O   0  0  0  0  0  0  0  0  0  0  0  0
  161.5280  200.8550  147.5190 C   0  0  0  0  0  1  0  0  0  0  0  0
  162.4550  207.0070  150.4930 C   0  0  0  0  0  2  0  0  0  0  0  0
  160.5130  205.6990  151.4030 C   0  0  2  0  0  3  0  0  0  0  0  0
  160.2930  205.7140  147.6230 C   0  0  0  0  0  3  0  0  0  0  0  0
  161.4440  200.8720  150.0140 C   0  0  0  0  0  3  0  0  0  0  0  0
  161.9320  206.7050  149.1170 C   0  0  0  0  0  0  0  0  0  0  0  0
  162.4750  207.4080  148.0370 C   0  0  0  0  0  3  0  0  0  0  0  0
  159.9740  204.7980  152.5160 C   0  0  0  0  0  2  0  0  0  0  0  0
  160.8170  202.8690  151.2320 C   0  0  0  0  0  0  0  0  0  0  0  0
  161.2080  201.5270  151.2240 C   0  0  0  0  0  3  0  0  0  0  0  0
  162.3650  206.5620  152.9210 C   0  0  0  0  0  2  0  0  0  0  0  0
  160.5860  207.1080  154.5370 C   0  0  0  0  0  1  0  0  0  0  0  0
  161.3710  207.6430  153.3400 C   0  0  1  0  0  3  0  0  0  0  0  0
  159.8560  210.8550  153.7640 C   0  0  1  0  0  3  0  0  0  0  0  0
  161.5750  209.4640  154.9490 C   0  0  0  0  0  2  0  0  0  0  0  0
  162.4770  209.6010  151.4320 O   0  0  0  0  0  1  0  0  0  0  0  0
  158.3720  211.1140  153.6150 C   0  0  0  0  0  1  0  0  0  0  0  0
  160.0890  209.8420  154.8780 C   0  0  0  0  0  2  0  0  0  0  0  0
  161.8840  209.9570  152.6440 C   0  0  2  0  0  3  0  0  0  0  0  0
  162.0680  208.9100  153.6730 N   0  0  0  0  0  0  0  0  0  0  0  0
  160.4150  210.3310  152.4470 C   0  0  0  0  0  2  0  0  0  0  0  0
  1  6  2  0  0  0  0
  1 14  1  0  0  0  0
  2  5  1  6  0  0  0
  2 13  1  0  0  0  0
  3  2  1  0  0  0  0
  3 19  1  0  0  0  0
  4  7  1  0  0  0  0
  4 15  2  0  0  0  0
  5 16  1  0  0  0  0
  6 17  1  0  0  0  0
  7  3  2  0  0  0  0
  8 21  1  1  0  0  0
  9  1  1  0  0  0  0
 10 18  1  0  0  0  0
 11  4  1  0  0  0  0
 12  8  1  0  0  0  0
 13  8  1  0  0  0  0
 13 18  1  1  0  0  0
 14  5  2  0  0  0  0
 15 20  1  0  0  0  0
 16 12  1  0  0  0  0
 17 16  2  0  0  0  0
 19 10  1  0  0  0  0
 20 19  2  0  0  0  0
 21 23  1  0  0  0  0
 23 30  1  0  0  0  0
 23 22  1  1  0  0  0
 24 27  1  6  0  0  0
 24 28  1  0  0  0  0
 28 25  1  0  0  0  0
 29 26  1  6  0  0  0
 29 30  1  0  0  0  0
 30 25  1  0  0  0  0
 31 29  1  0  0  0  0
 31 24  1  0  0  0  0
M  END
>  <MODEL>
1

>  <REMARK>
 VINA RESULT:      -7.3      0.000      0.000
  Name = 
  3 active torsions:
  status: ('A' for Active; 'I' for Inactive)
    1  A    between atoms: C_5  and  C_16
    2  A    between atoms: C_5  and  N_30
    3  A    between atoms: C_10  and  C_16
                            x       y       z     vdW  Elec       q    Type
                         _______ _______ _______ _____ _____    ______ ____

>  <TORSDO>
F 3

$$$$
=
 OpenBabel11122413103D

 31 35  0  0  1  0  0  0  0  0999 V2000
  161.7080  207.5000  151.8490 C   0  0  0  0  0  0  0  0  0  0  0  0
  159.5900  210.3580  153.1940 C   0  0  2  0  0  3  0  0  0  0  0  0
  160.2210  210.7870  154.5110 C   0  0  0  0  0  0  0  0  0  0  0  0
  161.7010  210.3670  156.3960 C   0  0  0  0  0  0  0  0  0  0  0  0
  160.5360  209.5770  152.3120 C   0  0  0  0  0  0  0  0  0  0  0  0
  162.3660  208.1050  150.7770 C   0  0  0  0  0  3  0  0  0  0  0  0
  161.1550  209.9740  155.1710 C   0  0  0  0  0  3  0  0  0  0  0  0
  160.1050  212.3980  151.8020 C   0  0  2  0  0  3  0  0  0  0  0  0
  161.9620  206.1720  152.1590 O   0  0  0  0  0  1  0  0  0  0  0  0
  158.8480  212.8010  154.5160 O   0  0  0  0  0  0  0  0  0  0  0  0
  162.7000  209.5010  157.0740 C   0  0  0  0  0  1  0  0  0  0  0  0
  160.8570  211.5740  150.7610 C   0  0  0  0  0  2  0  0  0  0  0  0
  158.9820  211.5530  152.4320 C   0  0  2  0  0  3  0  0  0  0  0  0
  160.7960  208.2340  152.6120 C   0  0  0  0  0  3  0  0  0  0  0  0
  161.3080  211.5720  156.9810 C   0  0  0  0  0  3  0  0  0  0  0  0
  161.2000  210.1860  151.2240 C   0  0  0  0  0  0  0  0  0  0  0  0
  162.1050  209.4410  150.4600 C   0  0  0  0  0  3  0  0  0  0  0  0
  158.0980  212.3580  153.3870 C   0  0  0  0  0  2  0  0  0  0  0  0
  159.8040  211.9860  155.1270 C   0  0  0  0  0  0  0  0  0  0  0  0
  160.3610  212.3800  156.3480 C   0  0  0  0  0  3  0  0  0  0  0  0
  159.5740  213.6530  151.1200 C   0  0  0  0  0  2  0  0  0  0  0  0
  157.5430  213.1360  149.8220 C   0  0  0  0  0  1  0  0  0  0  0  0
  159.0540  213.3420  149.7190 C   0  0  1  0  0  3  0  0  0  0  0  0
  159.9380  212.9680  146.2740 C   0  0  1  0  0  3  0  0  0  0  0  0
  158.4430  214.4530  147.6360 C   0  0  0  0  0  2  0  0  0  0  0  0
  161.7330  214.4530  149.1810 O   0  0  0  0  0  1  0  0  0  0  0  0
  160.0330  211.6330  145.5660 C   0  0  0  0  0  1  0  0  0  0  0  0
  158.5210  213.1690  146.7980 C   0  0  0  0  0  2  0  0  0  0  0  0
  160.7470  214.3080  148.2030 C   0  0  2  0  0  3  0  0  0  0  0  0
  159.3870  214.4330  148.7700 N   0  0  0  0  0  0  0  0  0  0  0  0
  160.9380  213.0080  147.4210 C   0  0  0  0  0  2  0  0  0  0  0  0
  1  9  1  0  0  0  0
  1 14  1  0  0  0  0
  2  5  1  6  0  0  0
  2  3  1  0  0  0  0
  3 19  2  0  0  0  0
  3  7  1  0  0  0  0
  4 15  1  0  0  0  0
  4 11  1  0  0  0  0
  5 14  2  0  0  0  0
  6  1  2  0  0  0  0
  7  4  2  0  0  0  0
  8 21  1  6  0  0  0
  8 13  1  0  0  0  0
 10 19  1  0  0  0  0
 12 16  1  0  0  0  0
 12  8  1  0  0  0  0
 13  2  1  0  0  0  0
 13 18  1  1  0  0  0
 16  5  1  0  0  0  0
 17  6  1  0  0  0  0
 17 16  2  0  0  0  0
 18 10  1  0  0  0  0
 19 20  1  0  0  0  0
 20 15  2  0  0  0  0
 23 22  1  1  0  0  0
 23 21  1  0  0  0  0
 24 27  1  1  0  0  0
 24 28  1  0  0  0  0
 24 31  1  0  0  0  0
 25 30  1  0  0  0  0
 28 25  1  0  0  0  0
 29 30  1  0  0  0  0
 29 26  1  1  0  0  0
 30 23  1  0  0  0  0
 31 29  1  0  0  0  0
M  END
>  <MODEL>
2

>  <REMARK>
 VINA RESULT:      -6.8      4.129      8.018
  Name = 
  3 active torsions:
  status: ('A' for Active; 'I' for Inactive)
    1  A    between atoms: C_5  and  C_16
    2  A    between atoms: C_5  and  N_30
    3  A    between atoms: C_10  and  C_16
                            x       y       z     vdW  Elec       q    Type
                         _______ _______ _______ _____ _____    ______ ____

>  <TORSDO>
F 3

$$$$
=
 OpenBabel11122413103D

 31 35  0  0  1  0  0  0  0  0999 V2000
  160.7200  207.6160  156.3690 C   0  0  0  0  0  0  0  0  0  0  0  0
  161.9090  208.9970  153.0320 C   0  0  2  0  0  3  0  0  0  0  0  0
  161.5100  207.9810  151.9710 C   0  0  0  0  0  0  0  0  0  0  0  0
  160.7980  205.7440  151.3310 C   0  0  0  0  0  0  0  0  0  0  0  0
  161.1280  208.8490  154.3160 C   0  0  0  0  0  0  0  0  0  0  0  0
  159.6450  208.4560  156.6650 C   0  0  0  0  0  3  0  0  0  0  0  0
  161.1310  206.6750  152.3180 C   0  0  0  0  0  3  0  0  0  0  0  0
  160.3600  210.8850  152.4020 C   0  0  2  0  0  3  0  0  0  0  0  0
  161.0530  206.5840  157.2340 O   0  0  0  0  0  1  0  0  0  0  0  0
  162.0090  209.6050  150.2230 O   0  0  0  0  0  0  0  0  0  0  0  0
  160.3850  204.3710  151.7170 C   0  0  0  0  0  1  0  0  0  0  0  0
  159.7290  210.9140  153.7910 C   0  0  0  0  0  2  0  0  0  0  0  0
  161.8310  210.4430  152.4990 C   0  0  2  0  0  3  0  0  0  0  0  0
  161.4590  207.8140  155.2000 C   0  0  0  0  0  3  0  0  0  0  0  0
  160.8550  206.1050  149.9840 C   0  0  0  0  0  3  0  0  0  0  0  0
  160.0410  209.7000  154.6190 C   0  0  0  0  0  0  0  0  0  0  0  0
  159.3130  209.5000  155.7970 C   0  0  0  0  0  3  0  0  0  0  0  0
  162.5660  210.5230  151.1600 C   0  0  0  0  0  2  0  0  0  0  0  0
  161.5980  208.3260  150.6050 C   0  0  0  0  0  0  0  0  0  0  0  0
  161.2550  207.3930  149.6210 C   0  0  0  0  0  3  0  0  0  0  0  0
  160.2110  212.2720  151.7850 C   0  0  0  0  0  2  0  0  0  0  0  0
  157.8430  212.2040  152.4670 C   0  0  0  0  0  1  0  0  0  0  0  0
  158.7820  212.5090  151.3000 C   0  0  1  0  0  3  0  0  0  0  0  0
  157.6740  213.4980  148.0470 C   0  0  1  0  0  3  0  0  0  0  0  0
  157.2050  214.1490  150.4250 C   0  0  0  0  0  2  0  0  0  0  0  0
  160.8080  214.1710  149.9460 O   0  0  0  0  0  1  0  0  0  0  0  0
  157.3160  212.5240  146.9450 C   0  0  0  0  0  1  0  0  0  0  0  0
  156.7660  213.2650  149.2490 C   0  0  0  0  0  2  0  0  0  0  0  0
  159.4470  214.2080  149.6360 C   0  0  2  0  0  3  0  0  0  0  0  0
  158.6070  213.8990  150.8130 N   0  0  0  0  0  0  0  0  0  0  0  0
  159.1330  213.3080  148.4400 C   0  0  0  0  0  2  0  0  0  0  0  0
  1  6  1  0  0  0  0
  1  9  1  0  0  0  0
  2  3  1  6  0  0  0
  2  5  1  0  0  0  0
  3  7  1  0  0  0  0
  4 11  1  0  0  0  0
  4  7  2  0  0  0  0
  5 16  2  0  0  0  0
  5 14  1  0  0  0  0
  8 21  1  1  0  0  0
  8 13  1  0  0  0  0
  8 12  1  0  0  0  0
 10 19  1  0  0  0  0
 10 18  1  0  0  0  0
 12 16  1  0  0  0  0
 13 18  1  6  0  0  0
 13  2  1  0  0  0  0
 14  1  2  0  0  0  0
 15  4  1  0  0  0  0
 16 17  1  0  0  0  0
 17  6  2  0  0  0  0
 19  3  2  0  0  0  0
 20 15  2  0  0  0  0
 20 19  1  0  0  0  0
 23 21  1  0  0  0  0
 23 22  1  1  0  0  0
 24 27  1  6  0  0  0
 24 31  1  0  0  0  0
 24 28  1  0  0  0  0
 25 30  1  0  0  0  0
 28 25  1  0  0  0  0
 29 26  1  1  0  0  0
 29 30  1  0  0  0  0
 30 23  1  0  0  0  0
 31 29  1  0  0  0  0
M  END
>  <MODEL>
3

>  <REMARK>
 VINA RESULT:      -6.7      3.245      6.758
  Name = 
  3 active torsions:
  status: ('A' for Active; 'I' for Inactive)
    1  A    between atoms: C_5  and  C_16
    2  A    between atoms: C_5  and  N_30
    3  A    between atoms: C_10  and  C_16
                            x       y       z     vdW  Elec       q    Type
                         _______ _______ _______ _____ _____    ______ ____

>  <TORSDO>
F 3

$$$$
=
 OpenBabel11122413103D

 31 35  0  0  1  0  0  0  0  0999 V2000
  160.7920  206.1280  146.1600 C   0  0  0  0  0  0  0  0  0  0  0  0
  160.2720  204.8600  149.7060 C   0  0  2  0  0  3  0  0  0  0  0  0
  160.6900  203.3970  149.7130 C   0  0  0  0  0  0  0  0  0  0  0  0
  161.2060  201.3280  148.5410 C   0  0  0  0  0  0  0  0  0  0  0  0
  160.8370  205.6320  148.5370 C   0  0  0  0  0  0  0  0  0  0  0  0
  161.9090  206.9530  146.3070 C   0  0  0  0  0  3  0  0  0  0  0  0
  160.8530  202.6790  148.5180 C   0  0  0  0  0  3  0  0  0  0  0  0
  162.1150  205.8260  151.1310 C   0  0  2  0  0  3  0  0  0  0  0  0
  160.2140  205.9590  144.9100 O   0  0  0  0  0  1  0  0  0  0  0  0
  160.6490  203.3930  152.1500 O   0  0  0  0  0  0  0  0  0  0  0  0
  161.3880  200.5870  147.2660 C   0  0  0  0  0  1  0  0  0  0  0  0
  162.5390  206.7970  150.0330 C   0  0  0  0  0  2  0  0  0  0  0  0
  160.6020  205.5570  151.0420 C   0  0  2  0  0  3  0  0  0  0  0  0
  160.2580  205.4720  147.2710 C   0  0  0  0  0  3  0  0  0  0  0  0
  161.3870  200.6740  149.7610 C   0  0  0  0  0  3  0  0  0  0  0  0
  161.9650  206.4690  148.6840 C   0  0  0  0  0  0  0  0  0  0  0  0
  162.4870  207.1300  147.5670 C   0  0  0  0  0  3  0  0  0  0  0  0
  160.0810  204.6990  152.1960 C   0  0  0  0  0  2  0  0  0  0  0  0
  160.8410  202.7180  150.9410 C   0  0  0  0  0  0  0  0  0  0  0  0
  161.2040  201.3680  150.9590 C   0  0  0  0  0  3  0  0  0  0  0  0
  162.5200  206.4230  152.4740 C   0  0  0  0  0  2  0  0  0  0  0  0
  162.3300  208.5110  151.1800 C   0  0  0  0  0  1  0  0  0  0  0  0
  162.1290  207.8960  152.5640 C   0  0  1  0  0  3  0  0  0  0  0  0
  160.9560  210.1350  155.0940 C   0  0  1  0  0  3  0  0  0  0  0  0
  160.2430  209.4240  152.7950 C   0  0  0  0  0  2  0  0  0  0  0  0
  160.8260  206.4260  154.7650 O   0  0  0  0  0  1  0  0  0  0  0  0
  161.8530  211.0780  155.8680 C   0  0  0  0  0  1  0  0  0  0  0  0
  161.0370  210.4580  153.6070 C   0  0  0  0  0  2  0  0  0  0  0  0
  160.5600  207.7640  154.4670 C   0  0  2  0  0  3  0  0  0  0  0  0
  160.7270  208.0500  153.0260 N   0  0  0  0  0  0  0  0  0  0  0  0
  161.3900  208.6970  155.3480 C   0  0  0  0  0  2  0  0  0  0  0  0
  1  6  2  0  0  0  0
  1 14  1  0  0  0  0
  2  5  1  6  0  0  0
  2  3  1  0  0  0  0
  2 13  1  0  0  0  0
  3 19  1  0  0  0  0
  4 15  2  0  0  0  0
  5 16  1  0  0  0  0
  6 17  1  0  0  0  0
  7  4  1  0  0  0  0
  7  3  2  0  0  0  0
  8 21  1  1  0  0  0
  9  1  1  0  0  0  0
 10 18  1  0  0  0  0
 11  4  1  0  0  0  0
 12  8  1  0  0  0  0
 13  8  1  0  0  0  0
 13 18  1  1  0  0  0
 14  5  2  0  0  0  0
 15 20  1  0  0  0  0
 16 12  1  0  0  0  0
 17 16  2  0  0  0  0
 19 20  2  0  0  0  0
 19 10  1  0  0  0  0
 21 23  1  0  0  0  0
 23 22  1  6  0  0  0
 23 30  1  0  0  0  0
 24 31  1  0  0  0  0
 24 27  1  1  0  0  0
 25 30  1  0  0  0  0
 25 28  1  0  0  0  0
 28 24  1  0  0  0  0
 29 26  1  6  0  0  0
 29 31  1  0  0  0  0
 30 29  1  0  0  0  0
M  END
>  <MODEL>
4

>  <REMARK>
 VINA RESULT:      -5.8      1.211      1.797
  Name = 
  3 active torsions:
  status: ('A' for Active; 'I' for Inactive)
    1  A    between atoms: C_5  and  C_16
    2  A    between atoms: C_5  and  N_30
    3  A    between atoms: C_10  and  C_16
                            x       y       z     vdW  Elec       q    Type
                         _______ _______ _______ _____ _____    ______ ____

>  <TORSDO>
F 3

$$$$
=
 OpenBabel11122413103D

 31 35  0  0  1  0  0  0  0  0999 V2000
  162.1040  212.6830  148.5670 C   0  0  0  0  0  0  0  0  0  0  0  0
  159.4050  213.9510  150.9260 C   0  0  2  0  0  3  0  0  0  0  0  0
  158.1120  214.0020  150.1240 C   0  0  0  0  0  0  0  0  0  0  0  0
  156.9290  214.0150  147.9980 C   0  0  0  0  0  0  0  0  0  0  0  0
  160.4500  213.0530  150.3070 C   0  0  0  0  0  0  0  0  0  0  0  0
  162.3270  211.3900  149.0470 C   0  0  0  0  0  3  0  0  0  0  0  0
  158.1210  213.9350  148.7220 C   0  0  0  0  0  3  0  0  0  0  0  0
  158.8400  212.0680  152.5070 C   0  0  2  0  0  3  0  0  0  0  0  0
  162.8080  213.1440  147.4640 O   0  0  0  0  0  1  0  0  0  0  0  0
  156.8430  214.3090  152.1820 O   0  0  0  0  0  0  0  0  0  0  0  0
  156.9540  213.9280  146.5150 C   0  0  0  0  0  1  0  0  0  0  0  0
  160.0500  211.2510  152.0650 C   0  0  0  0  0  2  0  0  0  0  0  0
  159.1510  213.5730  152.4000 C   0  0  2  0  0  3  0  0  0  0  0  0
  161.1710  213.5100  149.1970 C   0  0  0  0  0  3  0  0  0  0  0  0
  155.7150  214.1770  148.6680 C   0  0  0  0  0  3  0  0  0  0  0  0
  160.6790  211.7460  150.7930 C   0  0  0  0  0  0  0  0  0  0  0  0
  161.6230  210.9290  150.1630 C   0  0  0  0  0  3  0  0  0  0  0  0
  158.0310  214.4530  152.9570 C   0  0  0  0  0  2  0  0  0  0  0  0
  156.8840  214.2000  150.7900 C   0  0  0  0  0  0  0  0  0  0  0  0
  155.6920  214.2700  150.0610 C   0  0  0  0  0  3  0  0  0  0  0  0
  158.4790  211.6510  153.9280 C   0  0  0  0  0  2  0  0  0  0  0  0
  159.7090  212.8980  155.6630 C   0  0  0  0  0  1  0  0  0  0  0  0
  159.7150  211.6200  154.8240 C   0  0  1  0  0  3  0  0  0  0  0  0
  162.4650  210.4010  156.7580 C   0  0  1  0  0  3  0  0  0  0  0  0
  160.0040  210.7610  157.0880 C   0  0  0  0  0  2  0  0  0  0  0  0
  160.4600  208.8850  154.0090 O   0  0  0  0  0  1  0  0  0  0  0  0
  163.8240  211.0680  156.8070 C   0  0  0  0  0  1  0  0  0  0  0  0
  161.4020  211.3710  157.2610 C   0  0  0  0  0  2  0  0  0  0  0  0
  160.7370  209.4160  155.2700 C   0  0  2  0  0  3  0  0  0  0  0  0
  159.7220  210.4100  155.6830 N   0  0  0  0  0  0  0  0  0  0  0  0
  162.1600  209.9740  155.3290 C   0  0  0  0  0  2  0  0  0  0  0  0
  1  6  2  0  0  0  0
  1 14  1  0  0  0  0
  2  3  1  6  0  0  0
  2 13  1  0  0  0  0
  3 19  1  0  0  0  0
  4 15  2  0  0  0  0
  4  7  1  0  0  0  0
  5 16  1  0  0  0  0
  5  2  1  0  0  0  0
  6 17  1  0  0  0  0
  7  3  2  0  0  0  0
  8 21  1  1  0  0  0
  9  1  1  0  0  0  0
 10 18  1  0  0  0  0
 11  4  1  0  0  0  0
 12  8  1  0  0  0  0
 13  8  1  0  0  0  0
 13 18  1  6  0  0  0
 14  5  2  0  0  0  0
 15 20  1  0  0  0  0
 16 12  1  0  0  0  0
 17 16  2  0  0  0  0
 19 10  1  0  0  0  0
 20 19  2  0  0  0  0
 21 23  1  0  0  0  0
 23 22  1  1  0  0  0
 23 30  1  0  0  0  0
 24 27  1  6  0  0  0
 24 28  1  0  0  0  0
 25 28  1  0  0  0  0
 29 26  1  6  0  0  0
 29 31  1  0  0  0  0
 29 30  1  0  0  0  0
 30 25  1  0  0  0  0
 31 24  1  0  0  0  0
M  END
>  <MODEL>
5

>  <REMARK>
 VINA RESULT:      -5.6      5.691      8.264
  Name = 
  3 active torsions:
  status: ('A' for Active; 'I' for Inactive)
    1  A    between atoms: C_5  and  C_16
    2  A    between atoms: C_5  and  N_30
    3  A    between atoms: C_10  and  C_16
                            x       y       z     vdW  Elec       q    Type
                         _______ _______ _______ _____ _____    ______ ____

>  <TORSDO>
F 3

$$$$
=
 OpenBabel11122413103D

 31 35  0  0  1  0  0  0  0  0999 V2000
  162.3310  210.4960  149.2930 C   0  0  0  0  0  0  0  0  0  0  0  0
  161.9900  208.4430  152.4750 C   0  0  2  0  0  3  0  0  0  0  0  0
  160.8540  209.0630  153.2750 C   0  0  0  0  0  0  0  0  0  0  0  0
  159.3450  210.9140  153.7420 C   0  0  0  0  0  0  0  0  0  0  0  0
  161.9590  208.8220  151.0130 C   0  0  0  0  0  0  0  0  0  0  0  0
  161.8250  209.6230  148.3270 C   0  0  0  0  0  3  0  0  0  0  0  0
  160.3670  210.3450  152.9780 C   0  0  0  0  0  3  0  0  0  0  0  0
  160.9100  206.2520  151.8470 C   0  0  2  0  0  3  0  0  0  0  0  0
  162.7640  211.7620  148.9240 O   0  0  0  0  0  1  0  0  0  0  0  0
  160.8160  207.1130  154.7380 O   0  0  0  0  0  0  0  0  0  0  0  0
  158.8310  212.2660  153.4040 C   0  0  0  0  0  1  0  0  0  0  0  0
  161.1030  206.5130  150.3560 C   0  0  0  0  0  2  0  0  0  0  0  0
  162.0470  206.9120  152.6490 C   0  0  2  0  0  3  0  0  0  0  0  0
  162.3990  210.0950  150.6290 C   0  0  0  0  0  3  0  0  0  0  0  0
  158.8080  210.2110  154.8220 C   0  0  0  0  0  3  0  0  0  0  0  0
  161.4510  207.9390  150.0340 C   0  0  0  0  0  0  0  0  0  0  0  0
  161.3950  208.3460  148.6970 C   0  0  0  0  0  3  0  0  0  0  0  0
  161.9940  206.5760  154.1410 C   0  0  0  0  0  2  0  0  0  0  0  0
  160.3280  208.3760  154.3900 C   0  0  0  0  0  0  0  0  0  0  0  0
  159.2990  208.9450  155.1460 C   0  0  0  0  0  3  0  0  0  0  0  0
  160.8490  204.7440  152.0600 C   0  0  0  0  0  2  0  0  0  0  0  0
  161.8900  202.6580  151.2620 C   0  0  0  0  0  1  0  0  0  0  0  0
  161.2970  203.9910  150.8090 C   0  0  1  0  0  3  0  0  0  0  0  0
  160.9370  201.3280  148.4500 C   0  0  1  0  0  3  0  0  0  0  0  0
  159.4890  202.5020  150.1300 C   0  0  0  0  0  2  0  0  0  0  0  0
  161.0770  205.0300  148.0580 O   0  0  0  0  0  1  0  0  0  0  0  0
  161.9560  200.2240  148.2610 C   0  0  0  0  0  1  0  0  0  0  0  0
  160.4190  201.3050  149.8830 C   0  0  0  0  0  2  0  0  0  0  0  0
  160.5820  203.7870  148.4540 C   0  0  2  0  0  3  0  0  0  0  0  0
  160.1640  203.7890  149.8730 N   0  0  0  0  0  0  0  0  0  0  0  0
  161.5810  202.6730  148.1410 C   0  0  0  0  0  2  0  0  0  0  0  0
  1 14  1  0  0  0  0
  2  5  1  6  0  0  0
  2 13  1  0  0  0  0
  2  3  1  0  0  0  0
  3 19  1  0  0  0  0
  4 15  2  0  0  0  0
  6 17  1  0  0  0  0
  6  1  2  0  0  0  0
  7  3  2  0  0  0  0
  7  4  1  0  0  0  0
  8 21  1  6  0  0  0
  8 13  1  0  0  0  0
  9  1  1  0  0  0  0
 11  4  1  0  0  0  0
 12  8  1  0  0  0  0
 13 18  1  1  0  0  0
 14  5  2  0  0  0  0
 15 20  1  0  0  0  0
 16 12  1  0  0  0  0
 16  5  1  0  0  0  0
 17 16  2  0  0  0  0
 18 10  1  0  0  0  0
 19 10  1  0  0  0  0
 19 20  2  0  0  0  0
 23 22  1  1  0  0  0
 23 21  1  0  0  0  0
 24 27  1  1  0  0  0
 24 28  1  0  0  0  0
 28 25  1  0  0  0  0
 29 26  1  1  0  0  0
 29 30  1  0  0  0  0
 30 25  1  0  0  0  0
 30 23  1  0  0  0  0
 31 24  1  0  0  0  0
 31 29  1  0  0  0  0
M  END
>  <MODEL>
6

>  <REMARK>
 VINA RESULT:      -4.7      2.119      7.081
  Name = 
  3 active torsions:
  status: ('A' for Active; 'I' for Inactive)
    1  A    between atoms: C_5  and  C_16
    2  A    between atoms: C_5  and  N_30
    3  A    between atoms: C_10  and  C_16
                            x       y       z     vdW  Elec       q    Type
                         _______ _______ _______ _____ _____    ______ ____

>  <TORSDO>
F 3

$$$$
=
 OpenBabel11122413103D

 31 35  0  0  1  0  0  0  0  0999 V2000
  160.7600  201.5750  149.0500 C   0  0  0  0  0  0  0  0  0  0  0  0
  162.3430  204.8250  150.2280 C   0  0  2  0  0  3  0  0  0  0  0  0
  161.9100  205.9030  149.2450 C   0  0  0  0  0  0  0  0  0  0  0  0
  160.9950  206.5750  147.0930 C   0  0  0  0  0  0  0  0  0  0  0  0
  161.4570  203.6020  150.1920 C   0  0  0  0  0  0  0  0  0  0  0  0
  159.7680  201.3680  150.0120 C   0  0  0  0  0  3  0  0  0  0  0  0
  161.3580  205.5740  147.9970 C   0  0  0  0  0  3  0  0  0  0  0  0
  161.0720  205.5860  152.2690 C   0  0  2  0  0  3  0  0  0  0  0  0
  160.9070  200.6770  148.0020 O   0  0  0  0  0  1  0  0  0  0  0  0
  162.7210  207.6230  150.7710 O   0  0  0  0  0  0  0  0  0  0  0  0
  160.3990  206.2090  145.7830 C   0  0  0  0  0  1  0  0  0  0  0  0
  160.3480  204.2490  152.3940 C   0  0  0  0  0  2  0  0  0  0  0  0
  162.4720  205.3740  151.6630 C   0  0  2  0  0  3  0  0  0  0  0  0
  161.6010  202.6860  149.1420 C   0  0  0  0  0  3  0  0  0  0  0  0
  161.1930  207.9170  147.4210 C   0  0  0  0  0  3  0  0  0  0  0  0
  160.4560  203.3890  151.1660 C   0  0  0  0  0  0  0  0  0  0  0  0
  159.6250  202.2680  151.0710 C   0  0  0  0  0  3  0  0  0  0  0  0
  163.3090  206.6550  151.6360 C   0  0  0  0  0  2  0  0  0  0  0  0
  162.1380  207.2620  149.5530 C   0  0  0  0  0  0  0  0  0  0  0  0
  161.7640  208.2600  148.6490 C   0  0  0  0  0  3  0  0  0  0  0  0
  161.1300  206.2260  153.6520 C   0  0  0  0  0  2  0  0  0  0  0  0
  160.4560  208.0760  152.1700 C   0  0  0  0  0  1  0  0  0  0  0  0
  160.9850  207.7430  153.5640 C   0  0  1  0  0  3  0  0  0  0  0  0
  161.8300  210.0870  156.1300 C   0  0  1  0  0  3  0  0  0  0  0  0
  159.9340  209.7220  154.5270 C   0  0  0  0  0  2  0  0  0  0  0  0
  160.5710  206.5830  156.2440 O   0  0  0  0  0  1  0  0  0  0  0  0
  163.2030  210.7030  156.2920 C   0  0  0  0  0  1  0  0  0  0  0  0
  161.2650  210.4510  154.7620 C   0  0  0  0  0  2  0  0  0  0  0  0
  160.5620  207.9550  155.9880 C   0  0  2  0  0  3  0  0  0  0  0  0
  160.0810  208.2570  154.6230 N   0  0  0  0  0  0  0  0  0  0  0  0
  161.9300  208.5750  156.2770 C   0  0  0  0  0  2  0  0  0  0  0  0
  1 14  2  0  0  0  0
  1  6  1  0  0  0  0
  2  3  1  6  0  0  0
  2 13  1  0  0  0  0
  3 19  1  0  0  0  0
  4 15  2  0  0  0  0
  4  7  1  0  0  0  0
  5  2  1  0  0  0  0
  5 16  2  0  0  0  0
  6 17  2  0  0  0  0
  7  3  2  0  0  0  0
  8 12  1  0  0  0  0
  8 21  1  1  0  0  0
  9  1  1  0  0  0  0
 10 18  1  0  0  0  0
 11  4  1  0  0  0  0
 13 18  1  6  0  0  0
 13  8  1  0  0  0  0
 14  5  1  0  0  0  0
 15 20  1  0  0  0  0
 16 12  1  0  0  0  0
 17 16  1  0  0  0  0
 19 10  1  0  0  0  0
 20 19  2  0  0  0  0
 23 22  1  6  0  0  0
 23 21  1  0  0  0  0
 23 30  1  0  0  0  0
 24 31  1  0  0  0  0
 24 27  1  6  0  0  0
 25 30  1  0  0  0  0
 25 28  1  0  0  0  0
 28 24  1  0  0  0  0
 29 26  1  6  0  0  0
 29 31  1  0  0  0  0
 30 29  1  0  0  0  0
M  END
>  <MODEL>
7

>  <REMARK>
 VINA RESULT:      -4.5      1.945      4.426
  Name = 
  3 active torsions:
  status: ('A' for Active; 'I' for Inactive)
    1  A    between atoms: C_5  and  C_16
    2  A    between atoms: C_5  and  N_30
    3  A    between atoms: C_10  and  C_16
                            x       y       z     vdW  Elec       q    Type
                         _______ _______ _______ _____ _____    ______ ____

>  <TORSDO>
F 3

$$$$
