=
 OpenBabel11122413573D

 37 44  0  0  1  0  0  0  0  0999 V2000
  159.9690  210.8920  153.8650 C   0  0  1  0  0  0  0  0  0  0  0  0
  161.7380  207.7090  152.8890 C   0  0  1  0  0  3  0  0  0  0  0  0
  162.8470  207.4030  149.7970 O   0  0  0  0  0  0  0  0  0  0  0  0
  161.2780  209.2960  154.8950 C   0  0  2  0  0  3  0  0  0  0  0  0
  161.3280  208.1310  151.4880 C   0  0  2  0  0  3  0  0  0  0  0  0
  162.0120  209.0490  153.5760 C   0  0  2  0  0  3  0  0  0  0  0  0
  161.6100  207.1080  150.3890 C   0  0  2  0  0  3  0  0  0  0  0  0
  161.2830  208.0170  155.7150 C   0  0  0  0  0  2  0  0  0  0  0  0
  161.7160  210.1130  152.5170 C   0  0  2  0  0  3  0  0  0  0  0  0
  160.7920  211.9090  154.3750 O   0  0  0  0  0  1  0  0  0  0  0  0
  160.8070  205.5000  153.1060 O   0  0  0  0  0  0  0  0  0  0  0  0
  160.5100  206.8870  155.0290 C   0  0  0  0  0  2  0  0  0  0  0  0
  160.3560  210.5230  152.5570 O   0  0  0  0  0  0  0  0  0  0  0  0
  161.3630  208.4790  148.2450 O   0  0  0  0  0  0  0  0  0  0  0  0
  162.6880  208.1260  148.5820 C   0  0  1  0  0  3  0  0  0  0  0  0
  160.6230  206.8370  153.4960 C   0  0  1  0  0  3  0  0  0  0  0  0
  161.9910  209.4150  151.2520 N   0  0  2  0  0  0  0  0  0  0  0  0
  159.9580  209.7580  154.7080 O   0  0  0  0  0  0  0  0  0  0  0  0
  161.5190  205.6330  150.8140 C   0  0  1  0  0  3  0  0  0  0  0  0
  158.5560  211.4310  153.7930 C   0  0  0  0  0  1  0  0  0  0  0  0
  162.1610  209.5300  148.7460 C   0  0  2  0  0  3  0  0  0  0  0  0
  161.4660  210.0580  150.0290 C   0  0  2  0  0  3  0  0  0  0  0  0
  160.3560  205.3810  151.7810 C   0  0  0  0  0  2  0  0  0  0  0  0
  161.0430  203.4040  149.7940 C   0  0  0  0  0  3  0  0  0  0  0  0
  161.4130  204.7410  149.6180 C   0  0  0  0  0  0  0  0  0  0  0  0
  161.6900  205.2210  148.3280 C   0  0  0  0  0  3  0  0  0  0  0  0
  161.8630  204.8320  145.9820 F   0  0  0  0  0  0  0  0  0  0  0  0
  161.2230  203.0310  147.4080 C   0  0  0  0  0  3  0  0  0  0  0  0
  161.5950  204.3660  147.2260 C   0  0  0  0  0  0  0  0  0  0  0  0
  160.9470  202.5500  148.6910 C   0  0  0  0  0  3  0  0  0  0  0  0
  161.6650  211.5810  150.0520 C   0  0  1  0  0  3  0  0  0  0  0  0
  162.0170  212.0820  148.6850 N   0  0  0  0  0  0  0  0  0  0  0  0
  160.6780  212.2140  149.3230 C   0  0  2  0  0  3  0  0  0  0  0  0
  160.4960  213.6360  149.8110 C   0  0  0  0  0  2  0  0  0  0  0  0
  159.8570  213.6240  151.1140 N   0  0  0  0  0  1  0  0  0  0  0  0
  162.5810  213.0850  146.5970 C   0  0  0  0  0  2  0  0  0  0  0  0
  162.9190  212.2950  147.6050 C   0  0  0  0  0  3  0  0  0  0  0  0
  1 20  1  6  0  0  0
  1 10  1  0  0  0  0
  1 18  1  0  0  0  0
  2 16  1  0  0  0  0
  2  6  1  0  0  0  0
  3  7  1  0  0  0  0
  4  8  1  0  0  0  0
  5  2  1  0  0  0  0
  6  4  1  0  0  0  0
  7 19  1  0  0  0  0
  7  5  1  0  0  0  0
  9 13  1  0  0  0  0
  9  6  1  0  0  0  0
 11 16  1  0  0  0  0
 12  8  1  0  0  0  0
 13  1  1  0  0  0  0
 14 15  1  0  0  0  0
 14 21  1  0  0  0  0
 15 21  1  0  0  0  0
 15  3  1  0  0  0  0
 16 12  1  0  0  0  0
 17  5  1  0  0  0  0
 17  9  1  0  0  0  0
 18  4  1  0  0  0  0
 19 23  1  0  0  0  0
 21 22  1  0  0  0  0
 22 31  1  0  0  0  0
 22 17  1  0  0  0  0
 23 11  1  0  0  0  0
 25 24  1  0  0  0  0
 25 19  1  0  0  0  0
 26 25  2  0  0  0  0
 27 29  1  0  0  0  0
 28 30  1  0  0  0  0
 29 28  2  0  0  0  0
 29 26  1  0  0  0  0
 30 24  2  0  0  0  0
 32 33  1  0  0  0  0
 32 31  1  0  0  0  0
 33 34  1  0  0  0  0
 33 31  1  0  0  0  0
 34 35  1  0  0  0  0
 36 37  2  0  0  0  0
 37 32  1  0  0  0  0
M  END
>  <MODEL>
1

>  <REMARK>
 VINA RESULT:      -8.2      0.000      0.000
  Name = 
  4 active torsions:
  status: ('A' for Active; 'I' for Inactive)
    1  A    between atoms: C_1  and  C_27
    2  A    between atoms: N_4  and  C_37
    3  A    between atoms: C_8  and  C_12
    4  A    between atoms: C_23  and  C_30
                            x       y       z     vdW  Elec       q    Type
                         _______ _______ _______ _____ _____    ______ ____

>  <TORSDO>
F 4

$$$$
=
 OpenBabel11122413573D

 37 44  0  0  1  0  0  0  0  0999 V2000
  158.7880  210.9570  155.5110 C   0  0  1  0  0  0  0  0  0  0  0  0
  161.3330  208.6630  153.9400 C   0  0  1  0  0  3  0  0  0  0  0  0
  162.5000  209.4100  150.9450 O   0  0  0  0  0  0  0  0  0  0  0  0
  160.4640  209.5430  156.2250 C   0  0  2  0  0  3  0  0  0  0  0  0
  160.8350  209.2960  152.6510 C   0  0  2  0  0  3  0  0  0  0  0  0
  161.2440  209.8180  154.9380 C   0  0  2  0  0  3  0  0  0  0  0  0
  161.3800  208.6770  151.3650 C   0  0  2  0  0  3  0  0  0  0  0  0
  160.8010  208.1460  156.7210 C   0  0  0  0  0  2  0  0  0  0  0  0
  160.6850  210.9980  154.1400 C   0  0  2  0  0  3  0  0  0  0  0  0
  159.3140  211.9930  156.2990 O   0  0  0  0  0  1  0  0  0  0  0  0
  161.0130  206.3060  153.5680 O   0  0  0  0  0  0  0  0  0  0  0  0
  160.3540  207.0600  155.7380 C   0  0  0  0  0  2  0  0  0  0  0  0
  159.2650  211.0280  154.1820 O   0  0  0  0  0  0  0  0  0  0  0  0
  160.7930  210.4220  149.5900 O   0  0  0  0  0  0  0  0  0  0  0  0
  162.1630  210.3440  149.9250 C   0  0  1  0  0  3  0  0  0  0  0  0
  160.4830  207.4160  154.2480 C   0  0  1  0  0  3  0  0  0  0  0  0
  161.1390  210.7230  152.7690 N   0  0  2  0  0  0  0  0  0  0  0  0
  159.0710  209.6870  156.0620 O   0  0  0  0  0  0  0  0  0  0  0  0
  161.6760  207.1700  151.4260 C   0  0  1  0  0  3  0  0  0  0  0  0
  157.2840  211.1220  155.4700 C   0  0  0  0  0  1  0  0  0  0  0  0
  161.2850  211.4850  150.3770 C   0  0  2  0  0  3  0  0  0  0  0  0
  160.4700  211.4900  151.6970 C   0  0  2  0  0  3  0  0  0  0  0  0
  160.6150  206.4040  152.2250 C   0  0  0  0  0  2  0  0  0  0  0  0
  162.4160  207.3700  149.0490 C   0  0  0  0  0  3  0  0  0  0  0  0
  161.8130  206.6000  150.0500 C   0  0  0  0  0  0  0  0  0  0  0  0
  161.3390  205.3140  149.7450 C   0  0  0  0  0  3  0  0  0  0  0  0
  161.0120  203.5660  148.1580 F   0  0  0  0  0  0  0  0  0  0  0  0
  162.0740  205.5800  147.4540 C   0  0  0  0  0  3  0  0  0  0  0  0
  161.4710  204.8070  148.4490 C   0  0  0  0  0  0  0  0  0  0  0  0
  162.5470  206.8610  147.7530 C   0  0  0  0  0  3  0  0  0  0  0  0
  160.2640  212.9610  152.0900 C   0  0  1  0  0  3  0  0  0  0  0  0
  159.7040  213.7360  150.9370 N   0  0  0  0  0  0  0  0  0  0  0  0
  158.9200  213.2760  152.1150 C   0  0  2  0  0  3  0  0  0  0  0  0
  158.6730  214.4500  153.0400 C   0  0  0  0  0  2  0  0  0  0  0  0
  157.5330  214.1670  153.8910 N   0  0  0  0  0  1  0  0  0  0  0  0
  159.1000  214.0150  148.6480 C   0  0  0  0  0  2  0  0  0  0  0  0
  159.8160  214.4120  149.6890 C   0  0  0  0  0  3  0  0  0  0  0  0
  1 20  1  6  0  0  0
  1 18  1  0  0  0  0
  1 10  1  0  0  0  0
  2 16  1  0  0  0  0
  2  6  1  0  0  0  0
  3  7  1  0  0  0  0
  4  8  1  0  0  0  0
  5 17  1  0  0  0  0
  5  2  1  0  0  0  0
  6  4  1  0  0  0  0
  7 19  1  0  0  0  0
  7  5  1  0  0  0  0
  9 13  1  0  0  0  0
  9  6  1  0  0  0  0
 11 16  1  0  0  0  0
 12  8  1  0  0  0  0
 13  1  1  0  0  0  0
 14 15  1  0  0  0  0
 14 21  1  0  0  0  0
 15 21  1  0  0  0  0
 15  3  1  0  0  0  0
 16 12  1  0  0  0  0
 17  9  1  0  0  0  0
 18  4  1  0  0  0  0
 19 23  1  0  0  0  0
 21 22  1  0  0  0  0
 22 31  1  0  0  0  0
 22 17  1  0  0  0  0
 23 11  1  0  0  0  0
 24 25  1  0  0  0  0
 25 19  1  0  0  0  0
 26 25  2  0  0  0  0
 27 29  1  0  0  0  0
 28 30  1  0  0  0  0
 28 29  2  0  0  0  0
 29 26  1  0  0  0  0
 30 24  2  0  0  0  0
 31 33  1  0  0  0  0
 32 31  1  0  0  0  0
 32 33  1  0  0  0  0
 33 34  1  0  0  0  0
 34 35  1  0  0  0  0
 36 37  2  0  0  0  0
 37 32  1  0  0  0  0
M  END
>  <MODEL>
2

>  <REMARK>
 VINA RESULT:      -6.4      1.732      2.560
  Name = 
  4 active torsions:
  status: ('A' for Active; 'I' for Inactive)
    1  A    between atoms: C_1  and  C_27
    2  A    between atoms: N_4  and  C_37
    3  A    between atoms: C_8  and  C_12
    4  A    between atoms: C_23  and  C_30
                            x       y       z     vdW  Elec       q    Type
                         _______ _______ _______ _____ _____    ______ ____

>  <TORSDO>
F 4

$$$$
