=
 OpenBabel11122414423D

 34 37  0  0  1  0  0  0  0  0999 V2000
  160.8950  207.6520  153.0200 C   0  0  2  0  0  3  0  0  0  0  0  0
  161.4550  205.3200  152.7920 O   0  0  0  0  0  0  0  0  0  0  0  0
  160.2430  210.0840  153.0200 C   0  0  0  0  0  2  0  0  0  0  0  0
  162.1600  206.7130  150.9910 C   0  0  2  0  0  3  0  0  0  0  0  0
  161.0540  205.5340  148.3540 C   0  0  0  0  0  2  0  0  0  0  0  0
  161.2450  207.7270  150.2800 C   0  0  1  0  0  3  0  0  0  0  0  0
  162.0380  204.5060  151.8120 C   0  0  0  0  0  2  0  0  0  0  0  0
  160.8370  205.0200  149.7040 N   0  0  0  0  0  0  0  0  0  0  0  0
  161.2360  209.0540  152.4880 C   0  0  2  0  0  3  0  0  0  0  0  0
  161.2830  209.1140  150.9520 C   0  0  1  0  0  3  0  0  0  0  0  0
  159.8930  208.6880  155.0680 C   0  0  0  0  0  2  0  0  0  0  0  0
  160.6250  206.9930  148.2710 C   0  0  0  0  0  2  0  0  0  0  0  0
  160.2460  210.0780  154.5470 C   0  0  0  0  0  2  0  0  0  0  0  0
  161.5600  207.8080  148.9170 O   0  0  0  0  0  0  0  0  0  0  0  0
  162.0580  205.2710  150.4960 C   0  0  1  0  0  3  0  0  0  0  0  0
  160.8940  207.6610  154.5480 C   0  0  0  0  0  2  0  0  0  0  0  0
  161.8990  206.6180  152.4990 C   0  0  1  0  0  3  0  0  0  0  0  0
  162.4300  210.0070  150.4700 C   0  0  0  0  0  2  0  0  0  0  0  0
  161.9370  211.3490  149.9460 C   0  0  0  0  0  2  0  0  0  0  0  0
  163.4820  212.0280  148.0910 C   0  0  0  0  0  1  0  0  0  0  0  0
  162.1170  211.4290  148.4400 C   0  0  2  0  0  3  0  0  0  0  0  0
  160.9990  212.1680  147.8410 N   0  0  0  0  0  0  0  0  0  0  0  0
  160.4500  212.9860  148.7730 O   0  0  0  0  0  1  0  0  0  0  0  0
  161.5120  213.0090  146.7680 C   0  0  0  0  0  2  0  0  0  0  0  0
  160.4640  213.1680  145.6800 C   0  0  0  0  0  2  0  0  0  0  0  0
  159.7870  211.9620  145.4900 O   0  0  0  0  0  0  0  0  0  0  0  0
  158.5600  212.3180  145.1750 O   0  0  0  0  0  1  0  0  0  0  0  0
  160.6580  203.5820  149.5290 C   0  0  0  0  0  2  0  0  0  0  0  0
  161.3760  203.1270  148.2700 C   0  0  0  0  0  2  0  0  0  0  0  0
  160.7200  201.8730  147.7050 C   0  0  0  0  0  3  0  0  0  0  0  0
  161.1950  203.0890  145.6760 O   0  0  0  0  0  1  0  0  0  0  0  0
  160.7470  201.8660  146.1790 C   0  0  0  0  0  2  0  0  0  0  0  0
  161.3040  200.5880  148.2960 C   0  0  0  0  0  2  0  0  0  0  0  0
  161.6680  199.6900  147.2890 O   0  0  0  0  0  1  0  0  0  0  0  0
  1 16  1  1  0  0  0
  3 13  1  0  0  0  0
  4 17  1  0  0  0  0
  5  8  1  0  0  0  0
  6 10  1  0  0  0  0
  6  4  1  0  0  0  0
  7  2  1  0  0  0  0
  8 15  1  0  0  0  0
  9  1  1  0  0  0  0
  9  3  1  0  0  0  0
 10  9  1  0  0  0  0
 12  5  1  0  0  0  0
 12 14  1  0  0  0  0
 13 11  1  0  0  0  0
 14  6  1  0  0  0  0
 15  4  1  0  0  0  0
 15  7  1  0  0  0  0
 16 11  1  0  0  0  0
 17  2  1  0  0  0  0
 17  1  1  0  0  0  0
 18 10  1  0  0  0  0
 19 18  1  0  0  0  0
 20 21  1  0  0  0  0
 21 19  1  0  0  0  0
 22 21  1  0  0  0  0
 22 23  1  0  0  0  0
 24 22  1  0  0  0  0
 25 24  1  0  0  0  0
 26 25  1  0  0  0  0
 27 26  1  0  0  0  0
 28  8  1  0  0  0  0
 29 28  1  0  0  0  0
 30 29  1  0  0  0  0
 30 33  1  0  0  0  0
 31 32  1  0  0  0  0
 32 30  1  0  0  0  0
 34 33  1  0  0  0  0
M  END
>  <MODEL>
1

>  <REMARK>
 VINA RESULT:      -7.0      0.000      0.000
  Name = 
  12 active torsions:
  status: ('A' for Active; 'I' for Inactive)
    1  A    between atoms: N_3  and  C_16
    2  A    between atoms: N_3  and  C_19
    3  A    between atoms: C_5  and  C_11
    4  A    between atoms: C_5  and  C_19
    5  A    between atoms: C_8  and  O_12
    6  A    between atoms: C_8  and  C_16
    7  A    between atoms: C_11  and  C_20
    8  A    between atoms: N_17  and  C_28
    9  A    between atoms: C_28  and  C_29
   10  A    between atoms: C_29  and  C_32
   11  A    between atoms: C_31  and  C_32
   12  A    between atoms: C_32  and  C_34
                            x       y       z     vdW  Elec       q    Type
                         _______ _______ _______ _____ _____    ______ ____

>  <TORSDO>
F 12

$$$$
=
 OpenBabel11122414423D

 34 37  0  0  1  0  0  0  0  0999 V2000
  160.8070  207.1610  153.3980 C   0  0  2  0  0  3  0  0  0  0  0  0
  161.3930  204.8730  152.9180 O   0  0  0  0  0  0  0  0  0  0  0  0
  160.1260  209.5700  153.6620 C   0  0  0  0  0  2  0  0  0  0  0  0
  162.0620  206.4590  151.2690 C   0  0  2  0  0  3  0  0  0  0  0  0
  160.9430  205.5520  148.5320 C   0  0  0  0  0  2  0  0  0  0  0  0
  161.1270  207.5310  150.6780 C   0  0  1  0  0  3  0  0  0  0  0  0
  161.9750  204.1750  151.8520 C   0  0  0  0  0  2  0  0  0  0  0  0
  160.7460  204.8950  149.8220 N   0  0  0  0  0  0  0  0  0  0  0  0
  161.1260  208.6160  153.0150 C   0  0  2  0  0  3  0  0  0  0  0  0
  161.1560  208.8390  151.4940 C   0  0  1  0  0  3  0  0  0  0  0  0
  159.8140  207.9610  155.5540 C   0  0  0  0  0  2  0  0  0  0  0  0
  160.4960  207.0070  148.6080 C   0  0  0  0  0  2  0  0  0  0  0  0
  160.1450  209.4020  155.1790 C   0  0  0  0  0  2  0  0  0  0  0  0
  161.4280  207.7600  149.3290 O   0  0  0  0  0  0  0  0  0  0  0  0
  161.9720  205.0770  150.6250 C   0  0  1  0  0  3  0  0  0  0  0  0
  160.8220  207.0070  154.9180 C   0  0  0  0  0  2  0  0  0  0  0  0
  161.8180  206.2010  152.7600 C   0  0  1  0  0  3  0  0  0  0  0  0
  162.2880  209.7920  151.0990 C   0  0  0  0  0  2  0  0  0  0  0  0
  161.8180  211.2380  150.9990 C   0  0  0  0  0  2  0  0  0  0  0  0
  162.3220  211.0710  148.5490 C   0  0  0  0  0  1  0  0  0  0  0  0
  161.3100  211.5350  149.5990 C   0  0  2  0  0  3  0  0  0  0  0  0
  160.9740  212.9590  149.4790 N   0  0  0  0  0  0  0  0  0  0  0  0
  160.3250  213.1700  148.3070 O   0  0  0  0  0  1  0  0  0  0  0  0
  160.0600  213.3180  150.5560 C   0  0  0  0  0  2  0  0  0  0  0  0
  158.6270  213.3030  150.0510 C   0  0  0  0  0  2  0  0  0  0  0  0
  157.9590  214.4520  150.4790 O   0  0  0  0  0  0  0  0  0  0  0  0
  157.2710  214.0620  151.5310 O   0  0  0  0  0  1  0  0  0  0  0  0
  160.5830  203.4820  149.4960 C   0  0  0  0  0  2  0  0  0  0  0  0
  161.4030  203.1420  148.2630 C   0  0  0  0  0  2  0  0  0  0  0  0
  160.7970  201.9520  147.5300 C   0  0  0  0  0  3  0  0  0  0  0  0
  159.8750  201.6560  145.3190 O   0  0  0  0  0  1  0  0  0  0  0  0
  161.0130  202.0550  146.0220 C   0  0  0  0  0  2  0  0  0  0  0  0
  161.2770  200.6110  148.0890 C   0  0  0  0  0  2  0  0  0  0  0  0
  161.6040  199.7240  147.0610 O   0  0  0  0  0  1  0  0  0  0  0  0
  1 16  1  1  0  0  0
  3 13  1  0  0  0  0
  4 17  1  0  0  0  0
  5 12  1  0  0  0  0
  5  8  1  0  0  0  0
  6  4  1  0  0  0  0
  6 10  1  0  0  0  0
  7  2  1  0  0  0  0
  8 15  1  0  0  0  0
  9  1  1  0  0  0  0
  9  3  1  0  0  0  0
 10  9  1  0  0  0  0
 12 14  1  0  0  0  0
 13 11  1  0  0  0  0
 14  6  1  0  0  0  0
 15  4  1  0  0  0  0
 15  7  1  0  0  0  0
 16 11  1  0  0  0  0
 17  2  1  0  0  0  0
 17  1  1  0  0  0  0
 18 10  1  0  0  0  0
 19 18  1  0  0  0  0
 20 21  1  0  0  0  0
 21 19  1  0  0  0  0
 22 21  1  0  0  0  0
 22 24  1  0  0  0  0
 23 22  1  0  0  0  0
 25 26  1  0  0  0  0
 25 24  1  0  0  0  0
 26 27  1  0  0  0  0
 28  8  1  0  0  0  0
 29 28  1  0  0  0  0
 30 33  1  0  0  0  0
 30 29  1  0  0  0  0
 31 32  1  0  0  0  0
 32 30  1  0  0  0  0
 34 33  1  0  0  0  0
M  END
>  <MODEL>
2

>  <REMARK>
 VINA RESULT:      -6.4      1.415      2.015
  Name = 
  12 active torsions:
  status: ('A' for Active; 'I' for Inactive)
    1  A    between atoms: N_3  and  C_16
    2  A    between atoms: N_3  and  C_19
    3  A    between atoms: C_5  and  C_11
    4  A    between atoms: C_5  and  C_19
    5  A    between atoms: C_8  and  O_12
    6  A    between atoms: C_8  and  C_16
    7  A    between atoms: C_11  and  C_20
    8  A    between atoms: N_17  and  C_28
    9  A    between atoms: C_28  and  C_29
   10  A    between atoms: C_29  and  C_32
   11  A    between atoms: C_31  and  C_32
   12  A    between atoms: C_32  and  C_34
                            x       y       z     vdW  Elec       q    Type
                         _______ _______ _______ _____ _____    ______ ____

>  <TORSDO>
F 12

$$$$
=
 OpenBabel11122414423D

 34 37  0  0  1  0  0  0  0  0999 V2000
  161.2670  204.9050  151.4110 C   0  0  2  0  0  3  0  0  0  0  0  0
  160.9680  206.3850  153.2880 O   0  0  0  0  0  0  0  0  0  0  0  0
  161.6910  203.5470  149.3330 C   0  0  0  0  0  2  0  0  0  0  0  0
  160.5090  207.3460  151.1560 C   0  0  2  0  0  3  0  0  0  0  0  0
  162.2080  209.9140  150.8570 C   0  0  0  0  0  2  0  0  0  0  0  0
  161.4540  207.2400  149.9440 C   0  0  1  0  0  3  0  0  0  0  0  0
  160.6610  207.7390  153.4760 C   0  0  0  0  0  2  0  0  0  0  0  0
  162.2020  208.9930  151.9920 N   0  0  0  0  0  0  0  0  0  0  0  0
  160.9150  204.7210  149.9240 C   0  0  2  0  0  3  0  0  0  0  0  0
  161.1640  205.9890  149.0910 C   0  0  1  0  0  3  0  0  0  0  0  0
  161.7550  202.4540  151.5850 C   0  0  0  0  0  2  0  0  0  0  0  0
  162.5170  209.1600  149.5700 C   0  0  0  0  0  2  0  0  0  0  0  0
  161.3900  202.2700  150.1150 C   0  0  0  0  0  2  0  0  0  0  0  0
  161.4050  208.4090  149.1730 O   0  0  0  0  0  0  0  0  0  0  0  0
  160.8320  208.4630  152.1470 C   0  0  1  0  0  3  0  0  0  0  0  0
  160.9680  203.6200  152.1800 C   0  0  0  0  0  2  0  0  0  0  0  0
  160.4780  206.0740  152.0110 C   0  0  1  0  0  3  0  0  0  0  0  0
  160.0600  206.1890  148.0490 C   0  0  0  0  0  2  0  0  0  0  0  0
  160.6190  206.5020  146.6670 C   0  0  0  0  0  2  0  0  0  0  0  0
  162.7540  205.4070  145.9390 C   0  0  0  0  0  1  0  0  0  0  0  0
  161.2350  205.2580  146.0510 C   0  0  2  0  0  3  0  0  0  0  0  0
  160.5930  204.9660  144.7640 N   0  0  0  0  0  0  0  0  0  0  0  0
  161.4490  205.2670  143.7560 O   0  0  0  0  0  1  0  0  0  0  0  0
  160.3170  203.5370  144.6900 C   0  0  0  0  0  2  0  0  0  0  0  0
  161.1120  202.7950  145.7510 C   0  0  0  0  0  2  0  0  0  0  0  0
  160.5450  201.5400  145.9810 O   0  0  0  0  0  0  0  0  0  0  0  0
  159.8790  201.2710  144.8790 O   0  0  0  0  0  1  0  0  0  0  0  0
  162.5360  209.8230  153.1440 C   0  0  0  0  0  2  0  0  0  0  0  0
  161.4010  210.7940  153.4230 C   0  0  0  0  0  2  0  0  0  0  0  0
  161.3120  211.0980  154.9140 C   0  0  0  0  0  3  0  0  0  0  0  0
  158.9770  210.8940  154.3390 O   0  0  0  0  0  1  0  0  0  0  0  0
  159.8630  211.1250  155.3930 C   0  0  0  0  0  2  0  0  0  0  0  0
  162.1790  210.1610  155.7570 C   0  0  0  0  0  2  0  0  0  0  0  0
  163.1620  210.8710  156.4520 O   0  0  0  0  0  1  0  0  0  0  0  0
  1 17  1  0  0  0  0
  1 16  1  1  0  0  0
  2  7  1  0  0  0  0
  3  9  1  0  0  0  0
  3 13  1  0  0  0  0
  4 17  1  0  0  0  0
  4 15  1  0  0  0  0
  5  8  1  0  0  0  0
  6  4  1  0  0  0  0
  8 15  1  0  0  0  0
  8 28  1  0  0  0  0
  9  1  1  0  0  0  0
 10  9  1  0  0  0  0
 10  6  1  0  0  0  0
 11 16  1  0  0  0  0
 12  5  1  0  0  0  0
 13 11  1  0  0  0  0
 14 12  1  0  0  0  0
 14  6  1  0  0  0  0
 15  7  1  0  0  0  0
 17  2  1  0  0  0  0
 18 10  1  0  0  0  0
 19 18  1  0  0  0  0
 20 21  1  0  0  0  0
 21 19  1  0  0  0  0
 22 21  1  0  0  0  0
 23 22  1  0  0  0  0
 24 22  1  0  0  0  0
 24 25  1  0  0  0  0
 25 26  1  0  0  0  0
 27 26  1  0  0  0  0
 28 29  1  0  0  0  0
 29 30  1  0  0  0  0
 30 32  1  0  0  0  0
 30 33  1  0  0  0  0
 31 32  1  0  0  0  0
 33 34  1  0  0  0  0
M  END
>  <MODEL>
3

>  <REMARK>
 VINA RESULT:      -6.2      2.812      7.770
  Name = 
  12 active torsions:
  status: ('A' for Active; 'I' for Inactive)
    1  A    between atoms: N_3  and  C_16
    2  A    between atoms: N_3  and  C_19
    3  A    between atoms: C_5  and  C_11
    4  A    between atoms: C_5  and  C_19
    5  A    between atoms: C_8  and  O_12
    6  A    between atoms: C_8  and  C_16
    7  A    between atoms: C_11  and  C_20
    8  A    between atoms: N_17  and  C_28
    9  A    between atoms: C_28  and  C_29
   10  A    between atoms: C_29  and  C_32
   11  A    between atoms: C_31  and  C_32
   12  A    between atoms: C_32  and  C_34
                            x       y       z     vdW  Elec       q    Type
                         _______ _______ _______ _____ _____    ______ ____

>  <TORSDO>
F 12

$$$$
=
 OpenBabel11122414423D

 34 37  0  0  1  0  0  0  0  0999 V2000
  161.6240  209.4060  152.0450 C   0  0  2  0  0  3  0  0  0  0  0  0
  161.9370  210.9070  153.9030 O   0  0  0  0  0  0  0  0  0  0  0  0
  161.1300  207.7180  150.2430 C   0  0  0  0  0  2  0  0  0  0  0  0
  161.8050  208.5980  154.4770 C   0  0  2  0  0  3  0  0  0  0  0  0
  159.5890  208.2450  156.6040 C   0  0  0  0  0  2  0  0  0  0  0  0
  160.7050  207.6480  153.9680 C   0  0  1  0  0  3  0  0  0  0  0  0
  161.9860  210.8000  155.2990 C   0  0  0  0  0  2  0  0  0  0  0  0
  159.9840  209.4890  155.9470 N   0  0  0  0  0  0  0  0  0  0  0  0
  161.7400  207.9300  151.6260 C   0  0  2  0  0  3  0  0  0  0  0  0
  161.0920  206.9710  152.6380 C   0  0  1  0  0  3  0  0  0  0  0  0
  161.6900  210.0810  149.6340 C   0  0  0  0  0  2  0  0  0  0  0  0
  159.2210  207.1940  155.5650 C   0  0  0  0  0  2  0  0  0  0  0  0
  161.8210  208.6180  149.2210 C   0  0  0  0  0  2  0  0  0  0  0  0
  160.3760  206.7020  154.9480 O   0  0  0  0  0  0  0  0  0  0  0  0
  161.4390  209.4370  155.7000 C   0  0  1  0  0  3  0  0  0  0  0  0
  162.3120  210.2960  151.0110 C   0  0  0  0  0  2  0  0  0  0  0  0
  162.2480  209.6250  153.4280 C   0  0  1  0  0  3  0  0  0  0  0  0
  161.9310  205.7010  152.8080 C   0  0  0  0  0  2  0  0  0  0  0  0
  162.1700  204.9840  151.4850 C   0  0  0  0  0  2  0  0  0  0  0  0
  160.7500  203.0700  152.2630 C   0  0  0  0  0  1  0  0  0  0  0  0
  160.9910  204.0890  151.1470 C   0  0  2  0  0  3  0  0  0  0  0  0
  161.1980  203.4620  149.8350 N   0  0  0  0  0  0  0  0  0  0  0  0
  160.2410  202.5230  149.6300 O   0  0  0  0  0  1  0  0  0  0  0  0
  161.0440  204.4770  148.8010 C   0  0  0  0  0  2  0  0  0  0  0  0
  161.8330  204.0850  147.5630 C   0  0  0  0  0  2  0  0  0  0  0  0
  162.3210  205.2280  146.9270 O   0  0  0  0  0  0  0  0  0  0  0  0
  163.3350  204.7970  146.2080 O   0  0  0  0  0  1  0  0  0  0  0  0
  159.6940  210.5330  156.9250 C   0  0  0  0  0  2  0  0  0  0  0  0
  158.9480  211.6720  156.2520 C   0  0  0  0  0  2  0  0  0  0  0  0
  158.1230  211.1520  155.0800 C   0  0  0  0  0  3  0  0  0  0  0  0
  155.8330  211.6930  154.5460 O   0  0  0  0  0  1  0  0  0  0  0  0
  156.6490  211.0130  155.4520 C   0  0  0  0  0  2  0  0  0  0  0  0
  158.3200  211.9830  153.8100 C   0  0  0  0  0  2  0  0  0  0  0  0
  158.7100  211.1780  152.7370 O   0  0  0  0  0  1  0  0  0  0  0  0
  1 16  1  6  0  0  0
  1 17  1  0  0  0  0
  2  7  1  0  0  0  0
  3  9  1  0  0  0  0
  4 15  1  0  0  0  0
  6  4  1  0  0  0  0
  6 14  1  0  0  0  0
  7 15  1  0  0  0  0
  8  5  1  0  0  0  0
  8 28  1  0  0  0  0
  9  1  1  0  0  0  0
  9 10  1  0  0  0  0
 10 18  1  0  0  0  0
 10  6  1  0  0  0  0
 11 16  1  0  0  0  0
 12  5  1  0  0  0  0
 13 11  1  0  0  0  0
 13  3  1  0  0  0  0
 14 12  1  0  0  0  0
 15  8  1  0  0  0  0
 17  2  1  0  0  0  0
 17  4  1  0  0  0  0
 19 18  1  0  0  0  0
 21 19  1  0  0  0  0
 21 20  1  0  0  0  0
 22 21  1  0  0  0  0
 23 22  1  0  0  0  0
 24 22  1  0  0  0  0
 25 24  1  0  0  0  0
 26 25  1  0  0  0  0
 27 26  1  0  0  0  0
 29 28  1  0  0  0  0
 30 32  1  0  0  0  0
 30 29  1  0  0  0  0
 31 32  1  0  0  0  0
 33 30  1  0  0  0  0
 34 33  1  0  0  0  0
M  END
>  <MODEL>
4

>  <REMARK>
 VINA RESULT:      -5.9      3.271      8.302
  Name = 
  12 active torsions:
  status: ('A' for Active; 'I' for Inactive)
    1  A    between atoms: N_3  and  C_16
    2  A    between atoms: N_3  and  C_19
    3  A    between atoms: C_5  and  C_11
    4  A    between atoms: C_5  and  C_19
    5  A    between atoms: C_8  and  O_12
    6  A    between atoms: C_8  and  C_16
    7  A    between atoms: C_11  and  C_20
    8  A    between atoms: N_17  and  C_28
    9  A    between atoms: C_28  and  C_29
   10  A    between atoms: C_29  and  C_32
   11  A    between atoms: C_31  and  C_32
   12  A    between atoms: C_32  and  C_34
                            x       y       z     vdW  Elec       q    Type
                         _______ _______ _______ _____ _____    ______ ____

>  <TORSDO>
F 12

$$$$
=
 OpenBabel11122414423D

 34 37  0  0  1  0  0  0  0  0999 V2000
  161.6210  209.4420  152.0900 C   0  0  2  0  0  3  0  0  0  0  0  0
  161.9110  210.9490  153.9480 O   0  0  0  0  0  0  0  0  0  0  0  0
  161.1530  207.7460  150.2890 C   0  0  0  0  0  2  0  0  0  0  0  0
  161.8160  208.6380  154.5220 C   0  0  2  0  0  3  0  0  0  0  0  0
  159.6060  208.2500  156.6510 C   0  0  0  0  0  2  0  0  0  0  0  0
  160.7310  207.6700  154.0150 C   0  0  1  0  0  3  0  0  0  0  0  0
  161.9620  210.8430  155.3440 C   0  0  0  0  0  2  0  0  0  0  0  0
  159.9810  209.5000  155.9940 N   0  0  0  0  0  0  0  0  0  0  0  0
  161.7600  207.9680  151.6720 C   0  0  2  0  0  3  0  0  0  0  0  0
  161.1280  206.9990  152.6850 C   0  0  1  0  0  3  0  0  0  0  0  0
  161.6750  210.1180  149.6790 C   0  0  0  0  0  2  0  0  0  0  0  0
  159.2550  207.1930  155.6120 C   0  0  0  0  0  2  0  0  0  0  0  0
  161.8290  208.6570  149.2660 C   0  0  0  0  0  2  0  0  0  0  0  0
  160.4180  206.7190  154.9950 O   0  0  0  0  0  0  0  0  0  0  0  0
  161.4370  209.4710  155.7450 C   0  0  1  0  0  3  0  0  0  0  0  0
  162.2940  210.3430  151.0560 C   0  0  0  0  0  2  0  0  0  0  0  0
  162.2420  209.6710  153.4730 C   0  0  1  0  0  3  0  0  0  0  0  0
  161.9870  205.7420  152.8550 C   0  0  0  0  0  2  0  0  0  0  0  0
  162.1370  204.9640  151.5540 C   0  0  0  0  0  2  0  0  0  0  0  0
  161.1500  202.6910  151.9350 C   0  0  0  0  0  1  0  0  0  0  0  0
  160.9260  204.0760  151.3250 C   0  0  2  0  0  3  0  0  0  0  0  0
  160.6060  204.0260  149.8930 N   0  0  0  0  0  0  0  0  0  0  0  0
  161.6080  204.6090  149.1880 O   0  0  0  0  0  1  0  0  0  0  0  0
  160.5320  202.6320  149.4760 C   0  0  0  0  0  2  0  0  0  0  0  0
  160.9600  202.4960  148.0250 C   0  0  0  0  0  2  0  0  0  0  0  0
  161.2620  201.1630  147.7400 O   0  0  0  0  0  0  0  0  0  0  0  0
  161.2450  200.5620  148.9100 O   0  0  0  0  0  1  0  0  0  0  0  0
  159.6750  210.5390  156.9710 C   0  0  0  0  0  2  0  0  0  0  0  0
  158.9090  211.6660  156.2980 C   0  0  0  0  0  2  0  0  0  0  0  0
  158.1930  211.1560  155.0540 C   0  0  0  0  0  3  0  0  0  0  0  0
  155.9540  211.9100  154.5600 O   0  0  0  0  0  1  0  0  0  0  0  0
  156.6960  210.9860  155.3000 C   0  0  0  0  0  2  0  0  0  0  0  0
  158.4790  212.0140  153.8190 C   0  0  0  0  0  2  0  0  0  0  0  0
  158.6800  211.2180  152.6880 O   0  0  0  0  0  1  0  0  0  0  0  0
  1 16  1  6  0  0  0
  1 17  1  0  0  0  0
  2  7  1  0  0  0  0
  3  9  1  0  0  0  0
  4 15  1  0  0  0  0
  6  4  1  0  0  0  0
  6 14  1  0  0  0  0
  7 15  1  0  0  0  0
  8  5  1  0  0  0  0
  8 28  1  0  0  0  0
  9  1  1  0  0  0  0
  9 10  1  0  0  0  0
 10 18  1  0  0  0  0
 10  6  1  0  0  0  0
 11 16  1  0  0  0  0
 12  5  1  0  0  0  0
 13 11  1  0  0  0  0
 13  3  1  0  0  0  0
 14 12  1  0  0  0  0
 15  8  1  0  0  0  0
 17  2  1  0  0  0  0
 17  4  1  0  0  0  0
 19 18  1  0  0  0  0
 21 19  1  0  0  0  0
 21 20  1  0  0  0  0
 22 21  1  0  0  0  0
 23 22  1  0  0  0  0
 24 22  1  0  0  0  0
 25 24  1  0  0  0  0
 26 25  1  0  0  0  0
 26 27  1  0  0  0  0
 29 28  1  0  0  0  0
 30 32  1  0  0  0  0
 30 29  1  0  0  0  0
 31 32  1  0  0  0  0
 33 30  1  0  0  0  0
 34 33  1  0  0  0  0
M  END
>  <MODEL>
5

>  <REMARK>
 VINA RESULT:      -5.8      3.124      8.616
  Name = 
  12 active torsions:
  status: ('A' for Active; 'I' for Inactive)
    1  A    between atoms: N_3  and  C_16
    2  A    between atoms: N_3  and  C_19
    3  A    between atoms: C_5  and  C_11
    4  A    between atoms: C_5  and  C_19
    5  A    between atoms: C_8  and  O_12
    6  A    between atoms: C_8  and  C_16
    7  A    between atoms: C_11  and  C_20
    8  A    between atoms: N_17  and  C_28
    9  A    between atoms: C_28  and  C_29
   10  A    between atoms: C_29  and  C_32
   11  A    between atoms: C_31  and  C_32
   12  A    between atoms: C_32  and  C_34
                            x       y       z     vdW  Elec       q    Type
                         _______ _______ _______ _____ _____    ______ ____

>  <TORSDO>
F 12

$$$$
=
 OpenBabel11122414423D

 34 37  0  0  1  0  0  0  0  0999 V2000
  161.3750  207.2250  149.2420 C   0  0  2  0  0  3  0  0  0  0  0  0
  161.9280  209.4690  149.9240 O   0  0  0  0  0  0  0  0  0  0  0  0
  160.6880  204.8530  148.7500 C   0  0  0  0  0  2  0  0  0  0  0  0
  162.2580  207.7930  151.5870 C   0  0  2  0  0  3  0  0  0  0  0  0
  160.7020  208.6210  154.1290 C   0  0  0  0  0  2  0  0  0  0  0  0
  161.2060  206.7300  151.9560 C   0  0  1  0  0  3  0  0  0  0  0  0
  162.3330  210.1010  151.1070 C   0  0  0  0  0  2  0  0  0  0  0  0
  160.7500  209.3390  152.8570 N   0  0  0  0  0  0  0  0  0  0  0  0
  161.5840  205.7450  149.6050 C   0  0  2  0  0  3  0  0  0  0  0  0
  161.3420  205.4570  151.0960 C   0  0  1  0  0  3  0  0  0  0  0  0
  160.7530  206.5510  146.9110 C   0  0  0  0  0  2  0  0  0  0  0  0
  160.2370  207.1870  153.9070 C   0  0  0  0  0  2  0  0  0  0  0  0
  160.9760  205.0850  147.2680 C   0  0  0  0  0  2  0  0  0  0  0  0
  161.2610  206.4330  153.3240 O   0  0  0  0  0  0  0  0  0  0  0  0
  162.0930  209.1490  152.2710 C   0  0  1  0  0  3  0  0  0  0  0  0
  161.6590  207.4420  147.7570 C   0  0  0  0  0  2  0  0  0  0  0  0
  162.2840  208.1220  150.0900 C   0  0  1  0  0  3  0  0  0  0  0  0
  162.3620  204.4490  151.6350 C   0  0  0  0  0  2  0  0  0  0  0  0
  162.1310  203.0450  151.0910 C   0  0  0  0  0  2  0  0  0  0  0  0
  160.0370  202.6810  152.4210 C   0  0  0  0  0  1  0  0  0  0  0  0
  160.6440  202.7440  151.0180 C   0  0  2  0  0  3  0  0  0  0  0  0
  160.4200  201.5180  150.2420 N   0  0  0  0  0  0  0  0  0  0  0  0
  159.3540  201.6940  149.4220 O   0  0  0  0  0  1  0  0  0  0  0  0
  161.5840  201.2750  149.4000 C   0  0  0  0  0  2  0  0  0  0  0  0
  161.1500  201.0310  147.9650 C   0  0  0  0  0  2  0  0  0  0  0  0
  161.7250  199.8530  147.4860 O   0  0  0  0  0  0  0  0  0  0  0  0
  161.2020  199.6920  146.2900 O   0  0  0  0  0  1  0  0  0  0  0  0
  160.5700  210.7410  153.2170 C   0  0  0  0  0  2  0  0  0  0  0  0
  159.0950  211.0290  153.4360 C   0  0  0  0  0  2  0  0  0  0  0  0
  158.9130  212.1000  154.5040 C   0  0  0  0  0  3  0  0  0  0  0  0
  156.7010  211.1330  154.5440 O   0  0  0  0  0  1  0  0  0  0  0  0
  157.4430  212.2670  154.8830 C   0  0  0  0  0  2  0  0  0  0  0  0
  159.7990  211.8640  155.7290 C   0  0  0  0  0  2  0  0  0  0  0  0
  160.2330  213.0740  156.2780 O   0  0  0  0  0  1  0  0  0  0  0  0
  1 16  1  6  0  0  0
  1  9  1  0  0  0  0
  1 17  1  0  0  0  0
  2 17  1  0  0  0  0
  2  7  1  0  0  0  0
  3  9  1  0  0  0  0
  4  6  1  0  0  0  0
  4 15  1  0  0  0  0
  6 14  1  0  0  0  0
  7 15  1  0  0  0  0
  8 28  1  0  0  0  0
  8  5  1  0  0  0  0
  9 10  1  0  0  0  0
 10 18  1  0  0  0  0
 10  6  1  0  0  0  0
 11 13  1  0  0  0  0
 11 16  1  0  0  0  0
 12  5  1  0  0  0  0
 13  3  1  0  0  0  0
 14 12  1  0  0  0  0
 15  8  1  0  0  0  0
 17  4  1  0  0  0  0
 19 18  1  0  0  0  0
 21 19  1  0  0  0  0
 21 20  1  0  0  0  0
 22 21  1  0  0  0  0
 23 22  1  0  0  0  0
 24 22  1  0  0  0  0
 25 24  1  0  0  0  0
 26 25  1  0  0  0  0
 27 26  1  0  0  0  0
 28 29  1  0  0  0  0
 29 30  1  0  0  0  0
 30 32  1  0  0  0  0
 30 33  1  0  0  0  0
 31 32  1  0  0  0  0
 33 34  1  0  0  0  0
M  END
>  <MODEL>
6

>  <REMARK>
 VINA RESULT:      -5.0      2.833      9.068
  Name = 
  12 active torsions:
  status: ('A' for Active; 'I' for Inactive)
    1  A    between atoms: N_3  and  C_16
    2  A    between atoms: N_3  and  C_19
    3  A    between atoms: C_5  and  C_11
    4  A    between atoms: C_5  and  C_19
    5  A    between atoms: C_8  and  O_12
    6  A    between atoms: C_8  and  C_16
    7  A    between atoms: C_11  and  C_20
    8  A    between atoms: N_17  and  C_28
    9  A    between atoms: C_28  and  C_29
   10  A    between atoms: C_29  and  C_32
   11  A    between atoms: C_31  and  C_32
   12  A    between atoms: C_32  and  C_34
                            x       y       z     vdW  Elec       q    Type
                         _______ _______ _______ _____ _____    ______ ____

>  <TORSDO>
F 12

$$$$
=
 OpenBabel11122414423D

 34 37  0  0  1  0  0  0  0  0999 V2000
  158.4550  210.7420  154.5930 C   0  0  2  0  0  3  0  0  0  0  0  0
  159.7670  208.9940  155.6070 O   0  0  0  0  0  0  0  0  0  0  0  0
  157.1730  212.4910  153.3140 C   0  0  0  0  0  2  0  0  0  0  0  0
  160.8740  210.2270  153.8940 C   0  0  2  0  0  3  0  0  0  0  0  0
  161.9290  208.2300  151.7810 C   0  0  0  0  0  2  0  0  0  0  0  0
  160.2590  210.5170  152.5110 C   0  0  1  0  0  3  0  0  0  0  0  0
  161.0310  208.4240  155.4050 C   0  0  0  0  0  2  0  0  0  0  0  0
  161.1620  207.9110  152.9830 N   0  0  0  0  0  0  0  0  0  0  0  0
  158.5610  212.0160  153.7370 C   0  0  2  0  0  3  0  0  0  0  0  0
  159.4530  211.8310  152.4990 C   0  0  1  0  0  3  0  0  0  0  0  0
  156.1930  211.4730  155.3810 C   0  0  0  0  0  2  0  0  0  0  0  0
  161.1780  209.2460  150.9300 C   0  0  0  0  0  2  0  0  0  0  0  0
  156.3060  212.7450  154.5450 C   0  0  0  0  0  2  0  0  0  0  0  0
  161.2490  210.5140  151.5190 O   0  0  0  0  0  0  0  0  0  0  0  0
  161.5490  208.8650  154.0430 C   0  0  1  0  0  3  0  0  0  0  0  0
  157.5800  211.0060  155.8160 C   0  0  0  0  0  2  0  0  0  0  0  0
  159.8470  210.2700  155.0310 C   0  0  1  0  0  3  0  0  0  0  0  0
  160.3030  213.0790  152.2410 C   0  0  0  0  0  2  0  0  0  0  0  0
  159.4720  214.2480  151.7280 C   0  0  0  0  0  2  0  0  0  0  0  0
  158.0100  213.6120  149.7920 C   0  0  0  0  0  1  0  0  0  0  0  0
  159.3610  214.1950  150.2140 C   0  0  2  0  0  3  0  0  0  0  0  0
  160.5010  213.4600  149.6540 N   0  0  0  0  0  0  0  0  0  0  0  0
  160.0690  212.6610  148.6460 O   0  0  0  0  0  1  0  0  0  0  0  0
  161.4420  214.4150  149.0830 C   0  0  0  0  0  2  0  0  0  0  0  0
  161.9620  213.9030  147.7500 C   0  0  0  0  0  2  0  0  0  0  0  0
  163.3230  213.6070  147.8510 O   0  0  0  0  0  0  0  0  0  0  0  0
  163.3810  212.2950  147.7830 O   0  0  0  0  0  1  0  0  0  0  0  0
  161.5950  206.5680  153.3540 C   0  0  0  0  0  2  0  0  0  0  0  0
  162.0980  205.8340  152.1230 C   0  0  0  0  0  2  0  0  0  0  0  0
  160.9580  205.0810  151.4470 C   0  0  0  0  0  3  0  0  0  0  0  0
  160.6200  206.0960  149.2840 O   0  0  0  0  0  1  0  0  0  0  0  0
  161.1670  204.9890  149.9380 C   0  0  0  0  0  2  0  0  0  0  0  0
  160.7050  203.7100  152.0770 C   0  0  0  0  0  2  0  0  0  0  0  0
  161.7120  202.8040  151.7350 O   0  0  0  0  0  1  0  0  0  0  0  0
  1 17  1  0  0  0  0
  1 16  1  1  0  0  0
  3  9  1  0  0  0  0
  3 13  1  0  0  0  0
  4 15  1  0  0  0  0
  4 17  1  0  0  0  0
  5  8  1  0  0  0  0
  6  4  1  0  0  0  0
  7  2  1  0  0  0  0
  8 28  1  0  0  0  0
  8 15  1  0  0  0  0
  9  1  1  0  0  0  0
 10  6  1  0  0  0  0
 10  9  1  0  0  0  0
 11 16  1  0  0  0  0
 12 14  1  0  0  0  0
 12  5  1  0  0  0  0
 13 11  1  0  0  0  0
 14  6  1  0  0  0  0
 15  7  1  0  0  0  0
 17  2  1  0  0  0  0
 18 10  1  0  0  0  0
 19 18  1  0  0  0  0
 20 21  1  0  0  0  0
 21 19  1  0  0  0  0
 22 21  1  0  0  0  0
 23 22  1  0  0  0  0
 24 22  1  0  0  0  0
 25 26  1  0  0  0  0
 25 24  1  0  0  0  0
 27 26  1  0  0  0  0
 29 28  1  0  0  0  0
 30 33  1  0  0  0  0
 30 29  1  0  0  0  0
 31 32  1  0  0  0  0
 32 30  1  0  0  0  0
 34 33  1  0  0  0  0
M  END
>  <MODEL>
7

>  <REMARK>
 VINA RESULT:      -4.7      2.771      4.432
  Name = 
  12 active torsions:
  status: ('A' for Active; 'I' for Inactive)
    1  A    between atoms: N_3  and  C_16
    2  A    between atoms: N_3  and  C_19
    3  A    between atoms: C_5  and  C_11
    4  A    between atoms: C_5  and  C_19
    5  A    between atoms: C_8  and  O_12
    6  A    between atoms: C_8  and  C_16
    7  A    between atoms: C_11  and  C_20
    8  A    between atoms: N_17  and  C_28
    9  A    between atoms: C_28  and  C_29
   10  A    between atoms: C_29  and  C_32
   11  A    between atoms: C_31  and  C_32
   12  A    between atoms: C_32  and  C_34
                            x       y       z     vdW  Elec       q    Type
                         _______ _______ _______ _____ _____    ______ ____

>  <TORSDO>
F 12

$$$$
=
 OpenBabel11122414423D

 34 37  0  0  1  0  0  0  0  0999 V2000
  161.1850  204.2290  150.8800 C   0  0  2  0  0  3  0  0  0  0  0  0
  160.8480  205.5480  152.8680 O   0  0  0  0  0  0  0  0  0  0  0  0
  161.6600  203.0470  148.7080 C   0  0  0  0  0  2  0  0  0  0  0  0
  160.5140  206.7090  150.8140 C   0  0  2  0  0  3  0  0  0  0  0  0
  162.3010  209.2330  150.8170 C   0  0  0  0  0  2  0  0  0  0  0  0
  161.5080  206.6770  149.6380 C   0  0  1  0  0  3  0  0  0  0  0  0
  160.5750  206.8890  153.1640 C   0  0  0  0  0  2  0  0  0  0  0  0
  162.2170  208.2160  151.8640 N   0  0  0  0  0  0  0  0  0  0  0  0
  160.8940  204.1900  149.3700 C   0  0  2  0  0  3  0  0  0  0  0  0
  161.2180  205.5170  148.6650 C   0  0  1  0  0  3  0  0  0  0  0  0
  161.5910  201.7580  150.8530 C   0  0  0  0  0  2  0  0  0  0  0  0
  162.6430  208.5860  149.4810 C   0  0  0  0  0  2  0  0  0  0  0  0
  161.2860  201.7170  149.3590 C   0  0  0  0  0  2  0  0  0  0  0  0
  161.5280  207.9110  148.9740 O   0  0  0  0  0  0  0  0  0  0  0  0
  160.8260  207.7220  151.9140 C   0  0  1  0  0  3  0  0  0  0  0  0
  160.8140  202.8920  151.5170 C   0  0  0  0  0  2  0  0  0  0  0  0
  160.4070  205.3680  151.5490 C   0  0  1  0  0  3  0  0  0  0  0  0
  160.1680  205.8460  147.6000 C   0  0  0  0  0  2  0  0  0  0  0  0
  160.7920  206.1270  146.2390 C   0  0  0  0  0  2  0  0  0  0  0  0
  163.0680  205.1000  146.0130 C   0  0  0  0  0  1  0  0  0  0  0  0
  161.5720  204.9170  145.7540 C   0  0  2  0  0  3  0  0  0  0  0  0
  161.2640  204.6560  144.3430 N   0  0  0  0  0  0  0  0  0  0  0  0
  160.0380  204.0810  144.2500 O   0  0  0  0  0  1  0  0  0  0  0  0
  161.2060  205.9260  143.6310 C   0  0  0  0  0  2  0  0  0  0  0  0
  161.9700  205.8270  142.3220 C   0  0  0  0  0  2  0  0  0  0  0  0
  161.5780  206.8550  141.4620 O   0  0  0  0  0  0  0  0  0  0  0  0
  162.4210  206.7830  140.4550 O   0  0  0  0  0  1  0  0  0  0  0  0
  162.5240  208.9300  153.0990 C   0  0  0  0  0  2  0  0  0  0  0  0
  161.9950  210.3510  153.0150 C   0  0  0  0  0  2  0  0  0  0  0  0
  161.1920  210.6970  154.2630 C   0  0  0  0  0  3  0  0  0  0  0  0
  159.4400  210.7220  152.6040 O   0  0  0  0  0  1  0  0  0  0  0  0
  159.6930  210.7110  153.9770 C   0  0  0  0  0  2  0  0  0  0  0  0
  161.5410  209.8000  155.4530 C   0  0  0  0  0  2  0  0  0  0  0  0
  162.7050  210.2380  156.0900 O   0  0  0  0  0  1  0  0  0  0  0  0
  1 16  1  1  0  0  0
  1 17  1  0  0  0  0
  2  7  1  0  0  0  0
  3 13  1  0  0  0  0
  3  9  1  0  0  0  0
  4 17  1  0  0  0  0
  4 15  1  0  0  0  0
  5  8  1  0  0  0  0
  6  4  1  0  0  0  0
  8 15  1  0  0  0  0
  8 28  1  0  0  0  0
  9  1  1  0  0  0  0
 10  9  1  0  0  0  0
 10  6  1  0  0  0  0
 11 16  1  0  0  0  0
 12  5  1  0  0  0  0
 13 11  1  0  0  0  0
 14 12  1  0  0  0  0
 14  6  1  0  0  0  0
 15  7  1  0  0  0  0
 17  2  1  0  0  0  0
 18 10  1  0  0  0  0
 19 18  1  0  0  0  0
 21 20  1  0  0  0  0
 21 19  1  0  0  0  0
 22 21  1  0  0  0  0
 23 22  1  0  0  0  0
 24 22  1  0  0  0  0
 25 24  1  0  0  0  0
 26 25  1  0  0  0  0
 27 26  1  0  0  0  0
 29 28  1  0  0  0  0
 29 30  1  0  0  0  0
 30 33  1  0  0  0  0
 31 32  1  0  0  0  0
 32 30  1  0  0  0  0
 33 34  1  0  0  0  0
M  END
>  <MODEL>
8

>  <REMARK>
 VINA RESULT:      -4.7      3.065      7.302
  Name = 
  12 active torsions:
  status: ('A' for Active; 'I' for Inactive)
    1  A    between atoms: N_3  and  C_16
    2  A    between atoms: N_3  and  C_19
    3  A    between atoms: C_5  and  C_11
    4  A    between atoms: C_5  and  C_19
    5  A    between atoms: C_8  and  O_12
    6  A    between atoms: C_8  and  C_16
    7  A    between atoms: C_11  and  C_20
    8  A    between atoms: N_17  and  C_28
    9  A    between atoms: C_28  and  C_29
   10  A    between atoms: C_29  and  C_32
   11  A    between atoms: C_31  and  C_32
   12  A    between atoms: C_32  and  C_34
                            x       y       z     vdW  Elec       q    Type
                         _______ _______ _______ _____ _____    ______ ____

>  <TORSDO>
F 12

$$$$
=
 OpenBabel11122414423D

 34 37  0  0  1  0  0  0  0  0999 V2000
  160.6000  211.2080  154.8410 C   0  0  2  0  0  3  0  0  0  0  0  0
  159.4690  213.0020  153.6980 O   0  0  0  0  0  0  0  0  0  0  0  0
  161.9070  209.2940  155.8260 C   0  0  0  0  0  2  0  0  0  0  0  0
  159.7340  211.0010  152.4310 C   0  0  2  0  0  3  0  0  0  0  0  0
  161.1380  211.7100  149.7680 C   0  0  0  0  0  2  0  0  0  0  0  0
  161.0670  210.2400  152.2950 C   0  0  1  0  0  3  0  0  0  0  0  0
  158.9720  213.2320  152.4080 C   0  0  0  0  0  2  0  0  0  0  0  0
  160.8100  212.6270  150.8580 N   0  0  0  0  0  0  0  0  0  0  0  0
  160.8450  209.6900  154.8020 C   0  0  2  0  0  3  0  0  0  0  0  0
  161.2490  209.1870  153.4060 C   0  0  1  0  0  3  0  0  0  0  0  0
  161.2470  211.2360  157.2610 C   0  0  0  0  0  2  0  0  0  0  0  0
  161.9810  210.5530  150.2890 C   0  0  0  0  0  2  0  0  0  0  0  0
  161.4750  209.7280  157.2240 C   0  0  0  0  0  2  0  0  0  0  0  0
  161.1820  209.6680  151.0210 O   0  0  0  0  0  0  0  0  0  0  0  0
  159.5450  212.1760  151.4730 C   0  0  1  0  0  3  0  0  0  0  0  0
  160.1760  211.6300  156.2460 C   0  0  0  0  0  2  0  0  0  0  0  0
  159.5250  211.6060  153.8230 C   0  0  1  0  0  3  0  0  0  0  0  0
  160.5960  207.8370  153.0960 C   0  0  0  0  0  2  0  0  0  0  0  0
  161.6210  206.7230  152.9290 C   0  0  0  0  0  2  0  0  0  0  0  0
  161.9600  204.4500  151.9260 C   0  0  0  0  0  1  0  0  0  0  0  0
  161.1950  205.7710  151.8250 C   0  0  2  0  0  3  0  0  0  0  0  0
  161.3470  206.4220  150.5170 N   0  0  0  0  0  0  0  0  0  0  0  0
  162.6000  206.9310  150.4130 O   0  0  0  0  0  1  0  0  0  0  0  0
  161.1930  205.4190  149.4720 C   0  0  0  0  0  2  0  0  0  0  0  0
  160.8490  206.0870  148.1520 C   0  0  0  0  0  2  0  0  0  0  0  0
  161.2660  205.2850  147.0880 O   0  0  0  0  0  0  0  0  0  0  0  0
  162.5790  205.3630  147.1100 O   0  0  0  0  0  1  0  0  0  0  0  0
  160.6020  213.9160  150.2070 C   0  0  0  0  0  2  0  0  0  0  0  0
  161.0360  213.8330  148.7540 C   0  0  0  0  0  2  0  0  0  0  0  0
  159.9680  214.4250  147.8430 C   0  0  0  0  0  3  0  0  0  0  0  0
  160.8790  212.7350  146.3800 O   0  0  0  0  0  1  0  0  0  0  0  0
  160.0820  213.8810  146.4210 C   0  0  0  0  0  2  0  0  0  0  0  0
  158.5560  214.2600  148.4090 C   0  0  0  0  0  2  0  0  0  0  0  0
  157.7070  213.6540  147.4790 O   0  0  0  0  0  1  0  0  0  0  0  0
  1 16  1  1  0  0  0
  2 17  1  0  0  0  0
  3 13  1  0  0  0  0
  4 17  1  0  0  0  0
  5 12  1  0  0  0  0
  5  8  1  0  0  0  0
  6  4  1  0  0  0  0
  6 10  1  0  0  0  0
  7  2  1  0  0  0  0
  8 15  1  0  0  0  0
  9  1  1  0  0  0  0
  9  3  1  0  0  0  0
 10  9  1  0  0  0  0
 12 14  1  0  0  0  0
 13 11  1  0  0  0  0
 14  6  1  0  0  0  0
 15  7  1  0  0  0  0
 15  4  1  0  0  0  0
 16 11  1  0  0  0  0
 17  1  1  0  0  0  0
 18 10  1  0  0  0  0
 19 18  1  0  0  0  0
 21 20  1  0  0  0  0
 21 19  1  0  0  0  0
 22 21  1  0  0  0  0
 23 22  1  0  0  0  0
 24 22  1  0  0  0  0
 25 24  1  0  0  0  0
 26 27  1  0  0  0  0
 26 25  1  0  0  0  0
 28  8  1  0  0  0  0
 29 28  1  0  0  0  0
 30 33  1  0  0  0  0
 30 29  1  0  0  0  0
 31 32  1  0  0  0  0
 32 30  1  0  0  0  0
 34 33  1  0  0  0  0
M  END
>  <MODEL>
9

>  <REMARK>
 VINA RESULT:      -4.6      2.370      7.653
  Name = 
  12 active torsions:
  status: ('A' for Active; 'I' for Inactive)
    1  A    between atoms: N_3  and  C_16
    2  A    between atoms: N_3  and  C_19
    3  A    between atoms: C_5  and  C_11
    4  A    between atoms: C_5  and  C_19
    5  A    between atoms: C_8  and  O_12
    6  A    between atoms: C_8  and  C_16
    7  A    between atoms: C_11  and  C_20
    8  A    between atoms: N_17  and  C_28
    9  A    between atoms: C_28  and  C_29
   10  A    between atoms: C_29  and  C_32
   11  A    between atoms: C_31  and  C_32
   12  A    between atoms: C_32  and  C_34
                            x       y       z     vdW  Elec       q    Type
                         _______ _______ _______ _____ _____    ______ ____

>  <TORSDO>
F 12

$$$$
