=
 OpenBabel11122413023D

 32 37  0  0  1  0  0  0  0  0999 V2000
  161.8880  208.0630  150.6060 C   0  0  1  0  0  3  0  0  0  0  0  0
  161.7010  209.3890  154.7750 O   0  0  0  0  0  0  0  0  0  0  0  0
  161.5940  210.7030  154.2850 C   0  0  0  0  0  2  0  0  0  0  0  0
  162.2790  210.0050  148.9780 C   0  0  0  0  0  0  0  0  0  0  0  0
  162.0990  211.4540  148.6070 C   0  0  1  0  0  3  0  0  0  0  0  0
  161.3560  206.0210  149.4980 C   0  0  2  0  0  3  0  0  0  0  0  0
  161.2110  206.2390  151.9730 O   0  0  0  0  0  0  0  0  0  0  0  0
  161.2110  213.5040  149.0480 C   0  0  1  0  0  3  0  0  0  0  0  0
  161.9460  208.5600  153.6660 C   0  0  0  0  0  2  0  0  0  0  0  0
  160.8550  207.5380  151.6040 C   0  0  1  0  0  3  0  0  0  0  0  0
  160.6880  208.4810  152.7910 C   0  0  2  0  0  3  0  0  0  0  0  0
  161.2260  210.4020  151.1750 C   0  0  2  0  0  3  0  0  0  0  0  0
  160.4610  213.0210  147.8200 C   0  0  0  0  0  2  0  0  0  0  0  0
  160.9100  205.4190  150.8620 C   0  0  2  0  0  3  0  0  0  0  0  0
  161.0580  211.6620  147.5190 C   0  0  0  0  0  2  0  0  0  0  0  0
  160.2970  210.8620  153.4840 C   0  0  0  0  0  2  0  0  0  0  0  0
  160.2940  209.8910  152.2970 C   0  0  2  0  0  3  0  0  0  0  0  0
  160.7190  211.7130  150.5880 C   0  0  0  0  0  2  0  0  0  0  0  0
  162.2600  207.1120  149.6120 O   0  0  0  0  0  0  0  0  0  0  0  0
  163.0930  209.3320  148.3620 O   0  0  0  0  0  0  0  0  0  0  0  0
  160.3760  214.4330  149.9240 C   0  0  0  0  0  1  0  0  0  0  0  0
  161.3860  209.3920  150.0310 C   0  0  2  0  0  3  0  0  0  0  0  0
  161.7560  212.3300  149.7400 N   0  0  1  0  0  0  0  0  0  0  0  0
  160.8310  203.2960  152.1450 C   0  0  0  0  0  2  0  0  0  0  0  0
  161.5520  204.0580  151.0510 C   0  0  1  0  0  3  0  0  0  0  0  0
  160.5470  202.9810  150.6910 C   0  0  1  0  0  3  0  0  0  0  0  0
  161.2610  201.7740  150.3090 N   0  0  0  0  0  2  0  0  0  0  0  0
  160.7800  201.3870  148.9940 C   0  0  2  0  0  3  0  0  0  0  0  0
  161.5810  200.3660  148.4810 O   0  0  0  0  0  1  0  0  0  0  0  0
  160.8330  202.5320  148.1050 N   0  0  0  0  0  1  0  0  0  0  0  0
  160.4560  206.2040  147.2890 O   0  0  0  0  0  1  0  0  0  0  0  0
  160.1570  206.4020  148.6380 C   0  0  0  0  0  2  0  0  0  0  0  0
  1 19  1  6  0  0  0
  1 10  1  0  0  0  0
  3  2  1  0  0  0  0
  5 15  1  6  0  0  0
  5  4  1  0  0  0  0
  5 23  1  0  0  0  0
  6 32  1  1  0  0  0
  6 19  1  0  0  0  0
  6 14  1  0  0  0  0
  8 23  1  0  0  0  0
  8 21  1  1  0  0  0
  9  2  1  0  0  0  0
 10  7  1  1  0  0  0
 10 11  1  0  0  0  0
 11  9  1  6  0  0  0
 12 18  1  6  0  0  0
 12 17  1  0  0  0  0
 13  8  1  0  0  0  0
 14 25  1  0  0  0  0
 14  7  1  1  0  0  0
 15 13  1  0  0  0  0
 16  3  1  0  0  0  0
 17 11  1  0  0  0  0
 17 16  1  1  0  0  0
 20  4  2  0  0  0  0
 22  4  1  6  0  0  0
 22  1  1  0  0  0  0
 22 12  1  0  0  0  0
 23 18  1  1  0  0  0
 25 24  1  1  0  0  0
 26 27  1  1  0  0  0
 26 25  1  0  0  0  0
 26 24  1  0  0  0  0
 28 30  1  6  0  0  0
 28 27  1  0  0  0  0
 29 28  1  0  0  0  0
 31 32  1  0  0  0  0
M  END
>  <MODEL>
1

>  <REMARK>
 VINA RESULT:      -6.0      0.000      0.000
  Name = 
  4 active torsions:
  status: ('A' for Active; 'I' for Inactive)
    1  A    between atoms: C_7  and  C_19
    2  A    between atoms: C_10  and  C_17
    3  A    between atoms: C_20  and  N_29
    4  A    between atoms: N_29  and  C_30
                            x       y       z     vdW  Elec       q    Type
                         _______ _______ _______ _____ _____    ______ ____

>  <TORSDO>
F 4

$$$$
=
 OpenBabel11122413023D

 32 37  0  0  1  0  0  0  0  0999 V2000
  162.2720  207.3760  149.8300 C   0  0  1  0  0  3  0  0  0  0  0  0
  162.4040  206.1220  145.6370 O   0  0  0  0  0  0  0  0  0  0  0  0
  162.1390  204.8150  146.0860 C   0  0  0  0  0  2  0  0  0  0  0  0
  162.3330  205.3890  151.4490 C   0  0  0  0  0  0  0  0  0  0  0  0
  161.9960  203.9560  151.7700 C   0  0  1  0  0  3  0  0  0  0  0  0
  161.7990  209.4430  150.9200 C   0  0  2  0  0  3  0  0  0  0  0  0
  161.8910  209.2670  148.4400 O   0  0  0  0  0  0  0  0  0  0  0  0
  160.9920  201.9930  151.1990 C   0  0  1  0  0  3  0  0  0  0  0  0
  162.6020  206.9140  146.7820 C   0  0  0  0  0  2  0  0  0  0  0  0
  161.3930  207.9980  148.7440 C   0  0  1  0  0  3  0  0  0  0  0  0
  161.2710  207.0880  147.5270 C   0  0  2  0  0  3  0  0  0  0  0  0
  161.4800  205.1090  149.1490 C   0  0  2  0  0  3  0  0  0  0  0  0
  160.1620  202.5230  152.3550 C   0  0  0  0  0  2  0  0  0  0  0  0
  161.5470  210.0960  149.5310 C   0  0  2  0  0  3  0  0  0  0  0  0
  160.8360  203.8230  152.7420 C   0  0  0  0  0  2  0  0  0  0  0  0
  160.7580  204.7560  146.7490 C   0  0  0  0  0  2  0  0  0  0  0  0
  160.7140  205.7100  147.9490 C   0  0  2  0  0  3  0  0  0  0  0  0
  160.8090  203.8380  149.6550 C   0  0  0  0  0  2  0  0  0  0  0  0
  162.6180  208.2810  150.8760 O   0  0  0  0  0  0  0  0  0  0  0  0
  163.1320  205.9830  152.1570 O   0  0  0  0  0  0  0  0  0  0  0  0
  160.1780  201.1490  150.2240 C   0  0  0  0  0  1  0  0  0  0  0  0
  161.6050  206.0880  150.3240 C   0  0  2  0  0  3  0  0  0  0  0  0
  161.7000  203.1250  150.5910 N   0  0  1  0  0  0  0  0  0  0  0  0
  162.7420  211.6430  148.0020 C   0  0  0  0  0  2  0  0  0  0  0  0
  162.3150  211.4010  149.4360 C   0  0  1  0  0  3  0  0  0  0  0  0
  161.5400  212.3710  148.5650 C   0  0  1  0  0  3  0  0  0  0  0  0
  161.9170  213.7300  148.9170 N   0  0  0  0  0  2  0  0  0  0  0  0
  160.6930  214.4530  149.2170 C   0  0  2  0  0  3  0  0  0  0  0  0
  160.2760  214.1540  150.5150 O   0  0  0  0  0  1  0  0  0  0  0  0
  159.6590  214.0620  148.2780 N   0  0  0  0  0  1  0  0  0  0  0  0
  160.7440  208.4290  152.8130 O   0  0  0  0  0  1  0  0  0  0  0  0
  160.4920  209.1540  151.6470 C   0  0  0  0  0  2  0  0  0  0  0  0
  1 22  1  0  0  0  0
  1 19  1  1  0  0  0
  2  3  1  0  0  0  0
  2  9  1  0  0  0  0
  3 16  1  0  0  0  0
  4  5  1  0  0  0  0
  4 20  2  0  0  0  0
  5 15  1  1  0  0  0
  6 32  1  6  0  0  0
  8 21  1  6  0  0  0
  8 13  1  0  0  0  0
 10  7  1  6  0  0  0
 10  1  1  0  0  0  0
 11  9  1  1  0  0  0
 11 17  1  0  0  0  0
 11 10  1  0  0  0  0
 12 18  1  1  0  0  0
 12 22  1  0  0  0  0
 13 15  1  0  0  0  0
 14  7  1  6  0  0  0
 14  6  1  0  0  0  0
 17 16  1  6  0  0  0
 17 12  1  0  0  0  0
 19  6  1  0  0  0  0
 22  4  1  1  0  0  0
 23 18  1  6  0  0  0
 23  8  1  0  0  0  0
 23  5  1  0  0  0  0
 24 26  1  0  0  0  0
 25 24  1  6  0  0  0
 25 14  1  0  0  0  0
 26 27  1  1  0  0  0
 26 25  1  0  0  0  0
 27 28  1  0  0  0  0
 28 30  1  6  0  0  0
 28 29  1  0  0  0  0
 32 31  1  0  0  0  0
M  END
>  <MODEL>
2

>  <REMARK>
 VINA RESULT:      -5.2      1.991      8.393
  Name = 
  4 active torsions:
  status: ('A' for Active; 'I' for Inactive)
    1  A    between atoms: C_7  and  C_19
    2  A    between atoms: C_10  and  C_17
    3  A    between atoms: C_20  and  N_29
    4  A    between atoms: N_29  and  C_30
                            x       y       z     vdW  Elec       q    Type
                         _______ _______ _______ _____ _____    ______ ____

>  <TORSDO>
F 4

$$$$
=
 OpenBabel11122413023D

 32 37  0  0  1  0  0  0  0  0999 V2000
  161.5490  207.5230  152.4500 C   0  0  1  0  0  3  0  0  0  0  0  0
  161.2230  206.9670  156.7810 O   0  0  0  0  0  0  0  0  0  0  0  0
  160.8900  208.3310  156.8670 C   0  0  0  0  0  2  0  0  0  0  0  0
  161.5840  209.9980  151.7800 C   0  0  0  0  0  0  0  0  0  0  0  0
  161.1590  211.4230  152.0270 C   0  0  1  0  0  3  0  0  0  0  0  0
  161.3420  206.0620  150.5780 C   0  0  2  0  0  3  0  0  0  0  0  0
  161.2090  205.2170  152.9150 O   0  0  0  0  0  0  0  0  0  0  0  0
  159.9530  212.9410  153.2210 C   0  0  1  0  0  3  0  0  0  0  0  0
  161.5810  206.7180  155.4440 C   0  0  0  0  0  2  0  0  0  0  0  0
  160.6360  206.4780  153.0910 C   0  0  1  0  0  3  0  0  0  0  0  0
  160.3370  206.8090  154.5500 C   0  0  2  0  0  3  0  0  0  0  0  0
  160.5200  209.2830  153.8910 C   0  0  2  0  0  3  0  0  0  0  0  0
  159.2700  212.8940  151.8650 C   0  0  0  0  0  2  0  0  0  0  0  0
  161.0270  204.8910  151.5520 C   0  0  2  0  0  3  0  0  0  0  0  0
  160.0780  211.8930  151.0670 C   0  0  0  0  0  2  0  0  0  0  0  0
  159.5710  208.5990  156.1350 C   0  0  0  0  0  2  0  0  0  0  0  0
  159.7060  208.2150  154.6560 C   0  0  2  0  0  3  0  0  0  0  0  0
  159.7920  210.6210  153.8660 C   0  0  0  0  0  2  0  0  0  0  0  0
  162.0550  207.1380  151.1740 O   0  0  0  0  0  0  0  0  0  0  0  0
  162.4860  209.7770  150.9870 O   0  0  0  0  0  0  0  0  0  0  0  0
  158.9920  213.2810  154.3560 C   0  0  0  0  0  1  0  0  0  0  0  0
  160.8230  208.8740  152.4430 C   0  0  2  0  0  3  0  0  0  0  0  0
  160.6970  211.6890  153.3990 N   0  0  1  0  0  0  0  0  0  0  0  0
  161.4530  202.4890  152.0110 C   0  0  0  0  0  2  0  0  0  0  0  0
  161.8890  203.6930  151.2000 C   0  0  1  0  0  3  0  0  0  0  0  0
  161.0190  202.6240  150.5670 C   0  0  1  0  0  3  0  0  0  0  0  0
  161.8480  201.7710  149.7310 N   0  0  0  0  0  2  0  0  0  0  0  0
  161.0850  201.4710  148.5320 C   0  0  2  0  0  3  0  0  0  0  0  0
  161.5740  200.3050  147.9410 O   0  0  0  0  0  1  0  0  0  0  0  0
  161.2060  202.5720  147.5940 N   0  0  0  0  0  1  0  0  0  0  0  0
  160.0940  206.2030  148.5420 O   0  0  0  0  0  1  0  0  0  0  0  0
  160.0810  206.5690  149.8880 C   0  0  0  0  0  2  0  0  0  0  0  0
  1 19  1  6  0  0  0
  1 10  1  0  0  0  0
  2  3  1  0  0  0  0
  4  5  1  0  0  0  0
  5 15  1  6  0  0  0
  5 23  1  0  0  0  0
  6 32  1  1  0  0  0
  6 19  1  0  0  0  0
  6 14  1  0  0  0  0
  8 23  1  0  0  0  0
  8 21  1  1  0  0  0
  9  2  1  0  0  0  0
 10  7  1  1  0  0  0
 10 11  1  0  0  0  0
 11 17  1  0  0  0  0
 11  9  1  1  0  0  0
 12 18  1  6  0  0  0
 12 17  1  0  0  0  0
 13  8  1  0  0  0  0
 14  7  1  1  0  0  0
 15 13  1  0  0  0  0
 16  3  1  0  0  0  0
 17 16  1  1  0  0  0
 20  4  2  0  0  0  0
 22  4  1  1  0  0  0
 22  1  1  0  0  0  0
 22 12  1  0  0  0  0
 23 18  1  6  0  0  0
 25 14  1  0  0  0  0
 25 24  1  1  0  0  0
 26 27  1  6  0  0  0
 26 25  1  0  0  0  0
 26 24  1  0  0  0  0
 28 30  1  6  0  0  0
 28 27  1  0  0  0  0
 29 28  1  0  0  0  0
 31 32  1  0  0  0  0
M  END
>  <MODEL>
3

>  <REMARK>
 VINA RESULT:      -4.5      1.959      2.637
  Name = 
  4 active torsions:
  status: ('A' for Active; 'I' for Inactive)
    1  A    between atoms: C_7  and  C_19
    2  A    between atoms: C_10  and  C_17
    3  A    between atoms: C_20  and  N_29
    4  A    between atoms: N_29  and  C_30
                            x       y       z     vdW  Elec       q    Type
                         _______ _______ _______ _____ _____    ______ ____

>  <TORSDO>
F 4

$$$$
=
 OpenBabel11122413023D

 32 37  0  0  1  0  0  0  0  0999 V2000
  161.9440  206.4390  151.5020 C   0  0  1  0  0  3  0  0  0  0  0  0
  162.1750  208.2250  147.5110 O   0  0  0  0  0  0  0  0  0  0  0  0
  161.9460  206.9380  146.9920 C   0  0  0  0  0  2  0  0  0  0  0  0
  162.0470  203.8780  151.4370 C   0  0  0  0  0  0  0  0  0  0  0  0
  161.7530  202.5770  150.7350 C   0  0  1  0  0  3  0  0  0  0  0  0
  161.3880  207.2870  153.6600 C   0  0  2  0  0  3  0  0  0  0  0  0
  161.5210  208.7730  151.6680 O   0  0  0  0  0  0  0  0  0  0  0  0
  160.8210  201.4460  148.9920 C   0  0  1  0  0  3  0  0  0  0  0  0
  162.3310  208.0810  148.9020 C   0  0  0  0  0  2  0  0  0  0  0  0
  161.0600  207.6050  151.0570 C   0  0  1  0  0  3  0  0  0  0  0  0
  160.9850  207.7070  149.5370 C   0  0  2  0  0  3  0  0  0  0  0  0
  161.2360  205.1520  149.4830 C   0  0  2  0  0  3  0  0  0  0  0  0
  159.9590  201.0800  150.1860 C   0  0  0  0  0  2  0  0  0  0  0  0
  161.1340  208.6840  153.0240 C   0  0  2  0  0  3  0  0  0  0  0  0
  160.5840  201.8240  151.3480 C   0  0  0  0  0  2  0  0  0  0  0  0
  160.5590  206.4390  147.4120 C   0  0  0  0  0  2  0  0  0  0  0  0
  160.4670  206.3780  148.9410 C   0  0  2  0  0  3  0  0  0  0  0  0
  160.6000  203.8490  149.0170 C   0  0  0  0  0  2  0  0  0  0  0  0
  162.2450  206.4480  152.8960 O   0  0  0  0  0  0  0  0  0  0  0  0
  162.8160  203.8790  152.3860 O   0  0  0  0  0  0  0  0  0  0  0  0
  160.0480  201.4290  147.6770 C   0  0  0  0  0  1  0  0  0  0  0  0
  161.3120  205.1290  151.0160 C   0  0  2  0  0  3  0  0  0  0  0  0
  161.5010  202.7120  149.2910 N   0  0  1  0  0  0  0  0  0  0  0  0
  161.1320  211.0700  153.7070 C   0  0  0  0  0  2  0  0  0  0  0  0
  161.8610  209.7470  153.8270 C   0  0  1  0  0  3  0  0  0  0  0  0
  160.9600  210.2230  154.9500 C   0  0  1  0  0  3  0  0  0  0  0  0
  161.7810  210.7630  156.0210 N   0  0  0  0  0  2  0  0  0  0  0  0
  161.5170  209.9680  157.2090 C   0  0  2  0  0  3  0  0  0  0  0  0
  162.2950  208.8100  157.1830 O   0  0  0  0  0  1  0  0  0  0  0  0
  160.1130  209.6030  157.2420 N   0  0  0  0  0  1  0  0  0  0  0  0
  159.7510  206.7620  155.3230 O   0  0  0  0  0  1  0  0  0  0  0  0
  160.0810  206.5720  153.9810 C   0  0  0  0  0  2  0  0  0  0  0  0
  1 19  1  1  0  0  0
  2  9  1  0  0  0  0
  3 16  1  0  0  0  0
  3  2  1  0  0  0  0
  4 20  2  0  0  0  0
  5 15  1  1  0  0  0
  5  4  1  0  0  0  0
  6 32  1  6  0  0  0
  8 21  1  6  0  0  0
  8 23  1  0  0  0  0
  8 13  1  0  0  0  0
 10  1  1  0  0  0  0
 10  7  1  1  0  0  0
 11  9  1  6  0  0  0
 11 10  1  0  0  0  0
 12 18  1  1  0  0  0
 12 22  1  0  0  0  0
 13 15  1  0  0  0  0
 14  7  1  6  0  0  0
 14  6  1  0  0  0  0
 14 25  1  0  0  0  0
 17 16  1  6  0  0  0
 17 12  1  0  0  0  0
 17 11  1  0  0  0  0
 19  6  1  0  0  0  0
 22  4  1  6  0  0  0
 22  1  1  0  0  0  0
 23 18  1  1  0  0  0
 23  5  1  0  0  0  0
 24 26  1  0  0  0  0
 25 24  1  6  0  0  0
 25 26  1  0  0  0  0
 26 27  1  1  0  0  0
 27 28  1  0  0  0  0
 28 29  1  6  0  0  0
 28 30  1  0  0  0  0
 32 31  1  0  0  0  0
M  END
>  <MODEL>
4

>  <REMARK>
 VINA RESULT:      -4.3      2.772      8.017
  Name = 
  4 active torsions:
  status: ('A' for Active; 'I' for Inactive)
    1  A    between atoms: C_7  and  C_19
    2  A    between atoms: C_10  and  C_17
    3  A    between atoms: C_20  and  N_29
    4  A    between atoms: N_29  and  C_30
                            x       y       z     vdW  Elec       q    Type
                         _______ _______ _______ _____ _____    ______ ____

>  <TORSDO>
F 4

$$$$
=
 OpenBabel11122413023D

 32 37  0  0  1  0  0  0  0  0999 V2000
  160.9860  207.9490  150.2160 C   0  0  1  0  0  3  0  0  0  0  0  0
  160.5530  208.1840  154.5670 O   0  0  0  0  0  0  0  0  0  0  0  0
  160.4730  206.7800  154.5700 C   0  0  0  0  0  2  0  0  0  0  0  0
  160.4140  205.6240  149.2990 C   0  0  0  0  0  0  0  0  0  0  0  0
  160.3720  204.1270  149.4700 C   0  0  1  0  0  3  0  0  0  0  0  0
  161.9680  209.3730  148.5760 C   0  0  2  0  0  3  0  0  0  0  0  0
  161.8420  210.0340  150.9710 O   0  0  0  0  0  0  0  0  0  0  0  0
  160.8430  202.2720  150.7030 C   0  0  1  0  0  3  0  0  0  0  0  0
  160.5590  208.5880  153.2190 C   0  0  0  0  0  2  0  0  0  0  0  0
  161.9990  208.6540  151.1190 C   0  0  1  0  0  3  0  0  0  0  0  0
  161.8880  208.1840  152.5650 C   0  0  2  0  0  3  0  0  0  0  0  0
  161.1750  205.9010  151.6320 C   0  0  2  0  0  3  0  0  0  0  0  0
  161.7770  202.1820  149.5090 C   0  0  0  0  0  2  0  0  0  0  0  0
  162.3830  210.3570  149.7070 C   0  0  2  0  0  3  0  0  0  0  0  0
  161.4570  203.4100  148.6830 C   0  0  0  0  0  2  0  0  0  0  0  0
  161.7910  206.1770  154.0710 C   0  0  0  0  0  2  0  0  0  0  0  0
  162.0740  206.6510  152.6400 C   0  0  2  0  0  3  0  0  0  0  0  0
  161.4970  204.4130  151.6030 C   0  0  0  0  0  2  0  0  0  0  0  0
  160.8800  208.5240  148.9150 O   0  0  0  0  0  0  0  0  0  0  0  0
  159.7910  206.1330  148.3800 O   0  0  0  0  0  0  0  0  0  0  0  0
  161.4190  201.6150  151.9540 C   0  0  0  0  0  1  0  0  0  0  0  0
  161.3000  206.4480  150.2030 C   0  0  2  0  0  3  0  0  0  0  0  0
  160.4500  203.6750  150.8690 N   0  0  1  0  0  0  0  0  0  0  0  0
  162.9290  212.3190  148.2880 C   0  0  0  0  0  2  0  0  0  0  0  0
  161.9750  211.7690  149.3280 C   0  0  1  0  0  3  0  0  0  0  0  0
  161.5730  211.7940  147.8660 C   0  0  1  0  0  3  0  0  0  0  0  0
  160.6700  212.9100  147.6400 N   0  0  0  0  0  2  0  0  0  0  0  0
  160.6160  213.1380  146.2060 C   0  0  2  0  0  3  0  0  0  0  0  0
  160.2190  214.4510  145.9530 O   0  0  0  0  0  1  0  0  0  0  0  0
  159.6620  212.2220  145.6080 N   0  0  0  0  0  1  0  0  0  0  0  0
  162.7100  207.3690  147.5010 O   0  0  0  0  0  1  0  0  0  0  0  0
  163.1560  208.5570  148.0810 C   0  0  0  0  0  2  0  0  0  0  0  0
  1 19  1  6  0  0  0
  1 10  1  0  0  0  0
  2  3  1  0  0  0  0
  4  5  1  0  0  0  0
  5 15  1  6  0  0  0
  5 23  1  0  0  0  0
  6 32  1  1  0  0  0
  6 19  1  0  0  0  0
  6 14  1  0  0  0  0
  8 23  1  0  0  0  0
  8 21  1  1  0  0  0
  9  2  1  0  0  0  0
 10  7  1  1  0  0  0
 10 11  1  0  0  0  0
 11 17  1  0  0  0  0
 11  9  1  6  0  0  0
 12 18  1  6  0  0  0
 12 17  1  0  0  0  0
 13  8  1  0  0  0  0
 14  7  1  1  0  0  0
 15 13  1  0  0  0  0
 16  3  1  0  0  0  0
 17 16  1  1  0  0  0
 20  4  2  0  0  0  0
 22  4  1  6  0  0  0
 22  1  1  0  0  0  0
 22 12  1  0  0  0  0
 23 18  1  1  0  0  0
 25 24  1  6  0  0  0
 25 14  1  0  0  0  0
 26 27  1  1  0  0  0
 26 24  1  0  0  0  0
 26 25  1  0  0  0  0
 28 30  1  6  0  0  0
 28 27  1  0  0  0  0
 29 28  1  0  0  0  0
 31 32  1  0  0  0  0
M  END
>  <MODEL>
5

>  <REMARK>
 VINA RESULT:      -3.5      2.089      7.364
  Name = 
  4 active torsions:
  status: ('A' for Active; 'I' for Inactive)
    1  A    between atoms: C_7  and  C_19
    2  A    between atoms: C_10  and  C_17
    3  A    between atoms: C_20  and  N_29
    4  A    between atoms: N_29  and  C_30
                            x       y       z     vdW  Elec       q    Type
                         _______ _______ _______ _____ _____    ______ ____

>  <TORSDO>
F 4

$$$$
