=
 OpenBabel11122412333D

 30 35  0  0  1  0  0  0  0  0999 V2000
  161.4230  206.1480  149.8820 C   0  0  1  0  0  3  0  0  0  0  0  0
  161.1230  203.6200  149.6230 C   0  0  0  0  0  0  0  0  0  0  0  0
  160.9870  205.7660  154.1860 C   0  0  0  0  0  2  0  0  0  0  0  0
  161.8220  207.2320  150.9080 C   0  0  1  0  0  3  0  0  0  0  0  0
  162.2920  206.2130  148.7760 O   0  0  0  0  0  0  0  0  0  0  0  0
  162.0300  209.7530  148.2830 O   0  0  0  0  0  0  0  0  0  0  0  0
  160.5460  210.0620  151.8290 C   0  0  1  0  0  3  0  0  0  0  0  0
  161.9220  208.6330  148.8520 C   0  0  0  0  0  0  0  0  0  0  0  0
  160.3790  209.3290  153.1360 C   0  0  2  0  0  3  0  0  0  0  0  0
  160.9610  207.2350  154.4060 C   0  0  0  0  0  0  0  0  0  0  0  0
  161.9690  207.3720  148.0200 C   0  0  2  0  0  3  0  0  0  0  0  0
  161.7250  208.5510  150.2770 N   0  0  0  0  0  0  0  0  0  0  0  0
  160.9120  202.3540  150.1770 C   0  0  0  0  0  3  0  0  0  0  0  0
  160.9650  210.3000  154.1320 C   0  0  0  0  0  2  0  0  0  0  0  0
  160.5390  211.5120  152.2630 C   0  0  0  0  0  2  0  0  0  0  0  0
  161.1480  203.7540  148.2410 O   0  0  0  0  0  1  0  0  0  0  0  0
  161.4460  205.7470  152.7470 C   0  0  2  0  0  3  0  0  0  0  0  0
  160.8540  202.1870  151.5610 C   0  0  0  0  0  3  0  0  0  0  0  0
  161.2980  204.7400  150.4620 C   0  0  0  0  0  0  0  0  0  0  0  0
  160.9280  207.0310  152.1270 C   0  0  1  0  0  3  0  0  0  0  0  0
  160.8370  207.7470  155.5500 O   0  0  0  0  0  0  0  0  0  0  0  0
  161.0220  208.0110  153.2030 N   0  0  0  0  0  0  0  0  0  0  0  0
  160.7700  211.6070  153.6510 O   0  0  0  0  0  0  0  0  0  0  0  0
  162.9680  209.7400  151.8850 O   0  0  0  0  0  1  0  0  0  0  0  0
  160.9970  203.2880  152.4050 C   0  0  0  0  0  3  0  0  0  0  0  0
  161.1840  204.5640  151.8660 C   0  0  0  0  0  0  0  0  0  0  0  0
  161.8380  209.7750  151.0610 C   0  0  2  0  0  3  0  0  0  0  0  0
  160.7120  207.1960  147.2240 C   0  0  0  0  0  3  0  0  0  0  0  0
  160.6420  205.6060  145.2430 O   0  0  0  0  0  0  0  0  0  0  0  0
  160.6760  206.3790  146.2070 C   0  0  0  0  0  0  0  0  0  0  0  0
  1  5  1  6  0  0  0
  1 19  1  0  0  0  0
  1  4  1  0  0  0  0
  2 13  2  0  0  0  0
  2 19  1  0  0  0  0
  3 10  1  0  0  0  0
  4 12  1  6  0  0  0
  4 20  1  0  0  0  0
  6  8  2  0  0  0  0
  7 15  1  1  0  0  0
  7  9  1  0  0  0  0
  8 12  1  0  0  0  0
  9 22  1  0  0  0  0
  9 14  1  1  0  0  0
 10 21  2  0  0  0  0
 11 28  1  1  0  0  0
 11  5  1  0  0  0  0
 11  8  1  0  0  0  0
 12 27  1  0  0  0  0
 13 18  1  0  0  0  0
 15 23  1  0  0  0  0
 16  2  1  0  0  0  0
 17  3  1  1  0  0  0
 18 25  2  0  0  0  0
 19 26  2  0  0  0  0
 20 17  1  0  0  0  0
 20 22  1  1  0  0  0
 22 10  1  0  0  0  0
 23 14  1  0  0  0  0
 26 25  1  0  0  0  0
 26 17  1  0  0  0  0
 27  7  1  0  0  0  0
 27 24  1  1  0  0  0
 29 30  2  0  0  0  0
 30 28  2  0  0  0  0
M  END
>  <MODEL>
1

>  <REMARK>
 VINA RESULT:     -10.2      0.000      0.000
  Name = 
  1 active torsions:
  status: ('A' for Active; 'I' for Inactive)
    1  A    between atoms: C_11  and  C_28
                            x       y       z     vdW  Elec       q    Type
                         _______ _______ _______ _____ _____    ______ ____

>  <TORSDO>
F 1

$$$$
=
 OpenBabel11122412333D

 30 35  0  0  1  0  0  0  0  0999 V2000
  161.4980  204.8100  148.3780 C   0  0  1  0  0  3  0  0  0  0  0  0
  161.0940  202.4230  147.5500 C   0  0  0  0  0  0  0  0  0  0  0  0
  161.0400  203.4690  152.4840 C   0  0  0  0  0  2  0  0  0  0  0  0
  161.9390  205.6130  149.6220 C   0  0  1  0  0  3  0  0  0  0  0  0
  162.3700  205.0910  147.3100 O   0  0  0  0  0  0  0  0  0  0  0  0
  162.2540  208.6580  147.6420 O   0  0  0  0  0  0  0  0  0  0  0  0
  160.7780  208.2050  151.1770 C   0  0  1  0  0  3  0  0  0  0  0  0
  162.0990  207.4420  147.9400 C   0  0  0  0  0  0  0  0  0  0  0  0
  160.5800  207.2010  152.2820 C   0  0  2  0  0  3  0  0  0  0  0  0
  161.0740  204.8490  153.0350 C   0  0  0  0  0  0  0  0  0  0  0  0
  162.0960  206.4040  146.8410 C   0  0  2  0  0  3  0  0  0  0  0  0
  161.8970  207.0440  149.3100 N   0  0  0  0  0  0  0  0  0  0  0  0
  160.8310  201.0730  147.8010 C   0  0  0  0  0  3  0  0  0  0  0  0
  161.2040  207.8930  153.4690 C   0  0  0  0  0  2  0  0  0  0  0  0
  160.8300  209.5170  151.9310 C   0  0  0  0  0  2  0  0  0  0  0  0
  161.1270  202.8680  146.2350 O   0  0  0  0  0  1  0  0  0  0  0  0
  161.5000  203.7630  151.0750 C   0  0  2  0  0  3  0  0  0  0  0  0
  160.7640  200.5950  149.1100 C   0  0  0  0  0  3  0  0  0  0  0  0
  161.3140  203.3120  148.6220 C   0  0  0  0  0  0  0  0  0  0  0  0
  161.0360  205.1740  150.7690 C   0  0  1  0  0  3  0  0  0  0  0  0
  160.9690  205.0900  154.2660 O   0  0  0  0  0  0  0  0  0  0  0  0
  161.1680  205.8770  152.0410 N   0  0  0  0  0  0  0  0  0  0  0  0
  161.0630  209.2820  153.3020 O   0  0  0  0  0  0  0  0  0  0  0  0
  163.1860  207.7820  151.1380 O   0  0  0  0  0  1  0  0  0  0  0  0
  160.9500  201.4670  150.1830 C   0  0  0  0  0  3  0  0  0  0  0  0
  161.1910  202.8250  149.9480 C   0  0  0  0  0  0  0  0  0  0  0  0
  162.0590  208.0500  150.3530 C   0  0  2  0  0  3  0  0  0  0  0  0
  160.8340  206.4660  146.0370 C   0  0  0  0  0  3  0  0  0  0  0  0
  160.6260  205.1890  143.8490 O   0  0  0  0  0  0  0  0  0  0  0  0
  160.7270  205.8110  144.9140 C   0  0  0  0  0  0  0  0  0  0  0  0
  1  5  1  6  0  0  0
  1 19  1  0  0  0  0
  1  4  1  0  0  0  0
  2 13  2  0  0  0  0
  2 19  1  0  0  0  0
  3 10  1  0  0  0  0
  4 12  1  6  0  0  0
  4 20  1  0  0  0  0
  6  8  2  0  0  0  0
  7 15  1  1  0  0  0
  7  9  1  0  0  0  0
  8 12  1  0  0  0  0
  9 14  1  1  0  0  0
 10 21  2  0  0  0  0
 11 28  1  1  0  0  0
 11  5  1  0  0  0  0
 11  8  1  0  0  0  0
 12 27  1  0  0  0  0
 13 18  1  0  0  0  0
 15 23  1  0  0  0  0
 16  2  1  0  0  0  0
 17  3  1  1  0  0  0
 18 25  2  0  0  0  0
 19 26  2  0  0  0  0
 20 17  1  0  0  0  0
 20 22  1  1  0  0  0
 22  9  1  0  0  0  0
 22 10  1  0  0  0  0
 23 14  1  0  0  0  0
 26 25  1  0  0  0  0
 26 17  1  0  0  0  0
 27 24  1  1  0  0  0
 27  7  1  0  0  0  0
 29 30  2  0  0  0  0
 30 28  2  0  0  0  0
M  END
>  <MODEL>
2

>  <REMARK>
 VINA RESULT:      -8.4      1.587      2.235
  Name = 
  1 active torsions:
  status: ('A' for Active; 'I' for Inactive)
    1  A    between atoms: C_11  and  C_28
                            x       y       z     vdW  Elec       q    Type
                         _______ _______ _______ _____ _____    ______ ____

>  <TORSDO>
F 1

$$$$
