=
 OpenBabel11122412443D

 30 35  0  0  1  0  0  0  0  0999 V2000
  160.3910  211.8880  152.5690 C   0  0  0  0  0  0  0  0  0  0  0  0
  160.4400  212.5810  150.0790 C   0  0  0  0  0  0  0  0  0  0  0  0
  161.4120  208.3550  151.6520 N   0  0  0  0  0  2  0  0  0  0  0  0
  160.8670  211.1570  153.5960 C   0  0  0  0  0  0  0  0  0  0  0  0
  159.4890  212.9300  152.8310 O   0  0  0  0  0  0  0  0  0  0  0  0
  159.0460  212.7070  156.3420 O   0  0  0  0  0  0  0  0  0  0  0  0
  160.5460  209.5570  156.3420 C   0  0  1  0  0  3  0  0  0  0  0  0
  159.4380  212.4380  155.1750 C   0  0  0  0  0  0  0  0  0  0  0  0
  160.2250  208.7130  155.1050 C   0  0  2  0  0  3  0  0  0  0  0  0
  161.0560  207.7860  152.8930 C   0  0  0  0  0  0  0  0  0  0  0  0
  158.6820  212.9830  154.0080 C   0  0  2  0  0  3  0  0  0  0  0  0
  160.5650  211.5660  154.9460 N   0  0  0  0  0  0  0  0  0  0  0  0
  161.0940  212.4990  148.8470 O   0  0  0  0  0  0  0  0  0  0  0  0
  159.9970  207.3350  155.7100 C   0  0  0  0  0  2  0  0  0  0  0  0
  161.3430  208.6560  157.2610 C   0  0  0  0  0  2  0  0  0  0  0  0
  159.5110  213.4180  150.2300 O   0  0  0  0  0  0  0  0  0  0  0  0
  162.0740  209.6210  151.8940 C   0  0  0  0  0  0  0  0  0  0  0  0
  162.2640  211.7020  148.6990 C   0  0  0  0  0  2  0  0  0  0  0  0
  160.8340  211.6550  151.1730 C   0  0  0  0  0  0  0  0  0  0  0  0
  161.8130  209.9830  153.3760 C   0  0  0  0  0  0  0  0  0  0  0  0
  160.5740  206.6270  152.9790 O   0  0  0  0  0  0  0  0  0  0  0  0
  161.3780  208.6510  154.0610 C   0  0  1  0  0  3  0  0  0  0  0  0
  160.8620  207.2480  156.9580 C   0  0  0  0  0  2  0  0  0  0  0  0
  161.4920  211.7320  157.2600 C   0  0  0  0  0  1  0  0  0  0  0  0
  162.0850  210.3850  149.4460 C   0  0  0  0  0  2  0  0  0  0  0  0
  161.6590  210.6340  150.8710 C   0  0  0  0  0  0  0  0  0  0  0  0
  161.2610  210.8640  156.0290 C   0  0  1  0  0  3  0  0  0  0  0  0
  157.4130  212.1700  153.8030 C   0  0  0  0  0  2  0  0  0  0  0  0
  155.7700  212.4520  155.4830 F   0  0  0  0  0  0  0  0  0  0  0  0
  156.2060  212.9580  154.2740 C   0  0  0  0  0  2  0  0  0  0  0  0
  1  5  1  0  0  0  0
  1  4  1  0  0  0  0
  2 16  2  0  0  0  0
  2 19  1  0  0  0  0
  3 17  1  0  0  0  0
  3 10  1  0  0  0  0
  4 12  1  0  0  0  0
  5 11  1  0  0  0  0
  7 15  1  1  0  0  0
  8  6  2  0  0  0  0
  9 14  1  1  0  0  0
  9  7  1  0  0  0  0
 10 21  2  0  0  0  0
 11 28  1  6  0  0  0
 11  8  1  0  0  0  0
 12  8  1  0  0  0  0
 12 27  1  0  0  0  0
 13  2  1  0  0  0  0
 14 23  1  0  0  0  0
 17 20  1  0  0  0  0
 18 13  1  0  0  0  0
 18 25  1  0  0  0  0
 19  1  2  0  0  0  0
 20  4  2  0  0  0  0
 20 22  1  0  0  0  0
 22 10  1  6  0  0  0
 22  9  1  0  0  0  0
 23 15  1  0  0  0  0
 25 26  1  0  0  0  0
 26 19  1  0  0  0  0
 26 17  2  0  0  0  0
 27  7  1  0  0  0  0
 27 24  1  1  0  0  0
 28 30  1  0  0  0  0
 30 29  1  0  0  0  0
M  END
>  <MODEL>
1

>  <REMARK>
 VINA RESULT:      -6.0      0.000      0.000
  Name = 
  2 active torsions:
  status: ('A' for Active; 'I' for Inactive)
    1  A    between atoms: C_11  and  C_28
    2  A    between atoms: C_28  and  C_30
                            x       y       z     vdW  Elec       q    Type
                         _______ _______ _______ _____ _____    ______ ____

>  <TORSDO>
F 2

$$$$
=
 OpenBabel11122412443D

 30 35  0  0  1  0  0  0  0  0999 V2000
  160.8350  211.7460  151.3210 C   0  0  0  0  0  0  0  0  0  0  0  0
  160.3910  211.0710  153.7760 C   0  0  0  0  0  0  0  0  0  0  0  0
  157.3970  213.3250  151.0850 N   0  0  0  0  0  2  0  0  0  0  0  0
  160.6780  212.5980  150.2880 C   0  0  0  0  0  0  0  0  0  0  0  0
  161.7760  210.7100  151.2160 O   0  0  0  0  0  0  0  0  0  0  0  0
  163.0330  211.1330  147.9280 O   0  0  0  0  0  0  0  0  0  0  0  0
  160.3880  213.2830  147.1810 C   0  0  1  0  0  3  0  0  0  0  0  0
  162.3360  211.3040  148.9630 C   0  0  0  0  0  0  0  0  0  0  0  0
  159.0640  212.8960  147.8450 C   0  0  2  0  0  3  0  0  0  0  0  0
  157.3800  213.4000  149.6770 C   0  0  0  0  0  0  0  0  0  0  0  0
  162.2340  210.1990  149.9640 C   0  0  2  0  0  3  0  0  0  0  0  0
  161.5890  212.5200  149.1720 N   0  0  0  0  0  0  0  0  0  0  0  0
  159.8650  211.4320  155.0190 O   0  0  0  0  0  0  0  0  0  0  0  0
  158.0630  213.1350  146.7240 C   0  0  0  0  0  2  0  0  0  0  0  0
  160.0690  214.4530  146.2750 C   0  0  0  0  0  2  0  0  0  0  0  0
  161.0960  210.0320  153.6830 O   0  0  0  0  0  0  0  0  0  0  0  0
  158.7120  213.7130  151.5540 C   0  0  0  0  0  0  0  0  0  0  0  0
  159.2250  212.6910  155.1980 C   0  0  0  0  0  2  0  0  0  0  0  0
  160.0790  211.9060  152.5860 C   0  0  0  0  0  0  0  0  0  0  0  0
  159.6430  213.7150  150.3190 C   0  0  0  0  0  0  0  0  0  0  0  0
  156.3230  213.2310  149.0160 O   0  0  0  0  0  0  0  0  0  0  0  0
  158.6940  213.7670  149.0820 C   0  0  1  0  0  3  0  0  0  0  0  0
  158.6230  214.2560  145.8590 C   0  0  0  0  0  2  0  0  0  0  0  0
  162.8410  213.8800  147.4900 C   0  0  0  0  0  1  0  0  0  0  0  0
  158.3460  212.9950  153.9900 C   0  0  0  0  0  2  0  0  0  0  0  0
  159.1310  212.8540  152.7100 C   0  0  0  0  0  0  0  0  0  0  0  0
  161.5080  213.5860  148.1670 C   0  0  1  0  0  3  0  0  0  0  0  0
  161.2690  209.1400  149.4520 C   0  0  0  0  0  2  0  0  0  0  0  0
  162.8390  207.8790  148.2080 F   0  0  0  0  0  0  0  0  0  0  0  0
  161.9860  207.8130  149.2930 C   0  0  0  0  0  2  0  0  0  0  0  0
  1 19  1  0  0  0  0
  2 13  1  0  0  0  0
  3 17  1  0  0  0  0
  4 20  1  0  0  0  0
  4  1  2  0  0  0  0
  5  1  1  0  0  0  0
  6  8  2  0  0  0  0
  7 15  1  1  0  0  0
  7  9  1  0  0  0  0
  7 27  1  0  0  0  0
  8 12  1  0  0  0  0
  8 11  1  0  0  0  0
  9 14  1  6  0  0  0
  9 22  1  0  0  0  0
 10  3  1  0  0  0  0
 11 28  1  6  0  0  0
 11  5  1  0  0  0  0
 12  4  1  0  0  0  0
 13 18  1  0  0  0  0
 16  2  2  0  0  0  0
 17 26  1  0  0  0  0
 19 26  2  0  0  0  0
 19  2  1  0  0  0  0
 20 17  2  0  0  0  0
 21 10  2  0  0  0  0
 22 10  1  1  0  0  0
 22 20  1  0  0  0  0
 23 15  1  0  0  0  0
 23 14  1  0  0  0  0
 25 18  1  0  0  0  0
 26 25  1  0  0  0  0
 27 24  1  6  0  0  0
 27 12  1  0  0  0  0
 29 30  1  0  0  0  0
 30 28  1  0  0  0  0
M  END
>  <MODEL>
2

>  <REMARK>
 VINA RESULT:      -4.2      3.399      7.665
  Name = 
  2 active torsions:
  status: ('A' for Active; 'I' for Inactive)
    1  A    between atoms: C_11  and  C_28
    2  A    between atoms: C_28  and  C_30
                            x       y       z     vdW  Elec       q    Type
                         _______ _______ _______ _____ _____    ______ ____

>  <TORSDO>
F 2

$$$$
=
 OpenBabel11122412443D

 30 35  0  0  1  0  0  0  0  0999 V2000
  161.2270  212.9470  139.4330 C   0  0  0  0  0  0  0  0  0  0  0  0
  163.2910  212.8240  137.8810 C   0  0  0  0  0  0  0  0  0  0  0  0
  163.4590  213.6220  142.4210 N   0  0  0  0  0  2  0  0  0  0  0  0
  160.5910  213.4590  140.5050 C   0  0  0  0  0  0  0  0  0  0  0  0
  160.5110  212.1510  138.5270 O   0  0  0  0  0  0  0  0  0  0  0  0
  157.2890  212.0080  140.0010 O   0  0  0  0  0  0  0  0  0  0  0  0
  158.5870  213.2690  142.9850 C   0  0  1  0  0  3  0  0  0  0  0  0
  158.5100  212.2740  139.8400 C   0  0  0  0  0  0  0  0  0  0  0  0
  160.0000  212.7790  143.3070 C   0  0  2  0  0  3  0  0  0  0  0  0
  162.4750  213.3380  143.3900 C   0  0  0  0  0  0  0  0  0  0  0  0
  159.3130  211.4590  138.8800 C   0  0  2  0  0  3  0  0  0  0  0  0
  159.1600  213.3090  140.6070 N   0  0  0  0  0  0  0  0  0  0  0  0
  164.5340  213.3570  137.5300 O   0  0  0  0  0  0  0  0  0  0  0  0
  159.9110  212.5050  144.8010 C   0  0  0  0  0  2  0  0  0  0  0  0
  158.1470  214.0780  144.1870 C   0  0  0  0  0  2  0  0  0  0  0  0
  162.7480  211.9750  137.1250 O   0  0  0  0  0  0  0  0  0  0  0  0
  162.8520  214.3930  141.3550 C   0  0  0  0  0  0  0  0  0  0  0  0
  165.0850  214.4480  138.2590 C   0  0  0  0  0  2  0  0  0  0  0  0
  162.6530  213.2460  139.1550 C   0  0  0  0  0  0  0  0  0  0  0  0
  161.3210  214.2930  141.5500 C   0  0  0  0  0  0  0  0  0  0  0  0
  162.7590  212.7820  144.4830 O   0  0  0  0  0  0  0  0  0  0  0  0
  161.1170  213.8260  143.0240 C   0  0  1  0  0  3  0  0  0  0  0  0
  158.8800  213.4700  145.3690 C   0  0  0  0  0  2  0  0  0  0  0  0
  157.0570  214.4500  141.3300 C   0  0  0  0  0  1  0  0  0  0  0  0
  164.8480  214.2410  139.7500 C   0  0  0  0  0  2  0  0  0  0  0  0
  163.3910  213.9630  140.0240 C   0  0  0  0  0  0  0  0  0  0  0  0
  158.4840  214.0470  141.6800 C   0  0  1  0  0  3  0  0  0  0  0  0
  159.6550  210.1200  139.5160 C   0  0  0  0  0  2  0  0  0  0  0  0
  161.9660  209.6610  139.7350 F   0  0  0  0  0  0  0  0  0  0  0  0
  160.8960  209.5360  138.8700 C   0  0  0  0  0  2  0  0  0  0  0  0
  1  4  1  0  0  0  0
  2 19  1  0  0  0  0
  3 10  1  0  0  0  0
  4 12  1  0  0  0  0
  4 20  2  0  0  0  0
  5 11  1  0  0  0  0
  5  1  1  0  0  0  0
  7  9  1  0  0  0  0
  7 15  1  1  0  0  0
  8  6  2  0  0  0  0
  8 12  1  0  0  0  0
  9 14  1  1  0  0  0
 10 21  2  0  0  0  0
 11 28  1  1  0  0  0
 11  8  1  0  0  0  0
 12 27  1  0  0  0  0
 13  2  1  0  0  0  0
 13 18  1  0  0  0  0
 14 23  1  0  0  0  0
 15 23  1  0  0  0  0
 16  2  2  0  0  0  0
 17 20  1  0  0  0  0
 17  3  1  0  0  0  0
 18 25  1  0  0  0  0
 19  1  2  0  0  0  0
 19 26  1  0  0  0  0
 22 20  1  6  0  0  0
 22  9  1  0  0  0  0
 22 10  1  0  0  0  0
 25 26  1  0  0  0  0
 26 17  2  0  0  0  0
 27 24  1  6  0  0  0
 27  7  1  0  0  0  0
 30 28  1  0  0  0  0
 30 29  1  0  0  0  0
M  END
>  <MODEL>
3

>  <REMARK>
 VINA RESULT:      -3.9      9.987     13.511
  Name = 
  2 active torsions:
  status: ('A' for Active; 'I' for Inactive)
    1  A    between atoms: C_11  and  C_28
    2  A    between atoms: C_28  and  C_30
                            x       y       z     vdW  Elec       q    Type
                         _______ _______ _______ _____ _____    ______ ____

>  <TORSDO>
F 2

$$$$
=
 OpenBabel11122412443D

 30 35  0  0  1  0  0  0  0  0999 V2000
  159.9220  212.4300  153.3920 C   0  0  0  0  0  0  0  0  0  0  0  0
  159.7430  212.1500  155.9550 C   0  0  0  0  0  0  0  0  0  0  0  0
  156.4860  214.0260  153.2820 N   0  0  0  0  0  2  0  0  0  0  0  0
  159.6570  213.1160  152.2620 C   0  0  0  0  0  0  0  0  0  0  0  0
  160.8410  211.3710  153.3500 O   0  0  0  0  0  0  0  0  0  0  0  0
  161.7360  211.2570  149.9200 O   0  0  0  0  0  0  0  0  0  0  0  0
  159.0350  213.3220  149.1360 C   0  0  1  0  0  3  0  0  0  0  0  0
  161.1560  211.6000  150.9850 C   0  0  0  0  0  0  0  0  0  0  0  0
  157.7890  213.0700  149.9880 C   0  0  2  0  0  3  0  0  0  0  0  0
  156.3160  213.8840  151.8890 C   0  0  0  0  0  0  0  0  0  0  0  0
  161.1580  210.6640  152.1500 C   0  0  2  0  0  3  0  0  0  0  0  0
  160.4410  212.8490  151.0810 N   0  0  0  0  0  0  0  0  0  0  0  0
  159.3570  212.7080  157.1770 O   0  0  0  0  0  0  0  0  0  0  0  0
  156.6740  213.1550  148.9560 C   0  0  0  0  0  2  0  0  0  0  0  0
  158.6250  214.3460  148.0980 C   0  0  0  0  0  2  0  0  0  0  0  0
  160.4300  211.0940  155.9490 O   0  0  0  0  0  0  0  0  0  0  0  0
  157.8450  214.4530  153.5430 C   0  0  0  0  0  0  0  0  0  0  0  0
  158.7450  213.9930  157.2240 C   0  0  0  0  0  2  0  0  0  0  0  0
  159.3080  212.7980  154.6900 C   0  0  0  0  0  0  0  0  0  0  0  0
  158.6360  214.2460  152.2290 C   0  0  0  0  0  0  0  0  0  0  0  0
  155.1930  213.6380  151.3780 O   0  0  0  0  0  0  0  0  0  0  0  0
  157.5600  214.1280  151.1080 C   0  0  1  0  0  3  0  0  0  0  0  0
  157.1420  214.1170  147.8740 C   0  0  0  0  0  2  0  0  0  0  0  0
  161.5100  213.9080  149.0860 C   0  0  0  0  0  1  0  0  0  0  0  0
  157.7420  214.1260  156.0850 C   0  0  0  0  0  2  0  0  0  0  0  0
  158.3830  213.7740  154.7660 C   0  0  0  0  0  0  0  0  0  0  0  0
  160.2570  213.7490  149.9380 C   0  0  1  0  0  3  0  0  0  0  0  0
  160.1400  209.5590  151.9140 C   0  0  0  0  0  2  0  0  0  0  0  0
  160.5080  207.4980  150.8110 F   0  0  0  0  0  0  0  0  0  0  0  0
  160.8180  208.2040  151.9580 C   0  0  0  0  0  2  0  0  0  0  0  0
  1 19  1  0  0  0  0
  2 13  1  0  0  0  0
  3 17  1  0  0  0  0
  4  1  2  0  0  0  0
  5  1  1  0  0  0  0
  6  8  2  0  0  0  0
  7 15  1  6  0  0  0
  7 27  1  0  0  0  0
  7  9  1  0  0  0  0
  8 12  1  0  0  0  0
  8 11  1  0  0  0  0
  9 14  1  6  0  0  0
  9 22  1  0  0  0  0
 10  3  1  0  0  0  0
 11 28  1  6  0  0  0
 11  5  1  0  0  0  0
 12  4  1  0  0  0  0
 13 18  1  0  0  0  0
 16  2  2  0  0  0  0
 17 26  1  0  0  0  0
 19 26  2  0  0  0  0
 19  2  1  0  0  0  0
 20  4  1  0  0  0  0
 20 17  2  0  0  0  0
 21 10  2  0  0  0  0
 22 10  1  1  0  0  0
 22 20  1  0  0  0  0
 23 15  1  0  0  0  0
 23 14  1  0  0  0  0
 25 18  1  0  0  0  0
 26 25  1  0  0  0  0
 27 24  1  6  0  0  0
 27 12  1  0  0  0  0
 28 30  1  0  0  0  0
 29 30  1  0  0  0  0
M  END
>  <MODEL>
4

>  <REMARK>
 VINA RESULT:      -3.3      3.005      7.165
  Name = 
  2 active torsions:
  status: ('A' for Active; 'I' for Inactive)
    1  A    between atoms: C_11  and  C_28
    2  A    between atoms: C_28  and  C_30
                            x       y       z     vdW  Elec       q    Type
                         _______ _______ _______ _____ _____    ______ ____

>  <TORSDO>
F 2

$$$$
=
 OpenBabel11122412443D

 30 35  0  0  1  0  0  0  0  0999 V2000
  160.1040  209.7610  155.1310 C   0  0  0  0  0  0  0  0  0  0  0  0
  161.4920  207.6310  155.5990 C   0  0  0  0  0  0  0  0  0  0  0  0
  161.2940  209.8000  151.5330 N   0  0  0  0  0  2  0  0  0  0  0  0
  159.3640  210.5240  154.3030 C   0  0  0  0  0  0  0  0  0  0  0  0
  160.1520  210.0800  156.4970 O   0  0  0  0  0  0  0  0  0  0  0  0
  158.1730  213.0180  156.6750 O   0  0  0  0  0  0  0  0  0  0  0  0
  158.3020  213.3280  153.2020 C   0  0  1  0  0  3  0  0  0  0  0  0
  158.7920  212.0300  156.1960 C   0  0  0  0  0  0  0  0  0  0  0  0
  159.6360  212.8990  152.5860 C   0  0  2  0  0  3  0  0  0  0  0  0
  160.8980  211.1290  151.2750 C   0  0  0  0  0  0  0  0  0  0  0  0
  159.8750  211.3880  156.9990 C   0  0  2  0  0  3  0  0  0  0  0  0
  158.5150  211.5460  154.8650 N   0  0  0  0  0  0  0  0  0  0  0  0
  161.9170  206.3790  155.1470 O   0  0  0  0  0  0  0  0  0  0  0  0
  159.8680  213.9800  151.5410 C   0  0  0  0  0  2  0  0  0  0  0  0
  157.4830  213.8930  152.0600 C   0  0  0  0  0  2  0  0  0  0  0  0
  161.7050  207.9590  156.7970 O   0  0  0  0  0  0  0  0  0  0  0  0
  160.2520  209.1460  152.2980 C   0  0  0  0  0  0  0  0  0  0  0  0
  161.5300  205.9050  153.8610 C   0  0  0  0  0  2  0  0  0  0  0  0
  160.8290  208.5610  154.6480 C   0  0  0  0  0  0  0  0  0  0  0  0
  159.3050  210.2590  152.8040 C   0  0  0  0  0  0  0  0  0  0  0  0
  161.5650  211.8870  150.5240 O   0  0  0  0  0  0  0  0  0  0  0  0
  159.6010  211.4990  151.9060 C   0  0  1  0  0  3  0  0  0  0  0  0
  158.4970  214.4530  151.0800 C   0  0  0  0  0  2  0  0  0  0  0  0
  156.3010  212.6840  154.6350 C   0  0  0  0  0  1  0  0  0  0  0  0
  161.6130  207.0410  152.8490 C   0  0  0  0  0  2  0  0  0  0  0  0
  160.8510  208.2470  153.3390 C   0  0  0  0  0  0  0  0  0  0  0  0
  157.5820  212.2170  153.9530 C   0  0  1  0  0  3  0  0  0  0  0  0
  161.1300  212.2460  156.9340 C   0  0  0  0  0  2  0  0  0  0  0  0
  162.9760  211.0470  156.0650 F   0  0  0  0  0  0  0  0  0  0  0  0
  162.3530  211.4070  157.2450 C   0  0  0  0  0  2  0  0  0  0  0  0
  1  5  1  0  0  0  0
  2 16  2  0  0  0  0
  3 17  1  0  0  0  0
  4 12  1  0  0  0  0
  4  1  2  0  0  0  0
  5 11  1  0  0  0  0
  7 15  1  6  0  0  0
  7 27  1  0  0  0  0
  8  6  2  0  0  0  0
  8 11  1  0  0  0  0
  9 14  1  6  0  0  0
  9  7  1  0  0  0  0
 10  3  1  0  0  0  0
 11 28  1  6  0  0  0
 12  8  1  0  0  0  0
 13  2  1  0  0  0  0
 17 20  2  0  0  0  0
 17 26  1  0  0  0  0
 18 13  1  0  0  0  0
 19  1  1  0  0  0  0
 19  2  1  0  0  0  0
 20  4  1  0  0  0  0
 21 10  2  0  0  0  0
 22 10  1  1  0  0  0
 22  9  1  0  0  0  0
 22 20  1  0  0  0  0
 23 14  1  0  0  0  0
 23 15  1  0  0  0  0
 25 26  1  0  0  0  0
 25 18  1  0  0  0  0
 26 19  2  0  0  0  0
 27 24  1  1  0  0  0
 27 12  1  0  0  0  0
 28 30  1  0  0  0  0
 29 30  1  0  0  0  0
M  END
>  <MODEL>
5

>  <REMARK>
 VINA RESULT:      -3.2      2.206      5.538
  Name = 
  2 active torsions:
  status: ('A' for Active; 'I' for Inactive)
    1  A    between atoms: C_11  and  C_28
    2  A    between atoms: C_28  and  C_30
                            x       y       z     vdW  Elec       q    Type
                         _______ _______ _______ _____ _____    ______ ____

>  <TORSDO>
F 2

$$$$
=
 OpenBabel11122412443D

 30 35  0  0  1  0  0  0  0  0999 V2000
  161.3790  210.1560  151.7810 C   0  0  0  0  0  0  0  0  0  0  0  0
  161.5960  210.1060  149.2060 C   0  0  0  0  0  0  0  0  0  0  0  0
  161.2730  206.3690  151.8910 N   0  0  0  0  0  2  0  0  0  0  0  0
  161.6280  209.6220  152.9930 C   0  0  0  0  0  0  0  0  0  0  0  0
  160.8370  211.4480  151.7000 O   0  0  0  0  0  0  0  0  0  0  0  0
  160.4000  212.3200  155.1100 O   0  0  0  0  0  0  0  0  0  0  0  0
  160.8820  208.9890  156.0340 C   0  0  1  0  0  3  0  0  0  0  0  0
  160.6750  211.6430  154.0830 C   0  0  0  0  0  0  0  0  0  0  0  0
  160.3030  207.9770  155.0420 C   0  0  2  0  0  3  0  0  0  0  0  0
  160.7820  206.2870  153.2100 C   0  0  0  0  0  0  0  0  0  0  0  0
  160.1010  212.0500  152.7660 C   0  0  2  0  0  3  0  0  0  0  0  0
  161.4830  210.4500  154.1650 N   0  0  0  0  0  0  0  0  0  0  0  0
  162.1760  209.5070  148.0840 O   0  0  0  0  0  0  0  0  0  0  0  0
  159.6790  206.9440  155.9690 C   0  0  0  0  0  2  0  0  0  0  0  0
  161.3840  208.1760  157.2080 C   0  0  0  0  0  2  0  0  0  0  0  0
  160.9650  211.1870  149.0700 O   0  0  0  0  0  0  0  0  0  0  0  0
  162.2900  207.4000  151.8370 C   0  0  0  0  0  0  0  0  0  0  0  0
  163.0500  208.3920  148.2300 C   0  0  0  0  0  2  0  0  0  0  0  0
  161.7100  209.4370  150.5280 C   0  0  0  0  0  0  0  0  0  0  0  0
  162.1730  208.2090  153.1510 C   0  0  0  0  0  0  0  0  0  0  0  0
  159.9740  205.3890  153.5630 O   0  0  0  0  0  0  0  0  0  0  0  0
  161.3680  207.3000  154.1300 C   0  0  1  0  0  3  0  0  0  0  0  0
  160.4970  206.9460  157.2520 C   0  0  0  0  0  2  0  0  0  0  0  0
  162.4530  210.9540  156.4130 C   0  0  0  0  0  1  0  0  0  0  0  0
  162.4930  207.4390  149.2800 C   0  0  0  0  0  2  0  0  0  0  0  0
  162.1840  208.1760  150.5590 C   0  0  0  0  0  0  0  0  0  0  0  0
  161.9520  209.8940  155.4390 C   0  0  1  0  0  3  0  0  0  0  0  0
  158.6430  211.6230  152.6960 C   0  0  0  0  0  2  0  0  0  0  0  0
  157.3140  212.9850  154.1030 F   0  0  0  0  0  0  0  0  0  0  0  0
  157.7370  212.8350  152.7970 C   0  0  0  0  0  2  0  0  0  0  0  0
  1  4  1  0  0  0  0
  2 19  1  0  0  0  0
  3 10  1  0  0  0  0
  4 20  2  0  0  0  0
  4 12  1  0  0  0  0
  5  1  1  0  0  0  0
  5 11  1  0  0  0  0
  7 15  1  1  0  0  0
  8 12  1  0  0  0  0
  8  6  2  0  0  0  0
  9 14  1  1  0  0  0
  9  7  1  0  0  0  0
 10 21  2  0  0  0  0
 10 22  1  0  0  0  0
 11 28  1  1  0  0  0
 11  8  1  0  0  0  0
 12 27  1  0  0  0  0
 13 18  1  0  0  0  0
 13  2  1  0  0  0  0
 14 23  1  0  0  0  0
 15 23  1  0  0  0  0
 16  2  2  0  0  0  0
 17  3  1  0  0  0  0
 17 20  1  0  0  0  0
 18 25  1  0  0  0  0
 19 26  1  0  0  0  0
 19  1  2  0  0  0  0
 22 20  1  6  0  0  0
 22  9  1  0  0  0  0
 25 26  1  0  0  0  0
 26 17  2  0  0  0  0
 27  7  1  0  0  0  0
 27 24  1  1  0  0  0
 28 30  1  0  0  0  0
 30 29  1  0  0  0  0
M  END
>  <MODEL>
6

>  <REMARK>
 VINA RESULT:      -3.2      1.592      2.038
  Name = 
  2 active torsions:
  status: ('A' for Active; 'I' for Inactive)
    1  A    between atoms: C_11  and  C_28
    2  A    between atoms: C_28  and  C_30
                            x       y       z     vdW  Elec       q    Type
                         _______ _______ _______ _____ _____    ______ ____

>  <TORSDO>
F 2

$$$$
