=
 OpenBabel11122413513D

 37 44  0  0  1  0  0  0  0  0999 V2000
  160.7230  209.8670  155.0130 C   0  0  0  0  0  2  0  0  0  0  0  0
  161.4780  206.4060  151.9150 C   0  0  0  0  0  0  0  0  0  0  0  0
  161.2060  210.3270  150.5510 C   0  0  0  0  0  0  0  0  0  0  0  0
  160.0920  209.5180  156.2850 N   0  0  0  0  0  0  0  0  0  0  0  0
  159.7200  213.0740  152.7550 O   0  0  0  0  0  0  0  0  0  0  0  0
  161.7930  208.0370  150.0740 C   0  0  0  0  0  0  0  0  0  0  0  0
  160.5860  210.9740  151.6100 C   0  0  0  0  0  0  0  0  0  0  0  0
  159.5720  212.0100  156.3750 C   0  0  2  0  0  3  0  0  0  0  0  0
  161.2020  209.0000  150.8540 C   0  0  0  0  0  0  0  0  0  0  0  0
  160.5280  212.5020  151.7330 C   0  0  1  0  0  3  0  0  0  0  0  0
  162.4100  208.4430  148.8810 C   0  0  0  0  0  3  0  0  0  0  0  0
  159.2120  210.5780  156.8040 C   0  0  0  0  0  2  0  0  0  0  0  0
  160.6440  208.7450  152.0330 N   0  0  0  0  0  0  0  0  0  0  0  0
  162.7650  206.4570  152.7180 C   0  0  0  0  0  1  0  0  0  0  0  0
  161.9470  212.2140  148.9940 C   0  0  0  0  0  3  0  0  0  0  0  0
  162.4360  209.8200  148.5450 C   0  0  0  0  0  3  0  0  0  0  0  0
  160.4560  207.3890  152.5500 C   0  0  0  0  0  2  0  0  0  0  0  0
  159.0270  212.4510  155.0020 C   0  0  1  0  0  3  0  0  0  0  0  0
  159.9900  212.3670  153.9180 C   0  0  1  0  0  3  0  0  0  0  0  0
  161.8380  210.7910  149.3810 C   0  0  0  0  0  0  0  0  0  0  0  0
  160.2610  209.9390  152.5360 C   0  0  0  0  0  0  0  0  0  0  0  0
  161.7710  206.7160  150.5350 O   0  0  0  0  0  0  0  0  0  0  0  0
  160.1750  213.0750  150.4330 N   0  0  0  0  0  0  0  0  0  0  0  0
  160.9190  205.0010  151.9960 C   0  0  0  0  0  1  0  0  0  0  0  0
  158.9170  211.3570  153.9960 N   0  0  1  0  0  0  0  0  0  0  0  0
  160.9250  212.3150  156.5620 O   0  0  0  0  0  1  0  0  0  0  0  0
  159.6710  210.0970  153.9220 C   0  0  2  0  0  3  0  0  0  0  0  0
  161.2110  213.2310  149.4550 C   0  0  0  0  0  3  0  0  0  0  0  0
  157.8600  213.7340  151.0070 C   0  0  0  0  0  3  0  0  0  0  0  0
  158.8050  213.3280  150.0490 C   0  0  0  0  0  0  0  0  0  0  0  0
  158.3980  213.2020  148.7100 C   0  0  0  0  0  3  0  0  0  0  0  0
  156.6970  213.3340  147.0460 F   0  0  0  0  0  0  0  0  0  0  0  0
  156.1460  213.8610  149.3030 C   0  0  0  0  0  3  0  0  0  0  0  0
  157.0760  213.4640  148.3390 C   0  0  0  0  0  0  0  0  0  0  0  0
  156.5380  213.9960  150.6370 C   0  0  0  0  0  3  0  0  0  0  0  0
  161.9560  208.0780  156.8890 C   0  0  0  0  0  1  0  0  0  0  0  0
  161.1520  209.3100  157.2580 C   0  0  0  0  0  2  0  0  0  0  0  0
  1  4  1  0  0  0  0
  2 24  1  0  0  0  0
  2 17  1  0  0  0  0
  2 14  1  0  0  0  0
  3  9  1  0  0  0  0
  3  7  1  0  0  0  0
  4 12  1  0  0  0  0
  4 37  1  0  0  0  0
  5 19  1  0  0  0  0
  6 22  1  0  0  0  0
  6  9  2  0  0  0  0
  7 21  2  0  0  0  0
  8 26  1  6  0  0  0
  8 12  1  0  0  0  0
  9 13  1  0  0  0  0
 10  7  1  6  0  0  0
 10  5  1  0  0  0  0
 11  6  1  0  0  0  0
 13 21  1  0  0  0  0
 13 17  1  0  0  0  0
 15 20  1  0  0  0  0
 15 28  2  0  0  0  0
 16 11  2  0  0  0  0
 16 20  1  0  0  0  0
 18  8  1  0  0  0  0
 19 25  1  0  0  0  0
 19 18  1  0  0  0  0
 20  3  2  0  0  0  0
 21 27  1  0  0  0  0
 22  2  1  0  0  0  0
 23 10  1  0  0  0  0
 25 18  1  0  0  0  0
 27 25  1  0  0  0  0
 27  1  1  0  0  0  0
 28 23  1  0  0  0  0
 30 23  1  0  0  0  0
 30 29  2  0  0  0  0
 31 30  1  0  0  0  0
 32 34  1  0  0  0  0
 33 35  2  0  0  0  0
 34 31  2  0  0  0  0
 34 33  1  0  0  0  0
 35 29  1  0  0  0  0
 36 37  1  0  0  0  0
M  END
>  <MODEL>
1

>  <REMARK>
 VINA RESULT:      -4.3      0.000      0.000
  Name = 
  2 active torsions:
  status: ('A' for Active; 'I' for Inactive)
    1  A    between atoms: N_4  and  C_37
    2  A    between atoms: N_23  and  C_30
                            x       y       z     vdW  Elec       q    Type
                         _______ _______ _______ _____ _____    ______ ____

>  <TORSDO>
F 2

$$$$
=
 OpenBabel11122413513D

 37 44  0  0  1  0  0  0  0  0999 V2000
  159.7160  211.4270  154.9340 C   0  0  0  0  0  2  0  0  0  0  0  0
  161.2700  207.8760  152.2660 C   0  0  0  0  0  0  0  0  0  0  0  0
  160.7930  211.6400  150.5580 C   0  0  0  0  0  0  0  0  0  0  0  0
  158.9460  211.0940  156.1320 N   0  0  0  0  0  0  0  0  0  0  0  0
  158.7240  214.3390  152.3020 O   0  0  0  0  0  0  0  0  0  0  0  0
  161.6790  209.4060  150.3570 C   0  0  0  0  0  0  0  0  0  0  0  0
  159.9620  212.2810  151.4650 C   0  0  0  0  0  0  0  0  0  0  0  0
  158.1610  213.5100  155.9430 C   0  0  2  0  0  3  0  0  0  0  0  0
  160.8830  210.3440  150.9660 C   0  0  0  0  0  0  0  0  0  0  0  0
  159.7270  213.7970  151.4520 C   0  0  1  0  0  3  0  0  0  0  0  0
  162.4170  209.7990  149.2310 C   0  0  0  0  0  3  0  0  0  0  0  0
  157.8940  212.0780  156.4350 C   0  0  0  0  0  2  0  0  0  0  0  0
  160.1890  210.1060  152.0740 N   0  0  0  0  0  0  0  0  0  0  0  0
  162.4140  208.1280  153.2310 C   0  0  0  0  0  1  0  0  0  0  0  0
  161.5520  213.4910  148.9670 C   0  0  0  0  0  3  0  0  0  0  0  0
  162.3480  211.1440  148.7890 C   0  0  0  0  0  3  0  0  0  0  0  0
  160.0700  208.7750  152.6710 C   0  0  0  0  0  2  0  0  0  0  0  0
  157.7790  213.7930  154.4770 C   0  0  1  0  0  3  0  0  0  0  0  0
  158.8940  213.7480  153.5460 C   0  0  1  0  0  3  0  0  0  0  0  0
  161.5370  212.0940  149.4520 C   0  0  0  0  0  0  0  0  0  0  0  0
  159.6150  211.2800  152.4200 C   0  0  0  0  0  0  0  0  0  0  0  0
  161.7280  208.1240  150.9180 O   0  0  0  0  0  0  0  0  0  0  0  0
  159.5090  214.2370  150.0730 N   0  0  0  0  0  0  0  0  0  0  0  0
  160.8550  206.4250  152.3850 C   0  0  0  0  0  1  0  0  0  0  0  0
  157.9320  212.6280  153.5590 N   0  0  1  0  0  0  0  0  0  0  0  0
  159.4330  213.9800  156.2890 O   0  0  0  0  0  1  0  0  0  0  0  0
  158.8160  211.4610  153.6940 C   0  0  2  0  0  3  0  0  0  0  0  0
  160.6550  214.4450  149.2380 C   0  0  0  0  0  3  0  0  0  0  0  0
  158.0330  214.3140  148.0880 C   0  0  0  0  0  3  0  0  0  0  0  0
  158.1910  214.3050  149.4850 C   0  0  0  0  0  0  0  0  0  0  0  0
  157.0420  214.3340  150.2950 C   0  0  0  0  0  3  0  0  0  0  0  0
  154.6710  214.4130  150.5160 F   0  0  0  0  0  0  0  0  0  0  0  0
  155.6260  214.3970  148.3330 C   0  0  0  0  0  3  0  0  0  0  0  0
  155.7680  214.3820  149.7220 C   0  0  0  0  0  0  0  0  0  0  0  0
  156.7590  214.3620  147.5160 C   0  0  0  0  0  3  0  0  0  0  0  0
  161.2960  211.0010  156.7490 C   0  0  0  0  0  1  0  0  0  0  0  0
  159.8680  211.0750  157.2550 C   0  0  0  0  0  2  0  0  0  0  0  0
  1  4  1  0  0  0  0
  2 24  1  0  0  0  0
  2 17  1  0  0  0  0
  2 14  1  0  0  0  0
  3  9  1  0  0  0  0
  3  7  1  0  0  0  0
  4 12  1  0  0  0  0
  4 37  1  0  0  0  0
  5 19  1  0  0  0  0
  6 22  1  0  0  0  0
  6  9  2  0  0  0  0
  7 21  2  0  0  0  0
  8 26  1  6  0  0  0
  8 12  1  0  0  0  0
  9 13  1  0  0  0  0
 10  7  1  6  0  0  0
 10  5  1  0  0  0  0
 11  6  1  0  0  0  0
 13 21  1  0  0  0  0
 13 17  1  0  0  0  0
 15 28  2  0  0  0  0
 15 20  1  0  0  0  0
 16 11  2  0  0  0  0
 16 20  1  0  0  0  0
 18  8  1  0  0  0  0
 19 25  1  0  0  0  0
 19 18  1  0  0  0  0
 20  3  2  0  0  0  0
 21 27  1  0  0  0  0
 22  2  1  0  0  0  0
 23 10  1  0  0  0  0
 25 27  1  0  0  0  0
 25 18  1  0  0  0  0
 27  1  1  0  0  0  0
 28 23  1  0  0  0  0
 29 30  1  0  0  0  0
 30 23  1  0  0  0  0
 30 31  2  0  0  0  0
 33 34  2  0  0  0  0
 34 31  1  0  0  0  0
 34 32  1  0  0  0  0
 35 29  2  0  0  0  0
 35 33  1  0  0  0  0
 36 37  1  0  0  0  0
M  END
>  <MODEL>
2

>  <REMARK>
 VINA RESULT:      -2.3      1.528      1.922
  Name = 
  2 active torsions:
  status: ('A' for Active; 'I' for Inactive)
    1  A    between atoms: N_4  and  C_37
    2  A    between atoms: N_23  and  C_30
                            x       y       z     vdW  Elec       q    Type
                         _______ _______ _______ _____ _____    ______ ____

>  <TORSDO>
F 2

$$$$
=
 OpenBabel11122413513D

 37 44  0  0  1  0  0  0  0  0999 V2000
  157.8350  213.0160  151.6520 C   0  0  0  0  0  2  0  0  0  0  0  0
  161.2630  212.8840  148.4320 C   0  0  0  0  0  0  0  0  0  0  0  0
  161.0440  209.8660  151.2880 C   0  0  0  0  0  0  0  0  0  0  0  0
  157.2280  214.3130  151.9500 N   0  0  0  0  0  0  0  0  0  0  0  0
  158.9380  210.3030  154.4470 O   0  0  0  0  0  0  0  0  0  0  0  0
  162.0020  210.6520  149.2190 C   0  0  0  0  0  0  0  0  0  0  0  0
  160.2360  210.4320  152.2640 C   0  0  0  0  0  0  0  0  0  0  0  0
  156.4760  213.1430  154.0840 C   0  0  2  0  0  3  0  0  0  0  0  0
  161.2900  210.8470  150.3760 C   0  0  0  0  0  0  0  0  0  0  0  0
  159.6010  209.6120  153.3950 C   0  0  1  0  0  3  0  0  0  0  0  0
  162.5310  209.3750  148.9780 C   0  0  0  0  0  3  0  0  0  0  0  0
  156.8230  214.4530  153.3580 C   0  0  0  0  0  2  0  0  0  0  0  0
  160.6900  211.9930  150.6810 N   0  0  0  0  0  0  0  0  0  0  0  0
  160.0030  212.6260  147.6270 C   0  0  0  0  0  1  0  0  0  0  0  0
  161.2640  207.4160  151.9790 C   0  0  0  0  0  3  0  0  0  0  0  0
  162.2840  208.3330  149.9070 C   0  0  0  0  0  3  0  0  0  0  0  0
  160.8600  213.2160  149.8950 C   0  0  0  0  0  2  0  0  0  0  0  0
  157.6730  212.3690  154.6710 C   0  0  1  0  0  3  0  0  0  0  0  0
  158.1350  211.2640  153.8500 C   0  0  1  0  0  3  0  0  0  0  0  0
  161.5250  208.5600  151.0800 C   0  0  0  0  0  0  0  0  0  0  0  0
  160.0200  211.7740  151.8340 C   0  0  0  0  0  0  0  0  0  0  0  0
  162.1280  211.7310  148.3360 O   0  0  0  0  0  0  0  0  0  0  0  0
  160.6020  208.6980  153.9470 N   0  0  0  0  0  0  0  0  0  0  0  0
  161.9730  214.0820  147.8380 C   0  0  0  0  0  1  0  0  0  0  0  0
  158.9390  212.5010  153.8950 N   0  0  1  0  0  0  0  0  0  0  0  0
  155.5890  212.3360  153.3640 O   0  0  0  0  0  1  0  0  0  0  0  0
  159.1150  212.8100  152.4680 C   0  0  2  0  0  3  0  0  0  0  0  0
  160.8560  207.4700  153.2520 C   0  0  0  0  0  3  0  0  0  0  0  0
  161.5360  208.2350  156.1910 C   0  0  0  0  0  3  0  0  0  0  0  0
  161.4500  209.0630  155.0580 C   0  0  0  0  0  0  0  0  0  0  0  0
  162.2250  210.2340  155.0170 C   0  0  0  0  0  3  0  0  0  0  0  0
  163.7960  211.7100  156.0350 F   0  0  0  0  0  0  0  0  0  0  0  0
  163.1280  209.7460  157.2090 C   0  0  0  0  0  3  0  0  0  0  0  0
  163.0570  210.5750  156.0870 C   0  0  0  0  0  0  0  0  0  0  0  0
  162.3680  208.5760  157.2610 C   0  0  0  0  0  3  0  0  0  0  0  0
  156.2910  213.8730  149.7490 C   0  0  0  0  0  1  0  0  0  0  0  0
  156.0300  214.4340  151.1340 C   0  0  0  0  0  2  0  0  0  0  0  0
  1  4  1  0  0  0  0
  1 27  1  0  0  0  0
  2 17  1  0  0  0  0
  3  7  1  0  0  0  0
  4 12  1  0  0  0  0
  6  9  1  0  0  0  0
  8 26  1  6  0  0  0
  8 18  1  0  0  0  0
  9 13  1  0  0  0  0
  9  3  2  0  0  0  0
 10  7  1  6  0  0  0
 10 23  1  0  0  0  0
 10  5  1  0  0  0  0
 11  6  2  0  0  0  0
 11 16  1  0  0  0  0
 12  8  1  0  0  0  0
 13 21  1  0  0  0  0
 14  2  1  0  0  0  0
 15 28  2  0  0  0  0
 16 20  2  0  0  0  0
 17 13  1  0  0  0  0
 19 25  1  0  0  0  0
 19  5  1  0  0  0  0
 19 18  1  0  0  0  0
 20  3  1  0  0  0  0
 20 15  1  0  0  0  0
 21  7  2  0  0  0  0
 21 27  1  0  0  0  0
 22  2  1  0  0  0  0
 22  6  1  0  0  0  0
 23 30  1  0  0  0  0
 24  2  1  0  0  0  0
 25 18  1  0  0  0  0
 27 25  1  0  0  0  0
 28 23  1  0  0  0  0
 29 35  1  0  0  0  0
 30 29  2  0  0  0  0
 31 30  1  0  0  0  0
 31 34  2  0  0  0  0
 32 34  1  0  0  0  0
 33 35  2  0  0  0  0
 34 33  1  0  0  0  0
 36 37  1  0  0  0  0
 37  4  1  0  0  0  0
M  END
>  <MODEL>
3

>  <REMARK>
 VINA RESULT:      -1.7      2.674      6.418
  Name = 
  2 active torsions:
  status: ('A' for Active; 'I' for Inactive)
    1  A    between atoms: N_4  and  C_37
    2  A    between atoms: N_23  and  C_30
                            x       y       z     vdW  Elec       q    Type
                         _______ _______ _______ _____ _____    ______ ____

>  <TORSDO>
F 2

$$$$
=
 OpenBabel11122413513D

 37 44  0  0  1  0  0  0  0  0999 V2000
  161.0040  209.5750  155.0430 C   0  0  0  0  0  2  0  0  0  0  0  0
  161.9770  207.4270  150.9710 C   0  0  0  0  0  0  0  0  0  0  0  0
  160.7500  211.4030  150.9260 C   0  0  0  0  0  0  0  0  0  0  0  0
  160.6400  208.7380  156.1850 N   0  0  0  0  0  0  0  0  0  0  0  0
  159.0810  212.9760  153.9830 O   0  0  0  0  0  0  0  0  0  0  0  0
  161.7010  209.5470  149.7140 C   0  0  0  0  0  0  0  0  0  0  0  0
  160.1720  211.5550  152.1780 C   0  0  0  0  0  0  0  0  0  0  0  0
  159.6600  210.9080  157.0890 C   0  0  2  0  0  3  0  0  0  0  0  0
  161.0490  210.0800  150.7980 C   0  0  0  0  0  0  0  0  0  0  0  0
  159.8330  212.9260  152.7760 C   0  0  1  0  0  3  0  0  0  0  0  0
  162.0510  210.4100  148.6650 C   0  0  0  0  0  3  0  0  0  0  0  0
  159.6530  209.3710  157.0740 C   0  0  0  0  0  2  0  0  0  0  0  0
  160.7250  209.3750  151.8760 N   0  0  0  0  0  0  0  0  0  0  0  0
  163.3290  207.5390  151.6500 C   0  0  0  0  0  1  0  0  0  0  0  0
  160.8770  213.7760  149.9860 C   0  0  0  0  0  3  0  0  0  0  0  0
  161.7580  211.7930  148.7750 C   0  0  0  0  0  3  0  0  0  0  0  0
  160.8820  207.9220  151.9550 C   0  0  0  0  0  2  0  0  0  0  0  0
  158.8500  211.5890  155.9680 C   0  0  1  0  0  3  0  0  0  0  0  0
  159.6470  212.0460  154.8430 C   0  0  1  0  0  3  0  0  0  0  0  0
  161.1060  212.3170  149.9160 C   0  0  0  0  0  0  0  0  0  0  0  0
  160.1910  210.2510  152.7550 C   0  0  0  0  0  0  0  0  0  0  0  0
  162.0050  208.1810  149.7380 O   0  0  0  0  0  0  0  0  0  0  0  0
  159.1930  213.7530  151.7510 N   0  0  0  0  0  0  0  0  0  0  0  0
  161.7220  205.9700  150.6500 C   0  0  0  0  0  1  0  0  0  0  0  0
  158.8150  210.8370  154.6820 N   0  0  1  0  0  0  0  0  0  0  0  0
  160.9390  211.4490  157.2610 O   0  0  0  0  0  1  0  0  0  0  0  0
  159.7840  209.8610  154.1610 C   0  0  2  0  0  3  0  0  0  0  0  0
  160.0290  214.4190  150.7970 C   0  0  0  0  0  3  0  0  0  0  0  0
  157.2050  213.8050  150.2790 C   0  0  0  0  0  3  0  0  0  0  0  0
  157.7600  213.7830  151.5700 C   0  0  0  0  0  0  0  0  0  0  0  0
  156.8940  213.7640  152.6770 C   0  0  0  0  0  3  0  0  0  0  0  0
  154.6870  213.7620  153.5740 F   0  0  0  0  0  0  0  0  0  0  0  0
  154.9700  213.8040  151.2080 C   0  0  0  0  0  3  0  0  0  0  0  0
  155.5080  213.7770  152.4970 C   0  0  0  0  0  0  0  0  0  0  0  0
  155.8190  213.8170  150.0990 C   0  0  0  0  0  3  0  0  0  0  0  0
  162.8570  209.6050  156.6840 C   0  0  0  0  0  1  0  0  0  0  0  0
  161.8480  208.5080  156.9630 C   0  0  0  0  0  2  0  0  0  0  0  0
  1  4  1  0  0  0  0
  2 14  1  0  0  0  0
  2 17  1  0  0  0  0
  3  7  1  0  0  0  0
  4 37  1  0  0  0  0
  4 12  1  0  0  0  0
  5 19  1  0  0  0  0
  6 22  1  0  0  0  0
  6  9  2  0  0  0  0
  7 21  2  0  0  0  0
  8 26  1  6  0  0  0
  9  3  1  0  0  0  0
  9 13  1  0  0  0  0
 10  7  1  6  0  0  0
 10  5  1  0  0  0  0
 11 16  2  0  0  0  0
 11  6  1  0  0  0  0
 12  8  1  0  0  0  0
 13 17  1  0  0  0  0
 13 21  1  0  0  0  0
 15 28  2  0  0  0  0
 16 20  1  0  0  0  0
 18  8  1  0  0  0  0
 19 18  1  0  0  0  0
 20 15  1  0  0  0  0
 20  3  2  0  0  0  0
 21 27  1  0  0  0  0
 22  2  1  0  0  0  0
 23 10  1  0  0  0  0
 24  2  1  0  0  0  0
 25 19  1  0  0  0  0
 25 18  1  0  0  0  0
 27 25  1  0  0  0  0
 27  1  1  0  0  0  0
 28 23  1  0  0  0  0
 29 30  1  0  0  0  0
 30 23  1  0  0  0  0
 30 31  2  0  0  0  0
 33 34  2  0  0  0  0
 34 31  1  0  0  0  0
 34 32  1  0  0  0  0
 35 29  2  0  0  0  0
 35 33  1  0  0  0  0
 36 37  1  0  0  0  0
M  END
>  <MODEL>
4

>  <REMARK>
 VINA RESULT:      -1.5      1.606      2.049
  Name = 
  2 active torsions:
  status: ('A' for Active; 'I' for Inactive)
    1  A    between atoms: N_4  and  C_37
    2  A    between atoms: N_23  and  C_30
                            x       y       z     vdW  Elec       q    Type
                         _______ _______ _______ _____ _____    ______ ____

>  <TORSDO>
F 2

$$$$
