=
 OpenBabel11122413583D

 37 44  0  0  1  0  0  0  0  0999 V2000
  160.2190  210.8860  153.8910 C   0  0  1  0  0  0  0  0  0  0  0  0
  161.6920  207.6180  152.7700 C   0  0  1  0  0  3  0  0  0  0  0  0
  162.7700  207.3800  149.6440 O   0  0  0  0  0  0  0  0  0  0  0  0
  161.4720  209.2030  154.8240 C   0  0  2  0  0  3  0  0  0  0  0  0
  161.2870  208.0930  151.3750 C   0  0  2  0  0  3  0  0  0  0  0  0
  162.1110  208.9210  153.4600 C   0  0  2  0  0  3  0  0  0  0  0  0
  161.5370  207.0900  150.2480 C   0  0  2  0  0  3  0  0  0  0  0  0
  161.4440  207.9200  155.6390 C   0  0  0  0  0  2  0  0  0  0  0  0
  161.8270  210.0280  152.4450 C   0  0  2  0  0  3  0  0  0  0  0  0
  161.1420  211.8200  154.3560 F   0  0  0  0  0  0  0  0  0  0  0  0
  160.4110  205.4430  152.9360 C   0  0  0  0  0  2  0  0  0  0  0  0
  160.6110  206.8180  154.9740 C   0  0  0  0  0  2  0  0  0  0  0  0
  160.4940  210.5050  152.5610 O   0  0  0  0  0  0  0  0  0  0  0  0
  161.2780  208.5260  148.1500 O   0  0  0  0  0  0  0  0  0  0  0  0
  162.6020  208.1290  148.4450 C   0  0  1  0  0  3  0  0  0  0  0  0
  160.5180  206.8820  153.4410 C   0  0  1  0  0  3  0  0  0  0  0  0
  162.0050  209.3510  151.1550 N   0  0  2  0  0  0  0  0  0  0  0  0
  160.1730  209.7430  154.7170 O   0  0  0  0  0  0  0  0  0  0  0  0
  161.4350  205.6140  150.6550 C   0  0  1  0  0  3  0  0  0  0  0  0
  158.8540  211.5400  153.9170 C   0  0  0  0  0  1  0  0  0  0  0  0
  162.1180  209.5430  148.6520 C   0  0  2  0  0  3  0  0  0  0  0  0
  161.4780  210.0570  149.9690 C   0  0  2  0  0  3  0  0  0  0  0  0
  160.1520  205.3380  151.4370 C   0  0  0  0  0  2  0  0  0  0  0  0
  161.5190  203.2210  149.6860 C   0  0  0  0  0  2  0  0  0  0  0  0
  161.5240  204.7130  149.4600 C   0  0  0  0  0  0  0  0  0  0  0  0
  161.6860  205.2160  148.2270 C   0  0  0  0  0  3  0  0  0  0  0  0
  162.0650  204.7500  145.9350 O   0  0  0  0  0  0  0  0  0  0  0  0
  161.4420  202.9290  147.2550 N   0  0  0  0  0  2  0  0  0  0  0  0
  161.7450  204.3120  147.0710 C   0  0  0  0  0  0  0  0  0  0  0  0
  160.8610  202.4840  148.5180 C   0  0  0  0  0  2  0  0  0  0  0  0
  161.7410  211.5700  150.0340 C   0  0  1  0  0  3  0  0  0  0  0  0
  162.0060  212.1130  148.6630 N   0  0  0  0  0  0  0  0  0  0  0  0
  160.7270  212.2690  149.4080 C   0  0  2  0  0  3  0  0  0  0  0  0
  160.6410  213.6750  149.9620 C   0  0  0  0  0  2  0  0  0  0  0  0
  160.2240  213.6280  151.2780 F   0  0  0  0  0  0  0  0  0  0  0  0
  162.4810  213.2280  146.6110 C   0  0  0  0  0  2  0  0  0  0  0  0
  162.8310  212.3360  147.5230 C   0  0  0  0  0  3  0  0  0  0  0  0
  1 20  1  1  0  0  0
  1 10  1  0  0  0  0
  1 18  1  0  0  0  0
  2 16  1  0  0  0  0
  2  6  1  0  0  0  0
  3  7  1  0  0  0  0
  4  8  1  0  0  0  0
  5  2  1  0  0  0  0
  6  4  1  0  0  0  0
  7 19  1  0  0  0  0
  7  5  1  0  0  0  0
  9 13  1  0  0  0  0
  9  6  1  0  0  0  0
 11 16  1  0  0  0  0
 12  8  1  0  0  0  0
 13  1  1  0  0  0  0
 14 15  1  0  0  0  0
 14 21  1  0  0  0  0
 15 21  1  0  0  0  0
 15  3  1  0  0  0  0
 16 12  1  0  0  0  0
 17  5  1  0  0  0  0
 17  9  1  0  0  0  0
 18  4  1  0  0  0  0
 19 23  1  0  0  0  0
 21 22  1  0  0  0  0
 22 31  1  0  0  0  0
 22 17  1  0  0  0  0
 23 11  1  0  0  0  0
 25 24  1  0  0  0  0
 25 19  1  0  0  0  0
 26 25  2  0  0  0  0
 27 29  2  0  0  0  0
 28 30  1  0  0  0  0
 29 28  1  0  0  0  0
 29 26  1  0  0  0  0
 30 24  1  0  0  0  0
 32 33  1  0  0  0  0
 32 31  1  0  0  0  0
 33 34  1  0  0  0  0
 33 31  1  0  0  0  0
 34 35  1  0  0  0  0
 36 37  2  0  0  0  0
 37 32  1  0  0  0  0
M  END
>  <MODEL>
1

>  <REMARK>
 VINA RESULT:      -6.7      0.000      0.000
  Name = 
  4 active torsions:
  status: ('A' for Active; 'I' for Inactive)
    1  A    between atoms: C_1  and  C_27
    2  A    between atoms: N_4  and  C_37
    3  A    between atoms: C_8  and  C_12
    4  A    between atoms: C_23  and  C_30
                            x       y       z     vdW  Elec       q    Type
                         _______ _______ _______ _____ _____    ______ ____

>  <TORSDO>
F 4

$$$$
=
 OpenBabel11122413583D

 37 44  0  0  1  0  0  0  0  0999 V2000
  162.5910  205.9770  147.3200 C   0  0  1  0  0  0  0  0  0  0  0  0
  160.6120  206.1500  150.5080 C   0  0  1  0  0  3  0  0  0  0  0  0
  160.3870  209.0750  152.0510 O   0  0  0  0  0  0  0  0  0  0  0  0
  160.7130  204.9780  148.1850 C   0  0  2  0  0  3  0  0  0  0  0  0
  161.4920  207.3640  150.8050 C   0  0  2  0  0  3  0  0  0  0  0  0
  160.4100  206.2450  148.9920 C   0  0  2  0  0  3  0  0  0  0  0  0
  161.2790  208.0010  152.1790 C   0  0  2  0  0  3  0  0  0  0  0  0
  160.1600  203.7700  148.9230 C   0  0  0  0  0  2  0  0  0  0  0  0
  161.2540  207.4370  148.5430 C   0  0  2  0  0  3  0  0  0  0  0  0
  161.8800  206.2990  146.1670 F   0  0  0  0  0  0  0  0  0  0  0  0
  161.1360  204.6710  152.4930 C   0  0  0  0  0  2  0  0  0  0  0  0
  160.7940  203.5820  150.3060 C   0  0  0  0  0  2  0  0  0  0  0  0
  162.5860  207.0430  148.2450 O   0  0  0  0  0  0  0  0  0  0  0  0
  162.4830  210.2430  151.9510 O   0  0  0  0  0  0  0  0  0  0  0  0
  161.0730  210.3210  151.9860 C   0  0  1  0  0  3  0  0  0  0  0  0
  161.3080  204.8620  150.9860 C   0  0  1  0  0  3  0  0  0  0  0  0
  161.2430  208.3150  149.7190 N   0  0  2  0  0  0  0  0  0  0  0  0
  162.0910  204.8090  147.9340 O   0  0  0  0  0  0  0  0  0  0  0  0
  160.8490  207.0310  153.2880 C   0  0  1  0  0  3  0  0  0  0  0  0
  164.0270  205.7180  146.9160 C   0  0  0  0  0  1  0  0  0  0  0  0
  161.8620  210.5360  150.7190 C   0  0  2  0  0  3  0  0  0  0  0  0
  162.2450  209.4020  149.7310 C   0  0  2  0  0  3  0  0  0  0  0  0
  161.7440  205.7940  153.3260 C   0  0  0  0  0  2  0  0  0  0  0  0
  159.8820  207.1890  155.6770 C   0  0  0  0  0  2  0  0  0  0  0  0
  160.8320  207.7070  154.6260 C   0  0  0  0  0  0  0  0  0  0  0  0
  161.5820  208.7940  154.8590 C   0  0  0  0  0  3  0  0  0  0  0  0
  162.1270  210.5320  156.3740 O   0  0  0  0  0  0  0  0  0  0  0  0
  160.8990  208.7580  157.2610 N   0  0  0  0  0  2  0  0  0  0  0  0
  161.5660  209.4220  156.1870 C   0  0  0  0  0  0  0  0  0  0  0  0
  160.4520  207.3790  157.0840 C   0  0  0  0  0  2  0  0  0  0  0  0
  162.4120  210.0480  148.3470 C   0  0  1  0  0  3  0  0  0  0  0  0
  161.5010  211.2300  148.2110 N   0  0  0  0  0  0  0  0  0  0  0  0
  162.9660  211.3090  148.4610 C   0  0  2  0  0  3  0  0  0  0  0  0
  163.6720  211.6880  147.1770 C   0  0  0  0  0  2  0  0  0  0  0  0
  163.1760  212.8930  146.7170 F   0  0  0  0  0  0  0  0  0  0  0  0
  159.9970  212.5170  146.8840 C   0  0  0  0  0  2  0  0  0  0  0  0
  160.2300  211.8350  147.9930 C   0  0  0  0  0  3  0  0  0  0  0  0
  1 20  1  6  0  0  0
  1 18  1  0  0  0  0
  1 13  1  0  0  0  0
  2  5  1  0  0  0  0
  2 16  1  0  0  0  0
  3  7  1  0  0  0  0
  4  8  1  0  0  0  0
  4  6  1  0  0  0  0
  5  7  1  0  0  0  0
  6  2  1  0  0  0  0
  7 19  1  0  0  0  0
  8 12  1  0  0  0  0
  9  6  1  0  0  0  0
  9 17  1  0  0  0  0
 10  1  1  0  0  0  0
 11 23  1  0  0  0  0
 12 16  1  0  0  0  0
 13  9  1  0  0  0  0
 14 15  1  0  0  0  0
 15  3  1  0  0  0  0
 16 11  1  0  0  0  0
 17 22  1  0  0  0  0
 17  5  1  0  0  0  0
 18  4  1  0  0  0  0
 19 23  1  0  0  0  0
 19 25  1  0  0  0  0
 21 14  1  0  0  0  0
 21 15  1  0  0  0  0
 22 21  1  0  0  0  0
 24 30  1  0  0  0  0
 25 26  2  0  0  0  0
 25 24  1  0  0  0  0
 26 29  1  0  0  0  0
 29 27  2  0  0  0  0
 29 28  1  0  0  0  0
 30 28  1  0  0  0  0
 31 33  1  0  0  0  0
 31 22  1  0  0  0  0
 32 31  1  0  0  0  0
 32 33  1  0  0  0  0
 34 33  1  0  0  0  0
 35 34  1  0  0  0  0
 36 37  2  0  0  0  0
 37 32  1  0  0  0  0
M  END
>  <MODEL>
2

>  <REMARK>
 VINA RESULT:      -5.9      2.468      6.184
  Name = 
  4 active torsions:
  status: ('A' for Active; 'I' for Inactive)
    1  A    between atoms: C_1  and  C_27
    2  A    between atoms: N_4  and  C_37
    3  A    between atoms: C_8  and  C_12
    4  A    between atoms: C_23  and  C_30
                            x       y       z     vdW  Elec       q    Type
                         _______ _______ _______ _____ _____    ______ ____

>  <TORSDO>
F 4

$$$$
=
 OpenBabel11122413583D

 37 44  0  0  1  0  0  0  0  0999 V2000
  161.7680  208.5710  148.3240 C   0  0  1  0  0  0  0  0  0  0  0  0
  161.5470  211.0730  151.1170 C   0  0  1  0  0  3  0  0  0  0  0  0
  161.3070  209.9330  154.2200 O   0  0  0  0  0  0  0  0  0  0  0  0
  162.6150  210.6570  148.7790 C   0  0  2  0  0  3  0  0  0  0  0  0
  160.8650  209.9340  151.8730 C   0  0  2  0  0  3  0  0  0  0  0  0
  162.5970  210.3370  150.2780 C   0  0  2  0  0  3  0  0  0  0  0  0
  160.3450  210.2970  153.2660 C   0  0  2  0  0  3  0  0  0  0  0  0
  162.4410  212.1530  148.5840 C   0  0  0  0  0  2  0  0  0  0  0  0
  162.3700  208.8520  150.5540 C   0  0  2  0  0  3  0  0  0  0  0  0
  163.0530  208.1190  148.0380 F   0  0  0  0  0  0  0  0  0  0  0  0
  159.7470  212.8500  151.1850 C   0  0  0  0  0  2  0  0  0  0  0  0
  161.1060  212.6680  149.1340 C   0  0  0  0  0  2  0  0  0  0  0  0
  161.4100  208.3020  149.6620 O   0  0  0  0  0  0  0  0  0  0  0  0
  159.8710  208.0090  154.3020 O   0  0  0  0  0  0  0  0  0  0  0  0
  160.9940  208.6860  154.8300 C   0  0  1  0  0  3  0  0  0  0  0  0
  160.5070  211.8630  150.3000 C   0  0  1  0  0  3  0  0  0  0  0  0
  161.8420  208.8440  151.9230 N   0  0  2  0  0  0  0  0  0  0  0  0
  161.6290  209.9510  148.0600 O   0  0  0  0  0  0  0  0  0  0  0  0
  159.8970  211.7540  153.4350 C   0  0  1  0  0  3  0  0  0  0  0  0
  160.8080  207.8220  147.4240 C   0  0  0  0  0  1  0  0  0  0  0  0
  161.1250  207.4920  153.9160 C   0  0  2  0  0  3  0  0  0  0  0  0
  161.2050  207.5860  152.3700 C   0  0  2  0  0  3  0  0  0  0  0  0
  158.9590  212.1840  152.3080 C   0  0  0  0  0  2  0  0  0  0  0  0
  160.1070  212.4530  155.9120 C   0  0  0  0  0  2  0  0  0  0  0  0
  159.2480  211.9730  154.7680 C   0  0  0  0  0  0  0  0  0  0  0  0
  157.9550  211.6730  154.9640 C   0  0  0  0  0  3  0  0  0  0  0  0
  156.1820  211.4910  156.5240 O   0  0  0  0  0  0  0  0  0  0  0  0
  158.0700  212.6480  157.2600 N   0  0  0  0  0  2  0  0  0  0  0  0
  157.3380  211.9200  156.2730 C   0  0  0  0  0  0  0  0  0  0  0  0
  159.3060  213.3270  156.8800 C   0  0  0  0  0  2  0  0  0  0  0  0
  161.9720  206.3470  151.8830 C   0  0  1  0  0  3  0  0  0  0  0  0
  161.1620  205.1080  152.1180 N   0  0  0  0  0  0  0  0  0  0  0  0
  161.3360  205.7750  150.7990 C   0  0  2  0  0  3  0  0  0  0  0  0
  162.3260  204.9860  149.9680 C   0  0  0  0  0  2  0  0  0  0  0  0
  161.6740  204.4140  148.8920 F   0  0  0  0  0  0  0  0  0  0  0  0
  160.4760  202.8510  152.4580 C   0  0  0  0  0  2  0  0  0  0  0  0
  160.6360  204.0720  152.9430 C   0  0  0  0  0  3  0  0  0  0  0  0
  1 20  1  6  0  0  0
  1 13  1  0  0  0  0
  2  5  1  0  0  0  0
  3 15  1  0  0  0  0
  4  6  1  0  0  0  0
  5 17  1  0  0  0  0
  5  7  1  0  0  0  0
  6  9  1  0  0  0  0
  6  2  1  0  0  0  0
  7 19  1  0  0  0  0
  7  3  1  0  0  0  0
  8  4  1  0  0  0  0
  8 12  1  0  0  0  0
  9 17  1  0  0  0  0
 10  1  1  0  0  0  0
 11 23  1  0  0  0  0
 12 16  1  0  0  0  0
 13  9  1  0  0  0  0
 14 15  1  0  0  0  0
 16  2  1  0  0  0  0
 16 11  1  0  0  0  0
 17 22  1  0  0  0  0
 18  1  1  0  0  0  0
 18  4  1  0  0  0  0
 19 25  1  0  0  0  0
 21 14  1  0  0  0  0
 21 15  1  0  0  0  0
 22 21  1  0  0  0  0
 23 19  1  0  0  0  0
 24 30  1  0  0  0  0
 25 26  2  0  0  0  0
 25 24  1  0  0  0  0
 26 29  1  0  0  0  0
 29 27  2  0  0  0  0
 29 28  1  0  0  0  0
 30 28  1  0  0  0  0
 31 32  1  0  0  0  0
 31 22  1  0  0  0  0
 32 37  1  0  0  0  0
 33 31  1  0  0  0  0
 33 32  1  0  0  0  0
 34 33  1  0  0  0  0
 35 34  1  0  0  0  0
 36 37  2  0  0  0  0
M  END
>  <MODEL>
3

>  <REMARK>
 VINA RESULT:      -4.6      2.927      8.086
  Name = 
  4 active torsions:
  status: ('A' for Active; 'I' for Inactive)
    1  A    between atoms: C_1  and  C_27
    2  A    between atoms: N_4  and  C_37
    3  A    between atoms: C_8  and  C_12
    4  A    between atoms: C_23  and  C_30
                            x       y       z     vdW  Elec       q    Type
                         _______ _______ _______ _____ _____    ______ ____

>  <TORSDO>
F 4

$$$$
=
 OpenBabel11122413583D

 37 44  0  0  1  0  0  0  0  0999 V2000
  161.8790  208.7000  148.8230 C   0  0  1  0  0  0  0  0  0  0  0  0
  161.0390  211.9110  150.5820 C   0  0  1  0  0  3  0  0  0  0  0  0
  160.4650  211.8010  153.8450 O   0  0  0  0  0  0  0  0  0  0  0  0
  162.4620  210.9140  148.6430 C   0  0  2  0  0  3  0  0  0  0  0  0
  160.3620  210.9940  151.6000 C   0  0  2  0  0  3  0  0  0  0  0  0
  162.2600  211.0900  150.1520 C   0  0  2  0  0  3  0  0  0  0  0  0
  159.6200  211.7110  152.7290 C   0  0  2  0  0  3  0  0  0  0  0  0
  162.1840  212.2330  147.9420 C   0  0  0  0  0  2  0  0  0  0  0  0
  162.1310  209.7550  150.8820 C   0  0  2  0  0  3  0  0  0  0  0  0
  163.2270  208.3540  148.8410 F   0  0  0  0  0  0  0  0  0  0  0  0
  159.0950  213.3640  149.8660 C   0  0  0  0  0  2  0  0  0  0  0  0
  160.7430  212.7160  148.1470 C   0  0  0  0  0  2  0  0  0  0  0  0
  161.3610  208.8280  150.1290 O   0  0  0  0  0  0  0  0  0  0  0  0
  159.2100  209.8330  154.4130 O   0  0  0  0  0  0  0  0  0  0  0  0
  160.1820  210.7840  154.8000 C   0  0  1  0  0  3  0  0  0  0  0  0
  160.0600  212.2550  149.4450 C   0  0  1  0  0  3  0  0  0  0  0  0
  161.4160  210.1150  152.1120 N   0  0  2  0  0  0  0  0  0  0  0  0
  161.6550  209.8920  148.1010 O   0  0  0  0  0  0  0  0  0  0  0  0
  159.0230  213.0740  152.3540 C   0  0  1  0  0  3  0  0  0  0  0  0
  161.1280  207.5830  148.1300 C   0  0  0  0  0  1  0  0  0  0  0  0
  160.5480  209.3890  154.3560 C   0  0  2  0  0  3  0  0  0  0  0  0
  160.8380  208.9940  152.8840 C   0  0  2  0  0  3  0  0  0  0  0  0
  158.2200  212.9930  151.0570 C   0  0  0  0  0  2  0  0  0  0  0  0
  156.8240  214.1950  153.1140 C   0  0  0  0  0  2  0  0  0  0  0  0
  158.1740  213.6190  153.4630 C   0  0  0  0  0  0  0  0  0  0  0  0
  158.6330  213.6710  154.7220 C   0  0  0  0  0  3  0  0  0  0  0  0
  158.2410  214.4010  156.9420 O   0  0  0  0  0  0  0  0  0  0  0  0
  156.3970  214.4510  155.5130 N   0  0  0  0  0  2  0  0  0  0  0  0
  157.7720  214.1870  155.7930 C   0  0  0  0  0  0  0  0  0  0  0  0
  155.8220  213.9910  154.2520 C   0  0  0  0  0  2  0  0  0  0  0  0
  161.7740  207.7760  152.9210 C   0  0  1  0  0  3  0  0  0  0  0  0
  161.2310  206.7290  153.8460 N   0  0  0  0  0  0  0  0  0  0  0  0
  161.1620  206.6730  152.3600 C   0  0  2  0  0  3  0  0  0  0  0  0
  162.2040  205.7000  151.8500 C   0  0  0  0  0  2  0  0  0  0  0  0
  161.6470  204.8990  150.8710 F   0  0  0  0  0  0  0  0  0  0  0  0
  160.4130  206.9230  156.0750 C   0  0  0  0  0  2  0  0  0  0  0  0
  160.9790  206.1820  155.1370 C   0  0  0  0  0  3  0  0  0  0  0  0
  1 20  1  6  0  0  0
  1 10  1  0  0  0  0
  1 13  1  0  0  0  0
  2  5  1  0  0  0  0
  3 15  1  0  0  0  0
  4  6  1  0  0  0  0
  5 17  1  0  0  0  0
  5  7  1  0  0  0  0
  6  2  1  0  0  0  0
  6  9  1  0  0  0  0
  7  3  1  0  0  0  0
  8 12  1  0  0  0  0
  8  4  1  0  0  0  0
  9 17  1  0  0  0  0
 11 23  1  0  0  0  0
 12 16  1  0  0  0  0
 13  9  1  0  0  0  0
 14 15  1  0  0  0  0
 16 11  1  0  0  0  0
 16  2  1  0  0  0  0
 17 22  1  0  0  0  0
 18  4  1  0  0  0  0
 18  1  1  0  0  0  0
 19  7  1  0  0  0  0
 19 25  1  0  0  0  0
 21 14  1  0  0  0  0
 21 15  1  0  0  0  0
 22 31  1  0  0  0  0
 22 21  1  0  0  0  0
 23 19  1  0  0  0  0
 24 25  1  0  0  0  0
 24 30  1  0  0  0  0
 25 26  2  0  0  0  0
 26 29  1  0  0  0  0
 28 29  1  0  0  0  0
 29 27  2  0  0  0  0
 30 28  1  0  0  0  0
 31 32  1  0  0  0  0
 32 37  1  0  0  0  0
 33 31  1  0  0  0  0
 33 32  1  0  0  0  0
 34 33  1  0  0  0  0
 35 34  1  0  0  0  0
 37 36  2  0  0  0  0
M  END
>  <MODEL>
4

>  <REMARK>
 VINA RESULT:      -3.9      2.972      8.427
  Name = 
  4 active torsions:
  status: ('A' for Active; 'I' for Inactive)
    1  A    between atoms: C_1  and  C_27
    2  A    between atoms: N_4  and  C_37
    3  A    between atoms: C_8  and  C_12
    4  A    between atoms: C_23  and  C_30
                            x       y       z     vdW  Elec       q    Type
                         _______ _______ _______ _____ _____    ______ ____

>  <TORSDO>
F 4

$$$$
