=
 OpenBabel11122413303D

 31 35  0  0  1  0  0  0  0  0999 V2000
  160.5490  207.7270  156.2260 C   0  0  0  0  0  0  0  0  0  0  0  0
  161.9750  208.8980  152.8960 C   0  0  2  0  0  3  0  0  0  0  0  0
  161.5080  207.9300  151.8190 C   0  0  0  0  0  0  0  0  0  0  0  0
  158.1340  212.4620  152.0510 O   0  0  0  0  0  0  0  0  0  0  0  0
  159.1260  212.7670  151.3350 C   0  0  0  0  0  0  0  0  0  0  0  0
  160.6810  205.7420  151.1570 C   0  0  0  0  0  0  0  0  0  0  0  0
  161.1280  208.8130  154.1390 C   0  0  0  0  0  0  0  0  0  0  0  0
  159.4420  208.5710  156.3590 C   0  0  0  0  0  3  0  0  0  0  0  0
  161.0890  206.6330  152.1520 C   0  0  0  0  0  3  0  0  0  0  0  0
  160.6470  211.0080  152.3900 C   0  0  0  0  0  0  0  0  0  0  0  0
  160.8270  206.6960  157.2610 C   0  0  0  0  0  1  0  0  0  0  0  0
  162.0220  209.5710  150.0920 O   0  0  0  0  0  0  0  0  0  0  0  0
  160.2650  204.4970  151.4920 F   0  0  0  0  0  0  0  0  0  0  0  0
  159.7790  210.6920  153.3090 N   0  0  0  0  0  0  0  0  0  0  0  0
  162.0190  210.3590  152.3880 C   0  0  2  0  0  3  0  0  0  0  0  0
  160.3700  212.0680  151.4630 N   0  0  0  0  0  2  0  0  0  0  0  0
  161.3890  207.8430  155.1140 C   0  0  0  0  0  3  0  0  0  0  0  0
  160.7010  206.1350  149.8170 C   0  0  0  0  0  3  0  0  0  0  0  0
  160.0230  209.6700  154.2820 C   0  0  0  0  0  0  0  0  0  0  0  0
  159.1790  209.5420  155.3890 C   0  0  0  0  0  3  0  0  0  0  0  0
  162.6940  210.4210  151.0190 C   0  0  0  0  0  2  0  0  0  0  0  0
  161.5630  208.3050  150.4600 C   0  0  0  0  0  0  0  0  0  0  0  0
  161.1430  207.4130  149.4690 C   0  0  0  0  0  3  0  0  0  0  0  0
  157.7930  213.3190  147.6540 C   0  0  1  0  0  3  0  0  0  0  0  0
  157.5520  214.1570  149.9780 C   0  0  0  0  0  2  0  0  0  0  0  0
  161.1020  213.6280  149.1750 O   0  0  0  0  0  0  0  0  0  0  0  0
  157.3170  212.3000  146.6410 C   0  0  0  0  0  1  0  0  0  0  0  0
  157.0110  213.1670  148.9520 C   0  0  0  0  0  2  0  0  0  0  0  0
  159.8460  213.5690  149.1060 C   0  0  0  0  0  0  0  0  0  0  0  0
  159.0160  213.8670  150.3260 C   0  0  2  0  0  3  0  0  0  0  0  0
  159.2240  213.1480  147.8880 N   0  0  0  0  0  2  0  0  0  0  0  0
  1  8  1  0  0  0  0
  1 11  1  0  0  0  0
  2  3  1  6  0  0  0
  2  7  1  0  0  0  0
  3  9  1  0  0  0  0
  5 16  1  0  0  0  0
  5  4  2  0  0  0  0
  6 13  1  0  0  0  0
  6  9  2  0  0  0  0
  7 19  2  0  0  0  0
  7 17  1  0  0  0  0
 10 14  2  0  0  0  0
 12 22  1  0  0  0  0
 12 21  1  0  0  0  0
 14 19  1  0  0  0  0
 15 21  1  6  0  0  0
 15 10  1  0  0  0  0
 15  2  1  0  0  0  0
 16 10  1  0  0  0  0
 17  1  2  0  0  0  0
 18  6  1  0  0  0  0
 19 20  1  0  0  0  0
 20  8  2  0  0  0  0
 22  3  2  0  0  0  0
 23 18  2  0  0  0  0
 23 22  1  0  0  0  0
 24 27  1  6  0  0  0
 24 31  1  0  0  0  0
 24 28  1  0  0  0  0
 25 30  1  0  0  0  0
 28 25  1  0  0  0  0
 29 26  2  0  0  0  0
 29 30  1  0  0  0  0
 30  5  1  1  0  0  0
 31 29  1  0  0  0  0
M  END
>  <MODEL>
1

>  <REMARK>
 VINA RESULT:      -7.4      0.000      0.000
  Name = 
  1 active torsions:
  status: ('A' for Active; 'I' for Inactive)
    1  A    between atoms: C_5  and  C_30
                            x       y       z     vdW  Elec       q    Type
                         _______ _______ _______ _____ _____    ______ ____

>  <TORSDO>
F 1

$$$$
=
 OpenBabel11122413303D

 31 35  0  0  1  0  0  0  0  0999 V2000
  161.6200  208.0780  138.0920 C   0  0  0  0  0  0  0  0  0  0  0  0
  159.6440  211.3000  138.5430 C   0  0  2  0  0  3  0  0  0  0  0  0
  158.1700  210.9370  138.6420 C   0  0  0  0  0  0  0  0  0  0  0  0
  160.4480  211.5280  143.7840 O   0  0  0  0  0  0  0  0  0  0  0  0
  160.1280  212.6790  143.3790 C   0  0  0  0  0  0  0  0  0  0  0  0
  156.3380  209.3970  138.2140 C   0  0  0  0  0  0  0  0  0  0  0  0
  160.5370  210.1200  138.8190 C   0  0  0  0  0  0  0  0  0  0  0  0
  162.0650  207.8480  139.3960 C   0  0  0  0  0  3  0  0  0  0  0  0
  157.6950  209.7160  138.1390 C   0  0  0  0  0  3  0  0  0  0  0  0
  160.2200  212.0240  140.9120 C   0  0  0  0  0  0  0  0  0  0  0  0
  161.9520  207.1120  137.0110 C   0  0  0  0  0  1  0  0  0  0  0  0
  157.6810  213.1070  139.6410 O   0  0  0  0  0  0  0  0  0  0  0  0
  155.8940  208.2090  137.7380 F   0  0  0  0  0  0  0  0  0  0  0  0
  160.7160  210.8460  141.1610 N   0  0  0  0  0  0  0  0  0  0  0  0
  160.0200  212.4760  139.4770 C   0  0  2  0  0  3  0  0  0  0  0  0
  159.9940  212.9560  141.9800 N   0  0  0  0  0  2  0  0  0  0  0  0
  160.8510  209.2100  137.8030 C   0  0  0  0  0  3  0  0  0  0  0  0
  155.4380  210.3020  138.7820 C   0  0  0  0  0  3  0  0  0  0  0  0
  160.9980  209.8940  140.1270 C   0  0  0  0  0  0  0  0  0  0  0  0
  161.7560  208.7550  140.4150 C   0  0  0  0  0  3  0  0  0  0  0  0
  158.9880  213.5970  139.3540 C   0  0  0  0  0  2  0  0  0  0  0  0
  157.2480  211.8620  139.1770 C   0  0  0  0  0  0  0  0  0  0  0  0
  155.8930  211.5330  139.2600 C   0  0  0  0  0  3  0  0  0  0  0  0
  160.9850  213.5900  147.1300 C   0  0  1  0  0  3  0  0  0  0  0  0
  161.1830  214.4400  144.8050 C   0  0  0  0  0  2  0  0  0  0  0  0
  157.8360  213.0210  145.3650 O   0  0  0  0  0  0  0  0  0  0  0  0
  161.6270  212.7380  148.2030 C   0  0  0  0  0  1  0  0  0  0  0  0
  161.8780  213.6330  145.8970 C   0  0  0  0  0  2  0  0  0  0  0  0
  159.0550  213.2880  145.5260 C   0  0  0  0  0  0  0  0  0  0  0  0
  159.8730  213.7790  144.3610 C   0  0  2  0  0  3  0  0  0  0  0  0
  159.6680  213.0530  146.7980 N   0  0  0  0  0  2  0  0  0  0  0  0
  1  8  1  0  0  0  0
  2  3  1  1  0  0  0
  2  7  1  0  0  0  0
  2 15  1  0  0  0  0
  3 22  1  0  0  0  0
  5  4  2  0  0  0  0
  6 18  2  0  0  0  0
  7 19  2  0  0  0  0
  8 20  2  0  0  0  0
  9  6  1  0  0  0  0
  9  3  2  0  0  0  0
 10 14  2  0  0  0  0
 10 16  1  0  0  0  0
 11  1  1  0  0  0  0
 13  6  1  0  0  0  0
 15 21  1  1  0  0  0
 15 10  1  0  0  0  0
 16  5  1  0  0  0  0
 17  1  2  0  0  0  0
 17  7  1  0  0  0  0
 18 23  1  0  0  0  0
 19 20  1  0  0  0  0
 19 14  1  0  0  0  0
 21 12  1  0  0  0  0
 22 23  2  0  0  0  0
 22 12  1  0  0  0  0
 24 27  1  1  0  0  0
 25 28  1  0  0  0  0
 26 29  2  0  0  0  0
 28 24  1  0  0  0  0
 29 31  1  0  0  0  0
 30  5  1  6  0  0  0
 30 25  1  0  0  0  0
 30 29  1  0  0  0  0
 31 24  1  0  0  0  0
M  END
>  <MODEL>
2

>  <REMARK>
 VINA RESULT:      -5.6      7.724     12.315
  Name = 
  1 active torsions:
  status: ('A' for Active; 'I' for Inactive)
    1  A    between atoms: C_5  and  C_30
                            x       y       z     vdW  Elec       q    Type
                         _______ _______ _______ _____ _____    ______ ____

>  <TORSDO>
F 1

$$$$
=
 OpenBabel11122413303D

 31 35  0  0  1  0  0  0  0  0999 V2000
  162.0130  213.7650  147.1050 C   0  0  0  0  0  0  0  0  0  0  0  0
  159.8100  214.4370  150.1350 C   0  0  2  0  0  3  0  0  0  0  0  0
  158.3620  214.2240  149.7200 C   0  0  0  0  0  0  0  0  0  0  0  0
  160.4530  209.5800  152.1780 O   0  0  0  0  0  0  0  0  0  0  0  0
  160.0660  210.3520  153.0970 C   0  0  0  0  0  0  0  0  0  0  0  0
  156.6510  214.1100  147.9960 C   0  0  0  0  0  0  0  0  0  0  0  0
  160.7740  213.7750  149.1860 C   0  0  0  0  0  0  0  0  0  0  0  0
  162.4370  212.4580  147.3620 C   0  0  0  0  0  3  0  0  0  0  0  0
  157.9850  214.2850  148.3690 C   0  0  0  0  0  3  0  0  0  0  0  0
  160.2700  212.4510  151.6570 C   0  0  0  0  0  0  0  0  0  0  0  0
  162.4400  214.4530  145.8580 C   0  0  0  0  0  1  0  0  0  0  0  0
  157.6990  214.0210  152.0570 O   0  0  0  0  0  0  0  0  0  0  0  0
  156.3030  214.1570  146.6870 F   0  0  0  0  0  0  0  0  0  0  0  0
  160.8390  211.8170  150.6710 N   0  0  0  0  0  0  0  0  0  0  0  0
  160.0790  213.9550  151.5810 C   0  0  2  0  0  3  0  0  0  0  0  0
  159.9520  211.7630  152.8750 N   0  0  0  0  0  2  0  0  0  0  0  0
  161.1770  214.4220  148.0130 C   0  0  0  0  0  3  0  0  0  0  0  0
  155.6770  213.8850  148.9700 C   0  0  0  0  0  3  0  0  0  0  0  0
  161.2130  212.4660  149.4500 C   0  0  0  0  0  0  0  0  0  0  0  0
  162.0390  211.8080  148.5340 C   0  0  0  0  0  3  0  0  0  0  0  0
  158.9770  214.4530  152.5160 C   0  0  0  0  0  2  0  0  0  0  0  0
  157.3650  214.0370  150.7010 C   0  0  0  0  0  0  0  0  0  0  0  0
  156.0330  213.8500  150.3200 C   0  0  0  0  0  3  0  0  0  0  0  0
  161.6450  210.0420  156.7090 C   0  0  1  0  0  3  0  0  0  0  0  0
  159.6580  210.9110  155.5000 C   0  0  0  0  0  2  0  0  0  0  0  0
  160.5520  207.5690  154.2500 O   0  0  0  0  0  0  0  0  0  0  0  0
  163.0540  210.3470  157.1720 C   0  0  0  0  0  1  0  0  0  0  0  0
  161.0500  211.2610  156.0160 C   0  0  0  0  0  2  0  0  0  0  0  0
  160.6360  208.6810  154.8330 C   0  0  0  0  0  0  0  0  0  0  0  0
  159.7100  209.8020  154.4420 C   0  0  2  0  0  3  0  0  0  0  0  0
  161.6610  208.8910  155.8100 N   0  0  0  0  0  2  0  0  0  0  0  0
  1  8  2  0  0  0  0
  1 17  1  0  0  0  0
  2  7  1  6  0  0  0
  2 15  1  0  0  0  0
  3  2  1  0  0  0  0
  3 22  1  0  0  0  0
  4  5  2  0  0  0  0
  6  9  1  0  0  0  0
  6 18  2  0  0  0  0
  7 19  1  0  0  0  0
  8 20  1  0  0  0  0
  9  3  2  0  0  0  0
 10 16  1  0  0  0  0
 11  1  1  0  0  0  0
 12 21  1  0  0  0  0
 13  6  1  0  0  0  0
 14 10  2  0  0  0  0
 15 10  1  0  0  0  0
 15 21  1  1  0  0  0
 16  5  1  0  0  0  0
 17  7  2  0  0  0  0
 18 23  1  0  0  0  0
 19 14  1  0  0  0  0
 20 19  2  0  0  0  0
 22 12  1  0  0  0  0
 23 22  2  0  0  0  0
 24 27  1  6  0  0  0
 25 28  1  0  0  0  0
 26 29  2  0  0  0  0
 28 24  1  0  0  0  0
 29 31  1  0  0  0  0
 30  5  1  6  0  0  0
 30 29  1  0  0  0  0
 30 25  1  0  0  0  0
 31 24  1  0  0  0  0
M  END
>  <MODEL>
3

>  <REMARK>
 VINA RESULT:      -5.5      3.288      8.051
  Name = 
  1 active torsions:
  status: ('A' for Active; 'I' for Inactive)
    1  A    between atoms: C_5  and  C_30
                            x       y       z     vdW  Elec       q    Type
                         _______ _______ _______ _____ _____    ______ ____

>  <TORSDO>
F 1

$$$$
=
 OpenBabel11122413303D

 31 35  0  0  1  0  0  0  0  0999 V2000
  161.5080  206.0990  152.6420 C   0  0  0  0  0  0  0  0  0  0  0  0
  159.8760  209.4200  153.5360 C   0  0  2  0  0  3  0  0  0  0  0  0
  160.6930  210.0610  154.6470 C   0  0  0  0  0  0  0  0  0  0  0  0
  162.2230  212.0900  149.5940 O   0  0  0  0  0  0  0  0  0  0  0  0
  161.2130  212.7430  149.9730 C   0  0  0  0  0  0  0  0  0  0  0  0
  162.2670  209.8770  156.4900 C   0  0  0  0  0  0  0  0  0  0  0  0
  160.6540  208.3610  152.8000 C   0  0  0  0  0  0  0  0  0  0  0  0
  162.2370  206.4530  151.5020 C   0  0  0  0  0  3  0  0  0  0  0  0
  161.5350  209.2860  155.4590 C   0  0  0  0  0  3  0  0  0  0  0  0
  160.3820  210.8920  151.5240 C   0  0  0  0  0  0  0  0  0  0  0  0
  161.5800  204.7110  153.1690 C   0  0  0  0  0  1  0  0  0  0  0  0
  159.6890  212.2290  154.1640 O   0  0  0  0  0  0  0  0  0  0  0  0
  163.0880  209.1200  157.2590 F   0  0  0  0  0  0  0  0  0  0  0  0
  161.2730  210.0360  151.1110 N   0  0  0  0  0  0  0  0  0  0  0  0
  159.3310  210.4660  152.5330 C   0  0  2  0  0  3  0  0  0  0  0  0
  160.2960  212.1940  150.9270 N   0  0  0  0  0  2  0  0  0  0  0  0
  160.7210  207.0530  153.2940 C   0  0  0  0  0  3  0  0  0  0  0  0
  162.1560  211.2480  156.7300 C   0  0  0  0  0  3  0  0  0  0  0  0
  161.3750  208.7110  151.6460 C   0  0  0  0  0  0  0  0  0  0  0  0
  162.1700  207.7570  151.0030 C   0  0  0  0  0  3  0  0  0  0  0  0
  158.7270  211.6510  153.2850 C   0  0  0  0  0  2  0  0  0  0  0  0
  160.5560  211.4390  154.9210 C   0  0  0  0  0  0  0  0  0  0  0  0
  161.3000  212.0270  155.9470 C   0  0  0  0  0  3  0  0  0  0  0  0
  159.4700  214.4530  146.8630 C   0  0  1  0  0  3  0  0  0  0  0  0
  159.4560  214.4080  149.3460 C   0  0  0  0  0  2  0  0  0  0  0  0
  162.9130  214.4380  148.0890 O   0  0  0  0  0  0  0  0  0  0  0  0
  158.9200  213.8220  145.6020 C   0  0  0  0  0  1  0  0  0  0  0  0
  158.8390  213.8040  148.0880 C   0  0  0  0  0  2  0  0  0  0  0  0
  161.6600  214.3210  148.1180 C   0  0  0  0  0  0  0  0  0  0  0  0
  160.9590  214.1160  149.4340 C   0  0  2  0  0  3  0  0  0  0  0  0
  160.9230  214.3100  146.8910 N   0  0  0  0  0  2  0  0  0  0  0  0
  1 11  1  0  0  0  0
  1 17  1  0  0  0  0
  2  7  1  6  0  0  0
  2  3  1  0  0  0  0
  3 22  2  0  0  0  0
  3  9  1  0  0  0  0
  4  5  2  0  0  0  0
  5 16  1  0  0  0  0
  6 18  1  0  0  0  0
  6 13  1  0  0  0  0
  7 17  2  0  0  0  0
  8  1  2  0  0  0  0
  9  6  2  0  0  0  0
 10 15  1  0  0  0  0
 12 22  1  0  0  0  0
 14 10  2  0  0  0  0
 14 19  1  0  0  0  0
 15 21  1  1  0  0  0
 15  2  1  0  0  0  0
 16 10  1  0  0  0  0
 19  7  1  0  0  0  0
 20  8  1  0  0  0  0
 20 19  2  0  0  0  0
 21 12  1  0  0  0  0
 22 23  1  0  0  0  0
 23 18  2  0  0  0  0
 24 27  1  6  0  0  0
 24 31  1  0  0  0  0
 24 28  1  0  0  0  0
 25 30  1  0  0  0  0
 26 29  2  0  0  0  0
 28 25  1  0  0  0  0
 29 30  1  0  0  0  0
 30  5  1  6  0  0  0
 31 29  1  0  0  0  0
M  END
>  <MODEL>
4

>  <REMARK>
 VINA RESULT:      -4.7      2.344      4.303
  Name = 
  1 active torsions:
  status: ('A' for Active; 'I' for Inactive)
    1  A    between atoms: C_5  and  C_30
                            x       y       z     vdW  Elec       q    Type
                         _______ _______ _______ _____ _____    ______ ____

>  <TORSDO>
F 1

$$$$
