=
 OpenBabel11122414063D

 28 31  0  0  1  0  0  0  0  0999 V2000
  158.2540  211.8840  153.3960 C   0  0  0  0  0  0  0  0  0  0  0  0
  160.4810  209.2960  151.3060 O   0  0  0  0  0  0  0  0  0  0  0  0
  159.1510  214.0670  151.8880 C   0  0  0  0  0  3  0  0  0  0  0  0
  157.8160  210.7990  154.1550 O   0  0  0  0  0  0  0  0  0  0  0  0
  162.6050  210.1940  152.1600 O   0  0  0  0  0  0  0  0  0  0  0  0
  161.4230  209.3220  152.4770 S   0  0  0  0  0  0  0  0  0  0  0  0
  160.9150  207.0550  153.6110 C   0  0  1  0  0  3  0  0  0  0  0  0
  160.5780  209.9050  153.9240 C   0  0  1  0  0  3  0  0  0  0  0  0
  156.7460  213.0560  155.9950 O   0  0  0  0  0  1  0  0  0  0  0  0
  160.6530  211.6050  155.6540 C   0  0  2  0  0  3  0  0  0  0  0  0
  160.9020  207.5760  155.3810 S   0  0  0  0  0  0  0  0  0  0  0  0
  161.9670  207.7140  152.8400 N   0  0  0  0  0  2  0  0  0  0  0  0
  156.9570  211.6980  156.2460 C   0  0  2  0  0  3  0  0  0  0  0  0
  159.6300  212.1790  153.3340 C   0  0  0  0  0  0  0  0  0  0  0  0
  161.0920  205.5540  153.5310 C   0  0  0  0  0  1  0  0  0  0  0  0
  158.3500  211.4360  156.8360 C   0  0  0  0  0  2  0  0  0  0  0  0
  160.0670  213.2730  152.5800 C   0  0  0  0  0  3  0  0  0  0  0  0
  157.3370  212.6930  152.7090 C   0  0  0  0  0  3  0  0  0  0  0  0
  157.7850  213.7790  151.9540 C   0  0  0  0  0  3  0  0  0  0  0  0
  156.6740  210.8640  154.9970 C   0  0  0  0  0  2  0  0  0  0  0  0
  160.9150  210.2320  156.2790 C   0  0  1  0  0  3  0  0  0  0  0  0
  159.4390  212.3500  156.2520 C   0  0  1  0  0  3  0  0  0  0  0  0
  161.3000  209.3410  155.1150 C   0  0  2  0  0  3  0  0  0  0  0  0
  160.6520  211.4020  154.1250 C   0  0  2  0  0  3  0  0  0  0  0  0
  160.0500  214.4530  156.5680 C   0  0  0  0  0  1  0  0  0  0  0  0
  159.8730  213.2400  157.2360 O   0  0  0  0  0  0  0  0  0  0  0  0
  161.9740  210.3140  157.1850 O   0  0  0  0  0  0  0  0  0  0  0  0
  163.0690  210.7170  156.4200 C   0  0  0  0  0  1  0  0  0  0  0  0
  1  4  1  0  0  0  0
  2  6  2  0  0  0  0
  3 19  2  0  0  0  0
  3 17  1  0  0  0  0
  4 20  1  0  0  0  0
  5  6  2  0  0  0  0
  6 12  1  0  0  0  0
  7 15  1  1  0  0  0
  7 11  1  0  0  0  0
  8  6  1  6  0  0  0
  8 24  1  0  0  0  0
  8 23  1  0  0  0  0
  9 13  1  0  0  0  0
 10 22  1  0  0  0  0
 10 21  1  0  0  0  0
 12  7  1  0  0  0  0
 13 16  1  0  0  0  0
 14  1  1  0  0  0  0
 14 24  1  0  0  0  0
 17 14  2  0  0  0  0
 18  1  2  0  0  0  0
 19 18  1  0  0  0  0
 20 13  1  0  0  0  0
 21 27  1  0  0  0  0
 22 16  1  0  0  0  0
 22 26  1  0  0  0  0
 23 11  1  0  0  0  0
 23 21  1  0  0  0  0
 24 10  1  0  0  0  0
 25 26  1  0  0  0  0
 28 27  1  0  0  0  0
M  END
>  <MODEL>
1

>  <REMARK>
 VINA RESULT:      -4.0      0.000      0.000
  Name = 
  2 active torsions:
  status: ('A' for Active; 'I' for Inactive)
    1  A    between atoms: O_5  and  C_24
    2  A    between atoms: O_17  and  C_25
                            x       y       z     vdW  Elec       q    Type
                         _______ _______ _______ _____ _____    ______ ____

>  <TORSDO>
F 2

$$$$
=
 OpenBabel11122414063D

 28 31  0  0  1  0  0  0  0  0999 V2000
  161.1980  209.3190  155.7490 C   0  0  0  0  0  0  0  0  0  0  0  0
  158.8870  212.2180  157.2610 O   0  0  0  0  0  0  0  0  0  0  0  0
  163.4920  210.3200  157.0050 C   0  0  0  0  0  3  0  0  0  0  0  0
  160.0580  208.8280  155.1130 O   0  0  0  0  0  0  0  0  0  0  0  0
  159.9670  213.9840  155.9340 O   0  0  0  0  0  0  0  0  0  0  0  0
  158.9770  212.8540  155.9030 S   0  0  0  0  0  0  0  0  0  0  0  0
  156.6460  212.3250  154.9190 C   0  0  1  0  0  3  0  0  0  0  0  0
  159.4420  211.6420  154.6930 C   0  0  1  0  0  3  0  0  0  0  0  0
  162.1570  207.1390  153.5740 O   0  0  0  0  0  1  0  0  0  0  0  0
  161.1000  211.1430  152.9930 C   0  0  2  0  0  3  0  0  0  0  0  0
  157.1210  211.8490  153.2010 S   0  0  0  0  0  0  0  0  0  0  0  0
  157.4210  213.4560  155.4220 N   0  0  0  0  0  2  0  0  0  0  0  0
  160.8200  207.4210  153.2810 C   0  0  2  0  0  3  0  0  0  0  0  0
  161.6250  210.6350  155.4880 C   0  0  0  0  0  0  0  0  0  0  0  0
  155.1710  212.6640  154.9560 C   0  0  0  0  0  1  0  0  0  0  0  0
  160.6800  208.6570  152.3820 C   0  0  0  0  0  2  0  0  0  0  0  0
  162.7740  211.1250  156.1180 C   0  0  0  0  0  3  0  0  0  0  0  0
  161.9290  208.5110  156.6320 C   0  0  0  0  0  3  0  0  0  0  0  0
  163.0710  209.0120  157.2610 C   0  0  0  0  0  3  0  0  0  0  0  0
  159.9920  207.5200  154.5620 C   0  0  0  0  0  2  0  0  0  0  0  0
  159.7440  211.3880  152.3240 C   0  0  1  0  0  3  0  0  0  0  0  0
  161.7090  209.7550  152.6950 C   0  0  1  0  0  3  0  0  0  0  0  0
  158.9220  212.1200  153.3660 C   0  0  2  0  0  3  0  0  0  0  0  0
  160.9330  211.5180  154.4790 C   0  0  2  0  0  3  0  0  0  0  0  0
  162.0160  209.1590  150.5860 C   0  0  0  0  0  1  0  0  0  0  0  0
  162.6130  209.8570  151.6370 O   0  0  0  0  0  0  0  0  0  0  0  0
  159.9070  212.1930  151.1960 O   0  0  0  0  0  0  0  0  0  0  0  0
  159.6840  213.4940  151.6490 C   0  0  0  0  0  1  0  0  0  0  0  0
  1 18  1  0  0  0  0
  3 19  1  0  0  0  0
  4  1  1  0  0  0  0
  6  5  2  0  0  0  0
  6  2  2  0  0  0  0
  7 15  1  6  0  0  0
  7 12  1  0  0  0  0
  8  6  1  1  0  0  0
 10 24  1  0  0  0  0
 11 23  1  0  0  0  0
 11  7  1  0  0  0  0
 12  6  1  0  0  0  0
 13  9  1  0  0  0  0
 13 20  1  0  0  0  0
 14  1  2  0  0  0  0
 14 17  1  0  0  0  0
 16 22  1  0  0  0  0
 16 13  1  0  0  0  0
 17  3  2  0  0  0  0
 18 19  2  0  0  0  0
 20  4  1  0  0  0  0
 21 10  1  0  0  0  0
 21 23  1  0  0  0  0
 22 10  1  0  0  0  0
 23  8  1  0  0  0  0
 24  8  1  0  0  0  0
 24 14  1  0  0  0  0
 25 26  1  0  0  0  0
 26 22  1  0  0  0  0
 27 28  1  0  0  0  0
 27 21  1  0  0  0  0
M  END
>  <MODEL>
2

>  <REMARK>
 VINA RESULT:      -2.3      2.654      6.113
  Name = 
  2 active torsions:
  status: ('A' for Active; 'I' for Inactive)
    1  A    between atoms: O_5  and  C_24
    2  A    between atoms: O_17  and  C_25
                            x       y       z     vdW  Elec       q    Type
                         _______ _______ _______ _____ _____    ______ ____

>  <TORSDO>
F 2

$$$$
