=
 OpenBabel11122414103D

 28 32  0  0  1  0  0  0  0  0999 V2000
  160.9840  209.2900  156.5350 C   0  0  0  0  0  0  0  0  0  0  0  0
  157.1110  211.4400  153.9040 O   0  0  0  0  0  1  0  0  0  0  0  0
  162.3390  208.0350  152.3610 O   0  0  0  0  0  0  0  0  0  0  0  0
  163.0920  211.1230  156.3550 C   0  0  0  0  0  3  0  0  0  0  0  0
  161.0970  210.0330  151.9300 C   0  0  0  0  0  0  0  0  0  0  0  0
  159.9510  208.3530  156.5720 O   0  0  0  0  0  0  0  0  0  0  0  0
  157.5650  212.9000  155.7120 C   0  0  0  0  0  1  0  0  0  0  0  0
  157.9630  212.4710  154.3130 C   0  0  1  0  0  0  0  0  0  0  0  0
  158.2660  213.2980  152.0000 C   0  0  1  0  0  3  0  0  0  0  0  0
  159.4490  212.0100  154.3340 C   0  0  2  0  0  3  0  0  0  0  0  0
  162.1090  206.8790  155.0240 F   0  0  0  0  0  0  0  0  0  0  0  0
  159.4830  209.7010  153.6500 C   0  0  1  0  0  3  0  0  0  0  0  0
  159.7580  213.0260  152.0740 C   0  0  0  0  0  2  0  0  0  0  0  0
  157.7760  213.6600  153.3860 C   0  0  0  0  0  2  0  0  0  0  0  0
  160.7580  206.5870  155.1010 C   0  0  2  0  0  3  0  0  0  0  0  0
  160.8480  210.4230  155.7180 C   0  0  0  0  0  0  0  0  0  0  0  0
  161.3910  208.8180  152.6350 C   0  0  0  0  0  0  0  0  0  0  0  0
  158.0100  214.4530  151.0560 C   0  0  0  0  0  1  0  0  0  0  0  0
  159.9770  207.2130  153.9410 C   0  0  0  0  0  2  0  0  0  0  0  0
  161.9190  211.3300  155.6260 C   0  0  0  0  0  3  0  0  0  0  0  0
  162.1660  209.0820  157.2610 C   0  0  0  0  0  3  0  0  0  0  0  0
  163.2140  210.0000  157.1750 C   0  0  0  0  0  3  0  0  0  0  0  0
  160.1920  206.9560  156.4740 C   0  0  0  0  0  2  0  0  0  0  0  0
  159.8400  210.6260  152.4610 C   0  0  1  0  0  3  0  0  0  0  0  0
  160.4240  208.5720  153.6400 N   0  0  0  0  0  0  0  0  0  0  0  0
  160.1030  211.9510  153.0140 N   0  0  2  0  0  0  0  0  0  0  0  0
  161.7760  210.5020  150.9780 O   0  0  0  0  0  0  0  0  0  0  0  0
  159.5800  210.5990  154.9020 C   0  0  1  0  0  3  0  0  0  0  0  0
  1  6  1  0  0  0  0
  1 21  1  0  0  0  0
  2  8  1  0  0  0  0
  3 17  2  0  0  0  0
  4 22  1  0  0  0  0
  5 24  1  0  0  0  0
  5 17  1  0  0  0  0
  8 10  1  0  0  0  0
  8  7  1  1  0  0  0
  9 18  1  6  0  0  0
  9 13  1  0  0  0  0
  9 14  1  0  0  0  0
 10 28  1  0  0  0  0
 11 15  1  0  0  0  0
 12 28  1  0  0  0  0
 13 26  1  0  0  0  0
 14  8  1  0  0  0  0
 15 23  1  0  0  0  0
 16  1  2  0  0  0  0
 17 25  1  0  0  0  0
 19 15  1  0  0  0  0
 20 16  1  0  0  0  0
 20  4  2  0  0  0  0
 22 21  2  0  0  0  0
 23  6  1  0  0  0  0
 24 26  1  0  0  0  0
 24 12  1  0  0  0  0
 25 12  1  0  0  0  0
 25 19  1  0  0  0  0
 26 10  1  0  0  0  0
 27  5  2  0  0  0  0
 28 16  1  0  0  0  0
M  END
>  <MODEL>
1

>  <REMARK>
 VINA RESULT:      -3.1      0.000      0.000
  Name = 
  0 active torsions:
  status: ('A' for Active; 'I' for Inactive)
                            x       y       z     vdW  Elec       q    Type
                         _______ _______ _______ _____ _____    ______ ____

>  <TORSDO>
F 0

$$$$
=
 OpenBabel11122414103D

 28 32  0  0  1  0  0  0  0  0999 V2000
  157.4550  211.5950  156.2860 C   0  0  0  0  0  0  0  0  0  0  0  0
  161.9760  209.3790  155.1970 O   0  0  0  0  0  1  0  0  0  0  0  0
  158.3840  213.9790  152.5070 O   0  0  0  0  0  0  0  0  0  0  0  0
  155.5910  210.2860  154.6580 C   0  0  0  0  0  3  0  0  0  0  0  0
  159.5520  211.9260  152.1310 C   0  0  0  0  0  0  0  0  0  0  0  0
  158.3940  212.2840  157.0530 O   0  0  0  0  0  0  0  0  0  0  0  0
  160.6100  207.6690  156.1010 C   0  0  0  0  0  1  0  0  0  0  0  0
  160.9710  208.4660  154.8630 C   0  0  1  0  0  0  0  0  0  0  0  0
  161.7820  208.2450  152.5350 C   0  0  1  0  0  3  0  0  0  0  0  0
  159.6950  209.1870  154.3420 C   0  0  2  0  0  3  0  0  0  0  0  0
  157.3600  214.4500  155.1920 F   0  0  0  0  0  0  0  0  0  0  0  0
  160.1410  211.5520  154.4090 C   0  0  1  0  0  3  0  0  0  0  0  0
  160.4620  208.7750  152.0010 C   0  0  0  0  0  2  0  0  0  0  0  0
  161.5110  207.4980  153.8230 C   0  0  0  0  0  2  0  0  0  0  0  0
  158.5170  214.4530  155.9510 C   0  0  2  0  0  3  0  0  0  0  0  0
  157.9000  210.6660  155.3330 C   0  0  0  0  0  0  0  0  0  0  0  0
  159.0280  212.9870  152.9430 C   0  0  0  0  0  0  0  0  0  0  0  0
  162.3920  207.3010  151.5220 C   0  0  0  0  0  1  0  0  0  0  0  0
  159.7230  213.9610  155.1450 C   0  0  0  0  0  2  0  0  0  0  0  0
  156.9560  210.0240  154.5120 C   0  0  0  0  0  3  0  0  0  0  0  0
  156.0850  211.8590  156.4260 C   0  0  0  0  0  3  0  0  0  0  0  0
  155.1560  211.2020  155.6170 C   0  0  0  0  0  3  0  0  0  0  0  0
  158.3190  213.6880  157.2610 C   0  0  0  0  0  2  0  0  0  0  0  0
  160.3520  211.0000  152.9780 C   0  0  1  0  0  3  0  0  0  0  0  0
  159.3960  212.8150  154.2990 N   0  0  0  0  0  0  0  0  0  0  0  0
  159.7710  209.6610  152.9480 N   0  0  2  0  0  0  0  0  0  0  0  0
  159.3940  211.8180  150.8860 O   0  0  0  0  0  0  0  0  0  0  0  0
  159.3920  210.4350  155.1660 C   0  0  1  0  0  3  0  0  0  0  0  0
  1 21  1  0  0  0  0
  1  6  1  0  0  0  0
  3 17  2  0  0  0  0
  4 22  1  0  0  0  0
  5 17  1  0  0  0  0
  5 24  1  0  0  0  0
  6 23  1  0  0  0  0
  8  2  1  0  0  0  0
  8  7  1  1  0  0  0
  9 18  1  6  0  0  0
  9 14  1  0  0  0  0
 10  8  1  0  0  0  0
 10 28  1  0  0  0  0
 11 15  1  0  0  0  0
 12 28  1  0  0  0  0
 13  9  1  0  0  0  0
 13 26  1  0  0  0  0
 14  8  1  0  0  0  0
 15 23  1  0  0  0  0
 16  1  2  0  0  0  0
 17 25  1  0  0  0  0
 19 15  1  0  0  0  0
 20  4  2  0  0  0  0
 20 16  1  0  0  0  0
 22 21  2  0  0  0  0
 24 12  1  0  0  0  0
 25 12  1  0  0  0  0
 25 19  1  0  0  0  0
 26 24  1  0  0  0  0
 26 10  1  0  0  0  0
 27  5  2  0  0  0  0
 28 16  1  0  0  0  0
M  END
>  <MODEL>
2

>  <REMARK>
 VINA RESULT:      -1.6      2.591      5.629
  Name = 
  0 active torsions:
  status: ('A' for Active; 'I' for Inactive)
                            x       y       z     vdW  Elec       q    Type
                         _______ _______ _______ _____ _____    ______ ____

>  <TORSDO>
F 0

$$$$
=
 OpenBabel11122414103D

 28 32  0  0  1  0  0  0  0  0999 V2000
  161.7100  210.0570  154.2650 C   0  0  0  0  0  0  0  0  0  0  0  0
  160.2410  214.3890  151.8940 O   0  0  0  0  0  1  0  0  0  0  0  0
  157.9260  210.8080  156.7030 O   0  0  0  0  0  0  0  0  0  0  0  0
  160.1950  208.0260  153.0740 C   0  0  0  0  0  3  0  0  0  0  0  0
  157.4200  211.8570  154.6140 C   0  0  0  0  0  0  0  0  0  0  0  0
  162.4200  211.0780  154.8960 O   0  0  0  0  0  0  0  0  0  0  0  0
  161.2060  213.0210  150.2200 C   0  0  0  0  0  1  0  0  0  0  0  0
  159.9620  213.3240  151.0320 C   0  0  1  0  0  0  0  0  0  0  0  0
  157.5760  213.9530  150.8360 C   0  0  1  0  0  3  0  0  0  0  0  0
  159.5530  212.0450  151.8170 C   0  0  2  0  0  3  0  0  0  0  0  0
  160.6890  210.0030  157.1480 F   0  0  0  0  0  0  0  0  0  0  0  0
  159.6390  212.5950  154.1590 C   0  0  1  0  0  3  0  0  0  0  0  0
  157.1530  212.6210  151.4330 C   0  0  0  0  0  2  0  0  0  0  0  0
  158.8640  213.7450  150.0690 C   0  0  0  0  0  2  0  0  0  0  0  0
  161.3600  211.2120  157.0850 C   0  0  2  0  0  3  0  0  0  0  0  0
  160.7070  210.3910  153.3430 C   0  0  0  0  0  0  0  0  0  0  0  0
  158.2910  211.4390  155.6750 C   0  0  0  0  0  0  0  0  0  0  0  0
  156.5000  214.4470  149.8940 C   0  0  0  0  0  1  0  0  0  0  0  0
  160.4560  212.3350  156.5650 C   0  0  0  0  0  2  0  0  0  0  0  0
  159.9430  209.3630  152.7610 C   0  0  0  0  0  3  0  0  0  0  0  0
  161.9560  208.7130  154.5810 C   0  0  0  0  0  3  0  0  0  0  0  0
  161.2040  207.7010  153.9830 C   0  0  0  0  0  3  0  0  0  0  0  0
  162.6640  211.0780  156.2960 C   0  0  0  0  0  2  0  0  0  0  0  0
  158.1850  212.6770  153.6350 C   0  0  1  0  0  3  0  0  0  0  0  0
  159.6120  211.8980  155.4540 N   0  0  0  0  0  0  0  0  0  0  0  0
  158.1680  212.0390  152.3230 N   0  0  2  0  0  0  0  0  0  0  0  0
  156.1880  211.6050  154.5440 O   0  0  0  0  0  0  0  0  0  0  0  0
  160.4240  211.8560  153.0560 C   0  0  1  0  0  3  0  0  0  0  0  0
  1 21  1  0  0  0  0
  1  6  1  0  0  0  0
  4 22  1  0  0  0  0
  5 17  1  0  0  0  0
  6 23  1  0  0  0  0
  8  7  1  6  0  0  0
  8 10  1  0  0  0  0
  8  2  1  0  0  0  0
  9 18  1  6  0  0  0
  9 13  1  0  0  0  0
 10 26  1  0  0  0  0
 10 28  1  0  0  0  0
 12 25  1  0  0  0  0
 13 26  1  0  0  0  0
 14  9  1  0  0  0  0
 14  8  1  0  0  0  0
 15 11  1  0  0  0  0
 16  1  2  0  0  0  0
 17  3  2  0  0  0  0
 19 15  1  0  0  0  0
 20  4  2  0  0  0  0
 20 16  1  0  0  0  0
 22 21  2  0  0  0  0
 23 15  1  0  0  0  0
 24 12  1  0  0  0  0
 24  5  1  0  0  0  0
 25 17  1  0  0  0  0
 25 19  1  0  0  0  0
 26 24  1  0  0  0  0
 27  5  2  0  0  0  0
 28 16  1  0  0  0  0
 28 12  1  0  0  0  0
M  END
>  <MODEL>
3

>  <REMARK>
 VINA RESULT:      -1.1      2.108      4.202
  Name = 
  0 active torsions:
  status: ('A' for Active; 'I' for Inactive)
                            x       y       z     vdW  Elec       q    Type
                         _______ _______ _______ _____ _____    ______ ____

>  <TORSDO>
F 0

$$$$
