=
 OpenBabel11122413133D

 31 35  0  0  1  0  0  0  0  0999 V2000
  161.3820  207.3590  152.7750 C   0  0  0  0  0  0  0  0  0  0  0  0
  159.4560  210.5580  153.4890 C   0  0  2  0  0  3  0  0  0  0  0  0
  159.9750  211.0500  154.8650 C   0  0  1  0  0  3  0  0  0  0  0  0
  161.8020  211.4660  156.4540 N   0  0  0  0  0  0  0  0  0  0  0  0
  160.3570  209.5560  152.8190 C   0  0  0  0  0  0  0  0  0  0  0  0
  162.1090  207.7190  151.6370 C   0  0  0  0  0  3  0  0  0  0  0  0
  161.4800  210.9250  155.1280 C   0  0  0  0  0  2  0  0  0  0  0  0
  160.3430  212.2480  151.9450 N   0  0  0  0  0  0  0  0  0  0  0  0
  161.5300  206.0910  153.3220 O   0  0  0  0  0  1  0  0  0  0  0  0
  158.2770  212.7200  154.6940 O   0  0  0  0  0  0  0  0  0  0  0  0
  163.0380  211.0650  157.0960 C   0  0  0  0  0  1  0  0  0  0  0  0
  160.8670  211.2460  151.0110 C   0  0  0  0  0  2  0  0  0  0  0  0
  159.0980  211.7240  152.5360 C   0  0  2  0  0  3  0  0  0  0  0  0
  160.5070  208.2740  153.3660 C   0  0  0  0  0  3  0  0  0  0  0  0
  160.9500  212.4230  157.1140 C   0  0  0  0  0  3  0  0  0  0  0  0
  161.0980  209.9190  151.6780 C   0  0  0  0  0  0  0  0  0  0  0  0
  161.9610  208.9940  151.0850 C   0  0  0  0  0  3  0  0  0  0  0  0
  158.2840  212.8290  153.2820 C   0  0  0  0  0  2  0  0  0  0  0  0
  159.6030  212.5120  155.0830 C   0  0  1  0  0  3  0  0  0  0  0  0
  159.8660  212.9090  156.5000 C   0  0  0  0  0  3  0  0  0  0  0  0
  160.0690  213.4390  151.1470 C   0  0  0  0  0  2  0  0  0  0  0  0
  161.5070  212.8290  149.3580 O   0  0  0  0  0  0  0  0  0  0  0  0
  160.3370  213.1420  149.7060 C   0  0  0  0  0  0  0  0  0  0  0  0
  157.3390  213.6960  146.7220 N   0  0  0  0  0  0  0  0  0  0  0  0
  159.7000  213.6570  147.3450 C   0  0  0  0  0  2  0  0  0  0  0  0
  157.5710  212.3930  150.0000 O   0  0  0  0  0  0  0  0  0  0  0  0
  156.3560  214.4530  145.9700 C   0  0  0  0  0  1  0  0  0  0  0  0
  158.5900  214.4490  146.6550 C   0  0  0  0  0  2  0  0  0  0  0  0
  157.9220  213.0760  149.0010 C   0  0  0  0  0  0  0  0  0  0  0  0
  159.3120  213.3130  148.7130 N   0  0  0  0  0  0  0  0  0  0  0  0
  156.8780  213.6750  148.1100 C   0  0  0  0  0  2  0  0  0  0  0  0
  1  9  1  0  0  0  0
  1 14  1  0  0  0  0
  2  5  1  6  0  0  0
  2  3  1  0  0  0  0
  3 19  1  0  0  0  0
  3  7  1  6  0  0  0
  4 11  1  0  0  0  0
  4 15  1  0  0  0  0
  5 14  2  0  0  0  0
  6  1  2  0  0  0  0
  7  4  1  0  0  0  0
  8 13  1  0  0  0  0
 10 19  1  0  0  0  0
 12 16  1  0  0  0  0
 12  8  1  0  0  0  0
 13 18  1  1  0  0  0
 13  2  1  0  0  0  0
 16  5  1  0  0  0  0
 17  6  1  0  0  0  0
 17 16  2  0  0  0  0
 18 10  1  0  0  0  0
 19 20  1  1  0  0  0
 20 15  2  0  0  0  0
 21  8  1  0  0  0  0
 22 23  2  0  0  0  0
 23 21  1  0  0  0  0
 24 31  1  0  0  0  0
 25 30  1  0  0  0  0
 27 24  1  0  0  0  0
 28 24  1  0  0  0  0
 28 25  1  0  0  0  0
 29 26  2  0  0  0  0
 30 29  1  0  0  0  0
 30 23  1  0  0  0  0
 31 29  1  0  0  0  0
M  END
>  <MODEL>
1

>  <REMARK>
 VINA RESULT:      -5.0      0.000      0.000
  Name = 
  2 active torsions:
  status: ('A' for Active; 'I' for Inactive)
    1  A    between atoms: C_5  and  C_16
    2  A    between atoms: N_10  and  C_16
                            x       y       z     vdW  Elec       q    Type
                         _______ _______ _______ _____ _____    ______ ____

>  <TORSDO>
F 2

$$$$
=
 OpenBabel11122413133D

 31 35  0  0  1  0  0  0  0  0999 V2000
  157.5960  214.0770  149.8680 C   0  0  0  0  0  0  0  0  0  0  0  0
  160.0380  214.3500  146.9670 C   0  0  2  0  0  3  0  0  0  0  0  0
  161.2730  213.5140  147.3910 C   0  0  1  0  0  3  0  0  0  0  0  0
  162.2720  211.5130  148.4070 N   0  0  0  0  0  0  0  0  0  0  0  0
  158.7950  214.0510  147.7600 C   0  0  0  0  0  0  0  0  0  0  0  0
  156.5270  213.4050  149.2700 C   0  0  0  0  0  3  0  0  0  0  0  0
  161.0030  212.1880  148.1120 C   0  0  0  0  0  2  0  0  0  0  0  0
  159.0850  213.0130  145.1430 N   0  0  0  0  0  0  0  0  0  0  0  0
  157.5350  214.4230  151.2110 O   0  0  0  0  0  1  0  0  0  0  0  0
  162.2820  214.3410  145.3920 O   0  0  0  0  0  0  0  0  0  0  0  0
  162.3050  210.5010  149.4450 C   0  0  0  0  0  1  0  0  0  0  0  0
  157.7250  213.0820  145.6870 C   0  0  0  0  0  2  0  0  0  0  0  0
  159.7690  214.2840  145.4440 C   0  0  2  0  0  3  0  0  0  0  0  0
  158.7280  214.4010  149.1150 C   0  0  0  0  0  3  0  0  0  0  0  0
  163.4750  211.7890  147.6630 C   0  0  0  0  0  3  0  0  0  0  0  0
  157.7200  213.3650  147.1630 C   0  0  0  0  0  0  0  0  0  0  0  0
  156.5860  213.0560  147.9170 C   0  0  0  0  0  3  0  0  0  0  0  0
  161.0920  214.4530  144.6320 C   0  0  0  0  0  2  0  0  0  0  0  0
  162.1440  213.1960  146.1810 C   0  0  1  0  0  3  0  0  0  0  0  0
  163.4530  212.6240  146.6190 C   0  0  0  0  0  3  0  0  0  0  0  0
  158.9350  212.8410  143.7010 C   0  0  0  0  0  2  0  0  0  0  0  0
  160.4290  211.0220  144.0100 O   0  0  0  0  0  0  0  0  0  0  0  0
  159.9650  211.8760  143.2080 C   0  0  0  0  0  0  0  0  0  0  0  0
  161.6250  212.1950  139.2920 N   0  0  0  0  0  0  0  0  0  0  0  0
  161.8690  211.5260  141.6270 C   0  0  0  0  0  2  0  0  0  0  0  0
  158.4510  212.4510  140.8260 O   0  0  0  0  0  0  0  0  0  0  0  0
  162.3140  212.8680  138.2060 C   0  0  0  0  0  1  0  0  0  0  0  0
  162.4880  212.3030  140.4660 C   0  0  0  0  0  2  0  0  0  0  0  0
  159.7090  212.4450  140.7690 C   0  0  0  0  0  0  0  0  0  0  0  0
  160.5010  211.9820  141.8790 N   0  0  0  0  0  0  0  0  0  0  0  0
  160.3990  212.9520  139.5400 C   0  0  0  0  0  2  0  0  0  0  0  0
  1  9  1  0  0  0  0
  2  3  1  0  0  0  0
  2  5  1  1  0  0  0
  3  7  1  6  0  0  0
  4 11  1  0  0  0  0
  5 14  1  0  0  0  0
  6  1  1  0  0  0  0
  7  4  1  0  0  0  0
  8 13  1  0  0  0  0
  8 12  1  0  0  0  0
 10 19  1  0  0  0  0
 12 16  1  0  0  0  0
 13 18  1  6  0  0  0
 13  2  1  0  0  0  0
 14  1  2  0  0  0  0
 15  4  1  0  0  0  0
 16  5  2  0  0  0  0
 16 17  1  0  0  0  0
 17  6  2  0  0  0  0
 18 10  1  0  0  0  0
 19 20  1  1  0  0  0
 19  3  1  0  0  0  0
 20 15  2  0  0  0  0
 21  8  1  0  0  0  0
 23 21  1  0  0  0  0
 23 22  2  0  0  0  0
 24 31  1  0  0  0  0
 24 28  1  0  0  0  0
 25 30  1  0  0  0  0
 27 24  1  0  0  0  0
 28 25  1  0  0  0  0
 29 26  2  0  0  0  0
 29 30  1  0  0  0  0
 30 23  1  0  0  0  0
 31 29  1  0  0  0  0
M  END
>  <MODEL>
2

>  <REMARK>
 VINA RESULT:      -4.3      4.645      8.153
  Name = 
  2 active torsions:
  status: ('A' for Active; 'I' for Inactive)
    1  A    between atoms: C_5  and  C_16
    2  A    between atoms: N_10  and  C_16
                            x       y       z     vdW  Elec       q    Type
                         _______ _______ _______ _____ _____    ______ ____

>  <TORSDO>
F 2

$$$$
=
 OpenBabel11122413133D

 31 35  0  0  1  0  0  0  0  0999 V2000
  162.2470  212.4110  148.6380 C   0  0  0  0  0  0  0  0  0  0  0  0
  162.4420  209.3060  150.8230 C   0  0  2  0  0  3  0  0  0  0  0  0
  161.5930  209.6350  152.0790 C   0  0  1  0  0  3  0  0  0  0  0  0
  159.5930  210.5930  153.1360 N   0  0  0  0  0  0  0  0  0  0  0  0
  162.1720  210.2090  149.6500 C   0  0  0  0  0  0  0  0  0  0  0  0
  161.5820  211.9180  147.5120 C   0  0  0  0  0  3  0  0  0  0  0  0
  160.2820  210.3980  151.8550 C   0  0  0  0  0  2  0  0  0  0  0  0
  161.0910  207.5930  149.6980 N   0  0  0  0  0  0  0  0  0  0  0  0
  162.6150  213.7490  148.6990 O   0  0  0  0  0  1  0  0  0  0  0  0
  162.3760  207.5430  152.9220 O   0  0  0  0  0  0  0  0  0  0  0  0
  158.5970  211.6410  153.2450 C   0  0  0  0  0  1  0  0  0  0  0  0
  161.1880  208.2510  148.3910 C   0  0  0  0  0  2  0  0  0  0  0  0
  162.3570  207.8140  150.4230 C   0  0  2  0  0  3  0  0  0  0  0  0
  162.5430  211.5580  149.7060 C   0  0  0  0  0  3  0  0  0  0  0  0
  159.8410  209.7430  154.2730 C   0  0  0  0  0  3  0  0  0  0  0  0
  161.4930  209.7170  148.5180 C   0  0  0  0  0  0  0  0  0  0  0  0
  161.2120  210.5720  147.4500 C   0  0  0  0  0  3  0  0  0  0  0  0
  162.4940  206.8870  151.6730 C   0  0  0  0  0  2  0  0  0  0  0  0
  161.2450  208.3600  152.8370 C   0  0  1  0  0  3  0  0  0  0  0  0
  160.6610  208.6920  154.1720 C   0  0  0  0  0  3  0  0  0  0  0  0
  160.9000  206.1720  149.4210 C   0  0  0  0  0  2  0  0  0  0  0  0
  162.6160  206.5940  147.8340 O   0  0  0  0  0  0  0  0  0  0  0  0
  161.7620  205.7730  148.2660 C   0  0  0  0  0  0  0  0  0  0  0  0
  161.1380  202.1040  146.1820 N   0  0  0  0  0  0  0  0  0  0  0  0
  161.8950  204.4250  146.1650 C   0  0  0  0  0  2  0  0  0  0  0  0
  161.1920  203.2470  149.5260 O   0  0  0  0  0  0  0  0  0  0  0  0
  160.3660  201.1370  145.4240 C   0  0  0  0  0  1  0  0  0  0  0  0
  161.0210  203.3790  145.4760 C   0  0  0  0  0  2  0  0  0  0  0  0
  161.1010  203.3450  148.2740 C   0  0  0  0  0  0  0  0  0  0  0  0
  161.5550  204.5250  147.5850 N   0  0  0  0  0  0  0  0  0  0  0  0
  160.4880  202.2290  147.4850 C   0  0  0  0  0  2  0  0  0  0  0  0
  1  9  1  0  0  0  0
  1 14  1  0  0  0  0
  2  5  1  6  0  0  0
  2  3  1  0  0  0  0
  3  7  1  6  0  0  0
  3 19  1  0  0  0  0
  4 11  1  0  0  0  0
  4 15  1  0  0  0  0
  5 14  2  0  0  0  0
  6  1  2  0  0  0  0
  7  4  1  0  0  0  0
  8 13  1  0  0  0  0
 12 16  1  0  0  0  0
 12  8  1  0  0  0  0
 13  2  1  0  0  0  0
 13 18  1  1  0  0  0
 16  5  1  0  0  0  0
 17  6  1  0  0  0  0
 17 16  2  0  0  0  0
 18 10  1  0  0  0  0
 19 10  1  0  0  0  0
 19 20  1  1  0  0  0
 20 15  2  0  0  0  0
 21  8  1  0  0  0  0
 22 23  2  0  0  0  0
 23 21  1  0  0  0  0
 24 31  1  0  0  0  0
 25 30  1  0  0  0  0
 27 24  1  0  0  0  0
 28 25  1  0  0  0  0
 28 24  1  0  0  0  0
 29 26  2  0  0  0  0
 30 23  1  0  0  0  0
 30 29  1  0  0  0  0
 31 29  1  0  0  0  0
M  END
>  <MODEL>
3

>  <REMARK>
 VINA RESULT:      -4.3      4.587      7.438
  Name = 
  2 active torsions:
  status: ('A' for Active; 'I' for Inactive)
    1  A    between atoms: C_5  and  C_16
    2  A    between atoms: N_10  and  C_16
                            x       y       z     vdW  Elec       q    Type
                         _______ _______ _______ _____ _____    ______ ____

>  <TORSDO>
F 2

$$$$
=
 OpenBabel11122413133D

 31 35  0  0  1  0  0  0  0  0999 V2000
  161.2330  208.4730  156.3230 C   0  0  0  0  0  0  0  0  0  0  0  0
  161.5710  210.2470  152.9770 C   0  0  2  0  0  3  0  0  0  0  0  0
  161.7450  209.1160  151.9300 C   0  0  1  0  0  3  0  0  0  0  0  0
  161.1460  206.9160  151.0180 N   0  0  0  0  0  0  0  0  0  0  0  0
  161.0090  209.7800  154.2930 C   0  0  0  0  0  0  0  0  0  0  0  0
  159.9330  208.8230  156.6950 C   0  0  0  0  0  3  0  0  0  0  0  0
  160.8820  207.8620  152.1090 C   0  0  0  0  0  2  0  0  0  0  0  0
  159.3440  211.1320  152.4460 N   0  0  0  0  0  0  0  0  0  0  0  0
  161.9920  207.6490  157.1430 O   0  0  0  0  0  1  0  0  0  0  0  0
  162.1120  210.8820  150.3660 O   0  0  0  0  0  0  0  0  0  0  0  0
  160.8030  205.5190  151.2010 C   0  0  0  0  0  1  0  0  0  0  0  0
  158.9030  211.1010  153.8440 C   0  0  0  0  0  2  0  0  0  0  0  0
  160.7830  211.4570  152.4210 C   0  0  2  0  0  3  0  0  0  0  0  0
  161.7720  208.9500  155.1250 C   0  0  0  0  0  3  0  0  0  0  0  0
  161.6880  207.3420  149.7530 C   0  0  0  0  0  3  0  0  0  0  0  0
  159.6950  210.1240  154.6650 C   0  0  0  0  0  0  0  0  0  0  0  0
  159.1680  209.6540  155.8700 C   0  0  0  0  0  3  0  0  0  0  0  0
  161.2800  211.8420  150.9910 C   0  0  0  0  0  2  0  0  0  0  0  0
  161.4810  209.6450  150.5250 C   0  0  1  0  0  3  0  0  0  0  0  0
  161.9000  208.6380  149.5040 C   0  0  0  0  0  3  0  0  0  0  0  0
  158.5700  212.1880  151.8010 C   0  0  0  0  0  2  0  0  0  0  0  0
  159.5760  214.2590  152.3850 O   0  0  0  0  0  0  0  0  0  0  0  0
  158.6520  213.4350  152.6230 C   0  0  0  0  0  0  0  0  0  0  0  0
  156.0880  214.0700  155.9720 N   0  0  0  0  0  0  0  0  0  0  0  0
  158.2300  214.4530  154.8670 C   0  0  0  0  0  2  0  0  0  0  0  0
  155.8350  212.8380  152.6690 O   0  0  0  0  0  0  0  0  0  0  0  0
  155.4930  213.7420  157.2540 C   0  0  0  0  0  1  0  0  0  0  0  0
  157.5360  214.0180  156.1560 C   0  0  0  0  0  2  0  0  0  0  0  0
  156.4140  213.1590  153.7400 C   0  0  0  0  0  0  0  0  0  0  0  0
  157.7690  213.6460  153.7370 N   0  0  0  0  0  0  0  0  0  0  0  0
  155.6940  213.0100  155.0450 C   0  0  0  0  0  2  0  0  0  0  0  0
  1  6  1  0  0  0  0
  1  9  1  0  0  0  0
  2  5  1  1  0  0  0
  3  7  1  1  0  0  0
  3  2  1  0  0  0  0
  4 11  1  0  0  0  0
  4  7  1  0  0  0  0
  5 16  2  0  0  0  0
  5 14  1  0  0  0  0
  8 12  1  0  0  0  0
 10 19  1  0  0  0  0
 10 18  1  0  0  0  0
 12 16  1  0  0  0  0
 13 18  1  6  0  0  0
 13  8  1  0  0  0  0
 13  2  1  0  0  0  0
 14  1  2  0  0  0  0
 15  4  1  0  0  0  0
 16 17  1  0  0  0  0
 17  6  2  0  0  0  0
 19 20  1  6  0  0  0
 19  3  1  0  0  0  0
 20 15  2  0  0  0  0
 21  8  1  0  0  0  0
 21 23  1  0  0  0  0
 22 23  2  0  0  0  0
 23 30  1  0  0  0  0
 24 28  1  0  0  0  0
 24 27  1  0  0  0  0
 25 28  1  0  0  0  0
 26 29  2  0  0  0  0
 29 31  1  0  0  0  0
 30 29  1  0  0  0  0
 30 25  1  0  0  0  0
 31 24  1  0  0  0  0
M  END
>  <MODEL>
4

>  <REMARK>
 VINA RESULT:      -4.0      3.150      5.783
  Name = 
  2 active torsions:
  status: ('A' for Active; 'I' for Inactive)
    1  A    between atoms: C_5  and  C_16
    2  A    between atoms: N_10  and  C_16
                            x       y       z     vdW  Elec       q    Type
                         _______ _______ _______ _____ _____    ______ ____

>  <TORSDO>
F 2

$$$$
=
 OpenBabel11122413133D

 31 35  0  0  1  0  0  0  0  0999 V2000
  161.3420  200.5840  148.4630 C   0  0  0  0  0  0  0  0  0  0  0  0
  162.2080  204.2090  147.7120 C   0  0  2  0  0  3  0  0  0  0  0  0
  161.7150  204.4550  146.2620 C   0  0  1  0  0  3  0  0  0  0  0  0
  160.0420  204.1960  144.4830 N   0  0  0  0  0  0  0  0  0  0  0  0
  161.6070  202.9920  148.3630 C   0  0  0  0  0  0  0  0  0  0  0  0
  160.4160  200.7270  149.5000 C   0  0  0  0  0  3  0  0  0  0  0  0
  160.3700  203.8360  145.8680 C   0  0  0  0  0  2  0  0  0  0  0  0
  160.6590  205.5700  149.0430 N   0  0  0  0  0  0  0  0  0  0  0  0
  161.6710  199.3180  147.9950 O   0  0  0  0  0  1  0  0  0  0  0  0
  162.7590  206.5920  146.4750 O   0  0  0  0  0  0  0  0  0  0  0  0
  159.0790  203.3900  143.7570 C   0  0  0  0  0  1  0  0  0  0  0  0
  160.3830  204.4860  149.9910 C   0  0  0  0  0  2  0  0  0  0  0  0
  162.0640  205.4610  148.6100 C   0  0  2  0  0  3  0  0  0  0  0  0
  161.9380  201.7130  147.8950 C   0  0  0  0  0  3  0  0  0  0  0  0
  160.6100  205.3530  143.8400 C   0  0  0  0  0  3  0  0  0  0  0  0
  160.6660  203.1340  149.4000 C   0  0  0  0  0  0  0  0  0  0  0  0
  160.0840  202.0000  149.9720 C   0  0  0  0  0  3  0  0  0  0  0  0
  162.5590  206.7440  147.8680 C   0  0  0  0  0  2  0  0  0  0  0  0
  161.6210  205.9500  145.9780 C   0  0  1  0  0  3  0  0  0  0  0  0
  161.4050  206.1880  144.5180 C   0  0  0  0  0  3  0  0  0  0  0  0
  160.4450  206.8140  149.7780 C   0  0  0  0  0  2  0  0  0  0  0  0
  161.3740  205.5600  151.5680 O   0  0  0  0  0  0  0  0  0  0  0  0
  161.0720  206.7030  151.1310 C   0  0  0  0  0  0  0  0  0  0  0  0
  161.5040  210.1010  153.6730 N   0  0  0  0  0  0  0  0  0  0  0  0
  161.2110  207.6900  153.4230 C   0  0  0  0  0  2  0  0  0  0  0  0
  161.9270  209.3100  150.2540 O   0  0  0  0  0  0  0  0  0  0  0  0
  161.0340  211.2490  154.4250 C   0  0  0  0  0  1  0  0  0  0  0  0
  160.7010  208.9600  154.1040 C   0  0  0  0  0  2  0  0  0  0  0  0
  161.4910  209.1670  151.4270 C   0  0  0  0  0  0  0  0  0  0  0  0
  161.2310  207.8590  151.9690 N   0  0  0  0  0  0  0  0  0  0  0  0
  161.2130  210.3760  152.2660 C   0  0  0  0  0  2  0  0  0  0  0  0
  1  6  1  0  0  0  0
  2  5  1  1  0  0  0
  2 13  1  0  0  0  0
  3  7  1  1  0  0  0
  3  2  1  0  0  0  0
  4  7  1  0  0  0  0
  5 16  2  0  0  0  0
  6 17  2  0  0  0  0
  8 21  1  0  0  0  0
  8 12  1  0  0  0  0
  9  1  1  0  0  0  0
 10 18  1  0  0  0  0
 11  4  1  0  0  0  0
 13 18  1  6  0  0  0
 13  8  1  0  0  0  0
 14  5  1  0  0  0  0
 14  1  2  0  0  0  0
 15  4  1  0  0  0  0
 15 20  2  0  0  0  0
 16 17  1  0  0  0  0
 16 12  1  0  0  0  0
 19 20  1  6  0  0  0
 19  3  1  0  0  0  0
 19 10  1  0  0  0  0
 21 23  1  0  0  0  0
 23 22  2  0  0  0  0
 23 30  1  0  0  0  0
 24 28  1  0  0  0  0
 24 27  1  0  0  0  0
 25 28  1  0  0  0  0
 26 29  2  0  0  0  0
 29 30  1  0  0  0  0
 29 31  1  0  0  0  0
 30 25  1  0  0  0  0
 31 24  1  0  0  0  0
M  END
>  <MODEL>
5

>  <REMARK>
 VINA RESULT:      -3.8      5.713      9.503
  Name = 
  2 active torsions:
  status: ('A' for Active; 'I' for Inactive)
    1  A    between atoms: C_5  and  C_16
    2  A    between atoms: N_10  and  C_16
                            x       y       z     vdW  Elec       q    Type
                         _______ _______ _______ _____ _____    ______ ____

>  <TORSDO>
F 2

$$$$
=
 OpenBabel11122413133D

 31 35  0  0  1  0  0  0  0  0999 V2000
  160.9050  213.1520  148.4490 C   0  0  0  0  0  0  0  0  0  0  0  0
  161.9500  211.3180  151.6120 C   0  0  2  0  0  3  0  0  0  0  0  0
  160.7680  211.5010  152.6000 C   0  0  1  0  0  3  0  0  0  0  0  0
  158.3620  211.5560  153.0930 N   0  0  0  0  0  0  0  0  0  0  0  0
  161.5930  211.5950  150.1760 C   0  0  0  0  0  0  0  0  0  0  0  0
  160.8300  212.1020  147.5300 C   0  0  0  0  0  3  0  0  0  0  0  0
  159.3520  211.3940  152.0210 C   0  0  0  0  0  2  0  0  0  0  0  0
  161.8400  208.9250  151.0810 N   0  0  0  0  0  0  0  0  0  0  0  0
  160.5990  214.4470  148.0520 O   0  0  0  0  0  1  0  0  0  0  0  0
  162.1840  210.4240  154.1930 O   0  0  0  0  0  0  0  0  0  0  0  0
  157.0060  211.9330  152.7460 C   0  0  0  0  0  1  0  0  0  0  0  0
  161.9410  209.1520  149.6360 C   0  0  0  0  0  2  0  0  0  0  0  0
  162.6500  209.9480  151.7690 C   0  0  2  0  0  3  0  0  0  0  0  0
  161.2860  212.9000  149.7700 C   0  0  0  0  0  3  0  0  0  0  0  0
  158.6850  211.3010  154.4740 C   0  0  0  0  0  3  0  0  0  0  0  0
  161.5080  210.5380  149.2500 C   0  0  0  0  0  0  0  0  0  0  0  0
  161.1390  210.7980  147.9280 C   0  0  0  0  0  3  0  0  0  0  0  0
  162.8850  209.6060  153.2750 C   0  0  0  0  0  2  0  0  0  0  0  0
  160.8640  210.4910  153.7380 C   0  0  1  0  0  3  0  0  0  0  0  0
  159.8880  210.8320  154.8180 C   0  0  0  0  0  3  0  0  0  0  0  0
  162.3880  207.5920  151.3200 C   0  0  0  0  0  2  0  0  0  0  0  0
  160.7500  207.0660  152.9580 O   0  0  0  0  0  0  0  0  0  0  0  0
  161.3200  206.7140  151.8900 C   0  0  0  0  0  0  0  0  0  0  0  0
  160.4420  202.8940  150.2060 N   0  0  0  0  0  0  0  0  0  0  0  0
  160.5120  204.3630  152.1550 C   0  0  0  0  0  2  0  0  0  0  0  0
  161.1440  206.1660  149.0680 O   0  0  0  0  0  0  0  0  0  0  0  0
  160.7550  201.5480  149.7640 C   0  0  0  0  0  1  0  0  0  0  0  0
  160.9020  202.9980  151.5900 C   0  0  0  0  0  2  0  0  0  0  0  0
  161.1240  205.2070  149.8840 C   0  0  0  0  0  0  0  0  0  0  0  0
  161.0200  205.4380  151.3010 N   0  0  0  0  0  0  0  0  0  0  0  0
  161.2360  203.8020  149.3790 C   0  0  0  0  0  2  0  0  0  0  0  0
  1 14  1  0  0  0  0
  2  5  1  6  0  0  0
  2 13  1  0  0  0  0
  2  3  1  0  0  0  0
  3  7  1  6  0  0  0
  3 19  1  0  0  0  0
  4 15  1  0  0  0  0
  6 17  1  0  0  0  0
  6  1  2  0  0  0  0
  7  4  1  0  0  0  0
  8 21  1  0  0  0  0
  8 13  1  0  0  0  0
  9  1  1  0  0  0  0
 11  4  1  0  0  0  0
 12  8  1  0  0  0  0
 13 18  1  1  0  0  0
 14  5  2  0  0  0  0
 15 20  2  0  0  0  0
 16 12  1  0  0  0  0
 16  5  1  0  0  0  0
 17 16  2  0  0  0  0
 18 10  1  0  0  0  0
 19 10  1  0  0  0  0
 19 20  1  1  0  0  0
 21 23  1  0  0  0  0
 23 22  2  0  0  0  0
 24 28  1  0  0  0  0
 26 29  2  0  0  0  0
 27 24  1  0  0  0  0
 28 25  1  0  0  0  0
 29 30  1  0  0  0  0
 30 23  1  0  0  0  0
 30 25  1  0  0  0  0
 31 29  1  0  0  0  0
 31 24  1  0  0  0  0
M  END
>  <MODEL>
6

>  <REMARK>
 VINA RESULT:      -3.0      3.369      7.055
  Name = 
  2 active torsions:
  status: ('A' for Active; 'I' for Inactive)
    1  A    between atoms: C_5  and  C_16
    2  A    between atoms: N_10  and  C_16
                            x       y       z     vdW  Elec       q    Type
                         _______ _______ _______ _____ _____    ______ ____

>  <TORSDO>
F 2

$$$$
=
 OpenBabel11122413133D

 31 35  0  0  1  0  0  0  0  0999 V2000
  161.2790  207.1740  151.8320 C   0  0  0  0  0  0  0  0  0  0  0  0
  159.6710  210.4830  152.7930 C   0  0  2  0  0  3  0  0  0  0  0  0
  160.1070  210.7390  154.2590 C   0  0  1  0  0  3  0  0  0  0  0  0
  161.8050  210.7300  156.0340 N   0  0  0  0  0  0  0  0  0  0  0  0
  160.5120  209.4610  152.0750 C   0  0  0  0  0  0  0  0  0  0  0  0
  162.1500  207.5720  150.8140 C   0  0  0  0  0  3  0  0  0  0  0  0
  161.5550  210.3950  154.6270 C   0  0  0  0  0  2  0  0  0  0  0  0
  160.8920  212.2180  151.5600 N   0  0  0  0  0  0  0  0  0  0  0  0
  161.2270  205.8420  152.2200 O   0  0  0  0  0  1  0  0  0  0  0  0
  158.6350  212.6160  154.1670 O   0  0  0  0  0  0  0  0  0  0  0  0
  162.9190  210.1040  156.7180 C   0  0  0  0  0  1  0  0  0  0  0  0
  161.3860  211.2770  150.5500 C   0  0  0  0  0  2  0  0  0  0  0  0
  159.5430  211.7890  151.9740 C   0  0  2  0  0  3  0  0  0  0  0  0
  160.4610  208.1160  152.4620 C   0  0  0  0  0  3  0  0  0  0  0  0
  161.0080  211.7010  156.7400 C   0  0  0  0  0  3  0  0  0  0  0  0
  161.3980  209.8620  151.0560 C   0  0  0  0  0  0  0  0  0  0  0  0
  162.2030  208.9130  150.4220 C   0  0  0  0  0  3  0  0  0  0  0  0
  158.7920  212.8910  152.7870 C   0  0  0  0  0  2  0  0  0  0  0  0
  159.8850  212.1990  154.6340 C   0  0  1  0  0  3  0  0  0  0  0  0
  160.0520  212.3890  156.1070 C   0  0  0  0  0  3  0  0  0  0  0  0
  160.8350  213.5210  150.9030 C   0  0  0  0  0  2  0  0  0  0  0  0
  158.5110  213.7730  150.4880 O   0  0  0  0  0  0  0  0  0  0  0  0
  159.6510  213.5650  149.9920 C   0  0  0  0  0  0  0  0  0  0  0  0
  159.9940  212.6310  145.8440 N   0  0  0  0  0  0  0  0  0  0  0  0
  158.6450  212.6870  147.8780 C   0  0  0  0  0  2  0  0  0  0  0  0
  161.7920  214.4520  148.2820 O   0  0  0  0  0  0  0  0  0  0  0  0
  160.3340  211.7950  144.7070 C   0  0  0  0  0  1  0  0  0  0  0  0
  159.1260  211.8320  146.7070 C   0  0  0  0  0  2  0  0  0  0  0  0
  160.9710  213.6010  147.8490 C   0  0  0  0  0  0  0  0  0  0  0  0
  159.7830  213.2680  148.5920 N   0  0  0  0  0  0  0  0  0  0  0  0
  161.2430  212.8990  146.5540 C   0  0  0  0  0  2  0  0  0  0  0  0
  1  9  1  0  0  0  0
  1 14  1  0  0  0  0
  2  5  1  6  0  0  0
  2  3  1  0  0  0  0
  3  7  1  6  0  0  0
  3 19  1  0  0  0  0
  4 11  1  0  0  0  0
  4 15  1  0  0  0  0
  5 14  2  0  0  0  0
  6  1  2  0  0  0  0
  7  4  1  0  0  0  0
  8 13  1  0  0  0  0
 10 19  1  0  0  0  0
 12 16  1  0  0  0  0
 12  8  1  0  0  0  0
 13 18  1  1  0  0  0
 13  2  1  0  0  0  0
 16  5  1  0  0  0  0
 17  6  1  0  0  0  0
 17 16  2  0  0  0  0
 18 10  1  0  0  0  0
 19 20  1  1  0  0  0
 20 15  2  0  0  0  0
 21  8  1  0  0  0  0
 23 22  2  0  0  0  0
 23 21  1  0  0  0  0
 24 31  1  0  0  0  0
 24 28  1  0  0  0  0
 25 30  1  0  0  0  0
 27 24  1  0  0  0  0
 28 25  1  0  0  0  0
 29 26  2  0  0  0  0
 29 30  1  0  0  0  0
 30 23  1  0  0  0  0
 31 29  1  0  0  0  0
M  END
>  <MODEL>
7

>  <REMARK>
 VINA RESULT:      -3.0      1.328      2.019
  Name = 
  2 active torsions:
  status: ('A' for Active; 'I' for Inactive)
    1  A    between atoms: C_5  and  C_16
    2  A    between atoms: N_10  and  C_16
                            x       y       z     vdW  Elec       q    Type
                         _______ _______ _______ _____ _____    ______ ____

>  <TORSDO>
F 2

$$$$
=
 OpenBabel11122413133D

 31 35  0  0  1  0  0  0  0  0999 V2000
  161.4400  213.4740  147.7050 C   0  0  0  0  0  0  0  0  0  0  0  0
  160.3980  213.2140  151.3530 C   0  0  2  0  0  3  0  0  0  0  0  0
  158.9140  213.6620  151.3870 C   0  0  1  0  0  3  0  0  0  0  0  0
  156.6430  213.6640  150.4500 N   0  0  0  0  0  0  0  0  0  0  0  0
  160.8920  212.8400  149.9810 C   0  0  0  0  0  0  0  0  0  0  0  0
  161.7110  212.1380  147.3970 C   0  0  0  0  0  3  0  0  0  0  0  0
  158.0140  213.1820  150.2430 C   0  0  0  0  0  2  0  0  0  0  0  0
  160.2470  210.8160  151.8510 N   0  0  0  0  0  0  0  0  0  0  0  0
  161.5750  214.4530  146.7310 O   0  0  0  0  0  1  0  0  0  0  0  0
  159.1140  213.4840  153.7600 O   0  0  0  0  0  0  0  0  0  0  0  0
  155.7410  213.7250  149.3170 C   0  0  0  0  0  1  0  0  0  0  0  0
  161.1220  210.4400  150.7360 C   0  0  0  0  0  2  0  0  0  0  0  0
  160.7100  212.1080  152.3890 C   0  0  2  0  0  3  0  0  0  0  0  0
  161.0320  213.8260  148.9950 C   0  0  0  0  0  3  0  0  0  0  0  0
  156.1530  214.0320  151.7540 C   0  0  0  0  0  3  0  0  0  0  0  0
  161.1570  211.4940  149.6650 C   0  0  0  0  0  0  0  0  0  0  0  0
  161.5770  211.1510  148.3780 C   0  0  0  0  0  3  0  0  0  0  0  0
  160.0690  212.4380  153.7740 C   0  0  0  0  0  2  0  0  0  0  0  0
  158.2540  213.2220  152.6900 C   0  0  1  0  0  3  0  0  0  0  0  0
  156.9170  213.8730  152.8400 C   0  0  0  0  0  3  0  0  0  0  0  0
  160.3930  209.7620  152.8510 C   0  0  0  0  0  2  0  0  0  0  0  0
  162.6760  209.5790  152.2240 O   0  0  0  0  0  0  0  0  0  0  0  0
  161.6250  208.9670  152.5570 C   0  0  0  0  0  0  0  0  0  0  0  0
  161.5550  204.7040  152.4440 N   0  0  0  0  0  0  0  0  0  0  0  0
  162.5200  206.8080  151.6700 C   0  0  0  0  0  2  0  0  0  0  0  0
  160.2410  207.2990  154.4520 O   0  0  0  0  0  0  0  0  0  0  0  0
  161.0930  203.4070  151.9840 C   0  0  0  0  0  1  0  0  0  0  0  0
  161.9270  205.4630  151.2530 C   0  0  0  0  0  2  0  0  0  0  0  0
  160.7350  206.7770  153.4190 C   0  0  0  0  0  0  0  0  0  0  0  0
  161.5930  207.5310  152.5420 N   0  0  0  0  0  0  0  0  0  0  0  0
  160.4090  205.3560  153.0770 C   0  0  0  0  0  2  0  0  0  0  0  0
  1 14  1  0  0  0  0
  2  5  1  6  0  0  0
  2  3  1  0  0  0  0
  2 13  1  0  0  0  0
  3  7  1  6  0  0  0
  3 19  1  0  0  0  0
  4 15  1  0  0  0  0
  6  1  2  0  0  0  0
  6 17  1  0  0  0  0
  7  4  1  0  0  0  0
  8 13  1  0  0  0  0
  8 21  1  0  0  0  0
  9  1  1  0  0  0  0
 10 18  1  0  0  0  0
 11  4  1  0  0  0  0
 12  8  1  0  0  0  0
 13 18  1  1  0  0  0
 14  5  2  0  0  0  0
 15 20  2  0  0  0  0
 16  5  1  0  0  0  0
 16 12  1  0  0  0  0
 17 16  2  0  0  0  0
 19 20  1  1  0  0  0
 19 10  1  0  0  0  0
 22 23  2  0  0  0  0
 23 21  1  0  0  0  0
 24 31  1  0  0  0  0
 25 30  1  0  0  0  0
 27 24  1  0  0  0  0
 28 25  1  0  0  0  0
 28 24  1  0  0  0  0
 29 26  2  0  0  0  0
 30 23  1  0  0  0  0
 30 29  1  0  0  0  0
 31 29  1  0  0  0  0
M  END
>  <MODEL>
8

>  <REMARK>
 VINA RESULT:      -2.7      2.545      6.963
  Name = 
  2 active torsions:
  status: ('A' for Active; 'I' for Inactive)
    1  A    between atoms: C_5  and  C_16
    2  A    between atoms: N_10  and  C_16
                            x       y       z     vdW  Elec       q    Type
                         _______ _______ _______ _____ _____    ______ ____

>  <TORSDO>
F 2

$$$$
=
 OpenBabel11122413133D

 31 35  0  0  1  0  0  0  0  0999 V2000
  160.9980  208.3610  156.2650 C   0  0  0  0  0  0  0  0  0  0  0  0
  162.0080  209.4910  152.7780 C   0  0  2  0  0  3  0  0  0  0  0  0
  161.9580  208.2120  151.9020 C   0  0  1  0  0  3  0  0  0  0  0  0
  160.8800  206.1150  151.2130 N   0  0  0  0  0  0  0  0  0  0  0  0
  161.2560  209.3730  154.0760 C   0  0  0  0  0  0  0  0  0  0  0  0
  159.8080  209.0690  156.4540 C   0  0  0  0  0  3  0  0  0  0  0  0
  160.7930  207.2460  152.1450 C   0  0  0  0  0  2  0  0  0  0  0  0
  160.1240  210.8050  151.9140 N   0  0  0  0  0  0  0  0  0  0  0  0
  161.4630  207.5060  157.2550 O   0  0  0  0  0  1  0  0  0  0  0  0
  162.8710  209.5870  150.1780 O   0  0  0  0  0  0  0  0  0  0  0  0
  160.1800  204.8860  151.5320 C   0  0  0  0  0  1  0  0  0  0  0  0
  159.5940  211.0880  153.2520 C   0  0  0  0  0  2  0  0  0  0  0  0
  161.5960  210.7620  151.9970 C   0  0  2  0  0  3  0  0  0  0  0  0
  161.7220  208.5130  155.0790 C   0  0  0  0  0  3  0  0  0  0  0  0
  161.5990  206.2060  149.9680 C   0  0  0  0  0  3  0  0  0  0  0  0
  160.0520  210.0770  154.2650 C   0  0  0  0  0  0  0  0  0  0  0  0
  159.3400  209.9310  155.4580 C   0  0  0  0  0  3  0  0  0  0  0  0
  162.2720  210.8020  150.5900 C   0  0  0  0  0  2  0  0  0  0  0  0
  161.9360  208.5780  150.4230 C   0  0  1  0  0  3  0  0  0  0  0  0
  162.1530  207.3610  149.5830 C   0  0  0  0  0  3  0  0  0  0  0  0
  159.6910  211.9130  151.0660 C   0  0  0  0  0  2  0  0  0  0  0  0
  159.4290  213.2260  153.0280 O   0  0  0  0  0  0  0  0  0  0  0  0
  158.9600  212.9170  151.8990 C   0  0  0  0  0  0  0  0  0  0  0  0
  155.1610  214.4530  150.7150 N   0  0  0  0  0  0  0  0  0  0  0  0
  156.7240  213.8610  152.4950 C   0  0  0  0  0  2  0  0  0  0  0  0
  158.2740  213.7080  149.2160 O   0  0  0  0  0  0  0  0  0  0  0  0
  153.7670  214.3570  150.3230 C   0  0  0  0  0  1  0  0  0  0  0  0
  155.2960  213.7160  151.9690 C   0  0  0  0  0  2  0  0  0  0  0  0
  157.3700  213.6480  150.0900 C   0  0  0  0  0  0  0  0  0  0  0  0
  157.6910  213.4420  151.4790 N   0  0  0  0  0  0  0  0  0  0  0  0
  155.9340  213.7660  149.6820 C   0  0  0  0  0  2  0  0  0  0  0  0
  1  6  1  0  0  0  0
  1  9  1  0  0  0  0
  2  5  1  1  0  0  0
  3  7  1  1  0  0  0
  3  2  1  0  0  0  0
  4 11  1  0  0  0  0
  4  7  1  0  0  0  0
  5 16  2  0  0  0  0
  5 14  1  0  0  0  0
  8 13  1  0  0  0  0
  8 12  1  0  0  0  0
 10 19  1  0  0  0  0
 10 18  1  0  0  0  0
 12 16  1  0  0  0  0
 13 18  1  6  0  0  0
 13  2  1  0  0  0  0
 14  1  2  0  0  0  0
 15  4  1  0  0  0  0
 16 17  1  0  0  0  0
 17  6  2  0  0  0  0
 19 20  1  6  0  0  0
 19  3  1  0  0  0  0
 20 15  2  0  0  0  0
 21 23  1  0  0  0  0
 21  8  1  0  0  0  0
 23 22  2  0  0  0  0
 24 28  1  0  0  0  0
 26 29  2  0  0  0  0
 27 24  1  0  0  0  0
 28 25  1  0  0  0  0
 29 30  1  0  0  0  0
 30 23  1  0  0  0  0
 30 25  1  0  0  0  0
 31 29  1  0  0  0  0
 31 24  1  0  0  0  0
M  END
>  <MODEL>
9

>  <REMARK>
 VINA RESULT:      -2.5      2.559      4.976
  Name = 
  2 active torsions:
  status: ('A' for Active; 'I' for Inactive)
    1  A    between atoms: C_5  and  C_16
    2  A    between atoms: N_10  and  C_16
                            x       y       z     vdW  Elec       q    Type
                         _______ _______ _______ _____ _____    ______ ____

>  <TORSDO>
F 2

$$$$
