=
 OpenBabel11122412393D

 30 35  0  0  1  0  0  0  0  0999 V2000
  161.0850  209.7730  152.5220 C   0  0  1  0  0  3  0  0  0  0  0  0
  160.2790  212.0930  151.8970 C   0  0  0  0  0  0  0  0  0  0  0  0
  162.2280  209.1440  148.4400 N   0  0  0  0  0  2  0  0  0  0  0  0
  161.7910  208.4750  152.0430 C   0  0  1  0  0  3  0  0  0  0  0  0
  161.4100  210.0010  153.9910 C   0  0  0  0  0  2  0  0  0  0  0  0
  160.5290  206.5070  154.8900 O   0  0  0  0  0  0  0  0  0  0  0  0
  160.5560  205.5600  151.2060 C   0  0  1  0  0  3  0  0  0  0  0  0
  160.9000  207.4990  154.2010 C   0  0  0  0  0  0  0  0  0  0  0  0
  161.0020  206.0130  149.8090 C   0  0  2  0  0  3  0  0  0  0  0  0
  162.2280  207.7260  148.4360 C   0  0  0  0  0  0  0  0  0  0  0  0
  160.9090  208.8490  154.8060 C   0  0  0  0  0  0  0  0  0  0  0  0
  161.2990  207.3160  152.8260 N   0  0  0  0  0  0  0  0  0  0  0  0
  159.9290  212.9480  150.8470 O   0  0  0  0  0  0  0  0  0  0  0  0
  161.5110  204.7630  149.1230 C   0  0  0  0  0  2  0  0  0  0  0  0
  160.3880  204.0500  151.1380 C   0  0  0  0  0  2  0  0  0  0  0  0
  159.6920  212.2080  153.0050 O   0  0  0  0  0  0  0  0  0  0  0  0
  162.2190  209.4990  149.8450 C   0  0  2  0  0  3  0  0  0  0  0  0
  160.7420  213.0550  149.6820 C   0  0  0  0  0  2  0  0  0  0  0  0
  161.3690  211.0610  151.6950 C   0  0  2  0  0  3  0  0  0  0  0  0
  161.5270  208.3520  150.5440 C   0  0  1  0  0  3  0  0  0  0  0  0
  162.4060  207.0560  147.3840 O   0  0  0  0  0  0  0  0  0  0  0  0
  162.0460  207.1310  149.7960 C   0  0  1  0  0  3  0  0  0  0  0  0
  160.6910  203.6380  149.7110 C   0  0  0  0  0  2  0  0  0  0  0  0
  162.9480  205.5540  152.2130 C   0  0  0  0  0  1  0  0  0  0  0  0
  161.2680  211.7100  149.2790 C   0  0  0  0  0  3  0  0  0  0  0  0
  161.5460  210.7810  150.2080 C   0  0  0  0  0  0  0  0  0  0  0  0
  161.4780  205.9310  152.3780 C   0  0  2  0  0  3  0  0  0  0  0  0
  160.5260  209.0190  156.0750 C   0  0  0  0  0  3  0  0  0  0  0  0
  159.1410  210.9400  156.7190 C   0  0  0  0  0  1  0  0  0  0  0  0
  160.5330  210.3450  156.7580 C   0  0  0  0  0  2  0  0  0  0  0  0
  1  5  1  1  0  0  0
  2 16  2  0  0  0  0
  4  1  1  0  0  0  0
  4 12  1  1  0  0  0
  5 11  1  0  0  0  0
  7 15  1  6  0  0  0
  7 27  1  0  0  0  0
  8 11  1  0  0  0  0
  8  6  2  0  0  0  0
  9 14  1  1  0  0  0
  9  7  1  0  0  0  0
 10  3  1  0  0  0  0
 10 22  1  0  0  0  0
 11 28  2  0  0  0  0
 12  8  1  0  0  0  0
 13  2  1  0  0  0  0
 14 23  1  0  0  0  0
 17  3  1  6  0  0  0
 17 26  1  0  0  0  0
 17 20  1  0  0  0  0
 18 13  1  0  0  0  0
 19 26  1  6  0  0  0
 19  2  1  0  0  0  0
 19  1  1  0  0  0  0
 20  4  1  0  0  0  0
 21 10  2  0  0  0  0
 22  9  1  0  0  0  0
 22 20  1  0  0  0  0
 23 15  1  0  0  0  0
 24 27  1  0  0  0  0
 25 18  1  0  0  0  0
 25 26  2  0  0  0  0
 27 12  1  0  0  0  0
 28 30  1  0  0  0  0
 29 30  1  0  0  0  0
M  END
>  <MODEL>
1

>  <REMARK>
 VINA RESULT:      -8.4      0.000      0.000
  Name = 
  1 active torsions:
  status: ('A' for Active; 'I' for Inactive)
    1  A    between atoms: C_28  and  C_30
                            x       y       z     vdW  Elec       q    Type
                         _______ _______ _______ _____ _____    ______ ____

>  <TORSDO>
F 1

$$$$
=
 OpenBabel11122412393D

 30 35  0  0  1  0  0  0  0  0999 V2000
  161.2360  208.7890  151.6470 C   0  0  1  0  0  3  0  0  0  0  0  0
  161.1090  206.6590  150.2790 C   0  0  0  0  0  0  0  0  0  0  0  0
  160.8560  206.4430  155.2130 N   0  0  0  0  0  2  0  0  0  0  0  0
  161.2930  209.4140  153.0670 C   0  0  1  0  0  3  0  0  0  0  0  0
  162.0320  209.6630  150.6880 C   0  0  0  0  0  2  0  0  0  0  0  0
  160.3340  212.7550  151.8480 O   0  0  0  0  0  0  0  0  0  0  0  0
  158.9640  210.8680  154.8530 C   0  0  1  0  0  3  0  0  0  0  0  0
  160.7980  211.5800  151.8560 C   0  0  0  0  0  0  0  0  0  0  0  0
  159.1070  209.5880  155.6890 C   0  0  2  0  0  3  0  0  0  0  0  0
  160.3790  207.4560  156.0830 C   0  0  0  0  0  0  0  0  0  0  0  0
  161.4350  211.0350  150.6380 C   0  0  0  0  0  0  0  0  0  0  0  0
  160.6920  210.7690  153.0460 N   0  0  0  0  0  0  0  0  0  0  0  0
  160.7760  205.3010  150.2890 O   0  0  0  0  0  0  0  0  0  0  0  0
  158.9430  210.0280  157.1280 C   0  0  0  0  0  2  0  0  0  0  0  0
  158.2870  211.8950  155.7460 C   0  0  0  0  0  2  0  0  0  0  0  0
  160.9460  207.3250  149.2230 O   0  0  0  0  0  0  0  0  0  0  0  0
  161.3770  207.1660  154.0710 C   0  0  2  0  0  3  0  0  0  0  0  0
  161.2000  204.4460  151.3470 C   0  0  0  0  0  2  0  0  0  0  0  0
  161.6810  207.3020  151.5260 C   0  0  2  0  0  3  0  0  0  0  0  0
  160.5770  208.4470  154.0090 C   0  0  1  0  0  3  0  0  0  0  0  0
  160.0060  207.2100  157.2610 O   0  0  0  0  0  0  0  0  0  0  0  0
  160.4140  208.8220  155.4750 C   0  0  1  0  0  3  0  0  0  0  0  0
  158.0030  211.2090  157.0680 C   0  0  0  0  0  2  0  0  0  0  0  0
  161.3980  211.6720  155.2560 C   0  0  0  0  0  1  0  0  0  0  0  0
  161.1020  205.1500  152.6680 C   0  0  0  0  0  3  0  0  0  0  0  0
  161.3110  206.4740  152.7510 C   0  0  0  0  0  0  0  0  0  0  0  0
  160.2560  211.4560  154.2660 C   0  0  2  0  0  3  0  0  0  0  0  0
  161.5200  211.7820  149.5330 C   0  0  0  0  0  3  0  0  0  0  0  0
  163.1460  212.3580  147.7870 C   0  0  0  0  0  1  0  0  0  0  0  0
  162.1710  211.3080  148.2770 C   0  0  0  0  0  2  0  0  0  0  0  0
  1  5  1  6  0  0  0
  1  4  1  0  0  0  0
  2 13  1  0  0  0  0
  3 10  1  0  0  0  0
  4 12  1  6  0  0  0
  4 20  1  0  0  0  0
  6  8  2  0  0  0  0
  7  9  1  0  0  0  0
  7 15  1  1  0  0  0
  8 12  1  0  0  0  0
  9 14  1  1  0  0  0
 10 21  2  0  0  0  0
 11  5  1  0  0  0  0
 11  8  1  0  0  0  0
 12 27  1  0  0  0  0
 13 18  1  0  0  0  0
 15 23  1  0  0  0  0
 16  2  2  0  0  0  0
 17 26  1  6  0  0  0
 17  3  1  0  0  0  0
 18 25  1  0  0  0  0
 19  2  1  6  0  0  0
 19  1  1  0  0  0  0
 19 26  1  0  0  0  0
 20 17  1  0  0  0  0
 20 22  1  0  0  0  0
 22  9  1  0  0  0  0
 22 10  1  0  0  0  0
 23 14  1  0  0  0  0
 25 26  2  0  0  0  0
 27  7  1  0  0  0  0
 27 24  1  0  0  0  0
 28 11  2  0  0  0  0
 29 30  1  0  0  0  0
 30 28  1  0  0  0  0
M  END
>  <MODEL>
2

>  <REMARK>
 VINA RESULT:      -6.7      1.682      6.898
  Name = 
  1 active torsions:
  status: ('A' for Active; 'I' for Inactive)
    1  A    between atoms: C_28  and  C_30
                            x       y       z     vdW  Elec       q    Type
                         _______ _______ _______ _____ _____    ______ ____

>  <TORSDO>
F 1

$$$$
=
 OpenBabel11122412393D

 30 35  0  0  1  0  0  0  0  0999 V2000
  160.7250  209.1440  153.0680 C   0  0  1  0  0  3  0  0  0  0  0  0
  159.5960  211.4110  153.1410 C   0  0  0  0  0  0  0  0  0  0  0  0
  161.9130  209.9400  149.0280 N   0  0  0  0  0  2  0  0  0  0  0  0
  161.6030  208.1600  152.2460 C   0  0  1  0  0  3  0  0  0  0  0  0
  161.0260  208.9590  154.5480 C   0  0  0  0  0  2  0  0  0  0  0  0
  160.6520  205.2700  154.3240 O   0  0  0  0  0  0  0  0  0  0  0  0
  160.7820  205.4950  150.5290 C   0  0  1  0  0  3  0  0  0  0  0  0
  160.8740  206.4650  153.9790 C   0  0  0  0  0  0  0  0  0  0  0  0
  161.1500  206.4050  149.3490 C   0  0  2  0  0  3  0  0  0  0  0  0
  162.1130  208.6030  148.5980 C   0  0  0  0  0  0  0  0  0  0  0  0
  160.6990  207.5570  154.9610 C   0  0  0  0  0  0  0  0  0  0  0  0
  161.2850  206.7630  152.6270 N   0  0  0  0  0  0  0  0  0  0  0  0
  159.1220  212.4880  152.3850 O   0  0  0  0  0  0  0  0  0  0  0  0
  161.8240  205.5020  148.3380 C   0  0  0  0  0  2  0  0  0  0  0  0
  160.8280  204.0680  150.0050 C   0  0  0  0  0  2  0  0  0  0  0  0
  159.0080  211.1040  154.2110 O   0  0  0  0  0  0  0  0  0  0  0  0
  161.8660  209.8490  150.4730 C   0  0  2  0  0  3  0  0  0  0  0  0
  159.9030  213.0520  151.3350 C   0  0  0  0  0  2  0  0  0  0  0  0
  160.8190  210.6470  152.6770 C   0  0  2  0  0  3  0  0  0  0  0  0
  161.3470  208.4610  150.7710 C   0  0  1  0  0  3  0  0  0  0  0  0
  162.3750  208.3140  147.4010 O   0  0  0  0  0  0  0  0  0  0  0  0
  162.0260  207.6060  149.7100 C   0  0  1  0  0  3  0  0  0  0  0  0
  161.1750  204.1520  148.5320 C   0  0  0  0  0  2  0  0  0  0  0  0
  163.1590  205.5100  151.5710 C   0  0  0  0  0  1  0  0  0  0  0  0
  160.6090  211.9760  150.5650 C   0  0  0  0  0  3  0  0  0  0  0  0
  161.0220  210.8570  151.1810 C   0  0  0  0  0  0  0  0  0  0  0  0
  161.6520  205.6160  151.7900 C   0  0  2  0  0  3  0  0  0  0  0  0
  160.3060  207.2810  156.2080 C   0  0  0  0  0  3  0  0  0  0  0  0
  161.3130  209.2730  157.2280 C   0  0  0  0  0  1  0  0  0  0  0  0
  160.1320  208.3270  157.2580 C   0  0  0  0  0  2  0  0  0  0  0  0
  1  5  1  1  0  0  0
  2 16  2  0  0  0  0
  4 12  1  6  0  0  0
  4  1  1  0  0  0  0
  5 11  1  0  0  0  0
  7 15  1  6  0  0  0
  7 27  1  0  0  0  0
  8  6  2  0  0  0  0
  8 11  1  0  0  0  0
  9 14  1  6  0  0  0
  9 22  1  0  0  0  0
  9  7  1  0  0  0  0
 10  3  1  0  0  0  0
 10 22  1  0  0  0  0
 11 28  2  0  0  0  0
 12  8  1  0  0  0  0
 13  2  1  0  0  0  0
 14 23  1  0  0  0  0
 17  3  1  6  0  0  0
 17 20  1  0  0  0  0
 17 26  1  0  0  0  0
 18 13  1  0  0  0  0
 19 26  1  6  0  0  0
 19  1  1  0  0  0  0
 19  2  1  0  0  0  0
 20  4  1  0  0  0  0
 21 10  2  0  0  0  0
 22 20  1  0  0  0  0
 23 15  1  0  0  0  0
 24 27  1  0  0  0  0
 25 26  2  0  0  0  0
 25 18  1  0  0  0  0
 27 12  1  0  0  0  0
 28 30  1  0  0  0  0
 29 30  1  0  0  0  0
M  END
>  <MODEL>
3

>  <REMARK>
 VINA RESULT:      -6.3      1.112      1.303
  Name = 
  1 active torsions:
  status: ('A' for Active; 'I' for Inactive)
    1  A    between atoms: C_28  and  C_30
                            x       y       z     vdW  Elec       q    Type
                         _______ _______ _______ _____ _____    ______ ____

>  <TORSDO>
F 1

$$$$
=
 OpenBabel11122412393D

 30 35  0  0  1  0  0  0  0  0999 V2000
  161.5080  206.0790  150.2360 C   0  0  1  0  0  3  0  0  0  0  0  0
  160.6530  203.6940  150.2360 C   0  0  0  0  0  0  0  0  0  0  0  0
  161.2790  206.0920  154.5150 N   0  0  0  0  0  2  0  0  0  0  0  0
  161.9670  207.2900  151.0930 C   0  0  1  0  0  3  0  0  0  0  0  0
  162.2880  206.0720  148.9290 C   0  0  0  0  0  2  0  0  0  0  0  0
  161.5760  209.6630  148.3020 O   0  0  0  0  0  0  0  0  0  0  0  0
  160.3990  210.0500  151.8990 C   0  0  1  0  0  3  0  0  0  0  0  0
  161.7560  208.5780  148.9250 C   0  0  0  0  0  0  0  0  0  0  0  0
  160.4040  209.3940  153.2860 C   0  0  2  0  0  3  0  0  0  0  0  0
  161.2130  207.4940  154.7200 C   0  0  0  0  0  0  0  0  0  0  0  0
  162.0160  207.3340  148.1690 C   0  0  0  0  0  0  0  0  0  0  0  0
  161.6940  208.5540  150.3670 N   0  0  0  0  0  0  0  0  0  0  0  0
  160.0300  202.6920  150.9890 O   0  0  0  0  0  0  0  0  0  0  0  0
  160.6130  210.5270  154.2670 C   0  0  0  0  0  2  0  0  0  0  0  0
  160.1500  211.5330  152.1220 C   0  0  0  0  0  2  0  0  0  0  0  0
  160.4500  203.7460  148.9950 O   0  0  0  0  0  0  0  0  0  0  0  0
  161.7280  205.9490  153.1450 C   0  0  2  0  0  3  0  0  0  0  0  0
  160.4390  202.4120  152.3240 C   0  0  0  0  0  2  0  0  0  0  0  0
  161.5760  204.6820  150.9190 C   0  0  2  0  0  3  0  0  0  0  0  0
  161.2400  207.1900  152.4320 C   0  0  1  0  0  3  0  0  0  0  0  0
  161.0200  207.9980  155.8570 O   0  0  0  0  0  0  0  0  0  0  0  0
  161.4410  208.2840  153.4710 C   0  0  1  0  0  3  0  0  0  0  0  0
  159.9690  211.7280  153.6150 C   0  0  0  0  0  2  0  0  0  0  0  0
  162.9830  210.2020  151.7150 C   0  0  0  0  0  1  0  0  0  0  0  0
  160.7500  203.6810  153.0600 C   0  0  0  0  0  3  0  0  0  0  0  0
  161.2630  204.7370  152.4090 C   0  0  0  0  0  0  0  0  0  0  0  0
  161.6590  209.8570  151.0400 C   0  0  2  0  0  3  0  0  0  0  0  0
  162.0600  207.3560  146.8340 C   0  0  0  0  0  3  0  0  0  0  0  0
  161.0580  205.6600  145.3700 C   0  0  0  0  0  1  0  0  0  0  0  0
  162.3420  206.1460  146.0080 C   0  0  0  0  0  2  0  0  0  0  0  0
  1  5  1  6  0  0  0
  1 19  1  0  0  0  0
  1  4  1  0  0  0  0
  2 13  1  0  0  0  0
  3 10  1  0  0  0  0
  4 12  1  6  0  0  0
  4 20  1  0  0  0  0
  6  8  2  0  0  0  0
  7 15  1  1  0  0  0
  7  9  1  0  0  0  0
  8 12  1  0  0  0  0
  9 22  1  0  0  0  0
  9 14  1  1  0  0  0
 10 21  2  0  0  0  0
 11  8  1  0  0  0  0
 11  5  1  0  0  0  0
 12 27  1  0  0  0  0
 13 18  1  0  0  0  0
 15 23  1  0  0  0  0
 16  2  2  0  0  0  0
 17 26  1  6  0  0  0
 17  3  1  0  0  0  0
 18 25  1  0  0  0  0
 19  2  1  6  0  0  0
 19 26  1  0  0  0  0
 20 17  1  0  0  0  0
 20 22  1  0  0  0  0
 22 10  1  0  0  0  0
 23 14  1  0  0  0  0
 26 25  2  0  0  0  0
 27 24  1  0  0  0  0
 27  7  1  0  0  0  0
 28 11  2  0  0  0  0
 29 30  1  0  0  0  0
 30 28  1  0  0  0  0
M  END
>  <MODEL>
4

>  <REMARK>
 VINA RESULT:      -6.0      2.059      7.366
  Name = 
  1 active torsions:
  status: ('A' for Active; 'I' for Inactive)
    1  A    between atoms: C_28  and  C_30
                            x       y       z     vdW  Elec       q    Type
                         _______ _______ _______ _____ _____    ______ ____

>  <TORSDO>
F 1

$$$$
=
 OpenBabel11122412393D

 30 35  0  0  1  0  0  0  0  0999 V2000
  161.0380  210.3570  151.3840 C   0  0  1  0  0  3  0  0  0  0  0  0
  161.7820  208.1930  150.2940 C   0  0  0  0  0  0  0  0  0  0  0  0
  160.7200  208.2850  155.1230 N   0  0  0  0  0  2  0  0  0  0  0  0
  160.6550  211.0750  152.7070 C   0  0  1  0  0  3  0  0  0  0  0  0
  161.7060  211.3570  150.4520 C   0  0  0  0  0  2  0  0  0  0  0  0
  159.0040  213.8580  150.9450 O   0  0  0  0  0  0  0  0  0  0  0  0
  157.7230  211.8750  153.9280 C   0  0  1  0  0  3  0  0  0  0  0  0
  159.7790  212.8860  151.1710 C   0  0  0  0  0  0  0  0  0  0  0  0
  158.0790  210.7690  154.9310 C   0  0  2  0  0  3  0  0  0  0  0  0
  159.8220  209.1670  155.7770 C   0  0  0  0  0  0  0  0  0  0  0  0
  160.7550  212.4720  150.1400 C   0  0  0  0  0  0  0  0  0  0  0  0
  159.7010  212.1750  152.4250 N   0  0  0  0  0  0  0  0  0  0  0  0
  161.8610  206.8030  150.4270 O   0  0  0  0  0  0  0  0  0  0  0  0
  157.5390  211.2450  156.2630 C   0  0  0  0  0  2  0  0  0  0  0  0
  156.6290  212.7100  154.5740 C   0  0  0  0  0  2  0  0  0  0  0  0
  161.6260  208.6950  149.1500 O   0  0  0  0  0  0  0  0  0  0  0  0
  161.2060  209.0450  153.9880 C   0  0  2  0  0  3  0  0  0  0  0  0
  162.3170  206.2030  151.6350 C   0  0  0  0  0  2  0  0  0  0  0  0
  161.9090  209.0740  151.5200 C   0  0  2  0  0  3  0  0  0  0  0  0
  160.0930  210.0100  153.6470 C   0  0  1  0  0  3  0  0  0  0  0  0
  159.3310  208.9080  156.9080 O   0  0  0  0  0  0  0  0  0  0  0  0
  159.5680  210.4270  155.0130 C   0  0  1  0  0  3  0  0  0  0  0  0
  156.3240  212.0720  155.9150 C   0  0  0  0  0  2  0  0  0  0  0  0
  159.7060  213.4160  154.5830 C   0  0  0  0  0  1  0  0  0  0  0  0
  161.7840  206.9410  152.8270 C   0  0  0  0  0  3  0  0  0  0  0  0
  161.5810  208.2680  152.7710 C   0  0  0  0  0  0  0  0  0  0  0  0
  158.8730  212.7860  153.4700 C   0  0  2  0  0  3  0  0  0  0  0  0
  160.8170  213.1220  148.9740 C   0  0  0  0  0  3  0  0  0  0  0  0
  162.7060  213.9580  147.6480 C   0  0  0  0  0  1  0  0  0  0  0  0
  161.7920  212.7770  147.8980 C   0  0  0  0  0  2  0  0  0  0  0  0
  1  5  1  6  0  0  0
  1 19  1  0  0  0  0
  1  4  1  0  0  0  0
  2 13  1  0  0  0  0
  3 10  1  0  0  0  0
  4 12  1  6  0  0  0
  4 20  1  0  0  0  0
  6  8  2  0  0  0  0
  7 15  1  1  0  0  0
  7  9  1  0  0  0  0
  8 12  1  0  0  0  0
  9 22  1  0  0  0  0
  9 14  1  1  0  0  0
 10 21  2  0  0  0  0
 11  5  1  0  0  0  0
 11  8  1  0  0  0  0
 12 27  1  0  0  0  0
 13 18  1  0  0  0  0
 15 23  1  0  0  0  0
 16  2  2  0  0  0  0
 17 26  1  6  0  0  0
 17  3  1  0  0  0  0
 18 25  1  0  0  0  0
 19  2  1  6  0  0  0
 19 26  1  0  0  0  0
 20 17  1  0  0  0  0
 20 22  1  0  0  0  0
 22 10  1  0  0  0  0
 23 14  1  0  0  0  0
 26 25  2  0  0  0  0
 27  7  1  0  0  0  0
 27 24  1  0  0  0  0
 28 11  2  0  0  0  0
 29 30  1  0  0  0  0
 30 28  1  0  0  0  0
M  END
>  <MODEL>
5

>  <REMARK>
 VINA RESULT:      -5.7      2.203      7.135
  Name = 
  1 active torsions:
  status: ('A' for Active; 'I' for Inactive)
    1  A    between atoms: C_28  and  C_30
                            x       y       z     vdW  Elec       q    Type
                         _______ _______ _______ _____ _____    ______ ____

>  <TORSDO>
F 1

$$$$
