=
 OpenBabel11122413123D

 31 35  0  0  1  0  0  0  0  0999 V2000
  161.1830  205.0240  145.3150 C   0  0  0  0  0  0  0  0  0  0  0  0
  160.4260  204.8400  149.0410 C   0  0  2  0  0  3  0  0  0  0  0  0
  160.8020  203.4300  149.4810 C   0  0  0  0  0  0  0  0  0  0  0  0
  161.2720  201.0980  148.9670 C   0  0  0  0  0  0  0  0  0  0  0  0
  161.0670  205.2280  147.7310 C   0  0  0  0  0  0  0  0  0  0  0  0
  162.3020  205.8600  145.2950 C   0  0  0  0  0  3  0  0  0  0  0  0
  160.9540  202.3930  148.5470 C   0  0  0  0  0  3  0  0  0  0  0  0
  162.2320  206.0790  150.1770 N   0  0  0  0  0  0  0  0  0  0  0  0
  160.6860  204.5030  144.1290 O   0  0  0  0  0  1  0  0  0  0  0  0
  160.7330  204.1310  151.8130 O   0  0  0  0  0  0  0  0  0  0  0  0
  161.4300  200.1110  148.0540 F   0  0  0  0  0  0  0  0  0  0  0  0
  162.6570  206.7690  148.9540 C   0  0  0  0  0  2  0  0  0  0  0  0
  160.7710  205.8860  150.1260 C   0  0  2  0  0  3  0  0  0  0  0  0
  160.5660  204.7110  146.5290 C   0  0  0  0  0  3  0  0  0  0  0  0
  161.4260  200.8240  150.3270 C   0  0  0  0  0  3  0  0  0  0  0  0
  162.1940  206.0720  147.7070 C   0  0  0  0  0  0  0  0  0  0  0  0
  162.8000  206.3920  146.4870 C   0  0  0  0  0  3  0  0  0  0  0  0
  160.1980  205.4050  151.4670 C   0  0  0  0  0  2  0  0  0  0  0  0
  160.9220  203.1330  150.8550 C   0  0  0  0  0  0  0  0  0  0  0  0
  161.2510  201.8400  151.2690 C   0  0  0  0  0  3  0  0  0  0  0  0
  162.5740  206.9830  151.2700 C   0  0  0  0  0  2  0  0  0  0  0  0
  161.4030  208.6660  150.0730 O   0  0  0  0  0  0  0  0  0  0  0  0
  161.7050  208.1970  151.2040 C   0  0  0  0  0  0  0  0  0  0  0  0
  160.3940  210.2810  154.6870 N   0  0  0  0  0  0  0  0  0  0  0  0
  160.9520  210.3060  152.3120 C   0  0  0  0  0  2  0  0  0  0  0  0
  161.0080  206.9420  153.6960 O   0  0  0  0  0  0  0  0  0  0  0  0
  160.5310  211.0430  155.9140 C   0  0  0  0  0  1  0  0  0  0  0  0
  161.1480  210.9960  153.6610 C   0  0  0  0  0  2  0  0  0  0  0  0
  161.0990  208.1980  153.6500 C   0  0  0  0  0  0  0  0  0  0  0  0
  161.2970  208.8850  152.4000 N   0  0  0  0  0  0  0  0  0  0  0  0
  161.0340  208.9890  154.9200 C   0  0  0  0  0  2  0  0  0  0  0  0
  1 14  1  0  0  0  0
  2  5  1  6  0  0  0
  2  3  1  0  0  0  0
  2 13  1  0  0  0  0
  3 19  1  0  0  0  0
  4 15  2  0  0  0  0
  6  1  2  0  0  0  0
  6 17  1  0  0  0  0
  7  4  1  0  0  0  0
  7  3  2  0  0  0  0
  8 21  1  0  0  0  0
  9  1  1  0  0  0  0
 11  4  1  0  0  0  0
 12  8  1  0  0  0  0
 13  8  1  0  0  0  0
 13 18  1  1  0  0  0
 14  5  2  0  0  0  0
 15 20  1  0  0  0  0
 16  5  1  0  0  0  0
 16 12  1  0  0  0  0
 17 16  2  0  0  0  0
 18 10  1  0  0  0  0
 19 20  2  0  0  0  0
 19 10  1  0  0  0  0
 22 23  2  0  0  0  0
 23 21  1  0  0  0  0
 23 30  1  0  0  0  0
 24 31  1  0  0  0  0
 24 27  1  0  0  0  0
 25 30  1  0  0  0  0
 25 28  1  0  0  0  0
 28 24  1  0  0  0  0
 29 26  2  0  0  0  0
 29 31  1  0  0  0  0
 30 29  1  0  0  0  0
M  END
>  <MODEL>
1

>  <REMARK>
 VINA RESULT:      -7.7      0.000      0.000
  Name = 
  2 active torsions:
  status: ('A' for Active; 'I' for Inactive)
    1  A    between atoms: C_5  and  C_16
    2  A    between atoms: N_10  and  C_16
                            x       y       z     vdW  Elec       q    Type
                         _______ _______ _______ _____ _____    ______ ____

>  <TORSDO>
F 2

$$$$
=
 OpenBabel11122413123D

 31 35  0  0  1  0  0  0  0  0999 V2000
  161.2110  203.2180  145.5120 C   0  0  0  0  0  0  0  0  0  0  0  0
  160.3390  205.1080  148.6990 C   0  0  2  0  0  3  0  0  0  0  0  0
  160.7430  204.2010  149.8550 C   0  0  0  0  0  0  0  0  0  0  0  0
  161.3000  202.0010  150.7340 C   0  0  0  0  0  0  0  0  0  0  0  0
  161.0110  204.7280  147.4020 C   0  0  0  0  0  0  0  0  0  0  0  0
  162.3040  203.9480  145.0400 C   0  0  0  0  0  3  0  0  0  0  0  0
  160.9570  202.8270  149.6600 C   0  0  0  0  0  3  0  0  0  0  0  0
  162.0690  206.8470  148.9680 N   0  0  0  0  0  0  0  0  0  0  0  0
  160.7680  202.1030  144.8140 O   0  0  0  0  0  1  0  0  0  0  0  0
  160.5780  206.0780  151.3980 O   0  0  0  0  0  0  0  0  0  0  0  0
  161.5180  200.6810  150.5300 F   0  0  0  0  0  0  0  0  0  0  0  0
  162.5130  206.7560  147.5720 C   0  0  0  0  0  2  0  0  0  0  0  0
  160.6170  206.5950  149.0190 C   0  0  2  0  0  3  0  0  0  0  0  0
  160.5650  203.6080  146.6880 C   0  0  0  0  0  3  0  0  0  0  0  0
  161.4190  202.5380  152.0180 C   0  0  0  0  0  3  0  0  0  0  0  0
  162.1120  205.4630  146.9220 C   0  0  0  0  0  0  0  0  0  0  0  0
  162.7460  205.0750  145.7370 C   0  0  0  0  0  3  0  0  0  0  0  0
  160.0150  206.9190  150.3940 C   0  0  0  0  0  2  0  0  0  0  0  0
  160.8290  204.7250  151.1610 C   0  0  0  0  0  0  0  0  0  0  0  0
  161.1820  203.8970  152.2300 C   0  0  0  0  0  3  0  0  0  0  0  0
  162.3480  208.2210  149.3740 C   0  0  0  0  0  2  0  0  0  0  0  0
  163.1930  207.3570  151.4170 O   0  0  0  0  0  0  0  0  0  0  0  0
  162.5360  208.2740  150.8560 C   0  0  0  0  0  0  0  0  0  0  0  0
  160.7400  211.2750  153.2970 N   0  0  0  0  0  0  0  0  0  0  0  0
  161.6320  209.0160  153.0640 C   0  0  0  0  0  2  0  0  0  0  0  0
  162.1710  211.0170  150.0730 O   0  0  0  0  0  0  0  0  0  0  0  0
  159.6570  212.0330  153.8950 C   0  0  0  0  0  1  0  0  0  0  0  0
  160.4690  209.8670  153.5700 C   0  0  0  0  0  2  0  0  0  0  0  0
  161.6280  210.6080  151.1330 C   0  0  0  0  0  0  0  0  0  0  0  0
  161.8990  209.2910  151.6490 N   0  0  0  0  0  0  0  0  0  0  0  0
  160.6580  211.4930  151.8540 C   0  0  0  0  0  2  0  0  0  0  0  0
  1 14  1  0  0  0  0
  2  5  1  6  0  0  0
  2 13  1  0  0  0  0
  2  3  1  0  0  0  0
  3 19  1  0  0  0  0
  4 15  2  0  0  0  0
  6  1  2  0  0  0  0
  6 17  1  0  0  0  0
  7  3  2  0  0  0  0
  7  4  1  0  0  0  0
  8 13  1  0  0  0  0
  8 21  1  0  0  0  0
  9  1  1  0  0  0  0
 11  4  1  0  0  0  0
 12  8  1  0  0  0  0
 13 18  1  1  0  0  0
 14  5  2  0  0  0  0
 15 20  1  0  0  0  0
 16  5  1  0  0  0  0
 16 12  1  0  0  0  0
 17 16  2  0  0  0  0
 18 10  1  0  0  0  0
 19 10  1  0  0  0  0
 19 20  2  0  0  0  0
 21 23  1  0  0  0  0
 23 22  2  0  0  0  0
 23 30  1  0  0  0  0
 24 28  1  0  0  0  0
 24 27  1  0  0  0  0
 25 28  1  0  0  0  0
 26 29  2  0  0  0  0
 29 30  1  0  0  0  0
 29 31  1  0  0  0  0
 30 25  1  0  0  0  0
 31 24  1  0  0  0  0
M  END
>  <MODEL>
2

>  <REMARK>
 VINA RESULT:      -7.5      1.521      2.156
  Name = 
  2 active torsions:
  status: ('A' for Active; 'I' for Inactive)
    1  A    between atoms: C_5  and  C_16
    2  A    between atoms: N_10  and  C_16
                            x       y       z     vdW  Elec       q    Type
                         _______ _______ _______ _____ _____    ______ ____

>  <TORSDO>
F 2

$$$$
=
 OpenBabel11122413123D

 31 35  0  0  1  0  0  0  0  0999 V2000
  161.2620  200.9910  148.8560 C   0  0  0  0  0  0  0  0  0  0  0  0
  162.1160  204.6180  148.0770 C   0  0  2  0  0  3  0  0  0  0  0  0
  161.3720  204.9620  146.7920 C   0  0  0  0  0  0  0  0  0  0  0  0
  160.2260  204.2870  144.7540 C   0  0  0  0  0  0  0  0  0  0  0  0
  161.5500  203.3990  148.7650 C   0  0  0  0  0  0  0  0  0  0  0  0
  160.4320  201.1280  149.9700 C   0  0  0  0  0  3  0  0  0  0  0  0
  160.8830  203.9570  145.9430 C   0  0  0  0  0  3  0  0  0  0  0  0
  160.8010  205.9910  149.6490 N   0  0  0  0  0  0  0  0  0  0  0  0
  161.5300  199.7300  148.3420 O   0  0  0  0  0  1  0  0  0  0  0  0
  161.7530  207.3340  147.1970 O   0  0  0  0  0  0  0  0  0  0  0  0
  159.7460  203.3080  143.9520 F   0  0  0  0  0  0  0  0  0  0  0  0
  160.5330  204.8690  150.5550 C   0  0  0  0  0  2  0  0  0  0  0  0
  162.1400  205.8120  149.0580 C   0  0  2  0  0  3  0  0  0  0  0  0
  161.8220  202.1230  148.2560 C   0  0  0  0  0  3  0  0  0  0  0  0
  160.0660  205.6270  144.3940 C   0  0  0  0  0  3  0  0  0  0  0  0
  160.7140  203.5350  149.8900 C   0  0  0  0  0  0  0  0  0  0  0  0
  160.1670  202.3970  150.4930 C   0  0  0  0  0  3  0  0  0  0  0  0
  162.6160  207.0590  148.2980 C   0  0  0  0  0  2  0  0  0  0  0  0
  161.2380  206.3100  146.3990 C   0  0  0  0  0  0  0  0  0  0  0  0
  160.5720  206.6360  145.2150 C   0  0  0  0  0  3  0  0  0  0  0  0
  160.7870  207.1820  150.4940 C   0  0  0  0  0  2  0  0  0  0  0  0
  162.1840  205.8590  151.8830 O   0  0  0  0  0  0  0  0  0  0  0  0
  161.4390  206.8720  151.8030 C   0  0  0  0  0  0  0  0  0  0  0  0
  160.6980  209.1410  155.3370 N   0  0  0  0  0  0  0  0  0  0  0  0
  161.3320  207.0290  154.2940 C   0  0  0  0  0  2  0  0  0  0  0  0
  161.0110  209.7150  151.8610 O   0  0  0  0  0  0  0  0  0  0  0  0
  159.9100  209.7060  156.4160 C   0  0  0  0  0  1  0  0  0  0  0  0
  160.4430  207.7040  155.3370 C   0  0  0  0  0  2  0  0  0  0  0  0
  160.8100  209.0470  152.9090 C   0  0  0  0  0  0  0  0  0  0  0  0
  161.1510  207.6490  152.9780 N   0  0  0  0  0  0  0  0  0  0  0  0
  160.1750  209.7060  154.0950 C   0  0  0  0  0  2  0  0  0  0  0  0
  1  6  1  0  0  0  0
  2  3  1  6  0  0  0
  2  5  1  0  0  0  0
  2 13  1  0  0  0  0
  4  7  1  0  0  0  0
  5 16  2  0  0  0  0
  6 17  2  0  0  0  0
  7  3  2  0  0  0  0
  8 21  1  0  0  0  0
  8 12  1  0  0  0  0
  9  1  1  0  0  0  0
 10 18  1  0  0  0  0
 11  4  1  0  0  0  0
 13 18  1  6  0  0  0
 13  8  1  0  0  0  0
 14  5  1  0  0  0  0
 14  1  2  0  0  0  0
 15  4  2  0  0  0  0
 15 20  1  0  0  0  0
 16 17  1  0  0  0  0
 16 12  1  0  0  0  0
 19  3  1  0  0  0  0
 19 10  1  0  0  0  0
 20 19  2  0  0  0  0
 21 23  1  0  0  0  0
 23 22  2  0  0  0  0
 23 30  1  0  0  0  0
 24 28  1  0  0  0  0
 24 27  1  0  0  0  0
 25 28  1  0  0  0  0
 26 29  2  0  0  0  0
 29 30  1  0  0  0  0
 29 31  1  0  0  0  0
 30 25  1  0  0  0  0
 31 24  1  0  0  0  0
M  END
>  <MODEL>
3

>  <REMARK>
 VINA RESULT:      -7.3      1.979      4.222
  Name = 
  2 active torsions:
  status: ('A' for Active; 'I' for Inactive)
    1  A    between atoms: C_5  and  C_16
    2  A    between atoms: N_10  and  C_16
                            x       y       z     vdW  Elec       q    Type
                         _______ _______ _______ _____ _____    ______ ____

>  <TORSDO>
F 2

$$$$
=
 OpenBabel11122413123D

 31 35  0  0  1  0  0  0  0  0999 V2000
  160.5690  208.4240  154.9320 C   0  0  0  0  0  0  0  0  0  0  0  0
  162.0720  209.5880  151.6350 C   0  0  2  0  0  3  0  0  0  0  0  0
  161.5870  208.6060  150.5760 C   0  0  0  0  0  0  0  0  0  0  0  0
  160.6620  206.4440  149.9490 C   0  0  0  0  0  0  0  0  0  0  0  0
  161.2320  209.5530  152.8880 C   0  0  0  0  0  0  0  0  0  0  0  0
  159.6150  209.4150  155.1740 C   0  0  0  0  0  3  0  0  0  0  0  0
  161.0790  207.3460  150.9320 C   0  0  0  0  0  3  0  0  0  0  0  0
  160.7670  211.5630  150.9380 N   0  0  0  0  0  0  0  0  0  0  0  0
  160.7130  207.3680  155.8220 O   0  0  0  0  0  1  0  0  0  0  0  0
  162.2630  210.1510  148.8190 O   0  0  0  0  0  0  0  0  0  0  0  0
  160.1610  205.2380  150.3070 F   0  0  0  0  0  0  0  0  0  0  0  0
  160.2000  211.7780  152.2740 C   0  0  0  0  0  2  0  0  0  0  0  0
  162.1350  211.0320  151.0850 C   0  0  2  0  0  3  0  0  0  0  0  0
  161.3770  208.4940  153.7940 C   0  0  0  0  0  3  0  0  0  0  0  0
  160.7630  206.7860  148.5990 C   0  0  0  0  0  3  0  0  0  0  0  0
  160.2710  210.5510  153.1360 C   0  0  0  0  0  0  0  0  0  0  0  0
  159.4740  210.4820  154.2840 C   0  0  0  0  0  3  0  0  0  0  0  0
  162.9020  211.0150  149.7550 C   0  0  0  0  0  2  0  0  0  0  0  0
  161.7200  208.9250  149.2090 C   0  0  0  0  0  0  0  0  0  0  0  0
  161.2920  208.0240  148.2310 C   0  0  0  0  0  3  0  0  0  0  0  0
  160.8120  212.8840  150.3190 C   0  0  0  0  0  2  0  0  0  0  0  0
  158.5670  212.8850  149.5480 O   0  0  0  0  0  0  0  0  0  0  0  0
  159.7850  212.9610  149.2350 C   0  0  0  0  0  0  0  0  0  0  0  0
  160.8160  213.1950  145.1030 N   0  0  0  0  0  0  0  0  0  0  0  0
  159.2260  212.5440  146.8360 C   0  0  0  0  0  2  0  0  0  0  0  0
  162.0500  214.3940  148.1930 O   0  0  0  0  0  0  0  0  0  0  0  0
  161.4010  212.7580  143.8490 C   0  0  0  0  0  1  0  0  0  0  0  0
  159.9650  212.1060  145.5730 C   0  0  0  0  0  2  0  0  0  0  0  0
  161.3970  213.6430  147.4210 C   0  0  0  0  0  0  0  0  0  0  0  0
  160.1700  213.0210  147.8500 N   0  0  0  0  0  0  0  0  0  0  0  0
  161.9190  213.3630  146.0450 C   0  0  0  0  0  2  0  0  0  0  0  0
  1  6  1  0  0  0  0
  1  9  1  0  0  0  0
  2  3  1  6  0  0  0
  2  5  1  0  0  0  0
  3  7  1  0  0  0  0
  4 11  1  0  0  0  0
  4  7  2  0  0  0  0
  5 16  2  0  0  0  0
  5 14  1  0  0  0  0
  8 13  1  0  0  0  0
  8 12  1  0  0  0  0
 10 19  1  0  0  0  0
 10 18  1  0  0  0  0
 12 16  1  0  0  0  0
 13 18  1  6  0  0  0
 13  2  1  0  0  0  0
 14  1  2  0  0  0  0
 15  4  1  0  0  0  0
 16 17  1  0  0  0  0
 17  6  2  0  0  0  0
 19  3  2  0  0  0  0
 20 15  2  0  0  0  0
 20 19  1  0  0  0  0
 21  8  1  0  0  0  0
 23 22  2  0  0  0  0
 23 21  1  0  0  0  0
 24 28  1  0  0  0  0
 24 31  1  0  0  0  0
 25 30  1  0  0  0  0
 27 24  1  0  0  0  0
 28 25  1  0  0  0  0
 29 30  1  0  0  0  0
 29 26  2  0  0  0  0
 30 23  1  0  0  0  0
 31 29  1  0  0  0  0
M  END
>  <MODEL>
4

>  <REMARK>
 VINA RESULT:      -6.9      4.055      7.697
  Name = 
  2 active torsions:
  status: ('A' for Active; 'I' for Inactive)
    1  A    between atoms: C_5  and  C_16
    2  A    between atoms: N_10  and  C_16
                            x       y       z     vdW  Elec       q    Type
                         _______ _______ _______ _____ _____    ______ ____

>  <TORSDO>
F 2

$$$$
=
 OpenBabel11122413123D

 31 35  0  0  1  0  0  0  0  0999 V2000
  161.1390  213.1540  147.9720 C   0  0  0  0  0  0  0  0  0  0  0  0
  161.7780  211.3290  151.2510 C   0  0  2  0  0  3  0  0  0  0  0  0
  160.4760  211.4030  152.0390 C   0  0  0  0  0  0  0  0  0  0  0  0
  158.3050  212.4180  152.4650 C   0  0  0  0  0  0  0  0  0  0  0  0
  161.5800  211.5930  149.7780 C   0  0  0  0  0  0  0  0  0  0  0  0
  161.1160  212.0970  147.0600 C   0  0  0  0  0  3  0  0  0  0  0  0
  159.4830  212.3430  151.7180 C   0  0  0  0  0  3  0  0  0  0  0  0
  161.7570  208.9200  150.7190 N   0  0  0  0  0  0  0  0  0  0  0  0
  160.9270  214.4530  147.5330 O   0  0  0  0  0  1  0  0  0  0  0  0
  161.2730  209.6560  153.5370 O   0  0  0  0  0  0  0  0  0  0  0  0
  157.3500  213.3190  152.1350 F   0  0  0  0  0  0  0  0  0  0  0  0
  161.9360  209.1400  149.2790 C   0  0  0  0  0  2  0  0  0  0  0  0
  162.4880  209.9710  151.4510 C   0  0  2  0  0  3  0  0  0  0  0  0
  161.3730  212.9030  149.3270 C   0  0  0  0  0  3  0  0  0  0  0  0
  158.1130  211.5630  153.5530 C   0  0  0  0  0  3  0  0  0  0  0  0
  161.5590  210.5300  148.8560 C   0  0  0  0  0  0  0  0  0  0  0  0
  161.3360  210.7890  147.4990 C   0  0  0  0  0  3  0  0  0  0  0  0
  162.5740  209.6820  152.9570 C   0  0  0  0  0  2  0  0  0  0  0  0
  160.2870  210.5710  153.1620 C   0  0  0  0  0  0  0  0  0  0  0  0
  159.1030  210.6430  153.9010 C   0  0  0  0  0  3  0  0  0  0  0  0
  162.3570  207.6180  150.9900 C   0  0  0  0  0  2  0  0  0  0  0  0
  160.6780  206.9230  152.5170 O   0  0  0  0  0  0  0  0  0  0  0  0
  161.2990  206.6680  151.4500 C   0  0  0  0  0  0  0  0  0  0  0  0
  160.4540  203.0090  149.4280 N   0  0  0  0  0  0  0  0  0  0  0  0
  160.4590  204.3150  151.4880 C   0  0  0  0  0  2  0  0  0  0  0  0
  161.3990  206.3150  148.5980 O   0  0  0  0  0  0  0  0  0  0  0  0
  160.7260  201.6860  148.8980 C   0  0  0  0  0  1  0  0  0  0  0  0
  160.8270  202.9830  150.8390 C   0  0  0  0  0  2  0  0  0  0  0  0
  161.2590  205.3020  149.3330 C   0  0  0  0  0  0  0  0  0  0  0  0
  161.0540  205.4340  150.7530 N   0  0  0  0  0  0  0  0  0  0  0  0
  161.3430  203.9340  148.7280 C   0  0  0  0  0  2  0  0  0  0  0  0
  1 14  1  0  0  0  0
  2  5  1  6  0  0  0
  2 13  1  0  0  0  0
  2  3  1  0  0  0  0
  3 19  1  0  0  0  0
  4 15  2  0  0  0  0
  6 17  1  0  0  0  0
  6  1  2  0  0  0  0
  7  3  2  0  0  0  0
  7  4  1  0  0  0  0
  8 21  1  0  0  0  0
  8 13  1  0  0  0  0
  9  1  1  0  0  0  0
 11  4  1  0  0  0  0
 12  8  1  0  0  0  0
 13 18  1  1  0  0  0
 14  5  2  0  0  0  0
 15 20  1  0  0  0  0
 16 12  1  0  0  0  0
 16  5  1  0  0  0  0
 17 16  2  0  0  0  0
 18 10  1  0  0  0  0
 19 10  1  0  0  0  0
 19 20  2  0  0  0  0
 21 23  1  0  0  0  0
 23 22  2  0  0  0  0
 24 28  1  0  0  0  0
 26 29  2  0  0  0  0
 27 24  1  0  0  0  0
 28 25  1  0  0  0  0
 29 30  1  0  0  0  0
 30 23  1  0  0  0  0
 30 25  1  0  0  0  0
 31 29  1  0  0  0  0
 31 24  1  0  0  0  0
M  END
>  <MODEL>
5

>  <REMARK>
 VINA RESULT:      -6.8      3.815      7.690
  Name = 
  2 active torsions:
  status: ('A' for Active; 'I' for Inactive)
    1  A    between atoms: C_5  and  C_16
    2  A    between atoms: N_10  and  C_16
                            x       y       z     vdW  Elec       q    Type
                         _______ _______ _______ _____ _____    ______ ____

>  <TORSDO>
F 2

$$$$
=
 OpenBabel11122413123D

 31 35  0  0  1  0  0  0  0  0999 V2000
  158.6470  213.8070  144.4860 C   0  0  0  0  0  0  0  0  0  0  0  0
  159.5020  214.4390  148.1410 C   0  0  2  0  0  3  0  0  0  0  0  0
  158.1890  214.3380  148.9070 C   0  0  0  0  0  0  0  0  0  0  0  0
  155.7560  214.3670  148.9680 C   0  0  0  0  0  0  0  0  0  0  0  0
  159.4320  213.7840  146.7820 C   0  0  0  0  0  0  0  0  0  0  0  0
  159.2070  212.5450  144.2780 C   0  0  0  0  0  3  0  0  0  0  0  0
  156.9530  214.4350  148.2490 C   0  0  0  0  0  3  0  0  0  0  0  0
  160.5770  212.3770  148.9670 N   0  0  0  0  0  0  0  0  0  0  0  0
  157.9750  214.4460  143.4530 O   0  0  0  0  0  1  0  0  0  0  0  0
  159.4160  214.1720  151.0050 O   0  0  0  0  0  0  0  0  0  0  0  0
  154.5710  214.4470  148.3180 F   0  0  0  0  0  0  0  0  0  0  0  0
  160.8570  211.8700  147.6190 C   0  0  0  0  0  2  0  0  0  0  0  0
  160.6800  213.8480  148.9490 C   0  0  2  0  0  3  0  0  0  0  0  0
  158.7610  214.4260  145.7330 C   0  0  0  0  0  3  0  0  0  0  0  0
  155.7830  214.2180  150.3560 C   0  0  0  0  0  3  0  0  0  0  0  0
  159.9970  212.5130  146.5690 C   0  0  0  0  0  0  0  0  0  0  0  0
  159.8900  211.9040  145.3140 C   0  0  0  0  0  3  0  0  0  0  0  0
  160.6560  214.4530  150.3600 C   0  0  0  0  0  2  0  0  0  0  0  0
  158.2040  214.2250  150.3130 C   0  0  0  0  0  0  0  0  0  0  0  0
  157.0060  214.1480  151.0270 C   0  0  0  0  0  3  0  0  0  0  0  0
  161.6220  211.8170  149.8170 C   0  0  0  0  0  2  0  0  0  0  0  0
  162.9220  210.8630  148.0750 O   0  0  0  0  0  0  0  0  0  0  0  0
  162.2570  210.6540  149.1250 C   0  0  0  0  0  0  0  0  0  0  0  0
  161.7180  206.6280  150.4260 N   0  0  0  0  0  0  0  0  0  0  0  0
  162.1800  208.2080  148.6250 C   0  0  0  0  0  2  0  0  0  0  0  0
  162.0500  209.8380  151.8750 O   0  0  0  0  0  0  0  0  0  0  0  0
  160.9840  205.4170  150.7410 C   0  0  0  0  0  1  0  0  0  0  0  0
  161.3540  207.0000  149.0620 C   0  0  0  0  0  2  0  0  0  0  0  0
  161.8060  208.9970  150.9690 C   0  0  0  0  0  0  0  0  0  0  0  0
  162.0380  209.3080  149.5820 N   0  0  0  0  0  0  0  0  0  0  0  0
  161.2320  207.6630  151.3360 C   0  0  0  0  0  2  0  0  0  0  0  0
  1 14  1  0  0  0  0
  2  5  1  6  0  0  0
  2  3  1  0  0  0  0
  2 13  1  0  0  0  0
  3 19  1  0  0  0  0
  4 15  2  0  0  0  0
  6  1  2  0  0  0  0
  6 17  1  0  0  0  0
  7  3  2  0  0  0  0
  7  4  1  0  0  0  0
  8 21  1  0  0  0  0
  9  1  1  0  0  0  0
 11  4  1  0  0  0  0
 12  8  1  0  0  0  0
 13  8  1  0  0  0  0
 13 18  1  1  0  0  0
 14  5  2  0  0  0  0
 15 20  1  0  0  0  0
 16  5  1  0  0  0  0
 16 12  1  0  0  0  0
 17 16  2  0  0  0  0
 18 10  1  0  0  0  0
 19 10  1  0  0  0  0
 19 20  2  0  0  0  0
 22 23  2  0  0  0  0
 23 30  1  0  0  0  0
 23 21  1  0  0  0  0
 24 27  1  0  0  0  0
 24 31  1  0  0  0  0
 25 28  1  0  0  0  0
 25 30  1  0  0  0  0
 28 24  1  0  0  0  0
 29 31  1  0  0  0  0
 29 26  2  0  0  0  0
 30 29  1  0  0  0  0
M  END
>  <MODEL>
6

>  <REMARK>
 VINA RESULT:      -6.5      6.020      8.850
  Name = 
  2 active torsions:
  status: ('A' for Active; 'I' for Inactive)
    1  A    between atoms: C_5  and  C_16
    2  A    between atoms: N_10  and  C_16
                            x       y       z     vdW  Elec       q    Type
                         _______ _______ _______ _____ _____    ______ ____

>  <TORSDO>
F 2

$$$$
=
 OpenBabel11122413123D

 31 35  0  0  1  0  0  0  0  0999 V2000
  160.7290  201.5600  148.7390 C   0  0  0  0  0  0  0  0  0  0  0  0
  162.3280  204.8210  149.8780 C   0  0  2  0  0  3  0  0  0  0  0  0
  161.8320  205.8950  148.9170 C   0  0  0  0  0  0  0  0  0  0  0  0
  160.8530  206.5540  146.7890 C   0  0  0  0  0  0  0  0  0  0  0  0
  161.4640  203.5840  149.8590 C   0  0  0  0  0  0  0  0  0  0  0  0
  159.8020  201.3280  149.7570 C   0  0  0  0  0  3  0  0  0  0  0  0
  161.2790  205.5580  147.6710 C   0  0  0  0  0  3  0  0  0  0  0  0
  161.0970  205.5280  151.8960 N   0  0  0  0  0  0  0  0  0  0  0  0
  160.8250  200.6760  147.6730 O   0  0  0  0  0  1  0  0  0  0  0  0
  162.5870  207.6290  150.4520 O   0  0  0  0  0  0  0  0  0  0  0  0
  160.3080  206.2140  145.5970 F   0  0  0  0  0  0  0  0  0  0  0  0
  160.5130  204.2010  152.1200 C   0  0  0  0  0  2  0  0  0  0  0  0
  162.4450  205.3600  151.3220 C   0  0  2  0  0  3  0  0  0  0  0  0
  161.5600  202.6830  148.7910 C   0  0  0  0  0  3  0  0  0  0  0  0
  160.9890  207.9000  147.1360 C   0  0  0  0  0  3  0  0  0  0  0  0
  160.5290  203.3460  150.8850 C   0  0  0  0  0  0  0  0  0  0  0  0
  159.7100  202.2140  150.8340 C   0  0  0  0  0  3  0  0  0  0  0  0
  163.2350  206.6760  151.2900 C   0  0  0  0  0  2  0  0  0  0  0  0
  161.9990  207.2580  149.2410 C   0  0  0  0  0  0  0  0  0  0  0  0
  161.5630  208.2500  148.3600 C   0  0  0  0  0  3  0  0  0  0  0  0
  161.1930  206.1370  153.2180 C   0  0  0  0  0  2  0  0  0  0  0  0
  160.3590  208.0240  152.0460 O   0  0  0  0  0  0  0  0  0  0  0  0
  160.8310  207.5840  153.1280 C   0  0  0  0  0  0  0  0  0  0  0  0
  161.5450  210.3370  156.3060 N   0  0  0  0  0  0  0  0  0  0  0  0
  161.2660  209.9130  153.9200 C   0  0  0  0  0  2  0  0  0  0  0  0
  160.5980  206.9510  155.9240 O   0  0  0  0  0  0  0  0  0  0  0  0
  162.3330  211.0950  157.2610 C   0  0  0  0  0  1  0  0  0  0  0  0
  162.1200  210.5930  154.9890 C   0  0  0  0  0  2  0  0  0  0  0  0
  161.1000  208.0570  155.5890 C   0  0  0  0  0  0  0  0  0  0  0  0
  161.1030  208.4870  154.2140 N   0  0  0  0  0  0  0  0  0  0  0  0
  161.7350  208.9260  156.6310 C   0  0  0  0  0  2  0  0  0  0  0  0
  1 14  2  0  0  0  0
  1  6  1  0  0  0  0
  2  3  1  6  0  0  0
  2 13  1  0  0  0  0
  3 19  1  0  0  0  0
  4 15  2  0  0  0  0
  4  7  1  0  0  0  0
  5  2  1  0  0  0  0
  5 16  2  0  0  0  0
  6 17  2  0  0  0  0
  7  3  2  0  0  0  0
  8 12  1  0  0  0  0
  8 21  1  0  0  0  0
  9  1  1  0  0  0  0
 10 18  1  0  0  0  0
 11  4  1  0  0  0  0
 13 18  1  6  0  0  0
 13  8  1  0  0  0  0
 14  5  1  0  0  0  0
 15 20  1  0  0  0  0
 16 12  1  0  0  0  0
 17 16  1  0  0  0  0
 19 10  1  0  0  0  0
 20 19  2  0  0  0  0
 22 23  2  0  0  0  0
 23 21  1  0  0  0  0
 23 30  1  0  0  0  0
 24 31  1  0  0  0  0
 24 27  1  0  0  0  0
 25 30  1  0  0  0  0
 25 28  1  0  0  0  0
 28 24  1  0  0  0  0
 29 26  2  0  0  0  0
 29 31  1  0  0  0  0
 30 29  1  0  0  0  0
M  END
>  <MODEL>
7

>  <REMARK>
 VINA RESULT:      -6.2      2.231      4.097
  Name = 
  2 active torsions:
  status: ('A' for Active; 'I' for Inactive)
    1  A    between atoms: C_5  and  C_16
    2  A    between atoms: N_10  and  C_16
                            x       y       z     vdW  Elec       q    Type
                         _______ _______ _______ _____ _____    ______ ____

>  <TORSDO>
F 2

$$$$
=
 OpenBabel11122413123D

 31 35  0  0  1  0  0  0  0  0999 V2000
  160.9280  201.4730  149.9200 C   0  0  0  0  0  0  0  0  0  0  0  0
  162.2180  204.5910  148.1570 C   0  0  2  0  0  3  0  0  0  0  0  0
  161.5200  204.6320  146.8040 C   0  0  0  0  0  0  0  0  0  0  0  0
  160.2970  203.5330  145.0090 C   0  0  0  0  0  0  0  0  0  0  0  0
  161.5080  203.7000  149.1480 C   0  0  0  0  0  0  0  0  0  0  0  0
  160.1230  202.0250  150.9180 C   0  0  0  0  0  3  0  0  0  0  0  0
  160.9100  203.4880  146.2640 C   0  0  0  0  0  3  0  0  0  0  0  0
  161.0830  206.5060  149.2210 N   0  0  0  0  0  0  0  0  0  0  0  0
  161.0390  200.0950  149.8010 O   0  0  0  0  0  1  0  0  0  0  0  0
  162.1890  206.9570  146.5200 O   0  0  0  0  0  0  0  0  0  0  0  0
  159.6990  202.4260  144.5080 F   0  0  0  0  0  0  0  0  0  0  0  0
  160.6810  205.7350  150.4020 C   0  0  0  0  0  2  0  0  0  0  0  0
  162.3900  206.0070  148.7530 C   0  0  2  0  0  3  0  0  0  0  0  0
  161.6210  202.3080  149.0390 C   0  0  0  0  0  3  0  0  0  0  0  0
  160.3010  204.7190  144.2730 C   0  0  0  0  0  3  0  0  0  0  0  0
  160.6970  204.2530  150.1570 C   0  0  0  0  0  0  0  0  0  0  0  0
  160.0160  203.4120  151.0440 C   0  0  0  0  0  3  0  0  0  0  0  0
  163.0130  206.9140  147.6820 C   0  0  0  0  0  2  0  0  0  0  0  0
  161.5510  205.8140  146.0340 C   0  0  0  0  0  0  0  0  0  0  0  0
  160.9280  205.8570  144.7840 C   0  0  0  0  0  3  0  0  0  0  0  0
  161.2170  207.8840  149.6850 C   0  0  0  0  0  2  0  0  0  0  0  0
  162.2740  206.8760  151.5550 O   0  0  0  0  0  0  0  0  0  0  0  0
  161.6710  207.8880  151.1090 C   0  0  0  0  0  0  0  0  0  0  0  0
  160.8080  211.0910  153.7890 N   0  0  0  0  0  0  0  0  0  0  0  0
  161.2980  208.7280  153.4320 C   0  0  0  0  0  2  0  0  0  0  0  0
  161.5860  210.6650  150.3660 O   0  0  0  0  0  0  0  0  0  0  0  0
  159.9750  211.9940  154.5610 C   0  0  0  0  0  1  0  0  0  0  0  0
  160.3830  209.7350  154.1260 C   0  0  0  0  0  2  0  0  0  0  0  0
  161.1870  210.3280  151.5120 C   0  0  0  0  0  0  0  0  0  0  0  0
  161.3460  208.9780  151.9890 N   0  0  0  0  0  0  0  0  0  0  0  0
  160.5040  211.3380  152.3820 C   0  0  0  0  0  2  0  0  0  0  0  0
  1  6  1  0  0  0  0
  2  3  1  6  0  0  0
  2 13  1  0  0  0  0
  2  5  1  0  0  0  0
  4  7  2  0  0  0  0
  5 16  2  0  0  0  0
  6 17  2  0  0  0  0
  7  3  1  0  0  0  0
  8 21  1  0  0  0  0
  8 12  1  0  0  0  0
  9  1  1  0  0  0  0
 10 18  1  0  0  0  0
 11  4  1  0  0  0  0
 13 18  1  6  0  0  0
 13  8  1  0  0  0  0
 14  5  1  0  0  0  0
 14  1  2  0  0  0  0
 15 20  2  0  0  0  0
 15  4  1  0  0  0  0
 16 12  1  0  0  0  0
 16 17  1  0  0  0  0
 19 10  1  0  0  0  0
 19  3  2  0  0  0  0
 20 19  1  0  0  0  0
 21 23  1  0  0  0  0
 23 22  2  0  0  0  0
 23 30  1  0  0  0  0
 24 28  1  0  0  0  0
 24 27  1  0  0  0  0
 25 28  1  0  0  0  0
 26 29  2  0  0  0  0
 29 30  1  0  0  0  0
 29 31  1  0  0  0  0
 30 25  1  0  0  0  0
 31 24  1  0  0  0  0
M  END
>  <MODEL>
8

>  <REMARK>
 VINA RESULT:      -6.1      1.790      4.229
  Name = 
  2 active torsions:
  status: ('A' for Active; 'I' for Inactive)
    1  A    between atoms: C_5  and  C_16
    2  A    between atoms: N_10  and  C_16
                            x       y       z     vdW  Elec       q    Type
                         _______ _______ _______ _____ _____    ______ ____

>  <TORSDO>
F 2

$$$$
=
 OpenBabel11122413123D

 31 35  0  0  1  0  0  0  0  0999 V2000
  160.4680  207.6340  156.0390 C   0  0  0  0  0  0  0  0  0  0  0  0
  161.9110  208.8990  152.7520 C   0  0  2  0  0  3  0  0  0  0  0  0
  161.4680  207.9070  151.6840 C   0  0  0  0  0  0  0  0  0  0  0  0
  160.6380  205.7130  151.0350 C   0  0  0  0  0  0  0  0  0  0  0  0
  161.0760  208.8130  154.0060 C   0  0  0  0  0  0  0  0  0  0  0  0
  159.4710  208.5790  156.2930 C   0  0  0  0  0  3  0  0  0  0  0  0
  161.0160  206.6230  152.0270 C   0  0  0  0  0  3  0  0  0  0  0  0
  160.5190  210.8220  152.0790 N   0  0  0  0  0  0  0  0  0  0  0  0
  160.6600  206.5760  156.9170 O   0  0  0  0  0  1  0  0  0  0  0  0
  162.0710  209.4990  149.9430 O   0  0  0  0  0  0  0  0  0  0  0  0
  160.1910  204.4830  151.3810 F   0  0  0  0  0  0  0  0  0  0  0  0
  159.9460  210.9980  153.4180 C   0  0  0  0  0  2  0  0  0  0  0  0
  161.9100  210.3500  152.2180 C   0  0  2  0  0  3  0  0  0  0  0  0
  161.2690  207.7520  154.9000 C   0  0  0  0  0  3  0  0  0  0  0  0
  160.7210  206.0740  149.6890 C   0  0  0  0  0  3  0  0  0  0  0  0
  160.0720  209.7650  154.2660 C   0  0  0  0  0  0  0  0  0  0  0  0
  159.2810  209.6490  155.4150 C   0  0  0  0  0  3  0  0  0  0  0  0
  162.6740  210.3810  150.8870 C   0  0  0  0  0  2  0  0  0  0  0  0
  161.5840  208.2470  150.3200 C   0  0  0  0  0  0  0  0  0  0  0  0
  161.1950  207.3380  149.3330 C   0  0  0  0  0  3  0  0  0  0  0  0
  160.5040  212.1490  151.4740 C   0  0  0  0  0  2  0  0  0  0  0  0
  158.2470  212.3590  152.1750 O   0  0  0  0  0  0  0  0  0  0  0  0
  159.0900  212.5880  151.2680 C   0  0  0  0  0  0  0  0  0  0  0  0
  157.7410  214.3740  147.6370 N   0  0  0  0  0  0  0  0  0  0  0  0
  157.2550  213.0720  149.6430 C   0  0  0  0  0  2  0  0  0  0  0  0
  160.6490  214.3830  149.6500 O   0  0  0  0  0  0  0  0  0  0  0  0
  157.4600  214.4530  146.2160 C   0  0  0  0  0  1  0  0  0  0  0  0
  157.0950  213.1590  148.1260 C   0  0  0  0  0  2  0  0  0  0  0  0
  159.5560  213.9490  149.1990 C   0  0  0  0  0  0  0  0  0  0  0  0
  158.6670  213.1700  150.0220 N   0  0  0  0  0  0  0  0  0  0  0  0
  159.1870  214.2180  147.7720 C   0  0  0  0  0  2  0  0  0  0  0  0
  1  6  1  0  0  0  0
  1  9  1  0  0  0  0
  2  3  1  6  0  0  0
  2  5  1  0  0  0  0
  3  7  1  0  0  0  0
  4 11  1  0  0  0  0
  4  7  2  0  0  0  0
  5 16  2  0  0  0  0
  5 14  1  0  0  0  0
  8 13  1  0  0  0  0
  8 12  1  0  0  0  0
 10 19  1  0  0  0  0
 10 18  1  0  0  0  0
 12 16  1  0  0  0  0
 13 18  1  6  0  0  0
 13  2  1  0  0  0  0
 14  1  2  0  0  0  0
 15  4  1  0  0  0  0
 16 17  1  0  0  0  0
 17  6  2  0  0  0  0
 19  3  2  0  0  0  0
 20 15  2  0  0  0  0
 20 19  1  0  0  0  0
 21  8  1  0  0  0  0
 23 21  1  0  0  0  0
 23 22  2  0  0  0  0
 24 31  1  0  0  0  0
 24 28  1  0  0  0  0
 25 30  1  0  0  0  0
 27 24  1  0  0  0  0
 28 25  1  0  0  0  0
 29 26  2  0  0  0  0
 29 30  1  0  0  0  0
 30 23  1  0  0  0  0
 31 29  1  0  0  0  0
M  END
>  <MODEL>
9

>  <REMARK>
 VINA RESULT:      -5.7      3.816      7.441
  Name = 
  2 active torsions:
  status: ('A' for Active; 'I' for Inactive)
    1  A    between atoms: C_5  and  C_16
    2  A    between atoms: N_10  and  C_16
                            x       y       z     vdW  Elec       q    Type
                         _______ _______ _______ _____ _____    ______ ____

>  <TORSDO>
F 2

$$$$
