=
 OpenBabel11122412433D

 30 34  0  0  1  0  0  0  0  0999 V2000
  161.4780  207.9790  151.6040 C   0  0  2  0  0  3  0  0  0  0  0  0
  162.0240  207.6340  147.4270 O   0  0  0  0  0  0  0  0  0  0  0  0
  161.1660  206.6720  150.8390 C   0  0  2  0  0  3  0  0  0  0  0  0
  160.6140  208.0280  152.8590 C   0  0  0  0  0  2  0  0  0  0  0  0
  161.2760  204.4960  153.8940 O   0  0  0  0  0  1  0  0  0  0  0  0
  160.4410  203.9930  149.9920 C   0  0  1  0  0  3  0  0  0  0  0  0
  160.8250  205.5190  153.0570 C   0  0  1  0  0  3  0  0  0  0  0  0
  160.9180  204.4280  148.6130 C   0  0  2  0  0  3  0  0  0  0  0  0
  162.0680  206.2550  147.3300 C   0  0  0  0  0  0  0  0  0  0  0  0
  160.9810  206.8640  153.7770 C   0  0  2  0  0  3  0  0  0  0  0  0
  161.6170  205.5080  151.7380 C   0  0  1  0  0  3  0  0  0  0  0  0
  161.5580  203.1990  148.0060 C   0  0  0  0  0  2  0  0  0  0  0  0
  160.0780  202.5230  149.8310 C   0  0  0  0  0  2  0  0  0  0  0  0
  161.5310  207.9200  148.7210 C   0  0  1  0  0  3  0  0  0  0  0  0
  161.3480  209.2790  150.7660 C   0  0  2  0  0  3  0  0  0  0  0  0
  161.9380  206.7030  149.5230 C   0  0  2  0  0  3  0  0  0  0  0  0
  162.2710  205.6490  146.2450 O   0  0  0  0  0  0  0  0  0  0  0  0
  161.8230  205.5900  148.5680 N   0  0  0  0  0  0  0  0  0  0  0  0
  160.7880  202.0240  148.5790 C   0  0  0  0  0  2  0  0  0  0  0  0
  162.2970  203.2980  151.3080 O   0  0  0  0  0  0  0  0  0  0  0  0
  162.0490  209.1790  149.3910 C   0  0  2  0  0  3  0  0  0  0  0  0
  161.4960  204.1840  151.0480 C   0  0  0  0  0  0  0  0  0  0  0  0
  161.8890  210.4410  151.5420 C   0  0  0  0  0  0  0  0  0  0  0  0
  163.0920  210.4420  151.9080 O   0  0  0  0  0  1  0  0  0  0  0  0
  161.0710  211.5200  151.8560 O   0  0  0  0  0  0  0  0  0  0  0  0
  162.8270  211.2040  148.3800 O   0  0  0  0  0  1  0  0  0  0  0  0
  161.7010  210.3960  148.5410 C   0  0  0  0  0  2  0  0  0  0  0  0
  160.1660  206.8950  154.9110 O   0  0  0  0  0  0  0  0  0  0  0  0
  161.6870  208.1170  156.5620 C   0  0  0  0  0  1  0  0  0  0  0  0
  160.2740  208.5100  155.4910 S   0  0  0  0  0  0  0  0  0  0  0  0
  1  4  1  1  0  0  0
  2 14  1  0  0  0  0
  3  1  1  0  0  0  0
  3 11  1  0  0  0  0
  4 10  1  0  0  0  0
  6 22  1  0  0  0  0
  7 10  1  0  0  0  0
  7  5  1  0  0  0  0
  8  6  1  0  0  0  0
  9  2  1  0  0  0  0
  9 18  1  0  0  0  0
 10 28  1  0  0  0  0
 11  7  1  0  0  0  0
 12 19  1  0  0  0  0
 12  8  1  0  0  0  0
 13  6  1  0  0  0  0
 14 21  1  0  0  0  0
 14 16  1  0  0  0  0
 15 23  1  0  0  0  0
 15  1  1  0  0  0  0
 16  3  1  0  0  0  0
 17  9  2  0  0  0  0
 18  8  1  0  0  0  0
 18 16  1  0  0  0  0
 19 13  1  0  0  0  0
 21 15  1  0  0  0  0
 22 20  2  0  0  0  0
 22 11  1  0  0  0  0
 23 25  2  0  0  0  0
 23 24  1  0  0  0  0
 26 27  1  0  0  0  0
 27 21  1  0  0  0  0
 28 30  1  0  0  0  0
 30 29  1  0  0  0  0
M  END
>  <MODEL>
1

>  <REMARK>
 VINA RESULT:      -7.2      0.000      0.000
  Name = 
  4 active torsions:
  status: ('A' for Active; 'I' for Inactive)
    1  A    between atoms: C_2  and  C_19
    2  A    between atoms: C_11  and  O_28
    3  A    between atoms: C_25  and  C_26
    4  A    between atoms: O_28  and  S_30
                            x       y       z     vdW  Elec       q    Type
                         _______ _______ _______ _____ _____    ______ ____

>  <TORSDO>
F 4

$$$$
=
 OpenBabel11122412433D

 30 34  0  0  1  0  0  0  0  0999 V2000
  161.4180  208.7130  151.6610 C   0  0  2  0  0  3  0  0  0  0  0  0
  160.8740  204.9010  153.4060 O   0  0  0  0  0  0  0  0  0  0  0  0
  161.5970  207.4060  150.8540 C   0  0  2  0  0  3  0  0  0  0  0  0
  162.2720  209.8020  151.0210 C   0  0  0  0  0  2  0  0  0  0  0  0
  161.2310  209.0620  147.5070 O   0  0  0  0  0  1  0  0  0  0  0  0
  162.0400  205.3570  148.8480 C   0  0  1  0  0  3  0  0  0  0  0  0
  161.7940  208.7920  148.7560 C   0  0  1  0  0  3  0  0  0  0  0  0
  161.6240  204.3720  149.9320 C   0  0  2  0  0  3  0  0  0  0  0  0
  160.6850  204.1630  152.2510 C   0  0  0  0  0  0  0  0  0  0  0  0
  161.7760  210.0710  149.6030 C   0  0  2  0  0  3  0  0  0  0  0  0
  161.0170  207.6630  149.4520 C   0  0  1  0  0  3  0  0  0  0  0  0
  160.8620  203.2830  149.2100 C   0  0  0  0  0  2  0  0  0  0  0  0
  162.2470  204.5020  147.6050 C   0  0  0  0  0  2  0  0  0  0  0  0
  161.3830  206.1530  152.9900 C   0  0  1  0  0  3  0  0  0  0  0  0
  161.6920  208.5880  153.1840 C   0  0  2  0  0  3  0  0  0  0  0  0
  160.8430  206.2970  151.5830 C   0  0  2  0  0  3  0  0  0  0  0  0
  160.4280  202.9300  152.2590 O   0  0  0  0  0  0  0  0  0  0  0  0
  160.8480  204.9240  151.0560 N   0  0  0  0  0  0  0  0  0  0  0  0
  161.4990  203.1950  147.8350 C   0  0  0  0  0  2  0  0  0  0  0  0
  160.1100  206.2630  147.7930 O   0  0  0  0  0  0  0  0  0  0  0  0
  160.9970  207.3620  153.8200 C   0  0  2  0  0  3  0  0  0  0  0  0
  161.0030  206.4220  148.6130 C   0  0  0  0  0  0  0  0  0  0  0  0
  161.2710  209.8450  153.8810 C   0  0  0  0  0  0  0  0  0  0  0  0
  160.0700  210.2170  153.8280 O   0  0  0  0  0  0  0  0  0  0  0  0
  162.1980  210.6010  154.5900 O   0  0  0  0  0  1  0  0  0  0  0  0
  160.3870  207.0280  156.1100 O   0  0  0  0  0  1  0  0  0  0  0  0
  161.4790  207.1780  155.2550 C   0  0  0  0  0  2  0  0  0  0  0  0
  162.5800  211.0470  149.0090 O   0  0  0  0  0  0  0  0  0  0  0  0
  162.5690  213.0340  147.4010 C   0  0  0  0  0  1  0  0  0  0  0  0
  161.5310  212.3820  148.7400 S   0  0  0  0  0  0  0  0  0  0  0  0
  1  4  1  6  0  0  0
  1 15  1  0  0  0  0
  3 16  1  0  0  0  0
  3  1  1  0  0  0  0
  5  7  1  0  0  0  0
  6  8  1  0  0  0  0
  7 11  1  0  0  0  0
  7 10  1  0  0  0  0
  8 18  1  0  0  0  0
  9 17  2  0  0  0  0
  9  2  1  0  0  0  0
 10  4  1  0  0  0  0
 11  3  1  0  0  0  0
 12  8  1  0  0  0  0
 13 19  1  0  0  0  0
 13  6  1  0  0  0  0
 14  2  1  0  0  0  0
 14 21  1  0  0  0  0
 15 21  1  0  0  0  0
 15 23  1  0  0  0  0
 16 14  1  0  0  0  0
 18 16  1  0  0  0  0
 18  9  1  0  0  0  0
 19 12  1  0  0  0  0
 20 22  2  0  0  0  0
 21 27  1  0  0  0  0
 22  6  1  0  0  0  0
 22 11  1  0  0  0  0
 23 25  1  0  0  0  0
 24 23  2  0  0  0  0
 27 26  1  0  0  0  0
 28 10  1  0  0  0  0
 29 30  1  0  0  0  0
 30 28  1  0  0  0  0
M  END
>  <MODEL>
2

>  <REMARK>
 VINA RESULT:      -7.0      2.121      5.122
  Name = 
  4 active torsions:
  status: ('A' for Active; 'I' for Inactive)
    1  A    between atoms: C_2  and  C_19
    2  A    between atoms: C_11  and  O_28
    3  A    between atoms: C_25  and  C_26
    4  A    between atoms: O_28  and  S_30
                            x       y       z     vdW  Elec       q    Type
                         _______ _______ _______ _____ _____    ______ ____

>  <TORSDO>
F 4

$$$$
=
 OpenBabel11122412433D

 30 34  0  0  1  0  0  0  0  0999 V2000
  161.3360  206.3200  150.8330 C   0  0  2  0  0  3  0  0  0  0  0  0
  160.8260  202.3000  149.6270 O   0  0  0  0  0  0  0  0  0  0  0  0
  161.6160  205.8540  149.3850 C   0  0  2  0  0  3  0  0  0  0  0  0
  162.1870  207.5510  151.1230 C   0  0  0  0  0  2  0  0  0  0  0  0
  161.4050  209.2980  147.9100 O   0  0  0  0  0  1  0  0  0  0  0  0
  162.2680  205.6040  146.5690 C   0  0  1  0  0  3  0  0  0  0  0  0
  161.8960  208.2710  148.7190 C   0  0  1  0  0  3  0  0  0  0  0  0
  161.8200  204.1560  146.7150 C   0  0  2  0  0  3  0  0  0  0  0  0
  160.7410  202.4970  148.2600 C   0  0  0  0  0  0  0  0  0  0  0  0
  161.7740  208.6870  150.1900 C   0  0  2  0  0  3  0  0  0  0  0  0
  161.1200  206.9710  148.4520 C   0  0  1  0  0  3  0  0  0  0  0  0
  161.1490  203.8120  145.4040 C   0  0  0  0  0  2  0  0  0  0  0  0
  162.5870  205.7650  145.0890 C   0  0  0  0  0  2  0  0  0  0  0  0
  161.3130  203.5140  150.1660 C   0  0  1  0  0  3  0  0  0  0  0  0
  161.5150  205.2280  151.9220 C   0  0  2  0  0  3  0  0  0  0  0  0
  160.8600  204.5480  149.1580 C   0  0  2  0  0  3  0  0  0  0  0  0
  160.5310  201.5610  147.4440 O   0  0  0  0  0  0  0  0  0  0  0  0
  160.9520  203.8520  147.8660 N   0  0  0  0  0  0  0  0  0  0  0  0
  161.8770  204.6340  144.3560 C   0  0  0  0  0  2  0  0  0  0  0  0
  160.3760  207.0050  146.2200 O   0  0  0  0  0  0  0  0  0  0  0  0
  160.8270  203.8930  151.5520 C   0  0  2  0  0  3  0  0  0  0  0  0
  161.2070  206.5780  147.0080 C   0  0  0  0  0  0  0  0  0  0  0  0
  161.0010  205.7310  153.2370 C   0  0  0  0  0  0  0  0  0  0  0  0
  161.0960  205.0090  154.2620 O   0  0  0  0  0  1  0  0  0  0  0  0
  160.4240  206.9920  153.3310 O   0  0  0  0  0  0  0  0  0  0  0  0
  162.3060  202.0820  152.0630 O   0  0  0  0  0  1  0  0  0  0  0  0
  161.2210  202.8120  152.5510 C   0  0  0  0  0  2  0  0  0  0  0  0
  162.5770  209.8030  150.4380 O   0  0  0  0  0  0  0  0  0  0  0  0
  160.8020  210.8190  151.9710 C   0  0  0  0  0  1  0  0  0  0  0  0
  162.4500  210.0740  152.1310 S   0  0  0  0  0  0  0  0  0  0  0  0
  1  4  1  1  0  0  0
  1 15  1  0  0  0  0
  2 14  1  0  0  0  0
  3  1  1  0  0  0  0
  5  7  1  0  0  0  0
  6  8  1  0  0  0  0
  6 22  1  0  0  0  0
  7 10  1  0  0  0  0
  8 18  1  0  0  0  0
  9  2  1  0  0  0  0
 10 28  1  0  0  0  0
 10  4  1  0  0  0  0
 11  7  1  0  0  0  0
 11  3  1  0  0  0  0
 12  8  1  0  0  0  0
 13  6  1  0  0  0  0
 14 21  1  0  0  0  0
 15 23  1  0  0  0  0
 16  3  1  0  0  0  0
 16 14  1  0  0  0  0
 17  9  2  0  0  0  0
 18  9  1  0  0  0  0
 18 16  1  0  0  0  0
 19 13  1  0  0  0  0
 19 12  1  0  0  0  0
 20 22  2  0  0  0  0
 21 15  1  0  0  0  0
 21 27  1  0  0  0  0
 22 11  1  0  0  0  0
 23 25  2  0  0  0  0
 23 24  1  0  0  0  0
 26 27  1  0  0  0  0
 28 30  1  0  0  0  0
 29 30  1  0  0  0  0
M  END
>  <MODEL>
3

>  <REMARK>
 VINA RESULT:      -6.0      1.890      5.117
  Name = 
  4 active torsions:
  status: ('A' for Active; 'I' for Inactive)
    1  A    between atoms: C_2  and  C_19
    2  A    between atoms: C_11  and  O_28
    3  A    between atoms: C_25  and  C_26
    4  A    between atoms: O_28  and  S_30
                            x       y       z     vdW  Elec       q    Type
                         _______ _______ _______ _____ _____    ______ ____

>  <TORSDO>
F 4

$$$$
=
 OpenBabel11122412433D

 30 34  0  0  1  0  0  0  0  0999 V2000
  161.7100  207.6940  148.8250 C   0  0  2  0  0  3  0  0  0  0  0  0
  161.0770  204.5390  151.5660 O   0  0  0  0  0  0  0  0  0  0  0  0
  161.3160  207.9510  150.2980 C   0  0  2  0  0  3  0  0  0  0  0  0
  161.2380  208.8720  147.9800 C   0  0  0  0  0  2  0  0  0  0  0  0
  162.4890  211.5150  150.3100 O   0  0  0  0  0  1  0  0  0  0  0  0
  160.6310  209.0540  152.8920 C   0  0  1  0  0  3  0  0  0  0  0  0
  161.7270  210.4110  149.9210 C   0  0  1  0  0  3  0  0  0  0  0  0
  160.6540  207.6120  153.3800 C   0  0  2  0  0  3  0  0  0  0  0  0
  161.2190  205.2490  152.7450 C   0  0  0  0  0  0  0  0  0  0  0  0
  161.9560  210.1410  148.4290 C   0  0  2  0  0  3  0  0  0  0  0  0
  162.1090  209.1830  150.7640 C   0  0  1  0  0  3  0  0  0  0  0  0
  161.2060  207.6750  154.7870 C   0  0  0  0  0  2  0  0  0  0  0  0
  160.3740  209.8820  154.1430 C   0  0  0  0  0  2  0  0  0  0  0  0
  160.9480  205.5050  150.5410 C   0  0  1  0  0  3  0  0  0  0  0  0
  161.2280  206.3390  148.2420 C   0  0  2  0  0  3  0  0  0  0  0  0
  161.6760  206.7070  151.1040 C   0  0  2  0  0  3  0  0  0  0  0  0
  161.1600  204.7100  153.8820 O   0  0  0  0  0  0  0  0  0  0  0  0
  161.3970  206.6500  152.5470 N   0  0  0  0  0  0  0  0  0  0  0  0
  160.7420  209.0110  155.3370 C   0  0  0  0  0  2  0  0  0  0  0  0
  162.8400  209.9360  152.8700 O   0  0  0  0  0  0  0  0  0  0  0  0
  161.5150  205.1440  149.1820 C   0  0  2  0  0  3  0  0  0  0  0  0
  161.9200  209.4530  152.2260 C   0  0  0  0  0  0  0  0  0  0  0  0
  161.8580  206.1080  146.9010 C   0  0  0  0  0  0  0  0  0  0  0  0
  163.0810  205.8240  146.8260 O   0  0  0  0  0  1  0  0  0  0  0  0
  161.0980  206.2030  145.7410 O   0  0  0  0  0  0  0  0  0  0  0  0
  161.7860  202.9520  148.2590 O   0  0  0  0  0  1  0  0  0  0  0  0
  160.8300  203.8900  148.6520 C   0  0  0  0  0  2  0  0  0  0  0  0
  161.4970  211.2240  147.6740 O   0  0  0  0  0  0  0  0  0  0  0  0
  161.8390  213.7570  147.6400 C   0  0  0  0  0  1  0  0  0  0  0  0
  162.8600  212.2600  147.5120 S   0  0  0  0  0  0  0  0  0  0  0  0
  1  4  1  6  0  0  0
  1  3  1  0  0  0  0
  2  9  1  0  0  0  0
  3 11  1  0  0  0  0
  3 16  1  0  0  0  0
  4 10  1  0  0  0  0
  6  8  1  0  0  0  0
  6 13  1  0  0  0  0
  7  5  1  0  0  0  0
  7 11  1  0  0  0  0
  8 12  1  0  0  0  0
  9 17  2  0  0  0  0
 10  7  1  0  0  0  0
 11 22  1  0  0  0  0
 12 19  1  0  0  0  0
 13 19  1  0  0  0  0
 14 16  1  0  0  0  0
 14  2  1  0  0  0  0
 15  1  1  0  0  0  0
 15 21  1  0  0  0  0
 16 18  1  0  0  0  0
 18  9  1  0  0  0  0
 18  8  1  0  0  0  0
 21 14  1  0  0  0  0
 22 20  2  0  0  0  0
 22  6  1  0  0  0  0
 23 15  1  0  0  0  0
 24 23  1  0  0  0  0
 25 23  2  0  0  0  0
 26 27  1  0  0  0  0
 27 21  1  0  0  0  0
 28 10  1  0  0  0  0
 30 29  1  0  0  0  0
 30 28  1  0  0  0  0
M  END
>  <MODEL>
4

>  <REMARK>
 VINA RESULT:      -5.3      2.319      6.528
  Name = 
  4 active torsions:
  status: ('A' for Active; 'I' for Inactive)
    1  A    between atoms: C_2  and  C_19
    2  A    between atoms: C_11  and  O_28
    3  A    between atoms: C_25  and  C_26
    4  A    between atoms: O_28  and  S_30
                            x       y       z     vdW  Elec       q    Type
                         _______ _______ _______ _____ _____    ______ ____

>  <TORSDO>
F 4

$$$$
=
 OpenBabel11122412433D

 30 34  0  0  1  0  0  0  0  0999 V2000
  161.6180  207.2400  150.9080 C   0  0  2  0  0  3  0  0  0  0  0  0
  161.2190  211.3410  151.8530 O   0  0  0  0  0  0  0  0  0  0  0  0
  161.5490  207.7450  152.3690 C   0  0  2  0  0  3  0  0  0  0  0  0
  162.3860  205.9230  150.8830 C   0  0  0  0  0  2  0  0  0  0  0  0
  160.6010  204.4080  153.8000 O   0  0  0  0  0  1  0  0  0  0  0  0
  161.4470  208.0630  155.2510 C   0  0  1  0  0  3  0  0  0  0  0  0
  161.3920  205.3460  153.1330 C   0  0  1  0  0  3  0  0  0  0  0  0
  161.2050  209.5380  154.9610 C   0  0  2  0  0  3  0  0  0  0  0  0
  160.7520  211.2170  153.1490 C   0  0  0  0  0  0  0  0  0  0  0  0
  161.6250  204.8750  151.6920 C   0  0  2  0  0  3  0  0  0  0  0  0
  160.7100  206.7240  153.1550 C   0  0  1  0  0  3  0  0  0  0  0  0
  160.2470  210.0040  156.0350 C   0  0  0  0  0  2  0  0  0  0  0  0
  161.3420  207.9430  156.7650 C   0  0  0  0  0  2  0  0  0  0  0  0
  161.7050  210.0640  151.4890 C   0  0  1  0  0  3  0  0  0  0  0  0
  162.1920  208.2580  149.8870 C   0  0  2  0  0  3  0  0  0  0  0  0
  160.8970  209.1240  152.3570 C   0  0  2  0  0  3  0  0  0  0  0  0
  160.4290  212.2050  153.8600 O   0  0  0  0  0  0  0  0  0  0  0  0
  160.7110  209.8680  153.6120 N   0  0  0  0  0  0  0  0  0  0  0  0
  160.5810  209.1670  157.2560 C   0  0  0  0  0  2  0  0  0  0  0  0
  159.3980  206.8620  155.1030 O   0  0  0  0  0  0  0  0  0  0  0  0
  161.5710  209.6670  150.0310 C   0  0  2  0  0  3  0  0  0  0  0  0
  160.4480  207.1730  154.5600 C   0  0  0  0  0  0  0  0  0  0  0  0
  161.9990  207.7450  148.4930 C   0  0  0  0  0  0  0  0  0  0  0  0
  162.9810  207.6820  147.7090 O   0  0  0  0  0  0  0  0  0  0  0  0
  160.7440  207.3340  148.0610 O   0  0  0  0  0  1  0  0  0  0  0  0
  161.4610  211.2240  148.2160 O   0  0  0  0  0  1  0  0  0  0  0  0
  162.3260  210.6600  149.1540 C   0  0  0  0  0  2  0  0  0  0  0  0
  162.3470  203.6780  151.6930 O   0  0  0  0  0  0  0  0  0  0  0  0
  160.8670  203.3290  149.6380 C   0  0  0  0  0  1  0  0  0  0  0  0
  161.2160  202.4790  151.2040 S   0  0  0  0  0  0  0  0  0  0  0  0
  1  4  1  1  0  0  0
  1  3  1  0  0  0  0
  2  9  1  0  0  0  0
  3 11  1  0  0  0  0
  4 10  1  0  0  0  0
  6 13  1  0  0  0  0
  7 11  1  0  0  0  0
  7  5  1  0  0  0  0
  8  6  1  0  0  0  0
  8 12  1  0  0  0  0
  9 18  1  0  0  0  0
  9 17  2  0  0  0  0
 10 28  1  0  0  0  0
 10  7  1  0  0  0  0
 11 22  1  0  0  0  0
 12 19  1  0  0  0  0
 13 19  1  0  0  0  0
 14  2  1  0  0  0  0
 14 16  1  0  0  0  0
 15 21  1  0  0  0  0
 15  1  1  0  0  0  0
 16  3  1  0  0  0  0
 16 18  1  0  0  0  0
 18  8  1  0  0  0  0
 21 14  1  0  0  0  0
 22 20  2  0  0  0  0
 22  6  1  0  0  0  0
 23 15  1  0  0  0  0
 24 23  2  0  0  0  0
 25 23  1  0  0  0  0
 26 27  1  0  0  0  0
 27 21  1  0  0  0  0
 29 30  1  0  0  0  0
 30 28  1  0  0  0  0
M  END
>  <MODEL>
5

>  <REMARK>
 VINA RESULT:      -5.1      2.178      5.834
  Name = 
  4 active torsions:
  status: ('A' for Active; 'I' for Inactive)
    1  A    between atoms: C_2  and  C_19
    2  A    between atoms: C_11  and  O_28
    3  A    between atoms: C_25  and  C_26
    4  A    between atoms: O_28  and  S_30
                            x       y       z     vdW  Elec       q    Type
                         _______ _______ _______ _____ _____    ______ ____

>  <TORSDO>
F 4

$$$$
