=
 OpenBabel11122413443D

 37 43  0  0  1  0  0  0  0  0999 V2000
  159.6570  210.5020  154.8600 C   0  0  1  0  0  0  0  0  0  0  0  0
  161.6320  207.9930  152.1310 C   0  0  0  0  0  0  0  0  0  0  0  0
  162.2530  208.9070  148.5990 N   0  0  0  0  0  2  0  0  0  0  0  0
  161.0300  208.3530  154.4300 C   0  0  0  0  0  0  0  0  0  0  0  0
  161.4690  208.6860  151.0110 C   0  0  0  0  0  0  0  0  0  0  0  0
  161.3440  208.8470  153.2430 C   0  0  0  0  0  0  0  0  0  0  0  0
  161.6480  208.0990  149.6270 C   0  0  0  0  0  0  0  0  0  0  0  0
  161.2980  206.9650  154.6950 N   0  0  0  0  0  0  0  0  0  0  0  0
  161.0450  210.2110  152.7790 C   0  0  2  0  0  3  0  0  0  0  0  0
  160.3870  211.7070  155.4220 C   0  0  0  0  0  1  0  0  0  0  0  0
  160.7790  205.7780  151.5430 C   0  0  0  0  0  3  0  0  0  0  0  0
  161.6910  206.1280  153.7660 C   0  0  0  0  0  3  0  0  0  0  0  0
  159.6670  210.5830  153.3160 C   0  0  0  0  0  2  0  0  0  0  0  0
  162.0210  211.2990  147.8620 C   0  0  1  0  0  3  0  0  0  0  0  0
  162.5150  210.3000  148.8680 C   0  0  1  0  0  3  0  0  0  0  0  0
  161.8260  206.5170  152.3020 C   0  0  2  0  0  3  0  0  0  0  0  0
  161.0720  210.0580  151.3250 N   0  0  0  0  0  0  0  0  0  0  0  0
  160.3180  209.2180  155.4390 C   0  0  0  0  0  2  0  0  0  0  0  0
  161.2390  206.8410  149.3000 C   0  0  0  0  0  0  0  0  0  0  0  0
  158.3340  210.5500  155.2940 O   0  0  0  0  0  1  0  0  0  0  0  0
  161.1220  210.8860  149.0310 C   0  0  1  0  0  3  0  0  0  0  0  0
  161.2120  211.2600  150.4870 C   0  0  0  0  0  2  0  0  0  0  0  0
  160.5570  205.9150  150.2370 C   0  0  0  0  0  3  0  0  0  0  0  0
  160.2970  206.6710  146.9920 C   0  0  0  0  0  3  0  0  0  0  0  0
  161.3180  206.3510  147.9010 C   0  0  0  0  0  0  0  0  0  0  0  0
  162.4270  205.6180  147.4490 C   0  0  0  0  0  3  0  0  0  0  0  0
  163.8830  204.2640  145.5770 Cl  0  0  0  0  0  0  0  0  0  0  0  0
  161.4720  205.5010  145.2280 C   0  0  0  0  0  3  0  0  0  0  0  0
  162.5000  205.1880  146.1210 C   0  0  0  0  0  0  0  0  0  0  0  0
  160.3720  206.2430  145.6630 C   0  0  0  0  0  3  0  0  0  0  0  0
  162.7140  212.6700  147.9920 C   0  0  2  0  0  3  0  0  0  0  0  0
  161.9150  213.6860  148.5270 O   0  0  0  0  0  1  0  0  0  0  0  0
  161.2880  213.1940  145.5160 O   0  0  0  0  0  0  0  0  0  0  0  0
  162.5410  213.3130  145.5230 C   0  0  0  0  0  0  0  0  0  0  0  0
  163.2950  213.0870  146.7200 N   0  0  0  0  0  2  0  0  0  0  0  0
  162.6800  212.8740  143.1090 C   0  0  0  0  0  1  0  0  0  0  0  0
  163.2520  213.6680  144.2660 C   0  0  0  0  0  2  0  0  0  0  0  0
  1 20  1  0  0  0  0
  1 10  1  1  0  0  0
  1 18  1  0  0  0  0
  2 16  1  0  0  0  0
  2  6  1  0  0  0  0
  3  7  1  0  0  0  0
  4  8  1  0  0  0  0
  4 18  1  0  0  0  0
  5 17  1  0  0  0  0
  5  2  2  0  0  0  0
  6  4  2  0  0  0  0
  7  5  1  0  0  0  0
  9  6  1  0  0  0  0
  9 13  1  1  0  0  0
 12  8  2  0  0  0  0
 13  1  1  0  0  0  0
 14 31  1  1  0  0  0
 14 15  1  0  0  0  0
 14 21  1  0  0  0  0
 15  3  1  6  0  0  0
 15 21  1  0  0  0  0
 16 11  1  6  0  0  0
 16 12  1  0  0  0  0
 17  9  1  0  0  0  0
 19  7  2  0  0  0  0
 19 23  1  0  0  0  0
 21 22  1  1  0  0  0
 22 17  1  0  0  0  0
 23 11  2  0  0  0  0
 24 25  1  0  0  0  0
 25 19  1  0  0  0  0
 26 25  2  0  0  0  0
 27 29  1  0  0  0  0
 28 30  1  0  0  0  0
 28 29  2  0  0  0  0
 29 26  1  0  0  0  0
 30 24  2  0  0  0  0
 31 32  1  6  0  0  0
 33 34  2  0  0  0  0
 34 35  1  0  0  0  0
 35 31  1  0  0  0  0
 36 37  1  0  0  0  0
 37 34  1  0  0  0  0
M  END
>  <MODEL>
1

>  <REMARK>
 VINA RESULT:      -8.1      0.000      0.000
  Name = 
  4 active torsions:
  status: ('A' for Active; 'I' for Inactive)
    1  A    between atoms: C_4  and  C_37
    2  A    between atoms: C_8  and  N_12
    3  A    between atoms: C_8  and  C_18
    4  A    between atoms: C_23  and  C_30
                            x       y       z     vdW  Elec       q    Type
                         _______ _______ _______ _____ _____    ______ ____

>  <TORSDO>
F 4

$$$$
=
 OpenBabel11122413443D

 37 43  0  0  1  0  0  0  0  0999 V2000
  162.8860  204.9940  146.5770 C   0  0  1  0  0  0  0  0  0  0  0  0
  160.7530  205.6470  150.1360 C   0  0  0  0  0  0  0  0  0  0  0  0
  160.7090  208.8870  151.9230 N   0  0  0  0  0  2  0  0  0  0  0  0
  161.1650  204.1410  148.3080 C   0  0  0  0  0  0  0  0  0  0  0  0
  161.1700  206.8690  150.4410 C   0  0  0  0  0  0  0  0  0  0  0  0
  161.0850  205.3790  148.7690 C   0  0  0  0  0  0  0  0  0  0  0  0
  161.0270  207.4850  151.8160 C   0  0  0  0  0  0  0  0  0  0  0  0
  160.5980  203.0740  149.0880 N   0  0  0  0  0  0  0  0  0  0  0  0
  161.6990  206.5640  148.1480 C   0  0  2  0  0  3  0  0  0  0  0  0
  162.3570  205.5710  145.2770 C   0  0  0  0  0  1  0  0  0  0  0  0
  161.2030  204.3790  152.1770 C   0  0  0  0  0  3  0  0  0  0  0  0
  160.1480  203.2480  150.3060 C   0  0  0  0  0  3  0  0  0  0  0  0
  163.0590  206.1390  147.6020 C   0  0  0  0  0  2  0  0  0  0  0  0
  161.4930  210.9730  150.7610 C   0  0  1  0  0  3  0  0  0  0  0  0
  160.7040  209.6960  150.7290 C   0  0  1  0  0  3  0  0  0  0  0  0
  160.2500  204.5710  151.0480 C   0  0  2  0  0  3  0  0  0  0  0  0
  161.7980  207.4900  149.2750 N   0  0  0  0  0  0  0  0  0  0  0  0
  161.9240  203.8610  147.0350 C   0  0  0  0  0  2  0  0  0  0  0  0
  161.2080  206.7780  152.9660 C   0  0  0  0  0  0  0  0  0  0  0  0
  164.1380  204.4350  146.3280 O   0  0  0  0  0  1  0  0  0  0  0  0
  162.1610  209.6760  150.2950 C   0  0  1  0  0  3  0  0  0  0  0  0
  161.9920  208.9230  149.0010 C   0  0  0  0  0  2  0  0  0  0  0  0
  161.5870  205.3440  153.0120 C   0  0  0  0  0  3  0  0  0  0  0  0
  160.4780  206.8640  155.3530 C   0  0  0  0  0  3  0  0  0  0  0  0
  161.1830  207.4480  154.2900 C   0  0  0  0  0  0  0  0  0  0  0  0
  161.9020  208.6330  154.5190 C   0  0  0  0  0  3  0  0  0  0  0  0
  162.7830  210.7190  156.0440 Cl  0  0  0  0  0  0  0  0  0  0  0  0
  161.1760  208.6530  156.8270 C   0  0  0  0  0  3  0  0  0  0  0  0
  161.8930  209.2360  155.7790 C   0  0  0  0  0  0  0  0  0  0  0  0
  160.4700  207.4670  156.6150 C   0  0  0  0  0  3  0  0  0  0  0  0
  161.0780  211.9590  149.6500 C   0  0  2  0  0  3  0  0  0  0  0  0
  162.1360  212.6470  149.0470 O   0  0  0  0  0  1  0  0  0  0  0  0
  158.9210  213.1330  148.0980 O   0  0  0  0  0  0  0  0  0  0  0  0
  159.0320  213.4540  149.3100 C   0  0  0  0  0  0  0  0  0  0  0  0
  160.0640  212.8920  150.1280 N   0  0  0  0  0  2  0  0  0  0  0  0
  156.6690  213.9620  149.7560 C   0  0  0  0  0  1  0  0  0  0  0  0
  158.0950  214.4520  149.8940 C   0  0  0  0  0  2  0  0  0  0  0  0
  1 10  1  6  0  0  0
  1 18  1  0  0  0  0
  1 13  1  0  0  0  0
  2  5  2  0  0  0  0
  2 16  1  0  0  0  0
  4  6  2  0  0  0  0
  4  8  1  0  0  0  0
  5  7  1  0  0  0  0
  6  2  1  0  0  0  0
  7  3  1  0  0  0  0
  7 19  2  0  0  0  0
  8 12  2  0  0  0  0
  9 13  1  1  0  0  0
  9  6  1  0  0  0  0
  9 17  1  0  0  0  0
 11 23  2  0  0  0  0
 14 31  1  6  0  0  0
 15 14  1  0  0  0  0
 15  3  1  1  0  0  0
 16 12  1  6  0  0  0
 16 11  1  0  0  0  0
 17  5  1  0  0  0  0
 18  4  1  0  0  0  0
 19 23  1  0  0  0  0
 19 25  1  0  0  0  0
 20  1  1  0  0  0  0
 21 22  1  6  0  0  0
 21 15  1  0  0  0  0
 21 14  1  0  0  0  0
 22 17  1  0  0  0  0
 24 30  1  0  0  0  0
 25 26  1  0  0  0  0
 25 24  2  0  0  0  0
 26 29  2  0  0  0  0
 29 27  1  0  0  0  0
 29 28  1  0  0  0  0
 30 28  2  0  0  0  0
 31 32  1  1  0  0  0
 31 35  1  0  0  0  0
 33 34  2  0  0  0  0
 34 37  1  0  0  0  0
 34 35  1  0  0  0  0
 36 37  1  0  0  0  0
M  END
>  <MODEL>
2

>  <REMARK>
 VINA RESULT:      -8.1      3.426      6.931
  Name = 
  4 active torsions:
  status: ('A' for Active; 'I' for Inactive)
    1  A    between atoms: C_4  and  C_37
    2  A    between atoms: C_8  and  N_12
    3  A    between atoms: C_8  and  C_18
    4  A    between atoms: C_23  and  C_30
                            x       y       z     vdW  Elec       q    Type
                         _______ _______ _______ _____ _____    ______ ____

>  <TORSDO>
F 4

$$$$
=
 OpenBabel11122413443D

 37 43  0  0  1  0  0  0  0  0999 V2000
  159.0720  211.6000  155.2700 C   0  0  1  0  0  0  0  0  0  0  0  0
  161.3870  208.7920  153.1730 C   0  0  0  0  0  0  0  0  0  0  0  0
  162.2150  209.1040  149.5800 N   0  0  0  0  0  2  0  0  0  0  0  0
  160.5960  209.5130  155.3260 C   0  0  0  0  0  0  0  0  0  0  0  0
  161.2680  209.2610  151.9380 C   0  0  0  0  0  0  0  0  0  0  0  0
  160.9680  209.8090  154.0910 C   0  0  0  0  0  0  0  0  0  0  0  0
  161.5830  208.4510  150.6990 C   0  0  0  0  0  0  0  0  0  0  0  0
  160.9240  208.2160  155.8560 N   0  0  0  0  0  0  0  0  0  0  0  0
  160.6250  211.0430  153.3670 C   0  0  2  0  0  3  0  0  0  0  0  0
  159.6860  212.9360  155.6470 C   0  0  0  0  0  1  0  0  0  0  0  0
  160.7110  206.4530  152.9480 C   0  0  0  0  0  3  0  0  0  0  0  0
  161.4330  207.2580  155.1220 C   0  0  0  0  0  3  0  0  0  0  0  0
  159.1910  211.4060  153.7400 C   0  0  0  0  0  2  0  0  0  0  0  0
  161.8990  211.3030  148.4050 C   0  0  1  0  0  3  0  0  0  0  0  0
  162.3750  210.5370  149.6060 C   0  0  1  0  0  3  0  0  0  0  0  0
  161.6540  207.3880  153.6230 C   0  0  2  0  0  3  0  0  0  0  0  0
  160.7690  210.6360  151.9710 N   0  0  0  0  0  0  0  0  0  0  0  0
  159.7610  210.4900  156.1140 C   0  0  0  0  0  2  0  0  0  0  0  0
  161.2740  207.1300  150.5810 C   0  0  0  0  0  0  0  0  0  0  0  0
  157.7190  211.6320  155.6040 O   0  0  0  0  0  1  0  0  0  0  0  0
  160.9410  211.0430  149.5710 C   0  0  1  0  0  3  0  0  0  0  0  0
  160.9010  211.6760  150.9380 C   0  0  0  0  0  2  0  0  0  0  0  0
  160.5790  206.3390  151.6270 C   0  0  0  0  0  3  0  0  0  0  0  0
  161.9700  207.0960  148.1820 C   0  0  0  0  0  3  0  0  0  0  0  0
  161.4850  206.4050  149.3030 C   0  0  0  0  0  0  0  0  0  0  0  0
  161.2630  205.0210  149.2070 C   0  0  0  0  0  3  0  0  0  0  0  0
  161.2010  202.6260  147.8970 Cl  0  0  0  0  0  0  0  0  0  0  0  0
  161.9650  205.0480  146.8910 C   0  0  0  0  0  3  0  0  0  0  0  0
  161.4950  204.3480  148.0040 C   0  0  0  0  0  0  0  0  0  0  0  0
  162.2040  206.4220  146.9800 C   0  0  0  0  0  3  0  0  0  0  0  0
  162.5000  212.7220  148.3260 C   0  0  2  0  0  3  0  0  0  0  0  0
  161.6060  213.7570  148.6170 O   0  0  0  0  0  1  0  0  0  0  0  0
  161.1870  213.2150  145.7820 O   0  0  0  0  0  0  0  0  0  0  0  0
  162.4450  213.1660  145.8090 C   0  0  0  0  0  0  0  0  0  0  0  0
  163.1460  212.9460  147.0370 N   0  0  0  0  0  2  0  0  0  0  0  0
  162.3970  212.7810  143.3820 C   0  0  0  0  0  1  0  0  0  0  0  0
  163.2120  213.3130  144.5430 C   0  0  0  0  0  2  0  0  0  0  0  0
  1 20  1  0  0  0  0
  1 10  1  1  0  0  0
  1 18  1  0  0  0  0
  2 16  1  0  0  0  0
  2  6  1  0  0  0  0
  3  7  1  0  0  0  0
  4  8  1  0  0  0  0
  4 18  1  0  0  0  0
  5 17  1  0  0  0  0
  5  2  2  0  0  0  0
  6  4  2  0  0  0  0
  7  5  1  0  0  0  0
  9 13  1  6  0  0  0
  9  6  1  0  0  0  0
 12  8  2  0  0  0  0
 13  1  1  0  0  0  0
 14 31  1  1  0  0  0
 14 21  1  0  0  0  0
 14 15  1  0  0  0  0
 15  3  1  6  0  0  0
 16 11  1  6  0  0  0
 16 12  1  0  0  0  0
 17  9  1  0  0  0  0
 19  7  2  0  0  0  0
 19 23  1  0  0  0  0
 21 15  1  0  0  0  0
 21 22  1  1  0  0  0
 22 17  1  0  0  0  0
 23 11  2  0  0  0  0
 24 25  1  0  0  0  0
 25 19  1  0  0  0  0
 26 25  2  0  0  0  0
 27 29  1  0  0  0  0
 28 30  1  0  0  0  0
 28 29  2  0  0  0  0
 29 26  1  0  0  0  0
 30 24  2  0  0  0  0
 31 32  1  6  0  0  0
 33 34  2  0  0  0  0
 34 35  1  0  0  0  0
 35 31  1  0  0  0  0
 36 37  1  0  0  0  0
 37 34  1  0  0  0  0
M  END
>  <MODEL>
3

>  <REMARK>
 VINA RESULT:      -7.1      1.232      1.454
  Name = 
  4 active torsions:
  status: ('A' for Active; 'I' for Inactive)
    1  A    between atoms: C_4  and  C_37
    2  A    between atoms: C_8  and  N_12
    3  A    between atoms: C_8  and  C_18
    4  A    between atoms: C_23  and  C_30
                            x       y       z     vdW  Elec       q    Type
                         _______ _______ _______ _____ _____    ______ ____

>  <TORSDO>
F 4

$$$$
