=
 OpenBabel11122413543D

 37 43  0  0  1  0  0  0  0  0999 V2000
  162.5090  205.6690  147.2320 C   0  0  0  0  0  0  0  0  0  0  0  0
  160.7310  205.9400  150.6390 N   0  0  1  0  0  0  0  0  0  0  0  0
  160.3620  208.8430  152.1400 O   0  0  0  0  0  0  0  0  0  0  0  0
  160.7330  204.7300  148.3600 C   0  0  2  0  0  3  0  0  0  0  0  0
  161.5150  207.1690  150.8630 C   0  0  2  0  0  3  0  0  0  0  0  0
  160.4520  206.0000  149.1850 C   0  0  2  0  0  3  0  0  0  0  0  0
  161.3030  207.8060  152.2420 C   0  0  2  0  0  3  0  0  0  0  0  0
  160.2680  203.5440  149.1660 C   0  0  0  0  0  2  0  0  0  0  0  0
  161.1060  207.2550  148.6290 C   0  0  2  0  0  3  0  0  0  0  0  0
  161.6950  205.8150  146.1160 F   0  0  0  0  0  0  0  0  0  0  0  0
  161.4550  204.5470  152.5710 C   0  0  0  0  0  2  0  0  0  0  0  0
  161.0670  203.4330  150.4570 C   0  0  0  0  0  2  0  0  0  0  0  0
  162.5090  206.9430  148.0670 C   0  0  0  0  0  2  0  0  0  0  0  0
  162.4100  210.0910  151.9800 O   0  0  0  0  0  0  0  0  0  0  0  0
  160.9990  210.1150  152.0690 C   0  0  1  0  0  3  0  0  0  0  0  0
  161.5420  204.7690  151.0590 C   0  0  1  0  0  3  0  0  0  0  0  0
  161.1620  208.1200  149.8040 N   0  0  2  0  0  0  0  0  0  0  0  0
  162.0990  204.5820  148.0300 O   0  0  0  0  0  0  0  0  0  0  0  0
  160.9670  206.8390  153.3740 C   0  0  1  0  0  3  0  0  0  0  0  0
  163.7990  205.4360  146.7990 F   0  0  0  0  0  0  0  0  0  0  0  0
  161.7310  210.3730  150.7750 C   0  0  2  0  0  3  0  0  0  0  0  0
  162.1020  209.2610  149.7630 C   0  0  2  0  0  3  0  0  0  0  0  0
  161.9740  205.7010  153.4040 C   0  0  0  0  0  2  0  0  0  0  0  0
  160.0750  207.0880  155.6950 C   0  0  0  0  0  3  0  0  0  0  0  0
  160.9420  207.5450  154.6950 C   0  0  0  0  0  0  0  0  0  0  0  0
  161.7610  208.6580  154.9440 C   0  0  0  0  0  3  0  0  0  0  0  0
  162.5800  210.4810  156.4410 C   0  0  0  0  0  1  0  0  0  0  0  0
  160.8440  208.8420  157.1770 C   0  0  0  0  0  3  0  0  0  0  0  0
  161.7110  209.3030  156.1830 C   0  0  0  0  0  0  0  0  0  0  0  0
  160.0260  207.7340  156.9330 C   0  0  0  0  0  3  0  0  0  0  0  0
  162.1310  209.9240  148.3760 C   0  0  0  0  0  2  0  0  0  0  0  0
  161.9260  211.4430  148.4230 C   0  0  1  0  0  3  0  0  0  0  0  0
  163.1950  212.7800  146.9480 O   0  0  0  0  0  0  0  0  0  0  0  0
  163.1530  212.1950  148.0180 C   0  0  0  0  0  3  0  0  0  0  0  0
  160.8000  211.8440  147.5920 N   0  0  0  0  0  2  0  0  0  0  0  0
  160.2120  213.0290  148.1960 C   0  0  0  0  0  2  0  0  0  0  0  0
  160.4160  213.0100  149.5630 F   0  0  0  0  0  0  0  0  0  0  0  0
  1 18  1  0  0  0  0
  1 13  1  0  0  0  0
  2  5  1  0  0  0  0
  2 16  1  0  0  0  0
  3  7  1  0  0  0  0
  4  8  1  0  0  0  0
  4  6  1  0  0  0  0
  5  7  1  0  0  0  0
  6  2  1  0  0  0  0
  7 19  1  0  0  0  0
  8 12  1  0  0  0  0
  9  6  1  0  0  0  0
  9 17  1  0  0  0  0
 10  1  1  0  0  0  0
 11 23  1  0  0  0  0
 12 16  1  0  0  0  0
 13  9  1  0  0  0  0
 14 15  1  0  0  0  0
 15  3  1  0  0  0  0
 16 11  1  0  0  0  0
 17  5  1  0  0  0  0
 18  4  1  0  0  0  0
 19 23  1  0  0  0  0
 19 25  1  0  0  0  0
 20  1  1  0  0  0  0
 21 14  1  0  0  0  0
 21 15  1  0  0  0  0
 22 17  1  0  0  0  0
 22 21  1  0  0  0  0
 24 30  1  0  0  0  0
 25 26  1  0  0  0  0
 25 24  2  0  0  0  0
 26 29  2  0  0  0  0
 29 27  1  0  0  0  0
 29 28  1  0  0  0  0
 30 28  2  0  0  0  0
 31 32  1  0  0  0  0
 31 22  1  0  0  0  0
 33 34  2  0  0  0  0
 34 32  1  0  0  0  0
 35 36  1  0  0  0  0
 35 32  1  0  0  0  0
 36 37  1  0  0  0  0
M  END
>  <MODEL>
1

>  <REMARK>
 VINA RESULT:      -8.9      0.000      0.000
  Name = 
  6 active torsions:
  status: ('A' for Active; 'I' for Inactive)
    1  A    between atoms: C_1  and  CA_4
    2  A    between atoms: C_1  and  C_27
    3  A    between atoms: CA_4  and  N_12
    4  A    between atoms: CA_4  and  C_37
    5  A    between atoms: C_8  and  N_12
    6  A    between atoms: C_23  and  C_30
                            x       y       z     vdW  Elec       q    Type
                         _______ _______ _______ _____ _____    ______ ____

>  <TORSDO>
F 6

$$$$
=
 OpenBabel11122413543D

 37 43  0  0  1  0  0  0  0  0999 V2000
  160.4490  210.7800  153.8730 C   0  0  0  0  0  0  0  0  0  0  0  0
  161.6790  207.3580  152.6000 N   0  0  1  0  0  0  0  0  0  0  0  0
  162.7020  206.9630  149.5000 O   0  0  0  0  0  0  0  0  0  0  0  0
  161.6480  208.9610  154.6220 C   0  0  2  0  0  3  0  0  0  0  0  0
  161.2940  207.8090  151.2500 C   0  0  2  0  0  3  0  0  0  0  0  0
  162.1820  208.6060  153.2220 C   0  0  2  0  0  3  0  0  0  0  0  0
  161.4800  206.7490  150.1580 C   0  0  2  0  0  3  0  0  0  0  0  0
  161.5900  207.6900  155.4310 C   0  0  0  0  0  2  0  0  0  0  0  0
  162.0460  209.7280  152.2060 C   0  0  2  0  0  3  0  0  0  0  0  0
  161.4290  211.6140  154.3960 F   0  0  0  0  0  0  0  0  0  0  0  0
  160.2690  205.3220  152.8510 C   0  0  0  0  0  2  0  0  0  0  0  0
  160.6090  206.7080  154.8060 C   0  0  0  0  0  2  0  0  0  0  0  0
  160.7190  210.4920  152.4020 C   0  0  0  0  0  2  0  0  0  0  0  0
  161.1960  208.1000  148.0110 O   0  0  0  0  0  0  0  0  0  0  0  0
  162.5120  207.6530  148.2690 C   0  0  1  0  0  3  0  0  0  0  0  0
  160.4890  206.7760  153.2710 C   0  0  1  0  0  3  0  0  0  0  0  0
  162.0840  209.0040  150.9380 N   0  0  2  0  0  0  0  0  0  0  0  0
  160.3720  209.5660  154.5850 O   0  0  0  0  0  0  0  0  0  0  0  0
  161.3200  205.2990  150.6070 C   0  0  1  0  0  3  0  0  0  0  0  0
  159.2330  211.4270  153.9700 F   0  0  0  0  0  0  0  0  0  0  0  0
  162.1040  209.0980  148.4220 C   0  0  2  0  0  3  0  0  0  0  0  0
  161.5650  209.7010  149.7420 C   0  0  2  0  0  3  0  0  0  0  0  0
  160.0160  205.1300  151.3690 C   0  0  0  0  0  2  0  0  0  0  0  0
  161.0190  203.0200  149.6260 C   0  0  0  0  0  3  0  0  0  0  0  0
  161.3610  204.3650  149.4370 C   0  0  0  0  0  0  0  0  0  0  0  0
  161.7460  204.8090  148.1620 C   0  0  0  0  0  3  0  0  0  0  0  0
  162.1940  204.3880  145.7410 C   0  0  0  0  0  1  0  0  0  0  0  0
  161.4420  202.5730  147.2840 C   0  0  0  0  0  3  0  0  0  0  0  0
  161.7850  203.9140  147.0880 C   0  0  0  0  0  0  0  0  0  0  0  0
  161.0580  202.1270  148.5520 C   0  0  0  0  0  3  0  0  0  0  0  0
  161.9570  211.1880  149.7360 C   0  0  0  0  0  2  0  0  0  0  0  0
  161.7370  211.8700  148.3800 C   0  0  1  0  0  3  0  0  0  0  0  0
  160.2070  213.2670  149.5100 O   0  0  0  0  0  0  0  0  0  0  0  0
  160.6750  212.9210  148.4380 C   0  0  0  0  0  3  0  0  0  0  0  0
  162.9770  212.4430  147.8760 N   0  0  0  0  0  2  0  0  0  0  0  0
  162.6230  213.4780  146.9190 C   0  0  0  0  0  2  0  0  0  0  0  0
  162.7050  212.9770  145.6330 F   0  0  0  0  0  0  0  0  0  0  0  0
  1 20  1  0  0  0  0
  1 10  1  0  0  0  0
  1 18  1  0  0  0  0
  2  6  1  0  0  0  0
  2 16  1  0  0  0  0
  3  7  1  0  0  0  0
  4  8  1  0  0  0  0
  5  2  1  0  0  0  0
  6  4  1  0  0  0  0
  7 19  1  0  0  0  0
  7  5  1  0  0  0  0
  9 13  1  0  0  0  0
  9  6  1  0  0  0  0
 11 16  1  0  0  0  0
 12  8  1  0  0  0  0
 13  1  1  0  0  0  0
 14 15  1  0  0  0  0
 14 21  1  0  0  0  0
 15 21  1  0  0  0  0
 15  3  1  0  0  0  0
 16 12  1  0  0  0  0
 17  5  1  0  0  0  0
 17  9  1  0  0  0  0
 18  4  1  0  0  0  0
 19 23  1  0  0  0  0
 21 22  1  0  0  0  0
 22 17  1  0  0  0  0
 23 11  1  0  0  0  0
 25 24  1  0  0  0  0
 25 19  1  0  0  0  0
 26 25  2  0  0  0  0
 27 29  1  0  0  0  0
 28 30  1  0  0  0  0
 29 28  2  0  0  0  0
 29 26  1  0  0  0  0
 30 24  2  0  0  0  0
 31 22  1  0  0  0  0
 32 34  1  0  0  0  0
 32 31  1  0  0  0  0
 34 33  2  0  0  0  0
 35 32  1  0  0  0  0
 36 35  1  0  0  0  0
 37 36  1  0  0  0  0
M  END
>  <MODEL>
2

>  <REMARK>
 VINA RESULT:      -6.6      2.516      6.179
  Name = 
  6 active torsions:
  status: ('A' for Active; 'I' for Inactive)
    1  A    between atoms: C_1  and  CA_4
    2  A    between atoms: C_1  and  C_27
    3  A    between atoms: CA_4  and  N_12
    4  A    between atoms: CA_4  and  C_37
    5  A    between atoms: C_8  and  N_12
    6  A    between atoms: C_23  and  C_30
                            x       y       z     vdW  Elec       q    Type
                         _______ _______ _______ _____ _____    ______ ____

>  <TORSDO>
F 6

$$$$
=
 OpenBabel11122413543D

 37 43  0  0  1  0  0  0  0  0999 V2000
  161.7860  208.3640  148.2840 C   0  0  0  0  0  0  0  0  0  0  0  0
  161.5240  210.9310  151.1440 N   0  0  1  0  0  0  0  0  0  0  0  0
  161.2880  209.9680  154.2790 O   0  0  0  0  0  0  0  0  0  0  0  0
  162.6200  210.4320  148.8620 C   0  0  2  0  0  3  0  0  0  0  0  0
  160.8440  209.8800  151.9220 C   0  0  2  0  0  3  0  0  0  0  0  0
  162.5290  210.1600  150.3750 C   0  0  2  0  0  3  0  0  0  0  0  0
  160.3520  210.3380  153.3000 C   0  0  2  0  0  3  0  0  0  0  0  0
  162.4930  211.9190  148.6510 C   0  0  0  0  0  2  0  0  0  0  0  0
  162.3710  208.6910  150.7310 C   0  0  2  0  0  3  0  0  0  0  0  0
  163.0730  207.9610  147.9540 F   0  0  0  0  0  0  0  0  0  0  0  0
  159.7820  212.7090  151.1080 C   0  0  0  0  0  2  0  0  0  0  0  0
  161.1290  212.4070  149.1200 C   0  0  0  0  0  2  0  0  0  0  0  0
  161.4520  207.9750  149.7180 C   0  0  0  0  0  2  0  0  0  0  0  0
  159.7400  208.1360  154.4370 O   0  0  0  0  0  0  0  0  0  0  0  0
  160.8900  208.7780  154.9520 C   0  0  1  0  0  3  0  0  0  0  0  0
  160.5210  211.6350  150.3070 C   0  0  1  0  0  3  0  0  0  0  0  0
  161.7780  208.7580  152.0630 N   0  0  2  0  0  0  0  0  0  0  0  0
  161.6240  209.7550  148.1230 O   0  0  0  0  0  0  0  0  0  0  0  0
  159.9620  211.8090  153.4090 C   0  0  1  0  0  3  0  0  0  0  0  0
  160.9010  207.7170  147.4440 F   0  0  0  0  0  0  0  0  0  0  0  0
  160.9700  207.5300  154.1080 C   0  0  2  0  0  3  0  0  0  0  0  0
  161.0970  207.5450  152.5650 C   0  0  2  0  0  3  0  0  0  0  0  0
  159.0000  212.1790  152.2930 C   0  0  0  0  0  2  0  0  0  0  0  0
  160.1510  212.6370  155.7600 C   0  0  0  0  0  3  0  0  0  0  0  0
  159.3480  212.1060  154.7430 C   0  0  0  0  0  0  0  0  0  0  0  0
  157.9900  211.8540  154.9930 C   0  0  0  0  0  3  0  0  0  0  0  0
  156.0050  211.8620  156.5100 C   0  0  0  0  0  1  0  0  0  0  0  0
  158.2500  212.6610  157.2610 C   0  0  0  0  0  3  0  0  0  0  0  0
  157.4430  212.1320  156.2500 C   0  0  0  0  0  0  0  0  0  0  0  0
  159.6040  212.9140  157.0160 C   0  0  0  0  0  3  0  0  0  0  0  0
  161.8550  206.2650  152.1760 C   0  0  0  0  0  2  0  0  0  0  0  0
  160.9370  205.1360  151.6910 C   0  0  1  0  0  3  0  0  0  0  0  0
  160.4500  205.0910  149.3810 O   0  0  0  0  0  0  0  0  0  0  0  0
  161.2110  204.7510  150.2720 C   0  0  0  0  0  3  0  0  0  0  0  0
  161.0440  203.9680  152.5530 N   0  0  0  0  0  2  0  0  0  0  0  0
  161.1750  202.8020  151.6950 C   0  0  0  0  0  2  0  0  0  0  0  0
  162.3160  202.0970  152.0320 F   0  0  0  0  0  0  0  0  0  0  0  0
  1 13  1  0  0  0  0
  2  5  1  0  0  0  0
  3 15  1  0  0  0  0
  4  6  1  0  0  0  0
  5 17  1  0  0  0  0
  5  7  1  0  0  0  0
  6  9  1  0  0  0  0
  6  2  1  0  0  0  0
  7 19  1  0  0  0  0
  7  3  1  0  0  0  0
  8  4  1  0  0  0  0
  8 12  1  0  0  0  0
  9 17  1  0  0  0  0
 10  1  1  0  0  0  0
 11 23  1  0  0  0  0
 12 16  1  0  0  0  0
 13  9  1  0  0  0  0
 14 15  1  0  0  0  0
 16 11  1  0  0  0  0
 16  2  1  0  0  0  0
 17 22  1  0  0  0  0
 18  1  1  0  0  0  0
 18  4  1  0  0  0  0
 19 25  1  0  0  0  0
 20  1  1  0  0  0  0
 21 14  1  0  0  0  0
 21 15  1  0  0  0  0
 22 21  1  0  0  0  0
 23 19  1  0  0  0  0
 24 30  1  0  0  0  0
 25 26  1  0  0  0  0
 25 24  2  0  0  0  0
 26 29  2  0  0  0  0
 29 27  1  0  0  0  0
 29 28  1  0  0  0  0
 30 28  2  0  0  0  0
 31 22  1  0  0  0  0
 32 31  1  0  0  0  0
 32 35  1  0  0  0  0
 33 34  2  0  0  0  0
 34 32  1  0  0  0  0
 36 37  1  0  0  0  0
 36 35  1  0  0  0  0
M  END
>  <MODEL>
3

>  <REMARK>
 VINA RESULT:      -6.0      2.805      6.041
  Name = 
  6 active torsions:
  status: ('A' for Active; 'I' for Inactive)
    1  A    between atoms: C_1  and  CA_4
    2  A    between atoms: C_1  and  C_27
    3  A    between atoms: CA_4  and  N_12
    4  A    between atoms: CA_4  and  C_37
    5  A    between atoms: C_8  and  N_12
    6  A    between atoms: C_23  and  C_30
                            x       y       z     vdW  Elec       q    Type
                         _______ _______ _______ _____ _____    ______ ____

>  <TORSDO>
F 6

$$$$
=
 OpenBabel11122413543D

 37 43  0  0  1  0  0  0  0  0999 V2000
  161.7850  200.9230  148.2620 C   0  0  0  0  0  0  0  0  0  0  0  0
  160.4540  203.8830  150.3380 N   0  0  1  0  0  0  0  0  0  0  0  0
  160.5300  206.9540  149.1650 O   0  0  0  0  0  0  0  0  0  0  0  0
  160.0770  201.4030  149.7310 C   0  0  2  0  0  3  0  0  0  0  0  0
  161.3670  204.7390  149.5590 C   0  0  2  0  0  3  0  0  0  0  0  0
  160.0120  202.8890  149.3310 C   0  0  2  0  0  3  0  0  0  0  0  0
  161.3780  206.2080  149.9990 C   0  0  2  0  0  3  0  0  0  0  0  0
  159.6040  201.2880  151.1580 C   0  0  0  0  0  2  0  0  0  0  0  0
  160.7070  203.2060  148.0170 C   0  0  2  0  0  3  0  0  0  0  0  0
  160.8620  200.3150  147.4210 F   0  0  0  0  0  0  0  0  0  0  0  0
  161.2700  204.2870  152.6540 C   0  0  0  0  0  2  0  0  0  0  0  0
  160.5360  202.0500  152.0890 C   0  0  0  0  0  2  0  0  0  0  0  0
  162.0000  202.3760  147.8630 C   0  0  0  0  0  2  0  0  0  0  0  0
  162.6500  207.3510  148.1040 O   0  0  0  0  0  0  0  0  0  0  0  0
  161.2680  207.6430  148.1600 C   0  0  1  0  0  3  0  0  0  0  0  0
  161.1980  203.3030  151.4850 C   0  0  1  0  0  3  0  0  0  0  0  0
  160.9800  204.6340  148.1480 N   0  0  2  0  0  0  0  0  0  0  0  0
  161.3750  200.8590  149.6100 O   0  0  0  0  0  0  0  0  0  0  0  0
  161.0920  206.4590  151.4770 C   0  0  1  0  0  3  0  0  0  0  0  0
  162.9890  200.2580  148.1360 F   0  0  0  0  0  0  0  0  0  0  0  0
  161.8630  206.7470  147.1010 C   0  0  2  0  0  3  0  0  0  0  0  0
  162.0080  205.2140  147.2580 C   0  0  2  0  0  3  0  0  0  0  0  0
  161.9870  205.5840  152.3380 C   0  0  0  0  0  2  0  0  0  0  0  0
  162.3220  208.6180  151.2110 C   0  0  0  0  0  3  0  0  0  0  0  0
  161.2870  207.9030  151.8260 C   0  0  0  0  0  0  0  0  0  0  0  0
  160.4600  208.5460  152.7610 C   0  0  0  0  0  3  0  0  0  0  0  0
  159.7930  210.5680  154.0660 C   0  0  0  0  0  1  0  0  0  0  0  0
  161.7040  210.6010  152.4580 C   0  0  0  0  0  3  0  0  0  0  0  0
  160.6700  209.8920  153.0750 C   0  0  0  0  0  0  0  0  0  0  0  0
  162.5300  209.9640  151.5260 C   0  0  0  0  0  3  0  0  0  0  0  0
  161.9340  204.6200  145.8420 C   0  0  0  0  0  2  0  0  0  0  0  0
  160.7740  205.1770  145.0080 C   0  0  1  0  0  3  0  0  0  0  0  0
  161.6080  205.6230  142.8450 O   0  0  0  0  0  0  0  0  0  0  0  0
  161.2420  206.0830  143.9150 C   0  0  0  0  0  3  0  0  0  0  0  0
  159.9670  204.1000  144.4500 N   0  0  0  0  0  2  0  0  0  0  0  0
  160.5780  202.8440  144.8520 C   0  0  0  0  0  2  0  0  0  0  0  0
  159.6390  201.8290  144.8040 F   0  0  0  0  0  0  0  0  0  0  0  0
  1 18  1  0  0  0  0
  2 16  1  0  0  0  0
  3  7  1  0  0  0  0
  4  8  1  0  0  0  0
  5  7  1  0  0  0  0
  5  2  1  0  0  0  0
  6  4  1  0  0  0  0
  6  2  1  0  0  0  0
  7 19  1  0  0  0  0
  8 12  1  0  0  0  0
  9 17  1  0  0  0  0
  9  6  1  0  0  0  0
 10  1  1  0  0  0  0
 13  9  1  0  0  0  0
 13  1  1  0  0  0  0
 14 15  1  0  0  0  0
 15  3  1  0  0  0  0
 16 12  1  0  0  0  0
 16 11  1  0  0  0  0
 17  5  1  0  0  0  0
 18  4  1  0  0  0  0
 19 25  1  0  0  0  0
 19 23  1  0  0  0  0
 20  1  1  0  0  0  0
 21 22  1  0  0  0  0
 21 14  1  0  0  0  0
 21 15  1  0  0  0  0
 22 17  1  0  0  0  0
 23 11  1  0  0  0  0
 24 30  2  0  0  0  0
 24 25  1  0  0  0  0
 25 26  2  0  0  0  0
 26 29  1  0  0  0  0
 28 29  2  0  0  0  0
 29 27  1  0  0  0  0
 30 28  1  0  0  0  0
 31 22  1  0  0  0  0
 32 31  1  0  0  0  0
 33 34  2  0  0  0  0
 34 32  1  0  0  0  0
 35 36  1  0  0  0  0
 35 32  1  0  0  0  0
 37 36  1  0  0  0  0
M  END
>  <MODEL>
4

>  <REMARK>
 VINA RESULT:      -6.0      3.681      5.222
  Name = 
  6 active torsions:
  status: ('A' for Active; 'I' for Inactive)
    1  A    between atoms: C_1  and  CA_4
    2  A    between atoms: C_1  and  C_27
    3  A    between atoms: CA_4  and  N_12
    4  A    between atoms: CA_4  and  C_37
    5  A    between atoms: C_8  and  N_12
    6  A    between atoms: C_23  and  C_30
                            x       y       z     vdW  Elec       q    Type
                         _______ _______ _______ _____ _____    ______ ____

>  <TORSDO>
F 6

$$$$
