=
 OpenBabel11122413263D

 31 35  0  0  1  0  0  0  0  0999 V2000
  160.5840  206.6260  146.4770 C   0  0  1  0  0  3  0  0  0  0  0  0
  160.1610  205.0910  150.0470 C   0  0  2  0  0  3  0  0  0  0  0  0
  160.6930  203.6620  149.9500 C   0  0  0  0  0  0  0  0  0  0  0  0
  161.2150  201.6950  148.6080 C   0  0  0  0  0  0  0  0  0  0  0  0
  160.5960  206.0570  148.9260 C   0  0  2  0  0  3  0  0  0  0  0  0
  162.0990  206.7740  146.5200 C   0  0  0  0  0  2  0  0  0  0  0  0
  160.8140  203.0280  148.7030 C   0  0  0  0  0  3  0  0  0  0  0  0
  161.9900  206.0990  151.5050 C   0  0  2  0  0  3  0  0  0  0  0  0
  160.1960  206.1770  145.2160 O   0  0  0  0  0  1  0  0  0  0  0  0
  160.8530  203.4970  152.4960 C   0  0  0  0  0  2  0  0  0  0  0  0
  161.3510  201.0540  147.2750 C   0  0  0  0  0  1  0  0  0  0  0  0
  162.4240  206.9890  150.3380 C   0  0  0  0  0  2  0  0  0  0  0  0
  160.4940  205.7380  151.4030 C   0  0  2  0  0  3  0  0  0  0  0  0
  160.1270  205.6280  147.5340 C   0  0  0  0  0  2  0  0  0  0  0  0
  161.4810  200.9640  149.7650 C   0  0  0  0  0  3  0  0  0  0  0  0
  162.1050  206.3430  148.9950 C   0  0  2  0  0  3  0  0  0  0  0  0
  162.5260  207.3030  147.8840 C   0  0  0  0  0  2  0  0  0  0  0  0
  160.0580  204.8010  152.5290 C   0  0  0  0  0  2  0  0  0  0  0  0
  160.9310  202.8980  151.1220 C   0  0  0  0  0  0  0  0  0  0  0  0
  161.3410  201.5650  151.0160 C   0  0  0  0  0  3  0  0  0  0  0  0
  160.4690  208.2760  152.5420 O   0  0  0  0  0  0  0  0  0  0  0  0
  161.4440  207.8650  153.2310 C   0  0  0  0  0  0  0  0  0  0  0  0
  162.2530  206.7840  152.7630 N   0  0  0  0  0  2  0  0  0  0  0  0
  159.6270  210.0220  155.6210 C   0  0  1  0  0  3  0  0  0  0  0  0
  160.7930  208.0830  155.6410 C   0  0  0  0  0  2  0  0  0  0  0  0
  162.5460  210.4810  153.3590 O   0  0  0  0  0  1  0  0  0  0  0  0
  158.2440  210.6370  155.6590 C   0  0  0  0  0  1  0  0  0  0  0  0
  159.5170  208.6350  155.4120 O   0  0  0  0  0  0  0  0  0  0  0  0
  161.8310  210.0450  154.4760 C   0  0  2  0  0  3  0  0  0  0  0  0
  161.7780  208.5090  154.5450 C   0  0  2  0  0  3  0  0  0  0  0  0
  160.4340  210.6590  154.4900 C   0  0  0  0  0  2  0  0  0  0  0  0
  1  9  1  6  0  0  0
  1  6  1  0  0  0  0
  1 14  1  0  0  0  0
  2  3  1  6  0  0  0
  2 13  1  0  0  0  0
  3 19  1  0  0  0  0
  4  7  1  0  0  0  0
  4 15  2  0  0  0  0
  5 14  1  6  0  0  0
  5 16  1  0  0  0  0
  5  2  1  0  0  0  0
  6 17  1  0  0  0  0
  7  3  2  0  0  0  0
  8 23  1  1  0  0  0
 10 18  1  0  0  0  0
 11  4  1  0  0  0  0
 12  8  1  0  0  0  0
 13  8  1  0  0  0  0
 13 18  1  1  0  0  0
 15 20  1  0  0  0  0
 16 17  1  6  0  0  0
 16 12  1  0  0  0  0
 19 10  1  0  0  0  0
 20 19  2  0  0  0  0
 21 22  2  0  0  0  0
 23 22  1  0  0  0  0
 24 27  1  6  0  0  0
 28 24  1  0  0  0  0
 28 25  1  0  0  0  0
 29 26  1  6  0  0  0
 29 31  1  0  0  0  0
 29 30  1  0  0  0  0
 30 22  1  6  0  0  0
 30 25  1  0  0  0  0
 31 24  1  0  0  0  0
M  END
>  <MODEL>
1

>  <REMARK>
 VINA RESULT:      -7.3      0.000      0.000
  Name = 
  2 active torsions:
  status: ('A' for Active; 'I' for Inactive)
    1  A    between atoms: C_5  and  C_30
    2  A    between atoms: C_10  and  N_16
                            x       y       z     vdW  Elec       q    Type
                         _______ _______ _______ _____ _____    ______ ____

>  <TORSDO>
F 2

$$$$
=
 OpenBabel11122413263D

 31 35  0  0  1  0  0  0  0  0999 V2000
  160.9080  204.2620  145.3630 C   0  0  1  0  0  3  0  0  0  0  0  0
  160.4310  205.9410  148.8600 C   0  0  2  0  0  3  0  0  0  0  0  0
  160.8760  204.8990  149.8850 C   0  0  0  0  0  0  0  0  0  0  0  0
  161.2650  202.5690  150.4870 C   0  0  0  0  0  0  0  0  0  0  0  0
  160.9120  205.7200  147.4110 C   0  0  2  0  0  3  0  0  0  0  0  0
  162.4300  204.3210  145.3390 C   0  0  0  0  0  2  0  0  0  0  0  0
  160.9460  203.5400  149.5380 C   0  0  0  0  0  3  0  0  0  0  0  0
  162.3320  207.6130  149.1420 C   0  0  2  0  0  3  0  0  0  0  0  0
  160.4810  203.0390  144.8490 O   0  0  0  0  0  1  0  0  0  0  0  0
  161.0520  206.6890  151.7020 C   0  0  0  0  0  2  0  0  0  0  0  0
  161.3490  201.1400  150.0890 C   0  0  0  0  0  1  0  0  0  0  0  0
  162.8060  207.3070  147.7190 C   0  0  0  0  0  2  0  0  0  0  0  0
  160.8160  207.3680  149.2870 C   0  0  2  0  0  3  0  0  0  0  0  0
  160.4030  204.4150  146.7930 C   0  0  0  0  0  2  0  0  0  0  0  0
  161.5000  202.9400  151.8110 C   0  0  0  0  0  3  0  0  0  0  0  0
  162.4350  205.8890  147.3010 C   0  0  2  0  0  3  0  0  0  0  0  0
  162.9010  205.6720  145.8630 C   0  0  0  0  0  2  0  0  0  0  0  0
  160.3360  207.6140  150.7180 C   0  0  0  0  0  2  0  0  0  0  0  0
  161.0800  205.2600  151.2420 C   0  0  0  0  0  0  0  0  0  0  0  0
  161.4080  204.2810  152.1850 C   0  0  0  0  0  3  0  0  0  0  0  0
  161.3000  209.9050  147.7960 O   0  0  0  0  0  0  0  0  0  0  0  0
  162.0880  210.1010  148.7620 C   0  0  0  0  0  0  0  0  0  0  0  0
  162.6480  208.9960  149.4730 N   0  0  0  0  0  2  0  0  0  0  0  0
  161.0550  213.4960  147.7260 C   0  0  1  0  0  3  0  0  0  0  0  0
  161.2260  212.2880  149.6320 C   0  0  0  0  0  2  0  0  0  0  0  0
  164.1940  211.5150  147.4820 O   0  0  0  0  0  1  0  0  0  0  0  0
  160.0990  214.0470  146.6890 C   0  0  0  0  0  1  0  0  0  0  0  0
  160.3800  212.5700  148.5410 O   0  0  0  0  0  0  0  0  0  0  0  0
  163.1940  212.2840  148.0780 C   0  0  2  0  0  3  0  0  0  0  0  0
  162.4580  211.4960  149.1760 C   0  0  2  0  0  3  0  0  0  0  0  0
  162.2280  212.8160  147.0220 C   0  0  0  0  0  2  0  0  0  0  0  0
  1  9  1  1  0  0  0
  1 14  1  0  0  0  0
  2 13  1  0  0  0  0
  2  3  1  1  0  0  0
  3 19  1  0  0  0  0
  4 15  2  0  0  0  0
  5 14  1  1  0  0  0
  5  2  1  0  0  0  0
  6  1  1  0  0  0  0
  6 17  1  0  0  0  0
  7  3  2  0  0  0  0
  7  4  1  0  0  0  0
  8 13  1  0  0  0  0
  8 23  1  6  0  0  0
 11  4  1  0  0  0  0
 12  8  1  0  0  0  0
 13 18  1  1  0  0  0
 15 20  1  0  0  0  0
 16 17  1  6  0  0  0
 16  5  1  0  0  0  0
 16 12  1  0  0  0  0
 18 10  1  0  0  0  0
 19 10  1  0  0  0  0
 19 20  2  0  0  0  0
 21 22  2  0  0  0  0
 22 23  1  0  0  0  0
 24 27  1  6  0  0  0
 24 28  1  0  0  0  0
 28 25  1  0  0  0  0
 29 26  1  6  0  0  0
 29 30  1  0  0  0  0
 30 22  1  6  0  0  0
 30 25  1  0  0  0  0
 31 24  1  0  0  0  0
 31 29  1  0  0  0  0
M  END
>  <MODEL>
2

>  <REMARK>
 VINA RESULT:      -7.2      3.394      4.641
  Name = 
  2 active torsions:
  status: ('A' for Active; 'I' for Inactive)
    1  A    between atoms: C_5  and  C_30
    2  A    between atoms: C_10  and  N_16
                            x       y       z     vdW  Elec       q    Type
                         _______ _______ _______ _____ _____    ______ ____

>  <TORSDO>
F 2

$$$$
=
 OpenBabel11122413263D

 31 35  0  0  1  0  0  0  0  0999 V2000
  160.7840  204.9530  145.0080 C   0  0  1  0  0  3  0  0  0  0  0  0
  160.3760  205.2370  148.8850 C   0  0  2  0  0  3  0  0  0  0  0  0
  160.8670  203.9050  149.4530 C   0  0  0  0  0  0  0  0  0  0  0  0
  161.3120  201.5270  149.1600 C   0  0  0  0  0  0  0  0  0  0  0  0
  160.8200  205.5680  147.4460 C   0  0  2  0  0  3  0  0  0  0  0  0
  162.3040  205.0560  144.9770 C   0  0  0  0  0  2  0  0  0  0  0  0
  160.9500  202.7670  148.6340 C   0  0  0  0  0  3  0  0  0  0  0  0
  162.2560  206.7410  149.7180 C   0  0  2  0  0  3  0  0  0  0  0  0
  160.3640  203.9890  144.0940 O   0  0  0  0  0  1  0  0  0  0  0  0
  161.0620  204.9190  151.7920 C   0  0  0  0  0  2  0  0  0  0  0  0
  161.4090  200.3430  148.2680 C   0  0  0  0  0  1  0  0  0  0  0  0
  162.6950  206.9840  148.2720 C   0  0  0  0  0  2  0  0  0  0  0  0
  160.7490  206.4210  149.7940 C   0  0  2  0  0  3  0  0  0  0  0  0
  160.3170  204.5640  146.4060 C   0  0  0  0  0  2  0  0  0  0  0  0
  161.5760  201.3980  150.5220 C   0  0  0  0  0  3  0  0  0  0  0  0
  162.3370  205.8050  147.3740 C   0  0  2  0  0  3  0  0  0  0  0  0
  162.7670  206.1360  145.9470 C   0  0  0  0  0  2  0  0  0  0  0  0
  160.3040  206.1180  151.2250 C   0  0  0  0  0  2  0  0  0  0  0  0
  161.1020  203.7550  150.8440 C   0  0  0  0  0  0  0  0  0  0  0  0
  161.4730  202.5090  151.3600 C   0  0  0  0  0  3  0  0  0  0  0  0
  161.5350  209.4180  149.0540 O   0  0  0  0  0  0  0  0  0  0  0  0
  162.1580  209.2330  150.1350 C   0  0  0  0  0  0  0  0  0  0  0  0
  162.5570  207.9170  150.5220 N   0  0  0  0  0  2  0  0  0  0  0  0
  160.3390  211.1870  152.6930 C   0  0  1  0  0  3  0  0  0  0  0  0
  162.2810  210.0380  152.5060 C   0  0  0  0  0  2  0  0  0  0  0  0
  161.7170  211.9170  149.3140 O   0  0  0  0  0  1  0  0  0  0  0  0
  158.9320  211.1600  153.2500 C   0  0  0  0  0  1  0  0  0  0  0  0
  160.9070  209.9040  152.7900 O   0  0  0  0  0  0  0  0  0  0  0  0
  161.7230  211.6740  150.6890 C   0  0  2  0  0  3  0  0  0  0  0  0
  162.5000  210.3900  151.0280 C   0  0  2  0  0  3  0  0  0  0  0  0
  160.2970  211.6310  151.2310 C   0  0  0  0  0  2  0  0  0  0  0  0
  1  9  1  6  0  0  0
  1 14  1  0  0  0  0
  2  3  1  1  0  0  0
  2 13  1  0  0  0  0
  3 19  1  0  0  0  0
  4 15  2  0  0  0  0
  5 14  1  6  0  0  0
  5  2  1  0  0  0  0
  6  1  1  0  0  0  0
  6 17  1  0  0  0  0
  7  4  1  0  0  0  0
  7  3  2  0  0  0  0
  8 13  1  0  0  0  0
  8 23  1  1  0  0  0
 11  4  1  0  0  0  0
 12  8  1  0  0  0  0
 13 18  1  1  0  0  0
 15 20  1  0  0  0  0
 16 17  1  6  0  0  0
 16  5  1  0  0  0  0
 16 12  1  0  0  0  0
 18 10  1  0  0  0  0
 19 20  2  0  0  0  0
 19 10  1  0  0  0  0
 21 22  2  0  0  0  0
 22 23  1  0  0  0  0
 24 28  1  0  0  0  0
 24 27  1  6  0  0  0
 25 28  1  0  0  0  0
 29 26  1  6  0  0  0
 29 30  1  0  0  0  0
 29 31  1  0  0  0  0
 30 22  1  6  0  0  0
 30 25  1  0  0  0  0
 31 24  1  0  0  0  0
M  END
>  <MODEL>
3

>  <REMARK>
 VINA RESULT:      -6.7      2.051      2.498
  Name = 
  2 active torsions:
  status: ('A' for Active; 'I' for Inactive)
    1  A    between atoms: C_5  and  C_30
    2  A    between atoms: C_10  and  N_16
                            x       y       z     vdW  Elec       q    Type
                         _______ _______ _______ _____ _____    ______ ____

>  <TORSDO>
F 2

$$$$
=
 OpenBabel11122413263D

 31 35  0  0  1  0  0  0  0  0999 V2000
  162.5060  213.8560  147.7340 C   0  0  1  0  0  3  0  0  0  0  0  0
  159.7820  214.3440  150.4950 C   0  0  2  0  0  3  0  0  0  0  0  0
  158.4380  214.1830  149.7850 C   0  0  0  0  0  0  0  0  0  0  0  0
  157.1130  214.2640  147.7410 C   0  0  0  0  0  0  0  0  0  0  0  0
  161.0140  213.7810  149.7560 C   0  0  2  0  0  3  0  0  0  0  0  0
  162.3320  212.3510  147.5710 C   0  0  0  0  0  2  0  0  0  0  0  0
  158.3460  214.3210  148.3910 C   0  0  0  0  0  3  0  0  0  0  0  0
  159.7540  212.2130  151.8900 C   0  0  2  0  0  3  0  0  0  0  0  0
  162.6820  214.4420  146.4820 O   0  0  0  0  0  1  0  0  0  0  0  0
  157.2420  213.8610  152.0210 C   0  0  0  0  0  2  0  0  0  0  0  0
  157.0460  214.3960  146.2630 C   0  0  0  0  0  1  0  0  0  0  0  0
  160.9370  211.6740  151.0810 C   0  0  0  0  0  2  0  0  0  0  0  0
  159.7560  213.7550  151.9150 C   0  0  2  0  0  3  0  0  0  0  0  0
  161.2750  214.4530  148.4050 C   0  0  0  0  0  2  0  0  0  0  0  0
  155.9440  214.0890  148.4800 C   0  0  0  0  0  3  0  0  0  0  0  0
  160.9550  212.2480  149.6690 C   0  0  2  0  0  3  0  0  0  0  0  0
  162.1800  211.7000  148.9400 C   0  0  0  0  0  2  0  0  0  0  0  0
  158.5490  214.3120  152.6700 C   0  0  0  0  0  2  0  0  0  0  0  0
  157.2400  214.0430  150.5310 C   0  0  0  0  0  0  0  0  0  0  0  0
  156.0090  213.9770  149.8700 C   0  0  0  0  0  3  0  0  0  0  0  0
  160.1000  209.4700  152.5840 O   0  0  0  0  0  0  0  0  0  0  0  0
  160.0000  210.3030  153.5270 C   0  0  0  0  0  0  0  0  0  0  0  0
  159.8150  211.6910  153.2480 N   0  0  0  0  0  2  0  0  0  0  0  0
  159.4890  211.9270  156.8090 C   0  0  1  0  0  3  0  0  0  0  0  0
  158.7370  210.1120  155.6840 C   0  0  0  0  0  2  0  0  0  0  0  0
  162.4080  210.4630  155.0260 O   0  0  0  0  0  1  0  0  0  0  0  0
  159.1530  213.3330  157.2590 C   0  0  0  0  0  1  0  0  0  0  0  0
  158.5340  211.4940  155.8720 O   0  0  0  0  0  0  0  0  0  0  0  0
  161.2150  210.4890  155.7510 C   0  0  2  0  0  3  0  0  0  0  0  0
  160.0620  209.8500  154.9570 C   0  0  2  0  0  3  0  0  0  0  0  0
  160.8820  211.9150  156.1810 C   0  0  0  0  0  2  0  0  0  0  0  0
  1  9  1  6  0  0  0
  1 14  1  0  0  0  0
  2  3  1  6  0  0  0
  2 13  1  0  0  0  0
  3 19  1  0  0  0  0
  4  7  1  0  0  0  0
  4 15  2  0  0  0  0
  5 14  1  6  0  0  0
  5  2  1  0  0  0  0
  6  1  1  0  0  0  0
  6 17  1  0  0  0  0
  7  3  2  0  0  0  0
  8 13  1  0  0  0  0
  8 23  1  1  0  0  0
 10 18  1  0  0  0  0
 11  4  1  0  0  0  0
 12  8  1  0  0  0  0
 13 18  1  6  0  0  0
 15 20  1  0  0  0  0
 16 17  1  6  0  0  0
 16  5  1  0  0  0  0
 16 12  1  0  0  0  0
 19 10  1  0  0  0  0
 20 19  2  0  0  0  0
 21 22  2  0  0  0  0
 23 22  1  0  0  0  0
 24 27  1  6  0  0  0
 25 28  1  0  0  0  0
 28 24  1  0  0  0  0
 29 26  1  6  0  0  0
 29 31  1  0  0  0  0
 30 22  1  6  0  0  0
 30 25  1  0  0  0  0
 30 29  1  0  0  0  0
 31 24  1  0  0  0  0
M  END
>  <MODEL>
4

>  <REMARK>
 VINA RESULT:      -5.0      5.997      8.097
  Name = 
  2 active torsions:
  status: ('A' for Active; 'I' for Inactive)
    1  A    between atoms: C_5  and  C_30
    2  A    between atoms: C_10  and  N_16
                            x       y       z     vdW  Elec       q    Type
                         _______ _______ _______ _____ _____    ______ ____

>  <TORSDO>
F 2

$$$$
=
 OpenBabel11122413263D

 31 35  0  0  1  0  0  0  0  0999 V2000
  157.0920  214.2570  149.8960 C   0  0  1  0  0  3  0  0  0  0  0  0
  160.4150  214.2210  147.8380 C   0  0  2  0  0  3  0  0  0  0  0  0
  161.1920  212.9990  148.3250 C   0  0  0  0  0  0  0  0  0  0  0  0
  161.6480  211.3470  150.0580 C   0  0  0  0  0  0  0  0  0  0  0  0
  158.9050  214.2390  148.1540 C   0  0  2  0  0  3  0  0  0  0  0  0
  156.4330  213.0750  149.1980 C   0  0  0  0  0  2  0  0  0  0  0  0
  160.8900  212.4070  149.5620 C   0  0  0  0  0  3  0  0  0  0  0  0
  159.8240  213.4090  145.4960 C   0  0  2  0  0  3  0  0  0  0  0  0
  156.8420  214.1870  151.2660 O   0  0  0  0  0  1  0  0  0  0  0  0
  162.7130  213.0860  146.2710 C   0  0  0  0  0  2  0  0  0  0  0  0
  161.2960  210.7280  151.3620 C   0  0  0  0  0  1  0  0  0  0  0  0
  158.3440  213.3820  145.8840 C   0  0  0  0  0  2  0  0  0  0  0  0
  160.5980  214.4530  146.3280 C   0  0  2  0  0  3  0  0  0  0  0  0
  158.5970  214.2320  149.6540 C   0  0  0  0  0  2  0  0  0  0  0  0
  162.7410  210.8720  149.3330 C   0  0  0  0  0  3  0  0  0  0  0  0
  158.1630  213.1400  147.3780 C   0  0  2  0  0  3  0  0  0  0  0  0
  156.6700  213.1670  147.6950 C   0  0  0  0  0  2  0  0  0  0  0  0
  162.0890  214.4530  145.9940 C   0  0  0  0  0  2  0  0  0  0  0  0
  162.3280  212.5330  147.6130 C   0  0  0  0  0  0  0  0  0  0  0  0
  163.0770  211.4640  148.1140 C   0  0  0  0  0  3  0  0  0  0  0  0
  160.0730  211.4710  143.4200 O   0  0  0  0  0  0  0  0  0  0  0  0
  160.0620  212.6880  143.0850 C   0  0  0  0  0  0  0  0  0  0  0  0
  159.9500  213.7100  144.0770 N   0  0  0  0  0  2  0  0  0  0  0  0
  161.3970  211.0860  140.0320 C   0  0  1  0  0  3  0  0  0  0  0  0
  159.4800  212.0680  140.7270 C   0  0  0  0  0  2  0  0  0  0  0  0
  162.3650  214.0260  142.0950 O   0  0  0  0  0  1  0  0  0  0  0  0
  162.0750  209.7660  139.7330 C   0  0  0  0  0  1  0  0  0  0  0  0
  160.1840  210.8480  140.7050 O   0  0  0  0  0  0  0  0  0  0  0  0
  161.6300  213.2790  141.1740 C   0  0  2  0  0  3  0  0  0  0  0  0
  160.1760  213.0840  141.6410 C   0  0  2  0  0  3  0  0  0  0  0  0
  162.3170  211.9440  140.8990 C   0  0  0  0  0  2  0  0  0  0  0  0
  1  9  1  1  0  0  0
  2  5  1  0  0  0  0
  2  3  1  6  0  0  0
  3  7  1  0  0  0  0
  4 11  1  0  0  0  0
  5 14  1  1  0  0  0
  6  1  1  0  0  0  0
  7  4  2  0  0  0  0
  8 23  1  6  0  0  0
  8 12  1  0  0  0  0
  8 13  1  0  0  0  0
 10 19  1  0  0  0  0
 13 18  1  1  0  0  0
 13  2  1  0  0  0  0
 14  1  1  0  0  0  0
 15  4  1  0  0  0  0
 16 12  1  6  0  0  0
 16 17  1  0  0  0  0
 16  5  1  0  0  0  0
 17  6  1  0  0  0  0
 18 10  1  0  0  0  0
 19 20  1  0  0  0  0
 19  3  2  0  0  0  0
 20 15  2  0  0  0  0
 22 21  2  0  0  0  0
 22 23  1  0  0  0  0
 24 27  1  1  0  0  0
 24 28  1  0  0  0  0
 24 31  1  0  0  0  0
 25 30  1  0  0  0  0
 28 25  1  0  0  0  0
 29 30  1  0  0  0  0
 29 26  1  1  0  0  0
 30 22  1  1  0  0  0
 31 29  1  0  0  0  0
M  END
>  <MODEL>
5

>  <REMARK>
 VINA RESULT:      -4.8      6.959     11.259
  Name = 
  2 active torsions:
  status: ('A' for Active; 'I' for Inactive)
    1  A    between atoms: C_5  and  C_30
    2  A    between atoms: C_10  and  N_16
                            x       y       z     vdW  Elec       q    Type
                         _______ _______ _______ _____ _____    ______ ____

>  <TORSDO>
F 2

$$$$
=
 OpenBabel11122413263D

 31 35  0  0  1  0  0  0  0  0999 V2000
  162.0560  213.5540  148.0640 C   0  0  1  0  0  3  0  0  0  0  0  0
  159.6170  214.3100  151.0240 C   0  0  2  0  0  3  0  0  0  0  0  0
  158.2090  214.1630  150.4490 C   0  0  0  0  0  0  0  0  0  0  0  0
  156.7040  214.1790  148.5320 C   0  0  0  0  0  0  0  0  0  0  0  0
  160.7560  213.6560  150.2130 C   0  0  2  0  0  3  0  0  0  0  0  0
  161.8160  212.0510  148.0100 C   0  0  0  0  0  2  0  0  0  0  0  0
  157.9940  214.2240  149.0630 C   0  0  0  0  0  3  0  0  0  0  0  0
  159.6440  212.2660  152.5430 C   0  0  2  0  0  3  0  0  0  0  0  0
  162.1360  214.0600  146.7680 O   0  0  0  0  0  1  0  0  0  0  0  0
  157.2130  214.0190  152.7990 C   0  0  0  0  0  2  0  0  0  0  0  0
  156.5060  214.2290  147.0600 C   0  0  0  0  0  1  0  0  0  0  0  0
  160.7270  211.6340  151.6660 C   0  0  0  0  0  2  0  0  0  0  0  0
  159.7020  213.8060  152.4740 C   0  0  2  0  0  3  0  0  0  0  0  0
  160.9140  214.2380  148.8060 C   0  0  0  0  0  2  0  0  0  0  0  0
  155.6030  214.0940  149.3820 C   0  0  0  0  0  3  0  0  0  0  0  0
  160.6350  212.1240  150.2250 C   0  0  2  0  0  3  0  0  0  0  0  0
  161.7680  211.4860  149.4240 C   0  0  0  0  0  2  0  0  0  0  0  0
  158.5900  214.4530  153.2990 C   0  0  0  0  0  2  0  0  0  0  0  0
  157.0800  214.1140  151.3070 C   0  0  0  0  0  0  0  0  0  0  0  0
  155.7920  214.0600  150.7650 C   0  0  0  0  0  3  0  0  0  0  0  0
  157.6220  211.0330  154.1320 O   0  0  0  0  0  0  0  0  0  0  0  0
  158.7570  211.2010  154.6580 C   0  0  0  0  0  0  0  0  0  0  0  0
  159.8110  211.8210  153.9190 N   0  0  0  0  0  2  0  0  0  0  0  0
  161.7700  210.8460  156.7720 C   0  0  1  0  0  3  0  0  0  0  0  0
  159.7440  211.8510  156.8680 C   0  0  0  0  0  2  0  0  0  0  0  0
  159.3090  208.4850  155.2840 O   0  0  0  0  0  1  0  0  0  0  0  0
  163.2520  211.0630  156.5560 C   0  0  0  0  0  1  0  0  0  0  0  0
  161.0670  212.0100  156.4110 O   0  0  0  0  0  0  0  0  0  0  0  0
  159.8110  209.4460  156.1640 C   0  0  2  0  0  3  0  0  0  0  0  0
  159.0180  210.7610  156.0690 C   0  0  2  0  0  3  0  0  0  0  0  0
  161.3010  209.6670  155.9200 C   0  0  0  0  0  2  0  0  0  0  0  0
  1  9  1  6  0  0  0
  1 14  1  0  0  0  0
  2  3  1  6  0  0  0
  2 13  1  0  0  0  0
  3 19  1  0  0  0  0
  4  7  1  0  0  0  0
  4 15  2  0  0  0  0
  5 14  1  6  0  0  0
  5 16  1  0  0  0  0
  5  2  1  0  0  0  0
  6  1  1  0  0  0  0
  6 17  1  0  0  0  0
  7  3  2  0  0  0  0
  8 23  1  1  0  0  0
 10 18  1  0  0  0  0
 11  4  1  0  0  0  0
 12  8  1  0  0  0  0
 13  8  1  0  0  0  0
 13 18  1  1  0  0  0
 15 20  1  0  0  0  0
 16 17  1  6  0  0  0
 16 12  1  0  0  0  0
 19 10  1  0  0  0  0
 20 19  2  0  0  0  0
 21 22  2  0  0  0  0
 23 22  1  0  0  0  0
 24 27  1  6  0  0  0
 28 24  1  0  0  0  0
 28 25  1  0  0  0  0
 29 26  1  6  0  0  0
 30 22  1  6  0  0  0
 30 29  1  0  0  0  0
 30 25  1  0  0  0  0
 31 29  1  0  0  0  0
 31 24  1  0  0  0  0
M  END
>  <MODEL>
6

>  <REMARK>
 VINA RESULT:      -4.8      6.125      8.282
  Name = 
  2 active torsions:
  status: ('A' for Active; 'I' for Inactive)
    1  A    between atoms: C_5  and  C_30
    2  A    between atoms: C_10  and  N_16
                            x       y       z     vdW  Elec       q    Type
                         _______ _______ _______ _____ _____    ______ ____

>  <TORSDO>
F 2

$$$$
=
 OpenBabel11122413263D

 31 35  0  0  1  0  0  0  0  0999 V2000
  161.9920  213.0420  142.7210 C   0  0  1  0  0  3  0  0  0  0  0  0
  160.6880  212.1280  139.1510 C   0  0  2  0  0  3  0  0  0  0  0  0
  160.8000  210.6070  139.0450 C   0  0  0  0  0  0  0  0  0  0  0  0
  161.8220  208.5160  139.7660 C   0  0  0  0  0  0  0  0  0  0  0  0
  160.7190  212.7150  140.5780 C   0  0  2  0  0  3  0  0  0  0  0  0
  160.7920  212.5110  143.4950 C   0  0  0  0  0  2  0  0  0  0  0  0
  161.6440  209.8920  139.9090 C   0  0  0  0  0  3  0  0  0  0  0  0
  158.1500  212.3370  139.2170 C   0  0  2  0  0  3  0  0  0  0  0  0
  163.1650  212.7140  143.3980 O   0  0  0  0  0  1  0  0  0  0  0  0
  159.2330  210.5840  137.0250 C   0  0  0  0  0  2  0  0  0  0  0  0
  162.7090  207.7800  140.7040 C   0  0  0  0  0  1  0  0  0  0  0  0
  158.2340  212.8530  140.6550 C   0  0  0  0  0  2  0  0  0  0  0  0
  159.4370  212.6630  138.4330 C   0  0  2  0  0  3  0  0  0  0  0  0
  162.0240  212.4310  141.3260 C   0  0  0  0  0  2  0  0  0  0  0  0
  161.1730  207.8320  138.7380 C   0  0  0  0  0  3  0  0  0  0  0  0
  159.4660  212.3120  141.3710 C   0  0  2  0  0  3  0  0  0  0  0  0
  159.5050  212.9010  142.7790 C   0  0  0  0  0  2  0  0  0  0  0  0
  159.3940  212.1040  137.0110 C   0  0  0  0  0  2  0  0  0  0  0  0
  160.1740  209.9090  137.9810 C   0  0  0  0  0  0  0  0  0  0  0  0
  160.3510  208.5280  137.8510 C   0  0  0  0  0  3  0  0  0  0  0  0
  155.7680  210.9450  138.4960 O   0  0  0  0  0  0  0  0  0  0  0  0
  155.8280  212.1770  138.2270 C   0  0  0  0  0  0  0  0  0  0  0  0
  156.9970  212.9300  138.5530 N   0  0  0  0  0  2  0  0  0  0  0  0
  152.8450  214.0260  139.3880 C   0  0  1  0  0  3  0  0  0  0  0  0
  154.5870  214.3410  137.9790 C   0  0  0  0  0  2  0  0  0  0  0  0
  153.4170  210.8000  137.6260 O   0  0  0  0  0  1  0  0  0  0  0  0
  152.2700  214.3730  140.7450 C   0  0  0  0  0  1  0  0  0  0  0  0
  154.1850  214.4480  139.3250 O   0  0  0  0  0  0  0  0  0  0  0  0
  153.3250  212.1820  137.7950 C   0  0  2  0  0  3  0  0  0  0  0  0
  154.6800  212.8690  137.5530 C   0  0  2  0  0  3  0  0  0  0  0  0
  152.7610  212.5150  139.1740 C   0  0  0  0  0  2  0  0  0  0  0  0
  1  9  1  1  0  0  0
  1  6  1  0  0  0  0
  2  3  1  1  0  0  0
  2  5  1  0  0  0  0
  3  7  1  0  0  0  0
  4  7  2  0  0  0  0
  4 11  1  0  0  0  0
  5 14  1  1  0  0  0
  5 16  1  0  0  0  0
  8 23  1  6  0  0  0
  8 12  1  0  0  0  0
 10 19  1  0  0  0  0
 13 18  1  6  0  0  0
 13  2  1  0  0  0  0
 13  8  1  0  0  0  0
 14  1  1  0  0  0  0
 15  4  1  0  0  0  0
 16 12  1  6  0  0  0
 16 17  1  0  0  0  0
 17  6  1  0  0  0  0
 18 10  1  0  0  0  0
 19  3  2  0  0  0  0
 20 19  1  0  0  0  0
 20 15  2  0  0  0  0
 22 21  2  0  0  0  0
 22 23  1  0  0  0  0
 24 27  1  1  0  0  0
 25 28  1  0  0  0  0
 28 24  1  0  0  0  0
 29 26  1  1  0  0  0
 29 31  1  0  0  0  0
 30 29  1  0  0  0  0
 30 25  1  0  0  0  0
 30 22  1  1  0  0  0
 31 24  1  0  0  0  0
M  END
>  <MODEL>
7

>  <REMARK>
 VINA RESULT:      -4.5     10.655     14.356
  Name = 
  2 active torsions:
  status: ('A' for Active; 'I' for Inactive)
    1  A    between atoms: C_5  and  C_30
    2  A    between atoms: C_10  and  N_16
                            x       y       z     vdW  Elec       q    Type
                         _______ _______ _______ _____ _____    ______ ____

>  <TORSDO>
F 2

$$$$
