=
 OpenBabel11122412333D

 30 35  0  0  1  0  0  0  0  0999 V2000
  161.5240  206.1140  149.6870 C   0  0  1  0  0  3  0  0  0  0  0  0
  161.2460  203.6110  149.1680 C   0  0  2  0  0  3  0  0  0  0  0  0
  160.8040  205.4810  153.9070 C   0  0  0  0  0  2  0  0  0  0  0  0
  161.8400  207.1690  150.7760 C   0  0  1  0  0  3  0  0  0  0  0  0
  162.3310  206.3520  148.5570 O   0  0  0  0  0  0  0  0  0  0  0  0
  161.7300  209.8510  148.2810 O   0  0  0  0  0  0  0  0  0  0  0  0
  160.5390  209.9480  151.8570 C   0  0  1  0  0  3  0  0  0  0  0  0
  161.7580  208.6970  148.7870 C   0  0  0  0  0  0  0  0  0  0  0  0
  160.3760  209.1210  153.1310 C   0  0  2  0  0  3  0  0  0  0  0  0
  160.8570  206.9230  154.2410 C   0  0  0  0  0  0  0  0  0  0  0  0
  161.8350  207.4950  147.8840 C   0  0  2  0  0  3  0  0  0  0  0  0
  161.6990  208.5200  150.2150 N   0  0  0  0  0  0  0  0  0  0  0  0
  161.4450  202.2020  149.7280 C   0  0  0  0  0  2  0  0  0  0  0  0
  160.9340  209.9890  154.2400 C   0  0  0  0  0  2  0  0  0  0  0  0
  160.4900  211.4000  152.3060 C   0  0  0  0  0  2  0  0  0  0  0  0
  161.9930  203.7290  147.9960 O   0  0  0  0  0  1  0  0  0  0  0  0
  161.3190  205.5310  152.4880 C   0  0  2  0  0  3  0  0  0  0  0  0
  160.6920  202.0190  151.0430 C   0  0  0  0  0  2  0  0  0  0  0  0
  161.6870  204.6610  150.2030 C   0  0  2  0  0  3  0  0  0  0  0  0
  160.9010  206.8900  151.9510 C   0  0  1  0  0  3  0  0  0  0  0  0
  160.7360  207.3510  155.4190 O   0  0  0  0  0  0  0  0  0  0  0  0
  160.9860  207.7840  153.1040 N   0  0  0  0  0  0  0  0  0  0  0  0
  160.6130  211.4080  153.8220 C   0  0  0  0  0  2  0  0  0  0  0  0
  163.1130  209.7040  151.8710 C   0  0  0  0  0  1  0  0  0  0  0  0
  161.1570  203.0550  152.0590 C   0  0  0  0  0  2  0  0  0  0  0  0
  160.8890  204.4520  151.5100 C   0  0  1  0  0  3  0  0  0  0  0  0
  161.8210  209.7040  151.0580 C   0  0  2  0  0  3  0  0  0  0  0  0
  160.4980  207.2300  147.1950 C   0  0  0  0  0  2  0  0  0  0  0  0
  160.5070  206.2250  144.9350 C   0  0  0  0  0  1  0  0  0  0  0  0
  160.5590  205.9290  146.4180 C   0  0  0  0  0  2  0  0  0  0  0  0
  1  5  1  6  0  0  0
  1 19  1  0  0  0  0
  1  4  1  0  0  0  0
  2 16  1  6  0  0  0
  2 13  1  0  0  0  0
  2 19  1  0  0  0  0
  3 10  1  0  0  0  0
  4 12  1  6  0  0  0
  4 20  1  0  0  0  0
  6  8  2  0  0  0  0
  7 15  1  1  0  0  0
  7  9  1  0  0  0  0
  8 12  1  0  0  0  0
  9 14  1  1  0  0  0
 10 21  2  0  0  0  0
 11 28  1  1  0  0  0
 11  5  1  0  0  0  0
 11  8  1  0  0  0  0
 12 27  1  0  0  0  0
 13 18  1  0  0  0  0
 15 23  1  0  0  0  0
 17  3  1  1  0  0  0
 18 25  1  0  0  0  0
 19 26  1  0  0  0  0
 20 17  1  0  0  0  0
 20 22  1  0  0  0  0
 22  9  1  0  0  0  0
 22 10  1  0  0  0  0
 23 14  1  0  0  0  0
 26 25  1  0  0  0  0
 26 17  1  0  0  0  0
 27  7  1  0  0  0  0
 27 24  1  0  0  0  0
 29 30  1  0  0  0  0
 30 28  1  0  0  0  0
M  END
>  <MODEL>
1

>  <REMARK>
 VINA RESULT:      -7.7      0.000      0.000
  Name = 
  2 active torsions:
  status: ('A' for Active; 'I' for Inactive)
    1  A    between atoms: C_11  and  C_28
    2  A    between atoms: C_28  and  C_30
                            x       y       z     vdW  Elec       q    Type
                         _______ _______ _______ _____ _____    ______ ____

>  <TORSDO>
F 2

$$$$
=
 OpenBabel11122412333D

 30 35  0  0  1  0  0  0  0  0999 V2000
  161.4020  208.7470  151.6840 C   0  0  1  0  0  3  0  0  0  0  0  0
  160.7990  207.6770  153.9430 C   0  0  2  0  0  3  0  0  0  0  0  0
  159.8750  212.6020  152.9230 C   0  0  0  0  0  2  0  0  0  0  0  0
  161.7000  210.0670  150.9300 C   0  0  1  0  0  3  0  0  0  0  0  0
  162.4180  207.8110  151.4080 O   0  0  0  0  0  0  0  0  0  0  0  0
  162.4700  208.2040  147.8690 O   0  0  0  0  0  0  0  0  0  0  0  0
  160.7190  211.5280  148.1940 C   0  0  1  0  0  3  0  0  0  0  0  0
  162.2170  208.4540  149.0780 C   0  0  0  0  0  0  0  0  0  0  0  0
  160.2050  212.5640  149.1910 C   0  0  2  0  0  3  0  0  0  0  0  0
  160.1120  213.2380  151.6060 C   0  0  0  0  0  0  0  0  0  0  0  0
  162.2430  207.3350  150.0850 C   0  0  2  0  0  3  0  0  0  0  0  0
  161.8860  209.7910  149.4990 N   0  0  0  0  0  0  0  0  0  0  0  0
  160.6590  207.9470  155.4410 C   0  0  0  0  0  2  0  0  0  0  0  0
  160.7040  213.8960  148.6700 C   0  0  0  0  0  2  0  0  0  0  0  0
  160.8390  212.2640  146.8690 C   0  0  0  0  0  2  0  0  0  0  0  0
  161.7440  206.6680  153.7630 O   0  0  0  0  0  1  0  0  0  0  0  0
  160.6260  211.3080  152.7170 C   0  0  2  0  0  3  0  0  0  0  0  0
  159.6730  209.0810  155.7090 C   0  0  0  0  0  2  0  0  0  0  0  0
  161.2270  208.9600  153.2090 C   0  0  2  0  0  3  0  0  0  0  0  0
  160.5400  211.0200  151.2270 C   0  0  1  0  0  3  0  0  0  0  0  0
  159.8660  214.4530  151.3860 O   0  0  0  0  0  0  0  0  0  0  0  0
  160.5770  212.3370  150.5940 N   0  0  0  0  0  0  0  0  0  0  0  0
  160.7020  213.7500  147.1630 C   0  0  0  0  0  2  0  0  0  0  0  0
  163.1750  211.8330  148.9440 C   0  0  0  0  0  1  0  0  0  0  0  0
  160.1250  210.3470  154.9900 C   0  0  0  0  0  2  0  0  0  0  0  0
  160.1940  210.0750  153.4910 C   0  0  1  0  0  3  0  0  0  0  0  0
  162.0590  210.8740  148.5370 C   0  0  2  0  0  3  0  0  0  0  0  0
  161.0190  206.4330  149.9480 C   0  0  0  0  0  2  0  0  0  0  0  0
  160.8740  203.9710  149.7650 C   0  0  0  0  0  1  0  0  0  0  0  0
  161.2500  205.1220  150.6730 C   0  0  0  0  0  2  0  0  0  0  0  0
  1  5  1  1  0  0  0
  1 19  1  0  0  0  0
  2 16  1  1  0  0  0
  2 13  1  0  0  0  0
  4 12  1  6  0  0  0
  4 20  1  0  0  0  0
  4  1  1  0  0  0  0
  6  8  2  0  0  0  0
  7 15  1  6  0  0  0
  7 27  1  0  0  0  0
  7  9  1  0  0  0  0
  8 12  1  0  0  0  0
  8 11  1  0  0  0  0
  9 14  1  6  0  0  0
  9 22  1  0  0  0  0
 10  3  1  0  0  0  0
 11 28  1  1  0  0  0
 11  5  1  0  0  0  0
 13 18  1  0  0  0  0
 15 23  1  0  0  0  0
 17  3  1  6  0  0  0
 17 26  1  0  0  0  0
 19 26  1  0  0  0  0
 19  2  1  0  0  0  0
 20 17  1  0  0  0  0
 21 10  2  0  0  0  0
 22 20  1  0  0  0  0
 22 10  1  0  0  0  0
 23 14  1  0  0  0  0
 25 18  1  0  0  0  0
 26 25  1  0  0  0  0
 27 24  1  0  0  0  0
 27 12  1  0  0  0  0
 28 30  1  0  0  0  0
 29 30  1  0  0  0  0
M  END
>  <MODEL>
2

>  <REMARK>
 VINA RESULT:      -5.9      2.554      5.419
  Name = 
  2 active torsions:
  status: ('A' for Active; 'I' for Inactive)
    1  A    between atoms: C_11  and  C_28
    2  A    between atoms: C_28  and  C_30
                            x       y       z     vdW  Elec       q    Type
                         _______ _______ _______ _____ _____    ______ ____

>  <TORSDO>
F 2

$$$$
=
 OpenBabel11122412333D

 30 35  0  0  1  0  0  0  0  0999 V2000
  161.6510  207.5670  151.6070 C   0  0  1  0  0  3  0  0  0  0  0  0
  161.8070  210.0890  151.1320 C   0  0  2  0  0  3  0  0  0  0  0  0
  161.6890  206.6110  147.3860 C   0  0  0  0  0  2  0  0  0  0  0  0
  161.9030  206.1420  151.0550 C   0  0  1  0  0  3  0  0  0  0  0  0
  162.2220  207.6800  152.8900 O   0  0  0  0  0  0  0  0  0  0  0  0
  160.8990  204.6710  154.2580 O   0  0  0  0  0  0  0  0  0  0  0  0
  160.2420  203.3580  150.7850 C   0  0  1  0  0  3  0  0  0  0  0  0
  161.2300  205.5250  153.3930 C   0  0  0  0  0  0  0  0  0  0  0  0
  160.4340  203.6430  149.2970 C   0  0  2  0  0  3  0  0  0  0  0  0
  161.5000  205.1580  147.6060 C   0  0  0  0  0  0  0  0  0  0  0  0
  161.4150  206.9610  153.8050 C   0  0  2  0  0  3  0  0  0  0  0  0
  161.4150  205.1440  152.0170 N   0  0  0  0  0  0  0  0  0  0  0  0
  162.3630  211.1340  150.1640 C   0  0  0  0  0  2  0  0  0  0  0  0
  160.9610  202.3490  148.7120 C   0  0  0  0  0  2  0  0  0  0  0  0
  159.9690  201.8650  150.8810 C   0  0  0  0  0  2  0  0  0  0  0  0
  162.3390  210.3360  152.3980 O   0  0  0  0  0  1  0  0  0  0  0  0
  161.9730  207.0450  148.8050 C   0  0  2  0  0  3  0  0  0  0  0  0
  161.8600  210.8920  148.7430 C   0  0  0  0  0  2  0  0  0  0  0  0
  162.1740  208.6730  150.6550 C   0  0  2  0  0  3  0  0  0  0  0  0
  161.2180  206.0660  149.6890 C   0  0  1  0  0  3  0  0  0  0  0  0
  161.4680  204.3280  146.6590 O   0  0  0  0  0  0  0  0  0  0  0  0
  161.2890  204.7930  148.9740 N   0  0  0  0  0  0  0  0  0  0  0  0
  160.3060  201.2560  149.5290 C   0  0  0  0  0  2  0  0  0  0  0  0
  162.7870  203.2380  151.2240 C   0  0  0  0  0  1  0  0  0  0  0  0
  162.2500  209.4930  148.2820 C   0  0  0  0  0  2  0  0  0  0  0  0
  161.6310  208.4640  149.2230 C   0  0  1  0  0  3  0  0  0  0  0  0
  161.4170  203.7210  151.6950 C   0  0  2  0  0  3  0  0  0  0  0  0
  160.0730  207.6450  154.0590 C   0  0  0  0  0  2  0  0  0  0  0  0
  159.9650  207.2140  156.4920 C   0  0  0  0  0  1  0  0  0  0  0  0
  160.0650  208.2890  155.4320 C   0  0  0  0  0  2  0  0  0  0  0  0
  1  5  1  1  0  0  0
  2 16  1  1  0  0  0
  3 10  1  0  0  0  0
  4  1  1  0  0  0  0
  4 12  1  1  0  0  0
  5 11  1  0  0  0  0
  7 15  1  6  0  0  0
  7 27  1  0  0  0  0
  8 11  1  0  0  0  0
  8  6  2  0  0  0  0
  9 14  1  6  0  0  0
  9  7  1  0  0  0  0
 10 22  1  0  0  0  0
 11 28  1  6  0  0  0
 12  8  1  0  0  0  0
 13  2  1  0  0  0  0
 14 23  1  0  0  0  0
 17  3  1  6  0  0  0
 17 26  1  0  0  0  0
 17 20  1  0  0  0  0
 18 13  1  0  0  0  0
 19  2  1  0  0  0  0
 19  1  1  0  0  0  0
 20  4  1  0  0  0  0
 21 10  2  0  0  0  0
 22  9  1  0  0  0  0
 22 20  1  0  0  0  0
 23 15  1  0  0  0  0
 24 27  1  0  0  0  0
 25 18  1  0  0  0  0
 25 26  1  0  0  0  0
 26 19  1  0  0  0  0
 27 12  1  0  0  0  0
 28 30  1  0  0  0  0
 30 29  1  0  0  0  0
M  END
>  <MODEL>
3

>  <REMARK>
 VINA RESULT:      -5.2      1.932      7.098
  Name = 
  2 active torsions:
  status: ('A' for Active; 'I' for Inactive)
    1  A    between atoms: C_11  and  C_28
    2  A    between atoms: C_28  and  C_30
                            x       y       z     vdW  Elec       q    Type
                         _______ _______ _______ _____ _____    ______ ____

>  <TORSDO>
F 2

$$$$
=
 OpenBabel11122412333D

 30 35  0  0  1  0  0  0  0  0999 V2000
  161.7080  208.2390  149.5120 C   0  0  1  0  0  3  0  0  0  0  0  0
  161.5090  206.2990  147.8370 C   0  0  2  0  0  3  0  0  0  0  0  0
  160.7180  205.6670  152.8490 C   0  0  0  0  0  2  0  0  0  0  0  0
  161.9310  208.6350  150.9930 C   0  0  1  0  0  3  0  0  0  0  0  0
  162.5840  208.9780  148.6930 O   0  0  0  0  0  0  0  0  0  0  0  0
  161.9400  212.1880  150.0930 O   0  0  0  0  0  0  0  0  0  0  0  0
  160.5110  210.5740  153.1860 C   0  0  1  0  0  3  0  0  0  0  0  0
  161.9550  210.9320  149.9830 C   0  0  0  0  0  0  0  0  0  0  0  0
  160.2780  209.2390  153.8910 C   0  0  2  0  0  3  0  0  0  0  0  0
  160.7230  206.7710  153.8380 C   0  0  0  0  0  0  0  0  0  0  0  0
  162.1130  210.3120  148.6210 C   0  0  2  0  0  3  0  0  0  0  0  0
  161.8040  210.0920  151.1420 N   0  0  0  0  0  0  0  0  0  0  0  0
  161.6950  204.7910  147.6620 C   0  0  0  0  0  2  0  0  0  0  0  0
  160.7460  209.4580  155.3160 C   0  0  0  0  0  2  0  0  0  0  0  0
  160.4070  211.6320  154.2740 C   0  0  0  0  0  2  0  0  0  0  0  0
  162.3310  206.9530  146.9190 O   0  0  0  0  0  1  0  0  0  0  0  0
  161.3250  206.3850  151.6670 C   0  0  2  0  0  3  0  0  0  0  0  0
  160.8590  204.0110  148.6740 C   0  0  0  0  0  2  0  0  0  0  0  0
  161.8610  206.7140  149.2760 C   0  0  2  0  0  3  0  0  0  0  0  0
  160.9200  207.8410  151.8230 C   0  0  1  0  0  3  0  0  0  0  0  0
  160.5160  206.5820  155.0660 O   0  0  0  0  0  0  0  0  0  0  0  0
  160.9130  208.0700  153.2670 N   0  0  0  0  0  0  0  0  0  0  0  0
  160.4280  210.9080  155.6110 C   0  0  0  0  0  2  0  0  0  0  0  0
  163.0830  210.3100  153.2540 C   0  0  0  0  0  1  0  0  0  0  0  0
  161.2360  204.4230  150.0910 C   0  0  0  0  0  2  0  0  0  0  0  0
  160.9810  205.9160  150.2650 C   0  0  1  0  0  3  0  0  0  0  0  0
  161.8480  210.7230  152.4560 C   0  0  2  0  0  3  0  0  0  0  0  0
  160.8310  210.4330  147.8010 C   0  0  0  0  0  2  0  0  0  0  0  0
  159.6610  212.5800  147.4270 C   0  0  0  0  0  1  0  0  0  0  0  0
  160.8360  211.7250  147.0070 C   0  0  0  0  0  2  0  0  0  0  0  0
  1  5  1  6  0  0  0
  1  4  1  0  0  0  0
  2 16  1  6  0  0  0
  2 19  1  0  0  0  0
  3 10  1  0  0  0  0
  4 12  1  6  0  0  0
  4 20  1  0  0  0  0
  7  9  1  0  0  0  0
  7 15  1  1  0  0  0
  8  6  2  0  0  0  0
  8 12  1  0  0  0  0
  9 14  1  1  0  0  0
 10 21  2  0  0  0  0
 11 28  1  1  0  0  0
 11  5  1  0  0  0  0
 11  8  1  0  0  0  0
 12 27  1  0  0  0  0
 13  2  1  0  0  0  0
 13 18  1  0  0  0  0
 14 23  1  0  0  0  0
 15 23  1  0  0  0  0
 17 20  1  0  0  0  0
 17  3  1  1  0  0  0
 18 25  1  0  0  0  0
 19  1  1  0  0  0  0
 19 26  1  0  0  0  0
 20 22  1  0  0  0  0
 22 10  1  0  0  0  0
 22  9  1  0  0  0  0
 25 26  1  0  0  0  0
 26 17  1  0  0  0  0
 27  7  1  0  0  0  0
 27 24  1  0  0  0  0
 30 29  1  0  0  0  0
 30 28  1  0  0  0  0
M  END
>  <MODEL>
4

>  <REMARK>
 VINA RESULT:      -5.2      1.685      2.648
  Name = 
  2 active torsions:
  status: ('A' for Active; 'I' for Inactive)
    1  A    between atoms: C_11  and  C_28
    2  A    between atoms: C_28  and  C_30
                            x       y       z     vdW  Elec       q    Type
                         _______ _______ _______ _____ _____    ______ ____

>  <TORSDO>
F 2

$$$$
=
 OpenBabel11122412333D

 30 35  0  0  1  0  0  0  0  0999 V2000
  160.1910  212.0870  151.8560 C   0  0  1  0  0  3  0  0  0  0  0  0
  160.3110  213.1780  149.5320 C   0  0  2  0  0  3  0  0  0  0  0  0
  162.2920  208.5610  150.4830 C   0  0  0  0  0  2  0  0  0  0  0  0
  160.8060  211.0320  152.8100 C   0  0  1  0  0  3  0  0  0  0  0  0
  160.0810  213.3190  152.5310 O   0  0  0  0  0  0  0  0  0  0  0  0
  158.5630  212.0900  155.5080 O   0  0  0  0  0  0  0  0  0  0  0  0
  159.7370  208.6020  154.6900 C   0  0  1  0  0  3  0  0  0  0  0  0
  159.1790  212.0780  154.4080 C   0  0  0  0  0  0  0  0  0  0  0  0
  160.5760  207.7730  153.7190 C   0  0  2  0  0  3  0  0  0  0  0  0
  162.1610  207.8500  151.7760 C   0  0  0  0  0  0  0  0  0  0  0  0
  159.0110  213.2300  153.4550 C   0  0  2  0  0  3  0  0  0  0  0  0
  160.0210  210.9670  154.0510 N   0  0  0  0  0  0  0  0  0  0  0  0
  161.1540  213.2940  148.2610 C   0  0  0  0  0  2  0  0  0  0  0  0
  161.4360  206.8870  154.5960 C   0  0  0  0  0  2  0  0  0  0  0  0
  159.5940  207.7430  155.9370 C   0  0  0  0  0  2  0  0  0  0  0  0
  160.1610  214.4530  150.0780 O   0  0  0  0  0  1  0  0  0  0  0  0
  161.8360  209.9380  150.9050 C   0  0  2  0  0  3  0  0  0  0  0  0
  161.4010  211.9230  147.6360 C   0  0  0  0  0  2  0  0  0  0  0  0
  160.9910  212.2330  150.5370 C   0  0  2  0  0  3  0  0  0  0  0  0
  160.8520  209.7100  152.0400 C   0  0  1  0  0  3  0  0  0  0  0  0
  162.6550  206.7090  151.9750 O   0  0  0  0  0  0  0  0  0  0  0  0
  161.3690  208.5400  152.7480 N   0  0  0  0  0  0  0  0  0  0  0  0
  160.5810  206.5930  155.8100 C   0  0  0  0  0  2  0  0  0  0  0  0
  161.7790  209.9730  155.4880 C   0  0  0  0  0  1  0  0  0  0  0  0
  162.0910  211.0080  148.6400 C   0  0  0  0  0  2  0  0  0  0  0  0
  161.2050  210.8540  149.8710 C   0  0  1  0  0  3  0  0  0  0  0  0
  160.3090  209.9680  155.0740 C   0  0  2  0  0  3  0  0  0  0  0  0
  157.6490  213.1910  152.7660 C   0  0  0  0  0  2  0  0  0  0  0  0
  155.6470  213.5580  154.1720 C   0  0  0  0  0  1  0  0  0  0  0  0
  156.7290  214.2390  153.3630 C   0  0  0  0  0  2  0  0  0  0  0  0
  1  5  1  1  0  0  0
  1  4  1  0  0  0  0
  2 16  1  1  0  0  0
  2 19  1  0  0  0  0
  3 10  1  0  0  0  0
  4 12  1  1  0  0  0
  5 11  1  0  0  0  0
  7 27  1  0  0  0  0
  7 15  1  1  0  0  0
  8  6  2  0  0  0  0
  9 14  1  1  0  0  0
  9  7  1  0  0  0  0
 10 21  2  0  0  0  0
 10 22  1  0  0  0  0
 11 28  1  6  0  0  0
 11  8  1  0  0  0  0
 12  8  1  0  0  0  0
 12 27  1  0  0  0  0
 13  2  1  0  0  0  0
 14 23  1  0  0  0  0
 17  3  1  6  0  0  0
 17 20  1  0  0  0  0
 18 13  1  0  0  0  0
 18 25  1  0  0  0  0
 19  1  1  0  0  0  0
 20 22  1  0  0  0  0
 20  4  1  0  0  0  0
 22  9  1  0  0  0  0
 23 15  1  0  0  0  0
 25 26  1  0  0  0  0
 26 19  1  0  0  0  0
 26 17  1  0  0  0  0
 27 24  1  0  0  0  0
 28 30  1  0  0  0  0
 30 29  1  0  0  0  0
M  END
>  <MODEL>
5

>  <REMARK>
 VINA RESULT:      -4.8      3.425      7.144
  Name = 
  2 active torsions:
  status: ('A' for Active; 'I' for Inactive)
    1  A    between atoms: C_11  and  C_28
    2  A    between atoms: C_28  and  C_30
                            x       y       z     vdW  Elec       q    Type
                         _______ _______ _______ _____ _____    ______ ____

>  <TORSDO>
F 2

$$$$
