=
 OpenBabel11122414403D

 34 42  0  0  1  0  0  0  0  0999 V2000
  161.2040  205.0590  151.2580 C   0  0  2  0  0  3  0  0  0  0  0  0
  161.0930  206.3080  153.4260 C   0  0  0  0  0  2  0  0  0  0  0  0
  160.8650  204.1970  144.5980 C   0  0  2  0  0  3  0  0  0  0  0  0
  161.5860  203.9750  149.0800 C   0  0  1  0  0  3  0  0  0  0  0  0
  160.8600  205.2970  146.9300 C   0  0  2  0  0  3  0  0  0  0  0  0
  160.5830  206.5520  144.9090 O   0  0  0  0  0  1  0  0  0  0  0  0
  159.6840  203.3880  145.1140 C   0  0  0  0  0  2  0  0  0  0  0  0
  161.5060  202.7700  146.7520 C   0  0  1  0  0  3  0  0  0  0  0  0
  160.4280  207.4950  151.4040 C   0  0  2  0  0  3  0  0  0  0  0  0
  162.1250  210.2030  151.0520 C   0  0  0  0  0  2  0  0  0  0  0  0
  161.3290  206.4970  147.7450 C   0  0  0  0  0  2  0  0  0  0  0  0
  162.6270  203.6020  146.9540 O   0  0  0  0  0  0  0  0  0  0  0  0
  161.1830  207.5540  150.0600 C   0  0  1  0  0  3  0  0  0  0  0  0
  160.8550  207.7590  153.7790 C   0  0  0  0  0  2  0  0  0  0  0  0
  161.4240  204.0210  147.5560 C   0  0  2  0  0  0  0  0  0  0  0  0
  161.0930  202.8330  145.2640 C   0  0  2  0  0  3  0  0  0  0  0  0
  162.2310  209.1980  152.2000 C   0  0  2  0  0  3  0  0  0  0  0  0
  160.7370  205.0360  149.8020 C   0  0  2  0  0  3  0  0  0  0  0  0
  161.2130  205.4300  145.4500 C   0  0  2  0  0  3  0  0  0  0  0  0
  160.6870  206.4390  149.1350 C   0  0  2  0  0  3  0  0  0  0  0  0
  161.8150  202.6690  150.9170 C   0  0  0  0  0  2  0  0  0  0  0  0
  162.1740  209.5040  149.7000 C   0  0  0  0  0  2  0  0  0  0  0  0
  161.2820  202.7050  149.6110 O   0  0  0  0  0  0  0  0  0  0  0  0
  160.9850  208.8060  149.4690 O   0  0  0  0  0  0  0  0  0  0  0  0
  160.8640  208.5270  152.4630 C   0  0  1  0  0  3  0  0  0  0  0  0
  161.0760  203.6510  151.8400 C   0  0  0  0  0  2  0  0  0  0  0  0
  160.4450  206.1080  152.0730 C   0  0  1  0  0  3  0  0  0  0  0  0
  162.7230  209.9450  153.4340 C   0  0  0  0  0  2  0  0  0  0  0  0
  161.6980  210.9880  153.8670 C   0  0  0  0  0  2  0  0  0  0  0  0
  161.4830  209.5140  157.2610 C   0  0  0  0  0  2  0  0  0  0  0  0
  160.0380  210.7650  155.7650 C   0  0  0  0  0  2  0  0  0  0  0  0
  161.4880  211.0100  155.3800 C   0  0  0  0  0  3  0  0  0  0  0  0
  160.0470  209.6580  156.8050 C   0  0  0  0  0  2  0  0  0  0  0  0
  162.3230  209.9600  156.0880 C   0  0  0  0  0  2  0  0  0  0  0  0
  1 26  1  1  0  0  0
  1 27  1  0  0  0  0
  2 14  1  0  0  0  0
  3  7  1  1  0  0  0
  3 16  1  0  0  0  0
  3 19  1  0  0  0  0
  4 23  1  1  0  0  0
  4 18  1  0  0  0  0
  5 15  1  0  0  0  0
  5 11  1  1  0  0  0
  6 19  1  0  0  0  0
  7 16  1  0  0  0  0
  8 12  1  6  0  0  0
  8 15  1  0  0  0  0
  9 27  1  0  0  0  0
  9 25  1  0  0  0  0
 10 17  1  0  0  0  0
 11 20  1  0  0  0  0
 12 15  1  0  0  0  0
 13  9  1  0  0  0  0
 15  4  1  0  0  0  0
 16  8  1  0  0  0  0
 17 25  1  0  0  0  0
 17 28  1  0  0  0  0
 18  1  1  0  0  0  0
 19  5  1  0  0  0  0
 20 18  1  0  0  0  0
 20 13  1  0  0  0  0
 21 26  1  0  0  0  0
 22 10  1  0  0  0  0
 23 21  1  0  0  0  0
 24 22  1  0  0  0  0
 24 13  1  0  0  0  0
 25 14  1  0  0  0  0
 27  2  1  0  0  0  0
 28 29  1  0  0  0  0
 29 32  1  0  0  0  0
 31 33  1  0  0  0  0
 32 31  1  0  0  0  0
 32 34  1  0  0  0  0
 33 30  1  0  0  0  0
 34 30  1  0  0  0  0
M  END
>  <MODEL>
1

>  <REMARK>
 VINA RESULT:      -7.0      0.000      0.000
  Name = 
  3 active torsions:
  status: ('A' for Active; 'I' for Inactive)
    1  A    between atoms: C_17  and  C_28
    2  A    between atoms: C_28  and  C_29
    3  A    between atoms: C_29  and  C_32
                            x       y       z     vdW  Elec       q    Type
                         _______ _______ _______ _____ _____    ______ ____

>  <TORSDO>
F 3

$$$$
=
 OpenBabel11122414403D

 34 42  0  0  1  0  0  0  0  0999 V2000
  161.4470  207.3110  148.6310 C   0  0  2  0  0  3  0  0  0  0  0  0
  161.8150  209.7440  149.0990 C   0  0  0  0  0  2  0  0  0  0  0  0
  161.1870  200.7280  149.9790 C   0  0  2  0  0  3  0  0  0  0  0  0
  160.8200  204.9480  148.3310 C   0  0  1  0  0  3  0  0  0  0  0  0
  161.4540  203.2780  150.2560 C   0  0  2  0  0  3  0  0  0  0  0  0
  161.6480  201.7520  152.0910 O   0  0  0  0  0  1  0  0  0  0  0  0
  162.3520  200.8380  149.0040 C   0  0  0  0  0  2  0  0  0  0  0  0
  160.6320  202.3600  147.9500 C   0  0  1  0  0  3  0  0  0  0  0  0
  162.3900  208.1560  150.8560 C   0  0  2  0  0  3  0  0  0  0  0  0
  160.8520  208.8630  153.5890 C   0  0  0  0  0  2  0  0  0  0  0  0
  161.1320  204.4770  151.1400 C   0  0  0  0  0  2  0  0  0  0  0  0
  159.5870  202.9280  148.7100 O   0  0  0  0  0  0  0  0  0  0  0  0
  161.5340  206.9830  151.3780 C   0  0  1  0  0  3  0  0  0  0  0  0
  162.1760  210.5200  150.3450 C   0  0  0  0  0  2  0  0  0  0  0  0
  160.8600  203.5120  148.8660 C   0  0  2  0  0  0  0  0  0  0  0  0
  160.9260  200.9380  148.4810 C   0  0  2  0  0  3  0  0  0  0  0  0
  160.7730  209.6310  152.2690 C   0  0  2  0  0  3  0  0  0  0  0  0
  161.7930  205.8860  149.0680 C   0  0  2  0  0  3  0  0  0  0  0  0
  160.9920  201.9620  150.8770 C   0  0  2  0  0  3  0  0  0  0  0  0
  161.8790  205.7050  150.6090 C   0  0  2  0  0  3  0  0  0  0  0  0
  160.6550  206.2810  146.5060 C   0  0  0  0  0  2  0  0  0  0  0  0
  160.6470  207.3700  153.3720 C   0  0  0  0  0  2  0  0  0  0  0  0
  161.0820  205.0100  146.9480 O   0  0  0  0  0  0  0  0  0  0  0  0
  161.7650  206.8110  152.7460 O   0  0  0  0  0  0  0  0  0  0  0  0
  162.1110  209.5290  151.5000 C   0  0  1  0  0  3  0  0  0  0  0  0
  161.5300  207.3930  147.1060 C   0  0  0  0  0  2  0  0  0  0  0  0
  162.3380  208.3420  149.3290 C   0  0  1  0  0  3  0  0  0  0  0  0
  160.4330  211.0810  152.5890 C   0  0  0  0  0  2  0  0  0  0  0  0
  158.9590  211.2110  152.9580 C   0  0  0  0  0  2  0  0  0  0  0  0
  159.9180  212.1240  156.4190 C   0  0  0  0  0  2  0  0  0  0  0  0
  158.1620  210.8480  155.3330 C   0  0  0  0  0  2  0  0  0  0  0  0
  158.7530  211.8340  154.3370 C   0  0  0  0  0  3  0  0  0  0  0  0
  159.0490  210.8940  156.5650 C   0  0  0  0  0  2  0  0  0  0  0  0
  160.0510  212.3470  154.9310 C   0  0  0  0  0  2  0  0  0  0  0  0
  1 26  1  6  0  0  0
  1 18  1  0  0  0  0
  1 27  1  0  0  0  0
  2 27  1  0  0  0  0
  2 14  1  0  0  0  0
  3  7  1  6  0  0  0
  3 19  1  0  0  0  0
  4 23  1  6  0  0  0
  4 15  1  0  0  0  0
  4 18  1  0  0  0  0
  5 19  1  0  0  0  0
  5 11  1  1  0  0  0
  8 16  1  0  0  0  0
  8 12  1  1  0  0  0
  8 15  1  0  0  0  0
  9 13  1  0  0  0  0
  9 25  1  0  0  0  0
 12 15  1  0  0  0  0
 13 24  1  0  0  0  0
 14 25  1  0  0  0  0
 15  5  1  0  0  0  0
 16  7  1  0  0  0  0
 16  3  1  0  0  0  0
 17 28  1  0  0  0  0
 17 10  1  0  0  0  0
 18 20  1  0  0  0  0
 19  6  1  0  0  0  0
 20 11  1  0  0  0  0
 20 13  1  0  0  0  0
 21 23  1  0  0  0  0
 21 26  1  0  0  0  0
 22 10  1  0  0  0  0
 24 22  1  0  0  0  0
 25 17  1  0  0  0  0
 27  9  1  0  0  0  0
 28 29  1  0  0  0  0
 29 32  1  0  0  0  0
 30 33  1  0  0  0  0
 31 33  1  0  0  0  0
 32 34  1  0  0  0  0
 32 31  1  0  0  0  0
 34 30  1  0  0  0  0
M  END
>  <MODEL>
2

>  <REMARK>
 VINA RESULT:      -7.0      1.848      3.959
  Name = 
  3 active torsions:
  status: ('A' for Active; 'I' for Inactive)
    1  A    between atoms: C_17  and  C_28
    2  A    between atoms: C_28  and  C_29
    3  A    between atoms: C_29  and  C_32
                            x       y       z     vdW  Elec       q    Type
                         _______ _______ _______ _____ _____    ______ ____

>  <TORSDO>
F 3

$$$$
=
 OpenBabel11122414403D

 34 42  0  0  1  0  0  0  0  0999 V2000
  161.7390  209.4200  151.3000 C   0  0  2  0  0  3  0  0  0  0  0  0
  161.9350  210.9000  153.3110 C   0  0  0  0  0  2  0  0  0  0  0  0
  161.2680  203.6330  147.9070 C   0  0  2  0  0  3  0  0  0  0  0  0
  161.2480  207.9240  149.4060 C   0  0  1  0  0  3  0  0  0  0  0  0
  161.4110  205.3390  149.8370 C   0  0  2  0  0  3  0  0  0  0  0  0
  161.1690  202.9850  150.2080 O   0  0  0  0  0  1  0  0  0  0  0  0
  162.6360  204.1640  147.5030 C   0  0  0  0  0  2  0  0  0  0  0  0
  161.2070  206.2440  147.3920 C   0  0  1  0  0  3  0  0  0  0  0  0
  162.0820  208.4920  153.6620 C   0  0  2  0  0  3  0  0  0  0  0  0
  159.8980  207.5100  155.8070 C   0  0  0  0  0  2  0  0  0  0  0  0
  160.8580  205.7260  151.2020 C   0  0  0  0  0  2  0  0  0  0  0  0
  159.9960  206.3450  148.1100 O   0  0  0  0  0  0  0  0  0  0  0  0
  161.1440  207.4040  153.1010 C   0  0  1  0  0  3  0  0  0  0  0  0
  161.9600  210.6340  154.8000 C   0  0  0  0  0  2  0  0  0  0  0  0
  161.1790  206.4930  148.8610 C   0  0  2  0  0  0  0  0  0  0  0  0
  161.3850  204.7880  146.9040 C   0  0  2  0  0  3  0  0  0  0  0  0
  160.1370  208.9450  155.3360 C   0  0  2  0  0  3  0  0  0  0  0  0
  161.9890  208.0140  150.7520 C   0  0  2  0  0  3  0  0  0  0  0  0
  160.8320  204.0190  149.3320 C   0  0  2  0  0  3  0  0  0  0  0  0
  161.6920  206.8790  151.7710 C   0  0  2  0  0  3  0  0  0  0  0  0
  161.5200  210.1200  148.9200 C   0  0  0  0  0  2  0  0  0  0  0  0
  159.7810  206.5540  154.6290 C   0  0  0  0  0  2  0  0  0  0  0  0
  161.8450  208.8150  148.4920 O   0  0  0  0  0  0  0  0  0  0  0  0
  161.0290  206.3640  154.0290 O   0  0  0  0  0  0  0  0  0  0  0  0
  161.6260  209.1580  154.9760 C   0  0  1  0  0  3  0  0  0  0  0  0
  162.1970  210.4440  150.2610 C   0  0  0  0  0  2  0  0  0  0  0  0
  162.4080  209.6170  152.6620 C   0  0  1  0  0  3  0  0  0  0  0  0
  159.7020  209.8860  156.4520 C   0  0  0  0  0  2  0  0  0  0  0  0
  158.4360  210.6350  156.0520 C   0  0  0  0  0  2  0  0  0  0  0  0
  158.5600  213.9110  154.3230 C   0  0  0  0  0  2  0  0  0  0  0  0
  157.3870  211.8020  154.0650 C   0  0  0  0  0  2  0  0  0  0  0  0
  158.6590  211.5720  154.8660 C   0  0  0  0  0  3  0  0  0  0  0  0
  157.2320  213.3060  153.9210 C   0  0  0  0  0  2  0  0  0  0  0  0
  159.1660  212.9330  155.3020 C   0  0  0  0  0  2  0  0  0  0  0  0
  1 26  1  6  0  0  0
  1 27  1  0  0  0  0
  2 14  1  0  0  0  0
  3  7  1  1  0  0  0
  3 19  1  0  0  0  0
  4 23  1  6  0  0  0
  4 18  1  0  0  0  0
  5 11  1  1  0  0  0
  8 12  1  1  0  0  0
  8 15  1  0  0  0  0
  9 25  1  0  0  0  0
 11 20  1  0  0  0  0
 12 15  1  0  0  0  0
 13  9  1  0  0  0  0
 13 24  1  0  0  0  0
 14 25  1  0  0  0  0
 15  4  1  0  0  0  0
 15  5  1  0  0  0  0
 16  8  1  0  0  0  0
 16  7  1  0  0  0  0
 16  3  1  0  0  0  0
 17 10  1  0  0  0  0
 17 28  1  0  0  0  0
 18  1  1  0  0  0  0
 18 20  1  0  0  0  0
 19  5  1  0  0  0  0
 19  6  1  0  0  0  0
 20 13  1  0  0  0  0
 21 26  1  0  0  0  0
 22 10  1  0  0  0  0
 23 21  1  0  0  0  0
 24 22  1  0  0  0  0
 25 17  1  0  0  0  0
 27  2  1  0  0  0  0
 27  9  1  0  0  0  0
 29 28  1  0  0  0  0
 30 34  1  0  0  0  0
 31 32  1  0  0  0  0
 32 34  1  0  0  0  0
 32 29  1  0  0  0  0
 33 31  1  0  0  0  0
 33 30  1  0  0  0  0
M  END
>  <MODEL>
3

>  <REMARK>
 VINA RESULT:      -6.9      1.893      4.471
  Name = 
  3 active torsions:
  status: ('A' for Active; 'I' for Inactive)
    1  A    between atoms: C_17  and  C_28
    2  A    between atoms: C_28  and  C_29
    3  A    between atoms: C_29  and  C_32
                            x       y       z     vdW  Elec       q    Type
                         _______ _______ _______ _____ _____    ______ ____

>  <TORSDO>
F 3

$$$$
=
 OpenBabel11122414403D

 34 42  0  0  1  0  0  0  0  0999 V2000
  160.5560  207.1600  154.1160 C   0  0  2  0  0  3  0  0  0  0  0  0
  161.5870  205.0920  153.1510 C   0  0  0  0  0  2  0  0  0  0  0  0
  159.0160  213.6950  154.5070 C   0  0  2  0  0  3  0  0  0  0  0  0
  159.3310  209.1720  154.8370 C   0  0  1  0  0  3  0  0  0  0  0  0
  159.9390  211.4400  153.6600 C   0  0  2  0  0  3  0  0  0  0  0  0
  160.1460  213.4730  152.4100 O   0  0  0  0  0  1  0  0  0  0  0  0
  159.9390  213.4820  155.6990 C   0  0  0  0  0  2  0  0  0  0  0  0
  158.4510  211.4430  155.8100 C   0  0  1  0  0  3  0  0  0  0  0  0
  162.1230  207.2210  152.0930 C   0  0  2  0  0  3  0  0  0  0  0  0
  161.4150  207.1550  148.9580 C   0  0  0  0  0  2  0  0  0  0  0  0
  160.1090  210.5410  152.4430 C   0  0  0  0  0  2  0  0  0  0  0  0
  157.7590  210.9740  154.6740 O   0  0  0  0  0  0  0  0  0  0  0  0
  161.1420  208.3380  151.6810 C   0  0  1  0  0  3  0  0  0  0  0  0
  162.3790  204.8150  151.8930 C   0  0  0  0  0  2  0  0  0  0  0  0
  159.1380  210.6890  154.7250 C   0  0  2  0  0  0  0  0  0  0  0  0
  158.5010  212.9880  155.7690 C   0  0  2  0  0  3  0  0  0  0  0  0
  161.2450  206.0120  149.9600 C   0  0  2  0  0  3  0  0  0  0  0  0
  160.6330  208.6870  154.1760 C   0  0  2  0  0  3  0  0  0  0  0  0
  159.3170  212.7880  153.3010 C   0  0  2  0  0  3  0  0  0  0  0  0
  160.9990  209.3520  152.8200 C   0  0  2  0  0  3  0  0  0  0  0  0
  159.1070  207.3300  156.1360 C   0  0  0  0  0  2  0  0  0  0  0  0
  160.8170  208.4500  149.4910 C   0  0  0  0  0  2  0  0  0  0  0  0
  159.3000  208.7280  156.1730 O   0  0  0  0  0  0  0  0  0  0  0  0
  161.6090  208.9640  150.5220 O   0  0  0  0  0  0  0  0  0  0  0  0
  162.3250  206.0910  151.0630 C   0  0  1  0  0  3  0  0  0  0  0  0
  160.3300  206.6220  155.5300 C   0  0  0  0  0  2  0  0  0  0  0  0
  161.7940  206.5630  153.4450 C   0  0  1  0  0  3  0  0  0  0  0  0
  161.3380  204.6980  149.1940 C   0  0  0  0  0  2  0  0  0  0  0  0
  161.5860  204.9630  147.7120 C   0  0  0  0  0  2  0  0  0  0  0  0
  160.7870  202.3010  145.2610 C   0  0  0  0  0  2  0  0  0  0  0  0
  161.2980  202.4500  147.6290 C   0  0  0  0  0  2  0  0  0  0  0  0
  161.8410  203.6820  146.9220 C   0  0  0  0  0  3  0  0  0  0  0  0
  160.4540  201.7030  146.6110 C   0  0  0  0  0  2  0  0  0  0  0  0
  161.2060  203.7240  145.5450 C   0  0  0  0  0  2  0  0  0  0  0  0
  1 18  1  0  0  0  0
  1 26  1  1  0  0  0
  2 27  1  0  0  0  0
  3  7  1  1  0  0  0
  3 16  1  0  0  0  0
  4 23  1  1  0  0  0
  5 11  1  6  0  0  0
  5 15  1  0  0  0  0
  6 19  1  0  0  0  0
  7 16  1  0  0  0  0
  8 12  1  6  0  0  0
  9 27  1  0  0  0  0
 10 22  1  0  0  0  0
 10 17  1  0  0  0  0
 11 20  1  0  0  0  0
 12 15  1  0  0  0  0
 13  9  1  0  0  0  0
 13 20  1  0  0  0  0
 14  2  1  0  0  0  0
 15  4  1  0  0  0  0
 15  8  1  0  0  0  0
 16  8  1  0  0  0  0
 17 25  1  0  0  0  0
 18  4  1  0  0  0  0
 19  5  1  0  0  0  0
 19  3  1  0  0  0  0
 20 18  1  0  0  0  0
 21 23  1  0  0  0  0
 22 24  1  0  0  0  0
 24 13  1  0  0  0  0
 25 14  1  0  0  0  0
 25  9  1  0  0  0  0
 26 21  1  0  0  0  0
 27  1  1  0  0  0  0
 28 17  1  0  0  0  0
 29 28  1  0  0  0  0
 30 34  1  0  0  0  0
 30 33  1  0  0  0  0
 32 31  1  0  0  0  0
 32 29  1  0  0  0  0
 33 31  1  0  0  0  0
 34 32  1  0  0  0  0
M  END
>  <MODEL>
4

>  <REMARK>
 VINA RESULT:      -6.7      2.481      8.820
  Name = 
  3 active torsions:
  status: ('A' for Active; 'I' for Inactive)
    1  A    between atoms: C_17  and  C_28
    2  A    between atoms: C_28  and  C_29
    3  A    between atoms: C_29  and  C_32
                            x       y       z     vdW  Elec       q    Type
                         _______ _______ _______ _____ _____    ______ ____

>  <TORSDO>
F 3

$$$$
=
 OpenBabel11122414403D

 34 42  0  0  1  0  0  0  0  0999 V2000
  161.5100  207.0560  148.9960 C   0  0  2  0  0  3  0  0  0  0  0  0
  161.8720  209.3450  149.9450 C   0  0  0  0  0  2  0  0  0  0  0  0
  161.1280  200.3420  149.0250 C   0  0  2  0  0  3  0  0  0  0  0  0
  160.8800  204.8070  148.2120 C   0  0  1  0  0  3  0  0  0  0  0  0
  161.3990  202.7850  149.8050 C   0  0  2  0  0  3  0  0  0  0  0  0
  161.4850  200.9290  151.3170 O   0  0  0  0  0  1  0  0  0  0  0  0
  162.3420  200.6180  148.1500 C   0  0  0  0  0  2  0  0  0  0  0  0
  160.6920  202.3450  147.3270 C   0  0  1  0  0  3  0  0  0  0  0  0
  162.3420  207.4370  151.3860 C   0  0  2  0  0  3  0  0  0  0  0  0
  160.6680  207.6290  154.1250 C   0  0  0  0  0  2  0  0  0  0  0  0
  161.0420  203.7960  150.8880 C   0  0  0  0  0  2  0  0  0  0  0  0
  159.6140  202.7740  148.1300 O   0  0  0  0  0  0  0  0  0  0  0  0
  161.4500  206.2010  151.6270 C   0  0  1  0  0  3  0  0  0  0  0  0
  162.1730  209.8580  151.3350 C   0  0  0  0  0  2  0  0  0  0  0  0
  160.8810  203.2940  148.4600 C   0  0  2  0  0  0  0  0  0  0  0  0
  160.9470  200.8420  147.5860 C   0  0  2  0  0  3  0  0  0  0  0  0
  160.6650  208.6390  152.9770 C   0  0  2  0  0  3  0  0  0  0  0  0
  161.8200  205.5670  149.1640 C   0  0  2  0  0  3  0  0  0  0  0  0
  160.8950  201.3820  150.1360 C   0  0  2  0  0  3  0  0  0  0  0  0
  161.8250  205.0890  150.6430 C   0  0  2  0  0  3  0  0  0  0  0  0
  160.8220  206.4700  146.6740 C   0  0  0  0  0  2  0  0  0  0  0  0
  160.4630  206.2100  153.6120 C   0  0  0  0  0  2  0  0  0  0  0  0
  161.2150  205.1300  146.8820 O   0  0  0  0  0  0  0  0  0  0  0  0
  161.6080  205.7630  152.9460 O   0  0  0  0  0  0  0  0  0  0  0  0
  162.0400  208.6640  152.2710 C   0  0  1  0  0  3  0  0  0  0  0  0
  161.6730  207.4290  147.5220 C   0  0  0  0  0  2  0  0  0  0  0  0
  162.3700  207.9150  149.9240 C   0  0  1  0  0  3  0  0  0  0  0  0
  160.3190  210.0060  153.5540 C   0  0  0  0  0  2  0  0  0  0  0  0
  159.7710  209.8610  154.9700 C   0  0  0  0  0  2  0  0  0  0  0  0
  163.0400  210.7120  156.4960 C   0  0  0  0  0  2  0  0  0  0  0  0
  161.0440  209.4840  157.1260 C   0  0  0  0  0  2  0  0  0  0  0  0
  160.6960  210.4710  156.0220 C   0  0  0  0  0  3  0  0  0  0  0  0
  162.5570  209.4970  157.2570 C   0  0  0  0  0  2  0  0  0  0  0  0
  162.0040  210.9510  155.4220 C   0  0  0  0  0  2  0  0  0  0  0  0
  1 26  1  6  0  0  0
  1 18  1  0  0  0  0
  1 27  1  0  0  0  0
  2 14  1  0  0  0  0
  3  7  1  6  0  0  0
  3 19  1  0  0  0  0
  4 23  1  6  0  0  0
  4 15  1  0  0  0  0
  4 18  1  0  0  0  0
  5 19  1  0  0  0  0
  5 11  1  1  0  0  0
  8 16  1  0  0  0  0
  8 12  1  1  0  0  0
  8 15  1  0  0  0  0
  9 13  1  0  0  0  0
  9 25  1  0  0  0  0
 12 15  1  0  0  0  0
 13 24  1  0  0  0  0
 14 25  1  0  0  0  0
 15  5  1  0  0  0  0
 16  7  1  0  0  0  0
 16  3  1  0  0  0  0
 17 28  1  0  0  0  0
 17 10  1  0  0  0  0
 18 20  1  0  0  0  0
 19  6  1  0  0  0  0
 20 11  1  0  0  0  0
 20 13  1  0  0  0  0
 21 23  1  0  0  0  0
 21 26  1  0  0  0  0
 22 10  1  0  0  0  0
 24 22  1  0  0  0  0
 25 17  1  0  0  0  0
 27  2  1  0  0  0  0
 27  9  1  0  0  0  0
 28 29  1  0  0  0  0
 29 32  1  0  0  0  0
 30 33  1  0  0  0  0
 31 33  1  0  0  0  0
 32 31  1  0  0  0  0
 34 32  1  0  0  0  0
 34 30  1  0  0  0  0
M  END
>  <MODEL>
5

>  <REMARK>
 VINA RESULT:      -6.5      1.615      3.766
  Name = 
  3 active torsions:
  status: ('A' for Active; 'I' for Inactive)
    1  A    between atoms: C_17  and  C_28
    2  A    between atoms: C_28  and  C_29
    3  A    between atoms: C_29  and  C_32
                            x       y       z     vdW  Elec       q    Type
                         _______ _______ _______ _____ _____    ______ ____

>  <TORSDO>
F 3

$$$$
=
 OpenBabel11122414403D

 34 42  0  0  1  0  0  0  0  0999 V2000
  161.1290  204.2860  151.3420 C   0  0  2  0  0  3  0  0  0  0  0  0
  161.0630  205.8530  153.2940 C   0  0  0  0  0  2  0  0  0  0  0  0
  160.6520  202.4110  144.9010 C   0  0  2  0  0  3  0  0  0  0  0  0
  161.4660  202.8780  149.3490 C   0  0  1  0  0  3  0  0  0  0  0  0
  160.6960  203.8570  147.0370 C   0  0  2  0  0  3  0  0  0  0  0  0
  160.3770  204.7870  144.8530 O   0  0  0  0  0  1  0  0  0  0  0  0
  159.4810  201.6950  145.5600 C   0  0  0  0  0  2  0  0  0  0  0  0
  161.3370  201.3300  147.2360 C   0  0  1  0  0  3  0  0  0  0  0  0
  160.3570  206.7170  151.1270 C   0  0  2  0  0  3  0  0  0  0  0  0
  162.0460  209.3330  150.3290 C   0  0  0  0  0  2  0  0  0  0  0  0
  161.1810  205.1660  147.6470 C   0  0  0  0  0  2  0  0  0  0  0  0
  162.4620  202.1790  147.2840 O   0  0  0  0  0  0  0  0  0  0  0  0
  161.0840  206.5670  149.7750 C   0  0  1  0  0  3  0  0  0  0  0  0
  160.8320  207.3420  153.4240 C   0  0  0  0  0  2  0  0  0  0  0  0
  161.2720  202.6900  147.8400 C   0  0  2  0  0  0  0  0  0  0  0  0
  160.8930  201.1650  145.7640 C   0  0  2  0  0  3  0  0  0  0  0  0
  162.1760  208.5170  151.6150 C   0  0  2  0  0  3  0  0  0  0  0  0
  160.6320  204.0400  149.9160 C   0  0  2  0  0  3  0  0  0  0  0  0
  161.0170  203.7600  145.5470 C   0  0  2  0  0  3  0  0  0  0  0  0
  160.5690  205.3240  149.0420 C   0  0  2  0  0  3  0  0  0  0  0  0
  161.7330  201.8690  151.3590 C   0  0  0  0  0  2  0  0  0  0  0  0
  162.0670  208.4350  149.1000 C   0  0  0  0  0  2  0  0  0  0  0  0
  161.1730  201.7060  150.0740 O   0  0  0  0  0  0  0  0  0  0  0  0
  160.8730  207.7130  149.0030 O   0  0  0  0  0  0  0  0  0  0  0  0
  160.8140  207.8980  152.0060 C   0  0  1  0  0  3  0  0  0  0  0  0
  161.0130  202.9840  152.1350 C   0  0  0  0  0  2  0  0  0  0  0  0
  160.3870  205.4500  152.0010 C   0  0  1  0  0  3  0  0  0  0  0  0
  162.6930  209.4420  152.7090 C   0  0  0  0  0  2  0  0  0  0  0  0
  161.7460  210.6230  152.8980 C   0  0  0  0  0  2  0  0  0  0  0  0
  161.3450  209.7520  156.4780 C   0  0  0  0  0  2  0  0  0  0  0  0
  159.9740  210.6840  154.7050 C   0  0  0  0  0  2  0  0  0  0  0  0
  161.4410  210.9000  154.3690 C   0  0  0  0  0  3  0  0  0  0  0  0
  159.9380  209.7730  155.9200 C   0  0  0  0  0  2  0  0  0  0  0  0
  162.2490  210.0120  155.2960 C   0  0  0  0  0  2  0  0  0  0  0  0
  1 27  1  0  0  0  0
  1 26  1  1  0  0  0
  2 14  1  0  0  0  0
  3 19  1  0  0  0  0
  3  7  1  1  0  0  0
  3 16  1  0  0  0  0
  4 18  1  0  0  0  0
  4 23  1  1  0  0  0
  5 11  1  1  0  0  0
  5 15  1  0  0  0  0
  6 19  1  0  0  0  0
  7 16  1  0  0  0  0
  8 12  1  6  0  0  0
  8 15  1  0  0  0  0
  9 27  1  0  0  0  0
  9 25  1  0  0  0  0
 10 17  1  0  0  0  0
 11 20  1  0  0  0  0
 12 15  1  0  0  0  0
 13  9  1  0  0  0  0
 15  4  1  0  0  0  0
 16  8  1  0  0  0  0
 17 25  1  0  0  0  0
 17 28  1  0  0  0  0
 18  1  1  0  0  0  0
 19  5  1  0  0  0  0
 20 13  1  0  0  0  0
 20 18  1  0  0  0  0
 21 26  1  0  0  0  0
 22 10  1  0  0  0  0
 23 21  1  0  0  0  0
 24 22  1  0  0  0  0
 24 13  1  0  0  0  0
 25 14  1  0  0  0  0
 27  2  1  0  0  0  0
 28 29  1  0  0  0  0
 29 32  1  0  0  0  0
 31 33  1  0  0  0  0
 32 31  1  0  0  0  0
 32 34  1  0  0  0  0
 33 30  1  0  0  0  0
 34 30  1  0  0  0  0
M  END
>  <MODEL>
6

>  <REMARK>
 VINA RESULT:      -6.3      1.035      1.177
  Name = 
  3 active torsions:
  status: ('A' for Active; 'I' for Inactive)
    1  A    between atoms: C_17  and  C_28
    2  A    between atoms: C_28  and  C_29
    3  A    between atoms: C_29  and  C_32
                            x       y       z     vdW  Elec       q    Type
                         _______ _______ _______ _____ _____    ______ ____

>  <TORSDO>
F 3

$$$$
=
 OpenBabel11122414403D

 34 42  0  0  1  0  0  0  0  0999 V2000
  161.5760  208.0840  150.2380 C   0  0  2  0  0  3  0  0  0  0  0  0
  161.4270  206.6490  148.1900 C   0  0  0  0  0  2  0  0  0  0  0  0
  160.6690  209.7650  156.6860 C   0  0  2  0  0  3  0  0  0  0  0  0
  161.9450  209.3000  152.3480 C   0  0  1  0  0  3  0  0  0  0  0  0
  160.6770  208.4320  154.4780 C   0  0  2  0  0  3  0  0  0  0  0  0
  159.8720  207.5140  156.5390 O   0  0  0  0  0  1  0  0  0  0  0  0
  159.7830  210.7540  155.9400 C   0  0  0  0  0  2  0  0  0  0  0  0
  161.8800  210.7530  154.5300 C   0  0  1  0  0  3  0  0  0  0  0  0
  160.2650  205.8850  150.1920 C   0  0  2  0  0  3  0  0  0  0  0  0
  161.2150  202.9240  151.0090 C   0  0  0  0  0  2  0  0  0  0  0  0
  160.9390  207.0720  153.8430 C   0  0  0  0  0  2  0  0  0  0  0  0
  162.7870  209.6730  154.5610 O   0  0  0  0  0  0  0  0  0  0  0  0
  160.8200  205.8140  151.6290 C   0  0  1  0  0  3  0  0  0  0  0  0
  160.8930  205.2590  147.9320 C   0  0  0  0  0  2  0  0  0  0  0  0
  161.5980  209.4680  153.8320 C   0  0  2  0  0  0  0  0  0  0  0  0
  161.2910  210.9570  155.9450 C   0  0  2  0  0  3  0  0  0  0  0  0
  161.6910  203.7400  149.8070 C   0  0  2  0  0  3  0  0  0  0  0  0
  160.9590  208.3800  151.6070 C   0  0  2  0  0  3  0  0  0  0  0  0
  160.8110  208.3950  155.9990 C   0  0  2  0  0  3  0  0  0  0  0  0
  160.4990  207.1110  152.3770 C   0  0  2  0  0  3  0  0  0  0  0  0
  162.6940  210.2990  150.4580 C   0  0  0  0  0  2  0  0  0  0  0  0
  161.2690  203.7460  152.2900 C   0  0  0  0  0  2  0  0  0  0  0  0
  162.0170  210.5350  151.6740 O   0  0  0  0  0  0  0  0  0  0  0  0
  160.2620  204.7150  152.2900 O   0  0  0  0  0  0  0  0  0  0  0  0
  160.5640  204.6660  149.2960 C   0  0  1  0  0  3  0  0  0  0  0  0
  161.8560  209.4080  149.5260 C   0  0  0  0  0  2  0  0  0  0  0  0
  160.6900  207.1450  149.4160 C   0  0  1  0  0  3  0  0  0  0  0  0
  162.1340  202.7640  148.7230 C   0  0  0  0  0  2  0  0  0  0  0  0
  161.6470  201.3550  149.0460 C   0  0  0  0  0  2  0  0  0  0  0  0
  160.9770  199.9940  145.6660 C   0  0  0  0  0  2  0  0  0  0  0  0
  160.1870  201.8350  147.0350 C   0  0  0  0  0  2  0  0  0  0  0  0
  160.7840  200.7630  147.9340 C   0  0  0  0  0  3  0  0  0  0  0  0
  160.5130  201.4330  145.6070 C   0  0  0  0  0  2  0  0  0  0  0  0
  161.5700  199.8190  147.0440 C   0  0  0  0  0  2  0  0  0  0  0  0
  1 26  1  6  0  0  0
  1 18  1  0  0  0  0
  2 27  1  0  0  0  0
  3  7  1  6  0  0  0
  4 23  1  6  0  0  0
  4 15  1  0  0  0  0
  5 11  1  6  0  0  0
  5 19  1  0  0  0  0
  7 16  1  0  0  0  0
  8 12  1  1  0  0  0
  8 16  1  0  0  0  0
  9 13  1  0  0  0  0
 10 22  1  0  0  0  0
 13 24  1  0  0  0  0
 13 20  1  0  0  0  0
 14  2  1  0  0  0  0
 14 25  1  0  0  0  0
 15  5  1  0  0  0  0
 15  8  1  0  0  0  0
 15 12  1  0  0  0  0
 16  3  1  0  0  0  0
 17 10  1  0  0  0  0
 18  4  1  0  0  0  0
 18 20  1  0  0  0  0
 19  6  1  0  0  0  0
 19  3  1  0  0  0  0
 20 11  1  0  0  0  0
 21 23  1  0  0  0  0
 22 24  1  0  0  0  0
 25 17  1  0  0  0  0
 25  9  1  0  0  0  0
 26 21  1  0  0  0  0
 27  9  1  0  0  0  0
 27  1  1  0  0  0  0
 28 29  1  0  0  0  0
 28 17  1  0  0  0  0
 30 34  1  0  0  0  0
 31 32  1  0  0  0  0
 32 29  1  0  0  0  0
 33 30  1  0  0  0  0
 33 31  1  0  0  0  0
 34 32  1  0  0  0  0
M  END
>  <MODEL>
7

>  <REMARK>
 VINA RESULT:      -6.2      2.148      9.067
  Name = 
  3 active torsions:
  status: ('A' for Active; 'I' for Inactive)
    1  A    between atoms: C_17  and  C_28
    2  A    between atoms: C_28  and  C_29
    3  A    between atoms: C_29  and  C_32
                            x       y       z     vdW  Elec       q    Type
                         _______ _______ _______ _____ _____    ______ ____

>  <TORSDO>
F 3

$$$$
=
 OpenBabel11122414403D

 34 42  0  0  1  0  0  0  0  0999 V2000
  161.6360  208.4460  150.6640 C   0  0  2  0  0  3  0  0  0  0  0  0
  161.5850  207.3900  148.3930 C   0  0  0  0  0  2  0  0  0  0  0  0
  160.4280  208.9850  157.2570 C   0  0  2  0  0  3  0  0  0  0  0  0
  161.9060  209.2730  152.9690 C   0  0  1  0  0  3  0  0  0  0  0  0
  160.5410  208.0570  154.8540 C   0  0  2  0  0  3  0  0  0  0  0  0
  159.6420  206.8000  156.6840 O   0  0  0  0  0  1  0  0  0  0  0  0
  159.5770  210.0950  156.6550 C   0  0  0  0  0  2  0  0  0  0  0  0
  161.7380  210.3240  155.3650 C   0  0  1  0  0  3  0  0  0  0  0  0
  160.3320  206.2980  150.1750 C   0  0  2  0  0  3  0  0  0  0  0  0
  161.2450  203.2330  150.5070 C   0  0  0  0  0  2  0  0  0  0  0  0
  160.8340  206.8260  154.0050 C   0  0  0  0  0  2  0  0  0  0  0  0
  162.6430  209.2490  155.2490 O   0  0  0  0  0  0  0  0  0  0  0  0
  160.8190  205.9730  151.6020 C   0  0  1  0  0  3  0  0  0  0  0  0
  161.0650  206.0690  147.8720 C   0  0  0  0  0  2  0  0  0  0  0  0
  161.4900  209.1830  154.4410 C   0  0  2  0  0  0  0  0  0  0  0  0
  161.0830  210.2830  156.7650 C   0  0  2  0  0  3  0  0  0  0  0  0
  161.7770  204.2420  149.4890 C   0  0  2  0  0  3  0  0  0  0  0  0
  160.9560  208.5030  152.0330 C   0  0  2  0  0  3  0  0  0  0  0  0
  160.6040  207.7550  156.3500 C   0  0  2  0  0  3  0  0  0  0  0  0
  160.4620  207.1230  152.5490 C   0  0  2  0  0  3  0  0  0  0  0  0
  162.7400  210.5800  151.3180 C   0  0  0  0  0  2  0  0  0  0  0  0
  161.2390  203.8190  151.9130 C   0  0  0  0  0  2  0  0  0  0  0  0
  162.0080  210.6060  152.5240 O   0  0  0  0  0  0  0  0  0  0  0  0
  160.2320  204.7810  152.0350 O   0  0  0  0  0  0  0  0  0  0  0  0
  160.6730  205.2510  149.0960 C   0  0  1  0  0  3  0  0  0  0  0  0
  161.9480  209.8710  150.2080 C   0  0  0  0  0  2  0  0  0  0  0  0
  160.7910  207.6710  149.6520 C   0  0  1  0  0  3  0  0  0  0  0  0
  162.2700  203.4670  148.2730 C   0  0  0  0  0  2  0  0  0  0  0  0
  161.2210  202.4540  147.8280 C   0  0  0  0  0  2  0  0  0  0  0  0
  159.9760  202.9670  144.3750 C   0  0  0  0  0  2  0  0  0  0  0  0
  160.3050  201.1020  145.8930 C   0  0  0  0  0  2  0  0  0  0  0  0
  161.2040  202.2540  146.3130 C   0  0  0  0  0  3  0  0  0  0  0  0
  159.3870  201.6430  144.8110 C   0  0  0  0  0  2  0  0  0  0  0  0
  160.7210  203.4900  145.5800 C   0  0  0  0  0  2  0  0  0  0  0  0
  1 26  1  6  0  0  0
  1 18  1  0  0  0  0
  2 27  1  0  0  0  0
  3  7  1  6  0  0  0
  4 23  1  6  0  0  0
  4 15  1  0  0  0  0
  5 11  1  6  0  0  0
  5 19  1  0  0  0  0
  7 16  1  0  0  0  0
  8 12  1  1  0  0  0
  8 16  1  0  0  0  0
  9 13  1  0  0  0  0
 10 22  1  0  0  0  0
 13 24  1  0  0  0  0
 13 20  1  0  0  0  0
 14  2  1  0  0  0  0
 14 25  1  0  0  0  0
 15  5  1  0  0  0  0
 15 12  1  0  0  0  0
 15  8  1  0  0  0  0
 16  3  1  0  0  0  0
 17 10  1  0  0  0  0
 18 20  1  0  0  0  0
 18  4  1  0  0  0  0
 19  6  1  0  0  0  0
 19  3  1  0  0  0  0
 20 11  1  0  0  0  0
 21 23  1  0  0  0  0
 22 24  1  0  0  0  0
 25 17  1  0  0  0  0
 25  9  1  0  0  0  0
 26 21  1  0  0  0  0
 27  9  1  0  0  0  0
 27  1  1  0  0  0  0
 28 17  1  0  0  0  0
 29 28  1  0  0  0  0
 30 33  1  0  0  0  0
 30 34  1  0  0  0  0
 31 32  1  0  0  0  0
 32 29  1  0  0  0  0
 33 31  1  0  0  0  0
 34 32  1  0  0  0  0
M  END
>  <MODEL>
8

>  <REMARK>
 VINA RESULT:      -5.9      2.119      9.140
  Name = 
  3 active torsions:
  status: ('A' for Active; 'I' for Inactive)
    1  A    between atoms: C_17  and  C_28
    2  A    between atoms: C_28  and  C_29
    3  A    between atoms: C_29  and  C_32
                            x       y       z     vdW  Elec       q    Type
                         _______ _______ _______ _____ _____    ______ ____

>  <TORSDO>
F 3

$$$$
=
 OpenBabel11122414403D

 34 42  0  0  1  0  0  0  0  0999 V2000
  161.5470  208.2860  148.6100 C   0  0  2  0  0  3  0  0  0  0  0  0
  161.8730  210.7320  148.1840 C   0  0  0  0  0  2  0  0  0  0  0  0
  161.0250  202.6650  152.2640 C   0  0  2  0  0  3  0  0  0  0  0  0
  160.9400  205.9560  149.1300 C   0  0  1  0  0  3  0  0  0  0  0  0
  161.2790  205.1450  151.6050 C   0  0  2  0  0  3  0  0  0  0  0  0
  161.1980  204.4160  153.8850 O   0  0  0  0  0  1  0  0  0  0  0  0
  162.3150  202.4550  151.4830 C   0  0  0  0  0  2  0  0  0  0  0  0
  160.7770  203.4060  149.7190 C   0  0  1  0  0  3  0  0  0  0  0  0
  162.1790  209.9330  150.4660 C   0  0  2  0  0  3  0  0  0  0  0  0
  160.2820  211.5360  152.5070 C   0  0  0  0  0  2  0  0  0  0  0  0
  160.8520  206.5710  151.9270 C   0  0  0  0  0  2  0  0  0  0  0  0
  159.6440  204.1710  150.0650 O   0  0  0  0  0  0  0  0  0  0  0  0
  161.2450  209.0020  151.2670 C   0  0  1  0  0  3  0  0  0  0  0  0
  162.0660  211.9290  149.0880 C   0  0  0  0  0  2  0  0  0  0  0  0
  160.8890  204.8230  150.1620 C   0  0  2  0  0  0  0  0  0  0  0  0
  160.9780  202.2950  150.7750 C   0  0  2  0  0  3  0  0  0  0  0  0
  160.3980  211.7570  150.9980 C   0  0  2  0  0  3  0  0  0  0  0  0
  161.8110  207.1400  149.5880 C   0  0  2  0  0  3  0  0  0  0  0  0
  160.7200  204.1340  152.6040 C   0  0  2  0  0  3  0  0  0  0  0  0
  161.6800  207.5450  151.0820 C   0  0  2  0  0  3  0  0  0  0  0  0
  161.0470  206.5100  146.9360 C   0  0  0  0  0  2  0  0  0  0  0  0
  160.0930  210.0620  152.8360 C   0  0  0  0  0  2  0  0  0  0  0  0
  161.3930  205.5120  147.8720 O   0  0  0  0  0  0  0  0  0  0  0  0
  161.2810  209.3580  152.6180 O   0  0  0  0  0  0  0  0  0  0  0  0
  161.8280  211.4340  150.5090 C   0  0  1  0  0  3  0  0  0  0  0  0
  161.8420  207.8010  147.1900 C   0  0  0  0  0  2  0  0  0  0  0  0
  162.3420  209.5380  148.9870 C   0  0  1  0  0  3  0  0  0  0  0  0
  160.0330  213.2080  150.7060 C   0  0  0  0  0  2  0  0  0  0  0  0
  158.5180  213.3670  150.6220 C   0  0  0  0  0  2  0  0  0  0  0  0
  157.3120  212.7680  147.1700 C   0  0  0  0  0  2  0  0  0  0  0  0
  159.1960  213.8650  148.2350 C   0  0  0  0  0  2  0  0  0  0  0  0
  158.0470  213.7700  149.2260 C   0  0  0  0  0  3  0  0  0  0  0  0
  158.7930  213.0400  147.0250 C   0  0  0  0  0  2  0  0  0  0  0  0
  157.0440  212.7860  148.6560 C   0  0  0  0  0  2  0  0  0  0  0  0
  1 26  1  6  0  0  0
  1 27  1  0  0  0  0
  1 18  1  0  0  0  0
  2 27  1  0  0  0  0
  2 14  1  0  0  0  0
  3  7  1  6  0  0  0
  3 19  1  0  0  0  0
  4 23  1  6  0  0  0
  4 18  1  0  0  0  0
  4 15  1  0  0  0  0
  5 11  1  1  0  0  0
  5 19  1  0  0  0  0
  8 12  1  1  0  0  0
  8 15  1  0  0  0  0
  8 16  1  0  0  0  0
  9 25  1  0  0  0  0
  9 13  1  0  0  0  0
 10 22  1  0  0  0  0
 12 15  1  0  0  0  0
 13 24  1  0  0  0  0
 14 25  1  0  0  0  0
 15  5  1  0  0  0  0
 16  7  1  0  0  0  0
 16  3  1  0  0  0  0
 17 10  1  0  0  0  0
 18 20  1  0  0  0  0
 19  6  1  0  0  0  0
 20 13  1  0  0  0  0
 20 11  1  0  0  0  0
 21 26  1  0  0  0  0
 21 23  1  0  0  0  0
 24 22  1  0  0  0  0
 25 17  1  0  0  0  0
 27  9  1  0  0  0  0
 28 17  1  0  0  0  0
 29 28  1  0  0  0  0
 30 34  1  0  0  0  0
 31 32  1  0  0  0  0
 32 29  1  0  0  0  0
 33 30  1  0  0  0  0
 33 31  1  0  0  0  0
 34 32  1  0  0  0  0
M  END
>  <MODEL>
9

>  <REMARK>
 VINA RESULT:      -5.7      2.936      5.838
  Name = 
  3 active torsions:
  status: ('A' for Active; 'I' for Inactive)
    1  A    between atoms: C_17  and  C_28
    2  A    between atoms: C_28  and  C_29
    3  A    between atoms: C_29  and  C_32
                            x       y       z     vdW  Elec       q    Type
                         _______ _______ _______ _____ _____    ______ ____

>  <TORSDO>
F 3

$$$$
