=
 OpenBabel11122413543D

 37 42  0  0  1  0  0  0  0  0999 V2000
  161.9310  208.1600  153.0510 C   0  0  1  0  0  3  0  0  0  0  0  0
  162.9060  206.9860  149.9130 C   0  0  0  0  0  2  0  0  0  0  0  0
  161.1790  210.2280  154.3860 C   0  0  2  0  0  3  0  0  0  0  0  0
  161.4900  208.2500  151.6000 C   0  0  2  0  0  3  0  0  0  0  0  0
  162.2060  209.6230  153.4130 C   0  0  2  0  0  3  0  0  0  0  0  0
  161.6290  206.9680  150.7510 C   0  0  2  0  0  3  0  0  0  0  0  0
  161.0930  209.3800  155.6600 C   0  0  0  0  0  2  0  0  0  0  0  0
  162.2110  210.3730  152.0880 C   0  0  0  0  0  2  0  0  0  0  0  0
  160.9110  206.0480  153.8130 N   0  0  0  0  0  2  0  0  0  0  0  0
  161.0850  207.8650  155.4030 C   0  0  0  0  0  2  0  0  0  0  0  0
  161.4600  207.9840  148.1990 O   0  0  0  0  0  0  0  0  0  0  0  0
  162.7940  207.7430  148.5750 C   0  0  1  0  0  3  0  0  0  0  0  0
  160.8570  207.4990  153.9360 C   0  0  1  0  0  3  0  0  0  0  0  0
  162.2350  209.3680  151.0250 N   0  0  2  0  0  0  0  0  0  0  0  0
  161.4610  205.6280  151.4870 C   0  0  1  0  0  3  0  0  0  0  0  0
  162.2090  209.1280  148.5530 C   0  0  2  0  0  3  0  0  0  0  0  0
  161.5500  209.7760  149.7890 C   0  0  2  0  0  3  0  0  0  0  0  0
  160.3490  205.6650  152.5260 C   0  0  0  0  0  2  0  0  0  0  0  0
  161.0530  203.2710  150.9900 C   0  0  0  0  0  3  0  0  0  0  0  0
  161.2140  204.5120  150.5190 C   0  0  0  0  0  0  0  0  0  0  0  0
  161.2150  204.7670  149.0620 C   0  0  0  0  0  3  0  0  0  0  0  0
  161.2350  203.9850  146.8720 F   0  0  0  0  0  0  0  0  0  0  0  0
  161.1160  202.4070  148.6930 N   0  0  0  0  0  2  0  0  0  0  0  0
  161.1690  203.7500  148.2040 C   0  0  0  0  0  0  0  0  0  0  0  0
  160.7480  202.1120  150.0790 C   0  0  0  0  0  2  0  0  0  0  0  0
  161.5530  211.3050  149.5640 C   0  0  0  0  0  2  0  0  0  0  0  0
  161.5740  211.7050  148.1500 N   0  0  0  0  0  0  0  0  0  0  0  0
  159.9740  213.4430  148.7410 C   0  0  0  0  0  1  0  0  0  0  0  0
  160.3100  212.3260  147.7720 C   0  0  0  0  0  2  0  0  0  0  0  0
  162.6430  212.6720  147.9310 C   0  0  0  0  0  2  0  0  0  0  0  0
  162.7830  212.9710  146.4480 C   0  0  0  0  0  2  0  0  0  0  0  0
  162.5850  214.4520  146.1830 C   0  0  0  0  0  1  0  0  0  0  0  0
  159.9010  210.3140  153.7920 O   0  0  0  0  0  0  0  0  0  0  0  0
  159.3530  211.6000  154.0140 C   0  0  0  0  0  0  0  0  0  0  0  0
  157.9870  211.5260  154.6880 C   0  0  0  0  0  1  0  0  0  0  0  0
  160.2170  212.3910  154.7780 O   0  0  0  0  0  1  0  0  0  0  0  0
  159.1610  212.2660  152.6690 C   0  0  0  0  0  1  0  0  0  0  0  0
  1  5  1  0  0  0  0
  1 13  1  0  0  0  0
  2  6  1  0  0  0  0
  3  7  1  0  0  0  0
  4  1  1  0  0  0  0
  5  3  1  0  0  0  0
  6 15  1  0  0  0  0
  6  4  1  0  0  0  0
  8  5  1  0  0  0  0
  9 13  1  0  0  0  0
 10  7  1  0  0  0  0
 11 16  1  0  0  0  0
 11 12  1  0  0  0  0
 12  2  1  0  0  0  0
 13 10  1  0  0  0  0
 14  4  1  0  0  0  0
 14  8  1  0  0  0  0
 15 18  1  0  0  0  0
 16 12  1  0  0  0  0
 16 17  1  0  0  0  0
 17 14  1  0  0  0  0
 18  9  1  0  0  0  0
 20 19  2  0  0  0  0
 20 15  1  0  0  0  0
 21 20  1  0  0  0  0
 22 24  1  0  0  0  0
 23 25  1  0  0  0  0
 24 23  1  0  0  0  0
 24 21  2  0  0  0  0
 25 19  1  0  0  0  0
 26 17  1  0  0  0  0
 27 26  1  0  0  0  0
 29 27  1  0  0  0  0
 29 28  1  0  0  0  0
 30 27  1  0  0  0  0
 31 30  1  0  0  0  0
 32 31  1  0  0  0  0
 33 34  1  0  0  0  0
 33  3  1  0  0  0  0
 34 35  1  0  0  0  0
 34 36  1  0  0  0  0
 37 34  1  0  0  0  0
M  END
>  <MODEL>
1

>  <REMARK>
 VINA RESULT:      -6.8      0.000      0.000
  Name = 
  8 active torsions:
  status: ('A' for Active; 'I' for Inactive)
    1  A    between atoms: C_1  and  N_4
    2  A    between atoms: C_1  and  C_27
    3  A    between atoms: C_2  and  O_22
    4  A    between atoms: N_4  and  C_12
    5  A    between atoms: N_4  and  C_37
    6  A    between atoms: C_6  and  O_22
    7  A    between atoms: C_8  and  C_12
    8  A    between atoms: C_23  and  C_30
                            x       y       z     vdW  Elec       q    Type
                         _______ _______ _______ _____ _____    ______ ____

>  <TORSDO>
F 8

$$$$
=
 OpenBabel11122413543D

 37 42  0  0  1  0  0  0  0  0999 V2000
  161.8700  208.1440  153.0720 C   0  0  1  0  0  3  0  0  0  0  0  0
  162.9260  207.1010  149.9140 C   0  0  0  0  0  2  0  0  0  0  0  0
  161.0150  210.1400  154.4550 C   0  0  2  0  0  3  0  0  0  0  0  0
  161.4390  208.2560  151.6190 C   0  0  2  0  0  3  0  0  0  0  0  0
  162.0770  209.6080  153.4770 C   0  0  2  0  0  3  0  0  0  0  0  0
  161.6430  207.0040  150.7380 C   0  0  2  0  0  3  0  0  0  0  0  0
  160.9530  209.2540  155.7040 C   0  0  0  0  0  2  0  0  0  0  0  0
  162.0620  210.3930  152.1740 C   0  0  0  0  0  2  0  0  0  0  0  0
  160.9370  205.9700  153.7650 N   0  0  0  0  0  2  0  0  0  0  0  0
  161.0150  207.7480  155.4070 C   0  0  0  0  0  2  0  0  0  0  0  0
  161.4540  208.0820  148.2130 O   0  0  0  0  0  0  0  0  0  0  0  0
  162.7940  207.8890  148.5970 C   0  0  1  0  0  3  0  0  0  0  0  0
  160.8180  207.4130  153.9280 C   0  0  1  0  0  3  0  0  0  0  0  0
  162.1400  209.4200  151.0840 N   0  0  2  0  0  0  0  0  0  0  0  0
  161.5270  205.6390  151.4360 C   0  0  1  0  0  3  0  0  0  0  0  0
  162.1480  209.2480  148.6060 C   0  0  2  0  0  3  0  0  0  0  0  0
  161.4500  209.8320  149.8510 C   0  0  2  0  0  3  0  0  0  0  0  0
  160.4050  205.5990  152.4630 C   0  0  0  0  0  2  0  0  0  0  0  0
  161.2340  204.8570  149.1390 C   0  0  0  0  0  3  0  0  0  0  0  0
  161.3390  204.5410  150.4340 C   0  0  0  0  0  0  0  0  0  0  0  0
  161.2040  203.1360  150.8760 C   0  0  0  0  0  3  0  0  0  0  0  0
  160.6800  200.9150  150.4260 F   0  0  0  0  0  0  0  0  0  0  0  0
  160.6320  202.5310  148.6340 N   0  0  0  0  0  2  0  0  0  0  0  0
  160.8640  202.1880  150.0040 C   0  0  0  0  0  0  0  0  0  0  0  0
  161.0970  203.8010  148.0750 C   0  0  0  0  0  2  0  0  0  0  0  0
  161.3880  211.3650  149.6690 C   0  0  0  0  0  2  0  0  0  0  0  0
  161.4580  211.8080  148.2680 N   0  0  0  0  0  0  0  0  0  0  0  0
  159.7990  213.5680  148.5490 C   0  0  0  0  0  1  0  0  0  0  0  0
  160.1580  212.2910  147.8160 C   0  0  0  0  0  2  0  0  0  0  0  0
  162.4190  212.8960  148.1470 C   0  0  0  0  0  2  0  0  0  0  0  0
  163.0470  212.8890  146.7630 C   0  0  0  0  0  2  0  0  0  0  0  0
  162.4710  214.0040  145.9110 C   0  0  0  0  0  1  0  0  0  0  0  0
  159.7400  210.1860  153.8500 O   0  0  0  0  0  0  0  0  0  0  0  0
  159.0890  211.3950  154.1930 C   0  0  0  0  0  0  0  0  0  0  0  0
  158.5750  212.1320  152.9610 C   0  0  0  0  0  1  0  0  0  0  0  0
  158.0350  211.1640  155.0830 O   0  0  0  0  0  1  0  0  0  0  0  0
  160.0980  212.2950  154.8720 C   0  0  0  0  0  1  0  0  0  0  0  0
  1  5  1  0  0  0  0
  1 13  1  0  0  0  0
  2  6  1  0  0  0  0
  3  7  1  0  0  0  0
  4  1  1  0  0  0  0
  5  3  1  0  0  0  0
  6 15  1  0  0  0  0
  6  4  1  0  0  0  0
  8  5  1  0  0  0  0
  9 13  1  0  0  0  0
 10  7  1  0  0  0  0
 11 12  1  0  0  0  0
 11 16  1  0  0  0  0
 12 16  1  0  0  0  0
 12  2  1  0  0  0  0
 13 10  1  0  0  0  0
 14  4  1  0  0  0  0
 14  8  1  0  0  0  0
 15 18  1  0  0  0  0
 16 17  1  0  0  0  0
 17 14  1  0  0  0  0
 18  9  1  0  0  0  0
 19 20  2  0  0  0  0
 20 21  1  0  0  0  0
 20 15  1  0  0  0  0
 23 24  1  0  0  0  0
 24 22  1  0  0  0  0
 24 21  2  0  0  0  0
 25 23  1  0  0  0  0
 25 19  1  0  0  0  0
 26 17  1  0  0  0  0
 27 26  1  0  0  0  0
 29 27  1  0  0  0  0
 29 28  1  0  0  0  0
 30 27  1  0  0  0  0
 31 30  1  0  0  0  0
 32 31  1  0  0  0  0
 33 34  1  0  0  0  0
 33  3  1  0  0  0  0
 34 37  1  0  0  0  0
 34 36  1  0  0  0  0
 35 34  1  0  0  0  0
M  END
>  <MODEL>
2

>  <REMARK>
 VINA RESULT:      -6.3      0.932      1.319
  Name = 
  8 active torsions:
  status: ('A' for Active; 'I' for Inactive)
    1  A    between atoms: C_1  and  N_4
    2  A    between atoms: C_1  and  C_27
    3  A    between atoms: C_2  and  O_22
    4  A    between atoms: N_4  and  C_12
    5  A    between atoms: N_4  and  C_37
    6  A    between atoms: C_6  and  O_22
    7  A    between atoms: C_8  and  C_12
    8  A    between atoms: C_23  and  C_30
                            x       y       z     vdW  Elec       q    Type
                         _______ _______ _______ _____ _____    ______ ____

>  <TORSDO>
F 8

$$$$
=
 OpenBabel11122413543D

 37 42  0  0  1  0  0  0  0  0999 V2000
  161.5790  212.2430  149.9440 C   0  0  1  0  0  3  0  0  0  0  0  0
  161.9220  209.9080  152.5130 C   0  0  0  0  0  2  0  0  0  0  0  0
  161.6130  212.5900  147.3930 C   0  0  2  0  0  3  0  0  0  0  0  0
  161.0950  210.8490  150.3040 C   0  0  2  0  0  3  0  0  0  0  0  0
  162.3280  212.0120  148.6270 C   0  0  2  0  0  3  0  0  0  0  0  0
  160.7630  210.5920  151.7900 C   0  0  2  0  0  3  0  0  0  0  0  0
  161.3450  214.0860  147.5880 C   0  0  0  0  0  2  0  0  0  0  0  0
  162.4850  210.5030  148.5120 C   0  0  0  0  0  2  0  0  0  0  0  0
  159.9920  213.7080  151.1340 N   0  0  0  0  0  2  0  0  0  0  0  0
  160.8390  214.4530  148.9910 C   0  0  0  0  0  2  0  0  0  0  0  0
  160.7590  207.8420  151.8790 O   0  0  0  0  0  0  0  0  0  0  0  0
  161.9690  208.3760  152.3600 C   0  0  1  0  0  3  0  0  0  0  0  0
  160.4110  213.2410  149.8190 C   0  0  1  0  0  3  0  0  0  0  0  0
  162.1180  209.9320  149.8070 N   0  0  2  0  0  0  0  0  0  0  0  0
  160.2270  211.7870  152.5960 C   0  0  1  0  0  3  0  0  0  0  0  0
  161.8550  207.7640  150.9900 C   0  0  2  0  0  3  0  0  0  0  0  0
  161.5190  208.5900  149.7320 C   0  0  2  0  0  3  0  0  0  0  0  0
  159.2550  212.6440  151.7980 C   0  0  0  0  0  2  0  0  0  0  0  0
  158.2940  211.6460  154.0850 C   0  0  0  0  0  3  0  0  0  0  0  0
  159.5740  211.3270  153.8640 C   0  0  0  0  0  0  0  0  0  0  0  0
  160.3500  210.5910  154.8850 C   0  0  0  0  0  3  0  0  0  0  0  0
  160.5550  209.7210  157.0320 F   0  0  0  0  0  0  0  0  0  0  0  0
  158.4880  210.7770  156.3730 N   0  0  0  0  0  2  0  0  0  0  0  0
  159.8180  210.3380  156.0790 C   0  0  0  0  0  0  0  0  0  0  0  0
  157.5610  211.1710  155.3110 C   0  0  0  0  0  2  0  0  0  0  0  0
  161.9940  207.7770  148.5060 C   0  0  0  0  0  2  0  0  0  0  0  0
  160.9340  206.9880  147.8610 N   0  0  0  0  0  0  0  0  0  0  0  0
  160.4350  206.2060  145.6090 C   0  0  0  0  0  1  0  0  0  0  0  0
  161.4650  206.2480  146.7220 C   0  0  0  0  0  2  0  0  0  0  0  0
  160.3880  206.0300  148.8150 C   0  0  0  0  0  2  0  0  0  0  0  0
  161.1690  204.7280  148.7550 C   0  0  0  0  0  2  0  0  0  0  0  0
  160.9390  203.9120  150.0120 C   0  0  0  0  0  1  0  0  0  0  0  0
  160.3930  211.9220  147.1510 O   0  0  0  0  0  0  0  0  0  0  0  0
  159.8230  212.3870  145.9410 C   0  0  0  0  0  0  0  0  0  0  0  0
  160.4260  213.7180  145.5050 C   0  0  0  0  0  1  0  0  0  0  0  0
  159.9670  211.4420  144.9200 O   0  0  0  0  0  1  0  0  0  0  0  0
  158.3450  212.6140  146.1760 C   0  0  0  0  0  1  0  0  0  0  0  0
  1  4  1  0  0  0  0
  3  7  1  0  0  0  0
  3  5  1  0  0  0  0
  4  6  1  0  0  0  0
  5  1  1  0  0  0  0
  6  2  1  0  0  0  0
  6 15  1  0  0  0  0
  7 10  1  0  0  0  0
  8  5  1  0  0  0  0
  8 14  1  0  0  0  0
  9 18  1  0  0  0  0
 10 13  1  0  0  0  0
 11 12  1  0  0  0  0
 12  2  1  0  0  0  0
 13  1  1  0  0  0  0
 13  9  1  0  0  0  0
 14  4  1  0  0  0  0
 15 20  1  0  0  0  0
 16 11  1  0  0  0  0
 16 12  1  0  0  0  0
 17 14  1  0  0  0  0
 17 16  1  0  0  0  0
 18 15  1  0  0  0  0
 19 25  1  0  0  0  0
 20 19  2  0  0  0  0
 20 21  1  0  0  0  0
 21 24  2  0  0  0  0
 24 23  1  0  0  0  0
 24 22  1  0  0  0  0
 25 23  1  0  0  0  0
 26 17  1  0  0  0  0
 27 26  1  0  0  0  0
 27 30  1  0  0  0  0
 28 29  1  0  0  0  0
 29 27  1  0  0  0  0
 31 30  1  0  0  0  0
 31 32  1  0  0  0  0
 33  3  1  0  0  0  0
 34 37  1  0  0  0  0
 34 33  1  0  0  0  0
 35 34  1  0  0  0  0
 36 34  1  0  0  0  0
M  END
>  <MODEL>
3

>  <REMARK>
 VINA RESULT:      -5.1      2.966      7.426
  Name = 
  8 active torsions:
  status: ('A' for Active; 'I' for Inactive)
    1  A    between atoms: C_1  and  N_4
    2  A    between atoms: C_1  and  C_27
    3  A    between atoms: C_2  and  O_22
    4  A    between atoms: N_4  and  C_12
    5  A    between atoms: N_4  and  C_37
    6  A    between atoms: C_6  and  O_22
    7  A    between atoms: C_8  and  C_12
    8  A    between atoms: C_23  and  C_30
                            x       y       z     vdW  Elec       q    Type
                         _______ _______ _______ _____ _____    ______ ____

>  <TORSDO>
F 8

$$$$
=
 OpenBabel11122413543D

 37 42  0  0  1  0  0  0  0  0999 V2000
  161.8590  208.0500  152.4370 C   0  0  1  0  0  3  0  0  0  0  0  0
  162.9000  208.2330  149.1110 C   0  0  0  0  0  2  0  0  0  0  0  0
  160.9830  209.3970  154.4470 C   0  0  2  0  0  3  0  0  0  0  0  0
  161.4110  208.6660  151.1220 C   0  0  2  0  0  3  0  0  0  0  0  0
  162.0440  209.2750  153.3400 C   0  0  2  0  0  3  0  0  0  0  0  0
  161.6280  207.8200  149.8490 C   0  0  2  0  0  3  0  0  0  0  0  0
  160.9500  208.1210  155.2950 C   0  0  0  0  0  2  0  0  0  0  0  0
  162.0000  210.4750  152.4050 C   0  0  0  0  0  2  0  0  0  0  0  0
  160.9730  205.7530  152.3050 N   0  0  0  0  0  2  0  0  0  0  0  0
  161.0370  206.8240  154.4760 C   0  0  0  0  0  2  0  0  0  0  0  0
  161.3920  209.7280  147.8810 O   0  0  0  0  0  0  0  0  0  0  0  0
  162.7400  209.4380  148.1650 C   0  0  1  0  0  3  0  0  0  0  0  0
  160.8300  207.0380  152.9760 C   0  0  1  0  0  3  0  0  0  0  0  0
  162.0850  209.9600  151.0390 N   0  0  2  0  0  0  0  0  0  0  0  0
  161.5450  206.2930  150.0110 C   0  0  1  0  0  3  0  0  0  0  0  0
  162.0700  210.6890  148.6650 C   0  0  2  0  0  3  0  0  0  0  0  0
  161.3740  210.7720  150.0380 C   0  0  2  0  0  3  0  0  0  0  0  0
  160.4340  205.8630  150.9580 C   0  0  0  0  0  2  0  0  0  0  0  0
  161.0120  206.3650  147.6270 C   0  0  0  0  0  3  0  0  0  0  0  0
  161.3660  205.6230  148.6820 C   0  0  0  0  0  0  0  0  0  0  0  0
  161.5120  204.1580  148.5530 C   0  0  0  0  0  3  0  0  0  0  0  0
  161.2590  202.2000  147.3240 F   0  0  0  0  0  0  0  0  0  0  0  0
  160.6900  204.3160  146.3130 N   0  0  0  0  0  2  0  0  0  0  0  0
  161.1840  203.5480  147.4150 C   0  0  0  0  0  0  0  0  0  0  0  0
  160.8670  205.7680  146.2530 C   0  0  0  0  0  2  0  0  0  0  0  0
  161.2820  212.2680  150.4190 C   0  0  0  0  0  2  0  0  0  0  0  0
  160.0830  212.9460  149.9060 N   0  0  0  0  0  0  0  0  0  0  0  0
  158.0620  213.9700  150.7990 C   0  0  0  0  0  1  0  0  0  0  0  0
  159.5750  213.9020  150.8820 C   0  0  0  0  0  2  0  0  0  0  0  0
  160.4160  213.6710  148.6860 C   0  0  0  0  0  2  0  0  0  0  0  0
  161.7050  214.4530  148.8770 C   0  0  0  0  0  2  0  0  0  0  0  0
  162.6470  214.2200  147.7110 C   0  0  0  0  0  1  0  0  0  0  0  0
  159.7010  209.6310  153.9030 O   0  0  0  0  0  0  0  0  0  0  0  0
  159.0950  210.7310  154.5560 C   0  0  0  0  0  0  0  0  0  0  0  0
  158.3160  211.6100  153.5830 C   0  0  0  0  0  1  0  0  0  0  0  0
  158.2530  210.3030  155.5890 O   0  0  0  0  0  1  0  0  0  0  0  0
  160.1920  211.5820  155.1580 C   0  0  0  0  0  1  0  0  0  0  0  0
  1 13  1  0  0  0  0
  1  5  1  0  0  0  0
  2  6  1  0  0  0  0
  3  7  1  0  0  0  0
  4  1  1  0  0  0  0
  5  3  1  0  0  0  0
  6 15  1  0  0  0  0
  6  4  1  0  0  0  0
  8  5  1  0  0  0  0
  9 13  1  0  0  0  0
 10  7  1  0  0  0  0
 11 12  1  0  0  0  0
 11 16  1  0  0  0  0
 12 16  1  0  0  0  0
 12  2  1  0  0  0  0
 13 10  1  0  0  0  0
 14  4  1  0  0  0  0
 14  8  1  0  0  0  0
 15 18  1  0  0  0  0
 16 17  1  0  0  0  0
 17 26  1  0  0  0  0
 17 14  1  0  0  0  0
 18  9  1  0  0  0  0
 19 20  2  0  0  0  0
 20 15  1  0  0  0  0
 21 20  1  0  0  0  0
 22 24  1  0  0  0  0
 23 24  1  0  0  0  0
 24 21  2  0  0  0  0
 25 23  1  0  0  0  0
 25 19  1  0  0  0  0
 27 26  1  0  0  0  0
 27 29  1  0  0  0  0
 28 29  1  0  0  0  0
 30 31  1  0  0  0  0
 30 27  1  0  0  0  0
 32 31  1  0  0  0  0
 33  3  1  0  0  0  0
 33 34  1  0  0  0  0
 34 37  1  0  0  0  0
 34 36  1  0  0  0  0
 35 34  1  0  0  0  0
M  END
>  <MODEL>
4

>  <REMARK>
 VINA RESULT:      -4.4      1.497      2.099
  Name = 
  8 active torsions:
  status: ('A' for Active; 'I' for Inactive)
    1  A    between atoms: C_1  and  N_4
    2  A    between atoms: C_1  and  C_27
    3  A    between atoms: C_2  and  O_22
    4  A    between atoms: N_4  and  C_12
    5  A    between atoms: N_4  and  C_37
    6  A    between atoms: C_6  and  O_22
    7  A    between atoms: C_8  and  C_12
    8  A    between atoms: C_23  and  C_30
                            x       y       z     vdW  Elec       q    Type
                         _______ _______ _______ _____ _____    ______ ____

>  <TORSDO>
F 8

$$$$
