=
 OpenBabel11122413383D

 37 43  0  0  1  0  0  0  0  0999 V2000
  158.1200  212.8090  151.0420 C   0  0  0  0  0  2  0  0  0  0  0  0
  161.9790  213.6460  147.8020 C   0  0  1  0  0  0  0  0  0  0  0  0
  161.1710  210.6670  150.7180 N   0  0  1  0  0  0  0  0  0  0  0  0
  156.8520  213.6540  150.8620 C   0  0  2  0  0  3  0  0  0  0  0  0
  159.5680  211.5470  153.9590 O   0  0  0  0  0  0  0  0  0  0  0  0
  162.2470  211.2050  148.5090 C   0  0  1  0  0  3  0  0  0  0  0  0
  160.9050  211.4410  151.9410 C   0  0  2  0  0  3  0  0  0  0  0  0
  156.6230  213.6970  153.3900 C   0  0  0  0  0  0  0  0  0  0  0  0
  161.8470  211.6640  149.9170 C   0  0  1  0  0  3  0  0  0  0  0  0
  159.7630  210.8160  152.7780 C   0  0  1  0  0  3  0  0  0  0  0  0
  161.8720  209.7380  148.2880 C   0  0  0  0  0  2  0  0  0  0  0  0
  156.4300  214.4520  152.1040 C   0  0  0  0  0  2  0  0  0  0  0  0
  160.9470  212.8380  149.9630 C   0  0  2  0  0  3  0  0  0  0  0  0
  161.2280  214.4530  146.9510 O   0  0  0  0  0  1  0  0  0  0  0  0
  161.7130  208.5490  151.9050 C   0  0  0  0  0  2  0  0  0  0  0  0
  162.3130  208.8670  149.4880 C   0  0  0  0  0  2  0  0  0  0  0  0
  161.6260  214.0090  149.2700 C   0  0  0  0  0  2  0  0  0  0  0  0
  158.0050  213.3760  153.9040 C   0  0  1  0  0  3  0  0  0  0  0  0
  158.2070  211.8630  153.9640 C   0  0  0  0  0  2  0  0  0  0  0  0
  162.1290  209.5680  150.8550 C   0  0  1  0  0  3  0  0  0  0  0  0
  160.6700  212.9220  151.4500 C   0  0  1  0  0  3  0  0  0  0  0  0
  161.7160  212.1600  147.4320 C   0  0  0  0  0  2  0  0  0  0  0  0
  159.9490  209.3220  153.1280 C   0  0  1  0  0  3  0  0  0  0  0  0
  163.3190  213.9190  147.6000 F   0  0  0  0  0  0  0  0  0  0  0  0
  159.1070  214.0890  153.0970 C   0  0  0  0  0  2  0  0  0  0  0  0
  155.6440  213.3460  154.0280 O   0  0  0  0  0  0  0  0  0  0  0  0
  159.2960  213.5860  151.6550 C   0  0  2  0  0  3  0  0  0  0  0  0
  160.3170  208.4920  152.0450 O   0  0  0  0  0  0  0  0  0  0  0  0
  160.2540  207.8000  155.1040 C   0  0  0  0  0  3  0  0  0  0  0  0
  160.5950  208.9920  154.4550 C   0  0  0  0  0  0  0  0  0  0  0  0
  161.5460  209.8480  155.0320 C   0  0  0  0  0  3  0  0  0  0  0  0
  163.3210  210.5900  156.9690 Cl  0  0  0  0  0  0  0  0  0  0  0  0
  161.7920  208.3270  156.8990 C   0  0  0  0  0  3  0  0  0  0  0  0
  162.1400  209.5160  156.2530 C   0  0  0  0  0  0  0  0  0  0  0  0
  160.8500  207.4690  156.3250 C   0  0  0  0  0  3  0  0  0  0  0  0
  154.7690  213.7050  150.1140 C   0  0  0  0  0  1  0  0  0  0  0  0
  155.8020  212.8290  150.4540 O   0  0  0  0  0  0  0  0  0  0  0  0
  1 27  1  0  0  0  0
  2 14  1  6  0  0  0
  2 17  1  0  0  0  0
  3 20  1  0  0  0  0
  3  7  1  0  0  0  0
  4  1  1  0  0  0  0
  4 12  1  0  0  0  0
  5 19  1  0  0  0  0
  6  9  1  0  0  0  0
  7 10  1  0  0  0  0
  8 18  1  0  0  0  0
  8 26  2  0  0  0  0
  9 13  1  0  0  0  0
  9  3  1  0  0  0  0
 10 23  1  0  0  0  0
 10  5  1  0  0  0  0
 11  6  1  0  0  0  0
 11 16  1  0  0  0  0
 12  8  1  0  0  0  0
 13 21  1  0  0  0  0
 15 28  1  0  0  0  0
 16 20  1  0  0  0  0
 17 13  1  0  0  0  0
 18 19  1  0  0  0  0
 20 15  1  0  0  0  0
 21 27  1  0  0  0  0
 21  7  1  0  0  0  0
 22  2  1  0  0  0  0
 22  6  1  0  0  0  0
 23 30  1  0  0  0  0
 24  2  1  0  0  0  0
 25 18  1  0  0  0  0
 27 25  1  0  0  0  0
 28 23  1  0  0  0  0
 29 35  1  0  0  0  0
 30 31  1  0  0  0  0
 30 29  2  0  0  0  0
 31 34  2  0  0  0  0
 34 33  1  0  0  0  0
 34 32  1  0  0  0  0
 35 33  2  0  0  0  0
 36 37  1  0  0  0  0
 37  4  1  0  0  0  0
M  END
>  <MODEL>
1

>  <REMARK>
 VINA RESULT:      -3.2      0.000      0.000
  Name = 
  2 active torsions:
  status: ('A' for Active; 'I' for Inactive)
    1  A    between atoms: C_4  and  O_37
    2  A    between atoms: C_23  and  C_30
                            x       y       z     vdW  Elec       q    Type
                         _______ _______ _______ _____ _____    ______ ____

>  <TORSDO>
F 2

$$$$
=
 OpenBabel11122413383D

 37 43  0  0  1  0  0  0  0  0999 V2000
  161.6800  210.0430  154.2200 C   0  0  0  0  0  2  0  0  0  0  0  0
  161.3780  205.2980  152.3540 C   0  0  1  0  0  0  0  0  0  0  0  0
  161.5520  209.1540  150.5870 N   0  0  1  0  0  0  0  0  0  0  0  0
  161.9650  210.1950  155.7200 C   0  0  2  0  0  3  0  0  0  0  0  0
  159.7480  212.0360  152.1000 O   0  0  0  0  0  0  0  0  0  0  0  0
  162.1510  206.7210  150.3770 C   0  0  1  0  0  3  0  0  0  0  0  0
  160.4510  209.8850  151.2360 C   0  0  2  0  0  3  0  0  0  0  0  0
  160.4030  212.1950  155.7280 C   0  0  0  0  0  0  0  0  0  0  0  0
  161.1750  207.7900  150.8830 C   0  0  1  0  0  3  0  0  0  0  0  0
  160.8320  211.3560  151.5280 C   0  0  1  0  0  3  0  0  0  0  0  0
  163.3100  207.3610  149.6110 C   0  0  0  0  0  2  0  0  0  0  0  0
  160.9170  211.0080  156.4940 C   0  0  0  0  0  2  0  0  0  0  0  0
  160.9390  207.7860  152.3440 C   0  0  2  0  0  3  0  0  0  0  0  0
  161.8620  204.6980  153.5150 O   0  0  0  0  0  1  0  0  0  0  0  0
  161.6900  210.6640  148.6140 C   0  0  0  0  0  2  0  0  0  0  0  0
  162.7910  208.4080  148.5950 C   0  0  0  0  0  2  0  0  0  0  0  0
  160.3920  206.4290  152.7540 C   0  0  0  0  0  2  0  0  0  0  0  0
  159.5470  212.0170  154.4980 C   0  0  1  0  0  3  0  0  0  0  0  0
  160.2550  212.5960  153.2750 C   0  0  0  0  0  2  0  0  0  0  0  0
  161.5950  209.2340  149.1250 C   0  0  1  0  0  3  0  0  0  0  0  0
  160.0600  209.0110  152.4900 C   0  0  1  0  0  3  0  0  0  0  0  0
  162.5880  205.7770  151.5060 C   0  0  0  0  0  2  0  0  0  0  0  0
  161.3480  212.1530  150.3080 C   0  0  1  0  0  3  0  0  0  0  0  0
  160.6790  204.3520  151.6280 F   0  0  0  0  0  0  0  0  0  0  0  0
  159.1170  210.5510  154.2950 C   0  0  0  0  0  2  0  0  0  0  0  0
  160.6770  213.3180  156.1160 O   0  0  0  0  0  0  0  0  0  0  0  0
  160.2470  209.5820  153.9080 C   0  0  2  0  0  3  0  0  0  0  0  0
  162.3370  211.5000  149.5380 O   0  0  0  0  0  0  0  0  0  0  0  0
  160.7660  213.7080  148.4220 C   0  0  0  0  0  3  0  0  0  0  0  0
  160.3390  212.9640  149.5270 C   0  0  0  0  0  0  0  0  0  0  0  0
  158.9800  212.9620  149.8780 C   0  0  0  0  0  3  0  0  0  0  0  0
  156.3700  213.7050  149.5790 Cl  0  0  0  0  0  0  0  0  0  0  0  0
  158.4950  214.4530  148.0340 C   0  0  0  0  0  3  0  0  0  0  0  0
  158.0620  213.7080  149.1330 C   0  0  0  0  0  0  0  0  0  0  0  0
  159.8470  214.4530  147.6780 C   0  0  0  0  0  3  0  0  0  0  0  0
  163.5080  210.6060  157.2520 C   0  0  0  0  0  1  0  0  0  0  0  0
  163.2270  210.7670  155.8940 O   0  0  0  0  0  0  0  0  0  0  0  0
  1  4  1  0  0  0  0
  2 24  1  6  0  0  0
  2 17  1  0  0  0  0
  2 14  1  0  0  0  0
  3  9  1  0  0  0  0
  3  7  1  0  0  0  0
  4 37  1  0  0  0  0
  4 12  1  0  0  0  0
  5 19  1  0  0  0  0
  6  9  1  0  0  0  0
  6 22  1  0  0  0  0
  7 10  1  0  0  0  0
  7 21  1  0  0  0  0
  8 26  2  0  0  0  0
  8 12  1  0  0  0  0
  9 13  1  0  0  0  0
 10  5  1  0  0  0  0
 11  6  1  0  0  0  0
 13 21  1  0  0  0  0
 13 17  1  0  0  0  0
 15 20  1  0  0  0  0
 15 28  1  0  0  0  0
 16 20  1  0  0  0  0
 16 11  1  0  0  0  0
 18  8  1  0  0  0  0
 19 18  1  0  0  0  0
 20  3  1  0  0  0  0
 21 27  1  0  0  0  0
 22  2  1  0  0  0  0
 23 10  1  0  0  0  0
 25 18  1  0  0  0  0
 27  1  1  0  0  0  0
 27 25  1  0  0  0  0
 28 23  1  0  0  0  0
 29 30  1  0  0  0  0
 30 31  2  0  0  0  0
 30 23  1  0  0  0  0
 33 34  2  0  0  0  0
 34 32  1  0  0  0  0
 34 31  1  0  0  0  0
 35 33  1  0  0  0  0
 35 29  2  0  0  0  0
 37 36  1  0  0  0  0
M  END
>  <MODEL>
2

>  <REMARK>
 VINA RESULT:      -0.9      3.300      6.816
  Name = 
  2 active torsions:
  status: ('A' for Active; 'I' for Inactive)
    1  A    between atoms: C_4  and  O_37
    2  A    between atoms: C_23  and  C_30
                            x       y       z     vdW  Elec       q    Type
                         _______ _______ _______ _____ _____    ______ ____

>  <TORSDO>
F 2

$$$$
