=
 OpenBabel11122412463D

 30 35  0  0  1  0  0  0  0  0999 V2000
  161.2260  208.6110  152.0120 C   0  0  1  0  0  3  0  0  0  0  0  0
  161.4370  207.6330  154.3780 C   0  0  0  0  0  0  0  0  0  0  0  0
  159.2840  212.0360  153.4100 N   0  0  0  0  0  2  0  0  0  0  0  0
  161.6430  209.9440  151.3670 C   0  0  1  0  0  3  0  0  0  0  0  0
  162.1150  207.6040  151.5870 O   0  0  0  0  0  0  0  0  0  0  0  0
  162.1020  208.3840  148.1020 O   0  0  0  0  0  0  0  0  0  0  0  0
  161.1970  212.1280  148.9380 C   0  0  1  0  0  3  0  0  0  0  0  0
  161.9150  208.5310  149.3400 C   0  0  0  0  0  0  0  0  0  0  0  0
  160.9460  212.8970  150.2080 C   0  0  1  0  0  3  0  0  0  0  0  0
  159.2860  212.8460  152.1820 C   0  0  2  0  0  3  0  0  0  0  0  0
  161.8420  207.3100  150.2260 C   0  0  2  0  0  3  0  0  0  0  0  0
  161.7400  209.8460  149.9040 N   0  0  0  0  0  0  0  0  0  0  0  0
  161.0850  207.7540  155.8300 C   0  0  0  0  0  2  0  0  0  0  0  0
  160.3220  214.1890  149.7160 C   0  0  0  0  0  2  0  0  0  0  0  0
  161.6390  213.1650  147.9280 C   0  0  0  0  0  2  0  0  0  0  0  0
  161.9720  206.5710  153.9630 O   0  0  0  0  0  0  0  0  0  0  0  0
  159.8760  210.7760  152.9920 C   0  0  1  0  0  3  0  0  0  0  0  0
  159.8270  208.5640  155.9800 C   0  0  0  0  0  3  0  0  0  0  0  0
  161.1670  208.7410  153.4890 N   0  0  0  0  0  0  0  0  0  0  0  0
  160.8680  211.1470  151.9410 C   0  0  2  0  0  3  0  0  0  0  0  0
  157.8590  213.1070  151.7390 C   0  0  0  0  0  1  0  0  0  0  0  0
  160.0360  212.0610  151.0950 C   0  0  2  0  0  3  0  0  0  0  0  0
  160.9520  214.4530  148.3550 C   0  0  0  0  0  2  0  0  0  0  0  0
  163.3120  211.0310  148.6440 O   0  0  0  0  0  0  0  0  0  0  0  0
  159.5770  209.5960  155.1650 C   0  0  0  0  0  3  0  0  0  0  0  0
  160.5610  209.9620  154.0840 C   0  0  2  0  0  3  0  0  0  0  0  0
  162.1540  210.9920  149.1440 C   0  0  0  0  0  0  0  0  0  0  0  0
  160.5170  206.5650  150.0460 C   0  0  0  0  0  2  0  0  0  0  0  0
  160.7990  204.2610  150.9570 C   0  0  0  0  0  1  0  0  0  0  0  0
  160.7520  205.1040  149.6970 C   0  0  0  0  0  2  0  0  0  0  0  0
  1  5  1  1  0  0  0
  1 19  1  0  0  0  0
  2 13  1  0  0  0  0
  4 12  1  6  0  0  0
  4 20  1  0  0  0  0
  4  1  1  0  0  0  0
  6  8  2  0  0  0  0
  7 15  1  6  0  0  0
  7 27  1  0  0  0  0
  7  9  1  0  0  0  0
  8 12  1  0  0  0  0
  8 11  1  0  0  0  0
  9 14  1  6  0  0  0
  9 22  1  0  0  0  0
 10 21  1  6  0  0  0
 10  3  1  0  0  0  0
 11 28  1  1  0  0  0
 11  5  1  0  0  0  0
 13 18  1  0  0  0  0
 15 23  1  0  0  0  0
 16  2  2  0  0  0  0
 17  3  1  1  0  0  0
 17 26  1  0  0  0  0
 19 26  1  0  0  0  0
 19  2  1  0  0  0  0
 20 17  1  0  0  0  0
 22 20  1  0  0  0  0
 22 10  1  0  0  0  0
 23 14  1  0  0  0  0
 24 27  2  0  0  0  0
 25 18  2  0  0  0  0
 26 25  1  0  0  0  0
 27 12  1  0  0  0  0
 30 28  1  0  0  0  0
 30 29  1  0  0  0  0
M  END
>  <MODEL>
1

>  <REMARK>
 VINA RESULT:      -6.3      0.000      0.000
  Name = 
  2 active torsions:
  status: ('A' for Active; 'I' for Inactive)
    1  A    between atoms: C_11  and  C_28
    2  A    between atoms: C_28  and  C_30
                            x       y       z     vdW  Elec       q    Type
                         _______ _______ _______ _____ _____    ______ ____

>  <TORSDO>
F 2

$$$$
=
 OpenBabel11122412463D

 30 35  0  0  1  0  0  0  0  0999 V2000
  160.6120  211.7110  150.8730 C   0  0  1  0  0  3  0  0  0  0  0  0
  161.5170  213.5100  149.2780 C   0  0  0  0  0  0  0  0  0  0  0  0
  162.0670  208.6090  148.4830 N   0  0  0  0  0  2  0  0  0  0  0  0
  161.2490  210.5210  151.6110 C   0  0  1  0  0  3  0  0  0  0  0  0
  160.3740  212.7460  151.8000 O   0  0  0  0  0  0  0  0  0  0  0  0
  158.8620  210.7660  154.3590 O   0  0  0  0  0  0  0  0  0  0  0  0
  160.8270  207.5990  153.0770 C   0  0  1  0  0  3  0  0  0  0  0  0
  159.5140  211.0390  153.3150 C   0  0  0  0  0  0  0  0  0  0  0  0
  161.8000  207.3380  151.9580 C   0  0  1  0  0  3  0  0  0  0  0  0
  161.8330  207.4670  149.3820 C   0  0  2  0  0  3  0  0  0  0  0  0
  159.2860  212.3650  152.6280 C   0  0  2  0  0  3  0  0  0  0  0  0
  160.4430  210.0860  152.7610 N   0  0  0  0  0  0  0  0  0  0  0  0
  162.1700  213.8190  147.9650 C   0  0  0  0  0  2  0  0  0  0  0  0
  161.8500  205.8250  151.8840 C   0  0  0  0  0  2  0  0  0  0  0  0
  161.1130  206.5270  154.1070 C   0  0  0  0  0  2  0  0  0  0  0  0
  161.0340  214.4520  149.9600 O   0  0  0  0  0  0  0  0  0  0  0  0
  161.5080  209.7370  149.2090 C   0  0  1  0  0  3  0  0  0  0  0  0
  161.9170  212.6980  146.9960 C   0  0  0  0  0  3  0  0  0  0  0  0
  161.4660  212.1400  149.7380 N   0  0  0  0  0  0  0  0  0  0  0  0
  161.7480  209.4260  150.6480 C   0  0  2  0  0  3  0  0  0  0  0  0
  160.8430  206.5100  148.7460 C   0  0  0  0  0  1  0  0  0  0  0  0
  161.2640  208.0100  150.7010 C   0  0  2  0  0  3  0  0  0  0  0  0
  161.6340  205.3400  153.3100 C   0  0  0  0  0  2  0  0  0  0  0  0
  161.3760  209.2480  154.7340 O   0  0  0  0  0  0  0  0  0  0  0  0
  161.8780  211.4270  147.4170 C   0  0  0  0  0  3  0  0  0  0  0  0
  162.0920  211.1050  148.8730 C   0  0  2  0  0  3  0  0  0  0  0  0
  160.9110  209.0070  153.5850 C   0  0  0  0  0  0  0  0  0  0  0  0
  157.9510  212.3870  151.8810 C   0  0  0  0  0  2  0  0  0  0  0  0
  157.5570  213.6330  149.7570 C   0  0  0  0  0  1  0  0  0  0  0  0
  157.6900  213.7510  151.2630 C   0  0  0  0  0  2  0  0  0  0  0  0
  1  4  1  0  0  0  0
  1  5  1  1  0  0  0
  2 19  1  0  0  0  0
  2 16  2  0  0  0  0
  3 10  1  0  0  0  0
  4 12  1  1  0  0  0
  5 11  1  0  0  0  0
  7 27  1  0  0  0  0
  7 15  1  1  0  0  0
  8  6  2  0  0  0  0
  9 14  1  6  0  0  0
  9  7  1  0  0  0  0
 10 21  1  6  0  0  0
 10 22  1  0  0  0  0
 11 28  1  6  0  0  0
 11  8  1  0  0  0  0
 12  8  1  0  0  0  0
 12 27  1  0  0  0  0
 13  2  1  0  0  0  0
 14 23  1  0  0  0  0
 17  3  1  6  0  0  0
 17 20  1  0  0  0  0
 18 25  2  0  0  0  0
 18 13  1  0  0  0  0
 19  1  1  0  0  0  0
 20 22  1  0  0  0  0
 20  4  1  0  0  0  0
 22  9  1  0  0  0  0
 23 15  1  0  0  0  0
 25 26  1  0  0  0  0
 26 17  1  0  0  0  0
 26 19  1  0  0  0  0
 27 24  2  0  0  0  0
 29 30  1  0  0  0  0
 30 28  1  0  0  0  0
M  END
>  <MODEL>
2

>  <REMARK>
 VINA RESULT:      -6.3      2.088      6.997
  Name = 
  2 active torsions:
  status: ('A' for Active; 'I' for Inactive)
    1  A    between atoms: C_11  and  C_28
    2  A    between atoms: C_28  and  C_30
                            x       y       z     vdW  Elec       q    Type
                         _______ _______ _______ _____ _____    ______ ____

>  <TORSDO>
F 2

$$$$
=
 OpenBabel11122412463D

 30 35  0  0  1  0  0  0  0  0999 V2000
  160.8930  210.6940  152.2170 C   0  0  1  0  0  3  0  0  0  0  0  0
  160.8740  210.8510  154.7810 C   0  0  0  0  0  0  0  0  0  0  0  0
  158.1490  213.8200  151.8270 N   0  0  0  0  0  2  0  0  0  0  0  0
  161.1630  211.7030  151.0870 C   0  0  1  0  0  3  0  0  0  0  0  0
  162.0110  209.8440  152.3430 O   0  0  0  0  0  0  0  0  0  0  0  0
  162.4480  209.1010  148.8770 O   0  0  0  0  0  0  0  0  0  0  0  0
  160.7460  212.5250  147.9230 C   0  0  1  0  0  3  0  0  0  0  0  0
  162.0300  209.6930  149.9090 C   0  0  0  0  0  0  0  0  0  0  0  0
  160.1460  213.6630  148.7050 C   0  0  1  0  0  3  0  0  0  0  0  0
  158.2120  214.0310  150.3720 C   0  0  2  0  0  3  0  0  0  0  0  0
  162.0310  208.9620  151.2310 C   0  0  2  0  0  3  0  0  0  0  0  0
  161.5240  211.0400  149.8260 N   0  0  0  0  0  0  0  0  0  0  0  0
  160.2630  211.4690  156.0020 C   0  0  0  0  0  2  0  0  0  0  0  0
  159.3890  214.4510  147.6530 C   0  0  0  0  0  2  0  0  0  0  0  0
  161.1560  213.1300  146.5960 C   0  0  0  0  0  2  0  0  0  0  0  0
  161.6560  209.8730  154.9130 O   0  0  0  0  0  0  0  0  0  0  0  0
  159.0240  212.6800  152.0470 C   0  0  1  0  0  3  0  0  0  0  0  0
  158.8720  211.9440  155.6890 C   0  0  0  0  0  3  0  0  0  0  0  0
  160.5610  211.3980  153.4790 N   0  0  0  0  0  0  0  0  0  0  0  0
  160.0960  212.8130  151.0180 C   0  0  2  0  0  3  0  0  0  0  0  0
  156.8580  213.7400  149.7540 C   0  0  0  0  0  1  0  0  0  0  0  0
  159.2670  213.0720  149.7980 C   0  0  2  0  0  3  0  0  0  0  0  0
  160.1830  214.2760  146.3650 C   0  0  0  0  0  2  0  0  0  0  0  0
  163.0450  211.9420  148.2970 O   0  0  0  0  0  0  0  0  0  0  0  0
  158.5800  212.4590  154.4880 C   0  0  0  0  0  3  0  0  0  0  0  0
  159.6500  212.5730  153.4330 C   0  0  2  0  0  3  0  0  0  0  0  0
  161.8450  211.8370  148.6750 C   0  0  0  0  0  0  0  0  0  0  0  0
  160.9150  207.9180  151.2950 C   0  0  0  0  0  2  0  0  0  0  0  0
  161.2670  206.4860  153.3060 C   0  0  0  0  0  1  0  0  0  0  0  0
  161.4400  206.5840  151.8030 C   0  0  0  0  0  2  0  0  0  0  0  0
  1  5  1  1  0  0  0
  1 19  1  0  0  0  0
  2 16  2  0  0  0  0
  2 13  1  0  0  0  0
  4 12  1  6  0  0  0
  4  1  1  0  0  0  0
  6  8  2  0  0  0  0
  7 15  1  6  0  0  0
  7 27  1  0  0  0  0
  7  9  1  0  0  0  0
  8 11  1  0  0  0  0
  9 14  1  6  0  0  0
  9 22  1  0  0  0  0
 10 21  1  6  0  0  0
 10  3  1  0  0  0  0
 11 28  1  6  0  0  0
 11  5  1  0  0  0  0
 12  8  1  0  0  0  0
 17  3  1  1  0  0  0
 17 26  1  0  0  0  0
 18 13  1  0  0  0  0
 19  2  1  0  0  0  0
 20  4  1  0  0  0  0
 20 17  1  0  0  0  0
 22 10  1  0  0  0  0
 22 20  1  0  0  0  0
 23 15  1  0  0  0  0
 23 14  1  0  0  0  0
 24 27  2  0  0  0  0
 25 18  2  0  0  0  0
 26 19  1  0  0  0  0
 26 25  1  0  0  0  0
 27 12  1  0  0  0  0
 28 30  1  0  0  0  0
 30 29  1  0  0  0  0
M  END
>  <MODEL>
3

>  <REMARK>
 VINA RESULT:      -6.2      1.717      2.362
  Name = 
  2 active torsions:
  status: ('A' for Active; 'I' for Inactive)
    1  A    between atoms: C_11  and  C_28
    2  A    between atoms: C_28  and  C_30
                            x       y       z     vdW  Elec       q    Type
                         _______ _______ _______ _____ _____    ______ ____

>  <TORSDO>
F 2

$$$$
=
 OpenBabel11122412463D

 30 35  0  0  1  0  0  0  0  0999 V2000
  160.0740  212.2270  151.4160 C   0  0  1  0  0  3  0  0  0  0  0  0
  161.2530  213.3780  149.4450 C   0  0  0  0  0  0  0  0  0  0  0  0
  162.0680  208.6210  150.7320 N   0  0  0  0  0  2  0  0  0  0  0  0
  160.5680  211.4730  152.6620 C   0  0  1  0  0  3  0  0  0  0  0  0
  159.6240  213.5050  151.8070 O   0  0  0  0  0  0  0  0  0  0  0  0
  157.6530  212.4870  154.6070 O   0  0  0  0  0  0  0  0  0  0  0  0
  159.9140  209.2890  155.0420 C   0  0  1  0  0  3  0  0  0  0  0  0
  158.5040  212.4130  153.6780 C   0  0  0  0  0  0  0  0  0  0  0  0
  161.1060  208.7280  154.3130 C   0  0  1  0  0  3  0  0  0  0  0  0
  161.6770  207.8830  151.9440 C   0  0  2  0  0  3  0  0  0  0  0  0
  158.3950  213.3540  152.5010 C   0  0  2  0  0  3  0  0  0  0  0  0
  159.5490  211.4220  153.7200 N   0  0  0  0  0  0  0  0  0  0  0  0
  162.1600  213.2370  148.2600 C   0  0  0  0  0  2  0  0  0  0  0  0
  161.2060  207.3110  154.8430 C   0  0  0  0  0  2  0  0  0  0  0  0
  160.0020  208.7170  156.4420 C   0  0  0  0  0  2  0  0  0  0  0  0
  160.6160  214.4530  149.6050 O   0  0  0  0  0  0  0  0  0  0  0  0
  161.3440  209.8760  150.8460 C   0  0  1  0  0  3  0  0  0  0  0  0
  162.1410  211.8150  147.7740 C   0  0  0  0  0  3  0  0  0  0  0  0
  161.1370  212.2840  150.3830 N   0  0  0  0  0  0  0  0  0  0  0  0
  161.2840  210.1540  152.3100 C   0  0  2  0  0  3  0  0  0  0  0  0
  160.8640  206.6620  151.5580 C   0  0  0  0  0  1  0  0  0  0  0  0
  160.8310  208.8200  152.8190 C   0  0  2  0  0  3  0  0  0  0  0  0
  160.7050  207.3780  156.2800 C   0  0  0  0  0  2  0  0  0  0  0  0
  160.0660  211.4860  155.9990 O   0  0  0  0  0  0  0  0  0  0  0  0
  162.0430  210.7970  148.6400 C   0  0  0  0  0  3  0  0  0  0  0  0
  161.9550  211.0700  150.1190 C   0  0  2  0  0  3  0  0  0  0  0  0
  159.8580  210.7850  154.9700 C   0  0  0  0  0  0  0  0  0  0  0  0
  157.2460  212.9580  151.5720 C   0  0  0  0  0  2  0  0  0  0  0  0
  157.0690  213.3380  149.1130 C   0  0  0  0  0  1  0  0  0  0  0  0
  157.0410  213.9960  150.4800 C   0  0  0  0  0  2  0  0  0  0  0  0
  1  5  1  1  0  0  0
  1  4  1  0  0  0  0
  2 16  2  0  0  0  0
  2 19  1  0  0  0  0
  3 10  1  0  0  0  0
  4 12  1  1  0  0  0
  5 11  1  0  0  0  0
  7 15  1  1  0  0  0
  8 12  1  0  0  0  0
  8  6  2  0  0  0  0
  9 14  1  1  0  0  0
  9  7  1  0  0  0  0
 10 21  1  6  0  0  0
 10 22  1  0  0  0  0
 11 28  1  6  0  0  0
 11  8  1  0  0  0  0
 12 27  1  0  0  0  0
 13  2  1  0  0  0  0
 14 23  1  0  0  0  0
 17  3  1  1  0  0  0
 17 20  1  0  0  0  0
 18 13  1  0  0  0  0
 18 25  2  0  0  0  0
 19  1  1  0  0  0  0
 20  4  1  0  0  0  0
 20 22  1  0  0  0  0
 22  9  1  0  0  0  0
 23 15  1  0  0  0  0
 25 26  1  0  0  0  0
 26 19  1  0  0  0  0
 26 17  1  0  0  0  0
 27  7  1  0  0  0  0
 27 24  2  0  0  0  0
 29 30  1  0  0  0  0
 30 28  1  0  0  0  0
M  END
>  <MODEL>
4

>  <REMARK>
 VINA RESULT:      -5.7      2.452      7.093
  Name = 
  2 active torsions:
  status: ('A' for Active; 'I' for Inactive)
    1  A    between atoms: C_11  and  C_28
    2  A    between atoms: C_28  and  C_30
                            x       y       z     vdW  Elec       q    Type
                         _______ _______ _______ _____ _____    ______ ____

>  <TORSDO>
F 2

$$$$
=
 OpenBabel11122412463D

 30 35  0  0  1  0  0  0  0  0999 V2000
  159.8030  212.7460  150.5660 C   0  0  1  0  0  3  0  0  0  0  0  0
  161.2530  213.4550  148.5670 C   0  0  0  0  0  0  0  0  0  0  0  0
  162.1190  209.3400  151.2650 N   0  0  0  0  0  2  0  0  0  0  0  0
  160.1030  212.4140  152.0380 C   0  0  1  0  0  3  0  0  0  0  0  0
  159.2050  214.0210  150.5000 O   0  0  0  0  0  0  0  0  0  0  0  0
  156.8150  213.5710  153.1160 O   0  0  0  0  0  0  0  0  0  0  0  0
  159.1570  210.8850  154.8010 C   0  0  1  0  0  3  0  0  0  0  0  0
  157.8280  213.3490  152.3970 C   0  0  0  0  0  0  0  0  0  0  0  0
  160.4980  210.2900  154.4630 C   0  0  1  0  0  3  0  0  0  0  0  0
  161.5560  208.9130  152.5560 C   0  0  2  0  0  3  0  0  0  0  0  0
  157.8810  213.9210  151.0010 C   0  0  2  0  0  3  0  0  0  0  0  0
  158.9090  212.5310  152.8870 N   0  0  0  0  0  0  0  0  0  0  0  0
  162.3730  213.1060  147.6340 C   0  0  0  0  0  2  0  0  0  0  0  0
  160.5880  209.0870  155.3820 C   0  0  0  0  0  2  0  0  0  0  0  0
  159.0180  210.7220  156.3000 C   0  0  0  0  0  2  0  0  0  0  0  0
  160.5290  214.4530  148.3110 O   0  0  0  0  0  0  0  0  0  0  0  0
  161.3070  210.4890  150.8990 C   0  0  1  0  0  3  0  0  0  0  0  0
  162.5380  211.6130  147.5750 C   0  0  0  0  0  3  0  0  0  0  0  0
  161.0350  212.6450  149.7460 N   0  0  0  0  0  0  0  0  0  0  0  0
  160.9550  211.1390  152.1950 C   0  0  2  0  0  3  0  0  0  0  0  0
  160.9100  207.5490  152.4060 C   0  0  0  0  0  1  0  0  0  0  0  0
  160.5020  209.9470  152.9810 C   0  0  2  0  0  3  0  0  0  0  0  0
  159.8240  209.4780  156.6400 C   0  0  0  0  0  2  0  0  0  0  0  0
  158.9840  213.2610  155.1060 O   0  0  0  0  0  0  0  0  0  0  0  0
  162.3450  210.8600  148.6660 C   0  0  0  0  0  3  0  0  0  0  0  0
  161.9640  211.5060  149.9730 C   0  0  2  0  0  3  0  0  0  0  0  0
  159.0190  212.2910  154.2990 C   0  0  0  0  0  0  0  0  0  0  0  0
  156.9540  213.1630  150.0480 C   0  0  0  0  0  2  0  0  0  0  0  0
  157.4570  212.7890  147.6340 C   0  0  0  0  0  1  0  0  0  0  0  0
  156.9610  213.7880  148.6620 C   0  0  0  0  0  2  0  0  0  0  0  0
  1  5  1  1  0  0  0
  1  4  1  0  0  0  0
  2 19  1  0  0  0  0
  3 10  1  0  0  0  0
  4 20  1  0  0  0  0
  4 12  1  1  0  0  0
  5 11  1  0  0  0  0
  7 15  1  1  0  0  0
  8 12  1  0  0  0  0
  8  6  2  0  0  0  0
  9  7  1  0  0  0  0
  9 14  1  1  0  0  0
 10 21  1  6  0  0  0
 10 22  1  0  0  0  0
 11 28  1  6  0  0  0
 11  8  1  0  0  0  0
 12 27  1  0  0  0  0
 13  2  1  0  0  0  0
 14 23  1  0  0  0  0
 15 23  1  0  0  0  0
 16  2  2  0  0  0  0
 17  3  1  1  0  0  0
 17 20  1  0  0  0  0
 18 13  1  0  0  0  0
 18 25  2  0  0  0  0
 19 26  1  0  0  0  0
 19  1  1  0  0  0  0
 20 22  1  0  0  0  0
 22  9  1  0  0  0  0
 25 26  1  0  0  0  0
 26 17  1  0  0  0  0
 27  7  1  0  0  0  0
 27 24  2  0  0  0  0
 29 30  1  0  0  0  0
 30 28  1  0  0  0  0
M  END
>  <MODEL>
5

>  <REMARK>
 VINA RESULT:      -5.3      2.828      7.042
  Name = 
  2 active torsions:
  status: ('A' for Active; 'I' for Inactive)
    1  A    between atoms: C_11  and  C_28
    2  A    between atoms: C_28  and  C_30
                            x       y       z     vdW  Elec       q    Type
                         _______ _______ _______ _____ _____    ______ ____

>  <TORSDO>
F 2

$$$$
=
 OpenBabel11122412463D

 30 35  0  0  1  0  0  0  0  0999 V2000
  160.4620  211.3730  138.3460 C   0  0  1  0  0  3  0  0  0  0  0  0
  162.8650  212.1360  137.8530 C   0  0  0  0  0  0  0  0  0  0  0  0
  159.8630  214.4520  141.1060 N   0  0  0  0  0  2  0  0  0  0  0  0
  159.0910  212.0710  138.3050 C   0  0  1  0  0  3  0  0  0  0  0  0
  160.5720  210.5230  137.2270 O   0  0  0  0  0  0  0  0  0  0  0  0
  157.3720  208.9570  137.4920 O   0  0  0  0  0  0  0  0  0  0  0  0
  155.9640  212.1380  139.3440 C   0  0  1  0  0  3  0  0  0  0  0  0
  158.2910  209.7980  137.6950 C   0  0  0  0  0  0  0  0  0  0  0  0
  156.5470  213.4580  139.7730 C   0  0  1  0  0  3  0  0  0  0  0  0
  158.4160  214.3080  141.3340 C   0  0  2  0  0  3  0  0  0  0  0  0
  159.7240  209.4030  137.4310 C   0  0  2  0  0  3  0  0  0  0  0  0
  157.9830  211.1110  138.2040 N   0  0  0  0  0  0  0  0  0  0  0  0
  163.9940  213.0550  138.2060 C   0  0  0  0  0  2  0  0  0  0  0  0
  155.5020  214.0110  140.7230 C   0  0  0  0  0  2  0  0  0  0  0  0
  154.4770  212.3900  139.2050 C   0  0  0  0  0  2  0  0  0  0  0  0
  163.0770  211.1790  137.0620 O   0  0  0  0  0  0  0  0  0  0  0  0
  160.1800  213.3540  140.2080 C   0  0  1  0  0  3  0  0  0  0  0  0
  163.8500  213.5120  139.6310 C   0  0  0  0  0  3  0  0  0  0  0  0
  161.5550  212.3730  138.4180 N   0  0  0  0  0  0  0  0  0  0  0  0
  158.9620  213.1850  139.3620 C   0  0  2  0  0  3  0  0  0  0  0  0
  158.1610  213.9470  142.7850 C   0  0  0  0  0  1  0  0  0  0  0  0
  157.8990  213.1890  140.4180 C   0  0  2  0  0  3  0  0  0  0  0  0
  154.1670  213.4960  140.2030 C   0  0  0  0  0  2  0  0  0  0  0  0
  156.0160  211.5460  137.0180 O   0  0  0  0  0  0  0  0  0  0  0  0
  162.6390  213.7420  140.1560 C   0  0  0  0  0  3  0  0  0  0  0  0
  161.4030  213.5480  139.3180 C   0  0  2  0  0  3  0  0  0  0  0  0
  156.6330  211.5940  138.1180 C   0  0  0  0  0  0  0  0  0  0  0  0
  160.2540  208.4600  138.5140 C   0  0  0  0  0  2  0  0  0  0  0  0
  162.1130  206.9460  139.2010 C   0  0  0  0  0  1  0  0  0  0  0  0
  161.5530  207.8010  138.0790 C   0  0  0  0  0  2  0  0  0  0  0  0
  1  5  1  6  0  0  0
  1 19  1  0  0  0  0
  2 13  1  0  0  0  0
  2 19  1  0  0  0  0
  3 10  1  0  0  0  0
  4 12  1  1  0  0  0
  4  1  1  0  0  0  0
  4 20  1  0  0  0  0
  5 11  1  0  0  0  0
  6  8  2  0  0  0  0
  7 15  1  6  0  0  0
  7  9  1  0  0  0  0
  8 12  1  0  0  0  0
  9 22  1  0  0  0  0
  9 14  1  1  0  0  0
 10 21  1  1  0  0  0
 11  8  1  0  0  0  0
 11 28  1  1  0  0  0
 13 18  1  0  0  0  0
 15 23  1  0  0  0  0
 16  2  2  0  0  0  0
 17  3  1  1  0  0  0
 18 25  2  0  0  0  0
 19 26  1  0  0  0  0
 20 17  1  0  0  0  0
 20 22  1  0  0  0  0
 22 10  1  0  0  0  0
 23 14  1  0  0  0  0
 24 27  2  0  0  0  0
 26 25  1  0  0  0  0
 26 17  1  0  0  0  0
 27 12  1  0  0  0  0
 27  7  1  0  0  0  0
 30 28  1  0  0  0  0
 30 29  1  0  0  0  0
M  END
>  <MODEL>
6

>  <REMARK>
 VINA RESULT:      -4.2     11.146     13.371
  Name = 
  2 active torsions:
  status: ('A' for Active; 'I' for Inactive)
    1  A    between atoms: C_11  and  C_28
    2  A    between atoms: C_28  and  C_30
                            x       y       z     vdW  Elec       q    Type
                         _______ _______ _______ _____ _____    ______ ____

>  <TORSDO>
F 2

$$$$
