=
 OpenBabel11122413143D

 31 35  0  0  1  0  0  0  0  0999 V2000
  161.7530  207.0810  152.2560 C   0  0  0  0  0  0  0  0  0  0  0  0
  159.6530  210.1130  153.1990 C   0  0  2  0  0  3  0  0  0  0  0  0
  160.2220  210.6250  154.5200 C   0  0  2  0  0  3  0  0  0  0  0  0
  161.7640  210.3950  156.4420 N   0  0  0  0  0  0  0  0  0  0  0  0
  160.6250  209.2200  152.4690 C   0  0  0  0  0  0  0  0  0  0  0  0
  162.4930  207.5740  151.1800 C   0  0  0  0  0  3  0  0  0  0  0  0
  161.0340  209.6900  155.3880 C   0  0  0  0  0  2  0  0  0  0  0  0
  160.3910  211.9560  151.7320 N   0  0  0  0  0  0  0  0  0  0  0  0
  161.9410  205.8090  152.6820 F   0  0  0  0  0  0  0  0  0  0  0  0
  158.9520  212.6660  154.2630 N   0  0  0  0  0  0  0  0  0  0  0  0
  162.8160  209.6970  157.1540 C   0  0  0  0  0  1  0  0  0  0  0  0
  161.0640  211.0580  150.7870 C   0  0  0  0  0  2  0  0  0  0  0  0
  159.2040  211.2630  152.2700 C   0  0  2  0  0  3  0  0  0  0  0  0
  160.8190  207.9000  152.8970 C   0  0  0  0  0  3  0  0  0  0  0  0
  161.3110  211.6570  156.9390 C   0  0  0  0  0  3  0  0  0  0  0  0
  161.3700  209.7130  151.3790 C   0  0  0  0  0  0  0  0  0  0  0  0
  162.2940  208.8840  150.7350 C   0  0  0  0  0  3  0  0  0  0  0  0
  158.2800  212.1950  153.0600 C   0  0  0  0  0  2  0  0  0  0  0  0
  159.8430  211.8280  155.0050 C   0  0  0  0  0  0  0  0  0  0  0  0
  160.3910  212.3440  156.2690 C   0  0  0  0  0  3  0  0  0  0  0  0
  159.9690  213.1100  150.9380 C   0  0  0  0  0  2  0  0  0  0  0  0
  161.4940  214.4520  149.6750 O   0  0  0  0  0  1  0  0  0  0  0  0
  160.8060  213.2330  149.6600 C   0  0  2  0  0  3  0  0  0  0  0  0
  159.4560  213.5570  145.6650 N   0  0  0  0  0  0  0  0  0  0  0  0
  159.6510  214.4530  147.9310 C   0  0  0  0  0  2  0  0  0  0  0  0
  161.8880  212.9090  147.0950 O   0  0  0  0  0  1  0  0  0  0  0  0
  158.5140  213.3690  144.5780 C   0  0  0  0  0  1  0  0  0  0  0  0
  158.7570  214.3160  146.7010 C   0  0  0  0  0  2  0  0  0  0  0  0
  160.6550  212.3350  147.4300 C   0  0  1  0  0  3  0  0  0  0  0  0
  159.9570  213.1200  148.4650 N   0  0  0  0  0  0  0  0  0  0  0  0
  159.7730  212.2250  146.1820 C   0  0  0  0  0  2  0  0  0  0  0  0
  1  9  1  0  0  0  0
  1 14  1  0  0  0  0
  2  5  1  6  0  0  0
  2  3  1  0  0  0  0
  3 19  1  0  0  0  0
  3  7  1  1  0  0  0
  4 15  1  0  0  0  0
  4 11  1  0  0  0  0
  5 14  2  0  0  0  0
  6  1  2  0  0  0  0
  7  4  1  0  0  0  0
  8 13  1  0  0  0  0
 10 19  2  0  0  0  0
 12 16  1  0  0  0  0
 12  8  1  0  0  0  0
 13 18  1  1  0  0  0
 13  2  1  0  0  0  0
 16  5  1  0  0  0  0
 17  6  1  0  0  0  0
 17 16  2  0  0  0  0
 18 10  1  0  0  0  0
 19 20  1  0  0  0  0
 20 15  2  0  0  0  0
 21  8  1  0  0  0  0
 23 22  1  1  0  0  0
 23 21  1  0  0  0  0
 24 31  1  0  0  0  0
 24 28  1  0  0  0  0
 25 30  1  0  0  0  0
 27 24  1  0  0  0  0
 28 25  1  0  0  0  0
 29 26  1  6  0  0  0
 29 30  1  0  0  0  0
 30 23  1  0  0  0  0
 31 29  1  0  0  0  0
M  END
>  <MODEL>
1

>  <REMARK>
 VINA RESULT:      -5.9      0.000      0.000
  Name = 
  3 active torsions:
  status: ('A' for Active; 'I' for Inactive)
    1  A    between atoms: C_5  and  C_16
    2  A    between atoms: C_5  and  N_30
    3  A    between atoms: N_10  and  C_16
                            x       y       z     vdW  Elec       q    Type
                         _______ _______ _______ _____ _____    ______ ____

>  <TORSDO>
F 3

$$$$
=
 OpenBabel11122413143D

 31 35  0  0  1  0  0  0  0  0999 V2000
  160.9130  205.0970  145.3800 C   0  0  0  0  0  0  0  0  0  0  0  0
  160.4050  205.5180  149.1290 C   0  0  2  0  0  3  0  0  0  0  0  0
  160.7220  204.1610  149.7530 C   0  0  0  0  0  0  0  0  0  0  0  0
  161.2860  201.7610  149.5320 N   0  0  0  0  0  0  0  0  0  0  0  0
  160.9800  205.6550  147.7410 C   0  0  0  0  0  0  0  0  0  0  0  0
  162.0860  205.8250  145.1710 C   0  0  0  0  0  3  0  0  0  0  0  0
  160.6620  202.9180  148.8910 C   0  0  0  0  0  2  0  0  0  0  0  0
  162.3580  206.7790  149.9610 N   0  0  0  0  0  0  0  0  0  0  0  0
  160.3130  204.4670  144.3420 F   0  0  0  0  0  0  0  0  0  0  0  0
  160.7660  205.1880  151.9400 N   0  0  0  0  0  2  0  0  0  0  0  0
  161.5870  200.5920  148.7290 C   0  0  0  0  0  1  0  0  0  0  0  0
  162.7510  207.2330  148.6220 C   0  0  0  0  0  2  0  0  0  0  0  0
  160.8850  206.6930  150.0100 C   0  0  2  0  0  3  0  0  0  0  0  0
  160.3600  205.0140  146.6610 C   0  0  0  0  0  3  0  0  0  0  0  0
  161.3870  201.6680  150.9550 C   0  0  0  0  0  3  0  0  0  0  0  0
  162.1600  206.3940  147.5260 C   0  0  0  0  0  0  0  0  0  0  0  0
  162.7020  206.4830  146.2390 C   0  0  0  0  0  3  0  0  0  0  0  0
  160.3500  206.4870  151.4310 C   0  0  0  0  0  2  0  0  0  0  0  0
  160.8580  204.0400  151.0910 C   0  0  0  0  0  0  0  0  0  0  0  0
  161.1760  202.7430  151.7080 C   0  0  0  0  0  3  0  0  0  0  0  0
  162.8200  207.8220  150.8760 C   0  0  0  0  0  2  0  0  0  0  0  0
  162.3500  210.0880  150.2720 O   0  0  0  0  0  1  0  0  0  0  0  0
  161.8190  208.9790  150.9410 C   0  0  2  0  0  3  0  0  0  0  0  0
  160.9820  211.2140  154.4330 N   0  0  0  0  0  0  0  0  0  0  0  0
  162.5670  210.1120  152.9330 C   0  0  0  0  0  2  0  0  0  0  0  0
  160.3180  211.2490  151.6150 O   0  0  0  0  0  1  0  0  0  0  0  0
  160.6490  211.3850  155.8350 C   0  0  0  0  0  1  0  0  0  0  0  0
  162.2160  210.4320  154.3850 C   0  0  0  0  0  2  0  0  0  0  0  0
  160.2340  210.0800  152.3830 C   0  0  1  0  0  3  0  0  0  0  0  0
  161.4910  209.3110  152.3350 N   0  0  0  0  0  0  0  0  0  0  0  0
  159.8980  210.4320  153.8360 C   0  0  0  0  0  2  0  0  0  0  0  0
  1 14  1  0  0  0  0
  2  5  1  6  0  0  0
  2  3  1  0  0  0  0
  2 13  1  0  0  0  0
  3 19  2  0  0  0  0
  4 15  1  0  0  0  0
  6  1  2  0  0  0  0
  6 17  1  0  0  0  0
  7  4  1  0  0  0  0
  7  3  1  0  0  0  0
  8 13  1  0  0  0  0
  8 21  1  0  0  0  0
  9  1  1  0  0  0  0
 11  4  1  0  0  0  0
 12  8  1  0  0  0  0
 13 18  1  1  0  0  0
 14  5  2  0  0  0  0
 15 20  2  0  0  0  0
 16  5  1  0  0  0  0
 16 12  1  0  0  0  0
 17 16  2  0  0  0  0
 18 10  1  0  0  0  0
 19 20  1  0  0  0  0
 19 10  1  0  0  0  0
 21 23  1  0  0  0  0
 23 22  1  1  0  0  0
 23 30  1  0  0  0  0
 24 27  1  0  0  0  0
 25 28  1  0  0  0  0
 28 24  1  0  0  0  0
 29 26  1  6  0  0  0
 29 31  1  0  0  0  0
 30 29  1  0  0  0  0
 30 25  1  0  0  0  0
 31 24  1  0  0  0  0
M  END
>  <MODEL>
2

>  <REMARK>
 VINA RESULT:      -5.1      4.691      7.765
  Name = 
  3 active torsions:
  status: ('A' for Active; 'I' for Inactive)
    1  A    between atoms: C_5  and  C_16
    2  A    between atoms: C_5  and  N_30
    3  A    between atoms: N_10  and  C_16
                            x       y       z     vdW  Elec       q    Type
                         _______ _______ _______ _____ _____    ______ ____

>  <TORSDO>
F 3

$$$$
=
 OpenBabel11122413143D

 31 35  0  0  1  0  0  0  0  0999 V2000
  161.3520  213.1930  147.8770 C   0  0  0  0  0  0  0  0  0  0  0  0
  161.8210  211.4840  151.2460 C   0  0  2  0  0  3  0  0  0  0  0  0
  160.5050  211.6670  151.9990 C   0  0  0  0  0  0  0  0  0  0  0  0
  158.2360  212.6390  152.1770 N   0  0  0  0  0  0  0  0  0  0  0  0
  161.6620  211.6940  149.7610 C   0  0  0  0  0  0  0  0  0  0  0  0
  161.2740  212.0970  147.0140 C   0  0  0  0  0  3  0  0  0  0  0  0
  159.5680  212.7830  151.5890 C   0  0  0  0  0  2  0  0  0  0  0  0
  161.6770  209.0560  150.8240 N   0  0  0  0  0  0  0  0  0  0  0  0
  161.2340  214.4500  147.3880 F   0  0  0  0  0  0  0  0  0  0  0  0
  161.2170  210.0240  153.6230 N   0  0  0  0  0  2  0  0  0  0  0  0
  157.1460  213.4360  151.6480 C   0  0  0  0  0  1  0  0  0  0  0  0
  161.8780  209.2020  149.3780 C   0  0  0  0  0  2  0  0  0  0  0  0
  162.4580  210.1020  151.5120 C   0  0  2  0  0  3  0  0  0  0  0  0
  161.5480  212.9920  149.2460 C   0  0  0  0  0  3  0  0  0  0  0  0
  158.0380  211.9180  153.3960 C   0  0  0  0  0  3  0  0  0  0  0  0
  161.5870  210.5910  148.8870 C   0  0  0  0  0  0  0  0  0  0  0  0
  161.4030  210.8000  147.5160 C   0  0  0  0  0  3  0  0  0  0  0  0
  162.5380  209.8850  153.0260 C   0  0  0  0  0  2  0  0  0  0  0  0
  160.2680  210.9780  153.1360 C   0  0  0  0  0  0  0  0  0  0  0  0
  159.0010  211.1320  153.8680 C   0  0  0  0  0  3  0  0  0  0  0  0
  162.2160  207.7390  151.1600 C   0  0  0  0  0  2  0  0  0  0  0  0
  160.8980  206.4480  152.6830 O   0  0  0  0  0  1  0  0  0  0  0  0
  161.0920  206.7100  151.3220 C   0  0  2  0  0  3  0  0  0  0  0  0
  160.6860  203.3690  148.7600 N   0  0  0  0  0  0  0  0  0  0  0  0
  160.4620  204.4120  150.9600 C   0  0  0  0  0  2  0  0  0  0  0  0
  160.0260  206.1880  148.7830 O   0  0  0  0  0  1  0  0  0  0  0  0
  161.1360  202.1590  148.1000 C   0  0  0  0  0  1  0  0  0  0  0  0
  160.8090  203.1350  150.1980 C   0  0  0  0  0  2  0  0  0  0  0  0
  161.2990  205.7200  149.1350 C   0  0  1  0  0  3  0  0  0  0  0  0
  161.4020  205.4760  150.5860 N   0  0  0  0  0  0  0  0  0  0  0  0
  161.6130  204.4320  148.3690 C   0  0  0  0  0  2  0  0  0  0  0  0
  1 14  1  0  0  0  0
  2  5  1  6  0  0  0
  2 13  1  0  0  0  0
  2  3  1  0  0  0  0
  3 19  2  0  0  0  0
  4 15  1  0  0  0  0
  6 17  1  0  0  0  0
  6  1  2  0  0  0  0
  7  3  1  0  0  0  0
  7  4  1  0  0  0  0
  8 21  1  0  0  0  0
  8 13  1  0  0  0  0
  9  1  1  0  0  0  0
 11  4  1  0  0  0  0
 12  8  1  0  0  0  0
 13 18  1  1  0  0  0
 14  5  2  0  0  0  0
 15 20  2  0  0  0  0
 16 12  1  0  0  0  0
 16  5  1  0  0  0  0
 17 16  2  0  0  0  0
 18 10  1  0  0  0  0
 19 10  1  0  0  0  0
 19 20  1  0  0  0  0
 21 23  1  0  0  0  0
 23 22  1  1  0  0  0
 24 28  1  0  0  0  0
 27 24  1  0  0  0  0
 28 25  1  0  0  0  0
 29 26  1  1  0  0  0
 29 30  1  0  0  0  0
 30 25  1  0  0  0  0
 30 23  1  0  0  0  0
 31 24  1  0  0  0  0
 31 29  1  0  0  0  0
M  END
>  <MODEL>
3

>  <REMARK>
 VINA RESULT:      -4.9      4.059      6.795
  Name = 
  3 active torsions:
  status: ('A' for Active; 'I' for Inactive)
    1  A    between atoms: C_5  and  C_16
    2  A    between atoms: C_5  and  N_30
    3  A    between atoms: N_10  and  C_16
                            x       y       z     vdW  Elec       q    Type
                         _______ _______ _______ _____ _____    ______ ____

>  <TORSDO>
F 3

$$$$
=
 OpenBabel11122413143D

 31 35  0  0  1  0  0  0  0  0999 V2000
  161.3630  200.6200  148.5050 C   0  0  0  0  0  0  0  0  0  0  0  0
  162.0210  204.3570  148.1980 C   0  0  2  0  0  3  0  0  0  0  0  0
  161.3060  204.8090  146.9280 C   0  0  0  0  0  0  0  0  0  0  0  0
  160.0190  204.2990  144.8750 N   0  0  0  0  0  0  0  0  0  0  0  0
  161.5010  203.0350  148.7060 C   0  0  0  0  0  0  0  0  0  0  0  0
  160.4720  200.5790  149.5800 C   0  0  0  0  0  3  0  0  0  0  0  0
  160.9650  203.7850  145.8660 C   0  0  0  0  0  2  0  0  0  0  0  0
  160.5690  205.4610  149.8610 N   0  0  0  0  0  0  0  0  0  0  0  0
  161.7240  199.4750  147.8790 F   0  0  0  0  0  0  0  0  0  0  0  0
  161.6090  207.1140  147.5880 N   0  0  0  0  0  2  0  0  0  0  0  0
  159.3600  203.3640  143.9850 C   0  0  0  0  0  1  0  0  0  0  0  0
  160.3200  204.2200  150.6040 C   0  0  0  0  0  2  0  0  0  0  0  0
  161.9420  205.4150  149.3210 C   0  0  2  0  0  3  0  0  0  0  0  0
  161.8780  201.8450  148.0710 C   0  0  0  0  0  3  0  0  0  0  0  0
  159.9120  205.7000  144.6110 C   0  0  0  0  0  3  0  0  0  0  0  0
  160.6070  202.9890  149.7940 C   0  0  0  0  0  0  0  0  0  0  0  0
  160.1050  201.7590  150.2310 C   0  0  0  0  0  3  0  0  0  0  0  0
  162.4040  206.7620  148.7570 C   0  0  0  0  0  2  0  0  0  0  0  0
  161.1550  206.1250  146.6600 C   0  0  0  0  0  0  0  0  0  0  0  0
  160.4560  206.5780  145.4480 C   0  0  0  0  0  3  0  0  0  0  0  0
  160.4650  206.5330  150.8500 C   0  0  0  0  0  2  0  0  0  0  0  0
  161.2060  205.3470  152.7910 O   0  0  0  0  0  1  0  0  0  0  0  0
  161.5460  206.3940  151.9270 C   0  0  2  0  0  3  0  0  0  0  0  0
  160.6880  209.7950  154.2900 N   0  0  0  0  0  0  0  0  0  0  0  0
  160.8310  208.6880  152.1150 C   0  0  0  0  0  2  0  0  0  0  0  0
  160.0840  206.9640  154.2490 O   0  0  0  0  0  1  0  0  0  0  0  0
  161.0090  211.0320  154.9770 C   0  0  0  0  0  1  0  0  0  0  0  0
  161.0330  209.9930  152.8830 C   0  0  0  0  0  2  0  0  0  0  0  0
  161.3900  207.4470  154.0880 C   0  0  1  0  0  3  0  0  0  0  0  0
  161.7160  207.6540  152.6650 N   0  0  0  0  0  0  0  0  0  0  0  0
  161.5590  208.7620  154.8540 C   0  0  0  0  0  2  0  0  0  0  0  0
  1  6  1  0  0  0  0
  2  3  1  6  0  0  0
  2  5  1  0  0  0  0
  2 13  1  0  0  0  0
  4  7  1  0  0  0  0
  5 16  2  0  0  0  0
  6 17  2  0  0  0  0
  7  3  1  0  0  0  0
  8 12  1  0  0  0  0
  8 21  1  0  0  0  0
  9  1  1  0  0  0  0
 10 18  1  0  0  0  0
 11  4  1  0  0  0  0
 13 18  1  6  0  0  0
 13  8  1  0  0  0  0
 14  1  2  0  0  0  0
 14  5  1  0  0  0  0
 15  4  1  0  0  0  0
 15 20  2  0  0  0  0
 16 17  1  0  0  0  0
 16 12  1  0  0  0  0
 19  3  2  0  0  0  0
 19 10  1  0  0  0  0
 20 19  1  0  0  0  0
 21 23  1  0  0  0  0
 23 30  1  0  0  0  0
 23 22  1  1  0  0  0
 24 31  1  0  0  0  0
 24 27  1  0  0  0  0
 25 30  1  0  0  0  0
 25 28  1  0  0  0  0
 28 24  1  0  0  0  0
 29 26  1  6  0  0  0
 29 31  1  0  0  0  0
 30 29  1  0  0  0  0
M  END
>  <MODEL>
4

>  <REMARK>
 VINA RESULT:      -4.5      5.622      9.196
  Name = 
  3 active torsions:
  status: ('A' for Active; 'I' for Inactive)
    1  A    between atoms: C_5  and  C_16
    2  A    between atoms: C_5  and  N_30
    3  A    between atoms: N_10  and  C_16
                            x       y       z     vdW  Elec       q    Type
                         _______ _______ _______ _____ _____    ______ ____

>  <TORSDO>
F 3

$$$$
=
 OpenBabel11122413143D

 31 35  0  0  1  0  0  0  0  0999 V2000
  159.3830  211.1640  154.6330 C   0  0  0  0  0  0  0  0  0  0  0  0
  160.7280  212.7120  151.4250 C   0  0  2  0  0  3  0  0  0  0  0  0
  161.1820  211.5450  150.5520 C   0  0  2  0  0  3  0  0  0  0  0  0
  161.6010  209.1280  150.2230 N   0  0  0  0  0  0  0  0  0  0  0  0
  159.7760  212.2750  152.5100 C   0  0  0  0  0  0  0  0  0  0  0  0
  158.0100  211.3750  154.4930 C   0  0  0  0  0  3  0  0  0  0  0  0
  161.4900  210.2120  151.1990 C   0  0  0  0  0  2  0  0  0  0  0  0
  158.7610  213.4210  150.1140 N   0  0  0  0  0  0  0  0  0  0  0  0
  159.8620  210.5190  155.7230 F   0  0  0  0  0  0  0  0  0  0  0  0
  161.3550  213.0410  148.6610 N   0  0  0  0  0  0  0  0  0  0  0  0
  161.5840  207.7570  150.6940 C   0  0  0  0  0  1  0  0  0  0  0  0
  157.8510  213.3440  151.2630 C   0  0  0  0  0  2  0  0  0  0  0  0
  160.0890  213.8480  150.5970 C   0  0  2  0  0  3  0  0  0  0  0  0
  160.2640  211.6150  153.6460 C   0  0  0  0  0  3  0  0  0  0  0  0
  161.9600  209.3890  148.8640 C   0  0  0  0  0  3  0  0  0  0  0  0
  158.3900  212.4910  152.3750 C   0  0  0  0  0  0  0  0  0  0  0  0
  157.5150  212.0480  153.3720 C   0  0  0  0  0  3  0  0  0  0  0  0
  161.0440  214.2190  149.4580 C   0  0  0  0  0  2  0  0  0  0  0  0
  161.4970  211.7470  149.2540 C   0  0  0  0  0  0  0  0  0  0  0  0
  161.9230  210.6320  148.3930 C   0  0  0  0  0  3  0  0  0  0  0  0
  158.1990  214.4530  149.2430 C   0  0  0  0  0  2  0  0  0  0  0  0
  157.0590  212.5250  148.4010 O   0  0  0  0  0  1  0  0  0  0  0  0
  157.4470  213.8270  148.0640 C   0  0  2  0  0  3  0  0  0  0  0  0
  158.8470  212.9580  144.1680 N   0  0  0  0  0  0  0  0  0  0  0  0
  158.7680  212.4790  146.5640 C   0  0  0  0  0  2  0  0  0  0  0  0
  156.3420  213.5170  145.5060 O   0  0  0  0  0  1  0  0  0  0  0  0
  159.7580  213.0700  143.0450 C   0  0  0  0  0  1  0  0  0  0  0  0
  159.6400  212.5080  145.3110 C   0  0  0  0  0  2  0  0  0  0  0  0
  157.4810  214.3090  145.7030 C   0  0  1  0  0  3  0  0  0  0  0  0
  158.2770  213.8320  146.8500 N   0  0  0  0  0  0  0  0  0  0  0  0
  158.3440  214.3060  144.4380 C   0  0  0  0  0  2  0  0  0  0  0  0
  1  9  1  0  0  0  0
  2  5  1  1  0  0  0
  3  7  1  1  0  0  0
  3  2  1  0  0  0  0
  4 11  1  0  0  0  0
  4  7  1  0  0  0  0
  5 14  1  0  0  0  0
  6  1  1  0  0  0  0
  8 13  1  0  0  0  0
  8 12  1  0  0  0  0
 10 19  2  0  0  0  0
 10 18  1  0  0  0  0
 12 16  1  0  0  0  0
 13 18  1  6  0  0  0
 13  2  1  0  0  0  0
 14  1  2  0  0  0  0
 15  4  1  0  0  0  0
 16  5  2  0  0  0  0
 16 17  1  0  0  0  0
 17  6  2  0  0  0  0
 19  3  1  0  0  0  0
 20 15  2  0  0  0  0
 20 19  1  0  0  0  0
 21  8  1  0  0  0  0
 23 22  1  1  0  0  0
 23 21  1  0  0  0  0
 24 31  1  0  0  0  0
 24 28  1  0  0  0  0
 25 30  1  0  0  0  0
 27 24  1  0  0  0  0
 28 25  1  0  0  0  0
 29 26  1  6  0  0  0
 29 30  1  0  0  0  0
 30 23  1  0  0  0  0
 31 29  1  0  0  0  0
M  END
>  <MODEL>
5

>  <REMARK>
 VINA RESULT:      -4.3      2.739      4.843
  Name = 
  3 active torsions:
  status: ('A' for Active; 'I' for Inactive)
    1  A    between atoms: C_5  and  C_16
    2  A    between atoms: C_5  and  N_30
    3  A    between atoms: N_10  and  C_16
                            x       y       z     vdW  Elec       q    Type
                         _______ _______ _______ _____ _____    ______ ____

>  <TORSDO>
F 3

$$$$
=
 OpenBabel11122413143D

 31 35  0  0  1  0  0  0  0  0999 V2000
  162.3560  210.7690  149.0830 C   0  0  0  0  0  0  0  0  0  0  0  0
  161.6460  209.8210  152.7000 C   0  0  2  0  0  3  0  0  0  0  0  0
  160.3850  210.5860  153.0970 C   0  0  0  0  0  0  0  0  0  0  0  0
  158.6210  212.2490  152.5990 N   0  0  0  0  0  0  0  0  0  0  0  0
  161.8060  209.7240  151.2040 C   0  0  0  0  0  0  0  0  0  0  0  0
  162.0230  209.5900  148.4120 C   0  0  0  0  0  3  0  0  0  0  0  0
  159.9900  211.8180  152.3120 C   0  0  0  0  0  2  0  0  0  0  0  0
  160.7020  207.5410  152.6520 N   0  0  0  0  0  0  0  0  0  0  0  0
  162.7780  211.8500  148.3840 F   0  0  0  0  0  0  0  0  0  0  0  0
  160.1930  209.2200  155.0820 N   0  0  0  0  0  2  0  0  0  0  0  0
  157.9900  213.2110  151.7170 C   0  0  0  0  0  1  0  0  0  0  0  0
  161.1650  207.2780  151.2850 C   0  0  0  0  0  2  0  0  0  0  0  0
  161.6920  208.4080  153.3220 C   0  0  2  0  0  3  0  0  0  0  0  0
  162.2510  210.8350  150.4750 C   0  0  0  0  0  3  0  0  0  0  0  0
  157.9890  211.9310  153.8410 C   0  0  0  0  0  3  0  0  0  0  0  0
  161.4760  208.5350  150.5240 C   0  0  0  0  0  0  0  0  0  0  0  0
  161.5950  208.4720  149.1320 C   0  0  0  0  0  3  0  0  0  0  0  0
  161.4500  208.5290  154.8290 C   0  0  0  0  0  2  0  0  0  0  0  0
  159.7410  210.2900  154.2470 C   0  0  0  0  0  0  0  0  0  0  0  0
  158.5170  211.0070  154.6390 C   0  0  0  0  0  3  0  0  0  0  0  0
  160.6700  206.2340  153.3080 C   0  0  0  0  0  2  0  0  0  0  0  0
  162.7630  205.9540  152.1830 O   0  0  0  0  0  1  0  0  0  0  0  0
  161.6360  205.2550  152.6320 C   0  0  2  0  0  3  0  0  0  0  0  0
  160.9780  202.6030  149.4040 N   0  0  0  0  0  0  0  0  0  0  0  0
  161.7120  204.7670  150.2730 C   0  0  0  0  0  2  0  0  0  0  0  0
  162.2150  202.5820  152.0220 O   0  0  0  0  0  1  0  0  0  0  0  0
  160.1980  201.9910  148.3460 C   0  0  0  0  0  1  0  0  0  0  0  0
  161.0040  204.0390  149.1330 C   0  0  0  0  0  2  0  0  0  0  0  0
  160.9320  203.1030  151.8110 C   0  0  1  0  0  3  0  0  0  0  0  0
  160.9770  204.5490  151.5250 N   0  0  0  0  0  0  0  0  0  0  0  0
  160.2520  202.3660  150.6530 C   0  0  0  0  0  2  0  0  0  0  0  0
  1 14  1  0  0  0  0
  2  5  1  6  0  0  0
  2  3  1  0  0  0  0
  2 13  1  0  0  0  0
  3 19  2  0  0  0  0
  4 15  1  0  0  0  0
  6  1  2  0  0  0  0
  6 17  1  0  0  0  0
  7  4  1  0  0  0  0
  7  3  1  0  0  0  0
  8 21  1  0  0  0  0
  8 13  1  0  0  0  0
  9  1  1  0  0  0  0
 11  4  1  0  0  0  0
 12  8  1  0  0  0  0
 13 18  1  1  0  0  0
 14  5  2  0  0  0  0
 15 20  2  0  0  0  0
 16  5  1  0  0  0  0
 16 12  1  0  0  0  0
 17 16  2  0  0  0  0
 18 10  1  0  0  0  0
 19 20  1  0  0  0  0
 19 10  1  0  0  0  0
 23 22  1  6  0  0  0
 23 21  1  0  0  0  0
 24 31  1  0  0  0  0
 25 30  1  0  0  0  0
 27 24  1  0  0  0  0
 28 24  1  0  0  0  0
 28 25  1  0  0  0  0
 29 26  1  6  0  0  0
 30 29  1  0  0  0  0
 30 23  1  0  0  0  0
 31 29  1  0  0  0  0
M  END
>  <MODEL>
6

>  <REMARK>
 VINA RESULT:      -4.2      4.370      6.958
  Name = 
  3 active torsions:
  status: ('A' for Active; 'I' for Inactive)
    1  A    between atoms: C_5  and  C_16
    2  A    between atoms: C_5  and  N_30
    3  A    between atoms: N_10  and  C_16
                            x       y       z     vdW  Elec       q    Type
                         _______ _______ _______ _____ _____    ______ ____

>  <TORSDO>
F 3

$$$$
=
 OpenBabel11122413143D

 31 35  0  0  1  0  0  0  0  0999 V2000
  160.8080  207.1530  156.3440 C   0  0  0  0  0  0  0  0  0  0  0  0
  161.9050  208.7250  153.0550 C   0  0  2  0  0  3  0  0  0  0  0  0
  161.5750  207.7050  151.9690 C   0  0  2  0  0  3  0  0  0  0  0  0
  160.7870  205.4620  151.2800 N   0  0  0  0  0  0  0  0  0  0  0  0
  161.1420  208.4670  154.3310 C   0  0  0  0  0  0  0  0  0  0  0  0
  159.6810  207.9160  156.6590 C   0  0  0  0  0  3  0  0  0  0  0  0
  161.4010  206.2500  152.3480 C   0  0  0  0  0  2  0  0  0  0  0  0
  160.2110  210.4310  152.4970 N   0  0  0  0  0  0  0  0  0  0  0  0
  161.1910  206.1430  157.1600 F   0  0  0  0  0  0  0  0  0  0  0  0
  161.9450  209.3960  150.2820 N   0  0  0  0  0  0  0  0  0  0  0  0
  160.2730  204.1420  151.5890 C   0  0  0  0  0  1  0  0  0  0  0  0
  159.6600  210.4620  153.8570 C   0  0  0  0  0  2  0  0  0  0  0  0
  161.6620  210.1770  152.5870 C   0  0  2  0  0  3  0  0  0  0  0  0
  161.5380  207.4300  155.1850 C   0  0  0  0  0  3  0  0  0  0  0  0
  160.8940  205.8600  149.9110 C   0  0  0  0  0  3  0  0  0  0  0  0
  160.0080  209.2380  154.6540 C   0  0  0  0  0  0  0  0  0  0  0  0
  159.2890  208.9640  155.8210 C   0  0  0  0  0  3  0  0  0  0  0  0
  162.3860  210.3870  151.2540 C   0  0  0  0  0  2  0  0  0  0  0  0
  161.6320  208.0540  150.6650 C   0  0  0  0  0  0  0  0  0  0  0  0
  161.3040  207.0870  149.6050 C   0  0  0  0  0  3  0  0  0  0  0  0
  159.9790  211.7690  151.9540 C   0  0  0  0  0  2  0  0  0  0  0  0
  158.2430  213.3350  151.4470 O   0  0  0  0  0  1  0  0  0  0  0  0
  158.5640  212.2580  152.2810 C   0  0  2  0  0  3  0  0  0  0  0  0
  157.2260  214.1200  155.8350 N   0  0  0  0  0  0  0  0  0  0  0  0
  158.6610  214.0800  153.8560 C   0  0  0  0  0  2  0  0  0  0  0  0
  156.1050  212.8980  153.4630 O   0  0  0  0  0  1  0  0  0  0  0  0
  157.2370  214.3900  157.2600 C   0  0  0  0  0  1  0  0  0  0  0  0
  158.5590  214.4500  155.3340 C   0  0  0  0  0  2  0  0  0  0  0  0
  157.1180  212.2800  154.2080 C   0  0  1  0  0  3  0  0  0  0  0  0
  158.4550  212.6350  153.6980 N   0  0  0  0  0  0  0  0  0  0  0  0
  157.0020  212.6820  155.6810 C   0  0  0  0  0  2  0  0  0  0  0  0
  1  6  1  0  0  0  0
  1  9  1  0  0  0  0
  2  5  1  1  0  0  0
  3  7  1  6  0  0  0
  3  2  1  0  0  0  0
  4 11  1  0  0  0  0
  4  7  1  0  0  0  0
  5 16  2  0  0  0  0
  5 14  1  0  0  0  0
  8 13  1  0  0  0  0
  8 12  1  0  0  0  0
 10 19  2  0  0  0  0
 10 18  1  0  0  0  0
 12 16  1  0  0  0  0
 13 18  1  6  0  0  0
 13  2  1  0  0  0  0
 14  1  2  0  0  0  0
 15  4  1  0  0  0  0
 16 17  1  0  0  0  0
 17  6  2  0  0  0  0
 19  3  1  0  0  0  0
 20 15  2  0  0  0  0
 20 19  1  0  0  0  0
 21 23  1  0  0  0  0
 21  8  1  0  0  0  0
 23 22  1  6  0  0  0
 23 30  1  0  0  0  0
 24 27  1  0  0  0  0
 25 28  1  0  0  0  0
 28 24  1  0  0  0  0
 29 26  1  6  0  0  0
 29 31  1  0  0  0  0
 30 25  1  0  0  0  0
 30 29  1  0  0  0  0
 31 24  1  0  0  0  0
M  END
>  <MODEL>
7

>  <REMARK>
 VINA RESULT:      -4.1      3.544      6.342
  Name = 
  3 active torsions:
  status: ('A' for Active; 'I' for Inactive)
    1  A    between atoms: C_5  and  C_16
    2  A    between atoms: C_5  and  N_30
    3  A    between atoms: N_10  and  C_16
                            x       y       z     vdW  Elec       q    Type
                         _______ _______ _______ _____ _____    ______ ____

>  <TORSDO>
F 3

$$$$
=
 OpenBabel11122413143D

 31 35  0  0  1  0  0  0  0  0999 V2000
  160.7150  201.5930  148.5290 C   0  0  0  0  0  0  0  0  0  0  0  0
  162.3720  204.6870  150.0030 C   0  0  2  0  0  3  0  0  0  0  0  0
  161.9630  205.8520  149.1050 C   0  0  0  0  0  0  0  0  0  0  0  0
  160.8500  206.7290  147.0750 N   0  0  0  0  0  0  0  0  0  0  0  0
  161.4620  203.4950  149.8390 C   0  0  0  0  0  0  0  0  0  0  0  0
  159.7200  201.3290  149.4730 C   0  0  0  0  0  3  0  0  0  0  0  0
  161.4970  205.5710  147.6930 C   0  0  0  0  0  2  0  0  0  0  0  0
  161.0700  205.2860  152.0120 N   0  0  0  0  0  0  0  0  0  0  0  0
  160.8340  200.8060  147.4330 F   0  0  0  0  0  0  0  0  0  0  0  0
  162.7820  207.4060  150.7650 N   0  0  0  0  0  2  0  0  0  0  0  0
  160.0810  206.5370  145.8610 C   0  0  0  0  0  1  0  0  0  0  0  0
  160.4130  203.9760  152.0900 C   0  0  0  0  0  2  0  0  0  0  0  0
  162.4380  205.0920  151.4920 C   0  0  2  0  0  3  0  0  0  0  0  0
  161.5850  202.6710  148.7120 C   0  0  0  0  0  3  0  0  0  0  0  0
  161.1500  208.0590  147.5010 C   0  0  0  0  0  3  0  0  0  0  0  0
  160.4610  203.2230  150.7920 C   0  0  0  0  0  0  0  0  0  0  0  0
  159.6010  202.1360  150.6080 C   0  0  0  0  0  3  0  0  0  0  0  0
  163.3050  206.3480  151.6190 C   0  0  0  0  0  2  0  0  0  0  0  0
  162.2000  207.1260  149.4890 C   0  0  0  0  0  0  0  0  0  0  0  0
  161.8000  208.2610  148.6430 C   0  0  0  0  0  3  0  0  0  0  0  0
  161.1330  205.7710  153.3910 C   0  0  0  0  0  2  0  0  0  0  0  0
  160.4300  207.7420  152.2320 O   0  0  0  0  0  1  0  0  0  0  0  0
  160.5320  207.1750  153.5080 C   0  0  2  0  0  3  0  0  0  0  0  0
  161.5950  210.0360  156.4360 N   0  0  0  0  0  0  0  0  0  0  0  0
  161.0900  209.4380  154.1200 C   0  0  0  0  0  2  0  0  0  0  0  0
  159.6330  207.9420  156.0490 O   0  0  0  0  0  1  0  0  0  0  0  0
  162.5210  210.7950  157.2540 C   0  0  0  0  0  1  0  0  0  0  0  0
  161.9510  210.2990  155.0430 C   0  0  0  0  0  2  0  0  0  0  0  0
  160.9970  207.7360  155.8040 C   0  0  1  0  0  3  0  0  0  0  0  0
  161.3410  208.0190  154.3980 N   0  0  0  0  0  0  0  0  0  0  0  0
  161.8340  208.6220  156.7310 C   0  0  0  0  0  2  0  0  0  0  0  0
  1 14  2  0  0  0  0
  1  6  1  0  0  0  0
  2  3  1  6  0  0  0
  2 13  1  0  0  0  0
  3 19  2  0  0  0  0
  4 15  1  0  0  0  0
  4  7  1  0  0  0  0
  5  2  1  0  0  0  0
  5 16  2  0  0  0  0
  6 17  2  0  0  0  0
  7  3  1  0  0  0  0
  8 12  1  0  0  0  0
  8 21  1  0  0  0  0
  9  1  1  0  0  0  0
 10 18  1  0  0  0  0
 11  4  1  0  0  0  0
 13 18  1  6  0  0  0
 13  8  1  0  0  0  0
 14  5  1  0  0  0  0
 15 20  2  0  0  0  0
 16 12  1  0  0  0  0
 17 16  1  0  0  0  0
 19 10  1  0  0  0  0
 20 19  1  0  0  0  0
 21 23  1  0  0  0  0
 23 22  1  6  0  0  0
 23 30  1  0  0  0  0
 24 31  1  0  0  0  0
 24 27  1  0  0  0  0
 25 30  1  0  0  0  0
 25 28  1  0  0  0  0
 28 24  1  0  0  0  0
 29 26  1  6  0  0  0
 29 31  1  0  0  0  0
 30 29  1  0  0  0  0
M  END
>  <MODEL>
8

>  <REMARK>
 VINA RESULT:      -3.9      4.511      8.598
  Name = 
  3 active torsions:
  status: ('A' for Active; 'I' for Inactive)
    1  A    between atoms: C_5  and  C_16
    2  A    between atoms: C_5  and  N_30
    3  A    between atoms: N_10  and  C_16
                            x       y       z     vdW  Elec       q    Type
                         _______ _______ _______ _____ _____    ______ ____

>  <TORSDO>
F 3

$$$$
=
 OpenBabel11122413143D

 31 35  0  0  1  0  0  0  0  0999 V2000
  162.0450  211.7250  149.0040 C   0  0  0  0  0  0  0  0  0  0  0  0
  162.4660  208.8360  151.4480 C   0  0  2  0  0  3  0  0  0  0  0  0
  161.3970  209.0320  152.5200 C   0  0  0  0  0  0  0  0  0  0  0  0
  159.5860  210.3720  153.5460 N   0  0  0  0  0  0  0  0  0  0  0  0
  162.1590  209.6090  150.1890 C   0  0  0  0  0  0  0  0  0  0  0  0
  161.5080  211.0750  147.8900 C   0  0  0  0  0  3  0  0  0  0  0  0
  160.7950  210.4060  152.7230 C   0  0  0  0  0  2  0  0  0  0  0  0
  161.5250  206.8420  150.3400 N   0  0  0  0  0  0  0  0  0  0  0  0
  162.2460  213.0630  148.9760 F   0  0  0  0  0  0  0  0  0  0  0  0
  161.8050  206.7890  153.3230 N   0  0  0  0  0  2  0  0  0  0  0  0
  158.7260  211.5390  153.5770 C   0  0  0  0  0  1  0  0  0  0  0  0
  161.5440  207.4580  149.0080 C   0  0  0  0  0  2  0  0  0  0  0  0
  162.6830  207.3460  151.1040 C   0  0  2  0  0  3  0  0  0  0  0  0
  162.3720  210.9940  150.1490 C   0  0  0  0  0  3  0  0  0  0  0  0
  159.3610  209.3210  154.4890 C   0  0  0  0  0  3  0  0  0  0  0  0
  161.6220  208.9570  149.0620 C   0  0  0  0  0  0  0  0  0  0  0  0
  161.3080  209.6920  147.9150 C   0  0  0  0  0  3  0  0  0  0  0  0
  162.9170  206.5740  152.4060 C   0  0  0  0  0  2  0  0  0  0  0  0
  161.1330  208.0490  153.4080 C   0  0  0  0  0  0  0  0  0  0  0  0
  160.0970  208.2150  154.4390 C   0  0  0  0  0  3  0  0  0  0  0  0
  161.6800  205.4060  150.1040 C   0  0  0  0  0  2  0  0  0  0  0  0
  160.1560  204.3160  151.5920 O   0  0  0  0  0  1  0  0  0  0  0  0
  160.3400  204.6780  150.2520 C   0  0  2  0  0  3  0  0  0  0  0  0
  161.4640  201.1390  148.2260 N   0  0  0  0  0  0  0  0  0  0  0  0
  161.3360  203.5770  148.3530 C   0  0  0  0  0  2  0  0  0  0  0  0
  161.6900  202.3000  150.8680 O   0  0  0  0  0  1  0  0  0  0  0  0
  161.2590  200.0200  147.3270 C   0  0  0  0  0  1  0  0  0  0  0  0
  161.2520  202.3540  147.4420 C   0  0  0  0  0  2  0  0  0  0  0  0
  160.4750  202.2740  150.1710 C   0  0  1  0  0  3  0  0  0  0  0  0
  160.2840  203.5000  149.3740 N   0  0  0  0  0  0  0  0  0  0  0  0
  160.4260  201.0480  149.2540 C   0  0  0  0  0  2  0  0  0  0  0  0
  1 14  1  0  0  0  0
  2  5  1  6  0  0  0
  2  3  1  0  0  0  0
  3  7  1  0  0  0  0
  3 19  2  0  0  0  0
  4 11  1  0  0  0  0
  4 15  1  0  0  0  0
  6 17  1  0  0  0  0
  6  1  2  0  0  0  0
  7  4  1  0  0  0  0
  8 13  1  0  0  0  0
  9  1  1  0  0  0  0
 10 19  1  0  0  0  0
 12 16  1  0  0  0  0
 12  8  1  0  0  0  0
 13  2  1  0  0  0  0
 13 18  1  1  0  0  0
 14  5  2  0  0  0  0
 16  5  1  0  0  0  0
 17 16  2  0  0  0  0
 18 10  1  0  0  0  0
 19 20  1  0  0  0  0
 20 15  2  0  0  0  0
 21 23  1  0  0  0  0
 21  8  1  0  0  0  0
 23 22  1  1  0  0  0
 24 31  1  0  0  0  0
 25 30  1  0  0  0  0
 27 24  1  0  0  0  0
 28 24  1  0  0  0  0
 28 25  1  0  0  0  0
 29 26  1  6  0  0  0
 30 29  1  0  0  0  0
 30 23  1  0  0  0  0
 31 29  1  0  0  0  0
M  END
>  <MODEL>
9

>  <REMARK>
 VINA RESULT:      -3.7      5.173      7.628
  Name = 
  3 active torsions:
  status: ('A' for Active; 'I' for Inactive)
    1  A    between atoms: C_5  and  C_16
    2  A    between atoms: C_5  and  N_30
    3  A    between atoms: N_10  and  C_16
                            x       y       z     vdW  Elec       q    Type
                         _______ _______ _______ _____ _____    ______ ____

>  <TORSDO>
F 3

$$$$
