=
 OpenBabel11122413353D

 37 44  0  0  1  0  0  0  0  0999 V2000
  161.0810  206.4170  151.6220 C   0  0  0  0  0  2  0  0  0  0  0  0
  160.5330  208.1870  155.8520 C   0  0  0  0  0  0  0  0  0  0  0  0
  160.2690  210.9720  152.7600 C   0  0  0  0  0  0  0  0  0  0  0  0
  161.8610  205.4350  150.8780 N   0  0  0  0  0  0  0  0  0  0  0  0
  162.0500  209.7390  149.5420 C   0  0  0  0  0  2  0  0  0  0  0  0
  159.6530  210.4250  155.0340 C   0  0  0  0  0  0  0  0  0  0  0  0
  160.8290  210.2740  151.7110 C   0  0  0  0  0  0  0  0  0  0  0  0
  161.0410  206.2460  148.6670 C   0  0  2  0  0  3  0  0  0  0  0  0
  160.1700  210.0880  153.7990 C   0  0  0  0  0  0  0  0  0  0  0  0
  161.2480  210.7280  150.3730 C   0  0  0  0  0  0  0  0  0  0  0  0
  159.1780  211.7360  155.2030 C   0  0  0  0  0  3  0  0  0  0  0  0
  161.1190  205.0880  149.6700 C   0  0  0  0  0  2  0  0  0  0  0  0
  160.6310  208.8800  153.4760 N   0  0  0  0  0  0  0  0  0  0  0  0
  160.1040  207.0140  156.7080 C   0  0  0  0  0  1  0  0  0  0  0  0
  159.8060  213.2340  151.7840 C   0  0  0  0  0  3  0  0  0  0  0  0
  159.2570  212.6560  154.1300 C   0  0  0  0  0  3  0  0  0  0  0  0
  160.5750  207.7280  154.3760 C   0  0  0  0  0  2  0  0  0  0  0  0
  162.1840  207.2500  148.8170 C   0  0  0  0  0  2  0  0  0  0  0  0
  161.9560  208.2590  149.9460 C   0  0  1  0  0  0  0  0  0  0  0  0
  159.8100  212.2750  152.8860 C   0  0  0  0  0  0  0  0  0  0  0  0
  161.0110  208.9730  152.1790 C   0  0  0  0  0  0  0  0  0  0  0  0
  159.5420  209.3560  156.0870 C   0  0  0  0  0  2  0  0  0  0  0  0
  161.0240  211.9760  149.8790 C   0  0  0  0  0  0  0  0  0  0  0  0
  161.9260  208.6090  156.2880 C   0  0  0  0  0  1  0  0  0  0  0  0
  162.8770  208.0000  150.9930 O   0  0  0  0  0  0  0  0  0  0  0  0
  159.8100  206.8730  148.7390 F   0  0  0  0  0  0  0  0  0  0  0  0
  161.5210  207.8590  151.3240 C   0  0  1  0  0  0  0  0  0  0  0  0
  160.3040  213.0880  150.5540 C   0  0  0  0  0  3  0  0  0  0  0  0
  162.8700  212.6340  148.3310 C   0  0  0  0  0  3  0  0  0  0  0  0
  161.5110  212.3450  148.5300 C   0  0  0  0  0  0  0  0  0  0  0  0
  160.6370  212.3620  147.4320 C   0  0  0  0  0  3  0  0  0  0  0  0
  160.2600  212.7060  145.1040 F   0  0  0  0  0  0  0  0  0  0  0  0
  162.4630  212.9830  145.9690 C   0  0  0  0  0  3  0  0  0  0  0  0
  161.1110  212.6850  146.1580 C   0  0  0  0  0  0  0  0  0  0  0  0
  163.3430  212.9560  147.0550 C   0  0  0  0  0  3  0  0  0  0  0  0
  160.9400  203.2030  151.1550 C   0  0  0  0  0  1  0  0  0  0  0  0
  161.9150  204.2330  151.6920 C   0  0  0  0  0  2  0  0  0  0  0  0
  2 22  1  0  0  0  0
  2 24  1  0  0  0  0
  2 14  1  0  0  0  0
  3 20  2  0  0  0  0
  3  9  1  0  0  0  0
  4  1  1  0  0  0  0
  4 37  1  0  0  0  0
  5 19  1  0  0  0  0
  5 10  1  0  0  0  0
  6 11  1  0  0  0  0
  6 22  1  0  0  0  0
  7 21  2  0  0  0  0
  7  3  1  0  0  0  0
  8 26  1  1  0  0  0
  8 18  1  0  0  0  0
  8 12  1  0  0  0  0
  9  6  2  0  0  0  0
 10  7  1  0  0  0  0
 12  4  1  0  0  0  0
 13  9  1  0  0  0  0
 13 17  1  0  0  0  0
 15 20  1  0  0  0  0
 16 11  2  0  0  0  0
 17  2  1  0  0  0  0
 19 18  1  6  0  0  0
 19 25  1  0  0  0  0
 19 27  1  0  0  0  0
 20 16  1  0  0  0  0
 21 13  1  0  0  0  0
 23 10  2  0  0  0  0
 23 28  1  0  0  0  0
 25 27  1  0  0  0  0
 27  1  1  1  0  0  0
 27 21  1  0  0  0  0
 28 15  2  0  0  0  0
 29 30  1  0  0  0  0
 30 23  1  0  0  0  0
 31 30  2  0  0  0  0
 32 34  1  0  0  0  0
 33 34  2  0  0  0  0
 33 35  1  0  0  0  0
 34 31  1  0  0  0  0
 35 29  2  0  0  0  0
 36 37  1  0  0  0  0
M  END
>  <MODEL>
1

>  <REMARK>
 VINA RESULT:      -8.8      0.000      0.000
  Name = 
  2 active torsions:
  status: ('A' for Active; 'I' for Inactive)
    1  A    between atoms: N_4  and  C_37
    2  A    between atoms: C_23  and  C_30
                            x       y       z     vdW  Elec       q    Type
                         _______ _______ _______ _____ _____    ______ ____

>  <TORSDO>
F 2

$$$$
=
 OpenBabel11122413353D

 37 44  0  0  1  0  0  0  0  0999 V2000
  161.3980  207.6000  152.0100 C   0  0  0  0  0  2  0  0  0  0  0  0
  160.6790  210.0010  155.8890 C   0  0  0  0  0  0  0  0  0  0  0  0
  159.9690  212.1300  152.3740 C   0  0  0  0  0  0  0  0  0  0  0  0
  162.2970  206.6170  151.4160 N   0  0  0  0  0  0  0  0  0  0  0  0
  161.8500  210.6010  149.3470 C   0  0  0  0  0  2  0  0  0  0  0  0
  159.4760  211.9170  154.7330 C   0  0  0  0  0  0  0  0  0  0  0  0
  160.6040  211.3410  151.4400 C   0  0  0  0  0  0  0  0  0  0  0  0
  161.3320  206.9030  149.1340 C   0  0  2  0  0  3  0  0  0  0  0  0
  160.0150  211.4400  153.5540 C   0  0  0  0  0  0  0  0  0  0  0  0
  160.9300  211.6020  150.0260 C   0  0  0  0  0  0  0  0  0  0  0  0
  158.8230  213.1590  154.6920 C   0  0  0  0  0  3  0  0  0  0  0  0
  161.5910  205.9630  150.3180 C   0  0  0  0  0  2  0  0  0  0  0  0
  160.6360  210.2680  153.4260 N   0  0  0  0  0  0  0  0  0  0  0  0
  160.4360  208.9510  156.9520 C   0  0  0  0  0  1  0  0  0  0  0  0
  159.1730  214.0980  151.0410 C   0  0  0  0  0  3  0  0  0  0  0  0
  158.7530  213.8760  153.4730 C   0  0  0  0  0  3  0  0  0  0  0  0
  160.7600  209.2970  154.5140 C   0  0  0  0  0  2  0  0  0  0  0  0
  162.3230  208.0650  149.0590 C   0  0  0  0  0  2  0  0  0  0  0  0
  161.9740  209.2170  150.0050 C   0  0  1  0  0  0  0  0  0  0  0  0
  159.3320  213.3600  152.2920 C   0  0  0  0  0  0  0  0  0  0  0  0
  160.9770  210.1810  152.1180 C   0  0  0  0  0  0  0  0  0  0  0  0
  159.5370  211.0470  155.9590 C   0  0  0  0  0  2  0  0  0  0  0  0
  160.5240  212.7010  149.3340 C   0  0  0  0  0  0  0  0  0  0  0  0
  162.0050  210.6790  156.1860 C   0  0  0  0  0  1  0  0  0  0  0  0
  162.9410  209.2760  151.0410 O   0  0  0  0  0  0  0  0  0  0  0  0
  160.0260  207.3590  149.1480 F   0  0  0  0  0  0  0  0  0  0  0  0
  161.6250  209.0130  151.4480 C   0  0  1  0  0  0  0  0  0  0  0  0
  159.6650  213.8060  149.8350 C   0  0  0  0  0  3  0  0  0  0  0  0
  160.1120  212.4040  146.8890 C   0  0  0  0  0  3  0  0  0  0  0  0
  160.9300  212.8870  147.9220 C   0  0  0  0  0  0  0  0  0  0  0  0
  162.1020  213.5870  147.5990 C   0  0  0  0  0  3  0  0  0  0  0  0
  163.6000  214.4530  145.9600 F   0  0  0  0  0  0  0  0  0  0  0  0
  161.6500  213.2880  145.2400 C   0  0  0  0  0  3  0  0  0  0  0  0
  162.4630  213.7820  146.2630 C   0  0  0  0  0  0  0  0  0  0  0  0
  160.4730  212.6000  145.5520 C   0  0  0  0  0  3  0  0  0  0  0  0
  161.2370  204.8870  152.7530 C   0  0  0  0  0  1  0  0  0  0  0  0
  162.5350  205.5980  152.4230 C   0  0  0  0  0  2  0  0  0  0  0  0
  2 22  1  0  0  0  0
  2 24  1  0  0  0  0
  2 14  1  0  0  0  0
  3  9  1  0  0  0  0
  4  1  1  0  0  0  0
  4 37  1  0  0  0  0
  5 19  1  0  0  0  0
  5 10  1  0  0  0  0
  6 22  1  0  0  0  0
  7 21  2  0  0  0  0
  7  3  1  0  0  0  0
  8 26  1  1  0  0  0
  8 12  1  0  0  0  0
  9  6  2  0  0  0  0
 10  7  1  0  0  0  0
 11  6  1  0  0  0  0
 12  4  1  0  0  0  0
 13  9  1  0  0  0  0
 13 17  1  0  0  0  0
 15 20  1  0  0  0  0
 16 11  2  0  0  0  0
 17  2  1  0  0  0  0
 18  8  1  0  0  0  0
 19 18  1  6  0  0  0
 19 25  1  0  0  0  0
 19 27  1  0  0  0  0
 20  3  2  0  0  0  0
 20 16  1  0  0  0  0
 21 13  1  0  0  0  0
 23 28  1  0  0  0  0
 23 10  2  0  0  0  0
 25 27  1  0  0  0  0
 27  1  1  1  0  0  0
 27 21  1  0  0  0  0
 28 15  2  0  0  0  0
 29 30  1  0  0  0  0
 30 23  1  0  0  0  0
 31 30  2  0  0  0  0
 32 34  1  0  0  0  0
 33 35  1  0  0  0  0
 33 34  2  0  0  0  0
 34 31  1  0  0  0  0
 35 29  2  0  0  0  0
 37 36  1  0  0  0  0
M  END
>  <MODEL>
2

>  <REMARK>
 VINA RESULT:      -6.5      1.315      1.669
  Name = 
  2 active torsions:
  status: ('A' for Active; 'I' for Inactive)
    1  A    between atoms: N_4  and  C_37
    2  A    between atoms: C_23  and  C_30
                            x       y       z     vdW  Elec       q    Type
                         _______ _______ _______ _____ _____    ______ ____

>  <TORSDO>
F 2

$$$$
