=
 OpenBabel11122414233D

 34 41  0  0  1  0  0  0  0  0999 V2000
  160.8930  207.9890  154.2970 C   0  0  0  0  0  0  0  0  0  0  0  0
  162.1620  206.3580  152.8860 C   0  0  0  0  0  2  0  0  0  0  0  0
  160.1130  213.9890  156.1960 C   0  0  0  0  0  2  0  0  0  0  0  0
  159.0440  209.2970  155.1020 C   0  0  0  0  0  0  0  0  0  0  0  0
  157.8800  211.1180  153.6470 C   0  0  1  0  0  3  0  0  0  0  0  0
  159.8770  212.6920  154.0980 C   0  0  0  0  0  2  0  0  0  0  0  0
  159.4140  213.9280  154.8470 C   0  0  0  0  0  2  0  0  0  0  0  0
  159.3170  211.7080  156.9300 C   0  0  0  0  0  2  0  0  0  0  0  0
  162.2370  208.7070  152.2040 C   0  0  2  0  0  3  0  0  0  0  0  0
  161.7240  208.9510  148.9690 C   0  0  0  0  0  2  0  0  0  0  0  0
  158.9530  210.8000  152.5930 C   0  0  1  0  0  3  0  0  0  0  0  0
  157.9880  211.3760  156.2670 C   0  0  0  0  0  2  0  0  0  0  0  0
  160.9810  209.5280  151.8380 C   0  0  1  0  0  3  0  0  0  0  0  0
  163.0330  206.4450  151.6550 C   0  0  0  0  0  2  0  0  0  0  0  0
  158.1540  210.4970  155.0280 C   0  0  2  0  0  3  0  0  0  0  0  0
  159.3620  213.1930  157.2610 C   0  0  0  0  0  2  0  0  0  0  0  0
  161.8290  207.6770  149.8230 C   0  0  1  0  0  3  0  0  0  0  0  0
  160.0420  209.0970  154.1420 C   0  0  0  0  0  0  0  0  0  0  0  0
  158.7960  212.2320  153.1220 C   0  0  1  0  0  3  0  0  0  0  0  0
  160.2690  210.1220  153.0590 C   0  0  2  0  0  3  0  0  0  0  0  0
  159.6820  207.3180  156.2210 C   0  0  0  0  0  3  0  0  0  0  0  0
  162.2050  210.2240  149.6680 C   0  0  0  0  0  2  0  0  0  0  0  0
  158.8720  208.3980  156.1060 N   0  0  0  0  0  0  0  0  0  0  0  0
  161.3090  210.6460  150.8330 C   0  0  0  0  0  2  0  0  0  0  0  0
  162.7580  207.8110  151.0540 C   0  0  1  0  0  3  0  0  0  0  0  0
  160.6890  207.1290  155.3320 N   0  0  0  0  0  0  0  0  0  0  0  0
  162.0880  207.7750  153.4120 C   0  0  1  0  0  3  0  0  0  0  0  0
  160.5520  207.2340  150.1880 O   0  0  0  0  0  0  0  0  0  0  0  0
  160.1430  206.3930  149.1510 C   0  0  0  0  0  2  0  0  0  0  0  0
  160.8580  203.0680  150.6580 C   0  0  0  0  0  3  0  0  0  0  0  0
  161.0110  204.1780  148.6280 N   0  0  0  0  0  0  0  0  0  0  0  0
  160.5010  204.9880  149.4840 C   0  0  0  0  0  0  0  0  0  0  0  0
  161.2600  202.9610  149.2630 N   0  0  0  0  0  2  0  0  0  0  0  0
  160.3550  204.4300  150.7820 N   0  0  0  0  0  0  0  0  0  0  0  0
  1 26  1  0  0  0  0
  2 27  1  0  0  0  0
  3 16  1  0  0  0  0
  4 23  2  0  0  0  0
  5 15  1  0  0  0  0
  6  7  1  0  0  0  0
  7  3  1  0  0  0  0
  8 16  1  0  0  0  0
  9 27  1  0  0  0  0
 10 22  1  0  0  0  0
 10 17  1  0  0  0  0
 11 20  1  0  0  0  0
 11 19  1  0  0  0  0
 11  5  1  0  0  0  0
 12  8  1  0  0  0  0
 13  9  1  0  0  0  0
 13 20  1  0  0  0  0
 14  2  1  0  0  0  0
 15  4  1  0  0  0  0
 15 12  1  0  0  0  0
 17 28  1  0  0  0  0
 17 25  1  0  0  0  0
 18  1  2  0  0  0  0
 18  4  1  0  0  0  0
 19  5  1  0  0  0  0
 19  6  1  0  0  0  0
 20 18  1  0  0  0  0
 22 24  1  0  0  0  0
 23 21  1  0  0  0  0
 24 13  1  0  0  0  0
 25 14  1  0  0  0  0
 25  9  1  0  0  0  0
 26 21  2  0  0  0  0
 27  1  1  0  0  0  0
 29 32  1  0  0  0  0
 29 28  1  0  0  0  0
 30 34  2  0  0  0  0
 31 33  1  0  0  0  0
 31 32  2  0  0  0  0
 32 34  1  0  0  0  0
 33 30  1  0  0  0  0
M  END
>  <MODEL>
1

>  <REMARK>
 VINA RESULT:      -3.7      0.000      0.000
  Name = 
  3 active torsions:
  status: ('A' for Active; 'I' for Inactive)
    1  A    between atoms: C_17  and  O_28
    2  A    between atoms: O_28  and  C_29
    3  A    between atoms: C_29  and  C_32
                            x       y       z     vdW  Elec       q    Type
                         _______ _______ _______ _____ _____    ______ ____

>  <TORSDO>
F 3

$$$$
=
 OpenBabel11122414233D

 34 41  0  0  1  0  0  0  0  0999 V2000
  161.1170  210.2800  151.1580 C   0  0  0  0  0  0  0  0  0  0  0  0
  161.9740  208.4000  152.5690 C   0  0  0  0  0  2  0  0  0  0  0  0
  156.1760  213.8040  149.3200 C   0  0  0  0  0  2  0  0  0  0  0  0
  160.8310  212.5220  150.3400 C   0  0  0  0  0  0  0  0  0  0  0  0
  159.8090  214.4240  151.7990 C   0  0  1  0  0  3  0  0  0  0  0  0
  157.4660  213.4120  151.3980 C   0  0  0  0  0  2  0  0  0  0  0  0
  156.5860  214.4010  150.6570 C   0  0  0  0  0  2  0  0  0  0  0  0
  158.5470  213.4140  148.5460 C   0  0  0  0  0  2  0  0  0  0  0  0
  159.8840  209.4560  153.2800 C   0  0  2  0  0  3  0  0  0  0  0  0
  159.9720  210.0500  156.5090 C   0  0  0  0  0  2  0  0  0  0  0  0
  159.5980  213.3370  152.8650 C   0  0  1  0  0  3  0  0  0  0  0  0
  159.4830  214.4310  149.1840 C   0  0  0  0  0  2  0  0  0  0  0  0
  159.7660  210.9550  153.6360 C   0  0  1  0  0  3  0  0  0  0  0  0
  161.5050  207.6850  153.8140 C   0  0  0  0  0  2  0  0  0  0  0  0
  160.2000  213.8770  150.4150 C   0  0  2  0  0  3  0  0  0  0  0  0
  157.2140  214.0780  148.2340 C   0  0  0  0  0  2  0  0  0  0  0  0
  161.0270  209.3440  155.6420 C   0  0  1  0  0  3  0  0  0  0  0  0
  160.5490  211.5570  151.3130 C   0  0  0  0  0  0  0  0  0  0  0  0
  158.4030  214.1520  152.3520 C   0  0  1  0  0  3  0  0  0  0  0  0
  159.5600  211.8530  152.4120 C   0  0  2  0  0  3  0  0  0  0  0  0
  162.2480  211.0100  149.2070 C   0  0  0  0  0  3  0  0  0  0  0  0
  158.6110  210.2260  155.8330 C   0  0  0  0  0  2  0  0  0  0  0  0
  161.6850  212.2380  149.3220 N   0  0  0  0  0  0  0  0  0  0  0  0
  158.6450  211.2060  154.6600 C   0  0  0  0  0  2  0  0  0  0  0  0
  160.4450  208.5810  154.4270 C   0  0  1  0  0  3  0  0  0  0  0  0
  161.9520  210.0430  150.1100 N   0  0  0  0  0  0  0  0  0  0  0  0
  160.7520  209.1350  152.0580 C   0  0  1  0  0  3  0  0  0  0  0  0
  162.0170  210.2540  155.2520 O   0  0  0  0  0  0  0  0  0  0  0  0
  162.4970  210.8080  156.4400 C   0  0  0  0  0  2  0  0  0  0  0  0
  165.9340  212.2220  156.6140 C   0  0  0  0  0  3  0  0  0  0  0  0
  164.4890  211.2250  155.0990 N   0  0  0  0  0  0  0  0  0  0  0  0
  163.8920  211.2830  156.2360 C   0  0  0  0  0  0  0  0  0  0  0  0
  165.7620  211.7790  155.2380 N   0  0  0  0  0  2  0  0  0  0  0  0
  164.6730  211.8810  157.2610 N   0  0  0  0  0  0  0  0  0  0  0  0
  1 18  1  0  0  0  0
  1 27  1  0  0  0  0
  2 14  1  0  0  0  0
  3  7  1  0  0  0  0
  4 15  1  0  0  0  0
  4 18  2  0  0  0  0
  5 19  1  0  0  0  0
  5 11  1  0  0  0  0
  6 19  1  0  0  0  0
  7  6  1  0  0  0  0
  8 12  1  0  0  0  0
  9 13  1  0  0  0  0
  9 25  1  0  0  0  0
 12 15  1  0  0  0  0
 13 24  1  0  0  0  0
 14 25  1  0  0  0  0
 15  5  1  0  0  0  0
 16  8  1  0  0  0  0
 16  3  1  0  0  0  0
 17 10  1  0  0  0  0
 18 20  1  0  0  0  0
 19 11  1  0  0  0  0
 20 11  1  0  0  0  0
 20 13  1  0  0  0  0
 21 23  2  0  0  0  0
 21 26  1  0  0  0  0
 22 10  1  0  0  0  0
 23  4  1  0  0  0  0
 24 22  1  0  0  0  0
 25 17  1  0  0  0  0
 26  1  2  0  0  0  0
 27  2  1  0  0  0  0
 27  9  1  0  0  0  0
 28 17  1  0  0  0  0
 28 29  1  0  0  0  0
 30 34  2  0  0  0  0
 31 33  1  0  0  0  0
 31 32  2  0  0  0  0
 32 29  1  0  0  0  0
 32 34  1  0  0  0  0
 33 30  1  0  0  0  0
M  END
>  <MODEL>
2

>  <REMARK>
 VINA RESULT:      -2.9      3.786      6.790
  Name = 
  3 active torsions:
  status: ('A' for Active; 'I' for Inactive)
    1  A    between atoms: C_17  and  O_28
    2  A    between atoms: O_28  and  C_29
    3  A    between atoms: C_29  and  C_32
                            x       y       z     vdW  Elec       q    Type
                         _______ _______ _______ _____ _____    ______ ____

>  <TORSDO>
F 3

$$$$
=
 OpenBabel11122414233D

 34 41  0  0  1  0  0  0  0  0999 V2000
  160.6280  210.3190  152.0800 C   0  0  0  0  0  0  0  0  0  0  0  0
  160.4510  209.3080  154.3620 C   0  0  0  0  0  2  0  0  0  0  0  0
  157.6660  212.8200  147.0610 C   0  0  0  0  0  2  0  0  0  0  0  0
  161.2150  211.8970  150.3640 C   0  0  0  0  0  0  0  0  0  0  0  0
  160.2790  214.3290  150.3200 C   0  0  1  0  0  3  0  0  0  0  0  0
  158.0340  213.4020  149.4410 C   0  0  0  0  0  2  0  0  0  0  0  0
  157.7380  213.9620  148.0620 C   0  0  0  0  0  2  0  0  0  0  0  0
  159.9770  211.9520  147.5900 C   0  0  0  0  0  2  0  0  0  0  0  0
  158.5850  210.7080  153.6220 C   0  0  2  0  0  3  0  0  0  0  0  0
  157.7260  212.7860  156.0160 C   0  0  0  0  0  2  0  0  0  0  0  0
  159.4520  213.9110  151.5460 C   0  0  1  0  0  3  0  0  0  0  0  0
  160.8690  213.0880  148.0710 C   0  0  0  0  0  2  0  0  0  0  0  0
  158.7380  212.1960  153.2340 C   0  0  1  0  0  3  0  0  0  0  0  0
  159.4240  209.3180  155.4700 C   0  0  0  0  0  2  0  0  0  0  0  0
  160.9620  213.1550  149.5950 C   0  0  2  0  0  3  0  0  0  0  0  0
  159.0430  212.4660  146.5040 C   0  0  0  0  0  2  0  0  0  0  0  0
  158.7950  211.6820  156.0520 C   0  0  1  0  0  3  0  0  0  0  0  0
  160.3860  211.5450  151.4350 C   0  0  0  0  0  0  0  0  0  0  0  0
  158.7490  214.4500  150.2920 C   0  0  1  0  0  3  0  0  0  0  0  0
  159.1930  212.4000  151.7850 C   0  0  2  0  0  3  0  0  0  0  0  0
  162.4970  209.9380  150.6730 C   0  0  0  0  0  3  0  0  0  0  0  0
  156.7660  212.6990  154.8290 C   0  0  0  0  0  2  0  0  0  0  0  0
  162.2600  211.1010  150.0180 N   0  0  0  0  0  0  0  0  0  0  0  0
  157.4410  212.9830  153.4870 C   0  0  0  0  0  2  0  0  0  0  0  0
  158.4840  210.4650  155.1470 C   0  0  1  0  0  3  0  0  0  0  0  0
  161.6780  209.5510  151.6820 N   0  0  0  0  0  0  0  0  0  0  0  0
  159.7030  209.7800  153.1330 C   0  0  1  0  0  3  0  0  0  0  0  0
  160.0550  212.2240  155.7700 O   0  0  0  0  0  0  0  0  0  0  0  0
  160.6510  212.4390  157.0140 C   0  0  0  0  0  2  0  0  0  0  0  0
  164.0430  210.9300  157.2600 C   0  0  0  0  0  3  0  0  0  0  0  0
  161.8120  210.3020  157.1710 N   0  0  0  0  0  0  0  0  0  0  0  0
  161.8630  211.5850  157.1370 C   0  0  0  0  0  0  0  0  0  0  0  0
  163.1140  209.8080  157.2530 N   0  0  0  0  0  0  0  0  0  0  0  0
  163.1850  212.1050  157.1810 N   0  0  0  0  0  2  0  0  0  0  0  0
  1 27  1  0  0  0  0
  2 14  1  0  0  0  0
  3  7  1  0  0  0  0
  4 18  1  0  0  0  0
  5 11  1  0  0  0  0
  6 19  1  0  0  0  0
  7  6  1  0  0  0  0
  8 12  1  0  0  0  0
  9 25  1  0  0  0  0
 10 17  1  0  0  0  0
 11 20  1  0  0  0  0
 12 15  1  0  0  0  0
 13 24  1  0  0  0  0
 13  9  1  0  0  0  0
 15  5  1  0  0  0  0
 15  4  1  0  0  0  0
 16  3  1  0  0  0  0
 16  8  1  0  0  0  0
 18 20  1  0  0  0  0
 18  1  2  0  0  0  0
 19  5  1  0  0  0  0
 19 11  1  0  0  0  0
 20 13  1  0  0  0  0
 21 26  2  0  0  0  0
 22 10  1  0  0  0  0
 23  4  2  0  0  0  0
 23 21  1  0  0  0  0
 24 22  1  0  0  0  0
 25 14  1  0  0  0  0
 25 17  1  0  0  0  0
 26  1  1  0  0  0  0
 27  9  1  0  0  0  0
 27  2  1  0  0  0  0
 28 17  1  0  0  0  0
 28 29  1  0  0  0  0
 29 32  1  0  0  0  0
 31 33  1  0  0  0  0
 32 31  2  0  0  0  0
 32 34  1  0  0  0  0
 33 30  2  0  0  0  0
 34 30  1  0  0  0  0
M  END
>  <MODEL>
3

>  <REMARK>
 VINA RESULT:      -2.7      3.460      7.291
  Name = 
  3 active torsions:
  status: ('A' for Active; 'I' for Inactive)
    1  A    between atoms: C_17  and  O_28
    2  A    between atoms: O_28  and  C_29
    3  A    between atoms: C_29  and  C_32
                            x       y       z     vdW  Elec       q    Type
                         _______ _______ _______ _____ _____    ______ ____

>  <TORSDO>
F 3

$$$$
=
 OpenBabel11122414233D

 34 41  0  0  1  0  0  0  0  0999 V2000
  162.3570  214.0000  141.9630 C   0  0  0  0  0  0  0  0  0  0  0  0
  162.7350  214.2170  139.4990 C   0  0  0  0  0  2  0  0  0  0  0  0
  158.3270  214.4140  146.8420 C   0  0  0  0  0  2  0  0  0  0  0  0
  162.1810  212.9620  144.1240 C   0  0  0  0  0  0  0  0  0  0  0  0
  160.3940  211.1430  144.6610 C   0  0  1  0  0  3  0  0  0  0  0  0
  158.6120  213.0060  144.8240 C   0  0  0  0  0  2  0  0  0  0  0  0
  158.0300  213.0560  146.2240 C   0  0  0  0  0  2  0  0  0  0  0  0
  160.8250  214.2280  146.5300 C   0  0  0  0  0  2  0  0  0  0  0  0
  160.4310  213.8500  140.2390 C   0  0  2  0  0  3  0  0  0  0  0  0
  159.0180  211.5300  138.3920 C   0  0  0  0  0  2  0  0  0  0  0  0
  159.8740  211.3960  143.2370 C   0  0  1  0  0  3  0  0  0  0  0  0
  161.2510  212.7670  146.5510 C   0  0  0  0  0  2  0  0  0  0  0  0
  159.9830  212.6080  141.0420 C   0  0  1  0  0  3  0  0  0  0  0  0
  161.8610  214.1970  138.2670 C   0  0  0  0  0  2  0  0  0  0  0  0
  161.4180  212.1830  145.1480 C   0  0  2  0  0  3  0  0  0  0  0  0
  159.6930  214.4410  147.5240 C   0  0  0  0  0  2  0  0  0  0  0  0
  160.4260  212.1330  138.2520 C   0  0  1  0  0  3  0  0  0  0  0  0
  161.6240  213.2080  142.8640 C   0  0  0  0  0  0  0  0  0  0  0  0
  158.9340  211.5630  144.4390 C   0  0  1  0  0  3  0  0  0  0  0  0
  160.2240  212.7420  142.5490 C   0  0  2  0  0  3  0  0  0  0  0  0
  164.1280  214.1590  143.5300 C   0  0  0  0  0  3  0  0  0  0  0  0
  158.0830  212.3150  139.3120 C   0  0  0  0  0  2  0  0  0  0  0  0
  163.4240  213.4230  144.4240 N   0  0  0  0  0  0  0  0  0  0  0  0
  158.5050  212.2700  140.7810 C   0  0  0  0  0  2  0  0  0  0  0  0
  160.5370  213.6060  138.7140 C   0  0  1  0  0  3  0  0  0  0  0  0
  163.5890  214.4530  142.3210 N   0  0  0  0  0  0  0  0  0  0  0  0
  161.7810  214.4500  140.6510 C   0  0  1  0  0  3  0  0  0  0  0  0
  161.3650  211.3190  138.8980 O   0  0  0  0  0  0  0  0  0  0  0  0
  161.7570  210.3790  137.9430 C   0  0  0  0  0  2  0  0  0  0  0  0
  162.1280  207.4270  140.1760 C   0  0  0  0  0  3  0  0  0  0  0  0
  162.0380  207.9590  137.9210 N   0  0  0  0  0  0  0  0  0  0  0  0
  161.8990  209.0470  138.5900 C   0  0  0  0  0  0  0  0  0  0  0  0
  162.1810  206.9010  138.8200 N   0  0  0  0  0  2  0  0  0  0  0  0
  161.9400  208.8610  139.9980 N   0  0  0  0  0  0  0  0  0  0  0  0
  1 26  2  0  0  0  0
  1 18  1  0  0  0  0
  2 27  1  0  0  0  0
  3 16  1  0  0  0  0
  4 23  1  0  0  0  0
  4 15  1  0  0  0  0
  5 15  1  0  0  0  0
  6  7  1  0  0  0  0
  7  3  1  0  0  0  0
  8 12  1  0  0  0  0
  8 16  1  0  0  0  0
  9 27  1  0  0  0  0
  9 13  1  0  0  0  0
 10 22  1  0  0  0  0
 11 19  1  0  0  0  0
 11  5  1  0  0  0  0
 13 20  1  0  0  0  0
 14 25  1  0  0  0  0
 14  2  1  0  0  0  0
 15 12  1  0  0  0  0
 17 10  1  0  0  0  0
 17 25  1  0  0  0  0
 17 28  1  0  0  0  0
 18  4  2  0  0  0  0
 19  5  1  0  0  0  0
 19  6  1  0  0  0  0
 20 18  1  0  0  0  0
 20 11  1  0  0  0  0
 21 23  2  0  0  0  0
 22 24  1  0  0  0  0
 24 13  1  0  0  0  0
 25  9  1  0  0  0  0
 26 21  1  0  0  0  0
 27  1  1  0  0  0  0
 29 32  1  0  0  0  0
 29 28  1  0  0  0  0
 31 32  2  0  0  0  0
 31 33  1  0  0  0  0
 32 34  1  0  0  0  0
 33 30  1  0  0  0  0
 34 30  2  0  0  0  0
M  END
>  <MODEL>
4

>  <REMARK>
 VINA RESULT:      -1.5      9.041     11.919
  Name = 
  3 active torsions:
  status: ('A' for Active; 'I' for Inactive)
    1  A    between atoms: C_17  and  O_28
    2  A    between atoms: O_28  and  C_29
    3  A    between atoms: C_29  and  C_32
                            x       y       z     vdW  Elec       q    Type
                         _______ _______ _______ _____ _____    ______ ____

>  <TORSDO>
F 3

$$$$
=
 OpenBabel11122414233D

 34 41  0  0  1  0  0  0  0  0999 V2000
  161.9270  209.3400  150.5900 C   0  0  0  0  0  0  0  0  0  0  0  0
  162.3350  210.2060  148.2780 C   0  0  0  0  0  2  0  0  0  0  0  0
  162.0210  210.4310  156.8360 C   0  0  0  0  0  2  0  0  0  0  0  0
  160.7200  208.4930  152.4880 C   0  0  0  0  0  0  0  0  0  0  0  0
  158.8990  209.8870  153.7250 C   0  0  1  0  0  3  0  0  0  0  0  0
  160.7770  211.2520  154.8580 C   0  0  0  0  0  2  0  0  0  0  0  0
  160.7250  211.0690  156.3630 C   0  0  0  0  0  2  0  0  0  0  0  0
  161.8130  208.4210  155.3220 C   0  0  0  0  0  2  0  0  0  0  0  0
  161.9540  211.8690  150.0340 C   0  0  2  0  0  3  0  0  0  0  0  0
  159.8200  214.1350  148.9860 C   0  0  0  0  0  2  0  0  0  0  0  0
  159.2770  211.0230  152.7610 C   0  0  1  0  0  3  0  0  0  0  0  0
  160.3470  208.1230  155.0420 C   0  0  0  0  0  2  0  0  0  0  0  0
  160.6610  211.9360  150.8760 C   0  0  1  0  0  3  0  0  0  0  0  0
  162.4330  211.5720  147.6390 C   0  0  0  0  0  2  0  0  0  0  0  0
  159.8760  208.6990  153.7060 C   0  0  2  0  0  3  0  0  0  0  0  0
  161.9670  208.9070  156.7560 C   0  0  0  0  0  2  0  0  0  0  0  0
  160.4040  212.9450  148.2070 C   0  0  1  0  0  3  0  0  0  0  0  0
  161.0780  209.5810  151.6840 C   0  0  0  0  0  0  0  0  0  0  0  0
  159.3640  211.2420  154.2770 C   0  0  1  0  0  3  0  0  0  0  0  0
  160.6670  210.9790  152.0730 C   0  0  2  0  0  3  0  0  0  0  0  0
  161.9230  207.0220  151.0860 C   0  0  0  0  0  3  0  0  0  0  0  0
  160.5460  214.4530  150.2940 C   0  0  0  0  0  2  0  0  0  0  0  0
  161.1310  207.2390  152.1640 N   0  0  0  0  0  0  0  0  0  0  0  0
  160.3730  213.3690  151.3580 C   0  0  0  0  0  2  0  0  0  0  0  0
  161.8330  212.5380  148.6430 C   0  0  1  0  0  3  0  0  0  0  0  0
  162.3250  208.0670  150.3200 N   0  0  0  0  0  0  0  0  0  0  0  0
  162.4920  210.4590  149.7630 C   0  0  1  0  0  3  0  0  0  0  0  0
  159.5230  211.8590  148.2550 O   0  0  0  0  0  0  0  0  0  0  0  0
  158.4100  212.2530  147.5110 C   0  0  0  0  0  2  0  0  0  0  0  0
  158.9510  213.5150  144.0540 C   0  0  0  0  0  3  0  0  0  0  0  0
  159.6770  211.8310  145.4730 N   0  0  0  0  0  0  0  0  0  0  0  0
  158.8280  212.5510  146.1150 C   0  0  0  0  0  0  0  0  0  0  0  0
  159.8210  212.3560  144.1880 N   0  0  0  0  0  2  0  0  0  0  0  0
  158.2980  213.6260  145.3520 N   0  0  0  0  0  0  0  0  0  0  0  0
  1 18  1  0  0  0  0
  2 27  1  0  0  0  0
  4 15  1  0  0  0  0
  5 19  1  0  0  0  0
  6  7  1  0  0  0  0
  7  3  1  0  0  0  0
  8 16  1  0  0  0  0
  9 13  1  0  0  0  0
 10 22  1  0  0  0  0
 11  5  1  0  0  0  0
 11 19  1  0  0  0  0
 12  8  1  0  0  0  0
 13 24  1  0  0  0  0
 13 20  1  0  0  0  0
 14  2  1  0  0  0  0
 14 25  1  0  0  0  0
 15  5  1  0  0  0  0
 15 12  1  0  0  0  0
 16  3  1  0  0  0  0
 17 28  1  0  0  0  0
 17 25  1  0  0  0  0
 17 10  1  0  0  0  0
 18 20  1  0  0  0  0
 18  4  2  0  0  0  0
 19  6  1  0  0  0  0
 20 11  1  0  0  0  0
 21 23  2  0  0  0  0
 22 24  1  0  0  0  0
 23  4  1  0  0  0  0
 25  9  1  0  0  0  0
 26  1  2  0  0  0  0
 26 21  1  0  0  0  0
 27  9  1  0  0  0  0
 27  1  1  0  0  0  0
 29 28  1  0  0  0  0
 30 33  1  0  0  0  0
 30 34  2  0  0  0  0
 31 32  2  0  0  0  0
 32 29  1  0  0  0  0
 33 31  1  0  0  0  0
 34 32  1  0  0  0  0
M  END
>  <MODEL>
5

>  <REMARK>
 VINA RESULT:      -0.9      3.961      5.604
  Name = 
  3 active torsions:
  status: ('A' for Active; 'I' for Inactive)
    1  A    between atoms: C_17  and  O_28
    2  A    between atoms: O_28  and  C_29
    3  A    between atoms: C_29  and  C_32
                            x       y       z     vdW  Elec       q    Type
                         _______ _______ _______ _____ _____    ______ ____

>  <TORSDO>
F 3

$$$$
