=
 OpenBabel11122413183D

 31 35  0  0  1  0  0  0  0  0999 V2000
  160.9810  204.4100  145.0640 C   0  0  0  0  0  0  0  0  0  0  0  0
  160.5090  204.9990  148.7940 C   0  0  2  0  0  3  0  0  0  0  0  0
  160.9160  203.7040  149.4890 C   0  0  0  0  0  0  0  0  0  0  0  0
  161.2310  201.2890  149.4010 C   0  0  0  0  0  0  0  0  0  0  0  0
  161.0500  205.1220  147.3860 C   0  0  0  0  0  0  0  0  0  0  0  0
  162.0600  205.2450  144.7700 C   0  0  0  0  0  3  0  0  0  0  0  0
  160.9400  202.4990  148.7670 C   0  0  0  0  0  3  0  0  0  0  0  0
  162.3240  206.5940  149.5290 C   0  0  2  0  0  3  0  0  0  0  0  0
  160.4240  203.6540  144.0880 F   0  0  0  0  0  0  0  0  0  0  0  0
  161.1370  204.9020  151.7300 C   0  0  0  0  0  2  0  0  0  0  0  0
  161.2630  200.1400  148.6840 F   0  0  0  0  0  0  0  0  0  0  0  0
  162.6890  206.9440  148.0880 C   0  0  0  0  0  2  0  0  0  0  0  0
  160.8310  206.2520  149.6280 C   0  0  2  0  0  3  0  0  0  0  0  0
  160.4770  204.3520  146.3650 C   0  0  0  0  0  3  0  0  0  0  0  0
  161.4790  201.2630  150.7730 C   0  0  0  0  0  3  0  0  0  0  0  0
  162.1380  205.9730  147.0830 C   0  0  0  0  0  0  0  0  0  0  0  0
  162.6280  206.0320  145.7740 C   0  0  0  0  0  3  0  0  0  0  0  0
  160.3720  206.0470  151.0740 C   0  0  0  0  0  2  0  0  0  0  0  0
  161.1320  203.6610  150.8880 C   0  0  0  0  0  0  0  0  0  0  0  0
  161.4310  202.4460  151.5120 C   0  0  0  0  0  3  0  0  0  0  0  0
  161.2740  209.2400  149.2690 O   0  0  0  0  0  0  0  0  0  0  0  0
  162.0840  209.0240  150.2090 C   0  0  0  0  0  0  0  0  0  0  0  0
  162.6430  207.7200  150.3950 N   0  0  0  0  0  2  0  0  0  0  0  0
  159.9670  210.8430  152.2880 C   0  0  0  0  0  0  0  0  0  0  0  0
  162.2520  209.8350  152.5770 C   0  0  0  0  0  2  0  0  0  0  0  0
  161.9730  211.8990  149.3200 C   0  0  0  0  0  1  0  0  0  0  0  0
  158.8180  211.1030  152.7310 O   0  0  0  0  0  0  0  0  0  0  0  0
  160.7640  209.7370  152.9160 C   0  0  0  0  0  2  0  0  0  0  0  0
  161.8110  211.5000  150.7760 C   0  0  2  0  0  3  0  0  0  0  0  0
  162.4900  210.1620  151.1030 C   0  0  2  0  0  3  0  0  0  0  0  0
  160.4350  211.5110  151.1510 O   0  0  0  0  0  0  0  0  0  0  0  0
  1 14  1  0  0  0  0
  2  5  1  6  0  0  0
  2  3  1  0  0  0  0
  2 13  1  0  0  0  0
  3 19  1  0  0  0  0
  4 15  2  0  0  0  0
  6  1  2  0  0  0  0
  6 17  1  0  0  0  0
  7  4  1  0  0  0  0
  7  3  2  0  0  0  0
  8 13  1  0  0  0  0
  8 23  1  1  0  0  0
  9  1  1  0  0  0  0
 11  4  1  0  0  0  0
 12  8  1  0  0  0  0
 13 18  1  1  0  0  0
 14  5  2  0  0  0  0
 15 20  1  0  0  0  0
 16  5  1  0  0  0  0
 16 12  1  0  0  0  0
 17 16  2  0  0  0  0
 18 10  1  0  0  0  0
 19 20  2  0  0  0  0
 19 10  1  0  0  0  0
 21 22  2  0  0  0  0
 22 23  1  0  0  0  0
 24 27  2  0  0  0  0
 24 28  1  0  0  0  0
 25 28  1  0  0  0  0
 29 26  1  6  0  0  0
 29 30  1  0  0  0  0
 29 31  1  0  0  0  0
 30 22  1  6  0  0  0
 30 25  1  0  0  0  0
 31 24  1  0  0  0  0
M  END
>  <MODEL>
1

>  <REMARK>
 VINA RESULT:      -7.8      0.000      0.000
  Name = 
  2 active torsions:
  status: ('A' for Active; 'I' for Inactive)
    1  A    between atoms: C_5  and  C_30
    2  A    between atoms: C_10  and  N_16
                            x       y       z     vdW  Elec       q    Type
                         _______ _______ _______ _____ _____    ______ ____

>  <TORSDO>
F 2

$$$$
=
 OpenBabel11122413183D

 31 35  0  0  1  0  0  0  0  0999 V2000
  160.7510  207.6080  156.3480 C   0  0  0  0  0  0  0  0  0  0  0  0
  161.8530  208.6550  152.8590 C   0  0  2  0  0  3  0  0  0  0  0  0
  161.4080  207.5430  151.9160 C   0  0  0  0  0  0  0  0  0  0  0  0
  160.8010  205.2090  151.5670 C   0  0  0  0  0  0  0  0  0  0  0  0
  161.1220  208.6490  154.1840 C   0  0  0  0  0  0  0  0  0  0  0  0
  159.7460  208.5350  156.6270 C   0  0  0  0  0  3  0  0  0  0  0  0
  161.1320  206.2620  152.4220 C   0  0  0  0  0  3  0  0  0  0  0  0
  160.3730  210.5780  152.1590 C   0  0  2  0  0  3  0  0  0  0  0  0
  161.0590  206.6490  157.2530 F   0  0  0  0  0  0  0  0  0  0  0  0
  161.6740  209.0700  149.8900 C   0  0  0  0  0  2  0  0  0  0  0  0
  160.5240  203.9850  152.0770 F   0  0  0  0  0  0  0  0  0  0  0  0
  159.8360  210.7640  153.5760 C   0  0  0  0  0  2  0  0  0  0  0  0
  161.8130  210.0480  152.2040 C   0  0  2  0  0  3  0  0  0  0  0  0
  161.4380  207.6670  155.1330 C   0  0  0  0  0  3  0  0  0  0  0  0
  160.7640  205.4160  150.1890 C   0  0  0  0  0  3  0  0  0  0  0  0
  160.1090  209.5920  154.4740 C   0  0  0  0  0  0  0  0  0  0  0  0
  159.4340  209.5290  155.6980 C   0  0  0  0  0  3  0  0  0  0  0  0
  162.4600  209.9910  150.8190 C   0  0  0  0  0  2  0  0  0  0  0  0
  161.4050  207.7330  150.5120 C   0  0  0  0  0  0  0  0  0  0  0  0
  161.0630  206.6740  149.6650 C   0  0  0  0  0  3  0  0  0  0  0  0
  158.0690  212.2520  151.9050 O   0  0  0  0  0  0  0  0  0  0  0  0
  159.1360  212.6410  151.3600 C   0  0  0  0  0  0  0  0  0  0  0  0
  160.3250  211.8500  151.4530 N   0  0  0  0  0  2  0  0  0  0  0  0
  157.6760  213.1190  148.2370 C   0  0  0  0  0  0  0  0  0  0  0  0
  157.7130  214.4530  150.3680 C   0  0  0  0  0  2  0  0  0  0  0  0
  161.2480  213.2930  149.3140 C   0  0  0  0  0  1  0  0  0  0  0  0
  157.0650  212.6770  147.2300 O   0  0  0  0  0  0  0  0  0  0  0  0
  156.8900  213.5600  149.4380 C   0  0  0  0  0  2  0  0  0  0  0  0
  159.8330  213.8350  149.2130 C   0  0  2  0  0  3  0  0  0  0  0  0
  159.1310  213.9230  150.5750 C   0  0  2  0  0  3  0  0  0  0  0  0
  159.0740  213.0880  148.2630 O   0  0  0  0  0  0  0  0  0  0  0  0
  1  6  1  0  0  0  0
  1  9  1  0  0  0  0
  2  3  1  6  0  0  0
  2  5  1  0  0  0  0
  3  7  1  0  0  0  0
  4 11  1  0  0  0  0
  4  7  2  0  0  0  0
  5 16  2  0  0  0  0
  5 14  1  0  0  0  0
  8 23  1  1  0  0  0
  8 13  1  0  0  0  0
  8 12  1  0  0  0  0
 10 19  1  0  0  0  0
 10 18  1  0  0  0  0
 12 16  1  0  0  0  0
 13 18  1  6  0  0  0
 13  2  1  0  0  0  0
 14  1  2  0  0  0  0
 15  4  1  0  0  0  0
 16 17  1  0  0  0  0
 17  6  2  0  0  0  0
 19  3  2  0  0  0  0
 20 15  2  0  0  0  0
 20 19  1  0  0  0  0
 22 23  1  0  0  0  0
 22 21  2  0  0  0  0
 24 31  1  0  0  0  0
 24 28  1  0  0  0  0
 25 30  1  0  0  0  0
 27 24  2  0  0  0  0
 28 25  1  0  0  0  0
 29 26  1  1  0  0  0
 29 30  1  0  0  0  0
 30 22  1  6  0  0  0
 31 29  1  0  0  0  0
M  END
>  <MODEL>
2

>  <REMARK>
 VINA RESULT:      -7.6      3.492      6.768
  Name = 
  2 active torsions:
  status: ('A' for Active; 'I' for Inactive)
    1  A    between atoms: C_5  and  C_30
    2  A    between atoms: C_10  and  N_16
                            x       y       z     vdW  Elec       q    Type
                         _______ _______ _______ _____ _____    ______ ____

>  <TORSDO>
F 2

$$$$
=
 OpenBabel11122413183D

 31 35  0  0  1  0  0  0  0  0999 V2000
  160.9670  206.6340  146.7210 C   0  0  0  0  0  0  0  0  0  0  0  0
  160.3200  205.0770  150.1330 C   0  0  2  0  0  3  0  0  0  0  0  0
  160.7820  203.6270  150.0380 C   0  0  0  0  0  0  0  0  0  0  0  0
  161.2530  201.6630  148.6750 C   0  0  0  0  0  0  0  0  0  0  0  0
  160.9040  205.9660  149.0560 C   0  0  0  0  0  0  0  0  0  0  0  0
  162.0010  207.5290  146.9990 C   0  0  0  0  0  3  0  0  0  0  0  0
  160.9100  203.0120  148.7810 C   0  0  0  0  0  3  0  0  0  0  0  0
  162.0020  206.0720  151.7330 C   0  0  2  0  0  3  0  0  0  0  0  0
  160.4960  206.5150  145.4560 F   0  0  0  0  0  0  0  0  0  0  0  0
  160.8440  203.4160  152.5790 C   0  0  0  0  0  2  0  0  0  0  0  0
  161.3850  201.0930  147.4530 F   0  0  0  0  0  0  0  0  0  0  0  0
  162.3970  207.1630  150.7400 C   0  0  0  0  0  2  0  0  0  0  0  0
  160.5300  205.6820  151.5320 C   0  0  2  0  0  3  0  0  0  0  0  0
  160.4190  205.8590  147.7450 C   0  0  0  0  0  3  0  0  0  0  0  0
  161.4510  200.9010  149.8260 C   0  0  0  0  0  3  0  0  0  0  0  0
  161.9460  206.8800  149.3360 C   0  0  0  0  0  0  0  0  0  0  0  0
  162.4800  207.6590  148.3040 C   0  0  0  0  0  3  0  0  0  0  0  0
  160.0320  204.7070  152.6010 C   0  0  0  0  0  2  0  0  0  0  0  0
  160.9490  202.8350  151.2010 C   0  0  0  0  0  0  0  0  0  0  0  0
  161.3010  201.4870  151.0830 C   0  0  0  0  0  3  0  0  0  0  0  0
  160.6030  208.2370  152.9690 O   0  0  0  0  0  0  0  0  0  0  0  0
  161.4830  207.6470  153.6500 C   0  0  0  0  0  0  0  0  0  0  0  0
  162.2160  206.5530  153.0900 N   0  0  0  0  0  2  0  0  0  0  0  0
  159.3600  209.5420  155.6530 C   0  0  0  0  0  0  0  0  0  0  0  0
  160.8200  207.5380  156.0670 C   0  0  0  0  0  2  0  0  0  0  0  0
  162.7010  210.3480  154.1910 C   0  0  0  0  0  1  0  0  0  0  0  0
  158.2830  210.1700  155.8280 O   0  0  0  0  0  0  0  0  0  0  0  0
  159.3930  208.0610  155.8960 C   0  0  0  0  0  2  0  0  0  0  0  0
  161.7870  209.6610  155.1910 C   0  0  2  0  0  3  0  0  0  0  0  0
  161.7820  208.1340  155.0410 C   0  0  2  0  0  3  0  0  0  0  0  0
  160.4720  210.2110  155.1310 O   0  0  0  0  0  0  0  0  0  0  0  0
  1  6  2  0  0  0  0
  1 14  1  0  0  0  0
  2  5  1  6  0  0  0
  2 13  1  0  0  0  0
  3  2  1  0  0  0  0
  3 19  1  0  0  0  0
  4  7  1  0  0  0  0
  4 15  2  0  0  0  0
  5 16  1  0  0  0  0
  6 17  1  0  0  0  0
  7  3  2  0  0  0  0
  8 23  1  1  0  0  0
  9  1  1  0  0  0  0
 10 18  1  0  0  0  0
 11  4  1  0  0  0  0
 12  8  1  0  0  0  0
 13  8  1  0  0  0  0
 13 18  1  1  0  0  0
 14  5  2  0  0  0  0
 15 20  1  0  0  0  0
 16 12  1  0  0  0  0
 17 16  2  0  0  0  0
 19 10  1  0  0  0  0
 20 19  2  0  0  0  0
 21 22  2  0  0  0  0
 23 22  1  0  0  0  0
 24 27  2  0  0  0  0
 24 28  1  0  0  0  0
 28 25  1  0  0  0  0
 29 26  1  6  0  0  0
 30 22  1  6  0  0  0
 30 29  1  0  0  0  0
 30 25  1  0  0  0  0
 31 29  1  0  0  0  0
 31 24  1  0  0  0  0
M  END
>  <MODEL>
3

>  <REMARK>
 VINA RESULT:      -7.4      2.256      2.925
  Name = 
  2 active torsions:
  status: ('A' for Active; 'I' for Inactive)
    1  A    between atoms: C_5  and  C_30
    2  A    between atoms: C_10  and  N_16
                            x       y       z     vdW  Elec       q    Type
                         _______ _______ _______ _____ _____    ______ ____

>  <TORSDO>
F 2

$$$$
=
 OpenBabel11122413183D

 31 35  0  0  1  0  0  0  0  0999 V2000
  161.2490  203.8390  145.6480 C   0  0  0  0  0  0  0  0  0  0  0  0
  160.5590  205.7030  148.8940 C   0  0  2  0  0  3  0  0  0  0  0  0
  160.9510  204.7570  150.0240 C   0  0  0  0  0  0  0  0  0  0  0  0
  161.3150  202.4840  150.8220 C   0  0  0  0  0  0  0  0  0  0  0  0
  161.1750  205.3360  147.5610 C   0  0  0  0  0  0  0  0  0  0  0  0
  162.3270  204.5540  145.1240 C   0  0  0  0  0  3  0  0  0  0  0  0
  161.0380  203.3760  149.7840 C   0  0  0  0  0  3  0  0  0  0  0  0
  162.3000  207.5220  149.0890 C   0  0  2  0  0  3  0  0  0  0  0  0
  160.7620  202.7640  144.9840 F   0  0  0  0  0  0  0  0  0  0  0  0
  161.0240  206.6840  151.6940 C   0  0  0  0  0  2  0  0  0  0  0  0
  161.4100  201.1570  150.5670 F   0  0  0  0  0  0  0  0  0  0  0  0
  162.7380  207.3480  147.6370 C   0  0  0  0  0  2  0  0  0  0  0  0
  160.8100  207.1820  149.2370 C   0  0  2  0  0  3  0  0  0  0  0  0
  160.6740  204.2300  146.8590 C   0  0  0  0  0  3  0  0  0  0  0  0
  161.4870  202.9590  152.1210 C   0  0  0  0  0  3  0  0  0  0  0  0
  162.2620  206.0630  147.0230 C   0  0  0  0  0  0  0  0  0  0  0  0
  162.8230  205.6680  145.8040 C   0  0  0  0  0  3  0  0  0  0  0  0
  160.2750  207.4900  150.6370 C   0  0  0  0  0  2  0  0  0  0  0  0
  161.0890  205.2250  151.3540 C   0  0  0  0  0  0  0  0  0  0  0  0
  161.3760  204.3250  152.3850 C   0  0  0  0  0  3  0  0  0  0  0  0
  161.3020  209.8630  147.7880 O   0  0  0  0  0  0  0  0  0  0  0  0
  162.0210  210.0250  148.8090 C   0  0  0  0  0  0  0  0  0  0  0  0
  162.5490  208.8940  149.5080 N   0  0  0  0  0  2  0  0  0  0  0  0
  160.7260  212.9650  147.4680 C   0  0  0  0  0  0  0  0  0  0  0  0
  161.1250  212.1440  149.8100 C   0  0  0  0  0  2  0  0  0  0  0  0
  164.2210  211.6500  147.5470 C   0  0  0  0  0  1  0  0  0  0  0  0
  160.0150  213.5670  146.6220 O   0  0  0  0  0  0  0  0  0  0  0  0
  160.0910  212.4440  148.7240 C   0  0  0  0  0  2  0  0  0  0  0  0
  163.0000  212.2980  148.1760 C   0  0  2  0  0  3  0  0  0  0  0  0
  162.3530  211.4220  149.2570 C   0  0  2  0  0  3  0  0  0  0  0  0
  162.0660  212.6930  147.1720 O   0  0  0  0  0  0  0  0  0  0  0  0
  1 14  1  0  0  0  0
  2  5  1  6  0  0  0
  2 13  1  0  0  0  0
  2  3  1  0  0  0  0
  3 19  1  0  0  0  0
  4 15  2  0  0  0  0
  6  1  2  0  0  0  0
  6 17  1  0  0  0  0
  7  3  2  0  0  0  0
  7  4  1  0  0  0  0
  8 13  1  0  0  0  0
  8 23  1  6  0  0  0
  9  1  1  0  0  0  0
 11  4  1  0  0  0  0
 12  8  1  0  0  0  0
 13 18  1  1  0  0  0
 14  5  2  0  0  0  0
 15 20  1  0  0  0  0
 16  5  1  0  0  0  0
 16 12  1  0  0  0  0
 17 16  2  0  0  0  0
 18 10  1  0  0  0  0
 19 10  1  0  0  0  0
 19 20  2  0  0  0  0
 21 22  2  0  0  0  0
 22 23  1  0  0  0  0
 24 28  1  0  0  0  0
 27 24  2  0  0  0  0
 28 25  1  0  0  0  0
 29 26  1  6  0  0  0
 29 30  1  0  0  0  0
 30 22  1  6  0  0  0
 30 25  1  0  0  0  0
 31 24  1  0  0  0  0
 31 29  1  0  0  0  0
M  END
>  <MODEL>
4

>  <REMARK>
 VINA RESULT:      -7.0      1.927      2.524
  Name = 
  2 active torsions:
  status: ('A' for Active; 'I' for Inactive)
    1  A    between atoms: C_5  and  C_30
    2  A    between atoms: C_10  and  N_16
                            x       y       z     vdW  Elec       q    Type
                         _______ _______ _______ _____ _____    ______ ____

>  <TORSDO>
F 2

$$$$
=
 OpenBabel11122413183D

 31 35  0  0  1  0  0  0  0  0999 V2000
  160.4640  209.5830  154.7170 C   0  0  0  0  0  0  0  0  0  0  0  0
  161.9770  210.0480  151.2560 C   0  0  2  0  0  3  0  0  0  0  0  0
  161.5690  208.8260  150.4410 C   0  0  0  0  0  0  0  0  0  0  0  0
  160.8710  206.4920  150.3710 C   0  0  0  0  0  0  0  0  0  0  0  0
  161.1130  210.2710  152.4790 C   0  0  0  0  0  0  0  0  0  0  0  0
  159.4890  210.5810  154.7470 C   0  0  0  0  0  3  0  0  0  0  0  0
  161.1710  207.6480  151.0950 C   0  0  0  0  0  3  0  0  0  0  0  0
  160.6870  211.9010  150.1250 C   0  0  2  0  0  3  0  0  0  0  0  0
  160.6220  208.7600  155.7810 F   0  0  0  0  0  0  0  0  0  0  0  0
  162.1280  210.0190  148.2570 C   0  0  0  0  0  2  0  0  0  0  0  0
  160.4750  205.3710  151.0190 F   0  0  0  0  0  0  0  0  0  0  0  0
  160.0180  212.3210  151.4320 C   0  0  0  0  0  2  0  0  0  0  0  0
  162.0820  211.3270  150.4060 C   0  0  2  0  0  3  0  0  0  0  0  0
  161.2740  209.4320  153.5900 C   0  0  0  0  0  3  0  0  0  0  0  0
  160.9880  206.4910  148.9810 C   0  0  0  0  0  3  0  0  0  0  0  0
  160.1300  211.2870  152.5160 C   0  0  0  0  0  0  0  0  0  0  0  0
  159.3310  211.4370  153.6540 C   0  0  0  0  0  3  0  0  0  0  0  0
  162.8640  211.0360  149.1230 C   0  0  0  0  0  2  0  0  0  0  0  0
  161.7210  208.8020  149.0330 C   0  0  0  0  0  0  0  0  0  0  0  0
  161.4100  207.6430  148.3160 C   0  0  0  0  0  3  0  0  0  0  0  0
  159.5650  212.0820  147.5010 O   0  0  0  0  0  0  0  0  0  0  0  0
  160.2000  213.0800  147.9340 C   0  0  0  0  0  0  0  0  0  0  0  0
  160.7830  213.0540  149.2410 N   0  0  0  0  0  2  0  0  0  0  0  0
  161.1340  213.0190  144.5820 C   0  0  0  0  0  0  0  0  0  0  0  0
  159.3830  214.2690  145.8820 C   0  0  0  0  0  2  0  0  0  0  0  0
  162.8570  214.4510  147.5700 C   0  0  0  0  0  1  0  0  0  0  0  0
  161.4970  212.3910  143.5530 O   0  0  0  0  0  0  0  0  0  0  0  0
  159.6690  213.1450  144.8850 C   0  0  0  0  0  2  0  0  0  0  0  0
  161.7940  214.4530  146.4860 C   0  0  2  0  0  3  0  0  0  0  0  0
  160.3750  214.2790  147.0440 C   0  0  2  0  0  3  0  0  0  0  0  0
  162.0980  213.4890  145.4800 O   0  0  0  0  0  0  0  0  0  0  0  0
  1  6  1  0  0  0  0
  1  9  1  0  0  0  0
  2  3  1  6  0  0  0
  2  5  1  0  0  0  0
  3  7  1  0  0  0  0
  4 11  1  0  0  0  0
  4  7  2  0  0  0  0
  5 16  2  0  0  0  0
  5 14  1  0  0  0  0
  8 23  1  6  0  0  0
  8 13  1  0  0  0  0
  8 12  1  0  0  0  0
 10 19  1  0  0  0  0
 10 18  1  0  0  0  0
 12 16  1  0  0  0  0
 13 18  1  6  0  0  0
 13  2  1  0  0  0  0
 14  1  2  0  0  0  0
 15  4  1  0  0  0  0
 16 17  1  0  0  0  0
 17  6  2  0  0  0  0
 19  3  2  0  0  0  0
 20 15  2  0  0  0  0
 20 19  1  0  0  0  0
 21 22  2  0  0  0  0
 22 23  1  0  0  0  0
 24 28  1  0  0  0  0
 24 31  1  0  0  0  0
 25 30  1  0  0  0  0
 27 24  2  0  0  0  0
 28 25  1  0  0  0  0
 29 30  1  0  0  0  0
 29 26  1  1  0  0  0
 30 22  1  6  0  0  0
 31 29  1  0  0  0  0
M  END
>  <MODEL>
5

>  <REMARK>
 VINA RESULT:      -6.1      3.745      7.277
  Name = 
  2 active torsions:
  status: ('A' for Active; 'I' for Inactive)
    1  A    between atoms: C_5  and  C_30
    2  A    between atoms: C_10  and  N_16
                            x       y       z     vdW  Elec       q    Type
                         _______ _______ _______ _____ _____    ______ ____

>  <TORSDO>
F 2

$$$$
=
 OpenBabel11122413183D

 31 35  0  0  1  0  0  0  0  0999 V2000
  162.0650  206.4590  147.5230 C   0  0  0  0  0  0  0  0  0  0  0  0
  162.3930  209.1280  150.2160 C   0  0  2  0  0  3  0  0  0  0  0  0
  161.7580  210.3920  149.6480 C   0  0  0  0  0  0  0  0  0  0  0  0
  161.0940  211.7160  147.7130 C   0  0  0  0  0  0  0  0  0  0  0  0
  161.9620  207.8650  149.5030 C   0  0  0  0  0  0  0  0  0  0  0  0
  161.1410  205.5810  148.0920 C   0  0  0  0  0  3  0  0  0  0  0  0
  161.5990  210.5340  148.2600 C   0  0  0  0  0  3  0  0  0  0  0  0
  160.7940  208.5110  152.0710 C   0  0  2  0  0  3  0  0  0  0  0  0
  162.5610  206.2120  146.2870 F   0  0  0  0  0  0  0  0  0  0  0  0
  161.5820  211.4240  151.9750 C   0  0  0  0  0  2  0  0  0  0  0  0
  160.9350  211.8270  146.3730 F   0  0  0  0  0  0  0  0  0  0  0  0
  160.5720  207.1120  151.5020 C   0  0  0  0  0  2  0  0  0  0  0  0
  162.2110  208.9990  151.7390 C   0  0  2  0  0  3  0  0  0  0  0  0
  162.4750  207.5930  148.2270 C   0  0  0  0  0  3  0  0  0  0  0  0
  160.7630  212.7830  148.5460 C   0  0  0  0  0  3  0  0  0  0  0  0
  161.0330  206.9690  150.0800 C   0  0  0  0  0  0  0  0  0  0  0  0
  160.6360  205.8300  149.3710 C   0  0  0  0  0  3  0  0  0  0  0  0
  162.5470  210.3280  152.4180 C   0  0  0  0  0  2  0  0  0  0  0  0
  161.4540  211.4960  150.4820 C   0  0  0  0  0  0  0  0  0  0  0  0
  160.9410  212.6720  149.9260 C   0  0  0  0  0  3  0  0  0  0  0  0
  159.1560  210.3220  153.5570 O   0  0  0  0  0  0  0  0  0  0  0  0
  159.7600  209.4230  154.1980 C   0  0  0  0  0  0  0  0  0  0  0  0
  160.5940  208.4830  153.5130 N   0  0  0  0  0  2  0  0  0  0  0  0
  162.2680  210.1770  156.4910 C   0  0  0  0  0  0  0  0  0  0  0  0
  159.8280  210.7570  156.3220 C   0  0  0  0  0  2  0  0  0  0  0  0
  160.4650  206.9780  155.8110 C   0  0  0  0  0  1  0  0  0  0  0  0
  163.4560  210.4970  156.7550 O   0  0  0  0  0  0  0  0  0  0  0  0
  161.2680  211.2550  156.1870 C   0  0  0  0  0  2  0  0  0  0  0  0
  160.5720  208.3800  156.3840 C   0  0  2  0  0  3  0  0  0  0  0  0
  159.6310  209.3770  155.6960 C   0  0  2  0  0  3  0  0  0  0  0  0
  161.9280  208.8260  156.3760 O   0  0  0  0  0  0  0  0  0  0  0  0
  1  6  2  0  0  0  0
  1 14  1  0  0  0  0
  2  5  1  6  0  0  0
  2 13  1  0  0  0  0
  3  2  1  0  0  0  0
  3 19  1  0  0  0  0
  4  7  1  0  0  0  0
  4 15  2  0  0  0  0
  5 16  1  0  0  0  0
  6 17  1  0  0  0  0
  7  3  2  0  0  0  0
  8 23  1  1  0  0  0
  9  1  1  0  0  0  0
 10 18  1  0  0  0  0
 11  4  1  0  0  0  0
 12  8  1  0  0  0  0
 13  8  1  0  0  0  0
 13 18  1  1  0  0  0
 14  5  2  0  0  0  0
 15 20  1  0  0  0  0
 16 12  1  0  0  0  0
 17 16  2  0  0  0  0
 19 10  1  0  0  0  0
 20 19  2  0  0  0  0
 21 22  2  0  0  0  0
 23 22  1  0  0  0  0
 24 27  2  0  0  0  0
 28 25  1  0  0  0  0
 28 24  1  0  0  0  0
 29 26  1  6  0  0  0
 30 22  1  6  0  0  0
 30 25  1  0  0  0  0
 30 29  1  0  0  0  0
 31 29  1  0  0  0  0
 31 24  1  0  0  0  0
M  END
>  <MODEL>
6

>  <REMARK>
 VINA RESULT:      -5.9      3.003      6.315
  Name = 
  2 active torsions:
  status: ('A' for Active; 'I' for Inactive)
    1  A    between atoms: C_5  and  C_30
    2  A    between atoms: C_10  and  N_16
                            x       y       z     vdW  Elec       q    Type
                         _______ _______ _______ _____ _____    ______ ____

>  <TORSDO>
F 2

$$$$
=
 OpenBabel11122413183D

 31 35  0  0  1  0  0  0  0  0999 V2000
  157.7720  213.9950  152.0700 C   0  0  0  0  0  0  0  0  0  0  0  0
  160.8500  213.5200  149.8820 C   0  0  2  0  0  3  0  0  0  0  0  0
  161.1940  212.0360  149.9410 C   0  0  0  0  0  0  0  0  0  0  0  0
  161.0860  209.9050  151.1180 C   0  0  0  0  0  0  0  0  0  0  0  0
  159.4270  213.8250  150.2990 C   0  0  0  0  0  0  0  0  0  0  0  0
  156.7880  214.2990  151.1290 C   0  0  0  0  0  3  0  0  0  0  0  0
  160.7170  211.2470  151.0000 C   0  0  0  0  0  3  0  0  0  0  0  0
  160.1070  213.8030  147.4850 C   0  0  2  0  0  3  0  0  0  0  0  0
  157.4530  213.9220  153.3850 F   0  0  0  0  0  0  0  0  0  0  0  0
  162.6550  212.2290  147.8590 C   0  0  0  0  0  2  0  0  0  0  0  0
  160.6030  209.1580  152.1390 F   0  0  0  0  0  0  0  0  0  0  0  0
  158.7590  214.3860  147.9040 C   0  0  0  0  0  2  0  0  0  0  0  0
  161.1820  214.1580  148.5210 C   0  0  2  0  0  3  0  0  0  0  0  0
  159.0860  213.7620  151.6570 C   0  0  0  0  0  3  0  0  0  0  0  0
  161.9580  209.3390  150.1890 C   0  0  0  0  0  3  0  0  0  0  0  0
  158.4290  214.1420  149.3490 C   0  0  0  0  0  0  0  0  0  0  0  0
  157.1190  214.3830  149.7740 C   0  0  0  0  0  3  0  0  0  0  0  0
  162.5850  213.7370  148.0770 C   0  0  0  0  0  2  0  0  0  0  0  0
  162.1090  211.4610  149.0250 C   0  0  0  0  0  0  0  0  0  0  0  0
  162.4660  210.1140  149.1460 C   0  0  0  0  0  3  0  0  0  0  0  0
  160.0280  212.3420  145.0290 O   0  0  0  0  0  0  0  0  0  0  0  0
  160.4140  213.5400  144.9830 C   0  0  0  0  0  0  0  0  0  0  0  0
  160.4730  214.3260  146.1770 N   0  0  0  0  0  2  0  0  0  0  0  0
  160.8460  211.7710  142.0160 C   0  0  0  0  0  0  0  0  0  0  0  0
  159.7730  213.9700  142.5960 C   0  0  0  0  0  2  0  0  0  0  0  0
  163.3030  213.6220  144.1340 C   0  0  0  0  0  1  0  0  0  0  0  0
  160.8530  210.6900  141.3720 O   0  0  0  0  0  0  0  0  0  0  0  0
  159.5510  212.5110  142.1940 C   0  0  0  0  0  2  0  0  0  0  0  0
  162.1700  213.5410  143.1270 C   0  0  2  0  0  3  0  0  0  0  0  0
  160.8540  214.1180  143.6660 C   0  0  2  0  0  3  0  0  0  0  0  0
  162.0160  212.2060  142.6480 O   0  0  0  0  0  0  0  0  0  0  0  0
  1  9  1  0  0  0  0
  2  3  1  6  0  0  0
  2  5  1  0  0  0  0
  3  7  1  0  0  0  0
  4 11  1  0  0  0  0
  5 14  2  0  0  0  0
  6  1  2  0  0  0  0
  7  4  2  0  0  0  0
  8 23  1  6  0  0  0
  8 12  1  0  0  0  0
  8 13  1  0  0  0  0
 10 18  1  0  0  0  0
 10 19  1  0  0  0  0
 12 16  1  0  0  0  0
 13 18  1  6  0  0  0
 13  2  1  0  0  0  0
 14  1  1  0  0  0  0
 15  4  1  0  0  0  0
 16 17  2  0  0  0  0
 16  5  1  0  0  0  0
 17  6  1  0  0  0  0
 19 20  1  0  0  0  0
 19  3  2  0  0  0  0
 20 15  2  0  0  0  0
 22 21  2  0  0  0  0
 22 23  1  0  0  0  0
 24 28  1  0  0  0  0
 24 31  1  0  0  0  0
 25 30  1  0  0  0  0
 27 24  2  0  0  0  0
 28 25  1  0  0  0  0
 29 30  1  0  0  0  0
 29 26  1  1  0  0  0
 30 22  1  1  0  0  0
 31 29  1  0  0  0  0
M  END
>  <MODEL>
7

>  <REMARK>
 VINA RESULT:      -5.5      5.670      9.364
  Name = 
  2 active torsions:
  status: ('A' for Active; 'I' for Inactive)
    1  A    between atoms: C_5  and  C_30
    2  A    between atoms: C_10  and  N_16
                            x       y       z     vdW  Elec       q    Type
                         _______ _______ _______ _____ _____    ______ ____

>  <TORSDO>
F 2

$$$$
=
 OpenBabel11122413183D

 31 35  0  0  1  0  0  0  0  0999 V2000
  162.0160  212.9500  147.9470 C   0  0  0  0  0  0  0  0  0  0  0  0
  159.6550  213.8790  150.7840 C   0  0  2  0  0  3  0  0  0  0  0  0
  158.2550  213.9240  150.1810 C   0  0  0  0  0  0  0  0  0  0  0  0
  156.8220  214.2010  148.2300 C   0  0  0  0  0  0  0  0  0  0  0  0
  160.6450  213.0970  149.9480 C   0  0  0  0  0  0  0  0  0  0  0  0
  162.4210  211.6650  148.3130 C   0  0  0  0  0  3  0  0  0  0  0  0
  158.0930  214.0760  148.7940 C   0  0  0  0  0  3  0  0  0  0  0  0
  159.5140  211.8770  152.3180 C   0  0  2  0  0  3  0  0  0  0  0  0
  162.4740  213.5040  146.7990 F   0  0  0  0  0  0  0  0  0  0  0  0
  157.1870  213.7930  152.4940 C   0  0  0  0  0  2  0  0  0  0  0  0
  156.6870  214.3320  146.8880 F   0  0  0  0  0  0  0  0  0  0  0  0
  160.7110  211.2020  151.6520 C   0  0  0  0  0  2  0  0  0  0  0  0
  159.6610  213.4040  152.2480 C   0  0  2  0  0  3  0  0  0  0  0  0
  161.1340  213.6630  148.7630 C   0  0  0  0  0  3  0  0  0  0  0  0
  155.6930  214.1990  149.0480 C   0  0  0  0  0  3  0  0  0  0  0  0
  161.0650  211.7990  150.3200 C   0  0  0  0  0  0  0  0  0  0  0  0
  161.9560  211.0980  149.5010 C   0  0  0  0  0  3  0  0  0  0  0  0
  158.5720  214.1340  153.0370 C   0  0  0  0  0  2  0  0  0  0  0  0
  157.1040  213.9620  151.0060 C   0  0  0  0  0  0  0  0  0  0  0  0
  155.8360  214.0780  150.4310 C   0  0  0  0  0  3  0  0  0  0  0  0
  160.3180  209.3210  153.3120 O   0  0  0  0  0  0  0  0  0  0  0  0
  159.8410  210.1440  154.1370 C   0  0  0  0  0  0  0  0  0  0  0  0
  159.4220  211.4410  153.7030 N   0  0  0  0  0  2  0  0  0  0  0  0
  162.2880  210.3100  156.6070 C   0  0  0  0  0  0  0  0  0  0  0  0
  159.8480  210.9110  156.5260 C   0  0  0  0  0  2  0  0  0  0  0  0
  160.5250  207.3770  155.1110 C   0  0  0  0  0  1  0  0  0  0  0  0
  163.4670  210.5560  156.9710 O   0  0  0  0  0  0  0  0  0  0  0  0
  161.2870  211.4280  156.5540 C   0  0  0  0  0  2  0  0  0  0  0  0
  160.6080  208.5930  156.0170 C   0  0  2  0  0  3  0  0  0  0  0  0
  159.6760  209.7290  155.5730 C   0  0  2  0  0  3  0  0  0  0  0  0
  161.9600  209.0280  156.1530 O   0  0  0  0  0  0  0  0  0  0  0  0
  1  6  2  0  0  0  0
  1 14  1  0  0  0  0
  2  5  1  6  0  0  0
  2 13  1  0  0  0  0
  3  2  1  0  0  0  0
  3 19  1  0  0  0  0
  4  7  1  0  0  0  0
  4 15  2  0  0  0  0
  5 16  1  0  0  0  0
  6 17  1  0  0  0  0
  7  3  2  0  0  0  0
  8 23  1  1  0  0  0
  9  1  1  0  0  0  0
 10 18  1  0  0  0  0
 11  4  1  0  0  0  0
 12  8  1  0  0  0  0
 13  8  1  0  0  0  0
 13 18  1  1  0  0  0
 14  5  2  0  0  0  0
 15 20  1  0  0  0  0
 16 12  1  0  0  0  0
 17 16  2  0  0  0  0
 19 10  1  0  0  0  0
 20 19  2  0  0  0  0
 21 22  2  0  0  0  0
 23 22  1  0  0  0  0
 24 27  2  0  0  0  0
 25 28  1  0  0  0  0
 28 24  1  0  0  0  0
 29 26  1  6  0  0  0
 29 31  1  0  0  0  0
 30 22  1  6  0  0  0
 30 29  1  0  0  0  0
 30 25  1  0  0  0  0
 31 24  1  0  0  0  0
M  END
>  <MODEL>
8

>  <REMARK>
 VINA RESULT:      -5.4      5.996      8.755
  Name = 
  2 active torsions:
  status: ('A' for Active; 'I' for Inactive)
    1  A    between atoms: C_5  and  C_30
    2  A    between atoms: C_10  and  N_16
                            x       y       z     vdW  Elec       q    Type
                         _______ _______ _______ _____ _____    ______ ____

>  <TORSDO>
F 2

$$$$
=
 OpenBabel11122413183D

 31 35  0  0  1  0  0  0  0  0999 V2000
  160.6160  207.6830  155.4740 C   0  0  0  0  0  0  0  0  0  0  0  0
  161.8830  208.4090  151.9600 C   0  0  2  0  0  3  0  0  0  0  0  0
  161.3640  207.2820  151.0740 C   0  0  0  0  0  0  0  0  0  0  0  0
  160.5650  204.9910  150.8520 C   0  0  0  0  0  0  0  0  0  0  0  0
  161.1240  208.5500  153.2620 C   0  0  0  0  0  0  0  0  0  0  0  0
  159.6890  208.7080  155.6680 C   0  0  0  0  0  3  0  0  0  0  0  0
  160.9670  206.0640  151.6500 C   0  0  0  0  0  3  0  0  0  0  0  0
  160.5910  210.4020  151.1020 C   0  0  2  0  0  3  0  0  0  0  0  0
  160.8190  206.7600  156.4450 F   0  0  0  0  0  0  0  0  0  0  0  0
  161.8070  208.6490  148.9670 C   0  0  0  0  0  2  0  0  0  0  0  0
  160.1720  203.8290  151.4280 F   0  0  0  0  0  0  0  0  0  0  0  0
  160.0400  210.7240  152.4900 C   0  0  0  0  0  2  0  0  0  0  0  0
  161.9780  209.7560  151.2200 C   0  0  2  0  0  3  0  0  0  0  0  0
  161.3320  207.6070  154.2780 C   0  0  0  0  0  3  0  0  0  0  0  0
  160.5770  205.1120  149.4630 C   0  0  0  0  0  3  0  0  0  0  0  0
  160.1900  209.5920  153.4650 C   0  0  0  0  0  0  0  0  0  0  0  0
  159.4860  209.6640  154.6710 C   0  0  0  0  0  3  0  0  0  0  0  0
  162.6490  209.5570  149.8590 C   0  0  0  0  0  2  0  0  0  0  0  0
  161.4090  207.3820  149.6620 C   0  0  0  0  0  0  0  0  0  0  0  0
  160.9960  206.3050  148.8720 C   0  0  0  0  0  3  0  0  0  0  0  0
  159.0790  212.7820  151.5810 O   0  0  0  0  0  0  0  0  0  0  0  0
  159.8810  212.7850  150.6100 C   0  0  0  0  0  0  0  0  0  0  0  0
  160.6690  211.6270  150.3190 N   0  0  0  0  0  2  0  0  0  0  0  0
  158.9750  212.9620  147.2540 C   0  0  0  0  0  0  0  0  0  0  0  0
  158.5870  214.4460  149.2450 C   0  0  0  0  0  2  0  0  0  0  0  0
  162.2930  213.3950  148.9130 C   0  0  0  0  0  1  0  0  0  0  0  0
  158.5670  212.4170  146.1950 O   0  0  0  0  0  0  0  0  0  0  0  0
  157.9750  213.4480  148.2620 C   0  0  0  0  0  2  0  0  0  0  0  0
  160.8990  213.8560  148.5260 C   0  0  2  0  0  3  0  0  0  0  0  0
  159.9660  214.0060  149.7350 C   0  0  2  0  0  3  0  0  0  0  0  0
  160.3470  213.0040  147.5230 O   0  0  0  0  0  0  0  0  0  0  0  0
  1  6  1  0  0  0  0
  1  9  1  0  0  0  0
  2  3  1  6  0  0  0
  2  5  1  0  0  0  0
  3  7  1  0  0  0  0
  4 11  1  0  0  0  0
  4  7  2  0  0  0  0
  5 16  2  0  0  0  0
  5 14  1  0  0  0  0
  8 23  1  6  0  0  0
  8 13  1  0  0  0  0
  8 12  1  0  0  0  0
 10 19  1  0  0  0  0
 10 18  1  0  0  0  0
 12 16  1  0  0  0  0
 13 18  1  6  0  0  0
 13  2  1  0  0  0  0
 14  1  2  0  0  0  0
 15  4  1  0  0  0  0
 16 17  1  0  0  0  0
 17  6  2  0  0  0  0
 19  3  2  0  0  0  0
 20 15  2  0  0  0  0
 20 19  1  0  0  0  0
 22 21  2  0  0  0  0
 23 22  1  0  0  0  0
 24 31  1  0  0  0  0
 24 28  1  0  0  0  0
 25 30  1  0  0  0  0
 27 24  2  0  0  0  0
 28 25  1  0  0  0  0
 29 26  1  1  0  0  0
 29 30  1  0  0  0  0
 30 22  1  6  0  0  0
 31 29  1  0  0  0  0
M  END
>  <MODEL>
9

>  <REMARK>
 VINA RESULT:      -5.3      3.184      6.343
  Name = 
  2 active torsions:
  status: ('A' for Active; 'I' for Inactive)
    1  A    between atoms: C_5  and  C_30
    2  A    between atoms: C_10  and  N_16
                            x       y       z     vdW  Elec       q    Type
                         _______ _______ _______ _____ _____    ______ ____

>  <TORSDO>
F 2

$$$$
