=
 OpenBabel11122414343D

 34 42  0  0  1  0  0  0  0  0999 V2000
  161.6040  208.9910  151.0970 C   0  0  0  0  0  0  0  0  0  0  0  0
  161.6740  210.8170  152.8190 C   0  0  0  0  0  3  0  0  0  0  0  0
  160.9570  202.5380  149.5000 C   0  0  1  0  0  0  0  0  0  0  0  0
  161.5420  207.0420  149.6100 C   0  0  0  0  0  0  0  0  0  0  0  0
  161.1230  204.8830  150.5960 C   0  0  0  0  0  0  0  0  0  0  0  0
  160.6920  202.4820  151.4360 C   0  0  2  0  0  3  0  0  0  0  0  0
  160.6930  201.5030  150.4480 O   0  0  0  0  0  0  0  0  0  0  0  0
  161.4000  203.8790  147.5140 C   0  0  0  0  0  3  0  0  0  0  0  0
  161.2730  208.7000  153.4200 C   0  0  0  0  0  0  0  0  0  0  0  0
  159.5770  208.1480  155.8570 C   0  0  0  0  0  3  0  0  0  0  0  0
  161.0430  205.4750  151.7850 O   0  0  0  0  0  0  0  0  0  0  0  0
  161.4960  205.1160  148.0320 C   0  0  0  0  0  2  0  0  0  0  0  0
  161.0840  207.3250  153.2690 C   0  0  0  0  0  0  0  0  0  0  0  0
  161.5600  210.8550  154.1460 C   0  0  0  0  0  3  0  0  0  0  0  0
  161.3810  205.6510  149.4300 C   0  0  0  0  0  0  0  0  0  0  0  0
  161.1390  202.6050  148.1970 C   0  0  0  0  0  3  0  0  0  0  0  0
  160.0320  209.3450  155.4500 C   0  0  0  0  0  0  0  0  0  0  0  0
  161.4430  207.5950  150.9050 C   0  0  0  0  0  0  0  0  0  0  0  0
  160.9550  203.5720  150.5500 C   0  0  0  0  0  0  0  0  0  0  0  0
  161.1940  206.7840  151.9680 C   0  0  0  0  0  0  0  0  0  0  0  0
  161.9570  209.2770  148.7200 C   0  0  0  0  0  3  0  0  0  0  0  0
  160.1420  206.8170  155.5390 C   0  0  0  0  0  3  0  0  0  0  0  0
  161.8000  207.9010  148.5270 C   0  0  0  0  0  3  0  0  0  0  0  0
  160.7860  206.4540  154.4230 C   0  0  0  0  0  3  0  0  0  0  0  0
  161.3230  209.4650  154.6900 C   0  0  1  0  0  3  0  0  0  0  0  0
  161.8620  209.8220  150.0010 C   0  0  0  0  0  3  0  0  0  0  0  0
  161.5140  209.4840  152.3600 N   0  0  0  0  0  0  0  0  0  0  0  0
  159.3410  210.5150  155.7930 O   0  0  0  0  0  0  0  0  0  0  0  0
  157.9260  210.6410  155.7090 C   0  0  0  0  0  2  0  0  0  0  0  0
  158.8920  213.6770  154.0000 C   0  0  0  0  0  2  0  0  0  0  0  0
  158.0610  211.5080  153.3770 C   0  0  0  0  0  2  0  0  0  0  0  0
  157.5640  211.7840  154.7790 C   0  0  0  0  0  3  0  0  0  0  0  0
  158.4210  212.8620  152.8140 C   0  0  0  0  0  2  0  0  0  0  0  0
  158.2500  213.0590  155.2310 C   0  0  0  0  0  2  0  0  0  0  0  0
  1 27  1  0  0  0  0
  2 14  2  0  0  0  0
  3 16  1  6  0  0  0
  3  7  1  0  0  0  0
  3 19  1  0  0  0  0
  3  6  1  0  0  0  0
  4 18  1  0  0  0  0
  5 11  1  0  0  0  0
  6  7  1  6  0  0  0
  8 12  1  0  0  0  0
  8 16  2  0  0  0  0
  9 25  1  0  0  0  0
 11 20  1  0  0  0  0
 12 15  1  0  0  0  0
 13  9  2  0  0  0  0
 13 24  1  0  0  0  0
 15  4  2  0  0  0  0
 15  5  1  0  0  0  0
 17 28  1  0  0  0  0
 17 10  2  0  0  0  0
 18  1  1  0  0  0  0
 18 20  2  0  0  0  0
 19  5  2  0  0  0  0
 19  6  1  0  0  0  0
 20 13  1  0  0  0  0
 21 26  1  0  0  0  0
 22 10  1  0  0  0  0
 23 21  2  0  0  0  0
 23  4  1  0  0  0  0
 24 22  2  0  0  0  0
 25 14  1  6  0  0  0
 25 17  1  0  0  0  0
 26  1  2  0  0  0  0
 27  2  1  0  0  0  0
 27  9  1  0  0  0  0
 29 28  1  0  0  0  0
 30 34  1  0  0  0  0
 31 32  1  0  0  0  0
 32 34  1  0  0  0  0
 32 29  1  0  0  0  0
 33 31  1  0  0  0  0
 33 30  1  0  0  0  0
M  END
>  <MODEL>
1

>  <REMARK>
 VINA RESULT:     -10.4      0.000      0.000
  Name = 
  3 active torsions:
  status: ('A' for Active; 'I' for Inactive)
    1  A    between atoms: C_17  and  O_28
    2  A    between atoms: O_28  and  C_29
    3  A    between atoms: C_29  and  C_32
                            x       y       z     vdW  Elec       q    Type
                         _______ _______ _______ _____ _____    ______ ____

>  <TORSDO>
F 3

$$$$
=
 OpenBabel11122414343D

 34 42  0  0  1  0  0  0  0  0999 V2000
  161.7360  208.2450  150.1690 C   0  0  0  0  0  0  0  0  0  0  0  0
  161.9470  210.1990  151.7330 C   0  0  0  0  0  3  0  0  0  0  0  0
  160.8800  201.7030  149.1340 C   0  0  1  0  0  0  0  0  0  0  0  0
  161.5460  206.1880  148.8500 C   0  0  0  0  0  0  0  0  0  0  0  0
  161.1550  204.1220  150.0280 C   0  0  0  0  0  0  0  0  0  0  0  0
  160.7380  201.8040  151.0820 C   0  0  2  0  0  3  0  0  0  0  0  0
  160.6600  200.7520  150.1760 O   0  0  0  0  0  0  0  0  0  0  0  0
  161.2170  202.8750  147.0240 C   0  0  0  0  0  3  0  0  0  0  0  0
  161.5500  208.1440  152.5240 C   0  0  0  0  0  0  0  0  0  0  0  0
  160.0050  207.8220  155.1000 C   0  0  0  0  0  3  0  0  0  0  0  0
  161.1610  204.8070  151.1690 O   0  0  0  0  0  0  0  0  0  0  0  0
  161.3670  204.1460  147.4350 C   0  0  0  0  0  2  0  0  0  0  0  0
  161.3290  206.7660  152.4950 C   0  0  0  0  0  0  0  0  0  0  0  0
  161.9190  210.3420  153.0580 C   0  0  0  0  0  3  0  0  0  0  0  0
  161.3510  204.7910  148.7900 C   0  0  0  0  0  0  0  0  0  0  0  0
  160.9790  201.6640  147.8210 C   0  0  0  0  0  3  0  0  0  0  0  0
  160.4520  208.9730  154.5710 C   0  0  0  0  0  0  0  0  0  0  0  0
  161.5400  206.8420  150.1000 C   0  0  0  0  0  0  0  0  0  0  0  0
  160.9620  202.8160  150.0970 C   0  0  0  0  0  0  0  0  0  0  0  0
  161.3460  206.1230  151.2370 C   0  0  0  0  0  0  0  0  0  0  0  0
  161.9400  208.3370  147.7600 C   0  0  0  0  0  3  0  0  0  0  0  0
  160.5260  206.4580  154.8540 C   0  0  0  0  0  3  0  0  0  0  0  0
  161.7480  206.9540  147.6870 C   0  0  0  0  0  3  0  0  0  0  0  0
  161.0910  205.9950  153.7320 C   0  0  0  0  0  3  0  0  0  0  0  0
  161.6940  209.0050  153.7240 C   0  0  1  0  0  3  0  0  0  0  0  0
  161.9370  208.9830  148.9970 C   0  0  0  0  0  3  0  0  0  0  0  0
  161.7350  208.8380  151.3930 N   0  0  0  0  0  0  0  0  0  0  0  0
  159.8050  210.1810  154.8630 O   0  0  0  0  0  0  0  0  0  0  0  0
  159.2660  210.4900  156.1430 C   0  0  0  0  0  2  0  0  0  0  0  0
  157.5850  212.9460  154.0920 C   0  0  0  0  0  2  0  0  0  0  0  0
  156.9460  211.0570  155.4350 C   0  0  0  0  0  2  0  0  0  0  0  0
  158.2350  211.5950  156.0170 C   0  0  0  0  0  3  0  0  0  0  0  0
  156.3820  212.1920  154.6150 C   0  0  0  0  0  2  0  0  0  0  0  0
  158.7270  212.6570  155.0520 C   0  0  0  0  0  2  0  0  0  0  0  0
  1 27  1  0  0  0  0
  2 14  2  0  0  0  0
  3 16  1  6  0  0  0
  3 19  1  0  0  0  0
  3  7  1  0  0  0  0
  3  6  1  0  0  0  0
  4 18  1  0  0  0  0
  5 19  2  0  0  0  0
  5 11  1  0  0  0  0
  6 19  1  6  0  0  0
  7  6  1  0  0  0  0
  8 12  1  0  0  0  0
  8 16  2  0  0  0  0
  9 25  1  0  0  0  0
 11 20  1  0  0  0  0
 12 15  1  0  0  0  0
 13  9  2  0  0  0  0
 13 24  1  0  0  0  0
 15  4  2  0  0  0  0
 15  5  1  0  0  0  0
 17 28  1  0  0  0  0
 17 10  2  0  0  0  0
 18  1  1  0  0  0  0
 18 20  2  0  0  0  0
 20 13  1  0  0  0  0
 21 26  1  0  0  0  0
 22 10  1  0  0  0  0
 23 21  2  0  0  0  0
 23  4  1  0  0  0  0
 24 22  2  0  0  0  0
 25 14  1  6  0  0  0
 25 17  1  0  0  0  0
 26  1  2  0  0  0  0
 27  2  1  0  0  0  0
 27  9  1  0  0  0  0
 28 29  1  0  0  0  0
 30 33  1  0  0  0  0
 30 34  1  0  0  0  0
 31 32  1  0  0  0  0
 32 29  1  0  0  0  0
 33 31  1  0  0  0  0
 34 32  1  0  0  0  0
M  END
>  <MODEL>
2

>  <REMARK>
 VINA RESULT:      -9.7      0.974      1.242
  Name = 
  3 active torsions:
  status: ('A' for Active; 'I' for Inactive)
    1  A    between atoms: C_17  and  O_28
    2  A    between atoms: O_28  and  C_29
    3  A    between atoms: C_29  and  C_32
                            x       y       z     vdW  Elec       q    Type
                         _______ _______ _______ _____ _____    ______ ____

>  <TORSDO>
F 3

$$$$
=
 OpenBabel11122414343D

 34 42  0  0  1  0  0  0  0  0999 V2000
  161.7640  208.0690  149.8830 C   0  0  0  0  0  0  0  0  0  0  0  0
  161.9930  209.9850  151.4900 C   0  0  0  0  0  3  0  0  0  0  0  0
  160.8880  201.5540  148.7030 C   0  0  2  0  0  0  0  0  0  0  0  0
  161.5580  206.0430  148.5170 C   0  0  0  0  0  0  0  0  0  0  0  0
  161.1760  203.9520  149.6500 C   0  0  0  0  0  0  0  0  0  0  0  0
  160.7650  201.6100  150.6540 C   0  0  2  0  0  3  0  0  0  0  0  0
  160.6760  200.5790  149.7240 O   0  0  0  0  0  0  0  0  0  0  0  0
  161.2070  202.7750  146.6180 C   0  0  0  0  0  3  0  0  0  0  0  0
  161.6000  207.9130  152.2370 C   0  0  0  0  0  0  0  0  0  0  0  0
  160.0800  207.5320  154.8190 C   0  0  0  0  0  3  0  0  0  0  0  0
  161.1940  204.6090  150.8070 O   0  0  0  0  0  0  0  0  0  0  0  0
  161.3620  204.0350  147.0570 C   0  0  0  0  0  2  0  0  0  0  0  0
  161.3770  206.5360  152.1780 C   0  0  0  0  0  0  0  0  0  0  0  0
  161.9780  210.0970  152.8180 C   0  0  0  0  0  3  0  0  0  0  0  0
  161.3600  204.6490  148.4270 C   0  0  0  0  0  0  0  0  0  0  0  0
  160.9740  201.5460  147.3890 C   0  0  0  0  0  3  0  0  0  0  0  0
  160.5240  208.6950  154.3130 C   0  0  0  0  0  0  0  0  0  0  0  0
  161.5650  206.6680  149.7830 C   0  0  0  0  0  0  0  0  0  0  0  0
  160.9810  202.6440  149.6910 C   0  0  0  0  0  0  0  0  0  0  0  0
  161.3810  205.9230  150.9050 C   0  0  0  0  0  0  0  0  0  0  0  0
  161.9450  208.2170  147.4750 C   0  0  0  0  0  3  0  0  0  0  0  0
  160.5960  206.1740  154.5360 C   0  0  0  0  0  3  0  0  0  0  0  0
  161.7500  206.8360  147.3710 C   0  0  0  0  0  3  0  0  0  0  0  0
  161.1500  205.7370  153.3980 C   0  0  0  0  0  3  0  0  0  0  0  0
  161.7580  208.7450  153.4550 C   0  0  1  0  0  3  0  0  0  0  0  0
  161.9550  208.8340  148.7270 C   0  0  0  0  0  3  0  0  0  0  0  0
  161.7760  208.6330  151.1200 N   0  0  0  0  0  0  0  0  0  0  0  0
  159.8810  209.8970  154.6390 O   0  0  0  0  0  0  0  0  0  0  0  0
  159.3410  210.1700  155.9270 C   0  0  0  0  0  2  0  0  0  0  0  0
  162.7060  209.5860  157.1110 C   0  0  0  0  0  2  0  0  0  0  0  0
  161.4540  211.4490  156.2490 C   0  0  0  0  0  2  0  0  0  0  0  0
  160.4580  210.5100  156.8950 C   0  0  0  0  0  3  0  0  0  0  0  0
  162.7900  211.0730  156.8430 C   0  0  0  0  0  2  0  0  0  0  0  0
  161.2300  209.2560  157.2590 C   0  0  0  0  0  2  0  0  0  0  0  0
  1 27  1  0  0  0  0
  2 14  2  0  0  0  0
  3 16  1  1  0  0  0
  3 19  1  0  0  0  0
  3  7  1  0  0  0  0
  3  6  1  0  0  0  0
  4 18  1  0  0  0  0
  5 19  2  0  0  0  0
  5 11  1  0  0  0  0
  6 19  1  6  0  0  0
  7  6  1  0  0  0  0
  8 12  1  0  0  0  0
  8 16  2  0  0  0  0
  9 25  1  0  0  0  0
 11 20  1  0  0  0  0
 12 15  1  0  0  0  0
 13  9  2  0  0  0  0
 13 24  1  0  0  0  0
 15  4  2  0  0  0  0
 15  5  1  0  0  0  0
 17 28  1  0  0  0  0
 17 10  2  0  0  0  0
 18  1  1  0  0  0  0
 18 20  2  0  0  0  0
 20 13  1  0  0  0  0
 21 26  1  0  0  0  0
 22 10  1  0  0  0  0
 23 21  2  0  0  0  0
 23  4  1  0  0  0  0
 24 22  2  0  0  0  0
 25 14  1  6  0  0  0
 25 17  1  0  0  0  0
 26  1  2  0  0  0  0
 27  2  1  0  0  0  0
 27  9  1  0  0  0  0
 28 29  1  0  0  0  0
 29 32  1  0  0  0  0
 30 34  1  0  0  0  0
 31 33  1  0  0  0  0
 31 32  1  0  0  0  0
 32 34  1  0  0  0  0
 33 30  1  0  0  0  0
M  END
>  <MODEL>
3

>  <REMARK>
 VINA RESULT:      -9.3      1.667      2.425
  Name = 
  3 active torsions:
  status: ('A' for Active; 'I' for Inactive)
    1  A    between atoms: C_17  and  O_28
    2  A    between atoms: O_28  and  C_29
    3  A    between atoms: C_29  and  C_32
                            x       y       z     vdW  Elec       q    Type
                         _______ _______ _______ _____ _____    ______ ____

>  <TORSDO>
F 3

$$$$
=
 OpenBabel11122414343D

 34 42  0  0  1  0  0  0  0  0999 V2000
  160.9200  204.8240  152.0230 C   0  0  0  0  0  0  0  0  0  0  0  0
  160.7720  206.2450  154.0890 C   0  0  0  0  0  3  0  0  0  0  0  0
  161.3410  204.2610  145.3810 C   0  0  1  0  0  0  0  0  0  0  0  0
  161.0260  203.6520  149.8730 C   0  0  0  0  0  0  0  0  0  0  0  0
  161.1990  204.9810  147.8700 C   0  0  0  0  0  0  0  0  0  0  0  0
  161.3870  206.2030  145.6050 C   0  0  2  0  0  3  0  0  0  0  0  0
  161.4350  205.3730  144.4900 O   0  0  0  0  0  0  0  0  0  0  0  0
  161.2040  202.0640  146.4280 C   0  0  0  0  0  3  0  0  0  0  0  0
  160.9730  207.1880  152.0700 C   0  0  0  0  0  0  0  0  0  0  0  0
  162.3510  209.8640  151.8150 C   0  0  0  0  0  3  0  0  0  0  0  0
  161.1840  206.0730  148.6290 O   0  0  0  0  0  0  0  0  0  0  0  0
  161.1280  202.3840  147.7320 C   0  0  0  0  0  2  0  0  0  0  0  0
  161.0930  207.2600  150.6810 C   0  0  0  0  0  0  0  0  0  0  0  0
  160.7410  207.5570  154.3200 C   0  0  0  0  0  3  0  0  0  0  0  0
  161.1200  203.6940  148.4650 C   0  0  0  0  0  0  0  0  0  0  0  0
  161.3090  202.9500  145.2610 C   0  0  0  0  0  3  0  0  0  0  0  0
  162.0190  209.2370  152.9560 C   0  0  0  0  0  0  0  0  0  0  0  0
  161.0150  204.8560  150.6090 C   0  0  0  0  0  0  0  0  0  0  0  0
  161.2910  205.1450  146.5610 C   0  0  0  0  0  0  0  0  0  0  0  0
  161.0940  206.0470  149.9560 C   0  0  0  0  0  0  0  0  0  0  0  0
  160.8510  202.4070  151.9650 C   0  0  0  0  0  3  0  0  0  0  0  0
  161.7450  209.6760  150.4780 C   0  0  0  0  0  3  0  0  0  0  0  0
  160.9430  202.4330  150.5700 C   0  0  0  0  0  3  0  0  0  0  0  0
  161.2060  208.5550  149.9810 C   0  0  0  0  0  3  0  0  0  0  0  0
  160.8300  208.3200  153.0180 C   0  0  1  0  0  3  0  0  0  0  0  0
  160.8370  203.5980  152.6920 C   0  0  0  0  0  3  0  0  0  0  0  0
  160.9000  206.0060  152.6960 N   0  0  0  0  0  0  0  0  0  0  0  0
  162.7380  209.4880  154.1330 O   0  0  0  0  0  0  0  0  0  0  0  0
  162.9020  210.7880  154.6870 C   0  0  0  0  0  2  0  0  0  0  0  0
  159.6810  210.3690  156.2730 C   0  0  0  0  0  2  0  0  0  0  0  0
  161.9350  209.6310  156.6700 C   0  0  0  0  0  2  0  0  0  0  0  0
  162.0260  210.9400  155.9160 C   0  0  0  0  0  3  0  0  0  0  0  0
  160.5450  209.6140  157.2600 C   0  0  0  0  0  2  0  0  0  0  0  0
  160.6090  211.2940  155.5040 C   0  0  0  0  0  2  0  0  0  0  0  0
  1 26  2  0  0  0  0
  1 27  1  0  0  0  0
  2 14  2  0  0  0  0
  3 16  1  1  0  0  0
  3  6  1  0  0  0  0
  3 19  1  0  0  0  0
  4 23  1  0  0  0  0
  4 18  1  0  0  0  0
  5 15  1  0  0  0  0
  5 11  1  0  0  0  0
  6  7  1  1  0  0  0
  6 19  1  0  0  0  0
  7  3  1  0  0  0  0
  8 12  1  0  0  0  0
  9 27  1  0  0  0  0
  9 25  1  0  0  0  0
 10 17  2  0  0  0  0
 11 20  1  0  0  0  0
 12 15  1  0  0  0  0
 13  9  2  0  0  0  0
 15  4  2  0  0  0  0
 16  8  2  0  0  0  0
 17 25  1  0  0  0  0
 17 28  1  0  0  0  0
 18  1  1  0  0  0  0
 19  5  2  0  0  0  0
 20 18  2  0  0  0  0
 20 13  1  0  0  0  0
 21 26  1  0  0  0  0
 22 10  1  0  0  0  0
 23 21  2  0  0  0  0
 24 22  2  0  0  0  0
 24 13  1  0  0  0  0
 25 14  1  1  0  0  0
 27  2  1  0  0  0  0
 28 29  1  0  0  0  0
 29 32  1  0  0  0  0
 30 33  1  0  0  0  0
 31 33  1  0  0  0  0
 32 31  1  0  0  0  0
 34 32  1  0  0  0  0
 34 30  1  0  0  0  0
M  END
>  <MODEL>
4

>  <REMARK>
 VINA RESULT:      -8.9      2.105      4.467
  Name = 
  3 active torsions:
  status: ('A' for Active; 'I' for Inactive)
    1  A    between atoms: C_17  and  O_28
    2  A    between atoms: O_28  and  C_29
    3  A    between atoms: C_29  and  C_32
                            x       y       z     vdW  Elec       q    Type
                         _______ _______ _______ _____ _____    ______ ____

>  <TORSDO>
F 3

$$$$
=
 OpenBabel11122414343D

 34 42  0  0  1  0  0  0  0  0999 V2000
  160.8190  207.3500  153.8970 C   0  0  0  0  0  0  0  0  0  0  0  0
  161.8290  205.2220  153.0270 C   0  0  0  0  0  3  0  0  0  0  0  0
  159.0900  213.7410  153.0190 C   0  0  2  0  0  0  0  0  0  0  0  0
  159.9240  209.5410  154.5370 C   0  0  0  0  0  0  0  0  0  0  0  0
  159.9100  211.2840  152.8730 C   0  0  0  0  0  0  0  0  0  0  0  0
  159.7980  213.2900  151.2530 C   0  0  2  0  0  3  0  0  0  0  0  0
  159.2590  214.4530  151.7920 O   0  0  0  0  0  0  0  0  0  0  0  0
  158.5900  213.0150  155.2910 C   0  0  0  0  0  3  0  0  0  0  0  0
  161.6440  207.0190  151.7060 C   0  0  0  0  0  0  0  0  0  0  0  0
  161.3210  206.6420  148.7270 C   0  0  0  0  0  3  0  0  0  0  0  0
  160.4540  210.4270  152.0140 O   0  0  0  0  0  0  0  0  0  0  0  0
  159.0010  211.7350  155.2680 C   0  0  0  0  0  2  0  0  0  0  0  0
  161.3240  208.3270  151.3370 C   0  0  0  0  0  0  0  0  0  0  0  0
  162.3770  204.8540  151.8690 C   0  0  0  0  0  3  0  0  0  0  0  0
  159.6130  210.8760  154.2000 C   0  0  0  0  0  0  0  0  0  0  0  0
  158.6190  214.0170  154.2170 C   0  0  0  0  0  3  0  0  0  0  0  0
  161.5900  205.6870  149.6330 C   0  0  0  0  0  0  0  0  0  0  0  0
  160.5020  208.6930  153.5690 C   0  0  0  0  0  0  0  0  0  0  0  0
  159.6620  212.5100  152.4430 C   0  0  0  0  0  0  0  0  0  0  0  0
  160.7540  209.1670  152.3190 C   0  0  0  0  0  0  0  0  0  0  0  0
  159.9870  207.7030  156.1420 C   0  0  0  0  0  3  0  0  0  0  0  0
  161.5780  208.0940  148.8500 C   0  0  0  0  0  3  0  0  0  0  0  0
  159.6730  209.0270  155.8220 C   0  0  0  0  0  3  0  0  0  0  0  0
  161.5740  208.8270  149.9710 C   0  0  0  0  0  3  0  0  0  0  0  0
  162.3520  206.0030  150.8890 C   0  0  1  0  0  3  0  0  0  0  0  0
  160.5610  206.8650  155.1840 C   0  0  0  0  0  3  0  0  0  0  0  0
  161.3860  206.5670  152.9410 N   0  0  0  0  0  0  0  0  0  0  0  0
  161.2260  204.3560  149.3830 O   0  0  0  0  0  0  0  0  0  0  0  0
  161.2020  203.7830  148.0810 C   0  0  0  0  0  2  0  0  0  0  0  0
  161.5800  200.2370  147.4930 C   0  0  0  0  0  2  0  0  0  0  0  0
  161.1120  201.6560  149.3760 C   0  0  0  0  0  2  0  0  0  0  0  0
  160.6200  202.3830  148.1430 C   0  0  0  0  0  3  0  0  0  0  0  0
  161.2180  200.2080  148.9620 C   0  0  0  0  0  2  0  0  0  0  0  0
  161.0930  201.5710  146.9530 C   0  0  0  0  0  2  0  0  0  0  0  0
  1 26  2  0  0  0  0
  3 16  1  1  0  0  0
  4 23  1  0  0  0  0
  5 15  1  0  0  0  0
  6  7  1  6  0  0  0
  6 19  1  0  0  0  0
  6  3  1  0  0  0  0
  7  3  1  0  0  0  0
  9 27  1  0  0  0  0
 10 22  1  0  0  0  0
 10 17  2  0  0  0  0
 11 20  1  0  0  0  0
 11  5  1  0  0  0  0
 12  8  1  0  0  0  0
 13  9  2  0  0  0  0
 13 20  1  0  0  0  0
 14  2  2  0  0  0  0
 15  4  2  0  0  0  0
 15 12  1  0  0  0  0
 16  8  2  0  0  0  0
 17 25  1  0  0  0  0
 18  1  1  0  0  0  0
 18  4  1  0  0  0  0
 19  5  2  0  0  0  0
 19  3  1  0  0  0  0
 20 18  2  0  0  0  0
 22 24  2  0  0  0  0
 23 21  2  0  0  0  0
 24 13  1  0  0  0  0
 25  9  1  0  0  0  0
 25 14  1  1  0  0  0
 26 21  1  0  0  0  0
 27  2  1  0  0  0  0
 27  1  1  0  0  0  0
 28 17  1  0  0  0  0
 29 32  1  0  0  0  0
 29 28  1  0  0  0  0
 30 33  1  0  0  0  0
 32 31  1  0  0  0  0
 33 31  1  0  0  0  0
 34 30  1  0  0  0  0
 34 32  1  0  0  0  0
M  END
>  <MODEL>
5

>  <REMARK>
 VINA RESULT:      -8.4      1.831      8.863
  Name = 
  3 active torsions:
  status: ('A' for Active; 'I' for Inactive)
    1  A    between atoms: C_17  and  O_28
    2  A    between atoms: O_28  and  C_29
    3  A    between atoms: C_29  and  C_32
                            x       y       z     vdW  Elec       q    Type
                         _______ _______ _______ _____ _____    ______ ____

>  <TORSDO>
F 3

$$$$
=
 OpenBabel11122414343D

 34 42  0  0  1  0  0  0  0  0999 V2000
  161.5760  208.4970  149.6690 C   0  0  0  0  0  0  0  0  0  0  0  0
  161.3750  207.2740  147.4840 C   0  0  0  0  0  3  0  0  0  0  0  0
  160.9170  208.6600  156.3130 C   0  0  2  0  0  0  0  0  0  0  0  0
  161.6440  209.4950  151.9070 C   0  0  0  0  0  0  0  0  0  0  0  0
  161.0200  208.1130  153.7790 C   0  0  0  0  0  0  0  0  0  0  0  0
  160.3930  206.8170  155.9210 C   0  0  2  0  0  3  0  0  0  0  0  0
  160.4920  207.5480  157.1010 O   0  0  0  0  0  0  0  0  0  0  0  0
  161.6700  210.8180  155.4660 C   0  0  0  0  0  3  0  0  0  0  0  0
  160.8950  206.2470  149.4130 C   0  0  0  0  0  0  0  0  0  0  0  0
  161.2950  203.2620  149.6410 C   0  0  0  0  0  3  0  0  0  0  0  0
  160.8040  207.1120  152.9300 O   0  0  0  0  0  0  0  0  0  0  0  0
  161.7400  210.5860  154.1440 C   0  0  0  0  0  2  0  0  0  0  0  0
  160.7270  206.0920  150.7900 C   0  0  0  0  0  0  0  0  0  0  0  0
  160.9780  206.0520  147.1310 C   0  0  0  0  0  3  0  0  0  0  0  0
  161.4580  209.3760  153.3010 C   0  0  0  0  0  0  0  0  0  0  0  0
  161.2750  209.9060  156.5480 C   0  0  0  0  0  3  0  0  0  0  0  0
  161.3920  204.0020  148.5240 C   0  0  0  0  0  0  0  0  0  0  0  0
  161.3930  208.3860  151.0710 C   0  0  0  0  0  0  0  0  0  0  0  0
  160.8120  207.8820  155.0650 C   0  0  0  0  0  0  0  0  0  0  0  0
  160.9740  207.2120  151.6140 C   0  0  0  0  0  0  0  0  0  0  0  0
  162.2570  210.8030  149.9390 C   0  0  0  0  0  3  0  0  0  0  0  0
  160.5410  203.5890  150.8730 C   0  0  0  0  0  3  0  0  0  0  0  0
  162.0770  210.6990  151.3210 C   0  0  0  0  0  3  0  0  0  0  0  0
  160.2980  204.8060  151.3760 C   0  0  0  0  0  3  0  0  0  0  0  0
  160.5820  205.2570  148.3530 C   0  0  1  0  0  3  0  0  0  0  0  0
  162.0050  209.7070  149.1120 C   0  0  0  0  0  3  0  0  0  0  0  0
  161.3120  207.4110  148.8950 N   0  0  0  0  0  0  0  0  0  0  0  0
  162.2010  203.5730  147.4630 O   0  0  0  0  0  0  0  0  0  0  0  0
  161.6870  203.1930  146.1920 C   0  0  0  0  0  2  0  0  0  0  0  0
  160.1440  200.2470  144.7740 C   0  0  0  0  0  2  0  0  0  0  0  0
  161.5180  200.7560  146.6800 C   0  0  0  0  0  2  0  0  0  0  0  0
  160.7450  202.0130  146.3460 C   0  0  0  0  0  3  0  0  0  0  0  0
  160.7510  199.6360  146.0180 C   0  0  0  0  0  2  0  0  0  0  0  0
  160.0350  201.7400  145.0340 C   0  0  0  0  0  2  0  0  0  0  0  0
  1 18  1  0  0  0  0
  2 27  1  0  0  0  0
  3 16  1  6  0  0  0
  3  7  1  0  0  0  0
  4 15  2  0  0  0  0
  5 19  2  0  0  0  0
  6 19  1  1  0  0  0
  6  3  1  0  0  0  0
  6  7  1  0  0  0  0
  8 16  2  0  0  0  0
  9 13  2  0  0  0  0
 10 22  1  0  0  0  0
 11  5  1  0  0  0  0
 12  8  1  0  0  0  0
 13 24  1  0  0  0  0
 13 20  1  0  0  0  0
 14  2  2  0  0  0  0
 15  5  1  0  0  0  0
 15 12  1  0  0  0  0
 17 10  2  0  0  0  0
 18 20  2  0  0  0  0
 18  4  1  0  0  0  0
 19  3  1  0  0  0  0
 20 11  1  0  0  0  0
 21 23  2  0  0  0  0
 22 24  2  0  0  0  0
 23  4  1  0  0  0  0
 25 14  1  6  0  0  0
 25 17  1  0  0  0  0
 25  9  1  0  0  0  0
 26  1  2  0  0  0  0
 26 21  1  0  0  0  0
 27  9  1  0  0  0  0
 27  1  1  0  0  0  0
 28 17  1  0  0  0  0
 29 32  1  0  0  0  0
 29 28  1  0  0  0  0
 30 34  1  0  0  0  0
 30 33  1  0  0  0  0
 32 31  1  0  0  0  0
 33 31  1  0  0  0  0
 34 32  1  0  0  0  0
M  END
>  <MODEL>
6

>  <REMARK>
 VINA RESULT:      -8.4      2.246      8.408
  Name = 
  3 active torsions:
  status: ('A' for Active; 'I' for Inactive)
    1  A    between atoms: C_17  and  O_28
    2  A    between atoms: O_28  and  C_29
    3  A    between atoms: C_29  and  C_32
                            x       y       z     vdW  Elec       q    Type
                         _______ _______ _______ _____ _____    ______ ____

>  <TORSDO>
F 3

$$$$
=
 OpenBabel11122414343D

 34 42  0  0  1  0  0  0  0  0999 V2000
  161.0910  207.4150  153.8060 C   0  0  0  0  0  0  0  0  0  0  0  0
  162.4460  205.8010  152.4400 C   0  0  0  0  0  3  0  0  0  0  0  0
  158.2620  213.4150  154.5850 C   0  0  2  0  0  0  0  0  0  0  0  0
  159.8350  209.1710  154.9690 C   0  0  0  0  0  0  0  0  0  0  0  0
  159.4960  211.2630  153.8250 C   0  0  0  0  0  0  0  0  0  0  0  0
  159.0150  213.5770  152.7880 C   0  0  2  0  0  3  0  0  0  0  0  0
  158.2880  214.4450  153.5960 O   0  0  0  0  0  0  0  0  0  0  0  0
  157.9250  212.0360  156.5660 C   0  0  0  0  0  3  0  0  0  0  0  0
  161.9340  207.8250  151.6350 C   0  0  0  0  0  0  0  0  0  0  0  0
  161.6440  208.2030  148.6520 C   0  0  0  0  0  3  0  0  0  0  0  0
  160.1710  210.7720  152.7890 O   0  0  0  0  0  0  0  0  0  0  0  0
  158.5520  210.8990  156.2210 C   0  0  0  0  0  2  0  0  0  0  0  0
  161.3850  209.1090  151.6130 C   0  0  0  0  0  0  0  0  0  0  0  0
  163.0360  205.8540  151.2460 C   0  0  0  0  0  3  0  0  0  0  0  0
  159.2910  210.4730  154.9860 C   0  0  0  0  0  0  0  0  0  0  0  0
  157.7640  213.2780  155.7970 C   0  0  0  0  0  3  0  0  0  0  0  0
  162.0870  207.1030  149.2830 C   0  0  0  0  0  0  0  0  0  0  0  0
  160.5400  208.7220  153.8320 C   0  0  0  0  0  0  0  0  0  0  0  0
  159.0320  212.4980  153.7250 C   0  0  0  0  0  0  0  0  0  0  0  0
  160.6890  209.5470  152.7620 C   0  0  0  0  0  0  0  0  0  0  0  0
  160.2380  207.0110  156.0330 C   0  0  0  0  0  3  0  0  0  0  0  0
  161.6450  209.5930  149.1630 C   0  0  0  0  0  3  0  0  0  0  0  0
  159.6940  208.2980  156.0640 C   0  0  0  0  0  3  0  0  0  0  0  0
  161.5270  209.9890  150.4360 C   0  0  0  0  0  3  0  0  0  0  0  0
  162.7980  207.2000  150.6040 C   0  0  1  0  0  3  0  0  0  0  0  0
  160.9370  206.5690  154.9090 C   0  0  0  0  0  3  0  0  0  0  0  0
  161.7740  207.0240  152.6970 N   0  0  0  0  0  0  0  0  0  0  0  0
  161.9580  205.8440  148.6790 O   0  0  0  0  0  0  0  0  0  0  0  0
  160.8470  204.9820  148.8990 C   0  0  0  0  0  2  0  0  0  0  0  0
  160.0760  201.4950  149.4590 C   0  0  0  0  0  2  0  0  0  0  0  0
  161.1960  202.7890  147.7690 C   0  0  0  0  0  2  0  0  0  0  0  0
  161.3270  203.5530  149.0690 C   0  0  0  0  0  3  0  0  0  0  0  0
  160.8730  201.3720  148.1790 C   0  0  0  0  0  2  0  0  0  0  0  0
  160.4570  202.8290  150.0790 C   0  0  0  0  0  2  0  0  0  0  0  0
  1 18  1  0  0  0  0
  1 26  2  0  0  0  0
  2 27  1  0  0  0  0
  3 16  1  1  0  0  0
  4 15  2  0  0  0  0
  4 23  1  0  0  0  0
  5 15  1  0  0  0  0
  6  7  1  6  0  0  0
  6 19  1  0  0  0  0
  6  3  1  0  0  0  0
  7  3  1  0  0  0  0
  9 27  1  0  0  0  0
 10 22  1  0  0  0  0
 10 17  2  0  0  0  0
 11  5  1  0  0  0  0
 12  8  1  0  0  0  0
 13  9  2  0  0  0  0
 13 20  1  0  0  0  0
 14  2  2  0  0  0  0
 15 12  1  0  0  0  0
 16  8  2  0  0  0  0
 17 25  1  0  0  0  0
 18  4  1  0  0  0  0
 19  5  2  0  0  0  0
 19  3  1  0  0  0  0
 20 11  1  0  0  0  0
 20 18  2  0  0  0  0
 21 23  2  0  0  0  0
 22 24  2  0  0  0  0
 24 13  1  0  0  0  0
 25 14  1  1  0  0  0
 25  9  1  0  0  0  0
 26 21  1  0  0  0  0
 27  1  1  0  0  0  0
 28 29  1  0  0  0  0
 28 17  1  0  0  0  0
 29 32  1  0  0  0  0
 30 34  1  0  0  0  0
 31 33  1  0  0  0  0
 31 32  1  0  0  0  0
 32 34  1  0  0  0  0
 33 30  1  0  0  0  0
M  END
>  <MODEL>
7

>  <REMARK>
 VINA RESULT:      -8.3      1.569      8.616
  Name = 
  3 active torsions:
  status: ('A' for Active; 'I' for Inactive)
    1  A    between atoms: C_17  and  O_28
    2  A    between atoms: O_28  and  C_29
    3  A    between atoms: C_29  and  C_32
                            x       y       z     vdW  Elec       q    Type
                         _______ _______ _______ _____ _____    ______ ____

>  <TORSDO>
F 3

$$$$
