=
 OpenBabel11122412483D

 32 38  0  0  1  0  0  0  0  0999 V2000
  161.2920  209.3810  154.9950 C   0  0  2  0  0  3  0  0  0  0  0  0
  161.1040  206.3950  150.4100 C   0  0  1  0  0  3  0  0  0  0  0  0
  161.6500  201.5870  151.7460 C   0  0  0  0  0  2  0  0  0  0  0  0
  160.4690  201.3120  150.8240 C   0  0  0  0  0  2  0  0  0  0  0  0
  161.4970  206.8550  147.8590 C   0  0  2  0  0  3  0  0  0  0  0  0
  161.9920  206.2470  146.5250 C   0  0  2  0  0  3  0  0  0  0  0  0
  161.0790  208.1540  152.2220 C   0  0  1  0  0  3  0  0  0  0  0  0
  160.8270  205.7590  152.6970 O   0  0  0  0  0  0  0  0  0  0  0  0
  160.3560  204.7990  145.6420 C   0  0  1  0  0  3  0  0  0  0  0  0
  160.8400  207.1110  154.6620 C   0  0  0  0  0  2  0  0  0  0  0  0
  161.7780  203.0570  152.0390 C   0  0  0  0  0  3  0  0  0  0  0  0
  161.5500  205.4500  151.5330 C   0  0  1  0  0  3  0  0  0  0  0  0
  161.3730  204.0010  151.1720 C   0  0  0  0  0  0  0  0  0  0  0  0
  160.9690  204.5720  148.6970 C   0  0  2  0  0  3  0  0  0  0  0  0
  160.1700  206.1450  145.1020 N   0  0  0  0  0  2  0  0  0  0  0  0
  161.1030  210.2280  153.7590 C   0  0  0  0  0  2  0  0  0  0  0  0
  161.3600  206.9570  153.2090 C   0  0  2  0  0  3  0  0  0  0  0  0
  161.3100  206.9150  145.4270 N   0  0  0  0  0  2  0  0  0  0  0  0
  161.7750  209.4790  152.6020 C   0  0  0  0  0  2  0  0  0  0  0  0
  160.1280  208.4270  154.8520 C   0  0  1  0  0  3  0  0  0  0  0  0
  160.6340  202.1380  149.5560 C   0  0  0  0  0  2  0  0  0  0  0  0
  160.6480  203.6380  149.8890 C   0  0  1  0  0  3  0  0  0  0  0  0
  161.7420  203.9110  147.5680 C   0  0  0  0  0  2  0  0  0  0  0  0
  161.5660  207.7900  150.8180 C   0  0  0  0  0  2  0  0  0  0  0  0
  162.2650  208.1530  148.0520 C   0  0  0  0  0  1  0  0  0  0  0  0
  160.3260  203.7860  144.5150 C   0  0  0  0  0  1  0  0  0  0  0  0
  161.6670  205.8950  149.0600 C   0  0  2  0  0  3  0  0  0  0  0  0
  161.6980  204.7790  146.3130 C   0  0  2  0  0  3  0  0  0  0  0  0
  160.2800  209.2240  156.1270 C   0  0  2  0  0  3  0  0  0  0  0  0
  159.3120  210.3630  156.1660 C   0  0  0  0  0  0  0  0  0  0  0  0
  158.1450  210.3180  155.4130 O   0  0  0  0  0  0  0  0  0  0  0  0
  159.5320  211.3500  156.9150 O   0  0  0  0  0  1  0  0  0  0  0  0
  1 16  1  6  0  0  0
  1 29  1  0  0  0  0
  2 24  1  1  0  0  0
  2 12  1  0  0  0  0
  3 11  1  0  0  0  0
  4  3  1  0  0  0  0
  5 25  1  1  0  0  0
  5 27  1  0  0  0  0
  6 18  1  6  0  0  0
  6  5  1  0  0  0  0
  7 24  1  6  0  0  0
  7 19  1  0  0  0  0
  7 17  1  0  0  0  0
  8 17  1  0  0  0  0
  9 26  1  6  0  0  0
  9 28  1  0  0  0  0
 12 13  1  6  0  0  0
 12  8  1  0  0  0  0
 13 11  2  0  0  0  0
 14 23  1  6  0  0  0
 14 27  1  0  0  0  0
 14 22  1  0  0  0  0
 15 18  1  0  0  0  0
 15  9  1  0  0  0  0
 17 10  1  1  0  0  0
 19 16  1  0  0  0  0
 20 10  1  1  0  0  0
 20  1  1  0  0  0  0
 20 29  1  0  0  0  0
 21  4  1  0  0  0  0
 22 21  1  6  0  0  0
 22 13  1  0  0  0  0
 27  2  1  0  0  0  0
 28  6  1  0  0  0  0
 28 23  1  0  0  0  0
 29 30  1  0  0  0  0
 30 32  1  0  0  0  0
 31 30  2  0  0  0  0
M  END
>  <MODEL>
1

>  <REMARK>
 VINA RESULT:      -9.7      0.000      0.000
  Name = 
  1 active torsions:
  status: ('A' for Active; 'I' for Inactive)
    1  A    between atoms: C_29  and  C_30
                            x       y       z     vdW  Elec       q    Type
                         _______ _______ _______ _____ _____    ______ ____

>  <TORSDO>
F 1

$$$$
=
 OpenBabel11122412483D

 32 38  0  0  1  0  0  0  0  0999 V2000
  161.6650  210.0270  152.5110 C   0  0  2  0  0  3  0  0  0  0  0  0
  161.0930  205.7390  149.1580 C   0  0  1  0  0  3  0  0  0  0  0  0
  161.6180  201.5950  151.9430 C   0  0  0  0  0  2  0  0  0  0  0  0
  160.3700  201.0910  151.2300 C   0  0  0  0  0  2  0  0  0  0  0  0
  161.3190  205.3370  146.5770 C   0  0  2  0  0  3  0  0  0  0  0  0
  161.7080  204.3110  145.4850 C   0  0  2  0  0  3  0  0  0  0  0  0
  161.2330  207.9850  150.3020 C   0  0  1  0  0  3  0  0  0  0  0  0
  160.9600  205.8830  151.5390 O   0  0  0  0  0  0  0  0  0  0  0  0
  159.9810  202.7300  145.2140 C   0  0  1  0  0  3  0  0  0  0  0  0
  161.1390  207.7940  152.9580 C   0  0  0  0  0  2  0  0  0  0  0  0
  161.7990  203.0740  151.7370 C   0  0  0  0  0  3  0  0  0  0  0  0
  161.5930  205.1850  150.4980 C   0  0  1  0  0  3  0  0  0  0  0  0
  161.3580  203.7070  150.6360 C   0  0  0  0  0  0  0  0  0  0  0  0
  160.7980  203.4690  148.1370 C   0  0  2  0  0  3  0  0  0  0  0  0
  159.7900  203.8380  144.2790 N   0  0  0  0  0  2  0  0  0  0  0  0
  161.4110  210.4400  151.0810 C   0  0  0  0  0  2  0  0  0  0  0  0
  161.5540  207.1580  151.6050 C   0  0  2  0  0  3  0  0  0  0  0  0
  160.9660  204.6200  144.2710 N   0  0  0  0  0  2  0  0  0  0  0  0
  161.9840  209.3300  150.1920 C   0  0  0  0  0  2  0  0  0  0  0  0
  160.4720  209.1300  152.7520 C   0  0  1  0  0  3  0  0  0  0  0  0
  160.4670  201.4580  149.7550 C   0  0  0  0  0  2  0  0  0  0  0  0
  160.5380  202.9830  149.5840 C   0  0  1  0  0  3  0  0  0  0  0  0
  161.4760  202.4470  147.2400 C   0  0  0  0  0  2  0  0  0  0  0  0
  161.6140  207.1690  149.0650 C   0  0  0  0  0  2  0  0  0  0  0  0
  162.1290  206.5920  146.2950 C   0  0  0  0  0  1  0  0  0  0  0  0
  159.8500  201.4110  144.4780 C   0  0  0  0  0  1  0  0  0  0  0  0
  161.5490  204.8060  148.0120 C   0  0  2  0  0  3  0  0  0  0  0  0
  161.3660  202.8670  145.7760 C   0  0  2  0  0  3  0  0  0  0  0  0
  160.7300  210.2870  153.6900 C   0  0  2  0  0  3  0  0  0  0  0  0
  159.7940  211.4200  153.4140 C   0  0  0  0  0  0  0  0  0  0  0  0
  158.5900  211.1910  152.7590 O   0  0  0  0  0  0  0  0  0  0  0  0
  160.0760  212.5800  153.8130 O   0  0  0  0  0  1  0  0  0  0  0  0
  1 16  1  6  0  0  0
  1 20  1  0  0  0  0
  1 29  1  0  0  0  0
  2 24  1  6  0  0  0
  2 12  1  0  0  0  0
  4  3  1  0  0  0  0
  5 25  1  6  0  0  0
  5 27  1  0  0  0  0
  6 18  1  6  0  0  0
  6 28  1  0  0  0  0
  6  5  1  0  0  0  0
  7 24  1  6  0  0  0
  7 17  1  0  0  0  0
  8 17  1  0  0  0  0
  9 26  1  6  0  0  0
  9 28  1  0  0  0  0
 11  3  1  0  0  0  0
 12 13  1  6  0  0  0
 12  8  1  0  0  0  0
 13 11  2  0  0  0  0
 14 23  1  6  0  0  0
 14 22  1  0  0  0  0
 15  9  1  0  0  0  0
 17 10  1  1  0  0  0
 18 15  1  0  0  0  0
 19  7  1  0  0  0  0
 19 16  1  0  0  0  0
 20 10  1  1  0  0  0
 20 29  1  0  0  0  0
 21  4  1  0  0  0  0
 22 21  1  6  0  0  0
 22 13  1  0  0  0  0
 27 14  1  0  0  0  0
 27  2  1  0  0  0  0
 28 23  1  0  0  0  0
 30 29  1  0  0  0  0
 30 32  1  0  0  0  0
 31 30  2  0  0  0  0
M  END
>  <MODEL>
2

>  <REMARK>
 VINA RESULT:      -9.1      1.538      2.001
  Name = 
  1 active torsions:
  status: ('A' for Active; 'I' for Inactive)
    1  A    between atoms: C_29  and  C_30
                            x       y       z     vdW  Elec       q    Type
                         _______ _______ _______ _____ _____    ______ ____

>  <TORSDO>
F 1

$$$$
=
 OpenBabel11122412483D

 32 38  0  0  1  0  0  0  0  0999 V2000
  161.7070  203.8320  146.1860 C   0  0  2  0  0  3  0  0  0  0  0  0
  161.1180  207.1520  150.4990 C   0  0  1  0  0  3  0  0  0  0  0  0
  162.4830  211.7530  149.0270 C   0  0  0  0  0  2  0  0  0  0  0  0
  161.2060  212.2300  149.7080 C   0  0  0  0  0  2  0  0  0  0  0  0
  161.0090  206.8410  153.1000 C   0  0  2  0  0  3  0  0  0  0  0  0
  161.3430  207.4860  154.4660 C   0  0  2  0  0  3  0  0  0  0  0  0
  161.1810  205.2780  148.8070 C   0  0  1  0  0  3  0  0  0  0  0  0
  161.3170  207.6440  148.1690 O   0  0  0  0  0  0  0  0  0  0  0  0
  159.7750  209.1730  154.9650 C   0  0  1  0  0  3  0  0  0  0  0  0
  161.4950  206.1560  146.3120 C   0  0  0  0  0  2  0  0  0  0  0  0
  162.4730  210.2610  148.8410 C   0  0  0  0  0  3  0  0  0  0  0  0
  161.8640  207.9540  149.4250 C   0  0  1  0  0  3  0  0  0  0  0  0
  161.8110  209.4360  149.6710 C   0  0  0  0  0  0  0  0  0  0  0  0
  160.9230  209.1010  152.0610 C   0  0  2  0  0  3  0  0  0  0  0  0
  159.3320  207.9010  155.5340 N   0  0  0  0  0  2  0  0  0  0  0  0
  161.2060  203.1060  147.4120 C   0  0  0  0  0  2  0  0  0  0  0  0
  161.7750  206.3580  147.8240 C   0  0  2  0  0  3  0  0  0  0  0  0
  160.4040  206.9840  155.4590 N   0  0  0  0  0  2  0  0  0  0  0  0
  161.7590  203.8570  148.6280 C   0  0  0  0  0  2  0  0  0  0  0  0
  160.6650  204.9210  146.0690 C   0  0  1  0  0  3  0  0  0  0  0  0
  161.0480  211.4870  151.0270 C   0  0  0  0  0  2  0  0  0  0  0  0
  160.9300  209.9750  150.7820 C   0  0  1  0  0  3  0  0  0  0  0  0
  161.5700  209.7510  153.2730 C   0  0  0  0  0  2  0  0  0  0  0  0
  161.4640  205.6870  150.2540 C   0  0  0  0  0  2  0  0  0  0  0  0
  161.6300  205.4530  153.1160 C   0  0  0  0  0  1  0  0  0  0  0  0
  159.6810  210.2640  156.0140 C   0  0  0  0  0  1  0  0  0  0  0  0
  161.5000  207.6840  151.8990 C   0  0  2  0  0  3  0  0  0  0  0  0
  161.2040  208.9900  154.5440 C   0  0  2  0  0  3  0  0  0  0  0  0
  160.9310  204.0190  144.8860 C   0  0  2  0  0  3  0  0  0  0  0  0
  159.8490  202.9980  144.7350 C   0  0  0  0  0  0  0  0  0  0  0  0
  160.1340  201.6460  144.8860 O   0  0  0  0  0  1  0  0  0  0  0  0
  158.6660  203.3630  144.5110 O   0  0  0  0  0  0  0  0  0  0  0  0
  1 16  1  1  0  0  0
  2 24  1  1  0  0  0
  2 27  1  0  0  0  0
  3  4  1  0  0  0  0
  4 21  1  0  0  0  0
  5 25  1  1  0  0  0
  5  6  1  0  0  0  0
  6 28  1  0  0  0  0
  6 18  1  1  0  0  0
  7 19  1  6  0  0  0
  7 24  1  0  0  0  0
  9 15  1  0  0  0  0
  9 26  1  1  0  0  0
 11  3  1  0  0  0  0
 11 13  2  0  0  0  0
 12  8  1  6  0  0  0
 12 13  1  0  0  0  0
 12  2  1  0  0  0  0
 13 22  1  0  0  0  0
 14 23  1  1  0  0  0
 16 19  1  0  0  0  0
 17 10  1  6  0  0  0
 17  8  1  0  0  0  0
 17  7  1  0  0  0  0
 18 15  1  0  0  0  0
 20  1  1  0  0  0  0
 20 10  1  6  0  0  0
 22 21  1  1  0  0  0
 22 14  1  0  0  0  0
 23 28  1  0  0  0  0
 27 14  1  0  0  0  0
 27  5  1  0  0  0  0
 28  9  1  0  0  0  0
 29 20  1  0  0  0  0
 29  1  1  0  0  0  0
 30 31  1  0  0  0  0
 30 29  1  0  0  0  0
 32 30  2  0  0  0  0
M  END
>  <MODEL>
3

>  <REMARK>
 VINA RESULT:      -7.7      3.783      8.873
  Name = 
  1 active torsions:
  status: ('A' for Active; 'I' for Inactive)
    1  A    between atoms: C_29  and  C_30
                            x       y       z     vdW  Elec       q    Type
                         _______ _______ _______ _____ _____    ______ ____

>  <TORSDO>
F 1

$$$$
=
 OpenBabel11122412483D

 32 38  0  0  1  0  0  0  0  0999 V2000
  161.8930  203.3680  150.1850 C   0  0  2  0  0  3  0  0  0  0  0  0
  160.7760  208.1330  152.6360 C   0  0  1  0  0  3  0  0  0  0  0  0
  161.9570  211.7820  149.3970 C   0  0  0  0  0  2  0  0  0  0  0  0
  160.6050  212.3870  149.7560 C   0  0  0  0  0  2  0  0  0  0  0  0
  160.4930  208.9430  155.1140 C   0  0  2  0  0  3  0  0  0  0  0  0
  160.6830  210.1320  156.0860 C   0  0  2  0  0  3  0  0  0  0  0  0
  161.0830  205.7340  151.9120 C   0  0  1  0  0  3  0  0  0  0  0  0
  161.1180  207.6100  150.3300 O   0  0  0  0  0  0  0  0  0  0  0  0
  158.9790  211.7260  155.7520 C   0  0  1  0  0  3  0  0  0  0  0  0
  161.5270  205.4990  149.2960 C   0  0  0  0  0  2  0  0  0  0  0  0
  162.0540  210.3560  149.8660 C   0  0  0  0  0  3  0  0  0  0  0  0
  161.5490  208.4680  151.3540 C   0  0  1  0  0  3  0  0  0  0  0  0
  161.3850  209.9050  150.9410 C   0  0  0  0  0  0  0  0  0  0  0  0
  160.3430  210.5340  153.2060 C   0  0  2  0  0  3  0  0  0  0  0  0
  158.5760  210.7800  156.7910 N   0  0  0  0  0  2  0  0  0  0  0  0
  161.3480  203.1870  151.5810 C   0  0  0  0  0  2  0  0  0  0  0  0
  161.6790  206.3450  150.5860 C   0  0  2  0  0  3  0  0  0  0  0  0
  159.7060  210.0160  157.1590 N   0  0  0  0  0  2  0  0  0  0  0  0
  161.7610  204.4280  152.3810 C   0  0  0  0  0  2  0  0  0  0  0  0
  160.7970  204.2080  149.5700 C   0  0  1  0  0  3  0  0  0  0  0  0
  160.3960  212.2600  151.2590 C   0  0  0  0  0  2  0  0  0  0  0  0
  160.3910  210.7820  151.6780 C   0  0  1  0  0  3  0  0  0  0  0  0
  160.8560  211.6900  154.0490 C   0  0  0  0  0  2  0  0  0  0  0  0
  161.2300  206.7390  153.0560 C   0  0  0  0  0  2  0  0  0  0  0  0
  161.1960  207.7530  155.7470 C   0  0  0  0  0  1  0  0  0  0  0  0
  158.7390  213.1440  156.2290 C   0  0  0  0  0  1  0  0  0  0  0  0
  161.0190  209.2390  153.6900 C   0  0  2  0  0  3  0  0  0  0  0  0
  160.4440  211.5090  155.5080 C   0  0  2  0  0  3  0  0  0  0  0  0
  161.2060  202.9180  148.8980 C   0  0  2  0  0  3  0  0  0  0  0  0
  160.2040  201.8380  149.1540 C   0  0  0  0  0  0  0  0  0  0  0  0
  160.6210  200.5780  149.5660 O   0  0  0  0  0  1  0  0  0  0  0  0
  158.9740  202.0790  149.0360 O   0  0  0  0  0  0  0  0  0  0  0  0
  1 16  1  1  0  0  0
  2 24  1  1  0  0  0
  2 27  1  0  0  0  0
  3  4  1  0  0  0  0
  3 11  1  0  0  0  0
  4 21  1  0  0  0  0
  5 25  1  1  0  0  0
  5  6  1  0  0  0  0
  6 18  1  1  0  0  0
  7 19  1  1  0  0  0
  7 24  1  0  0  0  0
  8 17  1  0  0  0  0
  9 26  1  1  0  0  0
  9 15  1  0  0  0  0
 11 13  2  0  0  0  0
 12  8  1  6  0  0  0
 12  2  1  0  0  0  0
 13 12  1  0  0  0  0
 13 22  1  0  0  0  0
 14 27  1  0  0  0  0
 14 23  1  1  0  0  0
 15 18  1  0  0  0  0
 16 19  1  0  0  0  0
 17 10  1  6  0  0  0
 17  7  1  0  0  0  0
 20 10  1  6  0  0  0
 20  1  1  0  0  0  0
 22 21  1  1  0  0  0
 22 14  1  0  0  0  0
 23 28  1  0  0  0  0
 27  5  1  0  0  0  0
 28  9  1  0  0  0  0
 28  6  1  0  0  0  0
 29 30  1  0  0  0  0
 29 20  1  0  0  0  0
 29  1  1  0  0  0  0
 30 31  1  0  0  0  0
 32 30  2  0  0  0  0
M  END
>  <MODEL>
4

>  <REMARK>
 VINA RESULT:      -7.3      3.991      8.820
  Name = 
  1 active torsions:
  status: ('A' for Active; 'I' for Inactive)
    1  A    between atoms: C_29  and  C_30
                            x       y       z     vdW  Elec       q    Type
                         _______ _______ _______ _____ _____    ______ ____

>  <TORSDO>
F 1

$$$$
