=
 OpenBabel11122412353D

 30 35  0  0  1  0  0  0  0  0999 V2000
  161.2960  210.2270  151.2530 C   0  0  0  0  0  0  0  0  0  0  0  0
  162.0050  210.8800  148.9500 C   0  0  0  0  0  0  0  0  0  0  0  0
  159.3160  213.9640  151.8470 C   0  0  0  0  0  2  0  0  0  0  0  0
  160.6520  210.5750  152.4650 C   0  0  0  0  0  0  0  0  0  0  0  0
  161.9570  208.8790  151.1740 C   0  0  0  0  0  2  0  0  0  0  0  0
  160.6380  207.3460  154.1510 O   0  0  0  0  0  0  0  0  0  0  0  0
  160.8730  211.3990  155.3470 C   0  0  1  0  0  3  0  0  0  0  0  0
  160.7740  208.2180  153.2480 C   0  0  0  0  0  0  0  0  0  0  0  0
  160.0830  212.5640  154.9060 N   0  0  2  0  0  0  0  0  0  0  0  0
  158.6810  213.6770  153.2120 C   0  0  1  0  0  3  0  0  0  0  0  0
  161.1030  207.8020  151.8340 C   0  0  2  0  0  3  0  0  0  0  0  0
  160.5670  209.6150  153.5430 N   0  0  0  0  0  0  0  0  0  0  0  0
  162.0190  211.8290  147.9260 C   0  0  0  0  0  3  0  0  0  0  0  0
  159.2290  212.8520  156.0430 C   0  0  0  0  0  2  0  0  0  0  0  0
  160.9930  211.4380  156.8010 N   0  0  0  0  0  2  0  0  0  0  0  0
  162.6240  209.6960  148.7200 F   0  0  0  0  0  0  0  0  0  0  0  0
  160.0740  212.7290  151.5320 C   0  0  0  0  0  0  0  0  0  0  0  0
  161.3970  213.0650  148.0930 C   0  0  0  0  0  3  0  0  0  0  0  0
  161.3550  211.1620  150.1780 C   0  0  0  0  0  0  0  0  0  0  0  0
  160.0460  211.8360  152.5680 C   0  0  0  0  0  0  0  0  0  0  0  0
  157.2980  213.5740  153.0660 O   0  0  0  0  0  1  0  0  0  0  0  0
  159.2410  212.3360  153.7200 C   0  0  1  0  0  3  0  0  0  0  0  0
  159.9760  212.3700  157.2610 C   0  0  0  0  0  2  0  0  0  0  0  0
  159.6550  209.3500  155.6860 O   0  0  0  0  0  0  0  0  0  0  0  0
  160.7520  213.3640  149.2900 C   0  0  0  0  0  3  0  0  0  0  0  0
  160.7260  212.4310  150.3330 C   0  0  0  0  0  0  0  0  0  0  0  0
  160.3340  210.0590  154.8940 C   0  0  0  0  0  0  0  0  0  0  0  0
  161.8410  206.5010  151.7720 C   0  0  0  0  0  3  0  0  0  0  0  0
  161.9410  204.0720  151.5300 C   0  0  0  0  0  1  0  0  0  0  0  0
  161.1890  205.3550  151.5890 C   0  0  0  0  0  3  0  0  0  0  0  0
  1  4  1  0  0  0  0
  2 19  1  0  0  0  0
  3 10  1  0  0  0  0
  4 20  2  0  0  0  0
  4 12  1  0  0  0  0
  5  1  1  0  0  0  0
  5 11  1  0  0  0  0
  7 27  1  1  0  0  0
  7 15  1  0  0  0  0
  8 12  1  0  0  0  0
  8  6  2  0  0  0  0
  9  7  1  0  0  0  0
  9 14  1  1  0  0  0
 10 21  1  6  0  0  0
 10 22  1  0  0  0  0
 11 28  1  1  0  0  0
 11  8  1  0  0  0  0
 12 27  1  0  0  0  0
 13 18  1  0  0  0  0
 13  2  2  0  0  0  0
 14 23  1  0  0  0  0
 15 23  1  0  0  0  0
 16  2  1  0  0  0  0
 17  3  1  0  0  0  0
 17 20  1  0  0  0  0
 18 25  2  0  0  0  0
 19 26  1  0  0  0  0
 19  1  2  0  0  0  0
 22 20  1  6  0  0  0
 22  9  1  0  0  0  0
 25 26  1  0  0  0  0
 26 17  2  0  0  0  0
 27 24  2  0  0  0  0
 29 30  1  0  0  0  0
 30 28  2  0  0  0  0
M  END
>  <MODEL>
1

>  <REMARK>
 VINA RESULT:      -7.3      0.000      0.000
  Name = 
  1 active torsions:
  status: ('A' for Active; 'I' for Inactive)
    1  A    between atoms: C_11  and  C_28
                            x       y       z     vdW  Elec       q    Type
                         _______ _______ _______ _____ _____    ______ ____

>  <TORSDO>
F 1

$$$$
=
 OpenBabel11122412353D

 30 35  0  0  1  0  0  0  0  0999 V2000
  161.6440  208.4950  151.0440 C   0  0  0  0  0  0  0  0  0  0  0  0
  162.3120  209.2160  148.7500 C   0  0  0  0  0  0  0  0  0  0  0  0
  160.2770  212.4190  152.0270 C   0  0  0  0  0  2  0  0  0  0  0  0
  161.1270  208.8350  152.3170 C   0  0  0  0  0  0  0  0  0  0  0  0
  162.0920  207.0750  150.8280 C   0  0  0  0  0  2  0  0  0  0  0  0
  160.7280  205.5200  153.7730 O   0  0  0  0  0  0  0  0  0  0  0  0
  161.6290  209.3900  155.2290 C   0  0  1  0  0  3  0  0  0  0  0  0
  160.9410  206.4320  152.9260 C   0  0  0  0  0  0  0  0  0  0  0  0
  160.9970  210.6870  154.9240 N   0  0  2  0  0  0  0  0  0  0  0  0
  159.6840  212.1200  153.4080 C   0  0  1  0  0  3  0  0  0  0  0  0
  161.1260  206.0840  151.4680 C   0  0  2  0  0  3  0  0  0  0  0  0
  160.9610  207.8160  153.3300 N   0  0  0  0  0  0  0  0  0  0  0  0
  162.4100  210.2310  147.7950 C   0  0  0  0  0  3  0  0  0  0  0  0
  160.2610  211.0060  156.1320 C   0  0  0  0  0  2  0  0  0  0  0  0
  161.8340  209.2970  156.6710 N   0  0  0  0  0  2  0  0  0  0  0  0
  162.7340  207.9780  148.3970 F   0  0  0  0  0  0  0  0  0  0  0  0
  160.8250  211.1170  151.5770 C   0  0  0  0  0  0  0  0  0  0  0  0
  161.9880  211.5270  148.0890 C   0  0  0  0  0  3  0  0  0  0  0  0
  161.7800  209.4930  150.0350 C   0  0  0  0  0  0  0  0  0  0  0  0
  160.7220  210.1580  152.5480 C   0  0  0  0  0  0  0  0  0  0  0  0
  158.2940  212.2290  153.3480 O   0  0  0  0  0  1  0  0  0  0  0  0
  160.0660  210.6770  153.7830 C   0  0  1  0  0  3  0  0  0  0  0  0
  160.9940  210.3270  157.2610 C   0  0  0  0  0  2  0  0  0  0  0  0
  160.1410  207.5180  155.5060 O   0  0  0  0  0  0  0  0  0  0  0  0
  161.4630  211.8210  149.3440 C   0  0  0  0  0  3  0  0  0  0  0  0
  161.3560  210.8230  150.3190 C   0  0  0  0  0  0  0  0  0  0  0  0
  160.8720  208.1820  154.7210 C   0  0  0  0  0  0  0  0  0  0  0  0
  161.6570  204.6990  151.2660 C   0  0  0  0  0  3  0  0  0  0  0  0
  161.3980  202.3350  150.7090 C   0  0  0  0  0  1  0  0  0  0  0  0
  160.8500  203.7050  150.9040 C   0  0  0  0  0  3  0  0  0  0  0  0
  1  4  1  0  0  0  0
  2 19  1  0  0  0  0
  3 10  1  0  0  0  0
  4 20  2  0  0  0  0
  4 12  1  0  0  0  0
  5  1  1  0  0  0  0
  5 11  1  0  0  0  0
  7 27  1  1  0  0  0
  7 15  1  0  0  0  0
  8 12  1  0  0  0  0
  8  6  2  0  0  0  0
  9  7  1  0  0  0  0
  9 14  1  1  0  0  0
 10 21  1  6  0  0  0
 10 22  1  0  0  0  0
 11 28  1  1  0  0  0
 11  8  1  0  0  0  0
 12 27  1  0  0  0  0
 13 18  1  0  0  0  0
 13  2  2  0  0  0  0
 14 23  1  0  0  0  0
 15 23  1  0  0  0  0
 16  2  1  0  0  0  0
 17  3  1  0  0  0  0
 17 20  1  0  0  0  0
 18 25  2  0  0  0  0
 19 26  1  0  0  0  0
 19  1  2  0  0  0  0
 22 20  1  6  0  0  0
 22  9  1  0  0  0  0
 25 26  1  0  0  0  0
 26 17  2  0  0  0  0
 27 24  2  0  0  0  0
 29 30  1  0  0  0  0
 30 28  2  0  0  0  0
M  END
>  <MODEL>
2

>  <REMARK>
 VINA RESULT:      -6.8      1.382      1.873
  Name = 
  1 active torsions:
  status: ('A' for Active; 'I' for Inactive)
    1  A    between atoms: C_11  and  C_28
                            x       y       z     vdW  Elec       q    Type
                         _______ _______ _______ _____ _____    ______ ____

>  <TORSDO>
F 1

$$$$
=
 OpenBabel11122412353D

 30 35  0  0  1  0  0  0  0  0999 V2000
  161.1100  208.3690  151.3110 C   0  0  0  0  0  0  0  0  0  0  0  0
  161.5670  206.0670  150.4600 C   0  0  0  0  0  0  0  0  0  0  0  0
  160.7120  206.9530  155.3200 C   0  0  0  0  0  2  0  0  0  0  0  0
  160.7860  209.2140  152.4000 C   0  0  0  0  0  0  0  0  0  0  0  0
  161.2190  208.9940  149.9480 C   0  0  0  0  0  2  0  0  0  0  0  0
  161.2080  212.4800  150.8430 O   0  0  0  0  0  0  0  0  0  0  0  0
  158.7270  210.8480  153.8580 C   0  0  1  0  0  3  0  0  0  0  0  0
  161.2380  211.2300  151.0160 C   0  0  0  0  0  0  0  0  0  0  0  0
  159.0690  209.9690  154.9920 N   0  0  2  0  0  0  0  0  0  0  0  0
  160.5590  208.3020  156.0300 C   0  0  1  0  0  3  0  0  0  0  0  0
  161.9310  210.3410  150.0110 C   0  0  2  0  0  3  0  0  0  0  0  0
  160.6590  210.6400  152.1980 N   0  0  0  0  0  0  0  0  0  0  0  0
  161.7210  204.7030  150.7200 C   0  0  0  0  0  3  0  0  0  0  0  0
  158.9630  210.8390  156.1480 C   0  0  0  0  0  2  0  0  0  0  0  0
  157.8370  211.9020  154.3350 N   0  0  0  0  0  2  0  0  0  0  0  0
  161.7210  206.4850  149.1800 F   0  0  0  0  0  0  0  0  0  0  0  0
  160.8310  207.3080  153.8860 C   0  0  0  0  0  0  0  0  0  0  0  0
  161.5810  204.2050  152.0140 C   0  0  0  0  0  3  0  0  0  0  0  0
  161.2650  206.9660  151.5140 C   0  0  0  0  0  0  0  0  0  0  0  0
  160.6580  208.6490  153.6770 C   0  0  0  0  0  0  0  0  0  0  0  0
  161.6960  208.5530  156.7970 O   0  0  0  0  0  1  0  0  0  0  0  0
  160.4220  209.3900  154.9500 C   0  0  1  0  0  3  0  0  0  0  0  0
  157.9540  211.8980  155.7850 C   0  0  0  0  0  2  0  0  0  0  0  0
  160.2790  212.6270  153.3830 O   0  0  0  0  0  0  0  0  0  0  0  0
  161.2850  205.0700  153.0650 C   0  0  0  0  0  3  0  0  0  0  0  0
  161.1230  206.4400  152.8300 C   0  0  0  0  0  0  0  0  0  0  0  0
  159.9180  211.4430  153.1380 C   0  0  0  0  0  0  0  0  0  0  0  0
  161.9560  210.9340  148.6360 C   0  0  0  0  0  3  0  0  0  0  0  0
  162.7120  212.5780  146.9950 C   0  0  0  0  0  1  0  0  0  0  0  0
  162.7010  212.0040  148.3680 C   0  0  0  0  0  3  0  0  0  0  0  0
  1 19  2  0  0  0  0
  1  4  1  0  0  0  0
  2 13  2  0  0  0  0
  2 19  1  0  0  0  0
  3 10  1  0  0  0  0
  4 20  2  0  0  0  0
  5 11  1  0  0  0  0
  5  1  1  0  0  0  0
  6  8  2  0  0  0  0
  7 27  1  1  0  0  0
  7 15  1  0  0  0  0
  7  9  1  0  0  0  0
  8 12  1  0  0  0  0
  9 14  1  1  0  0  0
 10 21  1  6  0  0  0
 11 28  1  6  0  0  0
 11  8  1  0  0  0  0
 12  4  1  0  0  0  0
 12 27  1  0  0  0  0
 13 18  1  0  0  0  0
 15 23  1  0  0  0  0
 16  2  1  0  0  0  0
 17  3  1  0  0  0  0
 18 25  2  0  0  0  0
 19 26  1  0  0  0  0
 20 17  1  0  0  0  0
 22 20  1  6  0  0  0
 22  9  1  0  0  0  0
 22 10  1  0  0  0  0
 23 14  1  0  0  0  0
 26 25  1  0  0  0  0
 26 17  2  0  0  0  0
 27 24  2  0  0  0  0
 29 30  1  0  0  0  0
 30 28  2  0  0  0  0
M  END
>  <MODEL>
3

>  <REMARK>
 VINA RESULT:      -6.8      1.896      5.389
  Name = 
  1 active torsions:
  status: ('A' for Active; 'I' for Inactive)
    1  A    between atoms: C_11  and  C_28
                            x       y       z     vdW  Elec       q    Type
                         _______ _______ _______ _____ _____    ______ ____

>  <TORSDO>
F 1

$$$$
=
 OpenBabel11122412353D

 30 35  0  0  1  0  0  0  0  0999 V2000
  160.7510  209.1040  153.4210 C   0  0  0  0  0  0  0  0  0  0  0  0
  161.0360  207.1310  154.9230 C   0  0  0  0  0  0  0  0  0  0  0  0
  159.2460  211.4950  156.6220 C   0  0  0  0  0  2  0  0  0  0  0  0
  160.3210  210.4410  153.2480 C   0  0  0  0  0  0  0  0  0  0  0  0
  161.2600  208.3710  152.2100 C   0  0  0  0  0  2  0  0  0  0  0  0
  161.5730  211.1080  149.8930 O   0  0  0  0  0  0  0  0  0  0  0  0
  158.2560  212.3600  152.2040 C   0  0  1  0  0  3  0  0  0  0  0  0
  161.3740  210.5290  150.9980 C   0  0  0  0  0  0  0  0  0  0  0  0
  158.1950  212.8060  153.6080 N   0  0  2  0  0  0  0  0  0  0  0  0
  159.1410  212.8330  155.8840 C   0  0  1  0  0  3  0  0  0  0  0  0
  162.1340  209.2710  151.3430 C   0  0  2  0  0  3  0  0  0  0  0  0
  160.4600  211.0890  151.9630 N   0  0  0  0  0  0  0  0  0  0  0  0
  160.9190  206.5690  156.1970 C   0  0  0  0  0  3  0  0  0  0  0  0
  157.9630  214.2340  153.5090 C   0  0  0  0  0  2  0  0  0  0  0  0
  157.4510  213.2660  151.3900 N   0  0  0  0  0  2  0  0  0  0  0  0
  161.5380  206.3510  153.9350 F   0  0  0  0  0  0  0  0  0  0  0  0
  159.7390  210.5490  155.5920 C   0  0  0  0  0  0  0  0  0  0  0  0
  160.4160  207.3160  157.2600 C   0  0  0  0  0  3  0  0  0  0  0  0
  160.6430  208.4740  154.6950 C   0  0  0  0  0  0  0  0  0  0  0  0
  159.8230  211.1370  154.3600 C   0  0  0  0  0  0  0  0  0  0  0  0
  160.1000  213.7140  156.3850 O   0  0  0  0  0  1  0  0  0  0  0  0
  159.4190  212.5720  154.3930 C   0  0  1  0  0  3  0  0  0  0  0  0
  157.2340  214.4500  152.2060 C   0  0  0  0  0  2  0  0  0  0  0  0
  160.1260  213.1580  150.9120 O   0  0  0  0  0  0  0  0  0  0  0  0
  160.0240  208.6370  157.0590 C   0  0  0  0  0  3  0  0  0  0  0  0
  160.1290  209.2220  155.7920 C   0  0  0  0  0  0  0  0  0  0  0  0
  159.6550  212.2390  151.6380 C   0  0  0  0  0  0  0  0  0  0  0  0
  162.5600  208.5020  150.1310 C   0  0  0  0  0  3  0  0  0  0  0  0
  162.1550  206.9280  148.3060 C   0  0  0  0  0  1  0  0  0  0  0  0
  161.7130  207.6840  149.5100 C   0  0  0  0  0  3  0  0  0  0  0  0
  1 19  1  0  0  0  0
  2 13  1  0  0  0  0
  4  1  2  0  0  0  0
  4 20  1  0  0  0  0
  5  1  1  0  0  0  0
  6  8  2  0  0  0  0
  7 15  1  6  0  0  0
  7  9  1  0  0  0  0
  8 11  1  0  0  0  0
  8 12  1  0  0  0  0
  9 14  1  6  0  0  0
  9 22  1  0  0  0  0
 10 21  1  1  0  0  0
 10  3  1  0  0  0  0
 11 28  1  6  0  0  0
 11  5  1  0  0  0  0
 12  4  1  0  0  0  0
 13 18  2  0  0  0  0
 15 23  1  0  0  0  0
 16  2  1  0  0  0  0
 17 26  1  0  0  0  0
 17  3  1  0  0  0  0
 19  2  2  0  0  0  0
 19 26  1  0  0  0  0
 20 17  2  0  0  0  0
 22 20  1  1  0  0  0
 22 10  1  0  0  0  0
 23 14  1  0  0  0  0
 24 27  2  0  0  0  0
 25 18  1  0  0  0  0
 26 25  2  0  0  0  0
 27 12  1  0  0  0  0
 27  7  1  0  0  0  0
 29 30  1  0  0  0  0
 30 28  2  0  0  0  0
M  END
>  <MODEL>
4

>  <REMARK>
 VINA RESULT:      -6.6      2.723      5.178
  Name = 
  1 active torsions:
  status: ('A' for Active; 'I' for Inactive)
    1  A    between atoms: C_11  and  C_28
                            x       y       z     vdW  Elec       q    Type
                         _______ _______ _______ _____ _____    ______ ____

>  <TORSDO>
F 1

$$$$
=
 OpenBabel11122412353D

 30 35  0  0  1  0  0  0  0  0999 V2000
  161.3140  207.1080  150.9690 C   0  0  0  0  0  0  0  0  0  0  0  0
  161.3980  209.5910  150.7240 C   0  0  0  0  0  0  0  0  0  0  0  0
  162.4440  206.5330  146.8910 C   0  0  0  0  0  2  0  0  0  0  0  0
  161.4310  205.8290  150.3740 C   0  0  0  0  0  0  0  0  0  0  0  0
  160.9070  207.1720  152.4150 C   0  0  0  0  0  2  0  0  0  0  0  0
  161.2620  203.7090  153.3310 O   0  0  0  0  0  0  0  0  0  0  0  0
  160.0870  203.3720  149.2800 C   0  0  1  0  0  3  0  0  0  0  0  0
  161.3450  204.7410  152.6080 C   0  0  0  0  0  0  0  0  0  0  0  0
  160.8230  203.7150  148.0490 N   0  0  2  0  0  0  0  0  0  0  0  0
  162.5810  205.0070  146.9000 C   0  0  1  0  0  3  0  0  0  0  0  0
  161.6010  206.0900  153.2360 C   0  0  2  0  0  3  0  0  0  0  0  0
  161.2490  204.6370  151.1720 N   0  0  0  0  0  0  0  0  0  0  0  0
  161.6280  210.7070  149.9160 C   0  0  0  0  0  3  0  0  0  0  0  0
  161.1680  202.4260  147.4810 C   0  0  0  0  0  2  0  0  0  0  0  0
  159.4500  202.0720  149.0970 N   0  0  0  0  0  2  0  0  0  0  0  0
  161.0630  209.8090  152.0190 F   0  0  0  0  0  0  0  0  0  0  0  0
  162.0170  206.8680  148.2710 C   0  0  0  0  0  0  0  0  0  0  0  0
  161.9820  210.5550  148.5770 C   0  0  0  0  0  3  0  0  0  0  0  0
  161.5230  208.2830  150.1890 C   0  0  0  0  0  0  0  0  0  0  0  0
  161.7890  205.7460  149.0200 C   0  0  0  0  0  0  0  0  0  0  0  0
  163.9250  204.6610  146.7650 O   0  0  0  0  0  1  0  0  0  0  0  0
  162.0560  204.4940  148.2530 C   0  0  1  0  0  3  0  0  0  0  0  0
  160.1050  201.4650  147.9490 C   0  0  0  0  0  2  0  0  0  0  0  0
  161.3590  202.3000  151.0200 O   0  0  0  0  0  0  0  0  0  0  0  0
  162.1100  209.2810  148.0310 C   0  0  0  0  0  3  0  0  0  0  0  0
  161.8830  208.1460  148.8180 C   0  0  0  0  0  0  0  0  0  0  0  0
  160.9230  203.3830  150.5420 C   0  0  0  0  0  0  0  0  0  0  0  0
  161.1110  206.1720  154.6480 C   0  0  0  0  0  3  0  0  0  0  0  0
  160.0540  207.3420  156.5140 C   0  0  0  0  0  1  0  0  0  0  0  0
  160.5340  207.2810  155.1070 C   0  0  0  0  0  3  0  0  0  0  0  0
  1  5  1  0  0  0  0
  2 16  1  0  0  0  0
  3 10  1  0  0  0  0
  3 17  1  0  0  0  0
  4  1  1  0  0  0  0
  4 12  1  0  0  0  0
  5 11  1  0  0  0  0
  7 15  1  6  0  0  0
  7 27  1  0  0  0  0
  8 11  1  0  0  0  0
  8  6  2  0  0  0  0
  9 14  1  1  0  0  0
  9 22  1  0  0  0  0
  9  7  1  0  0  0  0
 10 21  1  1  0  0  0
 10 22  1  0  0  0  0
 11 28  1  1  0  0  0
 12  8  1  0  0  0  0
 13  2  2  0  0  0  0
 14 23  1  0  0  0  0
 17 26  2  0  0  0  0
 17 20  1  0  0  0  0
 18 13  1  0  0  0  0
 19  2  1  0  0  0  0
 19  1  2  0  0  0  0
 20  4  2  0  0  0  0
 22 20  1  1  0  0  0
 23 15  1  0  0  0  0
 25 18  2  0  0  0  0
 25 26  1  0  0  0  0
 26 19  1  0  0  0  0
 27 24  2  0  0  0  0
 27 12  1  0  0  0  0
 28 30  2  0  0  0  0
 30 29  1  0  0  0  0
M  END
>  <MODEL>
5

>  <REMARK>
 VINA RESULT:      -6.4      4.372      7.621
  Name = 
  1 active torsions:
  status: ('A' for Active; 'I' for Inactive)
    1  A    between atoms: C_11  and  C_28
                            x       y       z     vdW  Elec       q    Type
                         _______ _______ _______ _____ _____    ______ ____

>  <TORSDO>
F 1

$$$$
=
 OpenBabel11122412353D

 30 35  0  0  1  0  0  0  0  0999 V2000
  161.4240  210.1720  150.3660 C   0  0  0  0  0  0  0  0  0  0  0  0
  162.3260  207.8910  149.9050 C   0  0  0  0  0  0  0  0  0  0  0  0
  160.6000  209.1710  154.4350 C   0  0  0  0  0  2  0  0  0  0  0  0
  160.8180  211.0730  151.2750 C   0  0  0  0  0  0  0  0  0  0  0  0
  161.6590  210.6500  148.9600 C   0  0  0  0  0  2  0  0  0  0  0  0
  161.0210  214.1690  149.3660 O   0  0  0  0  0  0  0  0  0  0  0  0
  158.3480  212.5150  152.2000 C   0  0  1  0  0  3  0  0  0  0  0  0
  161.1980  212.9660  149.7090 C   0  0  0  0  0  0  0  0  0  0  0  0
  158.6250  211.8340  153.4780 N   0  0  2  0  0  0  0  0  0  0  0  0
  160.1500  210.5500  154.9280 C   0  0  1  0  0  3  0  0  0  0  0  0
  162.1570  212.0910  148.9380 C   0  0  2  0  0  3  0  0  0  0  0  0
  160.5270  212.4290  150.8670 N   0  0  0  0  0  0  0  0  0  0  0  0
  162.6250  206.6060  150.3650 C   0  0  0  0  0  3  0  0  0  0  0  0
  158.2190  212.8000  154.4800 C   0  0  0  0  0  2  0  0  0  0  0  0
  157.2560  213.4620  152.4010 N   0  0  0  0  0  2  0  0  0  0  0  0
  162.6210  208.1820  148.6140 F   0  0  0  0  0  0  0  0  0  0  0  0
  160.8930  209.3770  152.9960 C   0  0  0  0  0  0  0  0  0  0  0  0
  162.3540  206.2410  151.6820 C   0  0  0  0  0  3  0  0  0  0  0  0
  161.7390  208.8430  150.7760 C   0  0  0  0  0  0  0  0  0  0  0  0
  160.5700  210.6410  152.5870 C   0  0  0  0  0  0  0  0  0  0  0  0
  161.1060  211.0620  155.8050 O   0  0  0  0  0  1  0  0  0  0  0  0
  160.0350  211.4740  153.7020 C   0  0  1  0  0  3  0  0  0  0  0  0
  157.1420  213.6390  153.8400 C   0  0  0  0  0  2  0  0  0  0  0  0
  159.6910  214.4520  151.7090 O   0  0  0  0  0  0  0  0  0  0  0  0
  161.7790  207.1610  152.5550 C   0  0  0  0  0  3  0  0  0  0  0  0
  161.4660  208.4530  152.1180 C   0  0  0  0  0  0  0  0  0  0  0  0
  159.5420  213.2060  151.5780 C   0  0  0  0  0  0  0  0  0  0  0  0
  162.3160  212.5220  147.5130 C   0  0  0  0  0  3  0  0  0  0  0  0
  161.4450  213.0080  145.2830 C   0  0  0  0  0  1  0  0  0  0  0  0
  161.2660  212.5770  146.6970 C   0  0  0  0  0  3  0  0  0  0  0  0
  1 19  2  0  0  0  0
  1  4  1  0  0  0  0
  2 13  2  0  0  0  0
  2 19  1  0  0  0  0
  3 10  1  0  0  0  0
  4 20  2  0  0  0  0
  5  1  1  0  0  0  0
  6  8  2  0  0  0  0
  7 27  1  1  0  0  0
  7 15  1  0  0  0  0
  7  9  1  0  0  0  0
  8 12  1  0  0  0  0
  9 22  1  0  0  0  0
  9 14  1  1  0  0  0
 10 21  1  1  0  0  0
 11 28  1  6  0  0  0
 11  5  1  0  0  0  0
 11  8  1  0  0  0  0
 12  4  1  0  0  0  0
 12 27  1  0  0  0  0
 13 18  1  0  0  0  0
 15 23  1  0  0  0  0
 16  2  1  0  0  0  0
 17  3  1  0  0  0  0
 18 25  2  0  0  0  0
 19 26  1  0  0  0  0
 20 17  1  0  0  0  0
 22 20  1  6  0  0  0
 22 10  1  0  0  0  0
 23 14  1  0  0  0  0
 26 25  1  0  0  0  0
 26 17  2  0  0  0  0
 27 24  2  0  0  0  0
 29 30  1  0  0  0  0
 30 28  2  0  0  0  0
M  END
>  <MODEL>
6

>  <REMARK>
 VINA RESULT:      -6.0      1.934      5.259
  Name = 
  1 active torsions:
  status: ('A' for Active; 'I' for Inactive)
    1  A    between atoms: C_11  and  C_28
                            x       y       z     vdW  Elec       q    Type
                         _______ _______ _______ _____ _____    ______ ____

>  <TORSDO>
F 1

$$$$
=
 OpenBabel11122412353D

 30 35  0  0  1  0  0  0  0  0999 V2000
  161.3410  208.1790  149.9650 C   0  0  0  0  0  0  0  0  0  0  0  0
  161.4790  206.1370  148.5360 C   0  0  0  0  0  0  0  0  0  0  0  0
  160.9640  205.8350  153.5140 C   0  0  0  0  0  2  0  0  0  0  0  0
  161.1720  208.7470  151.2510 C   0  0  0  0  0  0  0  0  0  0  0  0
  161.4610  209.1180  148.7960 C   0  0  0  0  0  2  0  0  0  0  0  0
  161.9080  212.2410  150.5280 O   0  0  0  0  0  0  0  0  0  0  0  0
  159.3940  210.1590  153.2210 C   0  0  1  0  0  3  0  0  0  0  0  0
  161.7970  210.9920  150.3820 C   0  0  0  0  0  0  0  0  0  0  0  0
  159.6800  208.9890  154.0710 N   0  0  2  0  0  0  0  0  0  0  0  0
  161.0060  206.9660  154.5460 C   0  0  1  0  0  3  0  0  0  0  0  0
  162.3310  210.3220  149.1380 C   0  0  2  0  0  3  0  0  0  0  0  0
  161.2070  210.1830  151.4200 N   0  0  0  0  0  0  0  0  0  0  0  0
  161.4800  204.7440  148.4360 C   0  0  0  0  0  3  0  0  0  0  0  0
  159.7330  209.5400  155.4120 C   0  0  0  0  0  2  0  0  0  0  0  0
  158.6590  211.1430  154.0100 N   0  0  0  0  0  2  0  0  0  0  0  0
  161.6230  206.8510  147.3920 F   0  0  0  0  0  0  0  0  0  0  0  0
  161.0580  206.5310  152.2080 C   0  0  0  0  0  0  0  0  0  0  0  0
  161.3420  203.9490  149.5720 C   0  0  0  0  0  3  0  0  0  0  0  0
  161.3370  206.7630  149.8000 C   0  0  0  0  0  0  0  0  0  0  0  0
  161.0370  207.8910  152.3530 C   0  0  0  0  0  0  0  0  0  0  0  0
  162.2000  206.8930  155.2640 O   0  0  0  0  0  1  0  0  0  0  0  0
  160.9500  208.3020  153.7840 C   0  0  1  0  0  3  0  0  0  0  0  0
  158.8420  210.7560  155.4000 C   0  0  0  0  0  2  0  0  0  0  0  0
  161.1230  211.8290  153.0870 O   0  0  0  0  0  0  0  0  0  0  0  0
  161.2020  204.5420  150.8240 C   0  0  0  0  0  3  0  0  0  0  0  0
  161.1940  205.9360  150.9510 C   0  0  0  0  0  0  0  0  0  0  0  0
  160.6120  210.7920  152.5830 C   0  0  0  0  0  0  0  0  0  0  0  0
  162.3630  211.2410  147.9560 C   0  0  0  0  0  3  0  0  0  0  0  0
  161.3030  212.7350  146.3390 C   0  0  0  0  0  1  0  0  0  0  0  0
  161.2500  211.8250  147.5160 C   0  0  0  0  0  3  0  0  0  0  0  0
  1  4  1  0  0  0  0
  2 19  1  0  0  0  0
  3 10  1  0  0  0  0
  4 12  1  0  0  0  0
  4 20  2  0  0  0  0
  5 11  1  0  0  0  0
  5  1  1  0  0  0  0
  7 27  1  1  0  0  0
  7 15  1  0  0  0  0
  7  9  1  0  0  0  0
  8  6  2  0  0  0  0
  8 12  1  0  0  0  0
  9 14  1  1  0  0  0
 10 21  1  6  0  0  0
 11 28  1  6  0  0  0
 11  8  1  0  0  0  0
 12 27  1  0  0  0  0
 13  2  2  0  0  0  0
 13 18  1  0  0  0  0
 15 23  1  0  0  0  0
 16  2  1  0  0  0  0
 17 20  1  0  0  0  0
 17  3  1  0  0  0  0
 18 25  2  0  0  0  0
 19  1  2  0  0  0  0
 19 26  1  0  0  0  0
 22 20  1  6  0  0  0
 22  9  1  0  0  0  0
 22 10  1  0  0  0  0
 23 14  1  0  0  0  0
 25 26  1  0  0  0  0
 26 17  2  0  0  0  0
 27 24  2  0  0  0  0
 29 30  1  0  0  0  0
 30 28  2  0  0  0  0
M  END
>  <MODEL>
7

>  <REMARK>
 VINA RESULT:      -4.9      2.134      5.632
  Name = 
  1 active torsions:
  status: ('A' for Active; 'I' for Inactive)
    1  A    between atoms: C_11  and  C_28
                            x       y       z     vdW  Elec       q    Type
                         _______ _______ _______ _____ _____    ______ ____

>  <TORSDO>
F 1

$$$$
=
 OpenBabel11122412353D

 30 35  0  0  1  0  0  0  0  0999 V2000
  161.1860  205.0750  149.4060 C   0  0  0  0  0  0  0  0  0  0  0  0
  160.6010  202.6570  149.2010 C   0  0  0  0  0  0  0  0  0  0  0  0
  161.2060  204.8480  153.6700 C   0  0  0  0  0  2  0  0  0  0  0  0
  161.4300  206.1940  150.2370 C   0  0  0  0  0  0  0  0  0  0  0  0
  161.2070  205.2900  147.9180 C   0  0  0  0  0  2  0  0  0  0  0  0
  162.6250  208.5950  147.7720 O   0  0  0  0  0  0  0  0  0  0  0  0
  160.4560  208.7900  151.4010 C   0  0  1  0  0  3  0  0  0  0  0  0
  162.2490  207.5070  148.2910 C   0  0  0  0  0  0  0  0  0  0  0  0
  160.7050  208.1180  152.6900 N   0  0  2  0  0  0  0  0  0  0  0  0
  161.6990  206.2650  153.9770 C   0  0  1  0  0  3  0  0  0  0  0  0
  162.3430  206.2200  147.5070 C   0  0  2  0  0  3  0  0  0  0  0  0
  161.7740  207.4710  149.6520 N   0  0  0  0  0  0  0  0  0  0  0  0
  160.3160  201.4370  149.8200 C   0  0  0  0  0  3  0  0  0  0  0  0
  161.1710  209.1870  153.5530 C   0  0  0  0  0  2  0  0  0  0  0  0
  160.1240  210.1870  151.6580 N   0  0  0  0  0  2  0  0  0  0  0  0
  160.6080  202.6880  147.8460 F   0  0  0  0  0  0  0  0  0  0  0  0
  161.1240  204.8030  152.1900 C   0  0  0  0  0  0  0  0  0  0  0  0
  160.2980  201.3320  151.2100 C   0  0  0  0  0  3  0  0  0  0  0  0
  160.8760  203.8080  149.9820 C   0  0  0  0  0  0  0  0  0  0  0  0
  161.3950  206.0210  151.6290 C   0  0  0  0  0  0  0  0  0  0  0  0
  162.9910  206.2030  154.4990 O   0  0  0  0  0  1  0  0  0  0  0  0
  161.7220  207.0530  152.6550 C   0  0  1  0  0  3  0  0  0  0  0  0
  160.5480  210.4540  153.0230 C   0  0  0  0  0  2  0  0  0  0  0  0
  162.3910  209.6510  150.2550 O   0  0  0  0  0  0  0  0  0  0  0  0
  160.5660  202.4500  151.9970 C   0  0  0  0  0  3  0  0  0  0  0  0
  160.8510  203.6830  151.4010 C   0  0  0  0  0  0  0  0  0  0  0  0
  161.5900  208.6870  150.4040 C   0  0  0  0  0  0  0  0  0  0  0  0
  162.2730  206.4380  146.0270 C   0  0  0  0  0  3  0  0  0  0  0  0
  161.5810  205.8060  143.7710 C   0  0  0  0  0  1  0  0  0  0  0  0
  161.6400  205.5720  145.2390 C   0  0  0  0  0  3  0  0  0  0  0  0
  1 19  2  0  0  0  0
  1  4  1  0  0  0  0
  2 13  2  0  0  0  0
  2 19  1  0  0  0  0
  3 10  1  0  0  0  0
  4 20  2  0  0  0  0
  5  1  1  0  0  0  0
  6  8  2  0  0  0  0
  7 27  1  6  0  0  0
  7 15  1  0  0  0  0
  7  9  1  0  0  0  0
  8 12  1  0  0  0  0
  9 14  1  1  0  0  0
 10 21  1  6  0  0  0
 11 28  1  6  0  0  0
 11  5  1  0  0  0  0
 11  8  1  0  0  0  0
 12  4  1  0  0  0  0
 12 27  1  0  0  0  0
 13 18  1  0  0  0  0
 15 23  1  0  0  0  0
 16  2  1  0  0  0  0
 17  3  1  0  0  0  0
 18 25  2  0  0  0  0
 19 26  1  0  0  0  0
 20 17  1  0  0  0  0
 22 20  1  6  0  0  0
 22  9  1  0  0  0  0
 22 10  1  0  0  0  0
 23 14  1  0  0  0  0
 24 27  2  0  0  0  0
 26 25  1  0  0  0  0
 26 17  2  0  0  0  0
 29 30  1  0  0  0  0
 30 28  2  0  0  0  0
M  END
>  <MODEL>
8

>  <REMARK>
 VINA RESULT:      -4.7      3.595      7.166
  Name = 
  1 active torsions:
  status: ('A' for Active; 'I' for Inactive)
    1  A    between atoms: C_11  and  C_28
                            x       y       z     vdW  Elec       q    Type
                         _______ _______ _______ _____ _____    ______ ____

>  <TORSDO>
F 1

$$$$
=
 OpenBabel11122412353D

 30 35  0  0  1  0  0  0  0  0999 V2000
  161.1530  206.4590  150.7450 C   0  0  0  0  0  0  0  0  0  0  0  0
  160.8360  203.9910  150.9400 C   0  0  0  0  0  0  0  0  0  0  0  0
  160.8920  206.9640  154.9770 C   0  0  0  0  0  2  0  0  0  0  0  0
  161.2190  207.7240  151.3770 C   0  0  0  0  0  0  0  0  0  0  0  0
  161.2570  206.4200  149.2450 C   0  0  0  0  0  2  0  0  0  0  0  0
  162.3330  209.7920  148.5920 O   0  0  0  0  0  0  0  0  0  0  0  0
  159.9030  210.3510  152.0110 C   0  0  1  0  0  3  0  0  0  0  0  0
  162.0350  208.7720  149.2740 C   0  0  0  0  0  0  0  0  0  0  0  0
  160.1280  209.9410  153.4100 N   0  0  2  0  0  0  0  0  0  0  0  0
  161.2130  208.4600  155.0540 C   0  0  1  0  0  3  0  0  0  0  0  0
  162.3180  207.3900  148.7370 C   0  0  2  0  0  3  0  0  0  0  0  0
  161.4710  208.9140  150.5940 N   0  0  0  0  0  0  0  0  0  0  0  0
  160.6350  202.8700  151.7490 C   0  0  0  0  0  3  0  0  0  0  0  0
  160.4180  211.1870  154.0930 C   0  0  0  0  0  2  0  0  0  0  0  0
  159.4110  211.7260  151.9990 N   0  0  0  0  0  2  0  0  0  0  0  0
  160.9360  203.7920  149.6030 F   0  0  0  0  0  0  0  0  0  0  0  0
  160.9210  206.6600  153.5260 C   0  0  0  0  0  0  0  0  0  0  0  0
  160.5290  203.0010  153.1330 C   0  0  0  0  0  3  0  0  0  0  0  0
  160.9350  205.2820  151.5190 C   0  0  0  0  0  0  0  0  0  0  0  0
  161.1030  207.7870  152.7730 C   0  0  0  0  0  0  0  0  0  0  0  0
  162.4640  208.6350  155.6460 O   0  0  0  0  0  1  0  0  0  0  0  0
  161.2480  209.0090  153.6160 C   0  0  1  0  0  3  0  0  0  0  0  0
  159.7070  212.2670  153.3170 C   0  0  0  0  0  2  0  0  0  0  0  0
  161.8150  211.2210  150.8340 O   0  0  0  0  0  0  0  0  0  0  0  0
  160.6230  204.2590  153.7230 C   0  0  0  0  0  3  0  0  0  0  0  0
  160.8220  205.3980  152.9340 C   0  0  0  0  0  0  0  0  0  0  0  0
  161.1100  210.2110  151.1080 C   0  0  0  0  0  0  0  0  0  0  0  0
  162.3310  207.3440  147.2400 C   0  0  0  0  0  3  0  0  0  0  0  0
  162.0270  206.2030  145.1010 C   0  0  0  0  0  1  0  0  0  0  0  0
  162.0080  206.2280  146.5890 C   0  0  0  0  0  3  0  0  0  0  0  0
  1  4  2  0  0  0  0
  1 19  1  0  0  0  0
  2 19  2  0  0  0  0
  2 13  1  0  0  0  0
  3 10  1  0  0  0  0
  4 20  1  0  0  0  0
  5  1  1  0  0  0  0
  6  8  2  0  0  0  0
  7 27  1  6  0  0  0
  7  9  1  0  0  0  0
  8 12  1  0  0  0  0
  9 22  1  0  0  0  0
  9 14  1  1  0  0  0
 10 21  1  6  0  0  0
 11 28  1  6  0  0  0
 11  5  1  0  0  0  0
 11  8  1  0  0  0  0
 12 27  1  0  0  0  0
 12  4  1  0  0  0  0
 13 18  2  0  0  0  0
 15  7  1  0  0  0  0
 15 23  1  0  0  0  0
 16  2  1  0  0  0  0
 17  3  1  0  0  0  0
 18 25  1  0  0  0  0
 19 26  1  0  0  0  0
 20 17  2  0  0  0  0
 22 20  1  6  0  0  0
 22 10  1  0  0  0  0
 23 14  1  0  0  0  0
 24 27  2  0  0  0  0
 26 17  1  0  0  0  0
 26 25  2  0  0  0  0
 29 30  1  0  0  0  0
 30 28  2  0  0  0  0
M  END
>  <MODEL>
9

>  <REMARK>
 VINA RESULT:      -4.4      2.966      5.961
  Name = 
  1 active torsions:
  status: ('A' for Active; 'I' for Inactive)
    1  A    between atoms: C_11  and  C_28
                            x       y       z     vdW  Elec       q    Type
                         _______ _______ _______ _____ _____    ______ ____

>  <TORSDO>
F 1

$$$$
