=
 OpenBabel11122412563D

 32 37  0  0  1  0  0  0  0  0999 V2000
  160.7950  210.7730  152.8390 C   0  0  0  0  0  2  0  0  0  0  0  0
  161.2580  206.2340  149.8690 C   0  0  0  0  0  0  0  0  0  0  0  0
  161.9850  201.9080  151.8330 C   0  0  0  0  0  2  0  0  0  0  0  0
  160.7460  201.3540  151.1310 C   0  0  0  0  0  2  0  0  0  0  0  0
  161.5210  206.1760  147.2650 C   0  0  0  0  0  0  0  0  0  0  0  0
  161.9810  205.3560  146.0930 C   0  0  2  0  0  3  0  0  0  0  0  0
  161.7750  208.3630  151.1780 C   0  0  2  0  0  3  0  0  0  0  0  0
  161.0150  206.3050  152.3610 C   0  0  0  0  0  2  0  0  0  0  0  0
  161.0790  203.5990  144.8450 N   0  0  0  0  0  0  0  0  0  0  0  0
  161.2170  208.3830  153.6420 C   0  0  0  0  0  2  0  0  0  0  0  0
  161.9690  203.4420  151.9450 C   0  0  0  0  0  2  0  0  0  0  0  0
  161.0230  205.5890  151.0330 C   0  0  0  0  0  0  0  0  0  0  0  0
  160.8700  204.0930  151.0940 C   0  0  1  0  0  3  0  0  0  0  0  0
  161.0470  204.1520  148.5590 C   0  0  0  0  0  0  0  0  0  0  0  0
  161.2970  204.7700  144.0130 C   0  0  0  0  0  2  0  0  0  0  0  0
  162.0110  210.5490  152.1840 O   0  0  0  0  0  0  0  0  0  0  0  0
  160.8480  207.8170  152.2740 C   0  0  1  0  0  3  0  0  0  0  0  0
  161.5670  205.8880  144.8520 O   0  0  0  0  0  0  0  0  0  0  0  0
  161.6520  209.8770  151.0110 C   0  0  0  0  0  2  0  0  0  0  0  0
  160.5560  209.7350  153.9360 C   0  0  1  0  0  3  0  0  0  0  0  0
  160.6170  201.9780  149.7410 C   0  0  0  0  0  2  0  0  0  0  0  0
  160.7930  203.4370  149.7820 N   0  0  0  0  0  0  0  0  0  0  0  0
  160.9690  203.4280  147.2640 C   0  0  0  0  0  3  0  0  0  0  0  0
  161.3780  207.7390  149.8470 C   0  0  0  0  0  2  0  0  0  0  0  0
  161.4100  207.4250  147.1400 O   0  0  0  0  0  0  0  0  0  0  0  0
  160.0580  202.6100  144.5380 C   0  0  0  0  0  1  0  0  0  0  0  0
  161.2720  205.4890  148.5740 C   0  0  0  0  0  0  0  0  0  0  0  0
  161.4000  204.0110  146.1440 C   0  0  0  0  0  0  0  0  0  0  0  0
  161.0450  210.2540  155.2040 N   0  0  0  0  0  2  0  0  0  0  0  0
  160.3340  211.2370  155.9600 C   0  0  0  0  0  0  0  0  0  0  0  0
  159.2470  211.7140  155.5360 O   0  0  0  0  0  0  0  0  0  0  0  0
  160.8840  211.7020  157.2610 C   0  0  0  0  0  1  0  0  0  0  0  0
  1 20  1  0  0  0  0
  2 12  2  0  0  0  0
  3 11  1  0  0  0  0
  4  3  1  0  0  0  0
  5 27  1  0  0  0  0
  6 18  1  6  0  0  0
  6 28  1  0  0  0  0
  6  5  1  0  0  0  0
  7 24  1  6  0  0  0
  7 17  1  0  0  0  0
  9 28  1  0  0  0  0
 10 20  1  0  0  0  0
 12 13  1  0  0  0  0
 12  8  1  0  0  0  0
 13 11  1  6  0  0  0
 14 27  2  0  0  0  0
 14 22  1  0  0  0  0
 15  9  1  0  0  0  0
 15 18  1  0  0  0  0
 16  1  1  0  0  0  0
 17  8  1  1  0  0  0
 17 10  1  0  0  0  0
 19  7  1  0  0  0  0
 19 16  1  0  0  0  0
 20 29  1  1  0  0  0
 21 22  1  0  0  0  0
 21  4  1  0  0  0  0
 22 13  1  0  0  0  0
 23 14  1  0  0  0  0
 24  2  1  0  0  0  0
 25  5  2  0  0  0  0
 26  9  1  0  0  0  0
 27  2  1  0  0  0  0
 28 23  2  0  0  0  0
 29 30  1  0  0  0  0
 30 32  1  0  0  0  0
 31 30  2  0  0  0  0
M  END
>  <MODEL>
1

>  <REMARK>
 VINA RESULT:      -9.5      0.000      0.000
  Name = 
  1 active torsions:
  status: ('A' for Active; 'I' for Inactive)
    1  A    between atoms: C_20  and  N_29
                            x       y       z     vdW  Elec       q    Type
                         _______ _______ _______ _____ _____    ______ ____

>  <TORSDO>
F 1

$$$$
=
 OpenBabel11122412563D

 32 37  0  0  1  0  0  0  0  0999 V2000
  160.2690  201.3600  150.2780 C   0  0  0  0  0  2  0  0  0  0  0  0
  161.2050  206.5830  151.4950 C   0  0  0  0  0  0  0  0  0  0  0  0
  163.0570  209.6950  148.3360 C   0  0  0  0  0  2  0  0  0  0  0  0
  161.8670  210.6350  148.5260 C   0  0  0  0  0  2  0  0  0  0  0  0
  161.1010  207.5940  153.9080 C   0  0  0  0  0  0  0  0  0  0  0  0
  161.5440  208.7290  154.7870 C   0  0  2  0  0  3  0  0  0  0  0  0
  161.4660  204.0680  151.1530 C   0  0  2  0  0  3  0  0  0  0  0  0
  161.3100  205.6010  149.1940 C   0  0  0  0  0  2  0  0  0  0  0  0
  160.8440  210.9320  155.1240 N   0  0  0  0  0  0  0  0  0  0  0  0
  161.2720  203.1850  148.7940 C   0  0  0  0  0  2  0  0  0  0  0  0
  162.7490  208.2510  148.7680 C   0  0  0  0  0  2  0  0  0  0  0  0
  161.2730  206.7610  150.1580 C   0  0  0  0  0  0  0  0  0  0  0  0
  161.4330  208.1270  149.5460 C   0  0  1  0  0  3  0  0  0  0  0  0
  161.2310  209.0150  151.9190 C   0  0  0  0  0  0  0  0  0  0  0  0
  160.7020  210.1500  156.3400 C   0  0  0  0  0  2  0  0  0  0  0  0
  161.4000  201.6530  151.0490 O   0  0  0  0  0  0  0  0  0  0  0  0
  160.8320  204.2730  149.7690 C   0  0  1  0  0  3  0  0  0  0  0  0
  160.8590  208.7700  156.0210 O   0  0  0  0  0  0  0  0  0  0  0  0
  161.0200  202.7620  151.8110 C   0  0  0  0  0  2  0  0  0  0  0  0
  160.4020  201.9240  148.8630 C   0  0  1  0  0  3  0  0  0  0  0  0
  161.4190  210.6100  149.9880 C   0  0  0  0  0  2  0  0  0  0  0  0
  161.3020  209.2370  150.4990 N   0  0  0  0  0  0  0  0  0  0  0  0
  161.1160  210.1810  152.8330 C   0  0  0  0  0  3  0  0  0  0  0  0
  161.0170  205.1990  152.0680 C   0  0  0  0  0  2  0  0  0  0  0  0
  160.7250  206.5130  154.4380 O   0  0  0  0  0  0  0  0  0  0  0  0
  160.0090  212.0900  154.8480 C   0  0  0  0  0  1  0  0  0  0  0  0
  161.1840  207.7570  152.4210 C   0  0  0  0  0  0  0  0  0  0  0  0
  161.2580  210.0180  154.1490 C   0  0  0  0  0  0  0  0  0  0  0  0
  160.9530  200.9000  147.9870 N   0  0  0  0  0  2  0  0  0  0  0  0
  160.7250  200.8890  146.5760 C   0  0  0  0  0  0  0  0  0  0  0  0
  160.0080  201.7700  146.0320 O   0  0  0  0  0  0  0  0  0  0  0  0
  161.3420  199.8230  145.7420 C   0  0  0  0  0  1  0  0  0  0  0  0
  1 16  1  0  0  0  0
  2 24  1  0  0  0  0
  2 27  1  0  0  0  0
  3  4  1  0  0  0  0
  3 11  1  0  0  0  0
  4 21  1  0  0  0  0
  5 25  2  0  0  0  0
  6  5  1  6  0  0  0
  6 18  1  0  0  0  0
  7 19  1  1  0  0  0
  7 24  1  0  0  0  0
  8 17  1  0  0  0  0
  8 12  1  0  0  0  0
  9 15  1  0  0  0  0
 10 20  1  0  0  0  0
 12  2  2  0  0  0  0
 13 11  1  1  0  0  0
 13 12  1  0  0  0  0
 13 22  1  0  0  0  0
 14 27  2  0  0  0  0
 14 23  1  0  0  0  0
 16 19  1  0  0  0  0
 17 10  1  6  0  0  0
 17  7  1  0  0  0  0
 18 15  1  0  0  0  0
 20 29  1  6  0  0  0
 20  1  1  0  0  0  0
 21 22  1  0  0  0  0
 22 14  1  0  0  0  0
 23 28  2  0  0  0  0
 26  9  1  0  0  0  0
 27  5  1  0  0  0  0
 28  6  1  0  0  0  0
 28  9  1  0  0  0  0
 30 29  1  0  0  0  0
 31 30  2  0  0  0  0
 32 30  1  0  0  0  0
M  END
>  <MODEL>
2

>  <REMARK>
 VINA RESULT:      -8.2      2.457      9.099
  Name = 
  1 active torsions:
  status: ('A' for Active; 'I' for Inactive)
    1  A    between atoms: C_20  and  N_29
                            x       y       z     vdW  Elec       q    Type
                         _______ _______ _______ _____ _____    ______ ____

>  <TORSDO>
F 1

$$$$
=
 OpenBabel11122412563D

 32 37  0  0  1  0  0  0  0  0999 V2000
  160.8250  202.8780  150.8850 C   0  0  0  0  0  2  0  0  0  0  0  0
  161.1430  208.1360  152.2580 C   0  0  0  0  0  0  0  0  0  0  0  0
  162.3840  211.5670  149.1290 C   0  0  0  0  0  2  0  0  0  0  0  0
  161.0950  212.3350  149.4210 C   0  0  0  0  0  2  0  0  0  0  0  0
  161.0500  209.0460  154.7110 C   0  0  0  0  0  0  0  0  0  0  0  0
  161.3920  210.2010  155.6090 C   0  0  2  0  0  3  0  0  0  0  0  0
  161.7080  205.6910  151.8020 C   0  0  2  0  0  3  0  0  0  0  0  0
  161.2390  207.2520  149.9170 C   0  0  0  0  0  2  0  0  0  0  0  0
  160.4330  212.2800  156.0720 N   0  0  0  0  0  0  0  0  0  0  0  0
  161.4920  204.8670  149.4230 C   0  0  0  0  0  2  0  0  0  0  0  0
  162.2930  210.0820  149.5190 C   0  0  0  0  0  2  0  0  0  0  0  0
  161.1080  208.3650  150.9270 C   0  0  0  0  0  0  0  0  0  0  0  0
  161.0530  209.7590  150.3620 C   0  0  1  0  0  3  0  0  0  0  0  0
  160.8770  210.5360  152.7760 C   0  0  0  0  0  0  0  0  0  0  0  0
  160.4660  211.4460  157.2610 C   0  0  0  0  0  2  0  0  0  0  0  0
  161.9510  203.2930  151.6050 O   0  0  0  0  0  0  0  0  0  0  0  0
  160.9730  205.8550  150.4630 C   0  0  1  0  0  3  0  0  0  0  0  0
  160.7820  210.1110  156.8790 O   0  0  0  0  0  0  0  0  0  0  0  0
  161.4750  204.3170  152.4300 C   0  0  0  0  0  2  0  0  0  0  0  0
  160.8000  203.5010  149.4890 C   0  0  1  0  0  3  0  0  0  0  0  0
  160.7410  212.2040  150.9030 C   0  0  0  0  0  2  0  0  0  0  0  0
  160.8350  210.8110  151.3640 N   0  0  0  0  0  0  0  0  0  0  0  0
  160.6650  211.6460  153.7400 C   0  0  0  0  0  3  0  0  0  0  0  0
  161.1700  206.7220  152.7840 C   0  0  0  0  0  2  0  0  0  0  0  0
  160.8500  207.9090  155.2170 O   0  0  0  0  0  0  0  0  0  0  0  0
  159.4390  213.3260  155.8870 C   0  0  0  0  0  1  0  0  0  0  0  0
  161.0240  209.2670  153.2290 C   0  0  0  0  0  0  0  0  0  0  0  0
  160.9040  211.4600  155.0390 C   0  0  0  0  0  0  0  0  0  0  0  0
  161.4270  202.5870  148.5440 N   0  0  0  0  0  2  0  0  0  0  0  0
  160.8450  201.3320  148.1840 C   0  0  0  0  0  0  0  0  0  0  0  0
  159.7580  200.9550  148.6970 O   0  0  0  0  0  0  0  0  0  0  0  0
  161.5310  200.4630  147.1920 C   0  0  0  0  0  1  0  0  0  0  0  0
  1 16  1  0  0  0  0
  2 24  1  0  0  0  0
  2 27  1  0  0  0  0
  3  4  1  0  0  0  0
  3 11  1  0  0  0  0
  4 21  1  0  0  0  0
  5 25  2  0  0  0  0
  6  5  1  6  0  0  0
  6 18  1  0  0  0  0
  7 19  1  1  0  0  0
  7 24  1  0  0  0  0
  8 17  1  0  0  0  0
  8 12  1  0  0  0  0
  9 15  1  0  0  0  0
 10 20  1  0  0  0  0
 12  2  2  0  0  0  0
 13 11  1  1  0  0  0
 13 12  1  0  0  0  0
 13 22  1  0  0  0  0
 14 27  2  0  0  0  0
 14 23  1  0  0  0  0
 16 19  1  0  0  0  0
 17 10  1  6  0  0  0
 17  7  1  0  0  0  0
 18 15  1  0  0  0  0
 20 29  1  6  0  0  0
 20  1  1  0  0  0  0
 21 22  1  0  0  0  0
 22 14  1  0  0  0  0
 23 28  2  0  0  0  0
 26  9  1  0  0  0  0
 27  5  1  0  0  0  0
 28  6  1  0  0  0  0
 28  9  1  0  0  0  0
 30 29  1  0  0  0  0
 30 31  2  0  0  0  0
 32 30  1  0  0  0  0
M  END
>  <MODEL>
3

>  <REMARK>
 VINA RESULT:      -7.6      2.641      9.396
  Name = 
  1 active torsions:
  status: ('A' for Active; 'I' for Inactive)
    1  A    between atoms: C_20  and  N_29
                            x       y       z     vdW  Elec       q    Type
                         _______ _______ _______ _____ _____    ______ ____

>  <TORSDO>
F 1

$$$$
