=
 OpenBabel11122413463D

 37 43  0  0  1  0  0  0  0  0999 V2000
  158.8850  212.4720  155.1410 C   0  0  1  0  0  0  0  0  0  0  0  0
  162.0440  209.7990  153.9690 C   0  0  1  0  0  3  0  0  0  0  0  0
  162.4490  208.7890  150.2210 C   0  0  0  0  0  2  0  0  0  0  0  0
  161.0390  211.2790  155.8700 C   0  0  2  0  0  3  0  0  0  0  0  0
  161.7050  209.7980  152.4860 C   0  0  1  0  0  3  0  0  0  0  0  0
  161.4880  211.1550  154.3950 C   0  0  2  0  0  3  0  0  0  0  0  0
  161.8110  208.5540  151.5930 C   0  0  0  0  0  0  0  0  0  0  0  0
  160.3320  210.0860  156.3320 N   0  0  0  0  0  2  0  0  0  0  0  0
  160.4440  211.5690  153.3490 C   0  0  2  0  0  3  0  0  0  0  0  0
  158.5990  213.8800  154.6630 C   0  0  0  0  0  1  0  0  0  0  0  0
  160.1760  208.0790  154.1170 C   0  0  0  0  0  2  0  0  0  0  0  0
  161.2310  208.9480  156.2160 C   0  0  0  0  0  2  0  0  0  0  0  0
  159.0270  211.5480  153.9210 C   0  0  0  0  0  2  0  0  0  0  0  0
  161.8670  210.8260  148.6060 C   0  0  1  0  0  3  0  0  0  0  0  0
  162.4470  210.2740  149.8890 C   0  0  1  0  0  3  0  0  0  0  0  0
  161.4480  208.6130  154.7450 C   0  0  2  0  0  3  0  0  0  0  0  0
  160.5410  210.6610  152.2090 N   0  0  1  0  0  0  0  0  0  0  0  0
  160.1400  212.5060  156.0350 C   0  0  0  0  0  2  0  0  0  0  0  0
  161.2220  207.3520  151.8620 C   0  0  0  0  0  0  0  0  0  0  0  0
  157.8020  212.0320  155.9030 O   0  0  0  0  0  1  0  0  0  0  0  0
  160.9590  210.5910  149.8080 C   0  0  1  0  0  3  0  0  0  0  0  0
  160.8050  211.4960  151.0230 C   0  0  0  0  0  2  0  0  0  0  0  0
  160.5630  206.9650  153.1700 C   0  0  0  0  0  2  0  0  0  0  0  0
  161.3230  204.9230  151.2690 C   0  0  0  0  0  3  0  0  0  0  0  0
  161.2370  206.2600  150.8560 C   0  0  0  0  0  0  0  0  0  0  0  0
  161.1150  206.5400  149.5270 N   0  0  0  0  0  0  0  0  0  0  0  0
  160.9720  205.9220  147.1460 C   0  0  0  0  0  1  0  0  0  0  0  0
  161.1940  204.2230  148.9620 C   0  0  0  0  0  3  0  0  0  0  0  0
  161.0980  205.5620  148.5830 C   0  0  0  0  0  0  0  0  0  0  0  0
  161.3060  203.9040  150.3150 C   0  0  0  0  0  3  0  0  0  0  0  0
  159.8780  211.5960  146.7390 O   0  0  0  0  0  0  0  0  0  0  0  0
  160.1500  212.8040  146.9690 C   0  0  0  0  0  0  0  0  0  0  0  0
  162.1810  212.2860  148.4390 C   0  0  0  0  0  0  0  0  0  0  0  0
  161.3050  213.1750  147.7310 N   0  0  0  0  0  2  0  0  0  0  0  0
  163.2510  212.7460  148.9180 O   0  0  0  0  0  0  0  0  0  0  0  0
  158.4010  213.3040  145.4730 O   0  0  0  0  0  1  0  0  0  0  0  0
  159.2910  213.8690  146.3860 C   0  0  0  0  0  2  0  0  0  0  0  0
  1 10  1  6  0  0  0
  1 20  1  0  0  0  0
  1 18  1  0  0  0  0
  2  6  1  0  0  0  0
  2 16  1  0  0  0  0
  3  7  1  0  0  0  0
  4 18  1  0  0  0  0
  4  8  1  0  0  0  0
  5  2  1  0  0  0  0
  6  4  1  0  0  0  0
  7 19  2  0  0  0  0
  7  5  1  0  0  0  0
  9 13  1  0  0  0  0
  9  6  1  0  0  0  0
 11 16  1  0  0  0  0
 12  8  1  0  0  0  0
 13  1  1  0  0  0  0
 14 21  1  0  0  0  0
 14 15  1  0  0  0  0
 15  3  1  0  0  0  0
 16 12  1  0  0  0  0
 17  5  1  0  0  0  0
 17  9  1  0  0  0  0
 19 23  1  0  0  0  0
 21 15  1  0  0  0  0
 21 22  1  0  0  0  0
 22 17  1  0  0  0  0
 23 11  1  0  0  0  0
 25 24  1  0  0  0  0
 25 19  1  0  0  0  0
 26 25  2  0  0  0  0
 27 29  1  0  0  0  0
 28 30  1  0  0  0  0
 29 28  2  0  0  0  0
 29 26  1  0  0  0  0
 30 24  2  0  0  0  0
 31 32  2  0  0  0  0
 32 34  1  0  0  0  0
 33 14  1  0  0  0  0
 33 35  2  0  0  0  0
 34 33  1  0  0  0  0
 36 37  1  0  0  0  0
 37 32  1  0  0  0  0
M  END
>  <MODEL>
1

>  <REMARK>
 VINA RESULT:      -5.9      0.000      0.000
  Name = 
  3 active torsions:
  status: ('A' for Active; 'I' for Inactive)
    1  A    between atoms: C_4  and  C_37
    2  A    between atoms: C_8  and  C_18
    3  A    between atoms: C_23  and  C_30
                            x       y       z     vdW  Elec       q    Type
                         _______ _______ _______ _____ _____    ______ ____

>  <TORSDO>
F 3

$$$$
