=
 OpenBabel11122414033D

 28 32  0  0  1  0  0  0  0  0999 V2000
  160.9740  208.6030  155.7600 C   0  0  0  0  0  0  0  0  0  0  0  0
  157.2470  210.9480  156.5910 O   0  0  0  0  0  1  0  0  0  0  0  0
  162.1020  210.4920  150.6080 O   0  0  0  0  0  0  0  0  0  0  0  0
  162.1380  210.8130  157.0330 C   0  0  0  0  0  3  0  0  0  0  0  0
  160.1600  211.5390  151.4570 N   0  0  0  0  0  0  0  0  0  0  0  0
  160.4110  207.4040  155.0560 C   0  0  0  0  0  2  0  0  0  0  0  0
  158.6600  212.7290  156.6470 O   0  0  0  0  0  1  0  0  0  0  0  0
  157.8010  211.9850  155.8390 C   0  0  0  0  0  0  0  0  0  0  0  0
  156.8460  213.6050  154.1380 C   0  0  0  0  0  0  0  0  0  0  0  0
  158.5720  211.4210  154.6740 C   0  0  0  0  0  0  0  0  0  0  0  0
  162.6130  206.6900  152.1960 O   0  0  0  0  0  0  0  0  0  0  0  0
  159.7530  210.1100  153.1870 C   0  0  1  0  0  3  0  0  0  0  0  0
  158.0120  213.3810  153.2190 C   0  0  0  0  0  2  0  0  0  0  0  0
  156.7290  212.8580  155.3580 N   0  0  0  0  0  2  0  0  0  0  0  0
  161.6350  207.1830  152.8160 C   0  0  0  0  0  0  0  0  0  0  0  0
  160.4370  209.8950  155.5560 C   0  0  0  0  0  0  0  0  0  0  0  0
  161.1560  210.5210  151.4400 C   0  0  0  0  0  0  0  0  0  0  0  0
  155.9670  214.4530  153.8360 O   0  0  0  0  0  0  0  0  0  0  0  0
  160.7380  208.1410  152.0970 C   0  0  0  0  0  2  0  0  0  0  0  0
  161.0480  210.9940  156.1800 C   0  0  0  0  0  3  0  0  0  0  0  0
  162.0630  208.4330  156.6240 C   0  0  0  0  0  3  0  0  0  0  0  0
  162.6410  209.5320  157.2600 C   0  0  0  0  0  3  0  0  0  0  0  0
  161.4130  206.8060  154.1800 N   0  0  0  0  0  2  0  0  0  0  0  0
  159.3590  211.1980  152.5760 C   0  0  1  0  0  3  0  0  0  0  0  0
  161.0000  209.5550  152.5780 C   0  0  2  0  0  3  0  0  0  0  0  0
  158.6310  212.0450  153.4970 C   0  0  0  0  0  0  0  0  0  0  0  0
  160.3100  212.8690  150.8910 C   0  0  0  0  0  1  0  0  0  0  0  0
  159.2750  210.0790  154.6050 C   0  0  1  0  0  3  0  0  0  0  0  0
  1 21  1  0  0  0  0
  3 17  2  0  0  0  0
  4 22  1  0  0  0  0
  5 24  1  0  0  0  0
  6  1  1  0  0  0  0
  8  2  1  0  0  0  0
  8  7  1  0  0  0  0
  9 14  1  0  0  0  0
 10  8  1  0  0  0  0
 11 15  2  0  0  0  0
 12 28  1  0  0  0  0
 13 26  1  0  0  0  0
 13  9  1  0  0  0  0
 14  8  1  0  0  0  0
 15 23  1  0  0  0  0
 16  1  2  0  0  0  0
 16 20  1  0  0  0  0
 17  5  1  0  0  0  0
 17 25  1  0  0  0  0
 18  9  2  0  0  0  0
 19 25  1  0  0  0  0
 19 15  1  0  0  0  0
 20  4  2  0  0  0  0
 21 22  2  0  0  0  0
 23  6  1  0  0  0  0
 24 12  1  0  0  0  0
 24 26  1  0  0  0  0
 25 12  1  0  0  0  0
 26 10  2  0  0  0  0
 27  5  1  0  0  0  0
 28 10  1  0  0  0  0
 28 16  1  0  0  0  0
M  END
>  <MODEL>
1

>  <REMARK>
 VINA RESULT:      -5.7      0.000      0.000
  Name = 
  0 active torsions:
  status: ('A' for Active; 'I' for Inactive)
                            x       y       z     vdW  Elec       q    Type
                         _______ _______ _______ _____ _____    ______ ____

>  <TORSDO>
F 0

$$$$
=
 OpenBabel11122414033D

 28 32  0  0  1  0  0  0  0  0999 V2000
  160.9370  208.4210  155.7730 C   0  0  0  0  0  0  0  0  0  0  0  0
  157.9730  211.7450  155.2810 O   0  0  0  0  0  1  0  0  0  0  0  0
  162.9940  208.2630  150.5660 O   0  0  0  0  0  0  0  0  0  0  0  0
  162.5670  210.5630  156.5590 C   0  0  0  0  0  3  0  0  0  0  0  0
  161.3640  209.9660  150.7500 N   0  0  0  0  0  0  0  0  0  0  0  0
  160.1190  207.2380  155.3460 C   0  0  0  0  0  2  0  0  0  0  0  0
  159.8240  213.0510  155.0760 O   0  0  0  0  0  1  0  0  0  0  0  0
  158.8610  212.3250  154.3740 C   0  0  0  0  0  0  0  0  0  0  0  0
  158.5560  213.5130  152.1550 C   0  0  0  0  0  0  0  0  0  0  0  0
  159.5370  211.2540  153.5590 C   0  0  0  0  0  0  0  0  0  0  0  0
  162.2650  205.1480  153.2110 O   0  0  0  0  0  0  0  0  0  0  0  0
  160.4210  209.2960  152.7160 C   0  0  1  0  0  3  0  0  0  0  0  0
  159.6850  212.7330  151.5430 C   0  0  0  0  0  2  0  0  0  0  0  0
  158.1270  213.2390  153.4970 N   0  0  0  0  0  2  0  0  0  0  0  0
  161.4180  206.0330  153.4950 C   0  0  0  0  0  0  0  0  0  0  0  0
  160.8080  209.6740  155.1310 C   0  0  0  0  0  0  0  0  0  0  0  0
  162.0280  208.7820  151.1850 C   0  0  0  0  0  0  0  0  0  0  0  0
  157.9840  214.4110  151.4860 O   0  0  0  0  0  0  0  0  0  0  0  0
  160.8960  206.9070  152.3990 C   0  0  0  0  0  2  0  0  0  0  0  0
  161.6510  210.7280  155.5180 C   0  0  0  0  0  3  0  0  0  0  0  0
  161.8540  208.2690  156.8210 C   0  0  0  0  0  3  0  0  0  0  0  0
  162.6640  209.3350  157.2140 C   0  0  0  0  0  3  0  0  0  0  0  0
  160.9810  206.1690  154.8530 N   0  0  0  0  0  2  0  0  0  0  0  0
  160.4070  210.2000  151.7690 C   0  0  1  0  0  3  0  0  0  0  0  0
  161.5070  208.2900  152.5040 C   0  0  2  0  0  3  0  0  0  0  0  0
  159.8720  211.4440  152.2830 C   0  0  0  0  0  0  0  0  0  0  0  0
  161.9340  210.9710  149.8700 C   0  0  0  0  0  1  0  0  0  0  0  0
  159.8340  209.8290  153.9850 C   0  0  1  0  0  3  0  0  0  0  0  0
  1 21  1  0  0  0  0
  3 17  2  0  0  0  0
  4 22  1  0  0  0  0
  5 17  1  0  0  0  0
  5 24  1  0  0  0  0
  6  1  1  0  0  0  0
  8  7  1  0  0  0  0
  8  2  1  0  0  0  0
  9 14  1  0  0  0  0
 10 28  1  0  0  0  0
 10  8  1  0  0  0  0
 11 15  2  0  0  0  0
 12 28  1  0  0  0  0
 13  9  1  0  0  0  0
 13 26  1  0  0  0  0
 14  8  1  0  0  0  0
 15 23  1  0  0  0  0
 16 20  1  0  0  0  0
 16  1  2  0  0  0  0
 17 25  1  0  0  0  0
 18  9  2  0  0  0  0
 19 25  1  0  0  0  0
 19 15  1  0  0  0  0
 20  4  2  0  0  0  0
 21 22  2  0  0  0  0
 23  6  1  0  0  0  0
 24 26  1  0  0  0  0
 24 12  1  0  0  0  0
 25 12  1  0  0  0  0
 26 10  2  0  0  0  0
 27  5  1  0  0  0  0
 28 16  1  0  0  0  0
M  END
>  <MODEL>
2

>  <REMARK>
 VINA RESULT:      -5.5      1.416      1.711
  Name = 
  0 active torsions:
  status: ('A' for Active; 'I' for Inactive)
                            x       y       z     vdW  Elec       q    Type
                         _______ _______ _______ _____ _____    ______ ____

>  <TORSDO>
F 0

$$$$
=
 OpenBabel11122414033D

 28 32  0  0  1  0  0  0  0  0999 V2000
  159.7500  213.9480  149.5900 C   0  0  0  0  0  0  0  0  0  0  0  0
  159.4370  213.7230  154.0540 O   0  0  0  0  0  1  0  0  0  0  0  0
  161.9660  208.9030  148.5830 O   0  0  0  0  0  0  0  0  0  0  0  0
  157.1290  212.9710  149.7830 C   0  0  0  0  0  3  0  0  0  0  0  0
  161.5980  209.1870  150.9010 N   0  0  0  0  0  0  0  0  0  0  0  0
  161.1530  214.4530  149.4240 C   0  0  0  0  0  2  0  0  0  0  0  0
  157.8250  212.1750  153.6300 O   0  0  0  0  0  1  0  0  0  0  0  0
  159.1800  212.3600  153.9110 C   0  0  0  0  0  0  0  0  0  0  0  0
  159.9250  210.3020  155.1910 C   0  0  0  0  0  0  0  0  0  0  0  0
  160.0060  211.7970  152.7830 C   0  0  0  0  0  0  0  0  0  0  0  0
  162.6830  212.5270  146.6880 O   0  0  0  0  0  0  0  0  0  0  0  0
  161.3000  211.4490  150.9050 C   0  0  1  0  0  3  0  0  0  0  0  0
  160.2210  209.5710  153.9120 C   0  0  0  0  0  2  0  0  0  0  0  0
  159.5010  211.6730  155.1620 N   0  0  0  0  0  2  0  0  0  0  0  0
  162.3770  212.8230  147.8720 C   0  0  0  0  0  0  0  0  0  0  0  0
  159.4170  213.0270  150.6100 C   0  0  0  0  0  0  0  0  0  0  0  0
  161.7470  209.6610  149.5650 C   0  0  0  0  0  0  0  0  0  0  0  0
  160.0500  209.7080  156.2920 O   0  0  0  0  0  0  0  0  0  0  0  0
  162.7500  211.8760  148.9690 C   0  0  0  0  0  2  0  0  0  0  0  0
  158.1070  212.5270  150.6760 C   0  0  0  0  0  3  0  0  0  0  0  0
  158.7600  214.3920  148.7050 C   0  0  0  0  0  3  0  0  0  0  0  0
  157.4540  213.9090  148.8020 C   0  0  0  0  0  3  0  0  0  0  0  0
  161.6910  214.0550  148.1270 N   0  0  0  0  0  2  0  0  0  0  0  0
  161.3120  210.3640  151.6380 C   0  0  1  0  0  3  0  0  0  0  0  0
  161.5190  211.1400  149.4580 C   0  0  2  0  0  3  0  0  0  0  0  0
  160.4900  210.5550  152.8140 C   0  0  0  0  0  0  0  0  0  0  0  0
  161.2160  207.8360  151.2740 C   0  0  0  0  0  1  0  0  0  0  0  0
  160.4930  212.5320  151.5490 C   0  0  1  0  0  3  0  0  0  0  0  0
  1 16  1  0  0  0  0
  3 17  2  0  0  0  0
  4 20  1  0  0  0  0
  5 27  1  0  0  0  0
  5 24  1  0  0  0  0
  6  1  1  0  0  0  0
  7  8  1  0  0  0  0
  8  2  1  0  0  0  0
  8 14  1  0  0  0  0
  9 18  2  0  0  0  0
 10 26  2  0  0  0  0
 10  8  1  0  0  0  0
 11 15  2  0  0  0  0
 12 28  1  0  0  0  0
 12 24  1  0  0  0  0
 13  9  1  0  0  0  0
 14  9  1  0  0  0  0
 15 23  1  0  0  0  0
 15 19  1  0  0  0  0
 16 20  2  0  0  0  0
 16 28  1  0  0  0  0
 17  5  1  0  0  0  0
 19 25  1  0  0  0  0
 21 22  1  0  0  0  0
 21  1  2  0  0  0  0
 22  4  2  0  0  0  0
 23  6  1  0  0  0  0
 24 26  1  0  0  0  0
 25 17  1  0  0  0  0
 25 12  1  0  0  0  0
 26 13  1  0  0  0  0
 28 10  1  0  0  0  0
M  END
>  <MODEL>
3

>  <REMARK>
 VINA RESULT:      -3.7      2.523      5.994
  Name = 
  0 active torsions:
  status: ('A' for Active; 'I' for Inactive)
                            x       y       z     vdW  Elec       q    Type
                         _______ _______ _______ _____ _____    ______ ____

>  <TORSDO>
F 0

$$$$
=
 OpenBabel11122414033D

 28 32  0  0  1  0  0  0  0  0999 V2000
  159.8480  212.9110  151.3820 C   0  0  0  0  0  0  0  0  0  0  0  0
  160.8560  212.2010  155.6900 O   0  0  0  0  0  1  0  0  0  0  0  0
  161.2090  207.8940  149.2950 O   0  0  0  0  0  0  0  0  0  0  0  0
  157.3270  212.0690  152.2750 C   0  0  0  0  0  3  0  0  0  0  0  0
  161.5730  207.9350  151.6310 N   0  0  0  0  0  0  0  0  0  0  0  0
  161.1770  213.3510  150.8420 C   0  0  0  0  0  2  0  0  0  0  0  0
  159.0610  210.8050  155.6380 O   0  0  0  0  0  1  0  0  0  0  0  0
  160.4490  210.8790  155.5080 C   0  0  0  0  0  0  0  0  0  0  0  0
  161.3560  208.6500  156.3080 C   0  0  0  0  0  0  0  0  0  0  0  0
  160.8500  210.4010  154.1360 C   0  0  0  0  0  0  0  0  0  0  0  0
  161.6490  211.6620  147.6080 O   0  0  0  0  0  0  0  0  0  0  0  0
  161.4910  210.1950  151.9290 C   0  0  1  0  0  3  0  0  0  0  0  0
  161.1930  208.0540  154.9390 C   0  0  0  0  0  2  0  0  0  0  0  0
  161.0650  210.0380  156.5350 N   0  0  0  0  0  2  0  0  0  0  0  0
  161.7360  211.8390  148.8500 C   0  0  0  0  0  0  0  0  0  0  0  0
  159.7530  211.9010  152.3670 C   0  0  0  0  0  0  0  0  0  0  0  0
  161.3600  208.5470  150.3610 C   0  0  0  0  0  0  0  0  0  0  0  0
  161.7490  207.9300  157.2610 O   0  0  0  0  0  0  0  0  0  0  0  0
  162.3330  210.7550  149.6910 C   0  0  0  0  0  2  0  0  0  0  0  0
  158.4820  211.4720  152.7830 C   0  0  0  0  0  3  0  0  0  0  0  0
  158.6830  213.5080  150.8850 C   0  0  0  0  0  3  0  0  0  0  0  0
  157.4280  213.0920  151.3310 C   0  0  0  0  0  3  0  0  0  0  0  0
  161.2680  213.0710  149.4130 N   0  0  0  0  0  2  0  0  0  0  0  0
  161.6250  209.0350  152.5220 C   0  0  1  0  0  3  0  0  0  0  0  0
  161.2420  210.0390  150.4630 C   0  0  2  0  0  3  0  0  0  0  0  0
  161.2090  209.1380  153.9060 C   0  0  0  0  0  0  0  0  0  0  0  0
  161.2010  206.5740  151.9780 C   0  0  0  0  0  1  0  0  0  0  0  0
  161.0110  211.2420  152.8850 C   0  0  1  0  0  3  0  0  0  0  0  0
  1 16  1  0  0  0  0
  3 17  2  0  0  0  0
  4 20  1  0  0  0  0
  5 27  1  0  0  0  0
  5 24  1  0  0  0  0
  6  1  1  0  0  0  0
  8  7  1  0  0  0  0
  8  2  1  0  0  0  0
  8 14  1  0  0  0  0
  9 14  1  0  0  0  0
  9 18  2  0  0  0  0
 10  8  1  0  0  0  0
 11 15  2  0  0  0  0
 12 24  1  0  0  0  0
 12 28  1  0  0  0  0
 13  9  1  0  0  0  0
 15 23  1  0  0  0  0
 15 19  1  0  0  0  0
 16 20  2  0  0  0  0
 16 28  1  0  0  0  0
 17 25  1  0  0  0  0
 17  5  1  0  0  0  0
 19 25  1  0  0  0  0
 21 22  1  0  0  0  0
 21  1  2  0  0  0  0
 22  4  2  0  0  0  0
 23  6  1  0  0  0  0
 24 26  1  0  0  0  0
 25 12  1  0  0  0  0
 26 10  2  0  0  0  0
 26 13  1  0  0  0  0
 28 10  1  0  0  0  0
M  END
>  <MODEL>
4

>  <REMARK>
 VINA RESULT:      -3.0      2.273      5.459
  Name = 
  0 active torsions:
  status: ('A' for Active; 'I' for Inactive)
                            x       y       z     vdW  Elec       q    Type
                         _______ _______ _______ _____ _____    ______ ____

>  <TORSDO>
F 0

$$$$
