=
 OpenBabel11122413233D

 31 35  0  0  1  0  0  0  0  0999 V2000
  162.4330  213.5780  147.7210 C   0  0  0  0  0  0  0  0  0  0  0  0
  159.8600  214.2790  150.4310 C   0  0  2  0  0  3  0  0  0  0  0  0
  158.4270  214.1580  149.9540 C   0  0  0  0  0  0  0  0  0  0  0  0
  156.7920  214.0760  148.1570 C   0  0  0  0  0  0  0  0  0  0  0  0
  160.8380  213.5640  149.5440 C   0  0  0  0  0  0  0  0  0  0  0  0
  162.6400  212.2050  147.8910 C   0  0  0  0  0  3  0  0  0  0  0  0
  158.1190  214.1550  148.5840 C   0  0  0  0  0  3  0  0  0  0  0  0
  160.1610  212.2480  152.0690 C   0  0  1  0  0  3  0  0  0  0  0  0
  163.1030  214.2490  146.7550 F   0  0  0  0  0  0  0  0  0  0  0  0
  157.6470  214.1710  152.2660 O   0  0  0  0  0  0  0  0  0  0  0  0
  156.4800  214.0570  146.7040 C   0  0  0  0  0  1  0  0  0  0  0  0
  160.2740  211.4520  150.7580 C   0  0  0  0  0  2  0  0  0  0  0  0
  160.0190  213.7940  151.8900 C   0  0  2  0  0  3  0  0  0  0  0  0
  161.5300  214.2570  148.5450 C   0  0  0  0  0  3  0  0  0  0  0  0
  155.7580  214.0150  149.0940 C   0  0  0  0  0  3  0  0  0  0  0  0
  161.0550  212.1890  149.7200 C   0  0  0  0  0  0  0  0  0  0  0  0
  161.9480  211.5090  148.8870 C   0  0  0  0  0  3  0  0  0  0  0  0
  158.9530  214.4500  152.7720 C   0  0  0  0  0  2  0  0  0  0  0  0
  157.3760  214.1320  150.8940 C   0  0  0  0  0  0  0  0  0  0  0  0
  156.0490  214.0440  150.4600 C   0  0  0  0  0  3  0  0  0  0  0  0
  160.2160  211.9330  154.9200 O   0  0  0  0  0  0  0  0  0  0  0  0
  159.1920  211.5300  154.3050 C   0  0  0  0  0  0  0  0  0  0  0  0
  159.0930  211.6860  152.8870 N   0  0  0  0  0  2  0  0  0  0  0  0
  156.4700  212.8150  156.6140 C   0  0  1  0  0  3  0  0  0  0  0  0
  156.7040  211.3460  154.5960 C   0  0  0  0  0  2  0  0  0  0  0  0
  159.4990  210.6730  157.0270 O   0  0  0  0  0  1  0  0  0  0  0  0
  156.1450  214.2160  157.0870 C   0  0  0  0  0  1  0  0  0  0  0  0
  156.3810  212.7560  155.0930 C   0  0  0  0  0  2  0  0  0  0  0  0
  158.2170  211.0250  156.6030 C   0  0  2  0  0  3  0  0  0  0  0  0
  158.0820  210.8780  155.0770 C   0  0  2  0  0  3  0  0  0  0  0  0
  157.8740  212.4370  157.0740 C   0  0  0  0  0  2  0  0  0  0  0  0
  1  6  2  0  0  0  0
  1 14  1  0  0  0  0
  2  5  1  6  0  0  0
  2 13  1  0  0  0  0
  3  2  1  0  0  0  0
  3 19  1  0  0  0  0
  4  7  1  0  0  0  0
  4 15  2  0  0  0  0
  5 16  1  0  0  0  0
  6 17  1  0  0  0  0
  7  3  2  0  0  0  0
  8 23  1  6  0  0  0
  9  1  1  0  0  0  0
 10 18  1  0  0  0  0
 11  4  1  0  0  0  0
 12  8  1  0  0  0  0
 13  8  1  0  0  0  0
 13 18  1  1  0  0  0
 14  5  2  0  0  0  0
 15 20  1  0  0  0  0
 16 12  1  0  0  0  0
 17 16  2  0  0  0  0
 19 10  1  0  0  0  0
 20 19  2  0  0  0  0
 22 21  2  0  0  0  0
 23 22  1  0  0  0  0
 24 31  1  0  0  0  0
 24 27  1  6  0  0  0
 25 30  1  0  0  0  0
 25 28  1  0  0  0  0
 28 24  1  0  0  0  0
 29 26  1  6  0  0  0
 29 31  1  0  0  0  0
 30 22  1  6  0  0  0
 30 29  1  0  0  0  0
M  END
>  <MODEL>
1

>  <REMARK>
 VINA RESULT:      -3.8      0.000      0.000
  Name = 
  2 active torsions:
  status: ('A' for Active; 'I' for Inactive)
    1  A    between atoms: C_5  and  C_30
    2  A    between atoms: C_10  and  N_16
                            x       y       z     vdW  Elec       q    Type
                         _______ _______ _______ _____ _____    ______ ____

>  <TORSDO>
F 2

$$$$
=
 OpenBabel11122413233D

 31 35  0  0  1  0  0  0  0  0999 V2000
  162.1920  206.2100  146.7970 C   0  0  0  0  0  0  0  0  0  0  0  0
  162.6340  208.6890  149.6450 C   0  0  2  0  0  3  0  0  0  0  0  0
  161.9500  210.0190  149.4040 C   0  0  0  0  0  0  0  0  0  0  0  0
  160.9290  211.6350  147.9020 C   0  0  0  0  0  0  0  0  0  0  0  0
  162.0870  207.5820  148.7890 C   0  0  0  0  0  0  0  0  0  0  0  0
  161.0390  205.5300  147.2040 C   0  0  0  0  0  3  0  0  0  0  0  0
  161.5290  210.3930  148.1180 C   0  0  0  0  0  3  0  0  0  0  0  0
  161.2480  207.6020  151.5930 C   0  0  1  0  0  3  0  0  0  0  0  0
  162.8000  205.8750  145.6340 F   0  0  0  0  0  0  0  0  0  0  0  0
  162.2470  210.6070  151.7530 O   0  0  0  0  0  0  0  0  0  0  0  0
  160.4730  212.0140  146.5390 C   0  0  0  0  0  1  0  0  0  0  0  0
  160.2500  207.3040  150.4620 C   0  0  0  0  0  2  0  0  0  0  0  0
  162.5790  208.2800  151.1350 C   0  0  2  0  0  3  0  0  0  0  0  0
  162.7150  207.2370  147.5880 C   0  0  0  0  0  3  0  0  0  0  0  0
  160.7560  212.5230  148.9670 C   0  0  0  0  0  3  0  0  0  0  0  0
  160.9380  206.8930  149.2010 C   0  0  0  0  0  0  0  0  0  0  0  0
  160.4080  205.8750  148.4040 C   0  0  0  0  0  3  0  0  0  0  0  0
  163.0410  209.4490  152.0090 C   0  0  0  0  0  2  0  0  0  0  0  0
  161.8040  210.9350  150.4670 C   0  0  0  0  0  0  0  0  0  0  0  0
  161.1950  212.1740  150.2470 C   0  0  0  0  0  3  0  0  0  0  0  0
  161.4100  207.0680  154.4080 O   0  0  0  0  0  0  0  0  0  0  0  0
  160.6770  208.0220  154.0330 C   0  0  0  0  0  0  0  0  0  0  0  0
  160.5780  208.3560  152.6460 N   0  0  0  0  0  2  0  0  0  0  0  0
  161.6370  210.4340  156.7990 C   0  0  1  0  0  3  0  0  0  0  0  0
  160.0530  210.3100  154.8590 C   0  0  0  0  0  2  0  0  0  0  0  0
  160.1560  207.0100  156.6680 O   0  0  0  0  0  1  0  0  0  0  0  0
  162.9890  210.9390  157.2550 C   0  0  0  0  0  1  0  0  0  0  0  0
  161.4170  210.8100  155.3370 C   0  0  0  0  0  2  0  0  0  0  0  0
  160.2170  208.3950  156.5100 C   0  0  2  0  0  3  0  0  0  0  0  0
  159.9030  208.7980  155.0580 C   0  0  2  0  0  3  0  0  0  0  0  0
  161.5770  208.9190  156.9670 C   0  0  0  0  0  2  0  0  0  0  0  0
  1  6  2  0  0  0  0
  1 14  1  0  0  0  0
  2  5  1  6  0  0  0
  2 13  1  0  0  0  0
  3  2  1  0  0  0  0
  3 19  1  0  0  0  0
  4  7  1  0  0  0  0
  4 15  2  0  0  0  0
  5 16  1  0  0  0  0
  6 17  1  0  0  0  0
  7  3  2  0  0  0  0
  8 23  1  1  0  0  0
  9  1  1  0  0  0  0
 10 18  1  0  0  0  0
 11  4  1  0  0  0  0
 12  8  1  0  0  0  0
 13  8  1  0  0  0  0
 13 18  1  1  0  0  0
 14  5  2  0  0  0  0
 15 20  1  0  0  0  0
 16 12  1  0  0  0  0
 17 16  2  0  0  0  0
 19 10  1  0  0  0  0
 20 19  2  0  0  0  0
 22 21  2  0  0  0  0
 23 22  1  0  0  0  0
 24 31  1  0  0  0  0
 24 27  1  6  0  0  0
 25 30  1  0  0  0  0
 25 28  1  0  0  0  0
 28 24  1  0  0  0  0
 29 26  1  6  0  0  0
 29 31  1  0  0  0  0
 30 22  1  6  0  0  0
 30 29  1  0  0  0  0
M  END
>  <MODEL>
2

>  <REMARK>
 VINA RESULT:      -3.8      3.954      5.536
  Name = 
  2 active torsions:
  status: ('A' for Active; 'I' for Inactive)
    1  A    between atoms: C_5  and  C_30
    2  A    between atoms: C_10  and  N_16
                            x       y       z     vdW  Elec       q    Type
                         _______ _______ _______ _____ _____    ______ ____

>  <TORSDO>
F 2

$$$$
=
 OpenBabel11122413233D

 31 35  0  0  1  0  0  0  0  0999 V2000
  161.2370  201.2850  149.2310 C   0  0  0  0  0  0  0  0  0  0  0  0
  162.2920  204.8740  149.9090 C   0  0  2  0  0  3  0  0  0  0  0  0
  161.7660  205.8640  148.8890 C   0  0  0  0  0  0  0  0  0  0  0  0
  160.8150  206.3540  146.7070 C   0  0  0  0  0  0  0  0  0  0  0  0
  161.5200  203.5850  149.9310 C   0  0  0  0  0  0  0  0  0  0  0  0
  160.0530  201.2040  149.9720 C   0  0  0  0  0  3  0  0  0  0  0  0
  161.2670  205.4300  147.6510 C   0  0  0  0  0  3  0  0  0  0  0  0
  160.9850  205.4670  152.1080 C   0  0  1  0  0  3  0  0  0  0  0  0
  161.6720  200.2090  148.5320 F   0  0  0  0  0  0  0  0  0  0  0  0
  162.3790  207.7140  150.3580 O   0  0  0  0  0  0  0  0  0  0  0  0
  160.2750  205.8820  145.4050 C   0  0  0  0  0  1  0  0  0  0  0  0
  159.8450  204.7070  151.4100 C   0  0  0  0  0  2  0  0  0  0  0  0
  162.3380  205.4850  151.3270 C   0  0  2  0  0  3  0  0  0  0  0  0
  161.9690  202.4750  149.2080 C   0  0  0  0  0  3  0  0  0  0  0  0
  160.8720  207.7220  146.9840 C   0  0  0  0  0  3  0  0  0  0  0  0
  160.3380  203.5000  150.6820 C   0  0  0  0  0  0  0  0  0  0  0  0
  159.6010  202.3130  150.6940 C   0  0  0  0  0  3  0  0  0  0  0  0
  163.0380  206.8460  151.2810 C   0  0  0  0  0  2  0  0  0  0  0  0
  161.8530  207.2480  149.1490 C   0  0  0  0  0  0  0  0  0  0  0  0
  161.3910  208.1680  148.2030 C   0  0  0  0  0  3  0  0  0  0  0  0
  161.5650  206.8510  154.5540 O   0  0  0  0  0  0  0  0  0  0  0  0
  160.8320  207.4330  153.7090 C   0  0  0  0  0  0  0  0  0  0  0  0
  160.5310  206.8070  152.4600 N   0  0  0  0  0  2  0  0  0  0  0  0
  162.1380  210.4420  155.6160 C   0  0  1  0  0  3  0  0  0  0  0  0
  161.0980  209.9110  153.3970 C   0  0  0  0  0  2  0  0  0  0  0  0
  159.3900  207.9690  156.1320 O   0  0  0  0  0  1  0  0  0  0  0  0
  163.4480  210.6700  156.3390 C   0  0  0  0  0  1  0  0  0  0  0  0
  162.4120  210.1420  154.1460 C   0  0  0  0  0  2  0  0  0  0  0  0
  160.0730  209.0330  155.5410 C   0  0  2  0  0  3  0  0  0  0  0  0
  160.2740  208.7880  154.0340 C   0  0  2  0  0  3  0  0  0  0  0  0
  161.3980  209.2750  156.2620 C   0  0  0  0  0  2  0  0  0  0  0  0
  1  6  1  0  0  0  0
  2  3  1  6  0  0  0
  2  5  1  0  0  0  0
  2 13  1  0  0  0  0
  3 19  1  0  0  0  0
  4 15  2  0  0  0  0
  4  7  1  0  0  0  0
  5 16  2  0  0  0  0
  6 17  2  0  0  0  0
  7  3  2  0  0  0  0
  8 23  1  6  0  0  0
  9  1  1  0  0  0  0
 10 18  1  0  0  0  0
 11  4  1  0  0  0  0
 12  8  1  0  0  0  0
 13 18  1  6  0  0  0
 13  8  1  0  0  0  0
 14  1  2  0  0  0  0
 14  5  1  0  0  0  0
 15 20  1  0  0  0  0
 16 17  1  0  0  0  0
 16 12  1  0  0  0  0
 19 10  1  0  0  0  0
 20 19  2  0  0  0  0
 22 21  2  0  0  0  0
 23 22  1  0  0  0  0
 24 31  1  0  0  0  0
 24 27  1  1  0  0  0
 25 30  1  0  0  0  0
 25 28  1  0  0  0  0
 28 24  1  0  0  0  0
 29 26  1  1  0  0  0
 29 31  1  0  0  0  0
 30 22  1  1  0  0  0
 30 29  1  0  0  0  0
M  END
>  <MODEL>
3

>  <REMARK>
 VINA RESULT:      -3.5      6.500      8.307
  Name = 
  2 active torsions:
  status: ('A' for Active; 'I' for Inactive)
    1  A    between atoms: C_5  and  C_30
    2  A    between atoms: C_10  and  N_16
                            x       y       z     vdW  Elec       q    Type
                         _______ _______ _______ _____ _____    ______ ____

>  <TORSDO>
F 2

$$$$
=
 OpenBabel11122413233D

 31 35  0  0  1  0  0  0  0  0999 V2000
  161.2630  205.0290  144.5020 C   0  0  0  0  0  0  0  0  0  0  0  0
  160.2680  205.1450  148.1690 C   0  0  2  0  0  3  0  0  0  0  0  0
  160.6260  203.8870  148.9350 C   0  0  0  0  0  0  0  0  0  0  0  0
  161.2410  201.5360  148.9800 C   0  0  0  0  0  0  0  0  0  0  0  0
  161.0530  205.3030  146.8990 C   0  0  0  0  0  0  0  0  0  0  0  0
  162.5440  205.5910  144.5490 C   0  0  0  0  0  3  0  0  0  0  0  0
  160.9450  202.6970  148.2630 C   0  0  0  0  0  3  0  0  0  0  0  0
  161.8730  206.9730  149.1580 C   0  0  1  0  0  3  0  0  0  0  0  0
  160.7460  204.6220  143.3180 F   0  0  0  0  0  0  0  0  0  0  0  0
  160.2070  205.0430  151.0430 O   0  0  0  0  0  0  0  0  0  0  0  0
  161.5920  200.2860  148.2570 C   0  0  0  0  0  1  0  0  0  0  0  0
  162.9100  206.2770  148.2610 C   0  0  0  0  0  2  0  0  0  0  0  0
  160.4210  206.4090  149.0440 C   0  0  2  0  0  3  0  0  0  0  0  0
  160.5190  204.8820  145.6760 C   0  0  0  0  0  3  0  0  0  0  0  0
  161.2060  201.5490  150.3760 C   0  0  0  0  0  3  0  0  0  0  0  0
  162.3330  205.8760  146.9430 C   0  0  0  0  0  0  0  0  0  0  0  0
  163.0810  206.0100  145.7700 C   0  0  0  0  0  3  0  0  0  0  0  0
  159.7030  206.2030  150.3810 C   0  0  0  0  0  2  0  0  0  0  0  0
  160.5580  203.8830  150.3440 C   0  0  0  0  0  0  0  0  0  0  0  0
  160.8640  202.7200  151.0570 C   0  0  0  0  0  3  0  0  0  0  0  0
  160.9940  208.7560  151.2270 O   0  0  0  0  0  0  0  0  0  0  0  0
  161.8940  207.9220  151.5150 C   0  0  0  0  0  0  0  0  0  0  0  0
  162.3540  206.9880  150.5350 N   0  0  0  0  0  2  0  0  0  0  0  0
  160.4560  207.5350  155.0040 C   0  0  1  0  0  3  0  0  0  0  0  0
  162.2980  206.5780  153.5970 C   0  0  0  0  0  2  0  0  0  0  0  0
  162.0870  210.3040  153.1040 O   0  0  0  0  0  1  0  0  0  0  0  0
  159.0330  207.3290  155.4770 C   0  0  0  0  0  1  0  0  0  0  0  0
  160.8610  206.3880  154.0840 C   0  0  0  0  0  2  0  0  0  0  0  0
  161.9890  209.0860  153.7780 C   0  0  2  0  0  3  0  0  0  0  0  0
  162.4840  207.9270  152.8950 C   0  0  2  0  0  3  0  0  0  0  0  0
  160.5570  208.8640  154.2620 C   0  0  0  0  0  2  0  0  0  0  0  0
  1  6  2  0  0  0  0
  1 14  1  0  0  0  0
  2  5  1  6  0  0  0
  2  3  1  0  0  0  0
  2 13  1  0  0  0  0
  3 19  1  0  0  0  0
  4 15  2  0  0  0  0
  5 16  1  0  0  0  0
  6 17  1  0  0  0  0
  7  3  2  0  0  0  0
  7  4  1  0  0  0  0
  8 23  1  1  0  0  0
  9  1  1  0  0  0  0
 11  4  1  0  0  0  0
 12  8  1  0  0  0  0
 13  8  1  0  0  0  0
 13 18  1  1  0  0  0
 14  5  2  0  0  0  0
 15 20  1  0  0  0  0
 16 12  1  0  0  0  0
 17 16  2  0  0  0  0
 18 10  1  0  0  0  0
 19 10  1  0  0  0  0
 19 20  2  0  0  0  0
 21 22  2  0  0  0  0
 23 22  1  0  0  0  0
 24 27  1  6  0  0  0
 25 28  1  0  0  0  0
 28 24  1  0  0  0  0
 29 26  1  6  0  0  0
 29 31  1  0  0  0  0
 30 22  1  6  0  0  0
 30 25  1  0  0  0  0
 30 29  1  0  0  0  0
 31 24  1  0  0  0  0
M  END
>  <MODEL>
4

>  <REMARK>
 VINA RESULT:      -3.1      6.815      8.855
  Name = 
  2 active torsions:
  status: ('A' for Active; 'I' for Inactive)
    1  A    between atoms: C_5  and  C_30
    2  A    between atoms: C_10  and  N_16
                            x       y       z     vdW  Elec       q    Type
                         _______ _______ _______ _____ _____    ______ ____

>  <TORSDO>
F 2

$$$$
=
 OpenBabel11122413233D

 31 35  0  0  1  0  0  0  0  0999 V2000
  161.5610  202.9580  145.6840 C   0  0  0  0  0  0  0  0  0  0  0  0
  160.4560  205.1880  148.5570 C   0  0  2  0  0  3  0  0  0  0  0  0
  160.9370  204.7140  149.9140 C   0  0  0  0  0  0  0  0  0  0  0  0
  161.8230  202.9700  151.3570 C   0  0  0  0  0  0  0  0  0  0  0  0
  161.2520  204.6190  147.4180 C   0  0  0  0  0  0  0  0  0  0  0  0
  162.7640  203.5670  145.3130 C   0  0  0  0  0  3  0  0  0  0  0  0
  161.4130  203.4060  150.0950 C   0  0  0  0  0  3  0  0  0  0  0  0
  161.8060  207.4010  148.1380 C   0  0  1  0  0  3  0  0  0  0  0  0
  161.1290  201.8560  145.0240 F   0  0  0  0  0  0  0  0  0  0  0  0
  160.3260  206.8650  150.8910 O   0  0  0  0  0  0  0  0  0  0  0  0
  162.3390  201.5870  151.5340 C   0  0  0  0  0  1  0  0  0  0  0  0
  162.9420  206.4200  147.8050 C   0  0  0  0  0  2  0  0  0  0  0  0
  160.4330  206.7300  148.4670 C   0  0  2  0  0  3  0  0  0  0  0  0
  160.8060  203.4810  146.7370 C   0  0  0  0  0  3  0  0  0  0  0  0
  161.7470  203.8320  152.4530 C   0  0  0  0  0  3  0  0  0  0  0  0
  162.4540  205.2350  147.0390 C   0  0  0  0  0  0  0  0  0  0  0  0
  163.2140  204.7030  145.9930 C   0  0  0  0  0  3  0  0  0  0  0  0
  159.7070  207.3100  149.6830 C   0  0  0  0  0  2  0  0  0  0  0  0
  160.8300  205.5670  151.0320 C   0  0  0  0  0  0  0  0  0  0  0  0
  161.2500  205.1290  152.2910 C   0  0  0  0  0  3  0  0  0  0  0  0
  161.2670  210.2160  148.2600 O   0  0  0  0  0  0  0  0  0  0  0  0
  161.9640  209.7120  149.1810 C   0  0  0  0  0  0  0  0  0  0  0  0
  162.2420  208.3100  149.1920 N   0  0  0  0  0  2  0  0  0  0  0  0
  160.4550  211.3660  152.2440 C   0  0  1  0  0  3  0  0  0  0  0  0
  162.4250  209.9370  151.6400 C   0  0  0  0  0  2  0  0  0  0  0  0
  161.8780  212.5760  149.0120 O   0  0  0  0  0  1  0  0  0  0  0  0
  159.0430  211.3510  152.7900 C   0  0  0  0  0  1  0  0  0  0  0  0
  160.9960  209.9410  152.1870 C   0  0  0  0  0  2  0  0  0  0  0  0
  161.8730  212.0060  150.2860 C   0  0  2  0  0  3  0  0  0  0  0  0
  162.5050  210.6030  150.2620 C   0  0  2  0  0  3  0  0  0  0  0  0
  160.4540  211.9840  150.8500 C   0  0  0  0  0  2  0  0  0  0  0  0
  1 14  1  0  0  0  0
  2  5  1  6  0  0  0
  2  3  1  0  0  0  0
  3  7  2  0  0  0  0
  3 19  1  0  0  0  0
  4 11  1  0  0  0  0
  4 15  2  0  0  0  0
  6  1  2  0  0  0  0
  6 17  1  0  0  0  0
  7  4  1  0  0  0  0
  8 13  1  0  0  0  0
  8 23  1  1  0  0  0
  9  1  1  0  0  0  0
 10 19  1  0  0  0  0
 12  8  1  0  0  0  0
 13  2  1  0  0  0  0
 13 18  1  1  0  0  0
 14  5  2  0  0  0  0
 16  5  1  0  0  0  0
 16 12  1  0  0  0  0
 17 16  2  0  0  0  0
 18 10  1  0  0  0  0
 19 20  2  0  0  0  0
 20 15  1  0  0  0  0
 21 22  2  0  0  0  0
 22 23  1  0  0  0  0
 24 27  1  6  0  0  0
 25 28  1  0  0  0  0
 28 24  1  0  0  0  0
 29 26  1  6  0  0  0
 29 31  1  0  0  0  0
 30 22  1  6  0  0  0
 30 29  1  0  0  0  0
 30 25  1  0  0  0  0
 31 24  1  0  0  0  0
M  END
>  <MODEL>
5

>  <REMARK>
 VINA RESULT:      -1.3      6.425      8.917
  Name = 
  2 active torsions:
  status: ('A' for Active; 'I' for Inactive)
    1  A    between atoms: C_5  and  C_30
    2  A    between atoms: C_10  and  N_16
                            x       y       z     vdW  Elec       q    Type
                         _______ _______ _______ _____ _____    ______ ____

>  <TORSDO>
F 2

$$$$
=
 OpenBabel11122413233D

 31 35  0  0  1  0  0  0  0  0999 V2000
  162.2730  208.2560  150.5230 C   0  0  0  0  0  0  0  0  0  0  0  0
  161.5230  210.8430  153.2060 C   0  0  2  0  0  3  0  0  0  0  0  0
  160.4700  211.8530  152.7980 C   0  0  0  0  0  0  0  0  0  0  0  0
  159.1580  212.9720  151.0840 C   0  0  0  0  0  0  0  0  0  0  0  0
  161.4810  209.5850  152.3850 C   0  0  0  0  0  0  0  0  0  0  0  0
  161.3700  207.2420  150.8620 C   0  0  0  0  0  3  0  0  0  0  0  0
  160.1060  212.0140  151.4520 C   0  0  0  0  0  3  0  0  0  0  0  0
  160.3540  209.4240  155.0820 C   0  0  1  0  0  3  0  0  0  0  0  0
  163.0920  208.1040  149.4550 F   0  0  0  0  0  0  0  0  0  0  0  0
  160.2720  212.5940  155.1150 O   0  0  0  0  0  0  0  0  0  0  0  0
  158.7700  213.1230  149.6580 C   0  0  0  0  0  1  0  0  0  0  0  0
  159.6540  208.7640  153.8820 C   0  0  0  0  0  2  0  0  0  0  0  0
  161.4290  210.4950  154.7090 C   0  0  2  0  0  3  0  0  0  0  0  0
  162.3270  209.4290  151.2820 C   0  0  0  0  0  3  0  0  0  0  0  0
  158.5750  213.7880  152.0570 C   0  0  0  0  0  3  0  0  0  0  0  0
  160.5840  208.5640  152.7310 C   0  0  0  0  0  0  0  0  0  0  0  0
  160.5220  207.3970  151.9630 C   0  0  0  0  0  3  0  0  0  0  0  0
  161.3690  211.7830  155.5350 C   0  0  0  0  0  2  0  0  0  0  0  0
  159.9030  212.7040  153.7700 C   0  0  0  0  0  0  0  0  0  0  0  0
  158.9480  213.6550  153.3970 C   0  0  0  0  0  3  0  0  0  0  0  0
  157.8120  210.5320  154.3460 O   0  0  0  0  0  0  0  0  0  0  0  0
  158.1110  210.5120  155.5710 C   0  0  0  0  0  0  0  0  0  0  0  0
  159.3500  209.9460  156.0020 N   0  0  0  0  0  2  0  0  0  0  0  0
  155.5840  213.3390  155.4670 C   0  0  1  0  0  3  0  0  0  0  0  0
  155.6960  210.9220  156.1260 C   0  0  0  0  0  2  0  0  0  0  0  0
  158.7990  212.7270  157.2610 O   0  0  0  0  0  1  0  0  0  0  0  0
  155.2060  214.2970  154.3570 C   0  0  0  0  0  1  0  0  0  0  0  0
  155.3230  211.9050  155.0160 C   0  0  0  0  0  2  0  0  0  0  0  0
  157.4530  212.5600  156.9350 C   0  0  2  0  0  3  0  0  0  0  0  0
  157.1530  211.0950  156.5690 C   0  0  2  0  0  3  0  0  0  0  0  0
  157.0570  213.5210  155.8150 C   0  0  0  0  0  2  0  0  0  0  0  0
  1  6  2  0  0  0  0
  1 14  1  0  0  0  0
  2  5  1  6  0  0  0
  2 13  1  0  0  0  0
  3  2  1  0  0  0  0
  3 19  1  0  0  0  0
  4  7  1  0  0  0  0
  4 15  2  0  0  0  0
  5 16  1  0  0  0  0
  6 17  1  0  0  0  0
  7  3  2  0  0  0  0
  8 23  1  1  0  0  0
  9  1  1  0  0  0  0
 10 18  1  0  0  0  0
 11  4  1  0  0  0  0
 12  8  1  0  0  0  0
 13  8  1  0  0  0  0
 13 18  1  1  0  0  0
 14  5  2  0  0  0  0
 15 20  1  0  0  0  0
 16 12  1  0  0  0  0
 17 16  2  0  0  0  0
 19 10  1  0  0  0  0
 20 19  2  0  0  0  0
 21 22  2  0  0  0  0
 22 23  1  0  0  0  0
 24 27  1  6  0  0  0
 24 31  1  0  0  0  0
 25 30  1  0  0  0  0
 28 24  1  0  0  0  0
 28 25  1  0  0  0  0
 29 26  1  6  0  0  0
 30 22  1  6  0  0  0
 30 29  1  0  0  0  0
 31 29  1  0  0  0  0
M  END
>  <MODEL>
6

>  <REMARK>
 VINA RESULT:      -1.3      2.615      4.052
  Name = 
  2 active torsions:
  status: ('A' for Active; 'I' for Inactive)
    1  A    between atoms: C_5  and  C_30
    2  A    between atoms: C_10  and  N_16
                            x       y       z     vdW  Elec       q    Type
                         _______ _______ _______ _____ _____    ______ ____

>  <TORSDO>
F 2

$$$$
=
 OpenBabel11122413233D

 31 35  0  0  1  0  0  0  0  0999 V2000
  162.5170  211.9010  148.6580 C   0  0  0  0  0  0  0  0  0  0  0  0
  162.6120  208.9300  151.0270 C   0  0  2  0  0  3  0  0  0  0  0  0
  161.5540  208.9840  152.1120 C   0  0  0  0  0  0  0  0  0  0  0  0
  159.9310  210.2260  153.4290 C   0  0  0  0  0  0  0  0  0  0  0  0
  162.2920  209.8050  149.8500 C   0  0  0  0  0  0  0  0  0  0  0  0
  161.6660  211.4230  147.6560 C   0  0  0  0  0  3  0  0  0  0  0  0
  160.8810  210.1800  152.4050 C   0  0  0  0  0  3  0  0  0  0  0  0
  161.8570  206.9320  149.4990 C   0  0  1  0  0  3  0  0  0  0  0  0
  163.0370  213.1490  148.5660 F   0  0  0  0  0  0  0  0  0  0  0  0
  161.9790  206.6430  152.6540 O   0  0  0  0  0  0  0  0  0  0  0  0
  159.2130  211.4940  153.7200 C   0  0  0  0  0  1  0  0  0  0  0  0
  160.8440  207.9640  148.9750 C   0  0  0  0  0  2  0  0  0  0  0  0
  162.8700  207.4820  150.5540 C   0  0  2  0  0  3  0  0  0  0  0  0
  162.8280  211.0940  149.7560 C   0  0  0  0  0  3  0  0  0  0  0  0
  159.6570  209.0800  154.1790 C   0  0  0  0  0  3  0  0  0  0  0  0
  161.4480  209.3240  148.8390 C   0  0  0  0  0  0  0  0  0  0  0  0
  161.1270  210.1370  147.7480 C   0  0  0  0  0  3  0  0  0  0  0  0
  163.0950  206.5740  151.7650 C   0  0  0  0  0  2  0  0  0  0  0  0
  161.2980  207.8410  152.8970 C   0  0  0  0  0  0  0  0  0  0  0  0
  160.3400  207.8900  153.9150 C   0  0  0  0  0  3  0  0  0  0  0  0
  161.3470  204.5470  147.9880 O   0  0  0  0  0  0  0  0  0  0  0  0
  160.8990  204.6030  149.1650 C   0  0  0  0  0  0  0  0  0  0  0  0
  161.1450  205.7530  149.9780 N   0  0  0  0  0  2  0  0  0  0  0  0
  161.6860  201.6580  151.4220 C   0  0  1  0  0  3  0  0  0  0  0  0
  159.9900  203.4950  151.2270 C   0  0  0  0  0  2  0  0  0  0  0  0
  160.7570  202.0660  147.8300 O   0  0  0  0  0  1  0  0  0  0  0  0
  162.9740  201.2370  152.0970 C   0  0  0  0  0  1  0  0  0  0  0  0
  161.2930  203.0540  151.8970 C   0  0  0  0  0  2  0  0  0  0  0  0
  160.5860  202.0760  149.2150 C   0  0  2  0  0  3  0  0  0  0  0  0
  160.0970  203.4520  149.6990 C   0  0  2  0  0  3  0  0  0  0  0  0
  161.8790  201.6520  149.9100 C   0  0  0  0  0  2  0  0  0  0  0  0
  1 14  1  0  0  0  0
  2  5  1  6  0  0  0
  2  3  1  0  0  0  0
  3  7  2  0  0  0  0
  3 19  1  0  0  0  0
  4 11  1  0  0  0  0
  4 15  2  0  0  0  0
  6 17  1  0  0  0  0
  6  1  2  0  0  0  0
  7  4  1  0  0  0  0
  8 23  1  1  0  0  0
  8 13  1  0  0  0  0
  9  1  1  0  0  0  0
 10 19  1  0  0  0  0
 12  8  1  0  0  0  0
 13  2  1  0  0  0  0
 13 18  1  1  0  0  0
 14  5  2  0  0  0  0
 16 12  1  0  0  0  0
 16  5  1  0  0  0  0
 17 16  2  0  0  0  0
 18 10  1  0  0  0  0
 19 20  2  0  0  0  0
 20 15  1  0  0  0  0
 21 22  2  0  0  0  0
 22 23  1  0  0  0  0
 24 28  1  0  0  0  0
 24 27  1  1  0  0  0
 25 28  1  0  0  0  0
 29 26  1  6  0  0  0
 29 30  1  0  0  0  0
 29 31  1  0  0  0  0
 30 22  1  1  0  0  0
 30 25  1  0  0  0  0
 31 24  1  0  0  0  0
M  END
>  <MODEL>
7

>  <REMARK>
 VINA RESULT:      -1.0      6.129      8.362
  Name = 
  2 active torsions:
  status: ('A' for Active; 'I' for Inactive)
    1  A    between atoms: C_5  and  C_30
    2  A    between atoms: C_10  and  N_16
                            x       y       z     vdW  Elec       q    Type
                         _______ _______ _______ _____ _____    ______ ____

>  <TORSDO>
F 2

$$$$
=
 OpenBabel11122413233D

 31 35  0  0  1  0  0  0  0  0999 V2000
  159.5860  213.5790  145.8680 C   0  0  0  0  0  0  0  0  0  0  0  0
  160.0140  214.3220  142.1650 C   0  0  2  0  0  3  0  0  0  0  0  0
  161.4580  214.3070  141.7050 C   0  0  0  0  0  0  0  0  0  0  0  0
  163.8380  214.3950  142.1930 C   0  0  0  0  0  0  0  0  0  0  0  0
  159.8000  213.5870  143.4570 C   0  0  0  0  0  0  0  0  0  0  0  0
  159.4180  212.1900  145.8500 C   0  0  0  0  0  3  0  0  0  0  0  0
  162.5110  214.3770  142.6300 C   0  0  0  0  0  3  0  0  0  0  0  0
  158.9540  212.2130  141.0140 C   0  0  1  0  0  3  0  0  0  0  0  0
  159.5660  214.2470  147.0470 F   0  0  0  0  0  0  0  0  0  0  0  0
  160.7250  214.2740  139.3780 O   0  0  0  0  0  0  0  0  0  0  0  0
  164.9450  214.4530  143.1820 C   0  0  0  0  0  1  0  0  0  0  0  0
  159.6910  211.4650  142.1370 C   0  0  0  0  0  2  0  0  0  0  0  0
  159.0630  213.7710  141.0790 C   0  0  2  0  0  3  0  0  0  0  0  0
  159.7800  214.2770  144.6730 C   0  0  0  0  0  3  0  0  0  0  0  0
  164.1230  214.3580  140.8260 C   0  0  0  0  0  3  0  0  0  0  0  0
  159.6200  212.1960  143.4380 C   0  0  0  0  0  0  0  0  0  0  0  0
  159.4390  211.4970  144.6350 C   0  0  0  0  0  3  0  0  0  0  0  0
  159.3550  214.4530  139.7400 C   0  0  0  0  0  2  0  0  0  0  0  0
  161.7530  214.3060  140.3260 C   0  0  0  0  0  0  0  0  0  0  0  0
  163.0830  214.3150  139.8940 C   0  0  0  0  0  3  0  0  0  0  0  0
  157.2330  211.6530  138.7880 O   0  0  0  0  0  0  0  0  0  0  0  0
  158.4610  211.3990  138.6580 C   0  0  0  0  0  0  0  0  0  0  0  0
  159.3740  211.6840  139.7210 N   0  0  0  0  0  2  0  0  0  0  0  0
  161.0210  208.7290  137.8180 C   0  0  1  0  0  3  0  0  0  0  0  0
  158.6320  209.2920  137.3030 C   0  0  0  0  0  2  0  0  0  0  0  0
  160.7450  212.4070  137.2420 O   0  0  0  0  0  1  0  0  0  0  0  0
  161.9280  207.9050  138.7050 C   0  0  0  0  0  1  0  0  0  0  0  0
  159.5650  208.4690  138.1930 C   0  0  0  0  0  2  0  0  0  0  0  0
  160.4420  211.0520  137.0950 C   0  0  2  0  0  3  0  0  0  0  0  0
  158.9520  210.7880  137.3780 C   0  0  2  0  0  3  0  0  0  0  0  0
  161.3510  210.2080  137.9860 C   0  0  0  0  0  2  0  0  0  0  0  0
  1  9  1  0  0  0  0
  2  3  1  6  0  0  0
  2  5  1  0  0  0  0
  3  7  1  0  0  0  0
  4  7  2  0  0  0  0
  4 11  1  0  0  0  0
  5 14  1  0  0  0  0
  6  1  1  0  0  0  0
  8 23  1  6  0  0  0
  8 13  1  0  0  0  0
  8 12  1  0  0  0  0
 10 18  1  0  0  0  0
 10 19  1  0  0  0  0
 12 16  1  0  0  0  0
 13 18  1  6  0  0  0
 13  2  1  0  0  0  0
 14  1  2  0  0  0  0
 15  4  1  0  0  0  0
 16  5  2  0  0  0  0
 16 17  1  0  0  0  0
 17  6  2  0  0  0  0
 19  3  2  0  0  0  0
 20 19  1  0  0  0  0
 20 15  2  0  0  0  0
 22 21  2  0  0  0  0
 22 23  1  0  0  0  0
 24 31  1  0  0  0  0
 24 28  1  0  0  0  0
 24 27  1  1  0  0  0
 25 30  1  0  0  0  0
 25 28  1  0  0  0  0
 29 26  1  1  0  0  0
 29 30  1  0  0  0  0
 29 31  1  0  0  0  0
 30 22  1  1  0  0  0
M  END
>  <MODEL>
8

>  <REMARK>
 VINA RESULT:      -0.8      8.505     12.965
  Name = 
  2 active torsions:
  status: ('A' for Active; 'I' for Inactive)
    1  A    between atoms: C_5  and  C_30
    2  A    between atoms: C_10  and  N_16
                            x       y       z     vdW  Elec       q    Type
                         _______ _______ _______ _____ _____    ______ ____

>  <TORSDO>
F 2

$$$$
