=
 OpenBabel11122414023D

 28 32  0  0  1  0  0  0  0  0999 V2000
  160.9790  208.8120  155.5990 C   0  0  0  0  0  0  0  0  0  0  0  0
  158.4130  211.7760  155.3860 O   0  0  0  0  0  0  0  0  0  0  0  0
  162.1650  208.3740  149.6710 O   0  0  0  0  0  0  0  0  0  0  0  0
  163.0270  210.4040  156.6610 C   0  0  0  0  0  3  0  0  0  0  0  0
  161.6510  210.6400  150.2770 C   0  0  1  0  0  3  0  0  0  0  0  0
  159.9170  207.9170  155.0380 C   0  0  0  0  0  2  0  0  0  0  0  0
  159.4020  214.0050  155.0620 O   0  0  0  0  0  0  0  0  0  0  0  0
  159.0050  212.7260  154.3820 S   0  0  0  0  0  0  0  0  0  0  0  0
  158.0830  212.6600  151.8020 C   0  0  0  0  0  0  0  0  0  0  0  0
  160.4330  212.0090  153.6080 C   0  0  2  0  0  3  0  0  0  0  0  0
  161.4360  205.7250  152.6090 O   0  0  0  0  0  0  0  0  0  0  0  0
  161.3040  210.1310  152.5360 C   0  0  0  0  0  0  0  0  0  0  0  0
  159.2510  212.2700  151.3800 N   0  0  0  0  0  0  0  0  0  0  0  0
  157.8560  213.0630  153.1490 N   0  0  0  0  0  2  0  0  0  0  0  0
  160.8290  206.7330  153.0560 C   0  0  0  0  0  0  0  0  0  0  0  0
  161.2850  210.0510  155.0010 C   0  0  0  0  0  0  0  0  0  0  0  0
  161.8600  209.1770  150.5400 C   0  0  0  0  0  0  0  0  0  0  0  0
  156.9350  212.6320  150.8600 C   0  0  0  0  0  1  0  0  0  0  0  0
  160.4800  207.8410  152.1150 C   0  0  0  0  0  2  0  0  0  0  0  0
  162.3240  210.8320  155.5330 C   0  0  0  0  0  3  0  0  0  0  0  0
  161.6890  208.3910  156.7290 C   0  0  0  0  0  3  0  0  0  0  0  0
  162.7080  209.1850  157.2610 C   0  0  0  0  0  3  0  0  0  0  0  0
  160.5060  206.7830  154.4160 O   0  0  0  0  0  0  0  0  0  0  0  0
  161.3150  211.1020  151.6520 C   0  0  0  0  0  0  0  0  0  0  0  0
  161.6560  208.7970  151.9770 C   0  0  2  0  0  3  0  0  0  0  0  0
  160.5360  212.2930  152.0940 C   0  0  2  0  0  3  0  0  0  0  0  0
  162.9510  211.2820  149.8250 C   0  0  0  0  0  1  0  0  0  0  0  0
  160.5500  210.4890  153.7630 C   0  0  1  0  0  3  0  0  0  0  0  0
  1 21  1  0  0  0  0
  3 17  2  0  0  0  0
  4 22  1  0  0  0  0
  5 27  1  1  0  0  0
  5 17  1  0  0  0  0
  5 24  1  0  0  0  0
  6  1  1  0  0  0  0
  8  7  2  0  0  0  0
  8  2  2  0  0  0  0
  9 14  1  0  0  0  0
 10 28  1  0  0  0  0
 10  8  1  6  0  0  0
 11 15  2  0  0  0  0
 13  9  2  0  0  0  0
 14  8  1  0  0  0  0
 15 23  1  0  0  0  0
 16 20  1  0  0  0  0
 16  1  2  0  0  0  0
 17 25  1  0  0  0  0
 18  9  1  0  0  0  0
 19 15  1  0  0  0  0
 20  4  2  0  0  0  0
 21 22  2  0  0  0  0
 23  6  1  0  0  0  0
 24 26  1  0  0  0  0
 24 12  2  0  0  0  0
 25 19  1  6  0  0  0
 25 12  1  0  0  0  0
 26 13  1  6  0  0  0
 26 10  1  0  0  0  0
 28 12  1  6  0  0  0
 28 16  1  0  0  0  0
M  END
>  <MODEL>
1

>  <REMARK>
 VINA RESULT:      -2.6      0.000      0.000
  Name = 
  0 active torsions:
  status: ('A' for Active; 'I' for Inactive)
                            x       y       z     vdW  Elec       q    Type
                         _______ _______ _______ _____ _____    ______ ____

>  <TORSDO>
F 0

$$$$
=
 OpenBabel11122414023D

 28 32  0  0  1  0  0  0  0  0999 V2000
  160.8780  209.7610  155.7250 C   0  0  0  0  0  0  0  0  0  0  0  0
  157.4880  211.4090  156.8220 O   0  0  0  0  0  0  0  0  0  0  0  0
  160.8520  211.6700  149.9730 O   0  0  0  0  0  0  0  0  0  0  0  0
  162.4540  211.6080  157.1250 C   0  0  0  0  0  3  0  0  0  0  0  0
  159.7540  213.2530  151.4060 C   0  0  1  0  0  3  0  0  0  0  0  0
  160.0810  208.7450  154.9650 C   0  0  0  0  0  2  0  0  0  0  0  0
  157.5840  213.8280  157.2570 O   0  0  0  0  0  0  0  0  0  0  0  0
  157.5010  212.7730  156.1910 S   0  0  0  0  0  0  0  0  0  0  0  0
  156.1280  213.1570  153.8500 C   0  0  0  0  0  0  0  0  0  0  0  0
  158.8870  212.9430  155.0940 C   0  0  2  0  0  3  0  0  0  0  0  0
  161.6900  208.1780  151.7850 O   0  0  0  0  0  0  0  0  0  0  0  0
  160.0850  211.9780  153.3420 C   0  0  0  0  0  0  0  0  0  0  0  0
  157.2410  213.4000  153.2220 N   0  0  0  0  0  0  0  0  0  0  0  0
  156.0710  213.0030  155.2660 N   0  0  0  0  0  2  0  0  0  0  0  0
  160.8920  208.6810  152.6190 C   0  0  0  0  0  0  0  0  0  0  0  0
  160.6180  211.1400  155.6000 C   0  0  0  0  0  0  0  0  0  0  0  0
  160.4890  211.9820  151.0970 C   0  0  0  0  0  0  0  0  0  0  0  0
  154.8820  212.9800  153.0610 C   0  0  0  0  0  1  0  0  0  0  0  0
  160.0020  209.8000  152.1810 C   0  0  0  0  0  2  0  0  0  0  0  0
  161.4260  212.0560  156.2930 C   0  0  0  0  0  3  0  0  0  0  0  0
  161.9110  209.3200  156.5600 C   0  0  0  0  0  3  0  0  0  0  0  0
  162.6950  210.2400  157.2610 C   0  0  0  0  0  3  0  0  0  0  0  0
  160.8680  208.1800  153.9240 O   0  0  0  0  0  0  0  0  0  0  0  0
  159.5840  213.0990  152.8770 C   0  0  0  0  0  0  0  0  0  0  0  0
  160.7340  211.1280  152.3070 C   0  0  2  0  0  3  0  0  0  0  0  0
  158.5650  213.6970  153.7860 C   0  0  2  0  0  3  0  0  0  0  0  0
  160.6380  214.4530  151.1150 C   0  0  0  0  0  1  0  0  0  0  0  0
  159.5350  211.6190  154.6720 C   0  0  1  0  0  3  0  0  0  0  0  0
  1 21  1  0  0  0  0
  3 17  2  0  0  0  0
  4 22  1  0  0  0  0
  5 27  1  1  0  0  0
  5 24  1  0  0  0  0
  6  1  1  0  0  0  0
  8  2  2  0  0  0  0
  8  7  2  0  0  0  0
  9 14  1  0  0  0  0
 10  8  1  6  0  0  0
 11 15  2  0  0  0  0
 13 26  1  0  0  0  0
 13  9  2  0  0  0  0
 14  8  1  0  0  0  0
 15 23  1  0  0  0  0
 16  1  2  0  0  0  0
 16 20  1  0  0  0  0
 17  5  1  0  0  0  0
 17 25  1  0  0  0  0
 18  9  1  0  0  0  0
 19 15  1  0  0  0  0
 20  4  2  0  0  0  0
 21 22  2  0  0  0  0
 23  6  1  0  0  0  0
 24 12  2  0  0  0  0
 25 19  1  6  0  0  0
 25 12  1  0  0  0  0
 26 24  1  6  0  0  0
 26 10  1  0  0  0  0
 28 12  1  6  0  0  0
 28 10  1  0  0  0  0
 28 16  1  0  0  0  0
M  END
>  <MODEL>
2

>  <REMARK>
 VINA RESULT:      -2.6      1.885      2.446
  Name = 
  0 active torsions:
  status: ('A' for Active; 'I' for Inactive)
                            x       y       z     vdW  Elec       q    Type
                         _______ _______ _______ _____ _____    ______ ____

>  <TORSDO>
F 0

$$$$
=
 OpenBabel11122414023D

 28 32  0  0  1  0  0  0  0  0999 V2000
  158.7310  213.8190  152.0110 C   0  0  0  0  0  0  0  0  0  0  0  0
  159.8870  213.9640  155.7600 O   0  0  0  0  0  0  0  0  0  0  0  0
  161.8930  208.9030  150.4050 O   0  0  0  0  0  0  0  0  0  0  0  0
  156.1610  212.8900  152.6350 C   0  0  0  0  0  3  0  0  0  0  0  0
  161.2500  208.7920  152.7160 C   0  0  1  0  0  3  0  0  0  0  0  0
  160.0890  214.3190  151.6240 C   0  0  0  0  0  2  0  0  0  0  0  0
  158.8020  212.3450  157.2610 O   0  0  0  0  0  0  0  0  0  0  0  0
  159.8710  212.5340  156.2230 S   0  0  0  0  0  0  0  0  0  0  0  0
  162.2300  211.1390  156.2750 C   0  0  0  0  0  0  0  0  0  0  0  0
  159.5620  211.4380  154.8610 C   0  0  2  0  0  3  0  0  0  0  0  0
  161.1960  212.4880  148.7190 O   0  0  0  0  0  0  0  0  0  0  0  0
  160.1530  210.8610  152.6810 C   0  0  0  0  0  0  0  0  0  0  0  0
  161.7850  210.3270  155.3600 N   0  0  0  0  0  0  0  0  0  0  0  0
  161.4000  212.1200  156.8910 N   0  0  0  0  0  2  0  0  0  0  0  0
  161.0610  212.7790  149.9360 C   0  0  0  0  0  0  0  0  0  0  0  0
  158.5740  212.7410  152.9050 C   0  0  0  0  0  0  0  0  0  0  0  0
  161.3230  209.4200  151.3550 C   0  0  0  0  0  0  0  0  0  0  0  0
  163.6650  211.0770  156.6520 C   0  0  0  0  0  1  0  0  0  0  0  0
  161.6260  211.8550  150.9660 C   0  0  0  0  0  2  0  0  0  0  0  0
  157.2820  212.2750  153.1970 C   0  0  0  0  0  3  0  0  0  0  0  0
  157.6030  214.4290  151.4510 C   0  0  0  0  0  3  0  0  0  0  0  0
  156.3210  213.9690  151.7650 C   0  0  0  0  0  3  0  0  0  0  0  0
  160.3850  213.9540  150.2820 O   0  0  0  0  0  0  0  0  0  0  0  0
  160.4630  209.8310  153.4350 C   0  0  0  0  0  0  0  0  0  0  0  0
  160.6290  210.7480  151.2750 C   0  0  2  0  0  3  0  0  0  0  0  0
  160.4050  210.1440  154.8910 C   0  0  2  0  0  3  0  0  0  0  0  0
  160.4560  207.4990  152.6550 C   0  0  0  0  0  1  0  0  0  0  0  0
  159.7850  212.0570  153.4770 C   0  0  1  0  0  3  0  0  0  0  0  0
  1 16  1  0  0  0  0
  2  8  2  0  0  0  0
  3 17  2  0  0  0  0
  4 20  1  0  0  0  0
  5 27  1  6  0  0  0
  5 24  1  0  0  0  0
  6  1  1  0  0  0  0
  8 14  1  0  0  0  0
  8  7  2  0  0  0  0
  9 18  1  0  0  0  0
  9 14  1  0  0  0  0
 10 26  1  0  0  0  0
 10  8  1  1  0  0  0
 11 15  2  0  0  0  0
 12 24  2  0  0  0  0
 13  9  2  0  0  0  0
 15 23  1  0  0  0  0
 15 19  1  0  0  0  0
 16 20  2  0  0  0  0
 16 28  1  0  0  0  0
 17  5  1  0  0  0  0
 21 22  1  0  0  0  0
 21  1  2  0  0  0  0
 22  4  2  0  0  0  0
 23  6  1  0  0  0  0
 25 19  1  1  0  0  0
 25 17  1  0  0  0  0
 25 12  1  0  0  0  0
 26 24  1  6  0  0  0
 26 13  1  0  0  0  0
 28 12  1  6  0  0  0
 28 10  1  0  0  0  0
M  END
>  <MODEL>
3

>  <REMARK>
 VINA RESULT:      -1.3      2.260      5.513
  Name = 
  0 active torsions:
  status: ('A' for Active; 'I' for Inactive)
                            x       y       z     vdW  Elec       q    Type
                         _______ _______ _______ _____ _____    ______ ____

>  <TORSDO>
F 0

$$$$
=
 OpenBabel11122414023D

 28 32  0  0  1  0  0  0  0  0999 V2000
  160.8350  209.2550  153.3760 C   0  0  0  0  0  0  0  0  0  0  0  0
  157.5890  211.4620  153.3560 O   0  0  0  0  0  0  0  0  0  0  0  0
  162.9560  210.9300  147.9510 O   0  0  0  0  0  0  0  0  0  0  0  0
  162.1610  210.8770  155.2380 C   0  0  0  0  0  3  0  0  0  0  0  0
  161.7320  212.7200  148.9830 C   0  0  1  0  0  3  0  0  0  0  0  0
  160.1680  208.3520  152.3840 C   0  0  0  0  0  2  0  0  0  0  0  0
  157.9340  213.8490  153.8380 O   0  0  0  0  0  0  0  0  0  0  0  0
  158.0240  212.7820  152.7850 S   0  0  0  0  0  0  0  0  0  0  0  0
  157.5510  213.2930  150.1340 C   0  0  0  0  0  0  0  0  0  0  0  0
  159.6950  212.6880  152.1930 C   0  0  2  0  0  3  0  0  0  0  0  0
  162.5920  207.4190  149.8800 O   0  0  0  0  0  0  0  0  0  0  0  0
  161.2160  211.4810  150.9020 C   0  0  0  0  0  0  0  0  0  0  0  0
  158.8300  213.3330  149.8990 N   0  0  0  0  0  0  0  0  0  0  0  0
  157.0210  213.2020  151.4530 N   0  0  0  0  0  2  0  0  0  0  0  0
  161.6630  208.0730  150.4210 C   0  0  0  0  0  0  0  0  0  0  0  0
  160.8570  210.6520  153.1970 C   0  0  0  0  0  0  0  0  0  0  0  0
  162.3100  211.3370  148.9050 C   0  0  0  0  0  0  0  0  0  0  0  0
  156.6110  213.2880  148.9840 C   0  0  0  0  0  1  0  0  0  0  0  0
  161.1540  209.3020  149.7400 C   0  0  0  0  0  2  0  0  0  0  0  0
  161.5390  211.4530  154.1280 C   0  0  0  0  0  3  0  0  0  0  0  0
  161.4610  208.6860  154.4910 C   0  0  0  0  0  3  0  0  0  0  0  0
  162.1200  209.4940  155.4210 C   0  0  0  0  0  3  0  0  0  0  0  0
  161.1430  207.6300  151.6420 O   0  0  0  0  0  0  0  0  0  0  0  0
  161.0790  212.6500  150.3190 C   0  0  0  0  0  0  0  0  0  0  0  0
  162.0140  210.5010  150.1160 C   0  0  2  0  0  3  0  0  0  0  0  0
  159.9350  213.4350  150.8630 C   0  0  2  0  0  3  0  0  0  0  0  0
  162.8450  213.7520  149.0110 C   0  0  0  0  0  1  0  0  0  0  0  0
  160.2190  211.2630  151.9790 C   0  0  1  0  0  3  0  0  0  0  0  0
  1 21  1  0  0  0  0
  3 17  2  0  0  0  0
  4 22  1  0  0  0  0
  5 27  1  1  0  0  0
  5 24  1  0  0  0  0
  6  1  1  0  0  0  0
  8  2  2  0  0  0  0
  8  7  2  0  0  0  0
  9 14  1  0  0  0  0
 10  8  1  6  0  0  0
 11 15  2  0  0  0  0
 13  9  2  0  0  0  0
 14  8  1  0  0  0  0
 15 23  1  0  0  0  0
 16  1  2  0  0  0  0
 16 20  1  0  0  0  0
 17  5  1  0  0  0  0
 17 25  1  0  0  0  0
 18  9  1  0  0  0  0
 19 15  1  0  0  0  0
 20  4  2  0  0  0  0
 21 22  2  0  0  0  0
 23  6  1  0  0  0  0
 24 26  1  0  0  0  0
 24 12  2  0  0  0  0
 25 19  1  6  0  0  0
 25 12  1  0  0  0  0
 26 13  1  6  0  0  0
 26 10  1  0  0  0  0
 28 12  1  6  0  0  0
 28 10  1  0  0  0  0
 28 16  1  0  0  0  0
M  END
>  <MODEL>
4

>  <REMARK>
 VINA RESULT:       0.1      1.604      2.328
  Name = 
  0 active torsions:
  status: ('A' for Active; 'I' for Inactive)
                            x       y       z     vdW  Elec       q    Type
                         _______ _______ _______ _____ _____    ______ ____

>  <TORSDO>
F 0

$$$$
