=
 OpenBabel11122414133D

 28 32  0  0  1  0  0  0  0  0999 V2000
  160.8600  209.4690  155.1730 C   0  0  0  0  0  0  0  0  0  0  0  0
  157.3420  210.8960  155.2790 O   0  0  0  0  0  1  0  0  0  0  0  0
  160.9780  212.4750  150.2100 O   0  0  0  0  0  0  0  0  0  0  0  0
  162.3420  210.6140  157.2590 C   0  0  0  0  0  3  0  0  0  0  0  0
  159.0380  213.0970  151.5250 C   0  0  2  0  0  3  0  0  0  0  0  0
  160.1530  208.8720  154.1290 O   0  0  0  0  0  0  0  0  0  0  0  0
  158.5080  211.4830  157.2590 C   0  0  0  0  0  1  0  0  0  0  0  0
  157.8940  211.9820  155.9660 C   0  0  1  0  0  0  0  0  0  0  0  0
  156.2270  213.6050  155.1680 C   0  0  0  0  0  0  0  0  0  0  0  0
  158.9490  212.7240  155.0870 C   0  0  2  0  0  3  0  0  0  0  0  0
  161.6270  208.2950  150.7440 C   0  0  0  0  0  1  0  0  0  0  0  0
  159.4650  211.3200  153.2030 C   0  0  1  0  0  3  0  0  0  0  0  0
  157.0310  213.7790  154.0040 N   0  0  0  0  0  2  0  0  0  0  0  0
  156.7910  212.9430  156.3670 C   0  0  0  0  0  2  0  0  0  0  0  0
  160.8600  209.0310  151.8230 C   0  0  2  0  0  3  0  0  0  0  0  0
  160.7860  210.8640  155.4030 C   0  0  0  0  0  0  0  0  0  0  0  0
  160.2400  212.2890  151.2130 C   0  0  0  0  0  0  0  0  0  0  0  0
  155.0460  214.0380  155.1860 O   0  0  0  0  0  0  0  0  0  0  0  0
  161.4970  210.3180  152.0810 N   0  0  0  0  0  2  0  0  0  0  0  0
  161.5500  211.4200  156.4390 C   0  0  0  0  0  3  0  0  0  0  0  0
  161.6660  208.6700  155.9940 C   0  0  0  0  0  3  0  0  0  0  0  0
  162.3990  209.2380  157.0370 C   0  0  0  0  0  3  0  0  0  0  0  0
  160.8310  208.1800  153.0890 C   0  0  0  0  0  2  0  0  0  0  0  0
  158.4750  212.4210  152.7880 C   0  0  1  0  0  3  0  0  0  0  0  0
  160.4850  211.2890  152.1750 N   0  0  0  0  0  0  0  0  0  0  0  0
  158.3830  213.3850  153.8860 N   0  0  2  0  0  0  0  0  0  0  0  0
  158.1120  212.9830  150.4890 O   0  0  0  0  0  1  0  0  0  0  0  0
  160.0400  211.8270  154.5040 C   0  0  2  0  0  3  0  0  0  0  0  0
  1 16  2  0  0  0  0
  1 21  1  0  0  0  0
  2  8  1  0  0  0  0
  3 17  2  0  0  0  0
  5 27  1  6  0  0  0
  5 24  1  0  0  0  0
  6  1  1  0  0  0  0
  8 14  1  0  0  0  0
  8  7  1  1  0  0  0
  9 18  2  0  0  0  0
  9 14  1  0  0  0  0
 10  8  1  0  0  0  0
 11 15  1  0  0  0  0
 12 28  1  0  0  0  0
 13  9  1  0  0  0  0
 15 19  1  0  0  0  0
 15 23  1  0  0  0  0
 16 20  1  0  0  0  0
 17  5  1  0  0  0  0
 17 25  1  0  0  0  0
 19 25  1  0  0  0  0
 20  4  2  0  0  0  0
 21 22  2  0  0  0  0
 22  4  1  0  0  0  0
 23  6  1  0  0  0  0
 24 12  1  0  0  0  0
 24 26  1  0  0  0  0
 25 12  1  0  0  0  0
 26 13  1  0  0  0  0
 26 10  1  0  0  0  0
 28 10  1  0  0  0  0
 28 16  1  0  0  0  0
M  END
>  <MODEL>
1

>  <REMARK>
 VINA RESULT:      -5.8      0.000      0.000
  Name = 
  0 active torsions:
  status: ('A' for Active; 'I' for Inactive)
                            x       y       z     vdW  Elec       q    Type
                         _______ _______ _______ _____ _____    ______ ____

>  <TORSDO>
F 0

$$$$
=
 OpenBabel11122414133D

 28 32  0  0  1  0  0  0  0  0999 V2000
  160.8380  208.1540  154.9930 C   0  0  0  0  0  0  0  0  0  0  0  0
  158.8460  210.6460  152.9310 O   0  0  0  0  0  1  0  0  0  0  0  0
  163.4290  207.3280  149.8670 O   0  0  0  0  0  0  0  0  0  0  0  0
  162.3760  209.5770  156.8550 C   0  0  0  0  0  3  0  0  0  0  0  0
  162.0470  209.3180  149.8000 C   0  0  2  0  0  3  0  0  0  0  0  0
  160.0810  207.4120  154.0860 O   0  0  0  0  0  0  0  0  0  0  0  0
  159.8230  211.7420  154.7940 C   0  0  0  0  0  1  0  0  0  0  0  0
  159.8180  211.5880  153.2850 C   0  0  1  0  0  0  0  0  0  0  0  0
  159.5530  212.9400  151.2480 C   0  0  0  0  0  0  0  0  0  0  0  0
  161.2240  211.1700  152.7540 C   0  0  2  0  0  3  0  0  0  0  0  0
  161.4280  204.4340  152.2750 C   0  0  0  0  0  1  0  0  0  0  0  0
  161.1000  208.8740  152.0490 C   0  0  1  0  0  3  0  0  0  0  0  0
  160.4710  212.0580  150.6070 N   0  0  0  0  0  2  0  0  0  0  0  0
  159.4380  212.9450  152.7240 C   0  0  0  0  0  2  0  0  0  0  0  0
  161.0830  205.8920  152.4960 C   0  0  2  0  0  3  0  0  0  0  0  0
  161.5580  209.3010  154.5790 C   0  0  0  0  0  0  0  0  0  0  0  0
  162.5810  208.0810  150.4130 C   0  0  0  0  0  0  0  0  0  0  0  0
  158.8600  213.7340  150.5610 O   0  0  0  0  0  0  0  0  0  0  0  0
  162.3040  206.6910  152.4660 N   0  0  0  0  0  2  0  0  0  0  0  0
  162.3380  209.9870  155.5210 C   0  0  0  0  0  3  0  0  0  0  0  0
  160.8920  207.7450  156.3320 C   0  0  0  0  0  3  0  0  0  0  0  0
  161.6520  208.4560  157.2610 C   0  0  0  0  0  3  0  0  0  0  0  0
  160.3740  206.0430  153.8390 C   0  0  0  0  0  2  0  0  0  0  0  0
  161.0140  209.8070  150.8310 C   0  0  1  0  0  3  0  0  0  0  0  0
  162.0490  207.8390  151.6960 N   0  0  0  0  0  0  0  0  0  0  0  0
  161.3380  211.1640  151.2760 N   0  0  2  0  0  0  0  0  0  0  0  0
  161.3960  209.0090  148.6060 O   0  0  0  0  0  1  0  0  0  0  0  0
  161.6590  209.7560  153.1390 C   0  0  2  0  0  3  0  0  0  0  0  0
  1 21  1  0  0  0  0
  2  8  1  0  0  0  0
  3 17  2  0  0  0  0
  4 22  1  0  0  0  0
  5 27  1  6  0  0  0
  5 17  1  0  0  0  0
  5 24  1  0  0  0  0
  6  1  1  0  0  0  0
  8  7  1  1  0  0  0
  9 14  1  0  0  0  0
 10 28  1  0  0  0  0
 10  8  1  0  0  0  0
 11 15  1  0  0  0  0
 12 28  1  0  0  0  0
 13  9  1  0  0  0  0
 13 26  1  0  0  0  0
 14  8  1  0  0  0  0
 15 23  1  0  0  0  0
 16  1  2  0  0  0  0
 16 20  1  0  0  0  0
 17 25  1  0  0  0  0
 18  9  2  0  0  0  0
 19 15  1  0  0  0  0
 20  4  2  0  0  0  0
 21 22  2  0  0  0  0
 23  6  1  0  0  0  0
 24 26  1  0  0  0  0
 24 12  1  0  0  0  0
 25 12  1  0  0  0  0
 25 19  1  0  0  0  0
 26 10  1  0  0  0  0
 28 16  1  0  0  0  0
M  END
>  <MODEL>
2

>  <REMARK>
 VINA RESULT:      -3.5      2.345      3.757
  Name = 
  0 active torsions:
  status: ('A' for Active; 'I' for Inactive)
                            x       y       z     vdW  Elec       q    Type
                         _______ _______ _______ _____ _____    ______ ____

>  <TORSDO>
F 0

$$$$
=
 OpenBabel11122414133D

 28 32  0  0  1  0  0  0  0  0999 V2000
  160.7470  208.1680  153.1020 C   0  0  0  0  0  0  0  0  0  0  0  0
  157.9520  210.7190  152.7700 O   0  0  0  0  0  1  0  0  0  0  0  0
  163.1210  211.5520  149.0280 O   0  0  0  0  0  0  0  0  0  0  0  0
  161.8920  208.4370  155.6460 C   0  0  0  0  0  3  0  0  0  0  0  0
  161.1910  212.6430  150.0100 C   0  0  2  0  0  3  0  0  0  0  0  0
  160.1970  208.0000  151.8310 O   0  0  0  0  0  0  0  0  0  0  0  0
  158.6640  210.5960  155.0280 C   0  0  0  0  0  1  0  0  0  0  0  0
  158.6070  211.4420  153.7710 C   0  0  1  0  0  0  0  0  0  0  0  0
  157.8040  213.6370  153.0060 C   0  0  0  0  0  0  0  0  0  0  0  0
  160.0360  211.8700  153.3110 C   0  0  2  0  0  3  0  0  0  0  0  0
  162.2730  207.3800  148.7860 C   0  0  0  0  0  1  0  0  0  0  0  0
  160.5780  210.6300  151.3230 C   0  0  1  0  0  3  0  0  0  0  0  0
  158.9050  213.6640  152.1000 N   0  0  0  0  0  2  0  0  0  0  0  0
  157.7910  212.6710  154.1270 C   0  0  0  0  0  2  0  0  0  0  0  0
  161.5110  208.1940  149.8110 C   0  0  2  0  0  3  0  0  0  0  0  0
  161.0490  209.4580  153.6020 C   0  0  0  0  0  0  0  0  0  0  0  0
  162.1200  211.5110  149.7920 C   0  0  0  0  0  0  0  0  0  0  0  0
  156.8570  214.4530  152.8680 O   0  0  0  0  0  0  0  0  0  0  0  0
  162.4220  209.1290  150.4650 N   0  0  0  0  0  2  0  0  0  0  0  0
  161.6400  209.5700  154.8690 C   0  0  0  0  0  3  0  0  0  0  0  0
  161.0130  207.0370  153.8850 C   0  0  0  0  0  3  0  0  0  0  0  0
  161.5770  207.1710  155.1540 C   0  0  0  0  0  3  0  0  0  0  0  0
  160.8800  207.2520  150.8330 C   0  0  0  0  0  2  0  0  0  0  0  0
  160.1280  212.0520  150.9530 C   0  0  1  0  0  3  0  0  0  0  0  0
  161.7740  210.3730  150.5490 N   0  0  0  0  0  0  0  0  0  0  0  0
  160.0480  212.8380  152.1870 N   0  0  2  0  0  0  0  0  0  0  0  0
  160.5900  212.9980  148.8020 O   0  0  0  0  0  1  0  0  0  0  0  0
  160.9090  210.7290  152.7930 C   0  0  2  0  0  3  0  0  0  0  0  0
  1 16  2  0  0  0  0
  1 21  1  0  0  0  0
  2  8  1  0  0  0  0
  3 17  2  0  0  0  0
  5 27  1  6  0  0  0
  5 24  1  0  0  0  0
  6  1  1  0  0  0  0
  8 14  1  0  0  0  0
  8  7  1  1  0  0  0
  9 14  1  0  0  0  0
 10  8  1  0  0  0  0
 11 15  1  0  0  0  0
 12 28  1  0  0  0  0
 13 26  1  0  0  0  0
 13  9  1  0  0  0  0
 15 19  1  0  0  0  0
 15 23  1  0  0  0  0
 16 20  1  0  0  0  0
 17  5  1  0  0  0  0
 17 25  1  0  0  0  0
 18  9  2  0  0  0  0
 19 25  1  0  0  0  0
 20  4  2  0  0  0  0
 21 22  2  0  0  0  0
 22  4  1  0  0  0  0
 23  6  1  0  0  0  0
 24 12  1  0  0  0  0
 24 26  1  0  0  0  0
 25 12  1  0  0  0  0
 26 10  1  0  0  0  0
 28 10  1  0  0  0  0
 28 16  1  0  0  0  0
M  END
>  <MODEL>
3

>  <REMARK>
 VINA RESULT:      -2.8      1.893      2.513
  Name = 
  0 active torsions:
  status: ('A' for Active; 'I' for Inactive)
                            x       y       z     vdW  Elec       q    Type
                         _______ _______ _______ _____ _____    ______ ____

>  <TORSDO>
F 0

$$$$
