=
 OpenBabel11122414103D

 28 32  0  0  1  0  0  0  0  0999 V2000
  160.8800  209.0060  155.8010 C   0  0  0  0  0  0  0  0  0  0  0  0
  156.0120  210.1690  154.3320 F   0  0  0  0  0  0  0  0  0  0  0  0
  161.7940  210.7110  151.6810 O   0  0  0  0  0  0  0  0  0  0  0  0
  161.9320  211.4600  156.6490 C   0  0  0  0  0  3  0  0  0  0  0  0
  159.8240  211.8440  152.3000 N   0  0  0  0  0  0  0  0  0  0  0  0
  160.3800  207.7940  155.3240 O   0  0  0  0  0  0  0  0  0  0  0  0
  156.2130  210.3090  156.5700 F   0  0  0  0  0  0  0  0  0  0  0  0
  156.4200  210.9790  155.3800 C   0  0  0  0  0  0  0  0  0  0  0  0
  155.9330  213.2300  154.4490 C   0  0  0  0  0  0  0  0  0  0  0  0
  157.9090  211.3410  155.2490 C   0  0  2  0  0  3  0  0  0  0  0  0
  162.5950  207.5870  152.7610 O   0  0  0  0  0  0  0  0  0  0  0  0
  158.8170  210.0020  153.4250 C   0  0  1  0  0  3  0  0  0  0  0  0
  157.1470  213.2060  153.7620 O   0  0  0  0  0  0  0  0  0  0  0  0
  155.6180  212.1920  155.3730 N   0  0  0  0  0  2  0  0  0  0  0  0
  161.4560  207.5800  153.2000 C   0  0  0  0  0  0  0  0  0  0  0  0
  160.1160  210.1770  155.6550 C   0  0  0  0  0  0  0  0  0  0  0  0
  160.6790  210.7220  152.2700 C   0  0  0  0  0  0  0  0  0  0  0  0
  154.8800  214.4530  154.2060 S   0  0  0  0  0  0  0  0  0  0  0  0
  160.3570  208.2350  152.4240 C   0  0  0  0  0  2  0  0  0  0  0  0
  160.6620  211.4040  156.0730 C   0  0  0  0  0  3  0  0  0  0  0  0
  162.1590  209.0700  156.3750 C   0  0  0  0  0  3  0  0  0  0  0  0
  162.6800  210.2910  156.8020 C   0  0  0  0  0  3  0  0  0  0  0  0
  161.1730  206.9280  154.5200 C   0  0  0  0  0  2  0  0  0  0  0  0
  158.5570  211.4230  152.8780 C   0  0  1  0  0  3  0  0  0  0  0  0
  160.1230  209.5900  152.9080 N   0  0  0  0  0  0  0  0  0  0  0  0
  158.2000  212.2880  154.0750 C   0  0  2  0  0  3  0  0  0  0  0  0
  159.9920  213.0320  151.4780 C   0  0  0  0  0  1  0  0  0  0  0  0
  158.7610  210.1050  154.9670 C   0  0  1  0  0  3  0  0  0  0  0  0
  1 21  1  0  0  0  0
  2  8  1  0  0  0  0
  3 17  2  0  0  0  0
  4 22  1  0  0  0  0
  6  1  1  0  0  0  0
  8  7  1  0  0  0  0
  9 14  1  0  0  0  0
 10  8  1  6  0  0  0
 11 15  2  0  0  0  0
 12 25  1  1  0  0  0
 12 28  1  0  0  0  0
 13  9  1  0  0  0  0
 14  8  1  0  0  0  0
 15 23  1  0  0  0  0
 16  1  2  0  0  0  0
 16 20  1  0  0  0  0
 17  5  1  0  0  0  0
 17 25  1  0  0  0  0
 18  9  2  0  0  0  0
 19 25  1  0  0  0  0
 19 15  1  0  0  0  0
 20  4  2  0  0  0  0
 21 22  2  0  0  0  0
 23  6  1  0  0  0  0
 24  5  1  1  0  0  0
 24 12  1  0  0  0  0
 24 26  1  0  0  0  0
 26 13  1  6  0  0  0
 26 10  1  0  0  0  0
 27  5  1  0  0  0  0
 28 10  1  0  0  0  0
 28 16  1  6  0  0  0
M  END
>  <MODEL>
1

>  <REMARK>
 VINA RESULT:      -2.6      0.000      0.000
  Name = 
  0 active torsions:
  status: ('A' for Active; 'I' for Inactive)
                            x       y       z     vdW  Elec       q    Type
                         _______ _______ _______ _____ _____    ______ ____

>  <TORSDO>
F 0

$$$$
=
 OpenBabel11122414103D

 28 32  0  0  1  0  0  0  0  0999 V2000
  161.1600  210.2490  156.2800 C   0  0  0  0  0  0  0  0  0  0  0  0
  158.5640  211.5400  151.9440 F   0  0  0  0  0  0  0  0  0  0  0  0
  162.0480  206.5290  153.8130 O   0  0  0  0  0  0  0  0  0  0  0  0
  163.8280  210.8460  155.6710 C   0  0  0  0  0  3  0  0  0  0  0  0
  161.7630  208.1960  152.1750 N   0  0  0  0  0  0  0  0  0  0  0  0
  159.8410  209.8950  156.5660 O   0  0  0  0  0  0  0  0  0  0  0  0
  159.3100  213.3870  152.9940 F   0  0  0  0  0  0  0  0  0  0  0  0
  159.6600  212.3680  152.1300 C   0  0  0  0  0  0  0  0  0  0  0  0
  160.7860  212.1560  149.9260 C   0  0  0  0  0  0  0  0  0  0  0  0
  160.8480  211.5860  152.7160 C   0  0  2  0  0  3  0  0  0  0  0  0
  160.5160  206.5810  156.8490 O   0  0  0  0  0  0  0  0  0  0  0  0
  160.0260  209.3680  153.3080 C   0  0  1  0  0  3  0  0  0  0  0  0
  161.3860  210.9700  150.3500 O   0  0  0  0  0  0  0  0  0  0  0  0
  160.0360  212.9410  150.8480 N   0  0  0  0  0  2  0  0  0  0  0  0
  159.8840  207.5110  156.3770 C   0  0  0  0  0  0  0  0  0  0  0  0
  161.4970  210.6780  154.9840 C   0  0  0  0  0  0  0  0  0  0  0  0
  161.4790  207.5790  153.4120 C   0  0  0  0  0  0  0  0  0  0  0  0
  160.9550  212.6500  148.3800 S   0  0  0  0  0  0  0  0  0  0  0  0
  159.4830  207.4830  154.9350 C   0  0  0  0  0  2  0  0  0  0  0  0
  162.8430  210.9620  154.6890 C   0  0  0  0  0  3  0  0  0  0  0  0
  162.1560  210.1290  157.2610 C   0  0  0  0  0  3  0  0  0  0  0  0
  163.4840  210.4320  156.9580 C   0  0  0  0  0  3  0  0  0  0  0  0
  159.5280  208.6830  157.2430 C   0  0  0  0  0  2  0  0  0  0  0  0
  160.7760  209.2460  151.9640 C   0  0  1  0  0  3  0  0  0  0  0  0
  160.4390  208.2230  154.1220 N   0  0  0  0  0  0  0  0  0  0  0  0
  161.4580  210.5830  151.7260 C   0  0  2  0  0  3  0  0  0  0  0  0
  162.5530  207.5940  151.1130 C   0  0  0  0  0  1  0  0  0  0  0  0
  160.4200  210.7370  153.9120 C   0  0  1  0  0  3  0  0  0  0  0  0
  1  6  1  0  0  0  0
  1 21  1  0  0  0  0
  2  8  1  0  0  0  0
  4 22  1  0  0  0  0
  5 17  1  0  0  0  0
  6 23  1  0  0  0  0
  8  7  1  0  0  0  0
  9 13  1  0  0  0  0
  9 14  1  0  0  0  0
 10  8  1  6  0  0  0
 10 28  1  0  0  0  0
 12 28  1  0  0  0  0
 12 25  1  1  0  0  0
 14  8  1  0  0  0  0
 15 11  2  0  0  0  0
 15 23  1  0  0  0  0
 16  1  2  0  0  0  0
 17  3  2  0  0  0  0
 17 25  1  0  0  0  0
 18  9  2  0  0  0  0
 19 15  1  0  0  0  0
 20 16  1  0  0  0  0
 20  4  2  0  0  0  0
 22 21  2  0  0  0  0
 24  5  1  1  0  0  0
 24 12  1  0  0  0  0
 25 19  1  0  0  0  0
 26 13  1  6  0  0  0
 26 24  1  0  0  0  0
 26 10  1  0  0  0  0
 27  5  1  0  0  0  0
 28 16  1  1  0  0  0
M  END
>  <MODEL>
2

>  <REMARK>
 VINA RESULT:      -2.1      3.131      4.164
  Name = 
  0 active torsions:
  status: ('A' for Active; 'I' for Inactive)
                            x       y       z     vdW  Elec       q    Type
                         _______ _______ _______ _____ _____    ______ ____

>  <TORSDO>
F 0

$$$$
=
 OpenBabel11122414103D

 28 32  0  0  1  0  0  0  0  0999 V2000
  161.9670  209.8990  153.5140 C   0  0  0  0  0  0  0  0  0  0  0  0
  160.1150  214.4500  151.7600 F   0  0  0  0  0  0  0  0  0  0  0  0
  158.3420  210.2650  156.2430 O   0  0  0  0  0  0  0  0  0  0  0  0
  160.3640  207.9860  152.2450 C   0  0  0  0  0  3  0  0  0  0  0  0
  157.6810  211.4510  154.3190 N   0  0  0  0  0  0  0  0  0  0  0  0
  162.7290  210.8510  154.1940 O   0  0  0  0  0  0  0  0  0  0  0  0
  161.1950  213.3530  150.1160 F   0  0  0  0  0  0  0  0  0  0  0  0
  159.9970  213.4620  150.7950 C   0  0  0  0  0  0  0  0  0  0  0  0
  157.5890  213.6570  150.2180 C   0  0  0  0  0  0  0  0  0  0  0  0
  159.6470  212.1070  151.4340 C   0  0  2  0  0  3  0  0  0  0  0  0
  161.5750  209.9690  157.2600 O   0  0  0  0  0  0  0  0  0  0  0  0
  159.8220  212.3850  153.8500 C   0  0  1  0  0  3  0  0  0  0  0  0
  157.2640  212.8660  151.3210 O   0  0  0  0  0  0  0  0  0  0  0  0
  158.9540  213.8460  149.8580 N   0  0  0  0  0  2  0  0  0  0  0  0
  161.7950  210.7990  156.3940 C   0  0  0  0  0  0  0  0  0  0  0  0
  160.8860  210.3170  152.7190 C   0  0  0  0  0  0  0  0  0  0  0  0
  158.6280  211.0100  155.2670 C   0  0  0  0  0  0  0  0  0  0  0  0
  156.4070  214.3520  149.3330 S   0  0  0  0  0  0  0  0  0  0  0  0
  160.8080  211.8970  156.1490 C   0  0  0  0  0  2  0  0  0  0  0  0
  160.0810  209.3440  152.0980 C   0  0  0  0  0  3  0  0  0  0  0  0
  162.2420  208.5320  153.6640 C   0  0  0  0  0  3  0  0  0  0  0  0
  161.4460  207.5790  153.0260 C   0  0  0  0  0  3  0  0  0  0  0  0
  163.0460  210.7020  155.5730 C   0  0  0  0  0  2  0  0  0  0  0  0
  158.3240  212.4500  153.4780 C   0  0  1  0  0  3  0  0  0  0  0  0
  159.9170  211.5500  155.0480 N   0  0  0  0  0  0  0  0  0  0  0  0
  158.2250  212.0610  152.0120 C   0  0  2  0  0  3  0  0  0  0  0  0
  156.2410  211.3110  154.4630 C   0  0  0  0  0  1  0  0  0  0  0  0
  160.5570  211.7990  152.6210 C   0  0  1  0  0  3  0  0  0  0  0  0
  1 21  1  0  0  0  0
  1  6  1  0  0  0  0
  4 22  1  0  0  0  0
  5 27  1  0  0  0  0
  5 17  1  0  0  0  0
  6 23  1  0  0  0  0
  7  8  1  0  0  0  0
  8  2  1  0  0  0  0
  9 13  1  0  0  0  0
 10  8  1  1  0  0  0
 10 26  1  0  0  0  0
 10 28  1  0  0  0  0
 12 25  1  1  0  0  0
 14  9  1  0  0  0  0
 14  8  1  0  0  0  0
 15 11  2  0  0  0  0
 16  1  2  0  0  0  0
 17  3  2  0  0  0  0
 18  9  2  0  0  0  0
 19 15  1  0  0  0  0
 20  4  2  0  0  0  0
 20 16  1  0  0  0  0
 22 21  2  0  0  0  0
 23 15  1  0  0  0  0
 24 12  1  0  0  0  0
 24  5  1  1  0  0  0
 25 17  1  0  0  0  0
 25 19  1  0  0  0  0
 26 13  1  6  0  0  0
 26 24  1  0  0  0  0
 28 16  1  1  0  0  0
 28 12  1  0  0  0  0
M  END
>  <MODEL>
3

>  <REMARK>
 VINA RESULT:      -1.7      2.736      4.622
  Name = 
  0 active torsions:
  status: ('A' for Active; 'I' for Inactive)
                            x       y       z     vdW  Elec       q    Type
                         _______ _______ _______ _____ _____    ______ ____

>  <TORSDO>
F 0

$$$$
=
 OpenBabel11122414103D

 28 32  0  0  1  0  0  0  0  0999 V2000
  162.5490  211.3900  139.3950 C   0  0  0  0  0  0  0  0  0  0  0  0
  158.1870  212.3100  142.1020 F   0  0  0  0  0  0  0  0  0  0  0  0
  159.8180  208.3850  137.3390 O   0  0  0  0  0  0  0  0  0  0  0  0
  162.1750  212.8110  137.0110 C   0  0  0  0  0  3  0  0  0  0  0  0
  158.3230  210.0590  138.0550 N   0  0  0  0  0  0  0  0  0  0  0  0
  162.7140  210.6320  140.5550 O   0  0  0  0  0  0  0  0  0  0  0  0
  159.4480  214.1720  141.9860 F   0  0  0  0  0  0  0  0  0  0  0  0
  158.5200  213.4000  141.3140 C   0  0  0  0  0  0  0  0  0  0  0  0
  156.3850  213.7680  140.0970 C   0  0  0  0  0  0  0  0  0  0  0  0
  159.1100  212.9470  139.9670 C   0  0  2  0  0  3  0  0  0  0  0  0
  162.7370  207.6570  138.9240 O   0  0  0  0  0  0  0  0  0  0  0  0
  159.4410  210.5360  140.1040 C   0  0  1  0  0  3  0  0  0  0  0  0
  156.7380  212.7750  139.1840 O   0  0  0  0  0  0  0  0  0  0  0  0
  157.3230  214.1930  141.0820 N   0  0  0  0  0  2  0  0  0  0  0  0
  162.3110  208.4030  139.7900 C   0  0  0  0  0  0  0  0  0  0  0  0
  161.3230  212.0350  139.1570 C   0  0  0  0  0  0  0  0  0  0  0  0
  159.4770  209.2570  138.1840 C   0  0  0  0  0  0  0  0  0  0  0  0
  154.9050  214.4530  140.0300 S   0  0  0  0  0  0  0  0  0  0  0  0
  160.8500  208.4110  140.1110 C   0  0  0  0  0  2  0  0  0  0  0  0
  161.1450  212.7340  137.9490 C   0  0  0  0  0  3  0  0  0  0  0  0
  163.5790  211.4650  138.4450 C   0  0  0  0  0  3  0  0  0  0  0  0
  163.3940  212.1790  137.2600 C   0  0  0  0  0  3  0  0  0  0  0  0
  163.2550  209.3170  140.5130 C   0  0  0  0  0  2  0  0  0  0  0  0
  158.1440  210.7850  139.3030 C   0  0  1  0  0  3  0  0  0  0  0  0
  160.1720  209.4840  139.3940 N   0  0  0  0  0  0  0  0  0  0  0  0
  158.0750  212.2810  139.0480 C   0  0  2  0  0  3  0  0  0  0  0  0
  157.2660  209.8340  137.0820 C   0  0  0  0  0  1  0  0  0  0  0  0
  160.1920  211.8870  140.1620 C   0  0  1  0  0  3  0  0  0  0  0  0
  1  6  1  0  0  0  0
  3 17  2  0  0  0  0
  4 22  2  0  0  0  0
  4 20  1  0  0  0  0
  5 17  1  0  0  0  0
  8  7  1  0  0  0  0
  8  2  1  0  0  0  0
  9 14  1  0  0  0  0
 10 28  1  0  0  0  0
 10  8  1  1  0  0  0
 11 15  2  0  0  0  0
 12 25  1  6  0  0  0
 12 28  1  0  0  0  0
 13  9  1  0  0  0  0
 14  8  1  0  0  0  0
 15 19  1  0  0  0  0
 15 23  1  0  0  0  0
 16  1  1  0  0  0  0
 17 25  1  0  0  0  0
 18  9  2  0  0  0  0
 20 16  2  0  0  0  0
 21  1  2  0  0  0  0
 22 21  1  0  0  0  0
 23  6  1  0  0  0  0
 24  5  1  6  0  0  0
 24 12  1  0  0  0  0
 25 19  1  0  0  0  0
 26 13  1  1  0  0  0
 26 24  1  0  0  0  0
 26 10  1  0  0  0  0
 27  5  1  0  0  0  0
 28 16  1  6  0  0  0
M  END
>  <MODEL>
4

>  <REMARK>
 VINA RESULT:      -0.5     13.728     15.202
  Name = 
  0 active torsions:
  status: ('A' for Active; 'I' for Inactive)
                            x       y       z     vdW  Elec       q    Type
                         _______ _______ _______ _____ _____    ______ ____

>  <TORSDO>
F 0

$$$$
