=
 OpenBabel11122413473D

 37 43  0  0  1  0  0  0  0  0999 V2000
  160.6170  210.6490  148.2340 C   0  0  0  0  0  2  0  0  0  0  0  0
  161.4890  205.2710  146.2610 C   0  0  0  0  0  0  0  0  0  0  0  0
  160.8630  206.6720  150.1380 C   0  0  0  0  0  0  0  0  0  0  0  0
  160.8670  211.9240  147.4090 C   0  0  1  0  0  3  0  0  0  0  0  0
  162.5720  209.5720  151.1730 C   0  0  0  0  0  2  0  0  0  0  0  0
  161.4270  204.7010  148.6920 C   0  0  0  0  0  0  0  0  0  0  0  0
  161.0070  208.0420  149.9350 C   0  0  0  0  0  0  0  0  0  0  0  0
  162.8810  212.4400  148.6100 C   0  0  1  0  0  3  0  0  0  0  0  0
  161.0850  206.0910  148.9260 C   0  0  0  0  0  0  0  0  0  0  0  0
  161.1380  209.0730  151.0300 C   0  0  1  0  0  3  0  0  0  0  0  0
  161.8530  203.6820  150.1100 S   0  0  0  0  0  0  0  0  0  0  0  0
  162.2890  212.2570  147.2860 N   0  0  0  0  0  2  0  0  0  0  0  0
  161.2770  207.0740  148.0060 C   0  0  0  0  0  0  0  0  0  0  0  0
  160.0560  205.1560  145.7720 C   0  0  0  0  0  1  0  0  0  0  0  0
  161.7660  206.3150  152.4120 C   0  0  0  0  0  2  0  0  0  0  0  0
  160.5670  204.3950  151.2150 C   0  0  0  0  0  2  0  0  0  0  0  0
  161.7850  206.7520  146.6270 C   0  0  0  0  0  2  0  0  0  0  0  0
  163.2920  211.1060  149.2570 C   0  0  1  0  0  3  0  0  0  0  0  0
  162.6420  210.9930  150.6390 C   0  0  0  0  0  2  0  0  0  0  0  0
  160.6830  205.9190  151.4220 C   0  0  2  0  0  3  0  0  0  0  0  0
  161.2430  208.2810  148.6110 N   0  0  0  0  0  0  0  0  0  0  0  0
  161.6930  204.3210  147.4350 C   0  0  0  0  0  3  0  0  0  0  0  0
  160.5440  208.6110  152.3750 C   0  0  1  0  0  3  0  0  0  0  0  0
  162.4110  204.8550  145.1340 C   0  0  0  0  0  1  0  0  0  0  0  0
  163.0990  209.8790  148.3380 C   0  0  0  0  0  2  0  0  0  0  0  0
  164.0010  213.2650  148.5080 O   0  0  0  0  0  1  0  0  0  0  0  0
  161.6420  209.5360  147.9760 C   0  0  2  0  0  3  0  0  0  0  0  0
  161.3980  207.6000  153.1690 C   0  0  0  0  0  2  0  0  0  0  0  0
  160.3410  209.7170  154.6060 C   0  0  0  0  0  3  0  0  0  0  0  0
  160.1230  209.7700  153.2240 C   0  0  0  0  0  0  0  0  0  0  0  0
  159.4890  210.8910  152.6650 C   0  0  0  0  0  3  0  0  0  0  0  0
  158.4460  213.0850  152.9120 N   0  0  0  0  0  1  0  0  0  0  0  0
  159.3110  211.8940  154.8610 C   0  0  0  0  0  3  0  0  0  0  0  0
  159.0870  211.9500  153.4830 C   0  0  0  0  0  0  0  0  0  0  0  0
  159.9380  210.7770  155.4220 C   0  0  0  0  0  3  0  0  0  0  0  0
  160.9280  212.6210  145.1250 O   0  0  0  0  0  1  0  0  0  0  0  0
  160.2670  211.7800  146.0210 C   0  0  0  0  0  2  0  0  0  0  0  0
  2 17  1  0  0  0  0
  2 22  1  0  0  0  0
  3 20  1  0  0  0  0
  4 37  1  6  0  0  0
  4  1  1  0  0  0  0
  6  9  1  0  0  0  0
  6 11  1  0  0  0  0
  7  3  2  0  0  0  0
  7 10  1  0  0  0  0
  8 26  1  6  0  0  0
  8 18  1  0  0  0  0
  9  3  1  0  0  0  0
 10  5  1  1  0  0  0
 10 23  1  0  0  0  0
 11 16  1  0  0  0  0
 12  4  1  0  0  0  0
 12  8  1  0  0  0  0
 13 21  1  0  0  0  0
 13  9  2  0  0  0  0
 14  2  1  0  0  0  0
 15 28  1  0  0  0  0
 17 13  1  0  0  0  0
 18 25  1  6  0  0  0
 18 19  1  0  0  0  0
 19  5  1  0  0  0  0
 20 16  1  6  0  0  0
 20 15  1  0  0  0  0
 21  7  1  0  0  0  0
 22  6  2  0  0  0  0
 23 28  1  0  0  0  0
 23 30  1  1  0  0  0
 24  2  1  0  0  0  0
 27  1  1  1  0  0  0
 27 25  1  0  0  0  0
 27 21  1  0  0  0  0
 29 35  1  0  0  0  0
 30 29  2  0  0  0  0
 31 30  1  0  0  0  0
 31 34  2  0  0  0  0
 32 34  1  0  0  0  0
 33 35  2  0  0  0  0
 34 33  1  0  0  0  0
 36 37  1  0  0  0  0
M  END
>  <MODEL>
1

>  <REMARK>
 VINA RESULT:      -0.3      0.000      0.000
  Name = 
  2 active torsions:
  status: ('A' for Active; 'I' for Inactive)
    1  A    between atoms: CA_4  and  C_37
    2  A    between atoms: C_23  and  C_30
                            x       y       z     vdW  Elec       q    Type
                         _______ _______ _______ _____ _____    ______ ____

>  <TORSDO>
F 2

$$$$
=
 OpenBabel11122413473D

 37 43  0  0  1  0  0  0  0  0999 V2000
  160.2550  209.2530  150.7980 C   0  0  0  0  0  2  0  0  0  0  0  0
  161.1570  208.9010  156.5110 C   0  0  0  0  0  0  0  0  0  0  0  0
  158.9690  211.6560  154.2720 C   0  0  0  0  0  0  0  0  0  0  0  0
  161.0550  208.4630  149.7460 C   0  0  1  0  0  3  0  0  0  0  0  0
  160.3830  212.9070  151.2990 C   0  0  0  0  0  2  0  0  0  0  0  0
  159.8570  211.0340  156.5340 C   0  0  0  0  0  0  0  0  0  0  0  0
  159.3940  211.3270  152.9870 C   0  0  0  0  0  0  0  0  0  0  0  0
  162.3010  210.4040  149.0760 C   0  0  1  0  0  3  0  0  0  0  0  0
  159.6540  210.8320  155.1130 C   0  0  0  0  0  0  0  0  0  0  0  0
  159.1360  212.1540  151.7500 C   0  0  1  0  0  3  0  0  0  0  0  0
  159.3970  212.6220  157.2400 S   0  0  0  0  0  0  0  0  0  0  0  0
  162.3940  209.0120  149.5150 N   0  0  0  0  0  2  0  0  0  0  0  0
  160.4060  209.9810  154.3630 C   0  0  0  0  0  0  0  0  0  0  0  0
  160.1330  207.7900  156.6620 C   0  0  0  0  0  1  0  0  0  0  0  0
  158.6110  214.1000  154.1670 C   0  0  0  0  0  2  0  0  0  0  0  0
  157.8600  212.8030  156.2440 C   0  0  0  0  0  2  0  0  0  0  0  0
  161.4580  209.1140  155.0010 C   0  0  0  0  0  2  0  0  0  0  0  0
  162.1500  211.3800  150.2550 C   0  0  1  0  0  3  0  0  0  0  0  0
  160.9100  212.2510  150.0330 C   0  0  0  0  0  2  0  0  0  0  0  0
  158.0880  212.7840  154.7180 C   0  0  2  0  0  3  0  0  0  0  0  0
  160.2660  210.2790  153.0540 N   0  0  0  0  0  0  0  0  0  0  0  0
  160.6310  210.1600  157.1910 C   0  0  0  0  0  3  0  0  0  0  0  0
  157.9110  213.0790  151.8800 C   0  0  1  0  0  3  0  0  0  0  0  0
  162.4320  208.4710  157.2040 C   0  0  0  0  0  1  0  0  0  0  0  0
  162.2400  210.7060  151.6410 C   0  0  0  0  0  2  0  0  0  0  0  0
  163.4410  210.7370  148.3450 O   0  0  0  0  0  1  0  0  0  0  0  0
  161.1020  209.7290  151.9860 C   0  0  2  0  0  3  0  0  0  0  0  0
  158.1210  214.3480  152.7330 C   0  0  0  0  0  2  0  0  0  0  0  0
  156.1380  214.1580  150.4910 C   0  0  0  0  0  3  0  0  0  0  0  0
  157.3120  213.3990  150.5460 C   0  0  0  0  0  0  0  0  0  0  0  0
  157.8880  212.9270  149.3560 C   0  0  0  0  0  3  0  0  0  0  0  0
  157.8860  212.7440  146.9210 N   0  0  0  0  0  1  0  0  0  0  0  0
  156.1280  213.9850  148.0750 C   0  0  0  0  0  3  0  0  0  0  0  0
  157.2980  213.2220  148.1250 C   0  0  0  0  0  0  0  0  0  0  0  0
  155.5480  214.4530  149.2590 C   0  0  0  0  0  3  0  0  0  0  0  0
  160.4500  206.1990  149.2870 O   0  0  0  0  0  1  0  0  0  0  0  0
  161.1780  207.0080  150.1600 C   0  0  0  0  0  2  0  0  0  0  0  0
  2 14  1  0  0  0  0
  2 22  1  0  0  0  0
  2 24  1  0  0  0  0
  3 20  1  0  0  0  0
  3  9  1  0  0  0  0
  4 37  1  1  0  0  0
  4  1  1  0  0  0  0
  6 22  2  0  0  0  0
  6 11  1  0  0  0  0
  7 21  1  0  0  0  0
  7  3  2  0  0  0  0
  8 26  1  1  0  0  0
  8 12  1  0  0  0  0
  8 18  1  0  0  0  0
  9  6  1  0  0  0  0
 10  5  1  1  0  0  0
 10 23  1  0  0  0  0
 10  7  1  0  0  0  0
 12  4  1  0  0  0  0
 13 17  1  0  0  0  0
 13  9  2  0  0  0  0
 16 11  1  0  0  0  0
 17  2  1  0  0  0  0
 18 19  1  6  0  0  0
 18 25  1  0  0  0  0
 19  5  1  0  0  0  0
 20 15  1  1  0  0  0
 20 16  1  0  0  0  0
 21 13  1  0  0  0  0
 23 30  1  6  0  0  0
 23 28  1  0  0  0  0
 25 27  1  0  0  0  0
 27  1  1  6  0  0  0
 27 21  1  0  0  0  0
 28 15  1  0  0  0  0
 29 30  1  0  0  0  0
 31 30  2  0  0  0  0
 32 34  1  0  0  0  0
 33 34  2  0  0  0  0
 33 35  1  0  0  0  0
 34 31  1  0  0  0  0
 35 29  2  0  0  0  0
 36 37  1  0  0  0  0
M  END
>  <MODEL>
2

>  <REMARK>
 VINA RESULT:       0.2      3.459      7.167
  Name = 
  2 active torsions:
  status: ('A' for Active; 'I' for Inactive)
    1  A    between atoms: CA_4  and  C_37
    2  A    between atoms: C_23  and  C_30
                            x       y       z     vdW  Elec       q    Type
                         _______ _______ _______ _____ _____    ______ ____

>  <TORSDO>
F 2

$$$$
=
 OpenBabel11122413473D

 37 43  0  0  1  0  0  0  0  0999 V2000
  160.0520  212.9150  153.9820 C   0  0  0  0  0  2  0  0  0  0  0  0
  160.5260  207.6160  156.2780 C   0  0  0  0  0  0  0  0  0  0  0  0
  161.4820  209.0210  152.4700 C   0  0  0  0  0  0  0  0  0  0  0  0
  159.2440  214.0630  154.6140 C   0  0  1  0  0  3  0  0  0  0  0  0
  159.2040  211.1610  150.8480 C   0  0  0  0  0  2  0  0  0  0  0  0
  161.2770  207.0220  153.9710 C   0  0  0  0  0  0  0  0  0  0  0  0
  160.8730  210.2730  152.5050 C   0  0  0  0  0  0  0  0  0  0  0  0
  157.4720  213.8480  153.0080 C   0  0  1  0  0  3  0  0  0  0  0  0
  161.2040  208.4380  153.6690 C   0  0  0  0  0  0  0  0  0  0  0  0
  160.6580  211.1670  151.3080 C   0  0  1  0  0  3  0  0  0  0  0  0
  161.5040  205.8740  152.6070 S   0  0  0  0  0  0  0  0  0  0  0  0
  157.7980  213.9130  154.4320 N   0  0  0  0  0  2  0  0  0  0  0  0
  160.5220  209.3320  154.4350 C   0  0  0  0  0  0  0  0  0  0  0  0
  161.7840  207.9960  157.0390 C   0  0  0  0  0  1  0  0  0  0  0  0
  161.2400  208.3130  150.1130 C   0  0  0  0  0  2  0  0  0  0  0  0
  162.7020  206.9340  151.7000 C   0  0  0  0  0  2  0  0  0  0  0  0
  159.8620  208.9050  155.7180 C   0  0  0  0  0  2  0  0  0  0  0  0
  157.6500  212.4330  152.4310 C   0  0  1  0  0  3  0  0  0  0  0  0
  158.5780  212.4960  151.2150 C   0  0  0  0  0  2  0  0  0  0  0  0
  162.1570  208.3280  151.3240 C   0  0  2  0  0  3  0  0  0  0  0  0
  160.3000  210.4620  153.7300 N   0  0  0  0  0  0  0  0  0  0  0  0
  160.8860  206.6150  155.1870 C   0  0  0  0  0  3  0  0  0  0  0  0
  161.6370  210.8840  150.1530 C   0  0  1  0  0  3  0  0  0  0  0  0
  159.5660  206.9570  157.2460 C   0  0  0  0  0  1  0  0  0  0  0  0
  158.0210  211.3680  153.4870 C   0  0  0  0  0  2  0  0  0  0  0  0
  156.1540  214.2610  152.8150 O   0  0  0  0  0  1  0  0  0  0  0  0
  159.4000  211.5360  154.1500 C   0  0  2  0  0  3  0  0  0  0  0  0
  161.3340  209.6220  149.3150 C   0  0  0  0  0  2  0  0  0  0  0  0
  161.3060  213.3170  149.6950 C   0  0  0  0  0  3  0  0  0  0  0  0
  161.8400  212.0890  149.2880 C   0  0  0  0  0  0  0  0  0  0  0  0
  162.5270  212.0020  148.0670 C   0  0  0  0  0  3  0  0  0  0  0  0
  163.3830  213.0460  146.0320 N   0  0  0  0  0  1  0  0  0  0  0  0
  162.1530  214.3630  147.6810 C   0  0  0  0  0  3  0  0  0  0  0  0
  162.6840  213.1370  147.2680 C   0  0  0  0  0  0  0  0  0  0  0  0
  161.4640  214.4520  148.8950 C   0  0  0  0  0  3  0  0  0  0  0  0
  158.4510  213.7470  156.8450 O   0  0  0  0  0  1  0  0  0  0  0  0
  159.5510  214.1690  156.0970 C   0  0  0  0  0  2  0  0  0  0  0  0
  1 27  1  0  0  0  0
  1  4  1  0  0  0  0
  2 14  1  0  0  0  0
  2 24  1  0  0  0  0
  3  7  2  0  0  0  0
  3  9  1  0  0  0  0
  4 37  1  1  0  0  0
  5 19  1  0  0  0  0
  6 22  2  0  0  0  0
  7 21  1  0  0  0  0
  8 26  1  1  0  0  0
  8 12  1  0  0  0  0
  9  6  1  0  0  0  0
  9 13  2  0  0  0  0
 10  5  1  6  0  0  0
 10  7  1  0  0  0  0
 11  6  1  0  0  0  0
 12  4  1  0  0  0  0
 13 17  1  0  0  0  0
 16 11  1  0  0  0  0
 17  2  1  0  0  0  0
 18 19  1  6  0  0  0
 18  8  1  0  0  0  0
 18 25  1  0  0  0  0
 20 15  1  6  0  0  0
 20 16  1  0  0  0  0
 20  3  1  0  0  0  0
 21 27  1  0  0  0  0
 21 13  1  0  0  0  0
 22  2  1  0  0  0  0
 23 30  1  6  0  0  0
 23 10  1  0  0  0  0
 27 25  1  6  0  0  0
 28 15  1  0  0  0  0
 28 23  1  0  0  0  0
 30 29  1  0  0  0  0
 31 30  2  0  0  0  0
 32 34  1  0  0  0  0
 33 35  1  0  0  0  0
 34 33  2  0  0  0  0
 34 31  1  0  0  0  0
 35 29  2  0  0  0  0
 37 36  1  0  0  0  0
M  END
>  <MODEL>
3

>  <REMARK>
 VINA RESULT:       0.2      3.424      7.120
  Name = 
  2 active torsions:
  status: ('A' for Active; 'I' for Inactive)
    1  A    between atoms: CA_4  and  C_37
    2  A    between atoms: C_23  and  C_30
                            x       y       z     vdW  Elec       q    Type
                         _______ _______ _______ _____ _____    ______ ____

>  <TORSDO>
F 2

$$$$
=
 OpenBabel11122413473D

 37 43  0  0  1  0  0  0  0  0999 V2000
  160.2010  208.9620  150.8460 C   0  0  0  0  0  2  0  0  0  0  0  0
  161.1600  208.6030  156.5500 C   0  0  0  0  0  0  0  0  0  0  0  0
  159.1500  211.4910  154.3110 C   0  0  0  0  0  0  0  0  0  0  0  0
  160.9230  208.1040  149.7920 C   0  0  1  0  0  3  0  0  0  0  0  0
  160.6100  212.6010  151.3040 C   0  0  0  0  0  2  0  0  0  0  0  0
  160.0230  210.8270  156.5670 C   0  0  0  0  0  0  0  0  0  0  0  0
  159.5300  211.1180  153.0240 C   0  0  0  0  0  0  0  0  0  0  0  0
  162.3010  209.9380  149.0820 C   0  0  1  0  0  3  0  0  0  0  0  0
  159.7850  210.6270  155.1510 C   0  0  0  0  0  0  0  0  0  0  0  0
  159.3170  211.9490  151.7810 C   0  0  1  0  0  3  0  0  0  0  0  0
  159.6950  212.4520  157.2610 S   0  0  0  0  0  0  0  0  0  0  0  0
  162.2960  208.5480  149.5350 N   0  0  0  0  0  2  0  0  0  0  0  0
  160.4590  209.7130  154.4000 C   0  0  0  0  0  0  0  0  0  0  0  0
  160.0580  207.5730  156.7280 C   0  0  0  0  0  1  0  0  0  0  0  0
  158.9760  213.9540  154.1830 C   0  0  0  0  0  2  0  0  0  0  0  0
  158.1610  212.7380  156.2850 C   0  0  0  0  0  2  0  0  0  0  0  0
  161.4530  208.7770  155.0330 C   0  0  0  0  0  2  0  0  0  0  0  0
  162.2410  210.9350  150.2520 C   0  0  1  0  0  3  0  0  0  0  0  0
  161.0670  211.8950  150.0380 C   0  0  0  0  0  2  0  0  0  0  0  0
  158.3640  212.6870  154.7560 C   0  0  2  0  0  3  0  0  0  0  0  0
  160.3230  210.0080  153.0900 N   0  0  0  0  0  0  0  0  0  0  0  0
  160.7400  209.9040  157.2230 C   0  0  0  0  0  3  0  0  0  0  0  0
  158.1670  212.9640  151.9180 C   0  0  1  0  0  3  0  0  0  0  0  0
  162.4090  208.0840  157.2300 C   0  0  0  0  0  1  0  0  0  0  0  0
  162.3010  210.2710  151.6450 C   0  0  0  0  0  2  0  0  0  0  0  0
  163.4520  210.1770  148.3320 O   0  0  0  0  0  1  0  0  0  0  0  0
  161.0980  209.3850  152.0170 C   0  0  2  0  0  3  0  0  0  0  0  0
  158.4840  214.2230  152.7530 C   0  0  0  0  0  2  0  0  0  0  0  0
  158.3850  213.2760  149.4490 C   0  0  0  0  0  3  0  0  0  0  0  0
  157.5740  213.3150  150.5890 C   0  0  0  0  0  0  0  0  0  0  0  0
  156.2320  213.7110  150.4710 C   0  0  0  0  0  3  0  0  0  0  0  0
  154.3480  214.4530  149.1060 N   0  0  0  0  0  1  0  0  0  0  0  0
  156.5220  214.0080  148.0860 C   0  0  0  0  0  3  0  0  0  0  0  0
  155.7090  214.0540  149.2220 C   0  0  0  0  0  0  0  0  0  0  0  0
  157.8600  213.6180  148.2000 C   0  0  0  0  0  3  0  0  0  0  0  0
  160.6570  205.8250  149.1310 O   0  0  0  0  0  1  0  0  0  0  0  0
  160.9420  206.6480  150.2210 C   0  0  0  0  0  2  0  0  0  0  0  0
  2 14  1  0  0  0  0
  2 22  1  0  0  0  0
  2 24  1  0  0  0  0
  3 20  1  0  0  0  0
  3  9  1  0  0  0  0
  4 37  1  1  0  0  0
  4  1  1  0  0  0  0
  6 22  2  0  0  0  0
  6 11  1  0  0  0  0
  7 21  1  0  0  0  0
  7  3  2  0  0  0  0
  8 26  1  1  0  0  0
  8 12  1  0  0  0  0
  8 18  1  0  0  0  0
  9  6  1  0  0  0  0
 10  5  1  1  0  0  0
 10 23  1  0  0  0  0
 10  7  1  0  0  0  0
 12  4  1  0  0  0  0
 13 17  1  0  0  0  0
 13  9  2  0  0  0  0
 16 11  1  0  0  0  0
 17  2  1  0  0  0  0
 18 19  1  1  0  0  0
 18 25  1  0  0  0  0
 19  5  1  0  0  0  0
 20 15  1  1  0  0  0
 20 16  1  0  0  0  0
 21 13  1  0  0  0  0
 23 30  1  6  0  0  0
 23 28  1  0  0  0  0
 25 27  1  0  0  0  0
 27  1  1  6  0  0  0
 27 21  1  0  0  0  0
 28 15  1  0  0  0  0
 29 30  1  0  0  0  0
 31 30  2  0  0  0  0
 32 34  1  0  0  0  0
 33 35  1  0  0  0  0
 33 34  2  0  0  0  0
 34 31  1  0  0  0  0
 35 29  2  0  0  0  0
 36 37  1  0  0  0  0
M  END
>  <MODEL>
4

>  <REMARK>
 VINA RESULT:       0.7      3.457      7.088
  Name = 
  2 active torsions:
  status: ('A' for Active; 'I' for Inactive)
    1  A    between atoms: CA_4  and  C_37
    2  A    between atoms: C_23  and  C_30
                            x       y       z     vdW  Elec       q    Type
                         _______ _______ _______ _____ _____    ______ ____

>  <TORSDO>
F 2

$$$$
=
 OpenBabel11122413473D

 37 43  0  0  1  0  0  0  0  0999 V2000
  160.3030  211.4230  147.8110 C   0  0  0  0  0  2  0  0  0  0  0  0
  161.9560  205.8820  147.4400 C   0  0  0  0  0  0  0  0  0  0  0  0
  161.0120  208.2170  150.7640 C   0  0  0  0  0  0  0  0  0  0  0  0
  160.4080  212.4370  146.6570 C   0  0  1  0  0  3  0  0  0  0  0  0
  162.2800  211.4990  150.9260 C   0  0  0  0  0  2  0  0  0  0  0  0
  161.8850  206.0170  149.9330 C   0  0  0  0  0  0  0  0  0  0  0  0
  160.9780  209.4810  150.1790 C   0  0  0  0  0  0  0  0  0  0  0  0
  162.2920  213.5430  147.6540 C   0  0  1  0  0  3  0  0  0  0  0  0
  161.3520  207.3550  149.7650 C   0  0  0  0  0  0  0  0  0  0  0  0
  160.9320  210.7860  150.9370 C   0  0  1  0  0  3  0  0  0  0  0  0
  162.3940  205.5070  151.5800 S   0  0  0  0  0  0  0  0  0  0  0  0
  161.7760  212.9150  146.4380 N   0  0  0  0  0  2  0  0  0  0  0  0
  161.4420  208.0560  148.6030 C   0  0  0  0  0  0  0  0  0  0  0  0
  160.5690  205.4380  147.0090 C   0  0  0  0  0  1  0  0  0  0  0  0
  161.8750  208.6430  153.0410 C   0  0  0  0  0  2  0  0  0  0  0  0
  160.9860  206.3170  152.4430 C   0  0  0  0  0  2  0  0  0  0  0  0
  162.0370  207.4330  147.3690 C   0  0  0  0  0  2  0  0  0  0  0  0
  162.8540  212.5150  148.6510 C   0  0  1  0  0  3  0  0  0  0  0  0
  162.1780  212.7070  150.0110 C   0  0  0  0  0  2  0  0  0  0  0  0
  160.8900  207.8390  152.2090 C   0  0  2  0  0  3  0  0  0  0  0  0
  161.2270  209.3680  148.8410 N   0  0  0  0  0  0  0  0  0  0  0  0
  162.2430  205.3390  148.8340 C   0  0  0  0  0  3  0  0  0  0  0  0
  160.3580  210.6440  152.3600 C   0  0  1  0  0  3  0  0  0  0  0  0
  162.9640  205.2980  146.4730 C   0  0  0  0  0  1  0  0  0  0  0  0
  162.8600  211.0650  148.1190 C   0  0  0  0  0  2  0  0  0  0  0  0
  163.2930  214.4530  147.3170 O   0  0  0  0  0  1  0  0  0  0  0  0
  161.4760  210.4360  147.8750 C   0  0  2  0  0  3  0  0  0  0  0  0
  161.3120  210.0250  153.4050 C   0  0  0  0  0  2  0  0  0  0  0  0
  159.3390  212.8800  151.9130 C   0  0  0  0  0  3  0  0  0  0  0  0
  159.7560  211.9250  152.8480 C   0  0  0  0  0  0  0  0  0  0  0  0
  159.6330  212.1970  154.2190 C   0  0  0  0  0  3  0  0  0  0  0  0
  158.9620  213.6800  156.0390 N   0  0  0  0  0  1  0  0  0  0  0  0
  158.6670  214.3570  153.7110 C   0  0  0  0  0  3  0  0  0  0  0  0
  159.0880  213.4090  154.6480 C   0  0  0  0  0  0  0  0  0  0  0  0
  158.7920  214.0920  152.3440 C   0  0  0  0  0  3  0  0  0  0  0  0
  158.9070  212.6540  144.8130 O   0  0  0  0  0  1  0  0  0  0  0  0
  159.8820  211.8260  145.3700 C   0  0  0  0  0  2  0  0  0  0  0  0
  2 22  1  0  0  0  0
  3 20  1  0  0  0  0
  4 37  1  6  0  0  0
  4  1  1  0  0  0  0
  6 11  1  0  0  0  0
  7  3  2  0  0  0  0
  7 10  1  0  0  0  0
  8 26  1  6  0  0  0
  8 18  1  0  0  0  0
  9  6  1  0  0  0  0
  9  3  1  0  0  0  0
 10  5  1  1  0  0  0
 10 23  1  0  0  0  0
 11 16  1  0  0  0  0
 12  4  1  0  0  0  0
 12  8  1  0  0  0  0
 13 21  1  0  0  0  0
 13  9  2  0  0  0  0
 14  2  1  0  0  0  0
 15 28  1  0  0  0  0
 17  2  1  0  0  0  0
 17 13  1  0  0  0  0
 18 25  1  6  0  0  0
 18 19  1  0  0  0  0
 19  5  1  0  0  0  0
 20 16  1  6  0  0  0
 20 15  1  0  0  0  0
 21  7  1  0  0  0  0
 22  6  2  0  0  0  0
 23 30  1  1  0  0  0
 23 28  1  0  0  0  0
 24  2  1  0  0  0  0
 27  1  1  1  0  0  0
 27 25  1  0  0  0  0
 27 21  1  0  0  0  0
 29 35  2  0  0  0  0
 29 30  1  0  0  0  0
 30 31  2  0  0  0  0
 31 34  1  0  0  0  0
 33 34  2  0  0  0  0
 34 32  1  0  0  0  0
 35 33  1  0  0  0  0
 36 37  1  0  0  0  0
M  END
>  <MODEL>
5

>  <REMARK>
 VINA RESULT:       2.3      1.434      2.049
  Name = 
  2 active torsions:
  status: ('A' for Active; 'I' for Inactive)
    1  A    between atoms: CA_4  and  C_37
    2  A    between atoms: C_23  and  C_30
                            x       y       z     vdW  Elec       q    Type
                         _______ _______ _______ _____ _____    ______ ____

>  <TORSDO>
F 2

$$$$
