=
 OpenBabel11122413543D

 37 43  0  0  1  0  0  0  0  0999 V2000
  162.5440  205.4470  147.2320 C   0  0  1  0  0  0  0  0  0  0  0  0
  160.6080  205.7830  150.5500 C   0  0  1  0  0  3  0  0  0  0  0  0
  160.3120  208.7360  152.0520 O   0  0  0  0  0  0  0  0  0  0  0  0
  160.7160  204.5190  148.2710 C   0  0  2  0  0  3  0  0  0  0  0  0
  161.4320  207.0500  150.7740 C   0  0  2  0  0  3  0  0  0  0  0  0
  160.3570  205.8060  149.0370 C   0  0  2  0  0  3  0  0  0  0  0  0
  161.2640  207.7100  152.1460 C   0  0  2  0  0  3  0  0  0  0  0  0
  160.2020  203.3220  149.0550 C   0  0  0  0  0  2  0  0  0  0  0  0
  161.0520  207.0650  148.5170 C   0  0  2  0  0  3  0  0  0  0  0  0
  161.7960  205.5380  146.0660 F   0  0  0  0  0  0  0  0  0  0  0  0
  161.2900  204.3970  152.5640 C   0  0  0  0  0  2  0  0  0  0  0  0
  160.8260  203.2200  150.4530 C   0  0  0  0  0  2  0  0  0  0  0  0
  162.4820  206.7530  148.0130 C   0  0  0  0  0  2  0  0  0  0  0  0
  162.4420  210.1300  151.8100 C   0  0  0  0  0  2  0  0  0  0  0  0
  160.9240  210.0170  151.9490 C   0  0  1  0  0  3  0  0  0  0  0  0
  161.3650  204.5340  151.0440 C   0  0  1  0  0  3  0  0  0  0  0  0
  161.0670  207.9620  149.6840 N   0  0  2  0  0  0  0  0  0  0  0  0
  162.1030  204.3860  148.0490 O   0  0  0  0  0  0  0  0  0  0  0  0
  160.9550  206.7560  153.3040 C   0  0  1  0  0  3  0  0  0  0  0  0
  163.9880  205.1960  146.8510 C   0  0  0  0  0  1  0  0  0  0  0  0
  161.5760  210.2650  150.5690 C   0  0  2  0  0  3  0  0  0  0  0  0
  161.9910  209.1150  149.6220 C   0  0  2  0  0  3  0  0  0  0  0  0
  161.9100  205.5670  153.3140 C   0  0  0  0  0  2  0  0  0  0  0  0
  160.1370  207.0800  155.6430 C   0  0  0  0  0  3  0  0  0  0  0  0
  161.0030  207.4740  154.6180 C   0  0  0  0  0  0  0  0  0  0  0  0
  161.8940  208.5380  154.8320 C   0  0  0  0  0  3  0  0  0  0  0  0
  162.7730  210.2250  156.2670 F   0  0  0  0  0  0  0  0  0  0  0  0
  161.0460  208.8000  157.0850 C   0  0  0  0  0  3  0  0  0  0  0  0
  161.9140  209.1990  156.0640 C   0  0  0  0  0  0  0  0  0  0  0  0
  160.1580  207.7420  156.8750 C   0  0  0  0  0  3  0  0  0  0  0  0
  162.0560  209.7210  148.2180 C   0  0  0  0  0  2  0  0  0  0  0  0
  162.0340  211.1780  148.2910 N   0  0  0  0  0  0  0  0  0  0  0  0
  163.2680  213.2320  147.9530 C   0  0  0  0  0  2  0  0  0  0  0  0
  163.2430  211.9500  148.2970 C   0  0  0  0  0  3  0  0  0  0  0  0
  160.7990  211.8400  148.2130 N   0  0  0  0  0  2  0  0  0  0  0  0
  160.4460  211.9500  146.8070 C   0  0  0  0  0  2  0  0  0  0  0  0
  159.5130  213.1260  146.6120 C   0  0  0  0  0  1  0  0  0  0  0  0
  1 20  1  6  0  0  0
  1 13  1  0  0  0  0
  1 18  1  0  0  0  0
  2  5  1  0  0  0  0
  2 16  1  0  0  0  0
  3  7  1  0  0  0  0
  4  6  1  0  0  0  0
  4  8  1  0  0  0  0
  5  7  1  0  0  0  0
  6  2  1  0  0  0  0
  7 19  1  0  0  0  0
  8 12  1  0  0  0  0
  9  6  1  0  0  0  0
  9 17  1  0  0  0  0
 10  1  1  0  0  0  0
 11 23  1  0  0  0  0
 12 16  1  0  0  0  0
 13  9  1  0  0  0  0
 14 15  1  0  0  0  0
 15  3  1  0  0  0  0
 16 11  1  0  0  0  0
 17  5  1  0  0  0  0
 18  4  1  0  0  0  0
 19 23  1  0  0  0  0
 19 25  1  0  0  0  0
 21 14  1  0  0  0  0
 21 15  1  0  0  0  0
 22 17  1  0  0  0  0
 22 21  1  0  0  0  0
 24 30  1  0  0  0  0
 25 26  1  0  0  0  0
 25 24  2  0  0  0  0
 26 29  2  0  0  0  0
 29 27  1  0  0  0  0
 29 28  1  0  0  0  0
 30 28  2  0  0  0  0
 31 32  1  0  0  0  0
 31 22  1  0  0  0  0
 32 34  1  0  0  0  0
 33 34  2  0  0  0  0
 35 32  1  0  0  0  0
 36 35  1  0  0  0  0
 37 36  1  0  0  0  0
M  END
>  <MODEL>
1

>  <REMARK>
 VINA RESULT:      -7.2      0.000      0.000
  Name = 
  6 active torsions:
  status: ('A' for Active; 'I' for Inactive)
    1  A    between atoms: C_1  and  N_4
    2  A    between atoms: C_1  and  C_27
    3  A    between atoms: N_4  and  N_12
    4  A    between atoms: N_4  and  C_37
    5  A    between atoms: C_8  and  N_12
    6  A    between atoms: C_23  and  C_30
                            x       y       z     vdW  Elec       q    Type
                         _______ _______ _______ _____ _____    ______ ____

>  <TORSDO>
F 6

$$$$
=
 OpenBabel11122413543D

 37 43  0  0  1  0  0  0  0  0999 V2000
  160.2840  210.9230  153.8350 C   0  0  1  0  0  0  0  0  0  0  0  0
  161.7280  207.5180  152.7430 C   0  0  1  0  0  3  0  0  0  0  0  0
  162.7730  207.0390  149.6210 O   0  0  0  0  0  0  0  0  0  0  0  0
  161.5310  209.2070  154.7200 C   0  0  2  0  0  3  0  0  0  0  0  0
  161.3500  207.9380  151.3230 C   0  0  2  0  0  3  0  0  0  0  0  0
  162.1840  208.8380  153.3760 C   0  0  2  0  0  3  0  0  0  0  0  0
  161.5300  206.8620  150.2480 C   0  0  2  0  0  3  0  0  0  0  0  0
  161.4990  207.9720  155.6060 C   0  0  0  0  0  2  0  0  0  0  0  0
  162.0300  209.9000  152.2860 C   0  0  2  0  0  3  0  0  0  0  0  0
  161.1780  211.8230  154.4000 F   0  0  0  0  0  0  0  0  0  0  0  0
  160.3430  205.4070  153.0100 C   0  0  0  0  0  2  0  0  0  0  0  0
  160.6840  206.8260  154.9920 C   0  0  0  0  0  2  0  0  0  0  0  0
  160.6660  210.6230  152.3920 C   0  0  0  0  0  2  0  0  0  0  0  0
  161.2870  208.2590  147.9360 C   0  0  0  0  0  2  0  0  0  0  0  0
  162.6440  207.7080  148.3710 C   0  0  1  0  0  3  0  0  0  0  0  0
  160.5360  206.8550  153.4610 C   0  0  1  0  0  3  0  0  0  0  0  0
  162.1490  209.1350  151.0350 N   0  0  2  0  0  0  0  0  0  0  0  0
  160.2250  209.7210  154.5680 O   0  0  0  0  0  0  0  0  0  0  0  0
  161.3360  205.4180  150.7210 C   0  0  1  0  0  3  0  0  0  0  0  0
  158.9090  211.5570  153.8350 C   0  0  0  0  0  1  0  0  0  0  0  0
  162.3160  209.2110  148.5220 C   0  0  2  0  0  3  0  0  0  0  0  0
  161.6810  209.8040  149.8020 C   0  0  2  0  0  3  0  0  0  0  0  0
  160.0480  205.2660  151.5240 C   0  0  0  0  0  2  0  0  0  0  0  0
  161.0550  203.1190  149.7840 C   0  0  0  0  0  3  0  0  0  0  0  0
  161.3430  204.4690  149.5620 C   0  0  0  0  0  0  0  0  0  0  0  0
  161.6420  204.9110  148.2630 C   0  0  0  0  0  3  0  0  0  0  0  0
  161.9400  204.4330  145.9470 F   0  0  0  0  0  0  0  0  0  0  0  0
  161.3610  202.6560  147.4270 C   0  0  0  0  0  3  0  0  0  0  0  0
  161.6500  204.0040  147.1980 C   0  0  0  0  0  0  0  0  0  0  0  0
  161.0640  202.2130  148.7190 C   0  0  0  0  0  3  0  0  0  0  0  0
  162.0220  211.2960  149.7950 C   0  0  0  0  0  2  0  0  0  0  0  0
  161.1490  212.0140  148.8720 N   0  0  0  0  0  0  0  0  0  0  0  0
  160.2900  213.7240  150.3530 C   0  0  0  0  0  2  0  0  0  0  0  0
  160.1080  212.8810  149.3430 C   0  0  0  0  0  3  0  0  0  0  0  0
  161.4270  211.9590  147.4980 N   0  0  0  0  0  2  0  0  0  0  0  0
  162.5500  212.8480  147.2410 C   0  0  0  0  0  2  0  0  0  0  0  0
  162.4530  213.3840  145.8280 C   0  0  0  0  0  1  0  0  0  0  0  0
  1 20  1  1  0  0  0
  1 10  1  0  0  0  0
  1 18  1  0  0  0  0
  2  6  1  0  0  0  0
  2 16  1  0  0  0  0
  3  7  1  0  0  0  0
  4  8  1  0  0  0  0
  5  2  1  0  0  0  0
  6  4  1  0  0  0  0
  7 19  1  0  0  0  0
  7  5  1  0  0  0  0
  9 13  1  0  0  0  0
  9  6  1  0  0  0  0
 11 16  1  0  0  0  0
 12  8  1  0  0  0  0
 13  1  1  0  0  0  0
 14 15  1  0  0  0  0
 14 21  1  0  0  0  0
 15 21  1  0  0  0  0
 15  3  1  0  0  0  0
 16 12  1  0  0  0  0
 17  5  1  0  0  0  0
 17  9  1  0  0  0  0
 18  4  1  0  0  0  0
 19 23  1  0  0  0  0
 21 22  1  0  0  0  0
 22 17  1  0  0  0  0
 23 11  1  0  0  0  0
 25 24  1  0  0  0  0
 25 19  1  0  0  0  0
 26 25  2  0  0  0  0
 27 29  1  0  0  0  0
 28 30  1  0  0  0  0
 29 28  2  0  0  0  0
 29 26  1  0  0  0  0
 30 24  2  0  0  0  0
 31 22  1  0  0  0  0
 32 34  1  0  0  0  0
 32 31  1  0  0  0  0
 34 33  2  0  0  0  0
 35 32  1  0  0  0  0
 36 35  1  0  0  0  0
 37 36  1  0  0  0  0
M  END
>  <MODEL>
2

>  <REMARK>
 VINA RESULT:      -6.5      1.687      6.175
  Name = 
  6 active torsions:
  status: ('A' for Active; 'I' for Inactive)
    1  A    between atoms: C_1  and  N_4
    2  A    between atoms: C_1  and  C_27
    3  A    between atoms: N_4  and  N_12
    4  A    between atoms: N_4  and  C_37
    5  A    between atoms: C_8  and  N_12
    6  A    between atoms: C_23  and  C_30
                            x       y       z     vdW  Elec       q    Type
                         _______ _______ _______ _____ _____    ______ ____

>  <TORSDO>
F 6

$$$$
=
 OpenBabel11122413543D

 37 43  0  0  1  0  0  0  0  0999 V2000
  161.8040  208.2840  148.4100 C   0  0  1  0  0  0  0  0  0  0  0  0
  161.5330  210.8740  151.2540 C   0  0  1  0  0  3  0  0  0  0  0  0
  161.2510  209.8960  154.4210 O   0  0  0  0  0  0  0  0  0  0  0  0
  162.5990  210.3770  148.9270 C   0  0  2  0  0  3  0  0  0  0  0  0
  160.8760  209.7550  152.0610 C   0  0  2  0  0  3  0  0  0  0  0  0
  162.6000  210.1260  150.4450 C   0  0  2  0  0  3  0  0  0  0  0  0
  160.3070  210.1710  153.4210 C   0  0  2  0  0  3  0  0  0  0  0  0
  162.4380  211.8690  148.6760 C   0  0  0  0  0  2  0  0  0  0  0  0
  162.4700  208.6550  150.8420 C   0  0  2  0  0  3  0  0  0  0  0  0
  163.0860  207.9270  148.0160 F   0  0  0  0  0  0  0  0  0  0  0  0
  159.6770  212.6060  151.2230 C   0  0  0  0  0  2  0  0  0  0  0  0
  161.1240  212.4240  149.2400 C   0  0  0  0  0  2  0  0  0  0  0  0
  161.5560  207.8840  149.8580 C   0  0  0  0  0  2  0  0  0  0  0  0
  159.8080  207.7950  154.6290 C   0  0  0  0  0  2  0  0  0  0  0  0
  160.9540  208.6850  155.1090 C   0  0  1  0  0  3  0  0  0  0  0  0
  160.4960  211.6190  150.3910 C   0  0  1  0  0  3  0  0  0  0  0  0
  161.8950  208.7080  152.1950 N   0  0  2  0  0  0  0  0  0  0  0  0
  161.5800  209.6680  148.2570 O   0  0  0  0  0  0  0  0  0  0  0  0
  159.7940  211.6120  153.5080 C   0  0  1  0  0  3  0  0  0  0  0  0
  160.8150  207.5360  147.5410 C   0  0  0  0  0  1  0  0  0  0  0  0
  161.2340  207.4240  154.2600 C   0  0  2  0  0  3  0  0  0  0  0  0
  161.3060  207.4550  152.7150 C   0  0  2  0  0  3  0  0  0  0  0  0
  158.8770  211.9470  152.3370 C   0  0  0  0  0  2  0  0  0  0  0  0
  159.7410  212.5670  155.8170 C   0  0  0  0  0  3  0  0  0  0  0  0
  159.0880  211.8510  154.8080 C   0  0  0  0  0  0  0  0  0  0  0  0
  157.7910  211.3620  155.0310 C   0  0  0  0  0  3  0  0  0  0  0  0
  155.9060  211.1170  156.4690 F   0  0  0  0  0  0  0  0  0  0  0  0
  157.8140  212.3070  157.2610 C   0  0  0  0  0  3  0  0  0  0  0  0
  157.1560  211.5910  156.2560 C   0  0  0  0  0  0  0  0  0  0  0  0
  159.1050  212.7950  157.0410 C   0  0  0  0  0  3  0  0  0  0  0  0
  162.1190  206.2260  152.3010 C   0  0  0  0  0  2  0  0  0  0  0  0
  161.2310  205.1490  151.8750 N   0  0  0  0  0  0  0  0  0  0  0  0
  160.9120  202.8090  152.4030 C   0  0  0  0  0  2  0  0  0  0  0  0
  160.8580  204.0860  152.7640 C   0  0  0  0  0  3  0  0  0  0  0  0
  160.6240  205.2320  150.6130 N   0  0  0  0  0  2  0  0  0  0  0  0
  161.5360  204.6410  149.6460 C   0  0  0  0  0  2  0  0  0  0  0  0
  160.8450  203.4940  148.9390 C   0  0  0  0  0  1  0  0  0  0  0  0
  1 20  1  6  0  0  0
  1 13  1  0  0  0  0
  2  5  1  0  0  0  0
  3 15  1  0  0  0  0
  4  6  1  0  0  0  0
  5 17  1  0  0  0  0
  5  7  1  0  0  0  0
  6  9  1  0  0  0  0
  6  2  1  0  0  0  0
  7 19  1  0  0  0  0
  7  3  1  0  0  0  0
  8  4  1  0  0  0  0
  8 12  1  0  0  0  0
  9 17  1  0  0  0  0
 10  1  1  0  0  0  0
 11 23  1  0  0  0  0
 12 16  1  0  0  0  0
 13  9  1  0  0  0  0
 14 15  1  0  0  0  0
 16 11  1  0  0  0  0
 16  2  1  0  0  0  0
 17 22  1  0  0  0  0
 18  1  1  0  0  0  0
 18  4  1  0  0  0  0
 19 25  1  0  0  0  0
 21 14  1  0  0  0  0
 21 15  1  0  0  0  0
 22 21  1  0  0  0  0
 23 19  1  0  0  0  0
 24 30  1  0  0  0  0
 25 26  1  0  0  0  0
 25 24  2  0  0  0  0
 26 29  2  0  0  0  0
 29 27  1  0  0  0  0
 29 28  1  0  0  0  0
 30 28  2  0  0  0  0
 31 22  1  0  0  0  0
 32 31  1  0  0  0  0
 32 34  1  0  0  0  0
 33 34  2  0  0  0  0
 35 32  1  0  0  0  0
 36 35  1  0  0  0  0
 37 36  1  0  0  0  0
M  END
>  <MODEL>
3

>  <REMARK>
 VINA RESULT:      -5.7      2.781      6.044
  Name = 
  6 active torsions:
  status: ('A' for Active; 'I' for Inactive)
    1  A    between atoms: C_1  and  N_4
    2  A    between atoms: C_1  and  C_27
    3  A    between atoms: N_4  and  N_12
    4  A    between atoms: N_4  and  C_37
    5  A    between atoms: C_8  and  N_12
    6  A    between atoms: C_23  and  C_30
                            x       y       z     vdW  Elec       q    Type
                         _______ _______ _______ _____ _____    ______ ____

>  <TORSDO>
F 6

$$$$
=
 OpenBabel11122413543D

 37 43  0  0  1  0  0  0  0  0999 V2000
  159.9640  210.4950  154.0780 C   0  0  1  0  0  0  0  0  0  0  0  0
  161.8120  207.8340  151.9860 C   0  0  1  0  0  3  0  0  0  0  0  0
  162.8450  208.5190  148.8980 O   0  0  0  0  0  0  0  0  0  0  0  0
  161.4400  208.7620  154.3940 C   0  0  2  0  0  3  0  0  0  0  0  0
  161.3540  208.6350  150.7670 C   0  0  2  0  0  3  0  0  0  0  0  0
  162.1070  208.9300  153.0180 C   0  0  2  0  0  3  0  0  0  0  0  0
  161.6490  207.9920  149.4090 C   0  0  2  0  0  3  0  0  0  0  0  0
  161.5860  207.3140  154.8370 C   0  0  0  0  0  2  0  0  0  0  0  0
  161.7950  210.2550  152.3220 C   0  0  2  0  0  3  0  0  0  0  0  0
  160.7460  211.2740  154.9210 F   0  0  0  0  0  0  0  0  0  0  0  0
  160.7160  205.5900  151.5330 C   0  0  0  0  0  2  0  0  0  0  0  0
  160.9130  206.3300  153.8720 C   0  0  0  0  0  2  0  0  0  0  0  0
  160.3510  210.7240  152.6240 C   0  0  0  0  0  2  0  0  0  0  0  0
  161.1790  210.0120  147.6600 C   0  0  0  0  0  2  0  0  0  0  0  0
  162.6040  209.5300  147.9260 C   0  0  1  0  0  3  0  0  0  0  0  0
  160.7300  206.8290  152.4270 C   0  0  1  0  0  3  0  0  0  0  0  0
  161.9850  209.9530  150.8940 N   0  0  2  0  0  0  0  0  0  0  0  0
  160.0760  209.1240  154.3870 O   0  0  0  0  0  0  0  0  0  0  0  0
  161.6520  206.4600  149.3900 C   0  0  1  0  0  3  0  0  0  0  0  0
  158.5190  210.9130  154.2520 C   0  0  0  0  0  1  0  0  0  0  0  0
  162.0880  210.8500  148.5430 C   0  0  2  0  0  3  0  0  0  0  0  0
  161.4090  210.9150  149.9300 C   0  0  2  0  0  3  0  0  0  0  0  0
  160.4120  205.8950  150.0730 C   0  0  0  0  0  2  0  0  0  0  0  0
  162.8080  205.0820  147.6560 C   0  0  0  0  0  3  0  0  0  0  0  0
  161.7570  205.9420  147.9880 C   0  0  0  0  0  0  0  0  0  0  0  0
  160.8260  206.3130  147.0040 C   0  0  0  0  0  3  0  0  0  0  0  0
  160.0510  206.1820  144.7550 F   0  0  0  0  0  0  0  0  0  0  0  0
  162.0030  204.9620  145.3750 C   0  0  0  0  0  3  0  0  0  0  0  0
  160.9500  205.8220  145.7010 C   0  0  0  0  0  0  0  0  0  0  0  0
  162.9310  204.5920  146.3520 C   0  0  0  0  0  3  0  0  0  0  0  0
  161.5550  212.3620  150.4090 C   0  0  0  0  0  2  0  0  0  0  0  0
  160.8790  213.2730  149.4920 N   0  0  0  0  0  0  0  0  0  0  0  0
  158.9400  213.7770  150.8490 C   0  0  0  0  0  2  0  0  0  0  0  0
  159.4950  213.6130  149.6530 C   0  0  0  0  0  3  0  0  0  0  0  0
  161.6380  213.9340  148.5150 N   0  0  0  0  0  2  0  0  0  0  0  0
  160.7990  214.0900  147.3370 C   0  0  0  0  0  2  0  0  0  0  0  0
  161.6640  214.4510  146.1470 C   0  0  0  0  0  1  0  0  0  0  0  0
  1 20  1  1  0  0  0
  1 18  1  0  0  0  0
  1 10  1  0  0  0  0
  2 16  1  0  0  0  0
  2  6  1  0  0  0  0
  3  7  1  0  0  0  0
  4  8  1  0  0  0  0
  5 17  1  0  0  0  0
  5  2  1  0  0  0  0
  6  4  1  0  0  0  0
  7  5  1  0  0  0  0
  9 13  1  0  0  0  0
  9  6  1  0  0  0  0
 11 16  1  0  0  0  0
 12  8  1  0  0  0  0
 13  1  1  0  0  0  0
 14 15  1  0  0  0  0
 14 21  1  0  0  0  0
 15 21  1  0  0  0  0
 15  3  1  0  0  0  0
 16 12  1  0  0  0  0
 17  9  1  0  0  0  0
 18  4  1  0  0  0  0
 19  7  1  0  0  0  0
 19 23  1  0  0  0  0
 21 22  1  0  0  0  0
 22 31  1  0  0  0  0
 22 17  1  0  0  0  0
 23 11  1  0  0  0  0
 24 25  1  0  0  0  0
 25 19  1  0  0  0  0
 26 25  2  0  0  0  0
 27 29  1  0  0  0  0
 28 29  2  0  0  0  0
 28 30  1  0  0  0  0
 29 26  1  0  0  0  0
 30 24  2  0  0  0  0
 32 34  1  0  0  0  0
 32 31  1  0  0  0  0
 34 33  2  0  0  0  0
 35 32  1  0  0  0  0
 36 35  1  0  0  0  0
 37 36  1  0  0  0  0
M  END
>  <MODEL>
4

>  <REMARK>
 VINA RESULT:      -5.1      1.958      6.481
  Name = 
  6 active torsions:
  status: ('A' for Active; 'I' for Inactive)
    1  A    between atoms: C_1  and  N_4
    2  A    between atoms: C_1  and  C_27
    3  A    between atoms: N_4  and  N_12
    4  A    between atoms: N_4  and  C_37
    5  A    between atoms: C_8  and  N_12
    6  A    between atoms: C_23  and  C_30
                            x       y       z     vdW  Elec       q    Type
                         _______ _______ _______ _____ _____    ______ ____

>  <TORSDO>
F 6

$$$$
