=
 OpenBabel11122412363D

 30 35  0  0  1  0  0  0  0  0999 V2000
  161.3230  205.9650  150.1290 C   0  0  0  0  0  0  0  0  0  0  0  0
  161.0290  203.4810  149.9650 C   0  0  0  0  0  0  0  0  0  0  0  0
  161.0720  205.7770  154.3260 N   0  0  0  0  0  2  0  0  0  0  0  0
  161.4050  207.1390  150.9410 C   0  0  0  0  0  0  0  0  0  0  0  0
  161.4370  206.1010  148.7390 C   0  0  0  0  0  3  0  0  0  0  0  0
  161.8230  209.7380  148.3100 O   0  0  0  0  0  1  0  0  0  0  0  0
  160.3500  209.8890  152.0040 C   0  0  1  0  0  3  0  0  0  0  0  0
  161.6680  208.4960  148.9230 C   0  0  0  0  0  0  0  0  0  0  0  0
  160.3360  209.0730  153.3060 C   0  0  2  0  0  3  0  0  0  0  0  0
  161.2680  207.1510  154.6280 C   0  0  0  0  0  0  0  0  0  0  0  0
  161.6210  207.3410  148.1390 C   0  0  0  0  0  0  0  0  0  0  0  0
  161.5560  208.4120  150.3220 C   0  0  0  0  0  0  0  0  0  0  0  0
  160.8380  202.2530  150.6040 C   0  0  0  0  0  3  0  0  0  0  0  0
  160.4270  210.0940  154.4250 C   0  0  0  0  0  2  0  0  0  0  0  0
  160.1860  211.3500  152.3900 C   0  0  0  0  0  2  0  0  0  0  0  0
  161.1160  203.4730  148.6110 F   0  0  0  0  0  0  0  0  0  0  0  0
  161.1210  205.7360  152.9080 C   0  0  0  0  0  0  0  0  0  0  0  0
  160.7400  202.1800  151.9910 C   0  0  0  0  0  3  0  0  0  0  0  0
  161.1270  204.6790  150.7230 C   0  0  0  0  0  0  0  0  0  0  0  0
  161.3100  206.9790  152.3390 C   0  0  0  0  0  0  0  0  0  0  0  0
  161.3350  207.5750  155.8120 O   0  0  0  0  0  0  0  0  0  0  0  0
  161.4410  208.0170  153.4150 C   0  0  1  0  0  3  0  0  0  0  0  0
  159.8290  211.3600  153.8600 C   0  0  0  0  0  2  0  0  0  0  0  0
  162.9220  210.0000  151.7350 C   0  0  0  0  0  1  0  0  0  0  0  0
  160.8330  203.3400  152.7560 C   0  0  0  0  0  3  0  0  0  0  0  0
  161.0220  204.5820  152.1380 C   0  0  0  0  0  0  0  0  0  0  0  0
  161.5720  209.7080  151.0880 C   0  0  2  0  0  3  0  0  0  0  0  0
  161.7130  207.4180  146.6520 C   0  0  0  0  0  2  0  0  0  0  0  0
  160.3440  206.1520  145.2560 C   0  0  0  0  0  1  0  0  0  0  0  0
  161.5390  206.0960  146.0780 N   0  0  0  0  0  2  0  0  0  0  0  0
  1 19  2  0  0  0  0
  1  4  1  0  0  0  0
  2 13  2  0  0  0  0
  2 19  1  0  0  0  0
  3 10  1  0  0  0  0
  4 20  2  0  0  0  0
  5  1  1  0  0  0  0
  6  8  1  0  0  0  0
  7 15  1  1  0  0  0
  7  9  1  0  0  0  0
  8 12  2  0  0  0  0
  9 22  1  0  0  0  0
  9 14  1  1  0  0  0
 10 21  2  0  0  0  0
 11  5  2  0  0  0  0
 11  8  1  0  0  0  0
 12  4  1  0  0  0  0
 12 27  1  0  0  0  0
 13 18  1  0  0  0  0
 15 23  1  0  0  0  0
 16  2  1  0  0  0  0
 17  3  1  0  0  0  0
 18 25  2  0  0  0  0
 19 26  1  0  0  0  0
 20 17  1  0  0  0  0
 22 20  1  6  0  0  0
 22 10  1  0  0  0  0
 23 14  1  0  0  0  0
 26 25  1  0  0  0  0
 26 17  2  0  0  0  0
 27 24  1  1  0  0  0
 27  7  1  0  0  0  0
 28 11  1  0  0  0  0
 29 30  1  0  0  0  0
 30 28  1  0  0  0  0
M  END
>  <MODEL>
1

>  <REMARK>
 VINA RESULT:      -8.4      0.000      0.000
  Name = 
  2 active torsions:
  status: ('A' for Active; 'I' for Inactive)
    1  A    between atoms: C_11  and  C_28
    2  A    between atoms: C_28  and  N_30
                            x       y       z     vdW  Elec       q    Type
                         _______ _______ _______ _____ _____    ______ ____

>  <TORSDO>
F 2

$$$$
=
 OpenBabel11122412363D

 30 35  0  0  1  0  0  0  0  0999 V2000
  161.2010  209.4500  151.6740 C   0  0  0  0  0  0  0  0  0  0  0  0
  161.0790  211.8420  150.9380 C   0  0  0  0  0  0  0  0  0  0  0  0
  162.2470  208.2430  147.7810 N   0  0  0  0  0  2  0  0  0  0  0  0
  161.4260  208.0760  151.3480 C   0  0  0  0  0  0  0  0  0  0  0  0
  160.8780  209.7800  152.9970 C   0  0  0  0  0  3  0  0  0  0  0  0
  160.8120  206.4950  154.6600 O   0  0  0  0  0  1  0  0  0  0  0  0
  160.5180  205.1070  150.9430 C   0  0  1  0  0  3  0  0  0  0  0  0
  160.9540  207.4630  153.6680 C   0  0  0  0  0  0  0  0  0  0  0  0
  160.9650  205.4490  149.5130 C   0  0  2  0  0  3  0  0  0  0  0  0
  162.4100  206.8510  148.0090 C   0  0  0  0  0  0  0  0  0  0  0  0
  160.7680  208.8100  153.9870 C   0  0  0  0  0  0  0  0  0  0  0  0
  161.2770  207.0800  152.3540 C   0  0  0  0  0  0  0  0  0  0  0  0
  161.1930  212.7880  149.9160 C   0  0  0  0  0  3  0  0  0  0  0  0
  161.3060  204.1200  148.8650 C   0  0  0  0  0  2  0  0  0  0  0  0
  160.3570  203.5970  151.0110 C   0  0  0  0  0  2  0  0  0  0  0  0
  160.7530  212.2960  152.1740 F   0  0  0  0  0  0  0  0  0  0  0  0
  161.8680  208.7480  149.0510 C   0  0  0  0  0  0  0  0  0  0  0  0
  161.5250  212.3990  148.6200 C   0  0  0  0  0  3  0  0  0  0  0  0
  161.3010  210.4650  150.6720 C   0  0  0  0  0  0  0  0  0  0  0  0
  161.7720  207.7660  150.0160 C   0  0  0  0  0  0  0  0  0  0  0  0
  162.7960  206.0630  147.1050 O   0  0  0  0  0  0  0  0  0  0  0  0
  162.1350  206.4350  149.4240 C   0  0  1  0  0  3  0  0  0  0  0  0
  160.4620  203.0970  149.5870 C   0  0  0  0  0  2  0  0  0  0  0  0
  162.8700  205.1470  152.0230 C   0  0  0  0  0  1  0  0  0  0  0  0
  161.7480  211.0540  148.3340 C   0  0  0  0  0  3  0  0  0  0  0  0
  161.6380  210.0890  149.3420 C   0  0  0  0  0  0  0  0  0  0  0  0
  161.4160  205.6050  152.0860 C   0  0  2  0  0  3  0  0  0  0  0  0
  160.4000  209.2280  155.3710 C   0  0  0  0  0  2  0  0  0  0  0  0
  162.1300  209.0640  156.9220 C   0  0  0  0  0  1  0  0  0  0  0  0
  161.4990  209.9620  155.9730 N   0  0  0  0  0  2  0  0  0  0  0  0
  1  5  2  0  0  0  0
  2 16  1  0  0  0  0
  3 10  1  0  0  0  0
  3 17  1  0  0  0  0
  4  1  1  0  0  0  0
  4 12  2  0  0  0  0
  5 11  1  0  0  0  0
  7 15  1  6  0  0  0
  7 27  1  0  0  0  0
  8 11  2  0  0  0  0
  8  6  1  0  0  0  0
  9 14  1  1  0  0  0
  9  7  1  0  0  0  0
 11 28  1  0  0  0  0
 12  8  1  0  0  0  0
 13  2  2  0  0  0  0
 14 23  1  0  0  0  0
 17 26  1  0  0  0  0
 17 20  2  0  0  0  0
 18 13  1  0  0  0  0
 19  2  1  0  0  0  0
 19  1  1  0  0  0  0
 20  4  1  0  0  0  0
 21 10  2  0  0  0  0
 22 10  1  6  0  0  0
 22  9  1  0  0  0  0
 22 20  1  0  0  0  0
 23 15  1  0  0  0  0
 25 18  2  0  0  0  0
 25 26  1  0  0  0  0
 26 19  2  0  0  0  0
 27 24  1  6  0  0  0
 27 12  1  0  0  0  0
 28 30  1  0  0  0  0
 30 29  1  0  0  0  0
M  END
>  <MODEL>
2

>  <REMARK>
 VINA RESULT:      -7.7      2.591      7.268
  Name = 
  2 active torsions:
  status: ('A' for Active; 'I' for Inactive)
    1  A    between atoms: C_11  and  C_28
    2  A    between atoms: C_28  and  N_30
                            x       y       z     vdW  Elec       q    Type
                         _______ _______ _______ _____ _____    ______ ____

>  <TORSDO>
F 2

$$$$
=
 OpenBabel11122412363D

 30 35  0  0  1  0  0  0  0  0999 V2000
  161.4580  208.1920  151.5180 C   0  0  0  0  0  0  0  0  0  0  0  0
  161.5470  210.6190  150.9010 C   0  0  0  0  0  0  0  0  0  0  0  0
  162.3020  207.0900  147.5450 N   0  0  0  0  0  2  0  0  0  0  0  0
  161.5460  206.8210  151.1200 C   0  0  0  0  0  0  0  0  0  0  0  0
  161.1960  208.4840  152.8630 C   0  0  0  0  0  3  0  0  0  0  0  0
  160.8560  205.1400  154.3680 O   0  0  0  0  0  1  0  0  0  0  0  0
  160.3520  203.9740  150.5970 C   0  0  1  0  0  3  0  0  0  0  0  0
  161.0670  206.1390  153.4190 C   0  0  0  0  0  0  0  0  0  0  0  0
  160.7990  204.3440  149.1740 C   0  0  2  0  0  3  0  0  0  0  0  0
  162.3370  205.6790  147.7020 C   0  0  0  0  0  0  0  0  0  0  0  0
  161.0160  207.4800  153.8070 C   0  0  0  0  0  0  0  0  0  0  0  0
  161.3250  205.7940  152.0810 C   0  0  0  0  0  0  0  0  0  0  0  0
  161.7270  211.6000  149.9220 C   0  0  0  0  0  3  0  0  0  0  0  0
  160.9990  203.0240  148.4550 C   0  0  0  0  0  2  0  0  0  0  0  0
  160.0510  202.4830  150.5970 C   0  0  0  0  0  2  0  0  0  0  0  0
  161.2910  211.0390  152.1650 F   0  0  0  0  0  0  0  0  0  0  0  0
  161.9990  207.5640  148.8480 C   0  0  0  0  0  0  0  0  0  0  0  0
  161.9920  211.2470  148.6020 C   0  0  0  0  0  3  0  0  0  0  0  0
  161.6320  209.2420  150.5630 C   0  0  0  0  0  0  0  0  0  0  0  0
  161.8320  206.5470  149.7670 C   0  0  0  0  0  0  0  0  0  0  0  0
  162.6270  204.9050  146.7520 O   0  0  0  0  0  0  0  0  0  0  0  0
  162.0550  205.2200  149.1020 C   0  0  1  0  0  3  0  0  0  0  0  0
  160.0780  202.0480  149.1480 C   0  0  0  0  0  2  0  0  0  0  0  0
  162.7200  203.7400  151.6160 C   0  0  0  0  0  1  0  0  0  0  0  0
  162.0810  209.9040  148.2460 C   0  0  0  0  0  3  0  0  0  0  0  0
  161.9030  208.9040  149.2080 C   0  0  0  0  0  0  0  0  0  0  0  0
  161.3180  204.3280  151.7390 C   0  0  2  0  0  3  0  0  0  0  0  0
  160.7190  207.8600  155.2190 C   0  0  0  0  0  2  0  0  0  0  0  0
  162.0570  208.8610  156.8430 C   0  0  0  0  0  1  0  0  0  0  0  0
  161.4210  209.0850  155.5580 N   0  0  0  0  0  2  0  0  0  0  0  0
  1  5  2  0  0  0  0
  2 16  1  0  0  0  0
  3 10  1  0  0  0  0
  3 17  1  0  0  0  0
  4  1  1  0  0  0  0
  4 12  2  0  0  0  0
  5 11  1  0  0  0  0
  7 15  1  6  0  0  0
  7 27  1  0  0  0  0
  8 11  2  0  0  0  0
  8  6  1  0  0  0  0
  9 14  1  6  0  0  0
  9  7  1  0  0  0  0
 11 28  1  0  0  0  0
 12  8  1  0  0  0  0
 13  2  2  0  0  0  0
 14 23  1  0  0  0  0
 17 26  1  0  0  0  0
 17 20  2  0  0  0  0
 18 13  1  0  0  0  0
 19  2  1  0  0  0  0
 19  1  1  0  0  0  0
 20  4  1  0  0  0  0
 21 10  2  0  0  0  0
 22 10  1  6  0  0  0
 22  9  1  0  0  0  0
 22 20  1  0  0  0  0
 23 15  1  0  0  0  0
 25 18  2  0  0  0  0
 25 26  1  0  0  0  0
 26 19  2  0  0  0  0
 27 24  1  6  0  0  0
 27 12  1  0  0  0  0
 28 30  1  0  0  0  0
 30 29  1  0  0  0  0
M  END
>  <MODEL>
3

>  <REMARK>
 VINA RESULT:      -7.6      2.450      7.218
  Name = 
  2 active torsions:
  status: ('A' for Active; 'I' for Inactive)
    1  A    between atoms: C_11  and  C_28
    2  A    between atoms: C_28  and  N_30
                            x       y       z     vdW  Elec       q    Type
                         _______ _______ _______ _____ _____    ______ ____

>  <TORSDO>
F 2

$$$$
=
 OpenBabel11122412363D

 30 35  0  0  1  0  0  0  0  0999 V2000
  161.5970  208.0130  149.6530 C   0  0  0  0  0  0  0  0  0  0  0  0
  161.5390  206.1130  148.0190 C   0  0  0  0  0  0  0  0  0  0  0  0
  161.0470  205.3460  152.8620 N   0  0  0  0  0  2  0  0  0  0  0  0
  161.5120  208.4700  151.0050 C   0  0  0  0  0  0  0  0  0  0  0  0
  161.8030  208.9560  148.6370 C   0  0  0  0  0  3  0  0  0  0  0  0
  161.8950  212.1360  150.4910 O   0  0  0  0  0  1  0  0  0  0  0  0
  160.1400  210.0100  153.3610 C   0  0  1  0  0  3  0  0  0  0  0  0
  161.8050  210.7710  150.2280 C   0  0  0  0  0  0  0  0  0  0  0  0
  160.0990  208.5780  153.9160 C   0  0  2  0  0  3  0  0  0  0  0  0
  161.0970  206.2710  153.9390 C   0  0  0  0  0  0  0  0  0  0  0  0
  161.9200  210.3130  148.9130 C   0  0  0  0  0  0  0  0  0  0  0  0
  161.5960  209.8640  151.2820 C   0  0  0  0  0  0  0  0  0  0  0  0
  161.4100  204.7420  147.7800 C   0  0  0  0  0  3  0  0  0  0  0  0
  160.0150  208.7290  155.4220 C   0  0  0  0  0  2  0  0  0  0  0  0
  159.8170  210.9460  154.5150 C   0  0  0  0  0  2  0  0  0  0  0  0
  161.7270  206.9180  146.9440 F   0  0  0  0  0  0  0  0  0  0  0  0
  161.2060  206.1630  151.7130 C   0  0  0  0  0  0  0  0  0  0  0  0
  161.2140  203.8520  148.8330 C   0  0  0  0  0  3  0  0  0  0  0  0
  161.4720  206.6220  149.3430 C   0  0  0  0  0  0  0  0  0  0  0  0
  161.3260  207.5040  152.0150 C   0  0  0  0  0  0  0  0  0  0  0  0
  161.0350  205.9050  155.1420 O   0  0  0  0  0  0  0  0  0  0  0  0
  161.2830  207.6950  153.5030 C   0  0  1  0  0  3  0  0  0  0  0  0
  159.3510  210.0650  155.6530 C   0  0  0  0  0  2  0  0  0  0  0  0
  162.7050  210.3280  153.5050 C   0  0  0  0  0  1  0  0  0  0  0  0
  161.1450  204.3260  150.1400 C   0  0  0  0  0  3  0  0  0  0  0  0
  161.2700  205.6950  150.4040 C   0  0  0  0  0  0  0  0  0  0  0  0
  161.4380  210.4450  152.6620 C   0  0  2  0  0  3  0  0  0  0  0  0
  162.1180  211.2660  147.7820 C   0  0  0  0  0  2  0  0  0  0  0  0
  161.0510  213.2520  147.1970 C   0  0  0  0  0  1  0  0  0  0  0  0
  160.8410  211.8280  147.3820 N   0  0  0  0  0  2  0  0  0  0  0  0
  1  4  1  0  0  0  0
  2 19  1  0  0  0  0
  3 10  1  0  0  0  0
  4 12  1  0  0  0  0
  4 20  2  0  0  0  0
  5 11  2  0  0  0  0
  5  1  1  0  0  0  0
  7  9  1  0  0  0  0
  7 15  1  1  0  0  0
  8  6  1  0  0  0  0
  8 12  2  0  0  0  0
  9 14  1  1  0  0  0
 10 21  2  0  0  0  0
 11  8  1  0  0  0  0
 12 27  1  0  0  0  0
 13  2  2  0  0  0  0
 13 18  1  0  0  0  0
 14 23  1  0  0  0  0
 15 23  1  0  0  0  0
 16  2  1  0  0  0  0
 17 20  1  0  0  0  0
 17  3  1  0  0  0  0
 18 25  2  0  0  0  0
 19  1  2  0  0  0  0
 19 26  1  0  0  0  0
 22 20  1  6  0  0  0
 22  9  1  0  0  0  0
 22 10  1  0  0  0  0
 25 26  1  0  0  0  0
 26 17  2  0  0  0  0
 27  7  1  0  0  0  0
 27 24  1  1  0  0  0
 28 11  1  0  0  0  0
 29 30  1  0  0  0  0
 30 28  1  0  0  0  0
M  END
>  <MODEL>
4

>  <REMARK>
 VINA RESULT:      -7.2      2.082      2.904
  Name = 
  2 active torsions:
  status: ('A' for Active; 'I' for Inactive)
    1  A    between atoms: C_11  and  C_28
    2  A    between atoms: C_28  and  N_30
                            x       y       z     vdW  Elec       q    Type
                         _______ _______ _______ _____ _____    ______ ____

>  <TORSDO>
F 2

$$$$
=
 OpenBabel11122412363D

 30 35  0  0  1  0  0  0  0  0999 V2000
  161.4610  207.5360  150.8510 C   0  0  0  0  0  0  0  0  0  0  0  0
  161.3950  205.2890  149.7420 C   0  0  0  0  0  0  0  0  0  0  0  0
  160.5740  205.7890  154.5760 N   0  0  0  0  0  2  0  0  0  0  0  0
  161.3220  208.3230  152.0370 C   0  0  0  0  0  0  0  0  0  0  0  0
  161.7800  208.1830  149.6500 C   0  0  0  0  0  3  0  0  0  0  0  0
  161.9380  211.7230  150.6540 O   0  0  0  0  0  1  0  0  0  0  0  0
  159.9000  210.4600  153.8300 C   0  0  1  0  0  3  0  0  0  0  0  0
  161.7890  210.3400  150.7340 C   0  0  0  0  0  0  0  0  0  0  0  0
  159.7460  209.2160  154.7200 C   0  0  2  0  0  3  0  0  0  0  0  0
  160.6100  206.9540  155.3890 C   0  0  0  0  0  0  0  0  0  0  0  0
  161.9560  209.5610  149.5870 C   0  0  0  0  0  0  0  0  0  0  0  0
  161.4670  209.7370  151.9630 C   0  0  0  0  0  0  0  0  0  0  0  0
  161.2040  203.9090  149.8440 C   0  0  0  0  0  3  0  0  0  0  0  0
  159.5810  209.7460  156.1320 C   0  0  0  0  0  2  0  0  0  0  0  0
  159.5610  211.6680  154.6890 C   0  0  0  0  0  2  0  0  0  0  0  0
  161.6920  205.7900  148.5170 F   0  0  0  0  0  0  0  0  0  0  0  0
  160.8460  206.2820  153.2730 C   0  0  0  0  0  0  0  0  0  0  0  0
  160.8960  203.3210  151.0690 C   0  0  0  0  0  3  0  0  0  0  0  0
  161.2780  206.1190  150.8900 C   0  0  0  0  0  0  0  0  0  0  0  0
  161.0230  207.6510  153.2400 C   0  0  0  0  0  0  0  0  0  0  0  0
  160.4570  206.9050  156.6380 O   0  0  0  0  0  0  0  0  0  0  0  0
  160.9010  208.2130  154.6260 C   0  0  1  0  0  3  0  0  0  0  0  0
  158.9800  211.1220  155.9740 C   0  0  0  0  0  2  0  0  0  0  0  0
  162.4650  210.7030  154.0740 C   0  0  0  0  0  1  0  0  0  0  0  0
  160.7760  204.1130  152.2080 C   0  0  0  0  0  3  0  0  0  0  0  0
  160.9610  205.4980  152.1300 C   0  0  0  0  0  0  0  0  0  0  0  0
  161.2600  210.6530  153.1400 C   0  0  2  0  0  3  0  0  0  0  0  0
  162.2740  210.1890  148.2720 C   0  0  0  0  0  2  0  0  0  0  0  0
  161.8430  212.3100  147.4100 C   0  0  0  0  0  1  0  0  0  0  0  0
  161.2070  211.0960  147.8880 N   0  0  0  0  0  2  0  0  0  0  0  0
  1 19  2  0  0  0  0
  1  4  1  0  0  0  0
  2 13  2  0  0  0  0
  2 19  1  0  0  0  0
  3 10  1  0  0  0  0
  4 20  2  0  0  0  0
  5  1  1  0  0  0  0
  6  8  1  0  0  0  0
  7 15  1  1  0  0  0
  7  9  1  0  0  0  0
  8 12  2  0  0  0  0
  9 14  1  1  0  0  0
 10 21  2  0  0  0  0
 11  5  2  0  0  0  0
 11  8  1  0  0  0  0
 12  4  1  0  0  0  0
 12 27  1  0  0  0  0
 13 18  1  0  0  0  0
 15 23  1  0  0  0  0
 16  2  1  0  0  0  0
 17  3  1  0  0  0  0
 18 25  2  0  0  0  0
 19 26  1  0  0  0  0
 20 17  1  0  0  0  0
 22 20  1  6  0  0  0
 22  9  1  0  0  0  0
 22 10  1  0  0  0  0
 23 14  1  0  0  0  0
 26 25  1  0  0  0  0
 26 17  2  0  0  0  0
 27  7  1  0  0  0  0
 27 24  1  1  0  0  0
 28 11  1  0  0  0  0
 29 30  1  0  0  0  0
 30 28  1  0  0  0  0
M  END
>  <MODEL>
5

>  <REMARK>
 VINA RESULT:      -7.0      1.860      2.452
  Name = 
  2 active torsions:
  status: ('A' for Active; 'I' for Inactive)
    1  A    between atoms: C_11  and  C_28
    2  A    between atoms: C_28  and  N_30
                            x       y       z     vdW  Elec       q    Type
                         _______ _______ _______ _____ _____    ______ ____

>  <TORSDO>
F 2

$$$$
=
 OpenBabel11122412363D

 30 35  0  0  1  0  0  0  0  0999 V2000
  161.4830  207.9950  151.1990 C   0  0  0  0  0  0  0  0  0  0  0  0
  161.4420  208.1940  153.6970 C   0  0  0  0  0  0  0  0  0  0  0  0
  160.5240  203.9040  151.4520 N   0  0  0  0  0  2  0  0  0  0  0  0
  161.3510  207.1790  150.0320 C   0  0  0  0  0  0  0  0  0  0  0  0
  161.7810  209.3540  151.0380 C   0  0  0  0  0  3  0  0  0  0  0  0
  162.0690  209.6920  147.3820 O   0  0  0  0  0  1  0  0  0  0  0  0
  162.4600  205.7330  147.4850 C   0  0  1  0  0  3  0  0  0  0  0  0
  161.8620  209.1220  148.6360 C   0  0  0  0  0  0  0  0  0  0  0  0
  161.9920  204.5190  148.3020 C   0  0  2  0  0  3  0  0  0  0  0  0
  160.4560  203.6000  150.0660 C   0  0  0  0  0  0  0  0  0  0  0  0
  161.9560  209.9190  149.7800 C   0  0  0  0  0  0  0  0  0  0  0  0
  161.5670  207.7520  148.7460 C   0  0  0  0  0  0  0  0  0  0  0  0
  161.2650  207.5900  154.9440 C   0  0  0  0  0  3  0  0  0  0  0  0
  161.7430  203.4190  147.2880 C   0  0  0  0  0  2  0  0  0  0  0  0
  162.7230  205.2450  146.0700 C   0  0  0  0  0  2  0  0  0  0  0  0
  161.7360  209.5190  153.6820 F   0  0  0  0  0  0  0  0  0  0  0  0
  160.8670  205.2810  151.4750 C   0  0  0  0  0  0  0  0  0  0  0  0
  160.9620  206.2330  155.0410 C   0  0  0  0  0  3  0  0  0  0  0  0
  161.3140  207.4340  152.5040 C   0  0  0  0  0  0  0  0  0  0  0  0
  161.0290  205.8190  150.2140 C   0  0  0  0  0  0  0  0  0  0  0  0
  160.1260  202.4600  149.6450 O   0  0  0  0  0  0  0  0  0  0  0  0
  160.7570  204.7690  149.1750 C   0  0  1  0  0  3  0  0  0  0  0  0
  162.6540  203.7350  146.1250 C   0  0  0  0  0  2  0  0  0  0  0  0
  160.1100  206.6910  146.9750 C   0  0  0  0  0  1  0  0  0  0  0  0
  160.8310  205.4670  153.8850 C   0  0  0  0  0  3  0  0  0  0  0  0
  161.0050  206.0510  152.6260 C   0  0  0  0  0  0  0  0  0  0  0  0
  161.5290  206.9560  147.4690 C   0  0  2  0  0  3  0  0  0  0  0  0
  162.2930  211.3690  149.6790 C   0  0  0  0  0  2  0  0  0  0  0  0
  161.2480  213.0130  148.4020 C   0  0  0  0  0  1  0  0  0  0  0  0
  161.0760  212.1510  149.5570 N   0  0  0  0  0  2  0  0  0  0  0  0
  1 19  1  0  0  0  0
  2 13  1  0  0  0  0
  3 17  1  0  0  0  0
  4 20  1  0  0  0  0
  4  1  2  0  0  0  0
  5  1  1  0  0  0  0
  6  8  1  0  0  0  0
  7 15  1  6  0  0  0
  7  9  1  0  0  0  0
  8 12  2  0  0  0  0
  8 11  1  0  0  0  0
  9 14  1  6  0  0  0
  9 22  1  0  0  0  0
 10  3  1  0  0  0  0
 11  5  2  0  0  0  0
 12  4  1  0  0  0  0
 13 18  2  0  0  0  0
 15 23  1  0  0  0  0
 16  2  1  0  0  0  0
 17 26  1  0  0  0  0
 19 26  1  0  0  0  0
 19  2  2  0  0  0  0
 20 17  2  0  0  0  0
 21 10  2  0  0  0  0
 22 10  1  1  0  0  0
 22 20  1  0  0  0  0
 23 14  1  0  0  0  0
 25 18  1  0  0  0  0
 26 25  2  0  0  0  0
 27 24  1  1  0  0  0
 27  7  1  0  0  0  0
 27 12  1  0  0  0  0
 28 11  1  0  0  0  0
 29 30  1  0  0  0  0
 30 28  1  0  0  0  0
M  END
>  <MODEL>
6

>  <REMARK>
 VINA RESULT:      -6.8      2.902      5.680
  Name = 
  2 active torsions:
  status: ('A' for Active; 'I' for Inactive)
    1  A    between atoms: C_11  and  C_28
    2  A    between atoms: C_28  and  N_30
                            x       y       z     vdW  Elec       q    Type
                         _______ _______ _______ _____ _____    ______ ____

>  <TORSDO>
F 2

$$$$
=
 OpenBabel11122412363D

 30 35  0  0  1  0  0  0  0  0999 V2000
  160.7940  210.5530  151.7090 C   0  0  0  0  0  0  0  0  0  0  0  0
  161.9660  208.6670  150.5470 C   0  0  0  0  0  0  0  0  0  0  0  0
  160.4350  208.2490  155.2120 N   0  0  0  0  0  2  0  0  0  0  0  0
  160.1480  211.0600  152.8800 C   0  0  0  0  0  0  0  0  0  0  0  0
  160.8970  211.3850  150.5860 C   0  0  0  0  0  3  0  0  0  0  0  0
  159.1860  214.4530  151.6920 O   0  0  0  0  0  1  0  0  0  0  0  0
  157.6600  212.0710  154.4920 C   0  0  1  0  0  3  0  0  0  0  0  0
  159.7220  213.1670  151.7140 C   0  0  0  0  0  0  0  0  0  0  0  0
  158.0290  210.8280  155.3160 C   0  0  2  0  0  3  0  0  0  0  0  0
  159.8010  209.2040  156.0500 C   0  0  0  0  0  0  0  0  0  0  0  0
  160.3840  212.6780  150.5860 C   0  0  0  0  0  0  0  0  0  0  0  0
  159.5910  212.3700  152.8640 C   0  0  0  0  0  0  0  0  0  0  0  0
  162.4630  207.3620  150.5830 C   0  0  0  0  0  3  0  0  0  0  0  0
  157.4590  211.0760  156.7000 C   0  0  0  0  0  2  0  0  0  0  0  0
  156.6750  212.8810  155.3190 C   0  0  0  0  0  2  0  0  0  0  0  0
  162.1250  209.3630  149.3930 F   0  0  0  0  0  0  0  0  0  0  0  0
  160.5850  208.9340  153.9790 C   0  0  0  0  0  0  0  0  0  0  0  0
  162.3370  206.5850  151.7330 C   0  0  0  0  0  3  0  0  0  0  0  0
  161.3230  209.2250  151.6840 C   0  0  0  0  0  0  0  0  0  0  0  0
  160.0740  210.2150  154.0060 C   0  0  0  0  0  0  0  0  0  0  0  0
  159.5430  208.9700  157.2600 O   0  0  0  0  0  0  0  0  0  0  0  0
  159.5280  210.5150  155.3730 C   0  0  1  0  0  3  0  0  0  0  0  0
  156.2860  212.0030  156.4880 C   0  0  0  0  0  2  0  0  0  0  0  0
  159.7310  213.4900  155.1250 C   0  0  0  0  0  1  0  0  0  0  0  0
  161.7110  207.1090  152.8610 C   0  0  0  0  0  3  0  0  0  0  0  0
  161.2040  208.4130  152.8460 C   0  0  0  0  0  0  0  0  0  0  0  0
  158.8250  212.9570  154.0190 C   0  0  2  0  0  3  0  0  0  0  0  0
  160.5090  213.5040  149.3490 C   0  0  0  0  0  2  0  0  0  0  0  0
  160.8510  212.6260  147.2190 C   0  0  0  0  0  1  0  0  0  0  0  0
  161.5150  212.9310  148.4730 N   0  0  0  0  0  2  0  0  0  0  0  0
  1  4  1  0  0  0  0
  2 13  2  0  0  0  0
  2 19  1  0  0  0  0
  3 10  1  0  0  0  0
  4 20  2  0  0  0  0
  5 11  2  0  0  0  0
  5  1  1  0  0  0  0
  6  8  1  0  0  0  0
  7  9  1  0  0  0  0
  7 15  1  1  0  0  0
  8 12  2  0  0  0  0
  9 22  1  0  0  0  0
  9 14  1  1  0  0  0
 10 21  2  0  0  0  0
 11  8  1  0  0  0  0
 12  4  1  0  0  0  0
 12 27  1  0  0  0  0
 13 18  1  0  0  0  0
 15 23  1  0  0  0  0
 16  2  1  0  0  0  0
 17 20  1  0  0  0  0
 17  3  1  0  0  0  0
 18 25  2  0  0  0  0
 19  1  2  0  0  0  0
 19 26  1  0  0  0  0
 22 20  1  6  0  0  0
 22 10  1  0  0  0  0
 23 14  1  0  0  0  0
 26 25  1  0  0  0  0
 26 17  2  0  0  0  0
 27  7  1  0  0  0  0
 27 24  1  1  0  0  0
 28 11  1  0  0  0  0
 29 30  1  0  0  0  0
 30 28  1  0  0  0  0
M  END
>  <MODEL>
7

>  <REMARK>
 VINA RESULT:      -5.8      3.229      4.952
  Name = 
  2 active torsions:
  status: ('A' for Active; 'I' for Inactive)
    1  A    between atoms: C_11  and  C_28
    2  A    between atoms: C_28  and  N_30
                            x       y       z     vdW  Elec       q    Type
                         _______ _______ _______ _____ _____    ______ ____

>  <TORSDO>
F 2

$$$$
=
 OpenBabel11122412363D

 30 35  0  0  1  0  0  0  0  0999 V2000
  161.1710  204.6720  148.7860 C   0  0  0  0  0  0  0  0  0  0  0  0
  160.7300  202.2530  148.2990 C   0  0  0  0  0  0  0  0  0  0  0  0
  161.1690  203.9000  152.9230 N   0  0  0  0  0  2  0  0  0  0  0  0
  161.3680  205.7130  149.7460 C   0  0  0  0  0  0  0  0  0  0  0  0
  161.2060  204.9990  147.4240 C   0  0  0  0  0  3  0  0  0  0  0  0
  161.7670  208.6390  147.4800 O   0  0  0  0  0  1  0  0  0  0  0  0
  160.5360  208.3300  151.2520 C   0  0  1  0  0  3  0  0  0  0  0  0
  161.5820  207.3310  147.9240 C   0  0  0  0  0  0  0  0  0  0  0  0
  160.5560  207.3390  152.4260 C   0  0  2  0  0  3  0  0  0  0  0  0
  161.4590  205.2060  153.4000 C   0  0  0  0  0  0  0  0  0  0  0  0
  161.4210  206.3030  146.9920 C   0  0  0  0  0  0  0  0  0  0  0  0
  161.5520  207.0530  149.3010 C   0  0  0  0  0  0  0  0  0  0  0  0
  160.5100  200.9570  148.7720 C   0  0  0  0  0  3  0  0  0  0  0  0
  160.7730  208.1830  153.6660 C   0  0  0  0  0  2  0  0  0  0  0  0
  160.4770  209.7280  151.8480 C   0  0  0  0  0  2  0  0  0  0  0  0
  160.7320  202.4350  146.9540 F   0  0  0  0  0  0  0  0  0  0  0  0
  161.1280  204.0590  151.5140 C   0  0  0  0  0  0  0  0  0  0  0  0
  160.4930  200.6920  150.1390 C   0  0  0  0  0  3  0  0  0  0  0  0
  160.9400  203.3250  149.2070 C   0  0  0  0  0  0  0  0  0  0  0  0
  161.3500  205.3610  151.1110 C   0  0  0  0  0  0  0  0  0  0  0  0
  161.6220  205.4530  154.6240 O   0  0  0  0  0  0  0  0  0  0  0  0
  161.6050  206.2270  152.3100 C   0  0  1  0  0  3  0  0  0  0  0  0
  160.2130  209.5440  153.3260 C   0  0  0  0  0  2  0  0  0  0  0  0
  163.0890  208.3590  150.8240 C   0  0  0  0  0  1  0  0  0  0  0  0
  160.6980  201.7260  151.0500 C   0  0  0  0  0  3  0  0  0  0  0  0
  160.9180  203.0320  150.5990 C   0  0  0  0  0  0  0  0  0  0  0  0
  161.6870  208.2250  150.2380 C   0  0  2  0  0  3  0  0  0  0  0  0
  161.4270  206.5870  145.5270 C   0  0  0  0  0  2  0  0  0  0  0  0
  161.4800  205.6900  143.3780 C   0  0  0  0  0  1  0  0  0  0  0  0
  161.3860  205.3400  144.7830 N   0  0  0  0  0  2  0  0  0  0  0  0
  1 19  2  0  0  0  0
  1  4  1  0  0  0  0
  2 13  2  0  0  0  0
  2 19  1  0  0  0  0
  3 10  1  0  0  0  0
  4 20  2  0  0  0  0
  5  1  1  0  0  0  0
  6  8  1  0  0  0  0
  7 15  1  1  0  0  0
  7  9  1  0  0  0  0
  8 12  2  0  0  0  0
  9 14  1  1  0  0  0
 10 21  2  0  0  0  0
 11  5  2  0  0  0  0
 11  8  1  0  0  0  0
 12  4  1  0  0  0  0
 12 27  1  0  0  0  0
 13 18  1  0  0  0  0
 15 23  1  0  0  0  0
 16  2  1  0  0  0  0
 17  3  1  0  0  0  0
 18 25  2  0  0  0  0
 19 26  1  0  0  0  0
 20 17  1  0  0  0  0
 22 20  1  6  0  0  0
 22  9  1  0  0  0  0
 22 10  1  0  0  0  0
 23 14  1  0  0  0  0
 26 25  1  0  0  0  0
 26 17  2  0  0  0  0
 27 24  1  1  0  0  0
 27  7  1  0  0  0  0
 28 11  1  0  0  0  0
 29 30  1  0  0  0  0
 30 28  1  0  0  0  0
M  END
>  <MODEL>
8

>  <REMARK>
 VINA RESULT:      -5.8      1.377      1.976
  Name = 
  2 active torsions:
  status: ('A' for Active; 'I' for Inactive)
    1  A    between atoms: C_11  and  C_28
    2  A    between atoms: C_28  and  N_30
                            x       y       z     vdW  Elec       q    Type
                         _______ _______ _______ _____ _____    ______ ____

>  <TORSDO>
F 2

$$$$
=
 OpenBabel11122412363D

 30 35  0  0  1  0  0  0  0  0999 V2000
  161.1590  208.9890  151.9180 C   0  0  0  0  0  0  0  0  0  0  0  0
  162.0700  208.9640  149.5830 C   0  0  0  0  0  0  0  0  0  0  0  0
  160.0860  213.0390  151.5170 N   0  0  0  0  0  2  0  0  0  0  0  0
  160.5450  209.7140  152.9860 C   0  0  0  0  0  0  0  0  0  0  0  0
  161.4690  207.6370  152.1150 C   0  0  0  0  0  3  0  0  0  0  0  0
  160.3900  207.0570  155.5880 O   0  0  0  0  0  1  0  0  0  0  0  0
  160.5180  211.0270  155.8290 C   0  0  1  0  0  3  0  0  0  0  0  0
  160.6290  207.7030  154.3770 C   0  0  0  0  0  0  0  0  0  0  0  0
  160.3070  212.2730  154.9550 C   0  0  2  0  0  3  0  0  0  0  0  0
  159.4830  213.2420  152.7870 C   0  0  0  0  0  0  0  0  0  0  0  0
  161.1990  206.9930  153.3170 C   0  0  0  0  0  0  0  0  0  0  0  0
  160.3030  209.0630  154.2290 C   0  0  0  0  0  0  0  0  0  0  0  0
  162.3320  209.6460  148.3920 C   0  0  0  0  0  3  0  0  0  0  0  0
  159.6210  213.2860  155.8510 C   0  0  0  0  0  2  0  0  0  0  0  0
  160.1980  211.4260  157.2610 C   0  0  0  0  0  2  0  0  0  0  0  0
  162.4280  207.6560  149.6440 F   0  0  0  0  0  0  0  0  0  0  0  0
  160.5060  211.6840  151.5600 C   0  0  0  0  0  0  0  0  0  0  0  0
  161.9930  210.9900  148.2530 C   0  0  0  0  0  3  0  0  0  0  0  0
  161.4530  209.6310  150.6740 C   0  0  0  0  0  0  0  0  0  0  0  0
  160.2210  211.0670  152.7610 C   0  0  0  0  0  0  0  0  0  0  0  0
  158.9420  214.3330  153.1070 O   0  0  0  0  0  0  0  0  0  0  0  0
  159.5090  212.0280  153.6690 C   0  0  1  0  0  3  0  0  0  0  0  0
  160.0510  212.9320  157.2550 C   0  0  0  0  0  2  0  0  0  0  0  0
  158.2200  209.9290  155.3670 C   0  0  0  0  0  1  0  0  0  0  0  0
  161.3880  211.6660  149.3080 C   0  0  0  0  0  3  0  0  0  0  0  0
  161.1180  211.0040  150.5110 C   0  0  0  0  0  0  0  0  0  0  0  0
  159.7350  209.7640  155.4340 C   0  0  2  0  0  3  0  0  0  0  0  0
  161.5730  205.5570  153.4680 C   0  0  0  0  0  2  0  0  0  0  0  0
  160.9250  203.8790  151.9880 C   0  0  0  0  0  1  0  0  0  0  0  0
  161.8530  204.9810  152.1650 N   0  0  0  0  0  2  0  0  0  0  0  0
  1  5  2  0  0  0  0
  1  4  1  0  0  0  0
  2 16  1  0  0  0  0
  2 19  1  0  0  0  0
  3 17  1  0  0  0  0
  3 10  1  0  0  0  0
  4 12  2  0  0  0  0
  5 11  1  0  0  0  0
  7 15  1  1  0  0  0
  8  6  1  0  0  0  0
  9  7  1  0  0  0  0
  9 14  1  1  0  0  0
 10 21  2  0  0  0  0
 10 22  1  0  0  0  0
 11 28  1  0  0  0  0
 11  8  2  0  0  0  0
 12  8  1  0  0  0  0
 12 27  1  0  0  0  0
 13  2  2  0  0  0  0
 14 23  1  0  0  0  0
 17 20  2  0  0  0  0
 18 13  1  0  0  0  0
 18 25  2  0  0  0  0
 19  1  1  0  0  0  0
 20  4  1  0  0  0  0
 22 20  1  6  0  0  0
 22  9  1  0  0  0  0
 23 15  1  0  0  0  0
 25 26  1  0  0  0  0
 26 19  2  0  0  0  0
 26 17  1  0  0  0  0
 27 24  1  6  0  0  0
 27  7  1  0  0  0  0
 29 30  1  0  0  0  0
 30 28  1  0  0  0  0
M  END
>  <MODEL>
9

>  <REMARK>
 VINA RESULT:      -5.5      2.688      5.911
  Name = 
  2 active torsions:
  status: ('A' for Active; 'I' for Inactive)
    1  A    between atoms: C_11  and  C_28
    2  A    between atoms: C_28  and  N_30
                            x       y       z     vdW  Elec       q    Type
                         _______ _______ _______ _____ _____    ______ ____

>  <TORSDO>
F 2

$$$$
