=
 OpenBabel11122413463D

 37 43  0  0  1  0  0  0  0  0999 V2000
  161.1520  205.4820  145.8570 C   0  0  1  0  0  0  0  0  0  0  0  0
  160.6950  206.3740  150.0680 C   0  0  1  0  0  3  0  0  0  0  0  0
  162.0620  209.8380  151.2120 C   0  0  0  0  0  2  0  0  0  0  0  0
  161.2950  204.6900  148.2530 C   0  0  0  0  0  0  0  0  0  0  0  0
  161.6110  207.5790  150.0110 C   0  0  2  0  0  3  0  0  0  0  0  0
  160.4760  205.9170  148.6290 C   0  0  2  0  0  3  0  0  0  0  0  0
  161.1120  208.6420  151.0460 C   0  0  1  0  0  3  0  0  0  0  0  0
  161.5990  203.7590  149.1690 C   0  0  0  0  0  3  0  0  0  0  0  0
  160.8270  207.1600  147.8030 C   0  0  2  0  0  3  0  0  0  0  0  0
  159.6710  205.2440  145.6080 C   0  0  0  0  0  1  0  0  0  0  0  0
  161.6100  205.5950  152.2810 C   0  0  0  0  0  3  0  0  0  0  0  0
  161.1510  203.8830  150.5950 C   0  0  0  0  0  2  0  0  0  0  0  0
  161.3860  206.8940  146.3920 C   0  0  0  0  0  2  0  0  0  0  0  0
  162.7570  211.6090  149.3500 C   0  0  1  0  0  3  0  0  0  0  0  0
  161.7560  210.7110  150.0320 C   0  0  1  0  0  3  0  0  0  0  0  0
  161.2060  205.3150  151.0260 C   0  0  0  0  0  0  0  0  0  0  0  0
  161.7810  207.9500  148.5760 N   0  0  1  0  0  0  0  0  0  0  0  0
  161.7090  204.4460  146.8310 C   0  0  0  0  0  2  0  0  0  0  0  0
  160.7490  207.9840  152.4000 C   0  0  1  0  0  3  0  0  0  0  0  0
  161.8290  205.3510  144.6440 O   0  0  0  0  0  1  0  0  0  0  0  0
  162.7030  210.1240  149.0140 C   0  0  1  0  0  3  0  0  0  0  0  0
  161.6720  209.3690  148.2100 C   0  0  0  0  0  2  0  0  0  0  0  0
  161.7970  206.9750  152.8760 C   0  0  0  0  0  2  0  0  0  0  0  0
  159.6950  210.1430  153.0930 C   0  0  0  0  0  3  0  0  0  0  0  0
  160.3310  208.9540  153.4660 C   0  0  0  0  0  0  0  0  0  0  0  0
  160.6000  208.7090  154.8230 C   0  0  0  0  0  3  0  0  0  0  0  0
  160.4980  209.3900  157.1660 N   0  0  0  0  0  1  0  0  0  0  0  0
  159.5860  210.8270  155.4150 C   0  0  0  0  0  3  0  0  0  0  0  0
  160.2240  209.6430  155.7930 C   0  0  0  0  0  0  0  0  0  0  0  0
  159.3210  211.0770  154.0640 C   0  0  0  0  0  3  0  0  0  0  0  0
  162.1370  212.4350  148.2530 C   0  0  0  0  0  0  0  0  0  0  0  0
  160.8930  213.1350  148.4450 N   0  0  0  0  0  2  0  0  0  0  0  0
  162.6850  212.4840  147.1200 O   0  0  0  0  0  0  0  0  0  0  0  0
  158.7230  213.3260  149.2830 C   0  0  0  0  0  1  0  0  0  0  0  0
  160.1270  213.1720  149.6300 N   0  0  0  0  0  0  0  0  0  0  0  0
  159.6690  214.4530  151.5220 O   0  0  0  0  0  1  0  0  0  0  0  0
  160.5360  214.3120  150.4380 C   0  0  0  0  0  2  0  0  0  0  0  0
  1 10  1  6  0  0  0
  1 13  1  0  0  0  0
  1 18  1  0  0  0  0
  2 16  1  1  0  0  0
  4  6  1  0  0  0  0
  4  8  2  0  0  0  0
  5  2  1  0  0  0  0
  5  7  1  0  0  0  0
  6  2  1  0  0  0  0
  7  3  1  0  0  0  0
  7 19  1  0  0  0  0
  8 12  1  0  0  0  0
  9 17  1  0  0  0  0
  9  6  1  0  0  0  0
 11 23  1  0  0  0  0
 12 16  1  0  0  0  0
 13  9  1  0  0  0  0
 14 15  1  0  0  0  0
 15  3  1  0  0  0  0
 16 11  2  0  0  0  0
 17  5  1  0  0  0  0
 18  4  1  0  0  0  0
 19 23  1  0  0  0  0
 19 25  1  0  0  0  0
 20  1  1  0  0  0  0
 21 14  1  0  0  0  0
 21 15  1  0  0  0  0
 22 17  1  0  0  0  0
 22 21  1  0  0  0  0
 24 25  2  0  0  0  0
 24 30  1  0  0  0  0
 25 26  1  0  0  0  0
 26 29  2  0  0  0  0
 28 29  1  0  0  0  0
 29 27  1  0  0  0  0
 30 28  2  0  0  0  0
 31 32  1  0  0  0  0
 31 14  1  0  0  0  0
 32 35  1  0  0  0  0
 33 31  2  0  0  0  0
 34 35  1  0  0  0  0
 35 37  1  0  0  0  0
 37 36  1  0  0  0  0
M  END
>  <MODEL>
1

>  <REMARK>
 VINA RESULT:      -7.7      0.000      0.000
  Name = 
  4 active torsions:
  status: ('A' for Active; 'I' for Inactive)
    1  A    between atoms: N_4  and  N_12
    2  A    between atoms: N_4  and  C_37
    3  A    between atoms: C_8  and  C_18
    4  A    between atoms: C_23  and  C_30
                            x       y       z     vdW  Elec       q    Type
                         _______ _______ _______ _____ _____    ______ ____

>  <TORSDO>
F 4

$$$$
=
 OpenBabel11122413463D

 37 43  0  0  1  0  0  0  0  0999 V2000
  160.8310  205.6360  145.4710 C   0  0  1  0  0  0  0  0  0  0  0  0
  160.8120  205.7220  149.7990 C   0  0  1  0  0  3  0  0  0  0  0  0
  162.0100  209.0540  151.4210 C   0  0  0  0  0  2  0  0  0  0  0  0
  161.3270  204.4550  147.6500 C   0  0  0  0  0  0  0  0  0  0  0  0
  161.6100  207.0060  149.8720 C   0  0  2  0  0  3  0  0  0  0  0  0
  160.4600  205.5040  148.3300 C   0  0  2  0  0  3  0  0  0  0  0  0
  161.1510  207.8130  151.1340 C   0  0  1  0  0  3  0  0  0  0  0  0
  161.8170  203.4140  148.3390 C   0  0  0  0  0  3  0  0  0  0  0  0
  160.6040  206.9020  147.7180 C   0  0  2  0  0  3  0  0  0  0  0  0
  159.3570  205.2920  145.3350 C   0  0  0  0  0  1  0  0  0  0  0  0
  162.0480  204.6650  151.7210 C   0  0  0  0  0  3  0  0  0  0  0  0
  161.5350  203.2380  149.8030 C   0  0  0  0  0  2  0  0  0  0  0  0
  161.0090  206.9480  146.2330 C   0  0  0  0  0  2  0  0  0  0  0  0
  162.3250  211.1870  149.8600 C   0  0  1  0  0  3  0  0  0  0  0  0
  161.4930  210.0840  150.4620 C   0  0  1  0  0  3  0  0  0  0  0  0
  161.5200  204.5700  150.4840 C   0  0  0  0  0  0  0  0  0  0  0  0
  161.5740  207.6390  148.5220 N   0  0  1  0  0  0  0  0  0  0  0  0
  161.5860  204.5080  146.1720 C   0  0  0  0  0  2  0  0  0  0  0  0
  161.0110  206.8930  152.3710 C   0  0  1  0  0  3  0  0  0  0  0  0
  161.3660  205.7910  144.1910 O   0  0  0  0  0  1  0  0  0  0  0  0
  162.3560  209.7870  149.2610 C   0  0  1  0  0  3  0  0  0  0  0  0
  161.3030  209.0810  148.4410 C   0  0  0  0  0  2  0  0  0  0  0  0
  162.1890  205.9310  152.5400 C   0  0  0  0  0  2  0  0  0  0  0  0
  160.4540  208.9980  153.6020 C   0  0  0  0  0  3  0  0  0  0  0  0
  160.6430  207.6120  153.6370 C   0  0  0  0  0  0  0  0  0  0  0  0
  160.5260  206.9270  154.8570 C   0  0  0  0  0  3  0  0  0  0  0  0
  160.0910  206.9280  157.2610 N   0  0  0  0  0  1  0  0  0  0  0  0
  160.0180  209.0090  155.9850 C   0  0  0  0  0  3  0  0  0  0  0  0
  160.2100  207.6260  156.0270 C   0  0  0  0  0  0  0  0  0  0  0  0
  160.1400  209.6950  154.7730 C   0  0  0  0  0  3  0  0  0  0  0  0
  161.5110  212.1240  149.0060 C   0  0  0  0  0  0  0  0  0  0  0  0
  162.0000  212.6120  147.7430 N   0  0  0  0  0  2  0  0  0  0  0  0
  160.3940  212.5370  149.4190 O   0  0  0  0  0  0  0  0  0  0  0  0
  164.3160  212.7190  148.0020 C   0  0  0  0  0  1  0  0  0  0  0  0
  163.2320  212.2830  147.1370 N   0  0  0  0  0  0  0  0  0  0  0  0
  162.1020  212.9990  145.2290 O   0  0  0  0  0  1  0  0  0  0  0  0
  163.3450  212.9730  145.8610 C   0  0  0  0  0  2  0  0  0  0  0  0
  1 10  1  6  0  0  0
  1 18  1  0  0  0  0
  1 13  1  0  0  0  0
  2  5  1  0  0  0  0
  2 16  1  6  0  0  0
  4  6  1  0  0  0  0
  4  8  2  0  0  0  0
  5  7  1  0  0  0  0
  6  2  1  0  0  0  0
  7  3  1  0  0  0  0
  7 19  1  0  0  0  0
  8 12  1  0  0  0  0
  9  6  1  0  0  0  0
  9 17  1  0  0  0  0
 11 23  1  0  0  0  0
 12 16  1  0  0  0  0
 13  9  1  0  0  0  0
 14 15  1  0  0  0  0
 15  3  1  0  0  0  0
 16 11  2  0  0  0  0
 17  5  1  0  0  0  0
 18  4  1  0  0  0  0
 19 23  1  0  0  0  0
 19 25  1  0  0  0  0
 20  1  1  0  0  0  0
 21 14  1  0  0  0  0
 21 15  1  0  0  0  0
 22 17  1  0  0  0  0
 22 21  1  0  0  0  0
 24 25  2  0  0  0  0
 24 30  1  0  0  0  0
 25 26  1  0  0  0  0
 26 29  2  0  0  0  0
 28 29  1  0  0  0  0
 29 27  1  0  0  0  0
 30 28  2  0  0  0  0
 31 33  2  0  0  0  0
 31 14  1  0  0  0  0
 32 31  1  0  0  0  0
 35 32  1  0  0  0  0
 35 34  1  0  0  0  0
 36 37  1  0  0  0  0
 37 35  1  0  0  0  0
M  END
>  <MODEL>
2

>  <REMARK>
 VINA RESULT:      -6.0      1.346      2.205
  Name = 
  4 active torsions:
  status: ('A' for Active; 'I' for Inactive)
    1  A    between atoms: N_4  and  N_12
    2  A    between atoms: N_4  and  C_37
    3  A    between atoms: C_8  and  C_18
    4  A    between atoms: C_23  and  C_30
                            x       y       z     vdW  Elec       q    Type
                         _______ _______ _______ _____ _____    ______ ____

>  <TORSDO>
F 4

$$$$
=
 OpenBabel11122413463D

 37 43  0  0  1  0  0  0  0  0999 V2000
  161.5150  205.1980  146.6300 C   0  0  1  0  0  0  0  0  0  0  0  0
  160.6680  206.8240  150.5520 C   0  0  1  0  0  3  0  0  0  0  0  0
  162.0200  210.4170  151.2110 C   0  0  0  0  0  2  0  0  0  0  0  0
  161.3940  204.8390  149.1290 C   0  0  0  0  0  0  0  0  0  0  0  0
  161.6220  207.9880  150.3800 C   0  0  2  0  0  3  0  0  0  0  0  0
  160.5800  206.1230  149.1990 C   0  0  2  0  0  3  0  0  0  0  0  0
  161.0550  209.2230  151.1570 C   0  0  1  0  0  3  0  0  0  0  0  0
  161.5760  204.0800  150.2190 C   0  0  0  0  0  3  0  0  0  0  0  0
  161.0500  207.1960  148.2100 C   0  0  2  0  0  3  0  0  0  0  0  0
  160.0610  204.9380  146.2740 C   0  0  0  0  0  1  0  0  0  0  0  0
  161.3330  206.4350  152.9490 C   0  0  0  0  0  3  0  0  0  0  0  0
  160.9920  204.4590  151.5490 C   0  0  0  0  0  2  0  0  0  0  0  0
  161.7390  206.6790  146.9330 C   0  0  0  0  0  2  0  0  0  0  0  0
  162.9520  211.8230  149.1510 C   0  0  1  0  0  3  0  0  0  0  0  0
  161.8610  211.0730  149.8720 C   0  0  1  0  0  3  0  0  0  0  0  0
  161.0480  205.9440  151.7260 C   0  0  0  0  0  0  0  0  0  0  0  0
  161.9460  208.0980  148.9280 N   0  0  1  0  0  0  0  0  0  0  0  0
  161.9400  204.3420  147.8220 C   0  0  0  0  0  2  0  0  0  0  0  0
  160.5390  208.8180  152.5600 C   0  0  1  0  0  3  0  0  0  0  0  0
  162.3060  204.8460  145.5360 O   0  0  0  0  0  1  0  0  0  0  0  0
  162.8860  210.3030  149.0750 C   0  0  1  0  0  3  0  0  0  0  0  0
  161.9180  209.4310  148.3120 C   0  0  0  0  0  2  0  0  0  0  0  0
  161.5020  207.8960  153.3100 C   0  0  0  0  0  2  0  0  0  0  0  0
  160.8770  211.0770  153.5800 C   0  0  0  0  0  3  0  0  0  0  0  0
  160.0460  209.9670  153.3920 C   0  0  0  0  0  0  0  0  0  0  0  0
  158.7880  209.9300  154.0150 C   0  0  0  0  0  3  0  0  0  0  0  0
  157.0890  210.9610  155.4350 N   0  0  0  0  0  1  0  0  0  0  0  0
  159.1970  212.1090  154.9880 C   0  0  0  0  0  3  0  0  0  0  0  0
  158.3650  211.0020  154.8070 C   0  0  0  0  0  0  0  0  0  0  0  0
  160.4530  212.1470  154.3740 C   0  0  0  0  0  3  0  0  0  0  0  0
  162.4710  212.4510  147.8690 C   0  0  0  0  0  0  0  0  0  0  0  0
  161.1690  213.0580  147.7670 N   0  0  0  0  0  2  0  0  0  0  0  0
  163.1960  212.4070  146.8390 O   0  0  0  0  0  0  0  0  0  0  0  0
  158.8930  213.3160  148.2130 C   0  0  0  0  0  1  0  0  0  0  0  0
  160.2150  213.1740  148.8010 N   0  0  0  0  0  0  0  0  0  0  0  0
  159.9870  214.1960  150.8820 O   0  0  0  0  0  1  0  0  0  0  0  0
  160.5020  214.3590  149.5960 C   0  0  0  0  0  2  0  0  0  0  0  0
  1 10  1  6  0  0  0
  1 13  1  0  0  0  0
  1 18  1  0  0  0  0
  2 16  1  1  0  0  0
  4  6  1  0  0  0  0
  4  8  2  0  0  0  0
  5  2  1  0  0  0  0
  5  7  1  0  0  0  0
  6  2  1  0  0  0  0
  7  3  1  0  0  0  0
  7 19  1  0  0  0  0
  8 12  1  0  0  0  0
  9 17  1  0  0  0  0
  9  6  1  0  0  0  0
 11 23  1  0  0  0  0
 12 16  1  0  0  0  0
 13  9  1  0  0  0  0
 14 15  1  0  0  0  0
 15  3  1  0  0  0  0
 16 11  2  0  0  0  0
 17  5  1  0  0  0  0
 18  4  1  0  0  0  0
 19 23  1  0  0  0  0
 19 25  1  0  0  0  0
 20  1  1  0  0  0  0
 21 14  1  0  0  0  0
 21 15  1  0  0  0  0
 22 17  1  0  0  0  0
 22 21  1  0  0  0  0
 24 30  1  0  0  0  0
 25 24  2  0  0  0  0
 25 26  1  0  0  0  0
 26 29  2  0  0  0  0
 29 28  1  0  0  0  0
 29 27  1  0  0  0  0
 30 28  2  0  0  0  0
 31 14  1  0  0  0  0
 32 31  1  0  0  0  0
 32 35  1  0  0  0  0
 33 31  2  0  0  0  0
 34 35  1  0  0  0  0
 35 37  1  0  0  0  0
 37 36  1  0  0  0  0
M  END
>  <MODEL>
3

>  <REMARK>
 VINA RESULT:      -5.4      1.123      1.224
  Name = 
  4 active torsions:
  status: ('A' for Active; 'I' for Inactive)
    1  A    between atoms: N_4  and  N_12
    2  A    between atoms: N_4  and  C_37
    3  A    between atoms: C_8  and  C_18
    4  A    between atoms: C_23  and  C_30
                            x       y       z     vdW  Elec       q    Type
                         _______ _______ _______ _____ _____    ______ ____

>  <TORSDO>
F 4

$$$$
