=
 OpenBabel11122414173D

 34 41  0  0  1  0  0  0  0  0999 V2000
  161.8010  209.4440  151.2170 C   0  0  0  0  0  0  0  0  0  0  0  0
  161.5360  211.1250  153.1060 C   0  0  0  0  0  2  0  0  0  0  0  0
  161.2090  203.2790  148.4270 C   0  0  0  0  0  0  0  0  0  0  0  0
  161.6770  207.7780  149.4800 C   0  0  0  0  0  0  0  0  0  0  0  0
  161.1310  205.4420  149.9630 C   0  0  0  0  0  0  0  0  0  0  0  0
  160.5890  202.8530  150.3160 C   0  0  0  0  0  2  0  0  0  0  0  0
  160.7940  202.0430  149.1530 C   0  0  0  0  0  2  0  0  0  0  0  0
  161.9370  204.9820  146.8610 C   0  0  0  0  0  3  0  0  0  0  0  0
  161.8030  208.7850  153.6500 C   0  0  2  0  0  3  0  0  0  0  0  0
  159.6210  207.8150  155.8380 C   0  0  0  0  0  3  0  0  0  0  0  0
  160.7060  205.8720  151.3440 C   0  0  0  0  0  2  0  0  0  0  0  0
  161.9020  206.0900  147.6200 C   0  0  0  0  0  3  0  0  0  0  0  0
  161.0220  207.5320  153.2140 C   0  0  1  0  0  3  0  0  0  0  0  0
  161.4680  210.9800  154.6180 C   0  0  0  0  0  2  0  0  0  0  0  0
  161.5400  206.3600  149.0480 C   0  0  0  0  0  0  0  0  0  0  0  0
  161.6070  203.5970  147.2170 C   0  0  0  0  0  3  0  0  0  0  0  0
  159.8000  209.1630  155.1880 C   0  0  2  0  0  3  0  0  0  0  0  0
  161.6640  208.1020  150.8430 C   0  0  0  0  0  0  0  0  0  0  0  0
  160.9920  204.0660  149.6380 N   0  0  0  0  0  0  0  0  0  0  0  0
  161.5780  207.0080  151.8810 C   0  0  2  0  0  3  0  0  0  0  0  0
  161.9240  210.0750  148.9430 C   0  0  0  0  0  3  0  0  0  0  0  0
  160.1710  206.6580  155.4310 C   0  0  0  0  0  3  0  0  0  0  0  0
  161.8090  208.7760  148.5610 N   0  0  0  0  0  0  0  0  0  0  0  0
  161.1510  206.4750  154.3020 C   0  0  0  0  0  2  0  0  0  0  0  0
  161.2800  209.4880  154.9110 C   0  0  1  0  0  3  0  0  0  0  0  0
  161.9170  210.4040  150.2610 N   0  0  0  0  0  0  0  0  0  0  0  0
  161.7850  209.7910  152.6060 N   0  0  0  0  0  0  0  0  0  0  0  0
  159.2180  210.1360  156.0080 O   0  0  0  0  0  0  0  0  0  0  0  0
  158.0180  210.4680  155.3740 C   0  0  0  0  0  2  0  0  0  0  0  0
  156.8650  213.3080  153.6520 C   0  0  0  0  0  2  0  0  0  0  0  0
  156.3520  212.2940  155.6660 C   0  0  0  0  0  2  0  0  0  0  0  0
  157.8070  211.9710  155.4160 C   0  0  2  0  0  3  0  0  0  0  0  0
  156.0030  213.4220  154.8180 N   0  0  0  0  0  2  0  0  0  0  0  0
  158.1200  212.5720  154.0690 C   0  0  0  0  0  2  0  0  0  0  0  0
  1 27  1  0  0  0  0
  2 14  1  0  0  0  0
  3  7  1  0  0  0  0
  3 19  1  0  0  0  0
  4 18  2  0  0  0  0
  5 11  1  0  0  0  0
  7  6  1  0  0  0  0
  8 16  1  0  0  0  0
  8 12  2  0  0  0  0
  9 27  1  6  0  0  0
  9 25  1  0  0  0  0
 12 15  1  0  0  0  0
 13  9  1  0  0  0  0
 13 24  1  1  0  0  0
 15  4  1  0  0  0  0
 15  5  2  0  0  0  0
 16  3  2  0  0  0  0
 17 10  1  0  0  0  0
 17 28  1  1  0  0  0
 18  1  1  0  0  0  0
 18 20  1  0  0  0  0
 19  5  1  0  0  0  0
 19  6  1  0  0  0  0
 20 11  1  6  0  0  0
 20 13  1  0  0  0  0
 21 26  1  0  0  0  0
 22 10  2  0  0  0  0
 23 21  2  0  0  0  0
 23  4  1  0  0  0  0
 24 22  1  0  0  0  0
 25 14  1  6  0  0  0
 25 17  1  0  0  0  0
 26  1  2  0  0  0  0
 27  2  1  0  0  0  0
 29 28  1  0  0  0  0
 30 34  1  0  0  0  0
 30 33  1  0  0  0  0
 32 29  1  6  0  0  0
 32 31  1  0  0  0  0
 33 31  1  0  0  0  0
 34 32  1  0  0  0  0
M  END
>  <MODEL>
1

>  <REMARK>
 VINA RESULT:      -9.8      0.000      0.000
  Name = 
  3 active torsions:
  status: ('A' for Active; 'I' for Inactive)
    1  A    between atoms: C_17  and  O_28
    2  A    between atoms: O_28  and  C_29
    3  A    between atoms: C_29  and  C_32
                            x       y       z     vdW  Elec       q    Type
                         _______ _______ _______ _____ _____    ______ ____

>  <TORSDO>
F 3

$$$$
=
 OpenBabel11122414173D

 34 41  0  0  1  0  0  0  0  0999 V2000
  161.7860  208.5710  150.2880 C   0  0  0  0  0  0  0  0  0  0  0  0
  161.6770  210.5400  151.8910 C   0  0  0  0  0  2  0  0  0  0  0  0
  160.9260  202.0510  148.5850 C   0  0  0  0  0  0  0  0  0  0  0  0
  161.5190  206.6490  148.8570 C   0  0  0  0  0  0  0  0  0  0  0  0
  160.9830  204.4350  149.7500 C   0  0  0  0  0  0  0  0  0  0  0  0
  160.4380  201.9500  150.5570 C   0  0  0  0  0  2  0  0  0  0  0  0
  160.5490  200.9590  149.5300 C   0  0  0  0  0  2  0  0  0  0  0  0
  161.5580  203.4610  146.7160 C   0  0  0  0  0  3  0  0  0  0  0  0
  161.9550  208.3130  152.7890 C   0  0  2  0  0  3  0  0  0  0  0  0
  159.9260  207.7600  155.2510 C   0  0  0  0  0  3  0  0  0  0  0  0
  160.6630  205.0920  151.0700 C   0  0  0  0  0  2  0  0  0  0  0  0
  161.5900  204.6790  147.2860 C   0  0  0  0  0  3  0  0  0  0  0  0
  161.1310  207.0250  152.6180 C   0  0  1  0  0  3  0  0  0  0  0  0
  161.7160  210.6420  153.4070 C   0  0  0  0  0  2  0  0  0  0  0  0
  161.3350  205.1840  148.6720 C   0  0  0  0  0  0  0  0  0  0  0  0
  161.2390  202.1600  147.3150 C   0  0  0  0  0  3  0  0  0  0  0  0
  160.0730  208.9810  154.3800 C   0  0  2  0  0  3  0  0  0  0  0  0
  161.6080  207.1890  150.1470 C   0  0  0  0  0  0  0  0  0  0  0  0
  160.8040  203.0280  149.6640 N   0  0  0  0  0  0  0  0  0  0  0  0
  161.5840  206.2790  151.3530 C   0  0  2  0  0  3  0  0  0  0  0  0
  161.7530  208.8220  147.9380 C   0  0  0  0  0  3  0  0  0  0  0  0
  160.4310  206.5400  155.0010 C   0  0  0  0  0  3  0  0  0  0  0  0
  161.5960  207.4820  147.7820 N   0  0  0  0  0  0  0  0  0  0  0  0
  161.3260  206.1540  153.8520 C   0  0  0  0  0  2  0  0  0  0  0  0
  161.5330  209.2220  153.9520 C   0  0  1  0  0  3  0  0  0  0  0  0
  161.8440  209.3610  149.1820 N   0  0  0  0  0  0  0  0  0  0  0  0
  161.8740  209.1370  151.5990 N   0  0  0  0  0  0  0  0  0  0  0  0
  159.5620  210.0860  155.0690 O   0  0  0  0  0  0  0  0  0  0  0  0
  159.7460  209.7820  156.4210 C   0  0  0  0  0  2  0  0  0  0  0  0
  159.8580  213.2950  156.4780 C   0  0  0  0  0  2  0  0  0  0  0  0
  158.2590  211.6990  156.9730 C   0  0  0  0  0  2  0  0  0  0  0  0
  159.5870  211.0360  157.2610 C   0  0  2  0  0  3  0  0  0  0  0  0
  158.4860  213.1340  156.9360 N   0  0  0  0  0  2  0  0  0  0  0  0
  160.6300  212.0530  156.8700 C   0  0  0  0  0  2  0  0  0  0  0  0
  1 27  1  0  0  0  0
  2 14  1  0  0  0  0
  3  7  1  0  0  0  0
  3 19  1  0  0  0  0
  4 18  2  0  0  0  0
  5 11  1  0  0  0  0
  7  6  1  0  0  0  0
  8 12  2  0  0  0  0
  8 16  1  0  0  0  0
  9 27  1  6  0  0  0
  9 25  1  0  0  0  0
 12 15  1  0  0  0  0
 13  9  1  0  0  0  0
 13 24  1  1  0  0  0
 15  4  1  0  0  0  0
 15  5  2  0  0  0  0
 16  3  2  0  0  0  0
 17 28  1  1  0  0  0
 17 10  1  0  0  0  0
 18  1  1  0  0  0  0
 18 20  1  0  0  0  0
 19  5  1  0  0  0  0
 19  6  1  0  0  0  0
 20 11  1  6  0  0  0
 20 13  1  0  0  0  0
 21 26  1  0  0  0  0
 22 10  2  0  0  0  0
 23 21  2  0  0  0  0
 23  4  1  0  0  0  0
 24 22  1  0  0  0  0
 25 14  1  6  0  0  0
 25 17  1  0  0  0  0
 26  1  2  0  0  0  0
 27  2  1  0  0  0  0
 28 29  1  0  0  0  0
 30 34  1  0  0  0  0
 30 33  1  0  0  0  0
 31 32  1  0  0  0  0
 32 29  1  6  0  0  0
 33 31  1  0  0  0  0
 34 32  1  0  0  0  0
M  END
>  <MODEL>
2

>  <REMARK>
 VINA RESULT:      -9.4      1.477      1.698
  Name = 
  3 active torsions:
  status: ('A' for Active; 'I' for Inactive)
    1  A    between atoms: C_17  and  O_28
    2  A    between atoms: O_28  and  C_29
    3  A    between atoms: C_29  and  C_32
                            x       y       z     vdW  Elec       q    Type
                         _______ _______ _______ _____ _____    ______ ____

>  <TORSDO>
F 3

$$$$
=
 OpenBabel11122414173D

 34 41  0  0  1  0  0  0  0  0999 V2000
  160.9070  207.0390  154.1410 C   0  0  0  0  0  0  0  0  0  0  0  0
  161.5850  204.8770  152.9900 C   0  0  0  0  0  2  0  0  0  0  0  0
  158.9870  213.5540  154.2110 C   0  0  0  0  0  0  0  0  0  0  0  0
  159.9570  209.0820  154.9980 C   0  0  0  0  0  0  0  0  0  0  0  0
  159.6700  211.0660  153.5950 C   0  0  0  0  0  0  0  0  0  0  0  0
  159.3220  213.3250  152.2190 C   0  0  0  0  0  2  0  0  0  0  0  0
  158.9440  214.4510  153.0180 C   0  0  0  0  0  2  0  0  0  0  0  0
  158.9150  212.5040  156.3950 C   0  0  0  0  0  3  0  0  0  0  0  0
  162.0440  206.9800  151.8920 C   0  0  2  0  0  3  0  0  0  0  0  0
  161.1340  206.9240  148.7840 C   0  0  0  0  0  3  0  0  0  0  0  0
  159.9510  210.2010  152.3910 C   0  0  0  0  0  2  0  0  0  0  0  0
  159.2570  211.2360  156.1050 C   0  0  0  0  0  3  0  0  0  0  0  0
  161.1320  208.1590  151.5050 C   0  0  1  0  0  3  0  0  0  0  0  0
  162.2340  204.5780  151.6480 C   0  0  0  0  0  2  0  0  0  0  0  0
  159.6140  210.5210  154.8390 C   0  0  0  0  0  0  0  0  0  0  0  0
  158.7730  213.6590  155.5020 C   0  0  0  0  0  3  0  0  0  0  0  0
  161.0050  205.8610  149.8450 C   0  0  2  0  0  3  0  0  0  0  0  0
  160.5920  208.3910  153.9570 C   0  0  0  0  0  0  0  0  0  0  0  0
  159.3750  212.4350  153.3570 N   0  0  0  0  0  0  0  0  0  0  0  0
  160.9880  209.1200  152.6950 C   0  0  2  0  0  3  0  0  0  0  0  0
  159.9550  207.1020  156.3030 C   0  0  0  0  0  3  0  0  0  0  0  0
  161.4120  208.2230  148.9910 C   0  0  0  0  0  3  0  0  0  0  0  0
  159.6560  208.4180  156.1490 N   0  0  0  0  0  0  0  0  0  0  0  0
  161.7430  208.8740  150.3080 C   0  0  0  0  0  2  0  0  0  0  0  0
  162.1860  205.8760  150.8350 C   0  0  1  0  0  3  0  0  0  0  0  0
  160.5720  206.4190  155.3040 N   0  0  0  0  0  0  0  0  0  0  0  0
  161.5510  206.3190  153.0840 N   0  0  0  0  0  0  0  0  0  0  0  0
  160.8910  204.6160  149.2190 O   0  0  0  0  0  0  0  0  0  0  0  0
  161.2240  204.8550  147.8820 C   0  0  0  0  0  2  0  0  0  0  0  0
  160.5300  201.5420  146.9340 C   0  0  0  0  0  2  0  0  0  0  0  0
  161.2460  203.4450  145.8310 C   0  0  0  0  0  2  0  0  0  0  0  0
  161.7610  203.5850  147.2460 C   0  0  2  0  0  3  0  0  0  0  0  0
  160.9160  202.0450  145.6240 N   0  0  0  0  0  2  0  0  0  0  0  0
  161.2330  202.3790  147.9810 C   0  0  0  0  0  2  0  0  0  0  0  0
  1 26  1  0  0  0  0
  2 27  1  0  0  0  0
  3 16  2  0  0  0  0
  4 23  2  0  0  0  0
  5 15  2  0  0  0  0
  6  7  1  0  0  0  0
  6 19  1  0  0  0  0
  7  3  1  0  0  0  0
  9 27  1  1  0  0  0
 10 22  2  0  0  0  0
 10 17  1  0  0  0  0
 11  5  1  0  0  0  0
 12  8  2  0  0  0  0
 13 24  1  6  0  0  0
 13  9  1  0  0  0  0
 13 20  1  0  0  0  0
 14  2  1  0  0  0  0
 15  4  1  0  0  0  0
 15 12  1  0  0  0  0
 16  8  1  0  0  0  0
 17 28  1  6  0  0  0
 17 25  1  0  0  0  0
 18  1  2  0  0  0  0
 18  4  1  0  0  0  0
 19  5  1  0  0  0  0
 19  3  1  0  0  0  0
 20 11  1  6  0  0  0
 20 18  1  0  0  0  0
 22 24  1  0  0  0  0
 23 21  1  0  0  0  0
 25 14  1  1  0  0  0
 25  9  1  0  0  0  0
 26 21  2  0  0  0  0
 27  1  1  0  0  0  0
 29 28  1  0  0  0  0
 30 34  1  0  0  0  0
 31 32  1  0  0  0  0
 32 29  1  1  0  0  0
 32 34  1  0  0  0  0
 33 31  1  0  0  0  0
 33 30  1  0  0  0  0
M  END
>  <MODEL>
3

>  <REMARK>
 VINA RESULT:      -8.9      2.572      8.972
  Name = 
  3 active torsions:
  status: ('A' for Active; 'I' for Inactive)
    1  A    between atoms: C_17  and  O_28
    2  A    between atoms: O_28  and  C_29
    3  A    between atoms: C_29  and  C_32
                            x       y       z     vdW  Elec       q    Type
                         _______ _______ _______ _____ _____    ______ ____

>  <TORSDO>
F 3

$$$$
=
 OpenBabel11122414173D

 34 41  0  0  1  0  0  0  0  0999 V2000
  161.7280  208.6510  150.2930 C   0  0  0  0  0  0  0  0  0  0  0  0
  161.6380  210.6180  151.9000 C   0  0  0  0  0  2  0  0  0  0  0  0
  160.9000  202.1210  148.6130 C   0  0  0  0  0  0  0  0  0  0  0  0
  161.4450  206.7260  148.8700 C   0  0  0  0  0  0  0  0  0  0  0  0
  160.9600  204.5050  149.7770 C   0  0  0  0  0  0  0  0  0  0  0  0
  160.4680  202.0140  150.5970 C   0  0  0  0  0  2  0  0  0  0  0  0
  160.5630  201.0240  149.5670 C   0  0  0  0  0  2  0  0  0  0  0  0
  161.4640  203.5390  146.7280 C   0  0  0  0  0  3  0  0  0  0  0  0
  161.9680  208.3950  152.7900 C   0  0  2  0  0  3  0  0  0  0  0  0
  160.0130  207.8180  155.3060 C   0  0  0  0  0  3  0  0  0  0  0  0
  160.6680  205.1590  151.1050 C   0  0  0  0  0  2  0  0  0  0  0  0
  161.4970  204.7570  147.2970 C   0  0  0  0  0  3  0  0  0  0  0  0
  161.1550  207.0970  152.6410 C   0  0  1  0  0  3  0  0  0  0  0  0
  161.7180  210.7220  153.4150 C   0  0  0  0  0  2  0  0  0  0  0  0
  161.2740  205.2590  148.6900 C   0  0  0  0  0  0  0  0  0  0  0  0
  161.1780  202.2340  147.3350 C   0  0  0  0  0  3  0  0  0  0  0  0
  160.1220  209.0400  154.4310 C   0  0  2  0  0  3  0  0  0  0  0  0
  161.5620  207.2670  150.1580 C   0  0  0  0  0  0  0  0  0  0  0  0
  160.7970  203.0970  149.6960 N   0  0  0  0  0  0  0  0  0  0  0  0
  161.5820  206.3570  151.3630 C   0  0  2  0  0  3  0  0  0  0  0  0
  161.6270  208.9020  147.9450 C   0  0  0  0  0  3  0  0  0  0  0  0
  160.5270  206.6040  155.0420 C   0  0  0  0  0  3  0  0  0  0  0  0
  161.4830  207.5600  147.7940 N   0  0  0  0  0  0  0  0  0  0  0  0
  161.3940  206.2290  153.8680 C   0  0  0  0  0  2  0  0  0  0  0  0
  161.5660  209.2990  153.9640 C   0  0  1  0  0  3  0  0  0  0  0  0
  161.7460  209.4410  149.1870 N   0  0  0  0  0  0  0  0  0  0  0  0
  161.8440  209.2180  151.6020 N   0  0  0  0  0  0  0  0  0  0  0  0
  159.6170  210.1390  155.1340 O   0  0  0  0  0  0  0  0  0  0  0  0
  158.3790  210.4060  154.5420 C   0  0  0  0  0  2  0  0  0  0  0  0
  156.8400  213.5520  154.8470 C   0  0  0  0  0  2  0  0  0  0  0  0
  159.0030  212.7600  155.0540 C   0  0  0  0  0  2  0  0  0  0  0  0
  158.3360  211.8430  154.0540 C   0  0  2  0  0  3  0  0  0  0  0  0
  158.2020  213.9700  155.1380 N   0  0  0  0  0  2  0  0  0  0  0  0
  156.9070  212.3170  153.9740 C   0  0  0  0  0  2  0  0  0  0  0  0
  1 27  1  0  0  0  0
  2 14  1  0  0  0  0
  3  7  1  0  0  0  0
  3 19  1  0  0  0  0
  4 18  2  0  0  0  0
  5 11  1  0  0  0  0
  7  6  1  0  0  0  0
  8 12  2  0  0  0  0
  8 16  1  0  0  0  0
  9 27  1  6  0  0  0
  9 25  1  0  0  0  0
 12 15  1  0  0  0  0
 13  9  1  0  0  0  0
 13 24  1  1  0  0  0
 15  4  1  0  0  0  0
 15  5  2  0  0  0  0
 16  3  2  0  0  0  0
 17 28  1  1  0  0  0
 17 10  1  0  0  0  0
 18  1  1  0  0  0  0
 18 20  1  0  0  0  0
 19  5  1  0  0  0  0
 19  6  1  0  0  0  0
 20 11  1  6  0  0  0
 20 13  1  0  0  0  0
 21 26  1  0  0  0  0
 22 10  2  0  0  0  0
 23 21  2  0  0  0  0
 23  4  1  0  0  0  0
 24 22  1  0  0  0  0
 25 14  1  6  0  0  0
 25 17  1  0  0  0  0
 26  1  2  0  0  0  0
 27  2  1  0  0  0  0
 29 28  1  0  0  0  0
 30 33  1  0  0  0  0
 31 33  1  0  0  0  0
 32 29  1  1  0  0  0
 32 31  1  0  0  0  0
 34 32  1  0  0  0  0
 34 30  1  0  0  0  0
M  END
>  <MODEL>
4

>  <REMARK>
 VINA RESULT:      -8.7      1.045      1.262
  Name = 
  3 active torsions:
  status: ('A' for Active; 'I' for Inactive)
    1  A    between atoms: C_17  and  O_28
    2  A    between atoms: O_28  and  C_29
    3  A    between atoms: C_29  and  C_32
                            x       y       z     vdW  Elec       q    Type
                         _______ _______ _______ _____ _____    ______ ____

>  <TORSDO>
F 3

$$$$
=
 OpenBabel11122414173D

 34 41  0  0  1  0  0  0  0  0999 V2000
  161.5360  208.5730  149.6160 C   0  0  0  0  0  0  0  0  0  0  0  0
  161.6650  207.3600  147.3860 C   0  0  0  0  0  2  0  0  0  0  0  0
  160.9550  208.8340  156.3790 C   0  0  0  0  0  0  0  0  0  0  0  0
  161.6960  209.4860  151.8420 C   0  0  0  0  0  0  0  0  0  0  0  0
  161.2100  208.1440  153.8300 C   0  0  0  0  0  0  0  0  0  0  0  0
  160.6810  206.8390  156.0960 C   0  0  0  0  0  2  0  0  0  0  0  0
  160.6420  207.6710  157.2610 C   0  0  0  0  0  2  0  0  0  0  0  0
  161.4540  210.9820  155.3700 C   0  0  0  0  0  3  0  0  0  0  0  0
  160.4480  206.3360  149.2070 C   0  0  2  0  0  3  0  0  0  0  0  0
  161.2440  203.2180  149.5670 C   0  0  0  0  0  3  0  0  0  0  0  0
  161.2360  206.9160  152.9540 C   0  0  0  0  0  2  0  0  0  0  0  0
  161.5900  210.6540  154.0730 C   0  0  0  0  0  3  0  0  0  0  0  0
  160.8590  205.9780  150.6460 C   0  0  1  0  0  3  0  0  0  0  0  0
  161.1380  206.0170  146.9070 C   0  0  0  0  0  2  0  0  0  0  0  0
  161.4890  209.3700  153.3110 C   0  0  0  0  0  0  0  0  0  0  0  0
  161.1450  210.1250  156.5210 C   0  0  0  0  0  3  0  0  0  0  0  0
  161.7750  204.2420  148.5970 C   0  0  2  0  0  3  0  0  0  0  0  0
  161.3330  208.4300  150.9940 C   0  0  0  0  0  0  0  0  0  0  0  0
  160.9820  207.9480  155.2180 N   0  0  0  0  0  0  0  0  0  0  0  0
  160.6700  207.1970  151.5620 C   0  0  2  0  0  3  0  0  0  0  0  0
  162.4490  210.7250  149.9650 C   0  0  0  0  0  3  0  0  0  0  0  0
  160.5180  203.4710  150.6690 C   0  0  0  0  0  3  0  0  0  0  0  0
  162.2450  210.6110  151.3030 N   0  0  0  0  0  0  0  0  0  0  0  0
  160.0030  204.8120  151.1200 C   0  0  0  0  0  2  0  0  0  0  0  0
  160.6930  205.2450  148.1540 C   0  0  1  0  0  3  0  0  0  0  0  0
  162.0990  209.7110  149.1300 N   0  0  0  0  0  0  0  0  0  0  0  0
  161.1740  207.5010  148.7390 N   0  0  0  0  0  0  0  0  0  0  0  0
  162.3200  203.5740  147.4950 O   0  0  0  0  0  0  0  0  0  0  0  0
  161.5240  202.4360  147.3360 C   0  0  0  0  0  2  0  0  0  0  0  0
  159.3290  201.3390  144.8200 C   0  0  0  0  0  2  0  0  0  0  0  0
  160.5930  203.2430  145.1740 C   0  0  0  0  0  2  0  0  0  0  0  0
  161.3490  202.1280  145.8600 C   0  0  2  0  0  3  0  0  0  0  0  0
  159.6650  202.6290  144.2390 N   0  0  0  0  0  2  0  0  0  0  0  0
  160.4880  200.9020  145.6890 C   0  0  0  0  0  2  0  0  0  0  0  0
  1 18  1  0  0  0  0
  2 27  1  0  0  0  0
  3 16  2  0  0  0  0
  3  7  1  0  0  0  0
  4 15  1  0  0  0  0
  5 19  1  0  0  0  0
  6  7  1  0  0  0  0
  8 16  1  0  0  0  0
  9 27  1  6  0  0  0
  9 13  1  0  0  0  0
 10 22  2  0  0  0  0
 11  5  1  0  0  0  0
 12  8  2  0  0  0  0
 13 24  1  1  0  0  0
 13 20  1  0  0  0  0
 14  2  1  0  0  0  0
 15  5  2  0  0  0  0
 15 12  1  0  0  0  0
 17 28  1  6  0  0  0
 17 10  1  0  0  0  0
 18 20  1  0  0  0  0
 18  4  2  0  0  0  0
 19  6  1  0  0  0  0
 19  3  1  0  0  0  0
 20 11  1  1  0  0  0
 21 23  2  0  0  0  0
 22 24  1  0  0  0  0
 23  4  1  0  0  0  0
 25 14  1  6  0  0  0
 25 17  1  0  0  0  0
 25  9  1  0  0  0  0
 26  1  2  0  0  0  0
 26 21  1  0  0  0  0
 27  1  1  0  0  0  0
 29 28  1  0  0  0  0
 30 34  1  0  0  0  0
 31 32  1  0  0  0  0
 32 29  1  1  0  0  0
 33 30  1  0  0  0  0
 33 31  1  0  0  0  0
 34 32  1  0  0  0  0
M  END
>  <MODEL>
5

>  <REMARK>
 VINA RESULT:      -7.6      3.081      8.509
  Name = 
  3 active torsions:
  status: ('A' for Active; 'I' for Inactive)
    1  A    between atoms: C_17  and  O_28
    2  A    between atoms: O_28  and  C_29
    3  A    between atoms: C_29  and  C_32
                            x       y       z     vdW  Elec       q    Type
                         _______ _______ _______ _____ _____    ______ ____

>  <TORSDO>
F 3

$$$$
