=
 OpenBabel11122414143D

 28 32  0  0  1  0  0  0  0  0999 V2000
  161.0180  209.8550  156.1840 C   0  0  0  0  0  0  0  0  0  0  0  0
  162.5690  210.5190  153.2040 F   0  0  0  0  0  0  0  0  0  0  0  0
  156.7580  213.6510  153.5880 C   0  0  0  0  0  1  0  0  0  0  0  0
  160.0590  207.2150  156.2250 C   0  0  0  0  0  3  0  0  0  0  0  0
  158.8920  213.1080  152.4270 C   0  0  2  0  0  3  0  0  0  0  0  0
  161.5570  211.2540  156.2650 C   0  0  0  0  0  2  0  0  0  0  0  0
  162.0210  208.3240  153.1950 O   0  0  0  0  0  1  0  0  0  0  0  0
  161.8270  209.5460  152.5540 C   0  0  1  0  0  0  0  0  0  0  0  0
  161.5470  210.2060  150.0960 C   0  0  2  0  0  3  0  0  0  0  0  0
  160.3190  209.9260  152.5660 C   0  0  2  0  0  3  0  0  0  0  0  0
  160.2010  214.2410  156.3730 O   0  0  0  0  0  0  0  0  0  0  0  0
  159.8130  211.6920  154.0460 C   0  0  1  0  0  3  0  0  0  0  0  0
  160.9980  211.4680  150.7410 C   0  0  0  0  0  2  0  0  0  0  0  0
  162.3500  209.4080  151.1190 C   0  0  0  0  0  2  0  0  0  0  0  0
  159.8540  213.0430  156.5460 C   0  0  0  0  0  0  0  0  0  0  0  0
  160.1840  209.3860  155.1270 C   0  0  0  0  0  0  0  0  0  0  0  0
  158.2530  213.4650  153.7560 C   0  0  2  0  0  3  0  0  0  0  0  0
  162.4000  210.5570  148.9770 N   0  0  0  0  0  1  0  0  0  0  0  0
  158.6600  212.5720  155.9930 O   0  0  0  0  0  0  0  0  0  0  0  0
  159.7110  208.0670  155.1770 C   0  0  0  0  0  3  0  0  0  0  0  0
  161.3600  208.9850  157.2270 C   0  0  0  0  0  3  0  0  0  0  0  0
  160.8860  207.6730  157.2480 C   0  0  0  0  0  3  0  0  0  0  0  0
  160.7620  212.0980  157.2610 C   0  0  0  0  0  2  0  0  0  0  0  0
  160.0360  212.2370  152.7070 N   0  0  1  0  0  0  0  0  0  0  0  0
  158.5270  212.2550  154.6060 C   0  0  2  0  0  3  0  0  0  0  0  0
  160.0190  211.1570  151.7930 N   0  0  2  0  0  0  0  0  0  0  0  0
  159.3650  214.3670  151.7270 C   0  0  0  0  0  1  0  0  0  0  0  0
  159.7290  210.2040  153.9340 C   0  0  2  0  0  3  0  0  0  0  0  0
  1  6  1  0  0  0  0
  1 21  1  0  0  0  0
  3 17  1  0  0  0  0
  4 22  1  0  0  0  0
  5 27  1  1  0  0  0
  5 24  1  0  0  0  0
  5 17  1  0  0  0  0
  6 23  1  0  0  0  0
  8 10  1  0  0  0  0
  8  7  1  1  0  0  0
  8  2  1  0  0  0  0
  9 18  1  6  0  0  0
  9 13  1  0  0  0  0
  9 14  1  0  0  0  0
 10 28  1  0  0  0  0
 11 15  2  0  0  0  0
 12 25  1  0  0  0  0
 13 26  1  0  0  0  0
 14  8  1  0  0  0  0
 15 23  1  0  0  0  0
 16 20  1  0  0  0  0
 16  1  2  0  0  0  0
 17 25  1  0  0  0  0
 19 15  1  0  0  0  0
 20  4  2  0  0  0  0
 21 22  2  0  0  0  0
 24 12  1  0  0  0  0
 25 19  1  0  0  0  0
 26 10  1  0  0  0  0
 26 24  1  0  0  0  0
 28 12  1  0  0  0  0
 28 16  1  0  0  0  0
M  END
>  <MODEL>
1

>  <REMARK>
 VINA RESULT:      -4.5      0.000      0.000
  Name = 
  0 active torsions:
  status: ('A' for Active; 'I' for Inactive)
                            x       y       z     vdW  Elec       q    Type
                         _______ _______ _______ _____ _____    ______ ____

>  <TORSDO>
F 0

$$$$
=
 OpenBabel11122414143D

 28 32  0  0  1  0  0  0  0  0999 V2000
  160.9580  208.8830  153.5630 C   0  0  0  0  0  0  0  0  0  0  0  0
  158.1580  210.6830  152.7610 F   0  0  0  0  0  0  0  0  0  0  0  0
  163.1820  212.2270  148.7500 C   0  0  0  0  0  1  0  0  0  0  0  0
  162.0640  209.8090  155.9730 C   0  0  0  0  0  3  0  0  0  0  0  0
  160.8120  212.4280  149.4860 C   0  0  2  0  0  3  0  0  0  0  0  0
  160.3920  208.2890  152.3060 C   0  0  0  0  0  2  0  0  0  0  0  0
  158.8360  211.3820  154.8030 O   0  0  0  0  0  1  0  0  0  0  0  0
  158.6020  211.7760  153.4860 C   0  0  1  0  0  0  0  0  0  0  0  0
  157.6590  213.9160  152.4430 C   0  0  2  0  0  3  0  0  0  0  0  0
  159.9050  212.3430  152.8540 C   0  0  2  0  0  3  0  0  0  0  0  0
  161.3690  208.1670  149.1750 O   0  0  0  0  0  0  0  0  0  0  0  0
  160.8720  210.9010  151.2580 C   0  0  1  0  0  3  0  0  0  0  0  0
  158.3260  213.3290  151.2100 C   0  0  0  0  0  2  0  0  0  0  0  0
  157.4930  212.8340  153.5070 C   0  0  0  0  0  2  0  0  0  0  0  0
  161.8630  208.4140  150.3050 C   0  0  0  0  0  0  0  0  0  0  0  0
  161.2520  210.2690  153.7230 C   0  0  0  0  0  0  0  0  0  0  0  0
  161.9560  211.4680  149.2160 C   0  0  2  0  0  3  0  0  0  0  0  0
  156.3590  214.4530  152.0900 N   0  0  0  0  0  1  0  0  0  0  0  0
  162.7070  209.5150  150.4770 O   0  0  0  0  0  0  0  0  0  0  0  0
  161.8120  210.7030  154.9320 C   0  0  0  0  0  3  0  0  0  0  0  0
  161.2150  208.0000  154.6200 C   0  0  0  0  0  3  0  0  0  0  0  0
  161.7620  208.4580  155.8180 C   0  0  0  0  0  3  0  0  0  0  0  0
  161.4760  207.5870  151.4870 C   0  0  0  0  0  2  0  0  0  0  0  0
  160.0100  211.8650  150.5730 N   0  0  1  0  0  0  0  0  0  0  0  0
  162.2150  210.8540  150.5640 C   0  0  2  0  0  3  0  0  0  0  0  0
  159.7030  212.8960  151.4920 N   0  0  2  0  0  0  0  0  0  0  0  0
  159.9590  212.5760  148.2410 C   0  0  0  0  0  1  0  0  0  0  0  0
  161.0310  211.3430  152.6770 C   0  0  2  0  0  3  0  0  0  0  0  0
  1 16  2  0  0  0  0
  1 21  1  0  0  0  0
  3 17  1  0  0  0  0
  5 27  1  6  0  0  0
  5 24  1  0  0  0  0
  6  1  1  0  0  0  0
  8  2  1  6  0  0  0
  8 14  1  0  0  0  0
  8  7  1  0  0  0  0
  9 18  1  6  0  0  0
  9 14  1  0  0  0  0
 10  8  1  0  0  0  0
 11 15  2  0  0  0  0
 12 28  1  0  0  0  0
 13 26  1  0  0  0  0
 13  9  1  0  0  0  0
 15 19  1  0  0  0  0
 15 23  1  0  0  0  0
 16 20  1  0  0  0  0
 17  5  1  0  0  0  0
 17 25  1  0  0  0  0
 19 25  1  0  0  0  0
 20  4  2  0  0  0  0
 21 22  2  0  0  0  0
 22  4  1  0  0  0  0
 23  6  1  0  0  0  0
 24 12  1  0  0  0  0
 24 26  1  0  0  0  0
 25 12  1  0  0  0  0
 26 10  1  0  0  0  0
 28 10  1  0  0  0  0
 28 16  1  0  0  0  0
M  END
>  <MODEL>
2

>  <REMARK>
 VINA RESULT:      -3.7      2.135      5.123
  Name = 
  0 active torsions:
  status: ('A' for Active; 'I' for Inactive)
                            x       y       z     vdW  Elec       q    Type
                         _______ _______ _______ _____ _____    ______ ____

>  <TORSDO>
F 0

$$$$
=
 OpenBabel11122414143D

 28 32  0  0  1  0  0  0  0  0999 V2000
  161.3680  211.1320  139.2290 C   0  0  0  0  0  0  0  0  0  0  0  0
  159.7770  211.6840  142.2100 F   0  0  0  0  0  0  0  0  0  0  0  0
  156.4500  214.4530  137.2120 C   0  0  0  0  0  1  0  0  0  0  0  0
  163.7080  212.6770  139.0640 C   0  0  0  0  0  3  0  0  0  0  0  0
  156.7240  213.8680  139.6160 C   0  0  2  0  0  3  0  0  0  0  0  0
  160.1710  210.2270  139.2680 C   0  0  0  0  0  2  0  0  0  0  0  0
  161.7320  212.8200  142.2780 O   0  0  0  0  0  1  0  0  0  0  0  0
  160.3440  212.9420  142.3270 C   0  0  1  0  0  0  0  0  0  0  0  0
  158.7670  214.4530  143.6630 C   0  0  2  0  0  3  0  0  0  0  0  0
  159.8440  213.8630  141.1780 C   0  0  2  0  0  3  0  0  0  0  0  0
  157.3310  210.0940  137.6280 O   0  0  0  0  0  0  0  0  0  0  0  0
  158.7390  212.6900  139.4550 C   0  0  1  0  0  3  0  0  0  0  0  0
  157.7990  214.0050  142.5810 C   0  0  0  0  0  2  0  0  0  0  0  0
  159.9750  213.5200  143.6980 C   0  0  0  0  0  2  0  0  0  0  0  0
  158.4610  210.6370  137.5100 C   0  0  0  0  0  0  0  0  0  0  0  0
  161.3070  212.5380  139.4540 C   0  0  0  0  0  0  0  0  0  0  0  0
  156.8390  213.3630  138.1890 C   0  0  2  0  0  3  0  0  0  0  0  0
  158.1040  214.4360  144.9530 N   0  0  0  0  0  1  0  0  0  0  0  0
  158.5580  211.9810  137.1400 O   0  0  0  0  0  0  0  0  0  0  0  0
  162.4880  213.2880  139.3550 C   0  0  0  0  0  3  0  0  0  0  0  0
  162.6020  210.5350  138.9390 C   0  0  0  0  0  3  0  0  0  0  0  0
  163.7650  211.3000  138.8590 C   0  0  0  0  0  3  0  0  0  0  0  0
  159.6960  209.8730  137.8580 C   0  0  0  0  0  2  0  0  0  0  0  0
  157.7480  213.1870  140.4100 N   0  0  1  0  0  0  0  0  0  0  0  0
  158.3040  213.0500  138.0530 C   0  0  2  0  0  3  0  0  0  0  0  0
  158.3870  214.1380  141.2390 N   0  0  2  0  0  0  0  0  0  0  0  0
  155.3480  213.5460  140.1660 C   0  0  0  0  0  1  0  0  0  0  0  0
  160.0530  213.3260  139.7760 C   0  0  2  0  0  3  0  0  0  0  0  0
  1  6  1  0  0  0  0
  1 16  1  0  0  0  0
  3 17  1  0  0  0  0
  4 20  1  0  0  0  0
  5 27  1  1  0  0  0
  5 24  1  0  0  0  0
  7  8  1  0  0  0  0
  8  2  1  6  0  0  0
  8 14  1  0  0  0  0
  9 14  1  0  0  0  0
  9 18  1  1  0  0  0
 10 26  1  0  0  0  0
 10  8  1  0  0  0  0
 12 28  1  0  0  0  0
 12 24  1  0  0  0  0
 13  9  1  0  0  0  0
 15 11  2  0  0  0  0
 15 23  1  0  0  0  0
 16 28  1  0  0  0  0
 17  5  1  0  0  0  0
 19 15  1  0  0  0  0
 19 25  1  0  0  0  0
 20 16  2  0  0  0  0
 21  1  2  0  0  0  0
 22 21  1  0  0  0  0
 22  4  2  0  0  0  0
 23  6  1  0  0  0  0
 24 26  1  0  0  0  0
 25 17  1  0  0  0  0
 25 12  1  0  0  0  0
 26 13  1  0  0  0  0
 28 10  1  0  0  0  0
M  END
>  <MODEL>
3

>  <REMARK>
 VINA RESULT:      -3.5     11.511     14.963
  Name = 
  0 active torsions:
  status: ('A' for Active; 'I' for Inactive)
                            x       y       z     vdW  Elec       q    Type
                         _______ _______ _______ _____ _____    ______ ____

>  <TORSDO>
F 0

$$$$
=
 OpenBabel11122414143D

 28 32  0  0  1  0  0  0  0  0999 V2000
  160.4460  211.1570  151.4630 C   0  0  0  0  0  0  0  0  0  0  0  0
  159.7030  207.8190  151.6180 F   0  0  0  0  0  0  0  0  0  0  0  0
  162.7060  209.8260  157.1550 C   0  0  0  0  0  1  0  0  0  0  0  0
  162.5580  211.6120  149.6690 C   0  0  0  0  0  3  0  0  0  0  0  0
  161.5850  208.0920  155.7650 C   0  0  2  0  0  3  0  0  0  0  0  0
  159.2710  211.0060  152.3860 C   0  0  0  0  0  2  0  0  0  0  0  0
  161.2690  208.0780  150.0060 O   0  0  0  0  0  1  0  0  0  0  0  0
  160.9870  207.4730  151.2300 C   0  0  1  0  0  0  0  0  0  0  0  0
  161.5810  205.1920  152.2310 C   0  0  2  0  0  3  0  0  0  0  0  0
  162.0120  207.9300  152.3060 C   0  0  2  0  0  3  0  0  0  0  0  0
  158.8160  211.3890  155.6140 O   0  0  0  0  0  0  0  0  0  0  0  0
  161.0980  209.4120  153.8970 C   0  0  1  0  0  3  0  0  0  0  0  0
  161.1980  205.9160  153.5110 C   0  0  0  0  0  2  0  0  0  0  0  0
  161.0440  205.9550  151.0230 C   0  0  0  0  0  2  0  0  0  0  0  0
  159.6590  211.7140  154.7370 C   0  0  0  0  0  0  0  0  0  0  0  0
  161.6640  210.4310  151.6030 C   0  0  0  0  0  0  0  0  0  0  0  0
  161.5410  209.5350  156.2310 C   0  0  2  0  0  3  0  0  0  0  0  0
  161.0310  203.8500  152.2420 N   0  0  0  0  0  1  0  0  0  0  0  0
  161.0260  211.5770  154.9940 O   0  0  0  0  0  0  0  0  0  0  0  0
  162.7060  210.6840  150.7000 C   0  0  0  0  0  3  0  0  0  0  0  0
  160.3130  212.0840  150.4200 C   0  0  0  0  0  3  0  0  0  0  0  0
  161.3610  212.3090  149.5270 C   0  0  0  0  0  3  0  0  0  0  0  0
  159.2000  212.1580  153.3880 C   0  0  0  0  0  2  0  0  0  0  0  0
  161.0220  208.0460  154.4150 N   0  0  1  0  0  0  0  0  0  0  0  0
  161.6930  210.3140  154.9540 C   0  0  2  0  0  3  0  0  0  0  0  0
  161.8480  207.2320  153.6050 N   0  0  2  0  0  0  0  0  0  0  0  0
  160.7600  207.2240  156.6960 C   0  0  0  0  0  1  0  0  0  0  0  0
  161.9570  209.4000  152.6740 C   0  0  2  0  0  3  0  0  0  0  0  0
  1 16  1  0  0  0  0
  1  6  1  0  0  0  0
  4 20  1  0  0  0  0
  5 17  1  0  0  0  0
  5 27  1  1  0  0  0
  6 23  1  0  0  0  0
  8  7  1  6  0  0  0
  8  2  1  0  0  0  0
  8 10  1  0  0  0  0
  9 18  1  1  0  0  0
  9 13  1  0  0  0  0
 10 28  1  0  0  0  0
 10 26  1  0  0  0  0
 12 24  1  0  0  0  0
 12 25  1  0  0  0  0
 13 26  1  0  0  0  0
 14  8  1  0  0  0  0
 14  9  1  0  0  0  0
 15 19  1  0  0  0  0
 15 11  2  0  0  0  0
 16 28  1  0  0  0  0
 17  3  1  0  0  0  0
 20 16  2  0  0  0  0
 21  1  2  0  0  0  0
 22  4  2  0  0  0  0
 22 21  1  0  0  0  0
 23 15  1  0  0  0  0
 24  5  1  0  0  0  0
 25 19  1  0  0  0  0
 25 17  1  0  0  0  0
 26 24  1  0  0  0  0
 28 12  1  0  0  0  0
M  END
>  <MODEL>
4

>  <REMARK>
 VINA RESULT:      -3.3      2.729      5.390
  Name = 
  0 active torsions:
  status: ('A' for Active; 'I' for Inactive)
                            x       y       z     vdW  Elec       q    Type
                         _______ _______ _______ _____ _____    ______ ____

>  <TORSDO>
F 0

$$$$
=
 OpenBabel11122414143D

 28 32  0  0  1  0  0  0  0  0999 V2000
  160.6040  209.4020  138.3920 C   0  0  0  0  0  0  0  0  0  0  0  0
  160.8160  210.8560  141.4850 F   0  0  0  0  0  0  0  0  0  0  0  0
  157.0160  214.4520  137.4420 C   0  0  0  0  0  1  0  0  0  0  0  0
  163.0340  209.6720  137.0110 C   0  0  0  0  0  3  0  0  0  0  0  0
  158.0540  213.9950  139.6580 C   0  0  2  0  0  3  0  0  0  0  0  0
  159.2960  209.1580  139.0880 C   0  0  0  0  0  2  0  0  0  0  0  0
  162.8760  210.9620  140.5570 O   0  0  0  0  0  1  0  0  0  0  0  0
  161.8150  211.7150  141.0580 C   0  0  1  0  0  0  0  0  0  0  0  0
  161.6980  213.8820  142.4160 C   0  0  2  0  0  3  0  0  0  0  0  0
  161.2670  212.6700  139.9600 C   0  0  2  0  0  3  0  0  0  0  0  0
  156.2230  210.2270  138.6530 O   0  0  0  0  0  0  0  0  0  0  0  0
  159.1670  212.0110  139.1130 C   0  0  1  0  0  3  0  0  0  0  0  0
  160.2670  213.8500  141.9040 C   0  0  0  0  0  2  0  0  0  0  0  0
  162.3340  212.5030  142.2670 C   0  0  0  0  0  2  0  0  0  0  0  0
  157.3020  210.1750  138.0060 C   0  0  0  0  0  0  0  0  0  0  0  0
  161.1970  210.6890  138.2450 C   0  0  0  0  0  0  0  0  0  0  0  0
  157.3340  213.3850  138.4700 C   0  0  2  0  0  3  0  0  0  0  0  0
  161.7110  214.2740  143.8130 N   0  0  0  0  0  1  0  0  0  0  0  0
  157.7410  211.2880  137.2850 O   0  0  0  0  0  0  0  0  0  0  0  0
  162.4050  210.7980  137.5430 C   0  0  0  0  0  3  0  0  0  0  0  0
  161.2510  208.2810  137.8540 C   0  0  0  0  0  3  0  0  0  0  0  0
  162.4590  208.4130  137.1700 C   0  0  0  0  0  3  0  0  0  0  0  0
  158.1620  208.9570  138.0840 C   0  0  0  0  0  2  0  0  0  0  0  0
  158.9670  212.9820  140.1890 N   0  0  1  0  0  0  0  0  0  0  0  0
  158.3440  212.4220  137.9120 C   0  0  2  0  0  3  0  0  0  0  0  0
  160.2150  213.5910  140.4570 N   0  0  2  0  0  0  0  0  0  0  0  0
  157.0480  214.3900  140.7230 C   0  0  0  0  0  1  0  0  0  0  0  0
  160.6210  211.9900  138.7690 C   0  0  2  0  0  3  0  0  0  0  0  0
  1  6  1  0  0  0  0
  3 17  1  0  0  0  0
  4 22  2  0  0  0  0
  4 20  1  0  0  0  0
  5 24  1  0  0  0  0
  5 27  1  1  0  0  0
  8  7  1  6  0  0  0
  8  2  1  0  0  0  0
  8 14  1  0  0  0  0
  9 18  1  1  0  0  0
 10 26  1  0  0  0  0
 10  8  1  0  0  0  0
 12 24  1  0  0  0  0
 13  9  1  0  0  0  0
 14  9  1  0  0  0  0
 15 23  1  0  0  0  0
 15 11  2  0  0  0  0
 16  1  1  0  0  0  0
 16 28  1  0  0  0  0
 17  5  1  0  0  0  0
 19 25  1  0  0  0  0
 19 15  1  0  0  0  0
 20 16  2  0  0  0  0
 21  1  2  0  0  0  0
 22 21  1  0  0  0  0
 23  6  1  0  0  0  0
 24 26  1  0  0  0  0
 25 17  1  0  0  0  0
 25 12  1  0  0  0  0
 26 13  1  0  0  0  0
 28 12  1  0  0  0  0
 28 10  1  0  0  0  0
M  END
>  <MODEL>
5

>  <REMARK>
 VINA RESULT:      -2.8     12.478     15.302
  Name = 
  0 active torsions:
  status: ('A' for Active; 'I' for Inactive)
                            x       y       z     vdW  Elec       q    Type
                         _______ _______ _______ _____ _____    ______ ____

>  <TORSDO>
F 0

$$$$
=
 OpenBabel11122414143D

 28 32  0  0  1  0  0  0  0  0999 V2000
  161.1940  209.4270  155.2520 C   0  0  0  0  0  0  0  0  0  0  0  0
  157.9480  210.5070  155.3890 F   0  0  0  0  0  0  0  0  0  0  0  0
  161.0580  213.0420  150.1340 C   0  0  0  0  0  1  0  0  0  0  0  0
  162.7240  210.6560  157.2610 C   0  0  0  0  0  3  0  0  0  0  0  0
  159.0350  212.7150  151.5470 C   0  0  2  0  0  3  0  0  0  0  0  0
  160.4320  208.6790  154.1970 C   0  0  0  0  0  2  0  0  0  0  0  0
  159.0250  211.4070  157.1640 O   0  0  0  0  0  1  0  0  0  0  0  0
  158.3260  211.6960  155.9930 C   0  0  1  0  0  0  0  0  0  0  0  0
  156.6520  213.5270  155.3630 C   0  0  2  0  0  3  0  0  0  0  0  0
  159.2150  212.5270  155.0260 C   0  0  2  0  0  3  0  0  0  0  0  0
  160.4330  208.6890  150.9150 O   0  0  0  0  0  0  0  0  0  0  0  0
  159.9670  211.2980  153.1580 C   0  0  1  0  0  3  0  0  0  0  0  0
  157.0370  213.0720  153.9650 C   0  0  0  0  0  2  0  0  0  0  0  0
  157.0610  212.4700  156.3840 C   0  0  0  0  0  2  0  0  0  0  0  0
  161.1710  209.0770  151.8570 C   0  0  0  0  0  0  0  0  0  0  0  0
  161.1970  210.8470  155.3730 C   0  0  0  0  0  0  0  0  0  0  0  0
  160.2340  212.0360  150.9120 C   0  0  2  0  0  3  0  0  0  0  0  0
  155.2180  213.7400  155.4320 N   0  0  0  0  0  1  0  0  0  0  0  0
  161.7520  210.3480  151.8140 O   0  0  0  0  0  0  0  0  0  0  0  0
  161.9770  211.4360  156.3780 C   0  0  0  0  0  3  0  0  0  0  0  0
  161.9490  208.6590  156.1490 C   0  0  0  0  0  3  0  0  0  0  0  0
  162.7080  209.2680  157.1480 C   0  0  0  0  0  3  0  0  0  0  0  0
  161.3530  208.2210  153.0660 C   0  0  0  0  0  2  0  0  0  0  0  0
  158.7440  212.0160  152.8000 N   0  0  1  0  0  0  0  0  0  0  0  0
  161.0160  211.5400  152.0970 C   0  0  2  0  0  3  0  0  0  0  0  0
  158.4960  212.9770  153.8080 N   0  0  2  0  0  0  0  0  0  0  0  0
  157.8390  212.6230  150.6180 C   0  0  0  0  0  1  0  0  0  0  0  0
  160.4350  211.8090  154.4830 C   0  0  2  0  0  3  0  0  0  0  0  0
  1 16  2  0  0  0  0
  1 21  1  0  0  0  0
  3 17  1  0  0  0  0
  5 27  1  6  0  0  0
  5 24  1  0  0  0  0
  6  1  1  0  0  0  0
  8  2  1  6  0  0  0
  8 14  1  0  0  0  0
  8  7  1  0  0  0  0
  9 18  1  6  0  0  0
  9 14  1  0  0  0  0
 10  8  1  0  0  0  0
 11 15  2  0  0  0  0
 12 28  1  0  0  0  0
 13  9  1  0  0  0  0
 15 23  1  0  0  0  0
 16 20  1  0  0  0  0
 17  5  1  0  0  0  0
 17 25  1  0  0  0  0
 19 15  1  0  0  0  0
 19 25  1  0  0  0  0
 20  4  2  0  0  0  0
 21 22  2  0  0  0  0
 22  4  1  0  0  0  0
 23  6  1  0  0  0  0
 24 12  1  0  0  0  0
 24 26  1  0  0  0  0
 25 12  1  0  0  0  0
 26 13  1  0  0  0  0
 26 10  1  0  0  0  0
 28 10  1  0  0  0  0
 28 16  1  0  0  0  0
M  END
>  <MODEL>
6

>  <REMARK>
 VINA RESULT:      -2.1      2.075      4.895
  Name = 
  0 active torsions:
  status: ('A' for Active; 'I' for Inactive)
                            x       y       z     vdW  Elec       q    Type
                         _______ _______ _______ _____ _____    ______ ____

>  <TORSDO>
F 0

$$$$
=
 OpenBabel11122414143D

 28 32  0  0  1  0  0  0  0  0999 V2000
  161.5710  208.9520  155.0510 C   0  0  0  0  0  0  0  0  0  0  0  0
  162.8900  210.6890  152.4120 F   0  0  0  0  0  0  0  0  0  0  0  0
  156.8470  212.9110  153.9140 C   0  0  0  0  0  1  0  0  0  0  0  0
  160.8620  206.3520  154.2600 C   0  0  0  0  0  3  0  0  0  0  0  0
  158.9560  212.9920  152.5940 C   0  0  2  0  0  3  0  0  0  0  0  0
  161.9830  210.3000  155.5680 C   0  0  0  0  0  2  0  0  0  0  0  0
  162.5470  208.5670  151.7080 O   0  0  0  0  0  1  0  0  0  0  0  0
  162.2070  209.9030  151.4990 C   0  0  1  0  0  0  0  0  0  0  0  0
  161.7340  211.2790  149.3930 C   0  0  2  0  0  3  0  0  0  0  0  0
  160.6730  210.1000  151.6670 C   0  0  2  0  0  3  0  0  0  0  0  0
  160.3670  212.9380  156.6640 O   0  0  0  0  0  0  0  0  0  0  0  0
  160.0890  211.2380  153.6480 C   0  0  1  0  0  3  0  0  0  0  0  0
  161.1080  212.2060  150.4220 C   0  0  0  0  0  2  0  0  0  0  0  0
  162.6620  210.2850  150.0860 C   0  0  0  0  0  2  0  0  0  0  0  0
  160.1410  211.7180  156.4490 C   0  0  0  0  0  0  0  0  0  0  0  0
  160.7270  208.7600  153.9190 C   0  0  0  0  0  0  0  0  0  0  0  0
  158.3590  212.8380  153.9810 C   0  0  2  0  0  3  0  0  0  0  0  0
  162.4890  212.0560  148.4290 N   0  0  0  0  0  1  0  0  0  0  0  0
  158.9670  211.3270  155.8000 O   0  0  0  0  0  0  0  0  0  0  0  0
  160.3810  207.4530  153.5510 C   0  0  0  0  0  3  0  0  0  0  0  0
  162.0480  207.8350  155.7510 C   0  0  0  0  0  3  0  0  0  0  0  0
  161.6980  206.5430  155.3580 C   0  0  0  0  0  3  0  0  0  0  0  0
  161.1700  210.6950  156.8000 C   0  0  0  0  0  2  0  0  0  0  0  0
  160.1870  212.2030  152.5520 N   0  0  1  0  0  0  0  0  0  0  0  0
  158.7880  211.4560  154.3880 C   0  0  2  0  0  3  0  0  0  0  0  0
  160.2200  211.4750  151.3400 N   0  0  2  0  0  0  0  0  0  0  0  0
  159.2710  214.4520  152.3280 C   0  0  0  0  0  1  0  0  0  0  0  0
  160.1350  209.8630  153.0640 C   0  0  2  0  0  3  0  0  0  0  0  0
  1  6  1  0  0  0  0
  1 21  1  0  0  0  0
  3 17  1  0  0  0  0
  4 22  1  0  0  0  0
  5 27  1  1  0  0  0
  5 17  1  0  0  0  0
  6 23  1  0  0  0  0
  8 10  1  0  0  0  0
  8  7  1  1  0  0  0
  8  2  1  0  0  0  0
  9 18  1  6  0  0  0
  9 14  1  0  0  0  0
  9 13  1  0  0  0  0
 10 28  1  0  0  0  0
 12 25  1  0  0  0  0
 13 26  1  0  0  0  0
 14  8  1  0  0  0  0
 15 11  2  0  0  0  0
 15 23  1  0  0  0  0
 16  1  2  0  0  0  0
 17 25  1  0  0  0  0
 19 15  1  0  0  0  0
 20 16  1  0  0  0  0
 20  4  2  0  0  0  0
 22 21  2  0  0  0  0
 24  5  1  0  0  0  0
 24 12  1  0  0  0  0
 25 19  1  0  0  0  0
 26 10  1  0  0  0  0
 26 24  1  0  0  0  0
 28 12  1  0  0  0  0
 28 16  1  0  0  0  0
M  END
>  <MODEL>
7

>  <REMARK>
 VINA RESULT:      -2.1      1.218      1.318
  Name = 
  0 active torsions:
  status: ('A' for Active; 'I' for Inactive)
                            x       y       z     vdW  Elec       q    Type
                         _______ _______ _______ _____ _____    ______ ____

>  <TORSDO>
F 0

$$$$
=
 OpenBabel11122414143D

 28 32  0  0  1  0  0  0  0  0999 V2000
  161.0790  211.4770  150.8300 C   0  0  0  0  0  0  0  0  0  0  0  0
  162.6420  210.3690  153.6680 F   0  0  0  0  0  0  0  0  0  0  0  0
  160.0920  205.3140  150.2530 C   0  0  0  0  0  1  0  0  0  0  0  0
  158.6770  212.7820  151.4760 C   0  0  0  0  0  3  0  0  0  0  0  0
  161.3890  206.2480  152.1610 C   0  0  2  0  0  3  0  0  0  0  0  0
  162.3780  210.8540  150.4070 C   0  0  0  0  0  2  0  0  0  0  0  0
  160.8380  211.5660  154.3250 O   0  0  0  0  0  1  0  0  0  0  0  0
  161.4410  210.3090  154.3560 C   0  0  1  0  0  0  0  0  0  0  0  0
  161.5860  208.4840  156.1440 C   0  0  2  0  0  3  0  0  0  0  0  0
  160.5060  209.2480  153.7080 C   0  0  2  0  0  3  0  0  0  0  0  0
  163.1980  208.1460  148.7430 O   0  0  0  0  0  0  0  0  0  0  0  0
  161.2500  208.5140  151.5940 C   0  0  1  0  0  3  0  0  0  0  0  0
  161.9640  207.6510  154.9300 C   0  0  0  0  0  2  0  0  0  0  0  0
  161.7320  209.9680  155.8210 C   0  0  0  0  0  2  0  0  0  0  0  0
  162.1800  208.8620  148.9320 C   0  0  0  0  0  0  0  0  0  0  0  0
  160.1140  210.8220  151.6490 C   0  0  0  0  0  0  0  0  0  0  0  0
  161.1420  206.3250  150.6660 C   0  0  2  0  0  3  0  0  0  0  0  0
  162.4480  208.1430  157.2600 N   0  0  0  0  0  1  0  0  0  0  0  0
  160.9440  208.2670  149.1980 O   0  0  0  0  0  0  0  0  0  0  0  0
  158.9190  211.4920  151.9490 C   0  0  0  0  0  3  0  0  0  0  0  0
  160.8210  212.7730  150.3660 C   0  0  0  0  0  3  0  0  0  0  0  0
  159.6290  213.4240  150.6880 C   0  0  0  0  0  3  0  0  0  0  0  0
  162.3090  210.3490  148.9660 C   0  0  0  0  0  2  0  0  0  0  0  0
  161.7380  207.5930  152.6210 N   0  0  1  0  0  0  0  0  0  0  0  0
  160.6130  207.7200  150.4760 C   0  0  2  0  0  3  0  0  0  0  0  0
  161.0290  207.8640  153.8150 N   0  0  2  0  0  0  0  0  0  0  0  0
  162.5320  205.2940  152.4460 C   0  0  0  0  0  1  0  0  0  0  0  0
  160.2480  209.4260  152.2250 C   0  0  2  0  0  3  0  0  0  0  0  0
  1 16  1  0  0  0  0
  3 17  1  0  0  0  0
  4 20  1  0  0  0  0
  5 27  1  6  0  0  0
  5 24  1  0  0  0  0
  6  1  1  0  0  0  0
  7  8  1  0  0  0  0
  8  2  1  6  0  0  0
  8 14  1  0  0  0  0
  9 18  1  1  0  0  0
 10 26  1  0  0  0  0
 10  8  1  0  0  0  0
 11 15  2  0  0  0  0
 12 28  1  0  0  0  0
 12 24  1  0  0  0  0
 13  9  1  0  0  0  0
 14  9  1  0  0  0  0
 15 23  1  0  0  0  0
 15 19  1  0  0  0  0
 16 20  2  0  0  0  0
 16 28  1  0  0  0  0
 17  5  1  0  0  0  0
 19 25  1  0  0  0  0
 21 22  1  0  0  0  0
 21  1  2  0  0  0  0
 22  4  2  0  0  0  0
 23  6  1  0  0  0  0
 24 26  1  0  0  0  0
 25 17  1  0  0  0  0
 25 12  1  0  0  0  0
 26 13  1  0  0  0  0
 28 10  1  0  0  0  0
M  END
>  <MODEL>
8

>  <REMARK>
 VINA RESULT:      -1.8      2.825      6.622
  Name = 
  0 active torsions:
  status: ('A' for Active; 'I' for Inactive)
                            x       y       z     vdW  Elec       q    Type
                         _______ _______ _______ _____ _____    ______ ____

>  <TORSDO>
F 0

$$$$
=
 OpenBabel11122414143D

 28 32  0  0  1  0  0  0  0  0999 V2000
  158.4120  213.1310  151.0800 C   0  0  0  0  0  0  0  0  0  0  0  0
  159.0810  209.9600  152.1840 F   0  0  0  0  0  0  0  0  0  0  0  0
  158.7940  214.2060  157.2430 C   0  0  0  0  0  1  0  0  0  0  0  0
  160.6510  214.2090  149.7730 C   0  0  0  0  0  3  0  0  0  0  0  0
  159.0550  211.9150  156.3060 C   0  0  2  0  0  3  0  0  0  0  0  0
  157.1530  212.6030  151.7050 C   0  0  0  0  0  2  0  0  0  0  0  0
  160.8740  210.6400  150.9840 O   0  0  0  0  0  1  0  0  0  0  0  0
  160.4400  210.2220  152.2410 C   0  0  1  0  0  0  0  0  0  0  0  0
  161.5000  208.7700  154.0640 C   0  0  2  0  0  3  0  0  0  0  0  0
  160.7280  211.3210  153.3030 C   0  0  2  0  0  3  0  0  0  0  0  0
  155.4500  213.3270  154.4160 O   0  0  0  0  0  0  0  0  0  0  0  0
  158.7860  212.4370  154.0420 C   0  0  1  0  0  3  0  0  0  0  0  0
  160.4220  209.4430  154.8980 C   0  0  0  0  0  2  0  0  0  0  0  0
  161.1760  208.9210  152.5800 C   0  0  0  0  0  2  0  0  0  0  0  0
  156.3430  213.8480  153.6990 C   0  0  0  0  0  0  0  0  0  0  0  0
  159.6790  213.1390  151.7330 C   0  0  0  0  0  0  0  0  0  0  0  0
  158.2660  213.2090  156.2320 C   0  0  2  0  0  3  0  0  0  0  0  0
  161.5750  207.3610  154.4030 N   0  0  0  0  0  1  0  0  0  0  0  0
  157.4540  214.4530  154.2930 O   0  0  0  0  0  0  0  0  0  0  0  0
  160.7780  213.6920  151.0620 C   0  0  0  0  0  3  0  0  0  0  0  0
  158.3030  213.6530  149.7840 C   0  0  0  0  0  3  0  0  0  0  0  0
  159.4140  214.1870  149.1330 C   0  0  0  0  0  3  0  0  0  0  0  0
  156.2650  213.7400  152.2120 C   0  0  0  0  0  2  0  0  0  0  0  0
  159.0870  211.3390  154.9610 N   0  0  1  0  0  0  0  0  0  0  0  0
  158.5400  213.6990  154.8370 C   0  0  2  0  0  3  0  0  0  0  0  0
  160.4030  210.8980  154.6870 N   0  0  2  0  0  0  0  0  0  0  0  0
  158.3760  210.9520  157.2610 C   0  0  0  0  0  1  0  0  0  0  0  0
  159.9550  212.6140  153.1280 C   0  0  2  0  0  3  0  0  0  0  0  0
  1  6  1  0  0  0  0
  1 16  1  0  0  0  0
  2  8  1  0  0  0  0
  4 20  1  0  0  0  0
  5 27  1  1  0  0  0
  6 23  1  0  0  0  0
  8  7  1  6  0  0  0
  8 14  1  0  0  0  0
  8 10  1  0  0  0  0
  9 18  1  1  0  0  0
  9 13  1  0  0  0  0
 10 26  1  0  0  0  0
 12 25  1  0  0  0  0
 12 24  1  0  0  0  0
 14  9  1  0  0  0  0
 15 19  1  0  0  0  0
 15 11  2  0  0  0  0
 16 28  1  0  0  0  0
 17  5  1  0  0  0  0
 17  3  1  0  0  0  0
 19 25  1  0  0  0  0
 20 16  2  0  0  0  0
 21  1  2  0  0  0  0
 22  4  2  0  0  0  0
 22 21  1  0  0  0  0
 23 15  1  0  0  0  0
 24  5  1  0  0  0  0
 25 17  1  0  0  0  0
 26 13  1  0  0  0  0
 26 24  1  0  0  0  0
 28 10  1  0  0  0  0
 28 12  1  0  0  0  0
M  END
>  <MODEL>
9

>  <REMARK>
 VINA RESULT:      -1.6      2.377      5.267
  Name = 
  0 active torsions:
  status: ('A' for Active; 'I' for Inactive)
                            x       y       z     vdW  Elec       q    Type
                         _______ _______ _______ _____ _____    ______ ____

>  <TORSDO>
F 0

$$$$
