=
 OpenBabel11122413043D

 32 36  0  0  1  0  0  0  0  0999 V2000
  160.5870  209.8710  152.4660 C   0  0  1  0  0  3  0  0  0  0  0  0
  160.6450  208.7260  157.2610 C   0  0  0  0  0  3  0  0  0  0  0  0
  160.6980  207.3740  156.9230 C   0  0  0  0  0  3  0  0  0  0  0  0
  161.2190  208.1090  150.6890 C   0  0  2  0  0  3  0  0  0  0  0  0
  162.0290  206.8280  150.4370 C   0  0  2  0  0  3  0  0  0  0  0  0
  159.7980  212.1680  151.9300 C   0  0  2  0  0  3  0  0  0  0  0  0
  160.4720  211.6480  154.2510 O   0  0  0  0  0  0  0  0  0  0  0  0
  161.1950  204.7550  151.0530 C   0  0  0  0  0  0  0  0  0  0  0  0
  160.7290  209.6980  156.2610 C   0  0  0  0  0  3  0  0  0  0  0  0
  161.0040  210.3810  153.8540 C   0  0  1  0  0  3  0  0  0  0  0  0
  160.8560  209.3260  154.9160 C   0  0  0  0  0  0  0  0  0  0  0  0
  161.0310  207.5120  153.1270 C   0  0  2  0  0  3  0  0  0  0  0  0
  160.9250  204.8950  149.6140 C   0  0  0  0  0  3  0  0  0  0  0  0
  159.4100  212.0990  153.4230 C   0  0  2  0  0  3  0  0  0  0  0  0
  161.5430  206.1660  149.2150 N   0  0  0  0  0  0  0  0  0  0  0  0
  160.8480  206.9910  155.5880 C   0  0  0  0  0  3  0  0  0  0  0  0
  160.9610  207.9570  154.5760 C   0  0  0  0  0  0  0  0  0  0  0  0
  161.9440  206.3080  152.9310 C   0  0  0  0  0  2  0  0  0  0  0  0
  160.7430  211.0390  151.5110 C   0  0  0  0  0  2  0  0  0  0  0  0
  161.6180  209.0670  149.7550 O   0  0  0  0  0  1  0  0  0  0  0  0
  160.5900  203.8660  151.8310 C   0  0  0  0  0  2  0  0  0  0  0  0
  161.4230  208.6280  152.1320 C   0  0  2  0  0  3  0  0  0  0  0  0
  161.8620  205.8950  151.5360 N   0  0  0  0  0  0  0  0  0  0  0  0
  157.9200  211.0970  155.1630 C   0  0  0  0  0  1  0  0  0  0  0  0
  158.1200  211.3060  153.6720 C   0  0  1  0  0  3  0  0  0  0  0  0
  157.0160  211.9880  153.1500 O   0  0  0  0  0  0  0  0  0  0  0  0
  156.9690  213.1910  153.8600 C   0  0  0  0  0  2  0  0  0  0  0  0
  155.5520  213.5910  154.0830 C   0  0  0  0  0  0  0  0  0  0  0  0
  154.7540  213.6550  153.1130 O   0  0  0  0  0  0  0  0  0  0  0  0
  155.1050  213.8650  155.3680 O   0  0  0  0  0  1  0  0  0  0  0  0
  160.0540  213.9360  150.3460 O   0  0  0  0  0  1  0  0  0  0  0  0
  160.4270  213.5140  151.6230 C   0  0  0  0  0  2  0  0  0  0  0  0
  1 19  1  6  0  0  0
  1 10  1  0  0  0  0
  3  2  1  0  0  0  0
  4 20  1  6  0  0  0
  4 22  1  0  0  0  0
  5 15  1  6  0  0  0
  5  4  1  0  0  0  0
  5 23  1  0  0  0  0
  6 32  1  1  0  0  0
  6 14  1  0  0  0  0
  8 23  1  0  0  0  0
  8 21  2  0  0  0  0
  9  2  2  0  0  0  0
 10  7  1  1  0  0  0
 10 11  1  0  0  0  0
 11  9  1  0  0  0  0
 12 18  1  1  0  0  0
 12 17  1  0  0  0  0
 13  8  1  0  0  0  0
 14 25  1  6  0  0  0
 14  7  1  0  0  0  0
 15 13  2  0  0  0  0
 16  3  2  0  0  0  0
 17 11  2  0  0  0  0
 17 16  1  0  0  0  0
 19  6  1  0  0  0  0
 22  1  1  0  0  0  0
 22 12  1  0  0  0  0
 23 18  1  0  0  0  0
 25 24  1  0  0  0  0
 26 25  1  0  0  0  0
 26 27  1  0  0  0  0
 27 28  1  0  0  0  0
 28 30  1  0  0  0  0
 29 28  2  0  0  0  0
 31 32  1  0  0  0  0
M  END
>  <MODEL>
1

>  <REMARK>
 VINA RESULT:      -6.5      0.000      0.000
  Name = 
  5 active torsions:
  status: ('A' for Active; 'I' for Inactive)
    1  A    between atoms: C_7  and  C_19
    2  A    between atoms: C_10  and  C_17
    3  A    between atoms: C_10  and  O_20
    4  A    between atoms: O_20  and  C_29
    5  A    between atoms: C_29  and  C_30
                            x       y       z     vdW  Elec       q    Type
                         _______ _______ _______ _____ _____    ______ ____

>  <TORSDO>
F 5

$$$$
=
 OpenBabel11122413043D

 32 36  0  0  1  0  0  0  0  0999 V2000
  160.7030  209.7190  151.9270 C   0  0  1  0  0  3  0  0  0  0  0  0
  162.7310  212.0260  148.0710 C   0  0  0  0  0  3  0  0  0  0  0  0
  161.7810  213.0390  148.1940 C   0  0  0  0  0  3  0  0  0  0  0  0
  159.0500  210.9580  153.4760 C   0  0  2  0  0  3  0  0  0  0  0  0
  158.6350  212.3390  154.0040 C   0  0  2  0  0  3  0  0  0  0  0  0
  161.2890  207.3140  152.1570 C   0  0  2  0  0  3  0  0  0  0  0  0
  162.6710  208.7450  150.6900 O   0  0  0  0  0  0  0  0  0  0  0  0
  157.2700  213.7300  152.7480 C   0  0  0  0  0  0  0  0  0  0  0  0
  162.7950  211.0100  149.0270 C   0  0  0  0  0  3  0  0  0  0  0  0
  162.0190  209.9260  151.1620 C   0  0  1  0  0  3  0  0  0  0  0  0
  161.9030  210.9930  150.1080 C   0  0  0  0  0  0  0  0  0  0  0  0
  159.9460  212.0280  151.3810 C   0  0  2  0  0  3  0  0  0  0  0  0
  156.3920  213.0670  153.7250 C   0  0  0  0  0  3  0  0  0  0  0  0
  161.8510  207.5870  150.7440 C   0  0  2  0  0  3  0  0  0  0  0  0
  157.2810  212.2650  154.5780 N   0  0  0  0  0  0  0  0  0  0  0  0
  160.9010  213.0450  149.2790 C   0  0  0  0  0  3  0  0  0  0  0  0
  160.9720  212.0460  150.2630 C   0  0  0  0  0  0  0  0  0  0  0  0
  159.6660  213.4180  151.9380 C   0  0  0  0  0  2  0  0  0  0  0  0
  160.9480  208.5970  152.9170 C   0  0  0  0  0  2  0  0  0  0  0  0
  159.3280  210.1390  154.5720 O   0  0  0  0  0  1  0  0  0  0  0  0
  156.8250  214.3400  151.6570 C   0  0  0  0  0  2  0  0  0  0  0  0
  160.2780  211.0610  152.5400 C   0  0  2  0  0  3  0  0  0  0  0  0
  158.6000  213.3090  152.9240 N   0  0  0  0  0  0  0  0  0  0  0  0
  161.3960  207.8500  148.3000 C   0  0  0  0  0  1  0  0  0  0  0  0
  160.7650  207.6070  149.6600 C   0  0  1  0  0  3  0  0  0  0  0  0
  160.0700  206.3930  149.6380 O   0  0  0  0  0  0  0  0  0  0  0  0
  160.7500  205.6090  148.7020 C   0  0  0  0  0  2  0  0  0  0  0  0
  161.0030  204.2540  149.2670 C   0  0  0  0  0  0  0  0  0  0  0  0
  161.0670  204.0930  150.5130 O   0  0  0  0  0  1  0  0  0  0  0  0
  161.1390  203.1650  148.4190 O   0  0  0  0  0  0  0  0  0  0  0  0
  161.6200  205.4220  153.5760 O   0  0  0  0  0  1  0  0  0  0  0  0
  162.2790  206.4830  152.9530 C   0  0  0  0  0  2  0  0  0  0  0  0
  1 22  1  0  0  0  0
  1 19  1  1  0  0  0
  2  3  2  0  0  0  0
  2  9  1  0  0  0  0
  3 16  1  0  0  0  0
  4  5  1  0  0  0  0
  4 20  1  1  0  0  0
  5 15  1  6  0  0  0
  6 19  1  0  0  0  0
  6 32  1  1  0  0  0
  7 14  1  0  0  0  0
  7 10  1  0  0  0  0
  8 23  1  0  0  0  0
  8 13  1  0  0  0  0
  9 11  2  0  0  0  0
 10 11  1  6  0  0  0
 10  1  1  0  0  0  0
 11 17  1  0  0  0  0
 12 18  1  1  0  0  0
 12 22  1  0  0  0  0
 13 15  2  0  0  0  0
 14 25  1  6  0  0  0
 14  6  1  0  0  0  0
 16 17  2  0  0  0  0
 17 12  1  0  0  0  0
 18 23  1  0  0  0  0
 21  8  2  0  0  0  0
 22  4  1  0  0  0  0
 23  5  1  0  0  0  0
 24 25  1  0  0  0  0
 26 25  1  0  0  0  0
 27 28  1  0  0  0  0
 27 26  1  0  0  0  0
 28 29  1  0  0  0  0
 30 28  2  0  0  0  0
 32 31  1  0  0  0  0
M  END
>  <MODEL>
2

>  <REMARK>
 VINA RESULT:      -6.4      3.309      8.015
  Name = 
  5 active torsions:
  status: ('A' for Active; 'I' for Inactive)
    1  A    between atoms: C_7  and  C_19
    2  A    between atoms: C_10  and  C_17
    3  A    between atoms: C_10  and  O_20
    4  A    between atoms: O_20  and  C_29
    5  A    between atoms: C_29  and  C_30
                            x       y       z     vdW  Elec       q    Type
                         _______ _______ _______ _____ _____    ______ ____

>  <TORSDO>
F 5

$$$$
=
 OpenBabel11122413043D

 32 36  0  0  1  0  0  0  0  0999 V2000
  161.2640  212.5550  141.0320 C   0  0  1  0  0  3  0  0  0  0  0  0
  157.1310  213.8770  138.6920 C   0  0  0  0  0  3  0  0  0  0  0  0
  156.4750  213.9520  139.9210 C   0  0  0  0  0  3  0  0  0  0  0  0
  161.4840  212.8690  143.5850 C   0  0  2  0  0  3  0  0  0  0  0  0
  160.9930  213.6910  144.7850 C   0  0  2  0  0  3  0  0  0  0  0  0
  162.9960  211.4800  139.6080 C   0  0  2  0  0  3  0  0  0  0  0  0
  161.1690  212.7420  138.5200 O   0  0  0  0  0  0  0  0  0  0  0  0
  158.9750  213.1990  145.8160 C   0  0  0  0  0  0  0  0  0  0  0  0
  158.5060  213.6360  138.6490 C   0  0  0  0  0  3  0  0  0  0  0  0
  160.7240  213.2580  139.7770 C   0  0  1  0  0  3  0  0  0  0  0  0
  159.2350  213.4590  139.8330 C   0  0  0  0  0  0  0  0  0  0  0  0
  159.3220  213.3320  142.3820 C   0  0  2  0  0  3  0  0  0  0  0  0
  160.0200  212.5740  146.6410 C   0  0  0  0  0  3  0  0  0  0  0  0
  161.8070  211.4770  138.6220 C   0  0  2  0  0  3  0  0  0  0  0  0
  161.2970  212.9740  146.0360 N   0  0  0  0  0  0  0  0  0  0  0  0
  157.1950  213.7990  141.1080 C   0  0  0  0  0  3  0  0  0  0  0  0
  158.5820  213.5850  141.0810 C   0  0  0  0  0  0  0  0  0  0  0  0
  158.8670  214.2610  143.5010 C   0  0  0  0  0  2  0  0  0  0  0  0
  162.7560  212.3790  140.8220 C   0  0  0  0  0  2  0  0  0  0  0  0
  162.8770  212.9500  143.5420 O   0  0  0  0  0  1  0  0  0  0  0  0
  157.6900  212.8760  145.8880 C   0  0  0  0  0  2  0  0  0  0  0  0
  160.8620  213.3790  142.2630 C   0  0  2  0  0  3  0  0  0  0  0  0
  159.5540  213.8720  144.7250 N   0  0  0  0  0  0  0  0  0  0  0  0
  160.2380  209.8240  137.5930 C   0  0  0  0  0  1  0  0  0  0  0  0
  160.8000  210.3530  138.9020 C   0  0  1  0  0  3  0  0  0  0  0  0
  161.4120  209.3060  139.5980 O   0  0  0  0  0  0  0  0  0  0  0  0
  161.2080  208.1770  138.8010 C   0  0  0  0  0  2  0  0  0  0  0  0
  161.9290  207.0110  139.3820 C   0  0  0  0  0  0  0  0  0  0  0  0
  162.5290  206.2020  138.6280 O   0  0  0  0  0  0  0  0  0  0  0  0
  161.9620  206.8320  140.7570 O   0  0  0  0  0  1  0  0  0  0  0  0
  164.4310  213.2880  138.9950 O   0  0  0  0  0  1  0  0  0  0  0  0
  164.2610  211.9060  138.8860 C   0  0  0  0  0  2  0  0  0  0  0  0
  1 19  1  6  0  0  0
  1 22  1  0  0  0  0
  2  3  1  0  0  0  0
  3 16  2  0  0  0  0
  4 20  1  6  0  0  0
  4  5  1  0  0  0  0
  5 15  1  1  0  0  0
  6 32  1  6  0  0  0
  6 19  1  0  0  0  0
  7 14  1  0  0  0  0
  8 21  2  0  0  0  0
  8 13  1  0  0  0  0
  9  2  2  0  0  0  0
  9 11  1  0  0  0  0
 10  7  1  6  0  0  0
 10 11  1  0  0  0  0
 10  1  1  0  0  0  0
 11 17  2  0  0  0  0
 12 18  1  1  0  0  0
 14 25  1  1  0  0  0
 14  6  1  0  0  0  0
 15 13  2  0  0  0  0
 17 16  1  0  0  0  0
 17 12  1  0  0  0  0
 18 23  1  0  0  0  0
 22 12  1  0  0  0  0
 22  4  1  0  0  0  0
 23  5  1  0  0  0  0
 23  8  1  0  0  0  0
 24 25  1  0  0  0  0
 25 26  1  0  0  0  0
 27 28  1  0  0  0  0
 27 26  1  0  0  0  0
 28 30  1  0  0  0  0
 29 28  2  0  0  0  0
 32 31  1  0  0  0  0
M  END
>  <MODEL>
3

>  <REMARK>
 VINA RESULT:      -5.8     10.484     14.031
  Name = 
  5 active torsions:
  status: ('A' for Active; 'I' for Inactive)
    1  A    between atoms: C_7  and  C_19
    2  A    between atoms: C_10  and  C_17
    3  A    between atoms: C_10  and  O_20
    4  A    between atoms: O_20  and  C_29
    5  A    between atoms: C_29  and  C_30
                            x       y       z     vdW  Elec       q    Type
                         _______ _______ _______ _____ _____    ______ ____

>  <TORSDO>
F 5

$$$$
=
 OpenBabel11122413043D

 32 36  0  0  1  0  0  0  0  0999 V2000
  160.8470  210.5410  151.3710 C   0  0  1  0  0  3  0  0  0  0  0  0
  160.1830  209.4090  156.1220 C   0  0  0  0  0  3  0  0  0  0  0  0
  160.1750  208.0550  155.7850 C   0  0  0  0  0  3  0  0  0  0  0  0
  161.5690  208.7300  149.6790 C   0  0  2  0  0  3  0  0  0  0  0  0
  162.3030  207.3900  149.5270 C   0  0  2  0  0  3  0  0  0  0  0  0
  160.3160  212.8910  150.7520 C   0  0  2  0  0  3  0  0  0  0  0  0
  160.6360  212.3260  153.1380 O   0  0  0  0  0  0  0  0  0  0  0  0
  161.2370  205.3890  150.0120 C   0  0  0  0  0  0  0  0  0  0  0  0
  160.4730  210.3680  155.1500 C   0  0  0  0  0  3  0  0  0  0  0  0
  161.1150  211.0210  152.8060 C   0  0  1  0  0  3  0  0  0  0  0  0
  160.7470  209.9830  153.8310 C   0  0  0  0  0  0  0  0  0  0  0  0
  161.0160  208.1570  152.0670 C   0  0  2  0  0  3  0  0  0  0  0  0
  161.1700  205.5460  148.5510 C   0  0  0  0  0  3  0  0  0  0  0  0
  159.7300  212.8570  152.1810 C   0  0  2  0  0  3  0  0  0  0  0  0
  161.9330  206.7630  148.2460 N   0  0  0  0  0  0  0  0  0  0  0  0
  160.4690  207.6590  154.4790 C   0  0  0  0  0  3  0  0  0  0  0  0
  160.7900  208.6100  153.4970 C   0  0  0  0  0  0  0  0  0  0  0  0
  161.8500  206.8840  151.9830 C   0  0  0  0  0  2  0  0  0  0  0  0
  161.2170  211.6910  150.4530 C   0  0  0  0  0  2  0  0  0  0  0  0
  162.1600  209.6510  148.8130 O   0  0  0  0  0  1  0  0  0  0  0  0
  160.4680  204.5530  150.6970 C   0  0  0  0  0  2  0  0  0  0  0  0
  161.6200  209.2360  151.1400 C   0  0  2  0  0  3  0  0  0  0  0  0
  161.9210  206.4750  150.5870 N   0  0  0  0  0  0  0  0  0  0  0  0
  157.4930  212.8460  153.2980 C   0  0  0  0  0  1  0  0  0  0  0  0
  158.3610  212.1680  152.2510 C   0  0  1  0  0  3  0  0  0  0  0  0
  157.7180  212.2250  151.0110 O   0  0  0  0  0  0  0  0  0  0  0  0
  156.9030  213.3580  151.0810 C   0  0  0  0  0  2  0  0  0  0  0  0
  156.5300  213.7980  149.7080 C   0  0  0  0  0  0  0  0  0  0  0  0
  157.4090  213.8810  148.8120 O   0  0  0  0  0  0  0  0  0  0  0  0
  155.2060  214.0900  149.4100 O   0  0  0  0  0  1  0  0  0  0  0  0
  161.1970  214.4530  149.1770 O   0  0  0  0  0  1  0  0  0  0  0  0
  161.0820  214.1830  150.5410 C   0  0  0  0  0  2  0  0  0  0  0  0
  1 19  1  6  0  0  0
  1 10  1  0  0  0  0
  3  2  1  0  0  0  0
  4 20  1  6  0  0  0
  4 22  1  0  0  0  0
  5 15  1  6  0  0  0
  5  4  1  0  0  0  0
  5 23  1  0  0  0  0
  6 32  1  1  0  0  0
  6 14  1  0  0  0  0
  8 23  1  0  0  0  0
  8 21  2  0  0  0  0
  9  2  2  0  0  0  0
 10  7  1  1  0  0  0
 10 11  1  0  0  0  0
 11  9  1  0  0  0  0
 12 18  1  1  0  0  0
 12 17  1  0  0  0  0
 13  8  1  0  0  0  0
 14 25  1  6  0  0  0
 14  7  1  0  0  0  0
 15 13  2  0  0  0  0
 16  3  2  0  0  0  0
 17 11  2  0  0  0  0
 17 16  1  0  0  0  0
 19  6  1  0  0  0  0
 22  1  1  0  0  0  0
 22 12  1  0  0  0  0
 23 18  1  0  0  0  0
 25 24  1  0  0  0  0
 26 27  1  0  0  0  0
 26 25  1  0  0  0  0
 28 27  1  0  0  0  0
 29 28  2  0  0  0  0
 30 28  1  0  0  0  0
 31 32  1  0  0  0  0
M  END
>  <MODEL>
4

>  <REMARK>
 VINA RESULT:      -5.0      1.717      2.141
  Name = 
  5 active torsions:
  status: ('A' for Active; 'I' for Inactive)
    1  A    between atoms: C_7  and  C_19
    2  A    between atoms: C_10  and  C_17
    3  A    between atoms: C_10  and  O_20
    4  A    between atoms: O_20  and  C_29
    5  A    between atoms: C_29  and  C_30
                            x       y       z     vdW  Elec       q    Type
                         _______ _______ _______ _____ _____    ______ ____

>  <TORSDO>
F 5

$$$$
=
 OpenBabel11122413043D

 32 36  0  0  1  0  0  0  0  0999 V2000
  160.0460  211.3620  152.4430 C   0  0  1  0  0  3  0  0  0  0  0  0
  162.2540  211.9260  148.0710 C   0  0  0  0  0  3  0  0  0  0  0  0
  161.1390  212.6280  147.6130 C   0  0  0  0  0  3  0  0  0  0  0  0
  157.9800  212.7790  153.0610 C   0  0  2  0  0  3  0  0  0  0  0  0
  157.2580  214.1090  152.7980 C   0  0  2  0  0  3  0  0  0  0  0  0
  160.9850  209.5660  153.8850 C   0  0  2  0  0  3  0  0  0  0  0  0
  162.3250  210.3890  151.9770 O   0  0  0  0  0  0  0  0  0  0  0  0
  155.8990  214.3740  150.9380 C   0  0  0  0  0  0  0  0  0  0  0  0
  162.3330  211.5380  149.4100 C   0  0  0  0  0  3  0  0  0  0  0  0
  161.4160  211.4690  151.7530 C   0  0  1  0  0  3  0  0  0  0  0  0
  161.2940  211.8400  150.3000 C   0  0  0  0  0  0  0  0  0  0  0  0
  159.0100  212.8830  150.7670 C   0  0  2  0  0  3  0  0  0  0  0  0
  155.0000  214.0820  152.0640 C   0  0  0  0  0  3  0  0  0  0  0  0
  161.7140  209.2470  152.5610 C   0  0  2  0  0  3  0  0  0  0  0  0
  155.8600  214.0140  153.2530 N   0  0  0  0  0  0  0  0  0  0  0  0
  160.1080  212.9540  148.4960 C   0  0  0  0  0  3  0  0  0  0  0  0
  160.1850  212.5960  149.8520 C   0  0  0  0  0  0  0  0  0  0  0  0
  158.4130  214.2660  150.5310 C   0  0  0  0  0  2  0  0  0  0  0  0
  160.3140  210.9420  153.8750 C   0  0  0  0  0  2  0  0  0  0  0  0
  158.2110  212.6740  154.4340 O   0  0  0  0  0  1  0  0  0  0  0  0
  155.5410  214.2670  149.6650 C   0  0  0  0  0  2  0  0  0  0  0  0
  159.3080  212.6960  152.2720 C   0  0  2  0  0  3  0  0  0  0  0  0
  157.2350  214.4040  151.3760 N   0  0  0  0  0  0  0  0  0  0  0  0
  161.5830  208.3030  150.2500 C   0  0  0  0  0  1  0  0  0  0  0  0
  160.8300  208.4980  151.5550 C   0  0  1  0  0  3  0  0  0  0  0  0
  160.4570  207.2490  152.0640 O   0  0  0  0  0  0  0  0  0  0  0  0
  161.1990  206.3250  151.3250 C   0  0  0  0  0  2  0  0  0  0  0  0
  161.4460  205.1050  152.1420 C   0  0  0  0  0  0  0  0  0  0  0  0
  161.8950  204.0630  151.6000 O   0  0  0  0  0  0  0  0  0  0  0  0
  161.2060  205.1270  153.5090 O   0  0  0  0  0  1  0  0  0  0  0  0
  162.6300  210.6820  155.2070 O   0  0  0  0  0  1  0  0  0  0  0  0
  161.9580  209.4700  155.0450 C   0  0  0  0  0  2  0  0  0  0  0  0
  1 19  1  1  0  0  0
  2  9  1  0  0  0  0
  3  2  2  0  0  0  0
  3 16  1  0  0  0  0
  4 20  1  1  0  0  0
  5  4  1  0  0  0  0
  5 15  1  6  0  0  0
  6 32  1  1  0  0  0
  7 14  1  0  0  0  0
  8 23  1  0  0  0  0
  8 13  1  0  0  0  0
  9 11  2  0  0  0  0
 10 11  1  6  0  0  0
 10  7  1  0  0  0  0
 10  1  1  0  0  0  0
 12 18  1  1  0  0  0
 12 22  1  0  0  0  0
 13 15  2  0  0  0  0
 14 25  1  6  0  0  0
 14  6  1  0  0  0  0
 16 17  2  0  0  0  0
 17 11  1  0  0  0  0
 17 12  1  0  0  0  0
 18 23  1  0  0  0  0
 19  6  1  0  0  0  0
 21  8  2  0  0  0  0
 22  1  1  0  0  0  0
 22  4  1  0  0  0  0
 23  5  1  0  0  0  0
 24 25  1  0  0  0  0
 25 26  1  0  0  0  0
 27 26  1  0  0  0  0
 27 28  1  0  0  0  0
 28 30  1  0  0  0  0
 29 28  2  0  0  0  0
 32 31  1  0  0  0  0
M  END
>  <MODEL>
5

>  <REMARK>
 VINA RESULT:      -4.6      3.513      7.877
  Name = 
  5 active torsions:
  status: ('A' for Active; 'I' for Inactive)
    1  A    between atoms: C_7  and  C_19
    2  A    between atoms: C_10  and  C_17
    3  A    between atoms: C_10  and  O_20
    4  A    between atoms: O_20  and  C_29
    5  A    between atoms: C_29  and  C_30
                            x       y       z     vdW  Elec       q    Type
                         _______ _______ _______ _____ _____    ______ ____

>  <TORSDO>
F 5

$$$$
=
 OpenBabel11122413043D

 32 36  0  0  1  0  0  0  0  0999 V2000
  161.3720  208.8010  151.5810 C   0  0  1  0  0  3  0  0  0  0  0  0
  161.1510  208.6320  156.5030 C   0  0  0  0  0  3  0  0  0  0  0  0
  160.8590  207.2700  156.4300 C   0  0  0  0  0  3  0  0  0  0  0  0
  161.5310  206.6270  150.1990 C   0  0  2  0  0  3  0  0  0  0  0  0
  161.9900  205.1610  150.2320 C   0  0  2  0  0  3  0  0  0  0  0  0
  161.1880  211.0730  150.5850 C   0  0  2  0  0  3  0  0  0  0  0  0
  161.7150  210.8620  152.9920 O   0  0  0  0  0  0  0  0  0  0  0  0
  160.6590  203.5210  151.1890 C   0  0  0  0  0  0  0  0  0  0  0  0
  161.4750  209.3390  155.3430 C   0  0  0  0  0  3  0  0  0  0  0  0
  161.9080  209.4510  152.8660 C   0  0  1  0  0  3  0  0  0  0  0  0
  161.5000  208.6930  154.1000 C   0  0  0  0  0  0  0  0  0  0  0  0
  161.2060  206.5810  152.6950 C   0  0  2  0  0  3  0  0  0  0  0  0
  160.4290  203.4410  149.7380 C   0  0  0  0  0  3  0  0  0  0  0  0
  160.8000  211.3940  152.0450 C   0  0  2  0  0  3  0  0  0  0  0  0
  161.3490  204.4160  149.1350 N   0  0  0  0  0  0  0  0  0  0  0  0
  160.9030  206.6100  155.2000 C   0  0  0  0  0  3  0  0  0  0  0  0
  161.2550  207.3020  154.0290 C   0  0  0  0  0  0  0  0  0  0  0  0
  161.7830  205.1730  152.7720 C   0  0  0  0  0  2  0  0  0  0  0  0
  161.8150  209.6850  150.4310 C   0  0  0  0  0  2  0  0  0  0  0  0
  162.1570  207.2550  149.1220 O   0  0  0  0  0  1  0  0  0  0  0  0
  159.8520  202.9800  152.0910 C   0  0  0  0  0  2  0  0  0  0  0  0
  161.8640  207.3490  151.5270 C   0  0  2  0  0  3  0  0  0  0  0  0
  161.5950  204.5310  151.4780 N   0  0  0  0  0  0  0  0  0  0  0  0
  159.1290  211.0850  153.8800 C   0  0  0  0  0  1  0  0  0  0  0  0
  159.3510  211.0120  152.3780 C   0  0  1  0  0  3  0  0  0  0  0  0
  158.4550  211.8730  151.7360 O   0  0  0  0  0  0  0  0  0  0  0  0
  157.9650  212.7010  152.7490 C   0  0  0  0  0  2  0  0  0  0  0  0
  157.2000  213.8300  152.1530 C   0  0  0  0  0  0  0  0  0  0  0  0
  157.5060  214.2660  151.0130 O   0  0  0  0  0  0  0  0  0  0  0  0
  156.1320  214.3840  152.8430 O   0  0  0  0  0  1  0  0  0  0  0  0
  161.7620  212.5130  148.7700 O   0  0  0  0  0  1  0  0  0  0  0  0
  162.1370  212.1340  150.0600 C   0  0  0  0  0  2  0  0  0  0  0  0
  1 19  1  6  0  0  0
  1 10  1  0  0  0  0
  3  2  1  0  0  0  0
  4 20  1  6  0  0  0
  4  5  1  0  0  0  0
  4 22  1  0  0  0  0
  5 15  1  6  0  0  0
  5 23  1  0  0  0  0
  6 32  1  1  0  0  0
  6 14  1  0  0  0  0
  8 23  1  0  0  0  0
  8 21  2  0  0  0  0
  9  2  2  0  0  0  0
 10  7  1  1  0  0  0
 10 11  1  0  0  0  0
 11  9  1  0  0  0  0
 12 18  1  1  0  0  0
 12 17  1  0  0  0  0
 13  8  1  0  0  0  0
 14 25  1  1  0  0  0
 14  7  1  0  0  0  0
 15 13  2  0  0  0  0
 16  3  2  0  0  0  0
 17 11  2  0  0  0  0
 17 16  1  0  0  0  0
 19  6  1  0  0  0  0
 22  1  1  0  0  0  0
 22 12  1  0  0  0  0
 23 18  1  0  0  0  0
 25 24  1  0  0  0  0
 26 25  1  0  0  0  0
 26 27  1  0  0  0  0
 28 27  1  0  0  0  0
 28 30  1  0  0  0  0
 29 28  2  0  0  0  0
 31 32  1  0  0  0  0
M  END
>  <MODEL>
6

>  <REMARK>
 VINA RESULT:      -3.9      1.495      1.823
  Name = 
  5 active torsions:
  status: ('A' for Active; 'I' for Inactive)
    1  A    between atoms: C_7  and  C_19
    2  A    between atoms: C_10  and  C_17
    3  A    between atoms: C_10  and  O_20
    4  A    between atoms: O_20  and  C_29
    5  A    between atoms: C_29  and  C_30
                            x       y       z     vdW  Elec       q    Type
                         _______ _______ _______ _____ _____    ______ ____

>  <TORSDO>
F 5

$$$$
