=
 OpenBabel11122413193D

 31 35  0  0  1  0  0  0  0  0999 V2000
  160.8890  208.0400  153.9470 C   0  0  0  0  0  0  0  0  0  0  0  0
  161.4590  207.4350  150.2030 C   0  0  0  0  0  0  0  0  0  0  0  0
  161.3270  206.0370  149.9510 C   0  0  0  0  0  0  0  0  0  0  0  0
  161.0210  203.7340  150.6980 C   0  0  0  0  0  0  0  0  0  0  0  0
  161.3540  208.0650  151.5650 C   0  0  0  0  0  0  0  0  0  0  0  0
  160.9380  209.5360  153.9480 C   0  0  0  0  0  2  0  0  0  0  0  0
  161.1500  205.0960  150.9790 C   0  0  0  0  0  3  0  0  0  0  0  0
  161.8680  209.7380  149.2760 C   0  0  0  0  0  0  0  0  0  0  0  0
  160.6380  207.3960  154.9980 O   0  0  0  0  0  0  0  0  0  0  0  0
  161.5480  206.4570  147.5710 C   0  0  0  0  0  3  0  0  0  0  0  0
  160.8010  202.5900  152.0050 Cl  0  0  0  0  0  0  0  0  0  0  0  0
  162.2430  210.2310  150.6390 C   0  0  0  0  0  2  0  0  0  0  0  0
  161.6630  208.2880  149.0880 C   0  0  0  0  0  0  0  0  0  0  0  0
  161.8160  210.5280  148.2400 N   0  0  0  0  0  0  0  0  0  0  0  0
  161.0860  207.3510  152.6690 C   0  0  0  0  0  3  0  0  0  0  0  0
  161.0640  203.2850  149.3780 C   0  0  0  0  0  3  0  0  0  0  0  0
  161.3740  209.5850  151.7060 C   0  0  2  0  0  3  0  0  0  0  0  0
  161.8580  209.9770  152.9760 O   0  0  0  0  0  0  0  0  0  0  0  0
  161.6900  207.7800  147.8260 N   0  0  0  0  0  0  0  0  0  0  0  0
  161.3720  205.5620  148.6170 C   0  0  0  0  0  0  0  0  0  0  0  0
  161.2400  204.1990  148.3390 C   0  0  0  0  0  3  0  0  0  0  0  0
  163.1550  212.4570  148.4300 O   0  0  0  0  0  0  0  0  0  0  0  0
  162.0240  211.9510  148.2080 C   0  0  0  0  0  0  0  0  0  0  0  0
  157.9900  213.3360  147.6270 C   0  0  1  0  0  3  0  0  0  0  0  0
  160.0820  212.3120  146.7220 C   0  0  0  0  0  2  0  0  0  0  0  0
  160.6840  213.6050  150.1860 O   0  0  0  0  0  1  0  0  0  0  0  0
  156.9150  214.1700  147.3290 O   0  0  0  0  0  1  0  0  0  0  0  0
  158.8970  213.2190  146.4060 C   0  0  0  0  0  2  0  0  0  0  0  0
  159.9680  213.0260  149.1370 C   0  0  2  0  0  3  0  0  0  0  0  0
  160.8740  212.8590  147.9100 C   0  0  1  0  0  3  0  0  0  0  0  0
  158.7720  213.9130  148.8020 C   0  0  0  0  0  2  0  0  0  0  0  0
  1  6  1  0  0  0  0
  1  9  2  0  0  0  0
  2  5  1  0  0  0  0
  3  2  1  0  0  0  0
  3  7  1  0  0  0  0
  4  7  2  0  0  0  0
  4 11  1  0  0  0  0
  5 17  1  0  0  0  0
  5 15  2  0  0  0  0
  8 12  1  0  0  0  0
 10 19  2  0  0  0  0
 10 20  1  0  0  0  0
 13  8  1  0  0  0  0
 13  2  2  0  0  0  0
 14  8  2  0  0  0  0
 15  1  1  0  0  0  0
 16  4  1  0  0  0  0
 17 12  1  6  0  0  0
 17 18  1  0  0  0  0
 18  6  1  0  0  0  0
 19 13  1  0  0  0  0
 20  3  2  0  0  0  0
 21 20  1  0  0  0  0
 21 16  2  0  0  0  0
 23 14  1  0  0  0  0
 23 22  2  0  0  0  0
 24 27  1  6  0  0  0
 24 31  1  0  0  0  0
 25 30  1  0  0  0  0
 28 25  1  0  0  0  0
 28 24  1  0  0  0  0
 29 26  1  1  0  0  0
 30 23  1  1  0  0  0
 30 29  1  0  0  0  0
 31 29  1  0  0  0  0
M  END
>  <MODEL>
1

>  <REMARK>
 VINA RESULT:     -10.3      0.000      0.000
  Name = 
  2 active torsions:
  status: ('A' for Active; 'I' for Inactive)
    1  A    between atoms: C_5  and  N_16
    2  A    between atoms: C_5  and  C_30
                            x       y       z     vdW  Elec       q    Type
                         _______ _______ _______ _____ _____    ______ ____

>  <TORSDO>
F 2

$$$$
=
 OpenBabel11122413193D

 31 35  0  0  1  0  0  0  0  0999 V2000
  160.8160  202.5120  151.1110 C   0  0  0  0  0  0  0  0  0  0  0  0
  161.3420  205.4880  148.7470 C   0  0  0  0  0  0  0  0  0  0  0  0
  161.2170  205.0200  147.4060 C   0  0  0  0  0  0  0  0  0  0  0  0
  160.9370  203.2350  145.7650 C   0  0  0  0  0  0  0  0  0  0  0  0
  161.2500  204.6070  149.9650 C   0  0  0  0  0  0  0  0  0  0  0  0
  160.8540  203.2460  152.4150 C   0  0  0  0  0  2  0  0  0  0  0  0
  161.0600  203.6600  147.0890 C   0  0  0  0  0  3  0  0  0  0  0  0
  161.7230  207.4300  150.3000 C   0  0  0  0  0  0  0  0  0  0  0  0
  160.5830  201.2770  151.0650 O   0  0  0  0  0  0  0  0  0  0  0  0
  161.4050  207.3030  146.6060 C   0  0  0  0  0  3  0  0  0  0  0  0
  160.7420  201.5330  145.4080 Cl  0  0  0  0  0  0  0  0  0  0  0  0
  162.1120  206.4890  151.3990 C   0  0  0  0  0  2  0  0  0  0  0  0
  161.5260  206.8800  148.9450 C   0  0  0  0  0  0  0  0  0  0  0  0
  161.6520  208.7190  150.4810 N   0  0  0  0  0  0  0  0  0  0  0  0
  161.0010  203.2920  149.8840 C   0  0  0  0  0  3  0  0  0  0  0  0
  160.9670  204.1670  144.7270 C   0  0  0  0  0  3  0  0  0  0  0  0
  161.2610  205.2300  151.3590 C   0  0  2  0  0  3  0  0  0  0  0  0
  161.7580  204.3220  152.3230 O   0  0  0  0  0  0  0  0  0  0  0  0
  161.5410  207.7310  147.8830 N   0  0  0  0  0  0  0  0  0  0  0  0
  161.2490  205.9500  146.3380 C   0  0  0  0  0  0  0  0  0  0  0  0
  161.1230  205.5230  145.0140 C   0  0  0  0  0  3  0  0  0  0  0  0
  162.9610  209.9620  151.9960 O   0  0  0  0  0  0  0  0  0  0  0  0
  161.8490  209.4480  151.7060 C   0  0  0  0  0  0  0  0  0  0  0  0
  159.6510  210.4620  155.2640 C   0  0  1  0  0  3  0  0  0  0  0  0
  161.0250  208.8380  153.9560 C   0  0  0  0  0  2  0  0  0  0  0  0
  160.0650  211.7400  151.7900 O   0  0  0  0  0  1  0  0  0  0  0  0
  158.6020  210.5870  156.1740 O   0  0  0  0  0  1  0  0  0  0  0  0
  159.8830  208.9870  154.9550 C   0  0  0  0  0  2  0  0  0  0  0  0
  160.4320  211.0780  152.9630 C   0  0  2  0  0  3  0  0  0  0  0  0
  160.7130  209.5990  152.6670 C   0  0  1  0  0  3  0  0  0  0  0  0
  159.3050  211.2140  153.9840 C   0  0  0  0  0  2  0  0  0  0  0  0
  1  6  1  0  0  0  0
  2 13  1  0  0  0  0
  2  5  1  0  0  0  0
  3  2  2  0  0  0  0
  4  7  2  0  0  0  0
  5 17  1  0  0  0  0
  7  3  1  0  0  0  0
  8 14  2  0  0  0  0
  8 12  1  0  0  0  0
  9  1  2  0  0  0  0
 10 19  1  0  0  0  0
 11  4  1  0  0  0  0
 13  8  1  0  0  0  0
 14 23  1  0  0  0  0
 15  5  2  0  0  0  0
 15  1  1  0  0  0  0
 16 21  2  0  0  0  0
 16  4  1  0  0  0  0
 17 12  1  6  0  0  0
 17 18  1  0  0  0  0
 18  6  1  0  0  0  0
 19 13  2  0  0  0  0
 20 10  2  0  0  0  0
 20  3  1  0  0  0  0
 21 20  1  0  0  0  0
 23 22  2  0  0  0  0
 24 27  1  1  0  0  0
 25 28  1  0  0  0  0
 28 24  1  0  0  0  0
 29 26  1  6  0  0  0
 29 31  1  0  0  0  0
 30 23  1  6  0  0  0
 30 29  1  0  0  0  0
 30 25  1  0  0  0  0
 31 24  1  0  0  0  0
M  END
>  <MODEL>
2

>  <REMARK>
 VINA RESULT:      -9.3      3.384      5.230
  Name = 
  2 active torsions:
  status: ('A' for Active; 'I' for Inactive)
    1  A    between atoms: C_5  and  N_16
    2  A    between atoms: C_5  and  C_30
                            x       y       z     vdW  Elec       q    Type
                         _______ _______ _______ _____ _____    ______ ____

>  <TORSDO>
F 2

$$$$
=
 OpenBabel11122413193D

 31 35  0  0  1  0  0  0  0  0999 V2000
  162.0470  209.5780  149.1850 C   0  0  0  0  0  0  0  0  0  0  0  0
  161.2560  206.4680  151.2870 C   0  0  0  0  0  0  0  0  0  0  0  0
  161.1950  205.3420  150.4130 C   0  0  0  0  0  0  0  0  0  0  0  0
  161.2280  204.3380  148.1880 C   0  0  0  0  0  0  0  0  0  0  0  0
  161.4960  207.8820  150.8320 C   0  0  0  0  0  0  0  0  0  0  0  0
  162.1930  210.5720  150.2930 C   0  0  0  0  0  2  0  0  0  0  0  0
  161.2880  205.4610  149.0160 C   0  0  0  0  0  3  0  0  0  0  0  0
  161.1140  207.3500  153.6390 C   0  0  0  0  0  0  0  0  0  0  0  0
  162.2530  209.9020  147.9880 O   0  0  0  0  0  0  0  0  0  0  0  0
  160.9360  203.8810  152.3340 C   0  0  0  0  0  3  0  0  0  0  0  0
  161.3480  204.5250  146.4530 Cl  0  0  0  0  0  0  0  0  0  0  0  0
  160.8610  208.7310  153.1160 C   0  0  0  0  0  2  0  0  0  0  0  0
  161.1210  206.2300  152.6780 C   0  0  0  0  0  0  0  0  0  0  0  0
  161.2280  207.0990  154.9130 N   0  0  0  0  0  0  0  0  0  0  0  0
  161.7120  208.1980  149.5460 C   0  0  0  0  0  3  0  0  0  0  0  0
  161.0740  203.0680  148.7450 C   0  0  0  0  0  3  0  0  0  0  0  0
  161.6800  208.9940  151.8630 C   0  0  2  0  0  3  0  0  0  0  0  0
  161.3010  210.2500  151.3360 O   0  0  0  0  0  0  0  0  0  0  0  0
  160.9780  204.9610  153.1500 N   0  0  0  0  0  0  0  0  0  0  0  0
  161.0350  204.0450  150.9590 C   0  0  0  0  0  0  0  0  0  0  0  0
  160.9780  202.9220  150.1290 C   0  0  0  0  0  3  0  0  0  0  0  0
  161.6330  207.7340  157.1450 O   0  0  0  0  0  0  0  0  0  0  0  0
  161.2070  208.0400  156.0000 C   0  0  0  0  0  0  0  0  0  0  0  0
  159.5060  211.9110  156.8030 C   0  0  1  0  0  3  0  0  0  0  0  0
  159.2200  209.4850  156.2810 C   0  0  0  0  0  2  0  0  0  0  0  0
  162.8230  210.4530  155.9380 O   0  0  0  0  0  1  0  0  0  0  0  0
  158.9770  213.1840  156.6020 O   0  0  0  0  0  1  0  0  0  0  0  0
  158.6490  210.8830  156.0720 C   0  0  0  0  0  2  0  0  0  0  0  0
  161.5330  210.4730  156.4690 C   0  0  2  0  0  3  0  0  0  0  0  0
  160.6620  209.4150  155.7770 C   0  0  1  0  0  3  0  0  0  0  0  0
  160.9360  211.8650  156.2760 C   0  0  0  0  0  2  0  0  0  0  0  0
  1 15  1  0  0  0  0
  1  6  1  0  0  0  0
  2 13  1  0  0  0  0
  3 20  1  0  0  0  0
  3  2  2  0  0  0  0
  4 16  1  0  0  0  0
  4  7  2  0  0  0  0
  5  2  1  0  0  0  0
  5 17  1  0  0  0  0
  6 18  1  0  0  0  0
  7  3  1  0  0  0  0
  8 14  2  0  0  0  0
  9  1  2  0  0  0  0
 10 19  1  0  0  0  0
 11  4  1  0  0  0  0
 12  8  1  0  0  0  0
 13 19  2  0  0  0  0
 13  8  1  0  0  0  0
 14 23  1  0  0  0  0
 15  5  2  0  0  0  0
 16 21  2  0  0  0  0
 17 12  1  1  0  0  0
 18 17  1  0  0  0  0
 20 10  2  0  0  0  0
 21 20  1  0  0  0  0
 23 22  2  0  0  0  0
 24 27  1  6  0  0  0
 28 25  1  0  0  0  0
 28 24  1  0  0  0  0
 29 26  1  6  0  0  0
 30 23  1  1  0  0  0
 30 25  1  0  0  0  0
 30 29  1  0  0  0  0
 31 29  1  0  0  0  0
 31 24  1  0  0  0  0
M  END
>  <MODEL>
3

>  <REMARK>
 VINA RESULT:      -9.2      3.365      6.112
  Name = 
  2 active torsions:
  status: ('A' for Active; 'I' for Inactive)
    1  A    between atoms: C_5  and  N_16
    2  A    between atoms: C_5  and  C_30
                            x       y       z     vdW  Elec       q    Type
                         _______ _______ _______ _____ _____    ______ ____

>  <TORSDO>
F 2

$$$$
=
 OpenBabel11122413193D

 31 35  0  0  1  0  0  0  0  0999 V2000
  161.0190  203.5290  152.0690 C   0  0  0  0  0  0  0  0  0  0  0  0
  161.4810  205.2990  148.6980 C   0  0  0  0  0  0  0  0  0  0  0  0
  161.3540  204.3280  147.6620 C   0  0  0  0  0  0  0  0  0  0  0  0
  161.0900  202.0280  146.8870 C   0  0  0  0  0  0  0  0  0  0  0  0
  161.4120  204.9860  150.1680 C   0  0  0  0  0  0  0  0  0  0  0  0
  161.0550  204.7280  152.9640 C   0  0  0  0  0  2  0  0  0  0  0  0
  161.2160  202.9540  147.9240 C   0  0  0  0  0  3  0  0  0  0  0  0
  161.8430  207.7090  149.3270 C   0  0  0  0  0  0  0  0  0  0  0  0
  160.8050  202.3790  152.5300 O   0  0  0  0  0  0  0  0  0  0  0  0
  161.5010  206.0930  146.0040 C   0  0  0  0  0  3  0  0  0  0  0  0
  160.9200  200.3250  147.2520 Cl  0  0  0  0  0  0  0  0  0  0  0  0
  162.2540  207.2970  150.7070 C   0  0  0  0  0  2  0  0  0  0  0  0
  161.6450  206.6550  148.3130 C   0  0  0  0  0  0  0  0  0  0  0  0
  161.7520  208.9600  148.9720 N   0  0  0  0  0  0  0  0  0  0  0  0
  161.1830  203.7470  150.6300 C   0  0  0  0  0  3  0  0  0  0  0  0
  161.0980  202.4600  145.5600 C   0  0  0  0  0  3  0  0  0  0  0  0
  161.4230  206.1200  151.1910 C   0  0  2  0  0  3  0  0  0  0  0  0
  161.9410  205.6860  152.4330 O   0  0  0  0  0  0  0  0  0  0  0  0
  161.6390  207.0040  146.9970 N   0  0  0  0  0  0  0  0  0  0  0  0
  161.3640  204.7460  146.3090 C   0  0  0  0  0  0  0  0  0  0  0  0
  161.2350  203.8180  145.2720 C   0  0  0  0  0  3  0  0  0  0  0  0
  161.7730  210.0860  151.0410 O   0  0  0  0  0  0  0  0  0  0  0  0
  161.9470  210.1240  149.7950 C   0  0  0  0  0  0  0  0  0  0  0  0
  162.3760  213.2610  146.8800 C   0  0  1  0  0  3  0  0  0  0  0  0
  163.1840  211.1320  147.9070 C   0  0  0  0  0  2  0  0  0  0  0  0
  160.4440  212.6020  149.9960 O   0  0  0  0  0  1  0  0  0  0  0  0
  162.7740  214.4520  146.2760 O   0  0  0  0  0  1  0  0  0  0  0  0
  163.6070  212.4370  147.2400 C   0  0  0  0  0  2  0  0  0  0  0  0
  161.1380  212.2820  148.8280 C   0  0  2  0  0  3  0  0  0  0  0  0
  162.3590  211.4140  149.1630 C   0  0  1  0  0  3  0  0  0  0  0  0
  161.5720  213.5720  148.1380 C   0  0  0  0  0  2  0  0  0  0  0  0
  1  9  2  0  0  0  0
  1  6  1  0  0  0  0
  2  5  1  0  0  0  0
  3  7  1  0  0  0  0
  3  2  2  0  0  0  0
  4 11  1  0  0  0  0
  4  7  2  0  0  0  0
  5 15  2  0  0  0  0
  5 17  1  0  0  0  0
  8 12  1  0  0  0  0
 10 20  2  0  0  0  0
 10 19  1  0  0  0  0
 13  2  1  0  0  0  0
 13  8  1  0  0  0  0
 14  8  2  0  0  0  0
 14 23  1  0  0  0  0
 15  1  1  0  0  0  0
 16  4  1  0  0  0  0
 17 12  1  6  0  0  0
 17 18  1  0  0  0  0
 18  6  1  0  0  0  0
 19 13  2  0  0  0  0
 20  3  1  0  0  0  0
 21 16  2  0  0  0  0
 21 20  1  0  0  0  0
 23 22  2  0  0  0  0
 24 27  1  1  0  0  0
 24 28  1  0  0  0  0
 24 31  1  0  0  0  0
 25 30  1  0  0  0  0
 28 25  1  0  0  0  0
 29 30  1  0  0  0  0
 29 26  1  1  0  0  0
 30 23  1  6  0  0  0
 31 29  1  0  0  0  0
M  END
>  <MODEL>
4

>  <REMARK>
 VINA RESULT:      -8.5      2.316      3.572
  Name = 
  2 active torsions:
  status: ('A' for Active; 'I' for Inactive)
    1  A    between atoms: C_5  and  N_16
    2  A    between atoms: C_5  and  C_30
                            x       y       z     vdW  Elec       q    Type
                         _______ _______ _______ _____ _____    ______ ____

>  <TORSDO>
F 2

$$$$
=
 OpenBabel11122413193D

 31 35  0  0  1  0  0  0  0  0999 V2000
  161.9670  206.4260  146.7090 C   0  0  0  0  0  0  0  0  0  0  0  0
  161.2130  204.8880  150.1410 C   0  0  0  0  0  0  0  0  0  0  0  0
  161.0890  203.4760  149.9810 C   0  0  0  0  0  0  0  0  0  0  0  0
  160.9970  201.4660  148.5990 C   0  0  0  0  0  0  0  0  0  0  0  0
  161.4600  205.8520  149.0120 C   0  0  0  0  0  0  0  0  0  0  0  0
  162.1850  207.8430  147.1360 C   0  0  0  0  0  2  0  0  0  0  0  0
  161.1180  202.8520  148.7230 C   0  0  0  0  0  3  0  0  0  0  0  0
  161.1990  206.8650  151.6970 C   0  0  0  0  0  0  0  0  0  0  0  0
  162.1240  206.0750  145.5110 O   0  0  0  0  0  0  0  0  0  0  0  0
  160.8910  203.2320  152.3870 C   0  0  0  0  0  3  0  0  0  0  0  0
  161.0390  200.7230  147.0160 Cl  0  0  0  0  0  0  0  0  0  0  0  0
  160.9500  207.7850  150.5420 C   0  0  0  0  0  2  0  0  0  0  0  0
  161.1390  205.4100  151.4580 C   0  0  0  0  0  0  0  0  0  0  0  0
  161.3680  207.3040  152.9130 N   0  0  0  0  0  0  0  0  0  0  0  0
  161.6220  205.4470  147.7430 C   0  0  0  0  0  3  0  0  0  0  0  0
  160.8440  200.6740  149.7380 C   0  0  0  0  0  3  0  0  0  0  0  0
  161.7140  207.3270  149.3100 C   0  0  2  0  0  3  0  0  0  0  0  0
  161.3370  208.1440  148.2200 O   0  0  0  0  0  0  0  0  0  0  0  0
  160.9920  204.5760  152.5230 N   0  0  0  0  0  0  0  0  0  0  0  0
  160.9280  202.6560  151.1250 C   0  0  0  0  0  0  0  0  0  0  0  0
  160.8090  201.2700  150.9990 C   0  0  0  0  0  3  0  0  0  0  0  0
  162.3170  209.4600  152.9640 O   0  0  0  0  0  0  0  0  0  0  0  0
  161.4160  208.6730  153.3550 C   0  0  0  0  0  0  0  0  0  0  0  0
  159.4910  211.0900  156.3500 C   0  0  1  0  0  3  0  0  0  0  0  0
  160.9270  209.1410  155.7320 C   0  0  0  0  0  2  0  0  0  0  0  0
  159.3570  210.6010  152.6600 O   0  0  0  0  0  1  0  0  0  0  0  0
  158.5380  211.5550  157.2540 O   0  0  0  0  0  1  0  0  0  0  0  0
  159.8870  209.6640  156.7180 C   0  0  0  0  0  2  0  0  0  0  0  0
  159.9320  210.5990  153.9310 C   0  0  2  0  0  3  0  0  0  0  0  0
  160.3790  209.1790  154.3050 C   0  0  1  0  0  3  0  0  0  0  0  0
  158.9120  211.1220  154.9390 C   0  0  0  0  0  2  0  0  0  0  0  0
  1  6  1  0  0  0  0
  1 15  1  0  0  0  0
  2 13  1  0  0  0  0
  3  2  2  0  0  0  0
  3 20  1  0  0  0  0
  4  7  2  0  0  0  0
  4 16  1  0  0  0  0
  5 17  1  0  0  0  0
  5  2  1  0  0  0  0
  6 18  1  0  0  0  0
  7  3  1  0  0  0  0
  8 14  2  0  0  0  0
  9  1  2  0  0  0  0
 10 19  1  0  0  0  0
 11  4  1  0  0  0  0
 12  8  1  0  0  0  0
 13  8  1  0  0  0  0
 13 19  2  0  0  0  0
 14 23  1  0  0  0  0
 15  5  2  0  0  0  0
 16 21  2  0  0  0  0
 17 12  1  1  0  0  0
 18 17  1  0  0  0  0
 20 10  2  0  0  0  0
 21 20  1  0  0  0  0
 22 23  2  0  0  0  0
 24 28  1  0  0  0  0
 24 27  1  1  0  0  0
 25 28  1  0  0  0  0
 29 26  1  6  0  0  0
 29 30  1  0  0  0  0
 29 31  1  0  0  0  0
 30 23  1  6  0  0  0
 30 25  1  0  0  0  0
 31 24  1  0  0  0  0
M  END
>  <MODEL>
5

>  <REMARK>
 VINA RESULT:      -8.5      3.761      6.036
  Name = 
  2 active torsions:
  status: ('A' for Active; 'I' for Inactive)
    1  A    between atoms: C_5  and  N_16
    2  A    between atoms: C_5  and  C_30
                            x       y       z     vdW  Elec       q    Type
                         _______ _______ _______ _____ _____    ______ ____

>  <TORSDO>
F 2

$$$$
=
 OpenBabel11122413193D

 31 35  0  0  1  0  0  0  0  0999 V2000
  161.9090  207.3620  147.7210 C   0  0  0  0  0  0  0  0  0  0  0  0
  161.1220  205.0000  150.6400 C   0  0  0  0  0  0  0  0  0  0  0  0
  161.0030  203.6770  150.1230 C   0  0  0  0  0  0  0  0  0  0  0  0
  160.9330  202.0840  148.2740 C   0  0  0  0  0  0  0  0  0  0  0  0
  161.3780  206.2200  149.7960 C   0  0  0  0  0  0  0  0  0  0  0  0
  162.1180  208.6240  148.4970 C   0  0  0  0  0  2  0  0  0  0  0  0
  161.0490  203.3930  148.7480 C   0  0  0  0  0  3  0  0  0  0  0  0
  161.0850  206.5160  152.6480 C   0  0  0  0  0  0  0  0  0  0  0  0
  162.0790  207.3280  146.4750 O   0  0  0  0  0  0  0  0  0  0  0  0
  160.7800  202.8280  152.3850 C   0  0  0  0  0  3  0  0  0  0  0  0
  160.9940  201.7690  146.5550 Cl  0  0  0  0  0  0  0  0  0  0  0  0
  160.8450  207.7000  151.7620 C   0  0  0  0  0  2  0  0  0  0  0  0
  161.0320  205.1700  152.0450 C   0  0  0  0  0  0  0  0  0  0  0  0
  161.2390  206.6310  153.9370 N   0  0  0  0  0  0  0  0  0  0  0  0
  161.5550  206.1520  148.4680 C   0  0  0  0  0  3  0  0  0  0  0  0
  160.7700  201.0290  149.1720 C   0  0  0  0  0  3  0  0  0  0  0  0
  161.6250  207.5710  150.4630 C   0  0  2  0  0  3  0  0  0  0  0  0
  161.2570  208.6390  149.6120 O   0  0  0  0  0  0  0  0  0  0  0  0
  160.8760  204.0920  152.8610 N   0  0  0  0  0  0  0  0  0  0  0  0
  160.8330  202.5920  151.0190 C   0  0  0  0  0  0  0  0  0  0  0  0
  160.7200  201.2830  150.5430 C   0  0  0  0  0  3  0  0  0  0  0  0
  161.9560  207.9240  155.7720 O   0  0  0  0  0  0  0  0  0  0  0  0
  161.2780  207.8420  154.7130 C   0  0  0  0  0  0  0  0  0  0  0  0
  159.5500  211.7830  154.6750 C   0  0  1  0  0  3  0  0  0  0  0  0
  159.4250  209.3680  155.3030 C   0  0  0  0  0  2  0  0  0  0  0  0
  162.3300  209.9470  153.0100 O   0  0  0  0  0  1  0  0  0  0  0  0
  158.8050  212.8900  154.2740 O   0  0  0  0  0  1  0  0  0  0  0  0
  158.6210  210.5890  154.8690 C   0  0  0  0  0  2  0  0  0  0  0  0
  161.4140  210.2390  154.0210 C   0  0  2  0  0  3  0  0  0  0  0  0
  160.4960  209.0340  154.2640 C   0  0  1  0  0  3  0  0  0  0  0  0
  160.5960  211.4610  153.6130 C   0  0  0  0  0  2  0  0  0  0  0  0
  1 15  1  0  0  0  0
  1  6  1  0  0  0  0
  2 13  1  0  0  0  0
  3  2  2  0  0  0  0
  3 20  1  0  0  0  0
  4  7  2  0  0  0  0
  4 16  1  0  0  0  0
  5 17  1  0  0  0  0
  5  2  1  0  0  0  0
  6 18  1  0  0  0  0
  7  3  1  0  0  0  0
  8 14  2  0  0  0  0
  9  1  2  0  0  0  0
 10 19  1  0  0  0  0
 11  4  1  0  0  0  0
 12  8  1  0  0  0  0
 13  8  1  0  0  0  0
 13 19  2  0  0  0  0
 14 23  1  0  0  0  0
 15  5  2  0  0  0  0
 16 21  2  0  0  0  0
 17 12  1  1  0  0  0
 18 17  1  0  0  0  0
 20 10  2  0  0  0  0
 21 20  1  0  0  0  0
 23 22  2  0  0  0  0
 24 27  1  6  0  0  0
 24 28  1  0  0  0  0
 28 25  1  0  0  0  0
 29 26  1  6  0  0  0
 29 30  1  0  0  0  0
 30 23  1  1  0  0  0
 30 25  1  0  0  0  0
 31 29  1  0  0  0  0
 31 24  1  0  0  0  0
M  END
>  <MODEL>
6

>  <REMARK>
 VINA RESULT:      -8.5      3.664      5.708
  Name = 
  2 active torsions:
  status: ('A' for Active; 'I' for Inactive)
    1  A    between atoms: C_5  and  N_16
    2  A    between atoms: C_5  and  C_30
                            x       y       z     vdW  Elec       q    Type
                         _______ _______ _______ _____ _____    ______ ____

>  <TORSDO>
F 2

$$$$
=
 OpenBabel11122413193D

 31 35  0  0  1  0  0  0  0  0999 V2000
  161.0590  203.9470  152.2450 C   0  0  0  0  0  0  0  0  0  0  0  0
  161.5320  205.6370  148.8340 C   0  0  0  0  0  0  0  0  0  0  0  0
  161.4170  204.6390  147.8220 C   0  0  0  0  0  0  0  0  0  0  0  0
  161.1730  202.3190  147.1020 C   0  0  0  0  0  0  0  0  0  0  0  0
  161.4550  205.3590  150.3120 C   0  0  0  0  0  0  0  0  0  0  0  0
  161.0820  205.1670  153.1110 C   0  0  0  0  0  2  0  0  0  0  0  0
  161.2860  203.2710  148.1170 C   0  0  0  0  0  3  0  0  0  0  0  0
  161.8740  208.0630  149.4070 C   0  0  0  0  0  0  0  0  0  0  0  0
  160.8500  202.8060  152.7330 O   0  0  0  0  0  0  0  0  0  0  0  0
  161.5630  206.3650  146.1220 C   0  0  0  0  0  3  0  0  0  0  0  0
  161.0110  200.6250  147.5080 Cl  0  0  0  0  0  0  0  0  0  0  0  0
  162.2790  207.6880  150.7990 C   0  0  0  0  0  2  0  0  0  0  0  0
  161.6890  206.9830  148.4180 C   0  0  0  0  0  0  0  0  0  0  0  0
  161.7780  209.3040  149.0210 N   0  0  0  0  0  0  0  0  0  0  0  0
  161.2310  204.1310  150.8020 C   0  0  0  0  0  3  0  0  0  0  0  0
  161.1860  202.7190  145.7650 C   0  0  0  0  0  3  0  0  0  0  0  0
  161.4520  206.5170  151.3070 C   0  0  2  0  0  3  0  0  0  0  0  0
  161.9650  206.1170  152.5620 O   0  0  0  0  0  0  0  0  0  0  0  0
  161.6890  207.3000  147.0940 N   0  0  0  0  0  0  0  0  0  0  0  0
  161.4330  205.0240  146.4590 C   0  0  0  0  0  0  0  0  0  0  0  0
  161.3170  204.0700  145.4450 C   0  0  0  0  0  3  0  0  0  0  0  0
  163.0430  211.1310  149.8050 O   0  0  0  0  0  0  0  0  0  0  0  0
  161.9600  210.4890  149.8160 C   0  0  0  0  0  0  0  0  0  0  0  0
  159.8660  212.5410  152.9670 C   0  0  1  0  0  3  0  0  0  0  0  0
  161.0770  210.5250  152.1250 C   0  0  0  0  0  2  0  0  0  0  0  0
  160.4090  212.8910  149.2990 O   0  0  0  0  0  1  0  0  0  0  0  0
  158.8340  212.9810  153.7930 O   0  0  0  0  0  1  0  0  0  0  0  0
  159.9530  211.0200  153.0290 C   0  0  0  0  0  2  0  0  0  0  0  0
  160.7070  212.5020  150.6050 C   0  0  2  0  0  3  0  0  0  0  0  0
  160.8430  210.9760  150.6820 C   0  0  1  0  0  3  0  0  0  0  0  0
  159.5980  212.9880  151.5340 C   0  0  0  0  0  2  0  0  0  0  0  0
  1  9  2  0  0  0  0
  1  6  1  0  0  0  0
  2  5  1  0  0  0  0
  3  7  1  0  0  0  0
  3  2  2  0  0  0  0
  4 11  1  0  0  0  0
  4  7  2  0  0  0  0
  5 15  2  0  0  0  0
  5 17  1  0  0  0  0
  8 12  1  0  0  0  0
 10 20  2  0  0  0  0
 10 19  1  0  0  0  0
 13  2  1  0  0  0  0
 13  8  1  0  0  0  0
 14  8  2  0  0  0  0
 14 23  1  0  0  0  0
 15  1  1  0  0  0  0
 16  4  1  0  0  0  0
 17 12  1  6  0  0  0
 17 18  1  0  0  0  0
 18  6  1  0  0  0  0
 19 13  2  0  0  0  0
 20  3  1  0  0  0  0
 21 16  2  0  0  0  0
 21 20  1  0  0  0  0
 22 23  2  0  0  0  0
 24 28  1  0  0  0  0
 24 27  1  1  0  0  0
 25 28  1  0  0  0  0
 29 26  1  6  0  0  0
 29 30  1  0  0  0  0
 29 31  1  0  0  0  0
 30 23  1  6  0  0  0
 30 25  1  0  0  0  0
 31 24  1  0  0  0  0
M  END
>  <MODEL>
7

>  <REMARK>
 VINA RESULT:      -8.2      2.382      3.656
  Name = 
  2 active torsions:
  status: ('A' for Active; 'I' for Inactive)
    1  A    between atoms: C_5  and  N_16
    2  A    between atoms: C_5  and  C_30
                            x       y       z     vdW  Elec       q    Type
                         _______ _______ _______ _____ _____    ______ ____

>  <TORSDO>
F 2

$$$$
=
 OpenBabel11122413193D

 31 35  0  0  1  0  0  0  0  0999 V2000
  160.8400  203.2950  151.9440 C   0  0  0  0  0  0  0  0  0  0  0  0
  161.4300  206.0910  149.3850 C   0  0  0  0  0  0  0  0  0  0  0  0
  161.4000  205.5170  148.0800 C   0  0  0  0  0  0  0  0  0  0  0  0
  161.2710  203.6000  146.5740 C   0  0  0  0  0  0  0  0  0  0  0  0
  161.2870  205.3060  150.6610 C   0  0  0  0  0  0  0  0  0  0  0  0
  160.7780  204.1290  153.1850 C   0  0  0  0  0  2  0  0  0  0  0  0
  161.3010  204.1320  147.8650 C   0  0  0  0  0  3  0  0  0  0  0  0
  161.6620  208.1610  150.7980 C   0  0  0  0  0  0  0  0  0  0  0  0
  160.6450  202.0530  151.9830 O   0  0  0  0  0  0  0  0  0  0  0  0
  161.5750  207.7350  147.1130 C   0  0  0  0  0  3  0  0  0  0  0  0
  161.1450  201.8710  146.3440 Cl  0  0  0  0  0  0  0  0  0  0  0  0
  162.0070  207.3210  151.9890 C   0  0  0  0  0  2  0  0  0  0  0  0
  161.5630  207.5000  149.4810 C   0  0  0  0  0  0  0  0  0  0  0  0
  161.5440  209.4570  150.8700 N   0  0  0  0  0  0  0  0  0  0  0  0
  161.0800  203.9810  150.6710 C   0  0  0  0  0  3  0  0  0  0  0  0
  161.3390  204.4480  145.4680 C   0  0  0  0  0  3  0  0  0  0  0  0
  161.1950  206.0360  152.0000 C   0  0  2  0  0  3  0  0  0  0  0  0
  161.6570  205.2230  153.0610 O   0  0  0  0  0  0  0  0  0  0  0  0
  161.6200  208.2660  148.3580 N   0  0  0  0  0  0  0  0  0  0  0  0
  161.4730  206.3610  146.9450 C   0  0  0  0  0  0  0  0  0  0  0  0
  161.4410  205.8270  145.6540 C   0  0  0  0  0  3  0  0  0  0  0  0
  162.4970  210.0540  152.9410 O   0  0  0  0  0  0  0  0  0  0  0  0
  161.6450  210.2850  152.0420 C   0  0  0  0  0  0  0  0  0  0  0  0
  158.2430  212.8680  151.5250 C   0  0  1  0  0  3  0  0  0  0  0  0
  160.5480  212.1640  150.8700 C   0  0  0  0  0  2  0  0  0  0  0  0
  159.5230  210.4190  154.0220 O   0  0  0  0  0  1  0  0  0  0  0  0
  157.3840  213.9580  151.6580 O   0  0  0  0  0  1  0  0  0  0  0  0
  159.5970  213.3480  151.0150 C   0  0  0  0  0  2  0  0  0  0  0  0
  159.3600  210.9950  152.7610 C   0  0  2  0  0  3  0  0  0  0  0  0
  160.7190  211.4460  152.2090 C   0  0  1  0  0  3  0  0  0  0  0  0
  158.4080  212.1830  152.8770 C   0  0  0  0  0  2  0  0  0  0  0  0
  1  9  2  0  0  0  0
  1  6  1  0  0  0  0
  2 13  1  0  0  0  0
  2  5  1  0  0  0  0
  3  2  2  0  0  0  0
  4  7  2  0  0  0  0
  5 15  2  0  0  0  0
  5 17  1  0  0  0  0
  7  3  1  0  0  0  0
  8 14  2  0  0  0  0
  8 12  1  0  0  0  0
 10 19  1  0  0  0  0
 11  4  1  0  0  0  0
 13  8  1  0  0  0  0
 14 23  1  0  0  0  0
 15  1  1  0  0  0  0
 16 21  2  0  0  0  0
 16  4  1  0  0  0  0
 17 12  1  6  0  0  0
 17 18  1  0  0  0  0
 18  6  1  0  0  0  0
 19 13  2  0  0  0  0
 20 10  2  0  0  0  0
 20  3  1  0  0  0  0
 21 20  1  0  0  0  0
 23 22  2  0  0  0  0
 24 27  1  1  0  0  0
 24 31  1  0  0  0  0
 25 28  1  0  0  0  0
 25 30  1  0  0  0  0
 28 24  1  0  0  0  0
 29 31  1  0  0  0  0
 29 26  1  1  0  0  0
 30 23  1  6  0  0  0
 30 29  1  0  0  0  0
M  END
>  <MODEL>
8

>  <REMARK>
 VINA RESULT:      -7.8      2.626      3.928
  Name = 
  2 active torsions:
  status: ('A' for Active; 'I' for Inactive)
    1  A    between atoms: C_5  and  N_16
    2  A    between atoms: C_5  and  C_30
                            x       y       z     vdW  Elec       q    Type
                         _______ _______ _______ _____ _____    ______ ____

>  <TORSDO>
F 2

$$$$
=
 OpenBabel11122413193D

 31 35  0  0  1  0  0  0  0  0999 V2000
  161.8470  210.1960  150.0240 C   0  0  0  0  0  0  0  0  0  0  0  0
  161.0130  208.0110  153.0640 C   0  0  0  0  0  0  0  0  0  0  0  0
  160.6010  208.8650  154.1290 C   0  0  0  0  0  0  0  0  0  0  0  0
  160.2360  211.0760  155.0970 C   0  0  0  0  0  0  0  0  0  0  0  0
  161.4720  208.4960  151.7150 C   0  0  0  0  0  0  0  0  0  0  0  0
  162.1110  209.1110  149.0270 C   0  0  0  0  0  2  0  0  0  0  0  0
  160.6500  210.2660  154.0370 C   0  0  0  0  0  3  0  0  0  0  0  0
  161.4140  205.6640  152.2480 C   0  0  0  0  0  0  0  0  0  0  0  0
  161.8780  211.4080  149.6900 O   0  0  0  0  0  0  0  0  0  0  0  0
  160.0580  206.9150  155.4670 C   0  0  0  0  0  3  0  0  0  0  0  0
  160.3100  212.8170  154.9470 Cl  0  0  0  0  0  0  0  0  0  0  0  0
  162.2980  206.1840  151.1560 C   0  0  0  0  0  2  0  0  0  0  0  0
  160.9480  206.6100  153.2810 C   0  0  0  0  0  0  0  0  0  0  0  0
  161.1280  204.3990  152.3680 N   0  0  0  0  0  0  0  0  0  0  0  0
  161.4940  209.7970  151.3890 C   0  0  0  0  0  3  0  0  0  0  0  0
  159.7610  210.4960  156.2740 C   0  0  0  0  0  3  0  0  0  0  0  0
  161.7600  207.4930  150.6010 C   0  0  2  0  0  3  0  0  0  0  0  0
  162.6990  208.0080  149.6770 O   0  0  0  0  0  0  0  0  0  0  0  0
  160.4700  206.1160  154.4550 N   0  0  0  0  0  0  0  0  0  0  0  0
  160.1200  208.2960  155.3330 C   0  0  0  0  0  0  0  0  0  0  0  0
  159.7040  209.1070  156.3920 C   0  0  0  0  0  3  0  0  0  0  0  0
  162.3390  202.4420  151.8620 O   0  0  0  0  0  0  0  0  0  0  0  0
  161.5170  203.3220  151.4960 C   0  0  0  0  0  0  0  0  0  0  0  0
  161.1980  202.5900  147.2670 C   0  0  1  0  0  3  0  0  0  0  0  0
  161.7630  204.1120  149.1660 C   0  0  0  0  0  2  0  0  0  0  0  0
  160.0700  201.0280  150.4550 O   0  0  0  0  0  1  0  0  0  0  0  0
  160.6760  202.5320  145.9760 O   0  0  0  0  0  1  0  0  0  0  0  0
  161.1980  204.0360  147.7510 C   0  0  0  0  0  2  0  0  0  0  0  0
  160.8920  201.7900  149.6240 C   0  0  2  0  0  3  0  0  0  0  0  0
  160.9410  203.2420  150.1180 C   0  0  1  0  0  3  0  0  0  0  0  0
  160.3500  201.7300  148.1980 C   0  0  0  0  0  2  0  0  0  0  0  0
  1 15  1  0  0  0  0
  2 13  2  0  0  0  0
  2  3  1  0  0  0  0
  3 20  1  0  0  0  0
  4 16  2  0  0  0  0
  5  2  1  0  0  0  0
  6 18  1  0  0  0  0
  6  1  1  0  0  0  0
  7  3  2  0  0  0  0
  7  4  1  0  0  0  0
  8 14  2  0  0  0  0
  8 13  1  0  0  0  0
  9  1  2  0  0  0  0
 11  4  1  0  0  0  0
 12  8  1  0  0  0  0
 13 19  1  0  0  0  0
 15  5  2  0  0  0  0
 16 21  1  0  0  0  0
 17 12  1  1  0  0  0
 17  5  1  0  0  0  0
 18 17  1  0  0  0  0
 19 10  2  0  0  0  0
 20 10  1  0  0  0  0
 20 21  2  0  0  0  0
 23 22  2  0  0  0  0
 23 14  1  0  0  0  0
 24 27  1  6  0  0  0
 24 28  1  0  0  0  0
 24 31  1  0  0  0  0
 25 30  1  0  0  0  0
 28 25  1  0  0  0  0
 29 30  1  0  0  0  0
 29 26  1  1  0  0  0
 30 23  1  1  0  0  0
 31 29  1  0  0  0  0
M  END
>  <MODEL>
9

>  <REMARK>
 VINA RESULT:      -7.7      3.879      8.104
  Name = 
  2 active torsions:
  status: ('A' for Active; 'I' for Inactive)
    1  A    between atoms: C_5  and  N_16
    2  A    between atoms: C_5  and  C_30
                            x       y       z     vdW  Elec       q    Type
                         _______ _______ _______ _____ _____    ______ ____

>  <TORSDO>
F 2

$$$$
