=
 OpenBabel11122413223D

 31 35  0  0  1  0  0  0  0  0999 V2000
  160.0790  212.1300  151.0380 C   0  0  0  0  0  0  0  0  0  0  0  0
  161.2190  209.0980  152.9800 C   0  0  0  0  0  0  0  0  0  0  0  0
  160.9700  209.1440  154.3640 C   0  0  0  0  0  0  0  0  0  0  0  0
  162.0100  207.2470  148.0670 O   0  0  0  0  0  0  0  0  0  0  0  0
  161.6460  206.3000  148.8160 C   0  0  0  0  0  0  0  0  0  0  0  0
  160.5940  210.3820  156.4200 C   0  0  0  0  0  0  0  0  0  0  0  0
  161.2990  210.3510  152.1470 C   0  0  2  0  0  3  0  0  0  0  0  0
  161.2150  212.3400  150.2550 O   0  0  0  0  0  0  0  0  0  0  0  0
  160.8420  210.3640  155.0450 C   0  0  0  0  0  3  0  0  0  0  0  0
  161.6050  207.7780  150.9040 C   0  0  0  0  0  0  0  0  0  0  0  0
  159.2160  213.0370  151.1560 O   0  0  0  0  0  0  0  0  0  0  0  0
  160.9650  206.7190  154.4150 C   0  0  0  0  0  3  0  0  0  0  0  0
  160.4350  211.9100  157.2590 Cl  0  0  0  0  0  0  0  0  0  0  0  0
  161.9450  208.8540  150.2550 N   0  0  0  0  0  0  0  0  0  0  0  0
  161.3390  207.8430  152.3530 C   0  0  0  0  0  0  0  0  0  0  0  0
  161.4420  206.5290  150.2190 N   0  0  0  0  0  2  0  0  0  0  0  0
  159.9100  210.8370  151.7560 C   0  0  0  0  0  2  0  0  0  0  0  0
  160.4720  209.1820  157.1270 C   0  0  0  0  0  3  0  0  0  0  0  0
  162.1930  210.1460  150.9020 C   0  0  1  0  0  3  0  0  0  0  0  0
  162.0690  211.2660  149.8530 C   0  0  0  0  0  2  0  0  0  0  0  0
  161.2060  206.6990  153.0780 N   0  0  0  0  0  0  0  0  0  0  0  0
  160.8450  207.9360  155.0860 C   0  0  0  0  0  0  0  0  0  0  0  0
  160.5970  207.9600  156.4620 C   0  0  0  0  0  3  0  0  0  0  0  0
  161.0340  202.4060  147.1120 C   0  0  0  0  0  0  0  0  0  0  0  0
  161.5910  204.7470  146.8800 C   0  0  0  0  0  3  0  0  0  0  0  0
  160.8830  203.9750  150.4380 O   0  0  0  0  0  1  0  0  0  0  0  0
  160.8270  201.0660  146.5040 C   0  0  0  0  0  1  0  0  0  0  0  0
  161.3960  203.4880  146.3080 C   0  0  0  0  0  3  0  0  0  0  0  0
  161.0600  203.8420  149.0660 C   0  0  0  0  0  0  0  0  0  0  0  0
  161.4270  204.9450  148.2600 C   0  0  0  0  0  0  0  0  0  0  0  0
  160.8670  202.5840  148.4860 C   0  0  0  0  0  3  0  0  0  0  0  0
  1 11  2  0  0  0  0
  1 17  1  0  0  0  0
  2  3  1  0  0  0  0
  3  9  2  0  0  0  0
  3 22  1  0  0  0  0
  4  5  2  0  0  0  0
  5 16  1  0  0  0  0
  6 18  2  0  0  0  0
  6 13  1  0  0  0  0
  7 17  1  6  0  0  0
  7  2  1  0  0  0  0
  8  1  1  0  0  0  0
  9  6  1  0  0  0  0
 10 15  1  0  0  0  0
 12 22  1  0  0  0  0
 14 19  1  0  0  0  0
 14 10  2  0  0  0  0
 15  2  2  0  0  0  0
 15 21  1  0  0  0  0
 16 10  1  0  0  0  0
 19 20  1  6  0  0  0
 19  7  1  0  0  0  0
 20  8  1  0  0  0  0
 21 12  2  0  0  0  0
 22 23  2  0  0  0  0
 23 18  1  0  0  0  0
 24 31  1  0  0  0  0
 25 30  2  0  0  0  0
 27 24  1  0  0  0  0
 28 25  1  0  0  0  0
 28 24  2  0  0  0  0
 29 26  1  0  0  0  0
 30  5  1  0  0  0  0
 30 29  1  0  0  0  0
 31 29  2  0  0  0  0
M  END
>  <MODEL>
1

>  <REMARK>
 VINA RESULT:      -9.2      0.000      0.000
  Name = 
  1 active torsions:
  status: ('A' for Active; 'I' for Inactive)
    1  A    between atoms: C_5  and  C_30
                            x       y       z     vdW  Elec       q    Type
                         _______ _______ _______ _____ _____    ______ ____

>  <TORSDO>
F 1

$$$$
=
 OpenBabel11122413223D

 31 35  0  0  1  0  0  0  0  0999 V2000
  160.7520  209.0880  153.5100 C   0  0  0  0  0  0  0  0  0  0  0  0
  161.6000  207.4360  150.2210 C   0  0  0  0  0  0  0  0  0  0  0  0
  161.3690  206.0490  150.1710 C   0  0  0  0  0  0  0  0  0  0  0  0
  162.1550  212.5030  148.7390 O   0  0  0  0  0  0  0  0  0  0  0  0
  161.7040  211.8330  147.7710 C   0  0  0  0  0  0  0  0  0  0  0  0
  161.1380  203.8870  151.2550 C   0  0  0  0  0  0  0  0  0  0  0  0
  161.7970  208.1590  151.5280 C   0  0  2  0  0  3  0  0  0  0  0  0
  161.8960  209.8710  153.6740 O   0  0  0  0  0  0  0  0  0  0  0  0
  161.3710  205.2620  151.3330 C   0  0  0  0  0  3  0  0  0  0  0  0
  161.8320  209.6240  149.0570 C   0  0  0  0  0  0  0  0  0  0  0  0
  159.9860  208.8760  154.4840 O   0  0  0  0  0  0  0  0  0  0  0  0
  161.1210  206.2060  147.7630 C   0  0  0  0  0  3  0  0  0  0  0  0
  161.1420  202.9170  152.7120 Cl  0  0  0  0  0  0  0  0  0  0  0  0
  162.2710  210.1840  150.1470 N   0  0  0  0  0  0  0  0  0  0  0  0
  161.5870  208.1700  149.0210 C   0  0  0  0  0  0  0  0  0  0  0  0
  161.5370  210.4110  147.8950 N   0  0  0  0  0  2  0  0  0  0  0  0
  160.4610  208.4820  152.1830 C   0  0  0  0  0  2  0  0  0  0  0  0
  160.9030  203.2840  150.0160 C   0  0  0  0  0  3  0  0  0  0  0  0
  162.6540  209.4330  151.3450 C   0  0  1  0  0  3  0  0  0  0  0  0
  162.6340  210.3790  152.5600 C   0  0  0  0  0  2  0  0  0  0  0  0
  161.3460  207.5440  147.8370 N   0  0  0  0  0  0  0  0  0  0  0  0
  161.1300  205.4320  148.9230 C   0  0  0  0  0  0  0  0  0  0  0  0
  160.8990  204.0550  148.8500 C   0  0  0  0  0  3  0  0  0  0  0  0
  160.7610  213.7780  144.0600 C   0  0  0  0  0  0  0  0  0  0  0  0
  162.3740  212.9750  145.6710 C   0  0  0  0  0  3  0  0  0  0  0  0
  158.9410  212.2240  146.8570 O   0  0  0  0  0  1  0  0  0  0  0  0
  160.4540  214.4530  142.7730 C   0  0  0  0  0  1  0  0  0  0  0  0
  162.0870  213.6100  144.4610 C   0  0  0  0  0  3  0  0  0  0  0  0
  160.0040  212.6740  146.0820 C   0  0  0  0  0  0  0  0  0  0  0  0
  161.3450  212.4990  146.4980 C   0  0  0  0  0  0  0  0  0  0  0  0
  159.7240  213.3110  144.8690 C   0  0  0  0  0  3  0  0  0  0  0  0
  1  8  1  0  0  0  0
  1 11  2  0  0  0  0
  2  7  1  0  0  0  0
  3  2  1  0  0  0  0
  3  9  1  0  0  0  0
  5 16  1  0  0  0  0
  5  4  2  0  0  0  0
  6  9  2  0  0  0  0
  6 13  1  0  0  0  0
  7 17  1  6  0  0  0
 10 14  2  0  0  0  0
 12 21  2  0  0  0  0
 12 22  1  0  0  0  0
 14 19  1  0  0  0  0
 15 10  1  0  0  0  0
 15  2  2  0  0  0  0
 16 10  1  0  0  0  0
 17  1  1  0  0  0  0
 18  6  1  0  0  0  0
 19  7  1  0  0  0  0
 19 20  1  1  0  0  0
 20  8  1  0  0  0  0
 21 15  1  0  0  0  0
 22  3  2  0  0  0  0
 23 22  1  0  0  0  0
 23 18  2  0  0  0  0
 24 28  2  0  0  0  0
 24 31  1  0  0  0  0
 25 30  2  0  0  0  0
 27 24  1  0  0  0  0
 28 25  1  0  0  0  0
 29 30  1  0  0  0  0
 29 26  1  0  0  0  0
 30  5  1  0  0  0  0
 31 29  2  0  0  0  0
M  END
>  <MODEL>
2

>  <REMARK>
 VINA RESULT:      -8.9      3.802      7.138
  Name = 
  1 active torsions:
  status: ('A' for Active; 'I' for Inactive)
    1  A    between atoms: C_5  and  C_30
                            x       y       z     vdW  Elec       q    Type
                         _______ _______ _______ _____ _____    ______ ____

>  <TORSDO>
F 1

$$$$
=
 OpenBabel11122413223D

 31 35  0  0  1  0  0  0  0  0999 V2000
  162.3910  205.8980  146.2480 C   0  0  0  0  0  0  0  0  0  0  0  0
  160.9810  204.1510  149.2850 C   0  0  0  0  0  0  0  0  0  0  0  0
  161.0450  202.7460  149.2510 C   0  0  0  0  0  0  0  0  0  0  0  0
  160.8350  209.1410  151.0900 O   0  0  0  0  0  0  0  0  0  0  0  0
  161.0890  208.3590  152.0460 C   0  0  0  0  0  0  0  0  0  0  0  0
  161.1550  200.6470  148.0320 C   0  0  0  0  0  0  0  0  0  0  0  0
  161.0220  204.9760  148.0240 C   0  0  2  0  0  3  0  0  0  0  0  0
  161.3710  206.8230  146.0220 O   0  0  0  0  0  0  0  0  0  0  0  0
  161.0910  202.0420  148.0370 C   0  0  0  0  0  3  0  0  0  0  0  0
  160.8640  206.2700  150.5850 C   0  0  0  0  0  0  0  0  0  0  0  0
  163.2380  205.6580  145.3490 O   0  0  0  0  0  0  0  0  0  0  0  0
  161.0250  202.7150  151.6760 C   0  0  0  0  0  3  0  0  0  0  0  0
  161.2120  199.7810  146.5120 Cl  0  0  0  0  0  0  0  0  0  0  0  0
  160.6220  206.9490  149.5010 N   0  0  0  0  0  0  0  0  0  0  0  0
  160.9360  204.7990  150.5330 C   0  0  0  0  0  0  0  0  0  0  0  0
  161.1080  206.9390  151.8300 N   0  0  0  0  0  2  0  0  0  0  0  0
  162.4540  205.1750  147.5470 C   0  0  0  0  0  2  0  0  0  0  0  0
  161.1730  199.9400  149.2380 C   0  0  0  0  0  3  0  0  0  0  0  0
  160.3000  206.3300  148.2130 C   0  0  1  0  0  3  0  0  0  0  0  0
  160.5690  207.3440  147.0850 C   0  0  0  0  0  2  0  0  0  0  0  0
  160.9640  204.0720  151.6840 N   0  0  0  0  0  0  0  0  0  0  0  0
  161.0640  202.0240  150.4650 C   0  0  0  0  0  0  0  0  0  0  0  0
  161.1270  200.6270  150.4540 C   0  0  0  0  0  3  0  0  0  0  0  0
  161.9350  209.9930  155.9260 C   0  0  0  0  0  0  0  0  0  0  0  0
  161.9010  210.1860  153.5170 C   0  0  0  0  0  3  0  0  0  0  0  0
  160.5970  206.8640  154.5250 O   0  0  0  0  0  1  0  0  0  0  0  0
  162.2340  210.5760  157.2600 C   0  0  0  0  0  1  0  0  0  0  0  0
  162.1820  210.7340  154.7710 C   0  0  0  0  0  3  0  0  0  0  0  0
  161.1220  208.1490  154.5770 C   0  0  0  0  0  0  0  0  0  0  0  0
  161.3700  208.8920  153.3990 C   0  0  0  0  0  0  0  0  0  0  0  0
  161.4070  208.7050  155.8290 C   0  0  0  0  0  3  0  0  0  0  0  0
  1 17  1  0  0  0  0
  2 15  1  0  0  0  0
  3  2  2  0  0  0  0
  3 22  1  0  0  0  0
  4  5  2  0  0  0  0
  5 30  1  0  0  0  0
  6  9  2  0  0  0  0
  6 18  1  0  0  0  0
  7 17  1  1  0  0  0
  7 19  1  0  0  0  0
  7  2  1  0  0  0  0
  8  1  1  0  0  0  0
  8 20  1  0  0  0  0
  9  3  1  0  0  0  0
 10 16  1  0  0  0  0
 11  1  2  0  0  0  0
 12 21  1  0  0  0  0
 13  6  1  0  0  0  0
 14 10  2  0  0  0  0
 15 10  1  0  0  0  0
 15 21  2  0  0  0  0
 16  5  1  0  0  0  0
 18 23  2  0  0  0  0
 19 20  1  6  0  0  0
 19 14  1  0  0  0  0
 22 12  2  0  0  0  0
 23 22  1  0  0  0  0
 24 27  1  0  0  0  0
 25 28  1  0  0  0  0
 26 29  1  0  0  0  0
 28 24  2  0  0  0  0
 29 31  2  0  0  0  0
 30 25  2  0  0  0  0
 30 29  1  0  0  0  0
 31 24  1  0  0  0  0
M  END
>  <MODEL>
3

>  <REMARK>
 VINA RESULT:      -7.7      3.600      8.340
  Name = 
  1 active torsions:
  status: ('A' for Active; 'I' for Inactive)
    1  A    between atoms: C_5  and  C_30
                            x       y       z     vdW  Elec       q    Type
                         _______ _______ _______ _____ _____    ______ ____

>  <TORSDO>
F 1

$$$$
=
 OpenBabel11122413223D

 31 35  0  0  1  0  0  0  0  0999 V2000
  162.5530  205.7480  146.2360 C   0  0  0  0  0  0  0  0  0  0  0  0
  161.0030  204.0740  149.2470 C   0  0  0  0  0  0  0  0  0  0  0  0
  161.0560  202.6690  149.2440 C   0  0  0  0  0  0  0  0  0  0  0  0
  160.8230  209.1020  150.9440 O   0  0  0  0  0  0  0  0  0  0  0  0
  161.0320  208.3370  151.9250 C   0  0  0  0  0  0  0  0  0  0  0  0
  161.1990  200.5440  148.0730 C   0  0  0  0  0  0  0  0  0  0  0  0
  161.1030  204.8730  147.9730 C   0  0  2  0  0  3  0  0  0  0  0  0
  161.5510  206.6760  145.9500 O   0  0  0  0  0  0  0  0  0  0  0  0
  161.1470  201.9400  148.0470 C   0  0  0  0  0  3  0  0  0  0  0  0
  160.8490  206.2210  150.4980 C   0  0  0  0  0  0  0  0  0  0  0  0
  163.4340  205.4840  145.3790 O   0  0  0  0  0  0  0  0  0  0  0  0
  160.9350  202.6880  151.6660 C   0  0  0  0  0  3  0  0  0  0  0  0
  161.3120  199.6480  146.5740 Cl  0  0  0  0  0  0  0  0  0  0  0  0
  160.6580  206.8790  149.3910 N   0  0  0  0  0  0  0  0  0  0  0  0
  160.9120  204.7480  150.4790 C   0  0  0  0  0  0  0  0  0  0  0  0
  161.0470  206.9130  151.7380 N   0  0  0  0  0  2  0  0  0  0  0  0
  162.5550  205.0520  147.5520 C   0  0  0  0  0  2  0  0  0  0  0  0
  161.1610  199.8630  149.2930 C   0  0  0  0  0  3  0  0  0  0  0  0
  160.3850  206.2360  148.1030 C   0  0  1  0  0  3  0  0  0  0  0  0
  160.7100  207.2250  146.9680 C   0  0  0  0  0  2  0  0  0  0  0  0
  160.8850  204.0450  151.6440 N   0  0  0  0  0  0  0  0  0  0  0  0
  161.0190  201.9720  150.4720 C   0  0  0  0  0  0  0  0  0  0  0  0
  161.0710  200.5750  150.4920 C   0  0  0  0  0  3  0  0  0  0  0  0
  161.6960  209.8630  155.8840 C   0  0  0  0  0  0  0  0  0  0  0  0
  161.3650  208.0130  154.3640 C   0  0  0  0  0  3  0  0  0  0  0  0
  161.2840  211.2090  152.4820 O   0  0  0  0  0  1  0  0  0  0  0  0
  161.9260  210.3730  157.2600 C   0  0  0  0  0  1  0  0  0  0  0  0
  161.5810  208.4910  155.6580 C   0  0  0  0  0  3  0  0  0  0  0  0
  161.3790  210.2850  153.5170 C   0  0  0  0  0  0  0  0  0  0  0  0
  161.2600  208.8960  153.2770 C   0  0  0  0  0  0  0  0  0  0  0  0
  161.5940  210.7560  154.8160 C   0  0  0  0  0  3  0  0  0  0  0  0
  1 17  1  0  0  0  0
  2 15  1  0  0  0  0
  3  2  2  0  0  0  0
  3 22  1  0  0  0  0
  4  5  2  0  0  0  0
  5 30  1  0  0  0  0
  6 18  1  0  0  0  0
  7 17  1  1  0  0  0
  7 19  1  0  0  0  0
  7  2  1  0  0  0  0
  8  1  1  0  0  0  0
  8 20  1  0  0  0  0
  9  6  2  0  0  0  0
  9  3  1  0  0  0  0
 10 16  1  0  0  0  0
 11  1  2  0  0  0  0
 13  6  1  0  0  0  0
 14 10  2  0  0  0  0
 15 10  1  0  0  0  0
 15 21  2  0  0  0  0
 16  5  1  0  0  0  0
 18 23  2  0  0  0  0
 19 20  1  6  0  0  0
 19 14  1  0  0  0  0
 21 12  1  0  0  0  0
 22 23  1  0  0  0  0
 22 12  2  0  0  0  0
 24 27  1  0  0  0  0
 25 28  2  0  0  0  0
 26 29  1  0  0  0  0
 28 24  1  0  0  0  0
 29 31  1  0  0  0  0
 30 29  2  0  0  0  0
 30 25  1  0  0  0  0
 31 24  2  0  0  0  0
M  END
>  <MODEL>
4

>  <REMARK>
 VINA RESULT:      -7.1      3.537      8.444
  Name = 
  1 active torsions:
  status: ('A' for Active; 'I' for Inactive)
    1  A    between atoms: C_5  and  C_30
                            x       y       z     vdW  Elec       q    Type
                         _______ _______ _______ _____ _____    ______ ____

>  <TORSDO>
F 1

$$$$
=
 OpenBabel11122413223D

 31 35  0  0  1  0  0  0  0  0999 V2000
  160.0090  201.8400  150.5000 C   0  0  0  0  0  0  0  0  0  0  0  0
  161.2900  205.1720  149.2670 C   0  0  0  0  0  0  0  0  0  0  0  0
  161.2240  205.3610  147.8750 C   0  0  0  0  0  0  0  0  0  0  0  0
  161.3750  206.1600  154.4830 O   0  0  0  0  0  0  0  0  0  0  0  0
  161.0800  207.2180  153.8630 C   0  0  0  0  0  0  0  0  0  0  0  0
  161.1590  204.4900  145.6080 C   0  0  0  0  0  0  0  0  0  0  0  0
  161.3030  203.7950  149.8810 C   0  0  2  0  0  3  0  0  0  0  0  0
  161.0400  201.5100  151.3820 O   0  0  0  0  0  0  0  0  0  0  0  0
  161.2260  204.2740  146.9860 C   0  0  0  0  0  3  0  0  0  0  0  0
  161.3600  206.1200  151.5680 C   0  0  0  0  0  0  0  0  0  0  0  0
  159.1990  200.9570  150.1170 O   0  0  0  0  0  0  0  0  0  0  0  0
  161.1460  207.7580  148.2330 C   0  0  0  0  0  3  0  0  0  0  0  0
  161.1610  203.1270  144.5100 Cl  0  0  0  0  0  0  0  0  0  0  0  0
  161.6470  204.9520  152.0660 N   0  0  0  0  0  0  0  0  0  0  0  0
  161.2860  206.3010  150.1070 C   0  0  0  0  0  0  0  0  0  0  0  0
  161.0670  207.2310  152.4260 N   0  0  0  0  0  2  0  0  0  0  0  0
  159.8920  203.2350  149.9950 C   0  0  0  0  0  2  0  0  0  0  0  0
  161.0910  205.7920  145.1030 C   0  0  0  0  0  3  0  0  0  0  0  0
  162.0200  203.7930  151.2500 C   0  0  1  0  0  3  0  0  0  0  0  0
  161.7990  202.5080  152.0700 C   0  0  0  0  0  2  0  0  0  0  0  0
  161.2100  207.5510  149.5740 N   0  0  0  0  0  0  0  0  0  0  0  0
  161.1540  206.6730  147.3570 C   0  0  0  0  0  0  0  0  0  0  0  0
  161.0880  206.8830  145.9760 C   0  0  0  0  0  3  0  0  0  0  0  0
  160.1560  210.8610  155.9410 C   0  0  0  0  0  0  0  0  0  0  0  0
  161.1460  209.6910  154.0710 C   0  0  0  0  0  3  0  0  0  0  0  0
  159.6150  207.2500  156.4070 O   0  0  0  0  0  1  0  0  0  0  0  0
  159.8450  212.1310  156.6450 C   0  0  0  0  0  1  0  0  0  0  0  0
  160.8540  210.8850  154.7330 C   0  0  0  0  0  3  0  0  0  0  0  0
  160.0380  208.4410  155.8290 C   0  0  0  0  0  0  0  0  0  0  0  0
  160.7460  208.4550  154.6050 C   0  0  0  0  0  0  0  0  0  0  0  0
  159.7500  209.6420  156.4860 C   0  0  0  0  0  3  0  0  0  0  0  0
  1  8  1  0  0  0  0
  2  7  1  0  0  0  0
  2 15  1  0  0  0  0
  3  2  2  0  0  0  0
  5  4  2  0  0  0  0
  5 30  1  0  0  0  0
  6  9  2  0  0  0  0
  7 17  1  1  0  0  0
  7 19  1  0  0  0  0
  8 20  1  0  0  0  0
  9  3  1  0  0  0  0
 10 14  2  0  0  0  0
 10 16  1  0  0  0  0
 11  1  2  0  0  0  0
 12 21  1  0  0  0  0
 13  6  1  0  0  0  0
 15 10  1  0  0  0  0
 16  5  1  0  0  0  0
 17  1  1  0  0  0  0
 18  6  1  0  0  0  0
 18 23  2  0  0  0  0
 19 14  1  0  0  0  0
 19 20  1  1  0  0  0
 21 15  2  0  0  0  0
 22  3  1  0  0  0  0
 22 12  2  0  0  0  0
 23 22  1  0  0  0  0
 24 31  1  0  0  0  0
 24 27  1  0  0  0  0
 25 30  2  0  0  0  0
 25 28  1  0  0  0  0
 28 24  2  0  0  0  0
 29 26  1  0  0  0  0
 29 31  2  0  0  0  0
 30 29  1  0  0  0  0
M  END
>  <MODEL>
5

>  <REMARK>
 VINA RESULT:      -6.6      4.021      9.037
  Name = 
  1 active torsions:
  status: ('A' for Active; 'I' for Inactive)
    1  A    between atoms: C_5  and  C_30
                            x       y       z     vdW  Elec       q    Type
                         _______ _______ _______ _____ _____    ______ ____

>  <TORSDO>
F 1

$$$$
