=
 OpenBabel11122414133D

 28 32  0  0  1  0  0  0  0  0999 V2000
  162.0280  209.8710  152.8780 C   0  0  0  0  0  0  0  0  0  0  0  0
  160.7400  214.4530  150.9020 O   0  0  0  0  0  0  0  0  0  0  0  0
  158.1160  210.1340  155.4130 C   0  0  0  0  0  1  0  0  0  0  0  0
  160.4560  207.9490  151.5840 C   0  0  0  0  0  3  0  0  0  0  0  0
  157.7170  212.1180  153.9900 C   0  0  2  0  0  3  0  0  0  0  0  0
  162.7760  210.8350  153.5550 O   0  0  0  0  0  0  0  0  0  0  0  0
  161.3940  212.8520  149.1580 O   0  0  0  0  0  0  0  0  0  0  0  0
  160.2580  213.3430  150.0100 S   0  0  0  0  0  0  0  0  0  0  0  0
  157.6360  213.3000  149.3610 C   0  0  2  0  0  3  0  0  0  0  0  0
  159.6200  212.0260  150.9580 N   0  0  2  0  0  0  0  0  0  0  0  0
  162.2750  210.7980  157.2600 C   0  0  0  0  0  1  0  0  0  0  0  0
  160.0230  212.3530  153.3420 C   0  0  1  0  0  3  0  0  0  0  0  0
  157.4500  213.3810  150.8690 C   0  0  0  0  0  2  0  0  0  0  0  0
  158.9520  213.9550  148.9670 C   0  0  0  0  0  2  0  0  0  0  0  0
  161.8640  210.6900  155.8080 C   0  0  1  0  0  3  0  0  0  0  0  0
  160.9340  210.2780  152.0970 C   0  0  0  0  0  0  0  0  0  0  0  0
  158.6300  211.5080  155.0280 C   0  0  2  0  0  3  0  0  0  0  0  0
  156.4960  214.0180  148.6700 C   0  0  0  0  0  1  0  0  0  0  0  0
  160.9130  211.8300  155.4620 C   0  0  0  0  0  2  0  0  0  0  0  0
  160.1440  209.3060  151.4620 C   0  0  0  0  0  3  0  0  0  0  0  0
  162.3310  208.5080  153.0070 C   0  0  0  0  0  3  0  0  0  0  0  0
  161.5500  207.5510  152.3560 C   0  0  0  0  0  3  0  0  0  0  0  0
  163.1170  210.7030  154.9310 C   0  0  0  0  0  2  0  0  0  0  0  0
  158.6280  212.8350  153.0280 C   0  0  1  0  0  3  0  0  0  0  0  0
  159.9620  211.3930  154.4480 N   0  0  2  0  0  0  0  0  0  0  0  0
  158.3450  212.3750  151.6140 C   0  0  2  0  0  3  0  0  0  0  0  0
  156.8580  213.0330  154.5970 O   0  0  0  0  0  1  0  0  0  0  0  0
  160.5690  211.7460  152.0330 C   0  0  1  0  0  3  0  0  0  0  0  0
  1 21  1  0  0  0  0
  1  6  1  0  0  0  0
  4 22  1  0  0  0  0
  5 27  1  1  0  0  0
  5 17  1  0  0  0  0
  6 23  1  0  0  0  0
  7  8  2  0  0  0  0
  8  2  2  0  0  0  0
  9 18  1  6  0  0  0
  9 13  1  0  0  0  0
 10  8  1  1  0  0  0
 10 26  1  0  0  0  0
 10 28  1  0  0  0  0
 12 25  1  0  0  0  0
 13 26  1  0  0  0  0
 14  9  1  0  0  0  0
 14  8  1  0  0  0  0
 15 11  1  0  0  0  0
 16  1  2  0  0  0  0
 17  3  1  0  0  0  0
 19 15  1  0  0  0  0
 20  4  2  0  0  0  0
 20 16  1  0  0  0  0
 22 21  2  0  0  0  0
 23 15  1  0  0  0  0
 24 12  1  0  0  0  0
 24  5  1  0  0  0  0
 25 17  1  0  0  0  0
 25 19  1  0  0  0  0
 26 24  1  0  0  0  0
 28 16  1  0  0  0  0
 28 12  1  0  0  0  0
M  END
>  <MODEL>
1

>  <REMARK>
 VINA RESULT:      -0.0      0.000      0.000
  Name = 
  0 active torsions:
  status: ('A' for Active; 'I' for Inactive)
                            x       y       z     vdW  Elec       q    Type
                         _______ _______ _______ _____ _____    ______ ____

>  <TORSDO>
F 0

$$$$
=
 OpenBabel11122414133D

 28 32  0  0  1  0  0  0  0  0999 V2000
  160.9010  208.2480  155.7990 C   0  0  0  0  0  0  0  0  0  0  0  0
  156.1800  209.6560  154.2890 O   0  0  0  0  0  0  0  0  0  0  0  0
  162.5370  210.8020  152.2490 C   0  0  0  0  0  1  0  0  0  0  0  0
  161.9950  210.4150  157.1960 C   0  0  0  0  0  3  0  0  0  0  0  0
  160.1660  211.4880  152.0800 C   0  0  2  0  0  3  0  0  0  0  0  0
  160.3730  207.1880  155.0620 O   0  0  0  0  0  0  0  0  0  0  0  0
  156.4890  209.9270  156.7100 O   0  0  0  0  0  0  0  0  0  0  0  0
  156.6800  210.5740  155.3680 S   0  0  0  0  0  0  0  0  0  0  0  0
  156.6890  213.2270  154.8580 C   0  0  2  0  0  3  0  0  0  0  0  0
  158.3670  210.9430  155.1280 N   0  0  2  0  0  0  0  0  0  0  0  0
  162.4690  206.2060  152.1250 C   0  0  0  0  0  1  0  0  0  0  0  0
  159.3350  209.6080  153.3300 C   0  0  1  0  0  3  0  0  0  0  0  0
  157.4610  212.8000  153.6180 C   0  0  0  0  0  2  0  0  0  0  0  0
  155.7680  212.1020  155.3070 C   0  0  0  0  0  2  0  0  0  0  0  0
  161.8250  207.1600  153.1070 C   0  0  1  0  0  3  0  0  0  0  0  0
  160.2760  209.5050  155.7360 C   0  0  0  0  0  0  0  0  0  0  0  0
  161.1220  210.3220  151.9910 C   0  0  2  0  0  3  0  0  0  0  0  0
  155.8590  214.4530  154.5420 C   0  0  0  0  0  1  0  0  0  0  0  0
  160.8060  208.0290  152.3780 C   0  0  0  0  0  2  0  0  0  0  0  0
  160.8390  210.5880  156.4300 C   0  0  0  0  0  3  0  0  0  0  0  0
  162.0680  208.0820  156.5590 C   0  0  0  0  0  3  0  0  0  0  0  0
  162.6090  209.1620  157.2600 C   0  0  0  0  0  3  0  0  0  0  0  0
  161.1850  206.3560  154.2400 C   0  0  0  0  0  2  0  0  0  0  0  0
  158.9370  210.9470  152.7610 C   0  0  1  0  0  3  0  0  0  0  0  0
  160.7390  209.3450  153.0020 N   0  0  2  0  0  0  0  0  0  0  0  0
  158.5890  211.8110  153.9550 C   0  0  2  0  0  3  0  0  0  0  0  0
  159.8390  211.9290  150.7980 O   0  0  0  0  0  1  0  0  0  0  0  0
  159.0650  209.6900  154.8460 C   0  0  1  0  0  3  0  0  0  0  0  0
  1 21  1  0  0  0  0
  2  8  2  0  0  0  0
  4 22  1  0  0  0  0
  5 27  1  6  0  0  0
  5 24  1  0  0  0  0
  6  1  1  0  0  0  0
  8  7  2  0  0  0  0
  9 18  1  6  0  0  0
  9 14  1  0  0  0  0
 10  8  1  6  0  0  0
 11 15  1  0  0  0  0
 12 28  1  0  0  0  0
 13 26  1  0  0  0  0
 13  9  1  0  0  0  0
 14  8  1  0  0  0  0
 15 23  1  0  0  0  0
 16  1  2  0  0  0  0
 16 20  1  0  0  0  0
 17  5  1  0  0  0  0
 17  3  1  0  0  0  0
 17 25  1  0  0  0  0
 19 25  1  0  0  0  0
 19 15  1  0  0  0  0
 20  4  2  0  0  0  0
 21 22  2  0  0  0  0
 23  6  1  0  0  0  0
 24 12  1  0  0  0  0
 24 26  1  0  0  0  0
 25 12  1  0  0  0  0
 26 10  1  0  0  0  0
 28 10  1  0  0  0  0
 28 16  1  0  0  0  0
M  END
>  <MODEL>
2

>  <REMARK>
 VINA RESULT:       0.6      2.713      5.114
  Name = 
  0 active torsions:
  status: ('A' for Active; 'I' for Inactive)
                            x       y       z     vdW  Elec       q    Type
                         _______ _______ _______ _____ _____    ______ ____

>  <TORSDO>
F 0

$$$$
=
 OpenBabel11122414133D

 28 32  0  0  1  0  0  0  0  0999 V2000
  161.3290  210.3800  156.2250 C   0  0  0  0  0  0  0  0  0  0  0  0
  158.5980  211.7000  152.0590 O   0  0  0  0  0  0  0  0  0  0  0  0
  162.6440  206.5750  153.8610 C   0  0  0  0  0  1  0  0  0  0  0  0
  164.0020  211.0160  155.6890 C   0  0  0  0  0  3  0  0  0  0  0  0
  161.4930  207.7320  152.0020 C   0  0  2  0  0  3  0  0  0  0  0  0
  160.0040  210.0200  156.4720 O   0  0  0  0  0  0  0  0  0  0  0  0
  159.9350  213.5760  152.9140 O   0  0  0  0  0  0  0  0  0  0  0  0
  159.9490  212.3600  152.0310 S   0  0  0  0  0  0  0  0  0  0  0  0
  161.4830  211.9930  149.8380 C   0  0  2  0  0  3  0  0  0  0  0  0
  161.1840  211.2540  152.5720 N   0  0  2  0  0  0  0  0  0  0  0  0
  159.5530  206.3930  157.2610 C   0  0  0  0  0  1  0  0  0  0  0  0
  160.2250  209.1860  153.4410 C   0  0  1  0  0  3  0  0  0  0  0  0
  161.2110  210.5210  150.1200 C   0  0  0  0  0  2  0  0  0  0  0  0
  160.3320  212.8400  150.3610 C   0  0  0  0  0  2  0  0  0  0  0  0
  160.1490  207.5910  156.5530 C   0  0  1  0  0  3  0  0  0  0  0  0
  161.7200  210.6970  154.9140 C   0  0  0  0  0  0  0  0  0  0  0  0
  161.3140  207.1110  153.3680 C   0  0  2  0  0  3  0  0  0  0  0  0
  161.6210  212.2060  148.3450 C   0  0  0  0  0  1  0  0  0  0  0  0
  159.7680  207.5510  155.0780 C   0  0  0  0  0  2  0  0  0  0  0  0
  163.0650  211.0030  154.6530 C   0  0  0  0  0  3  0  0  0  0  0  0
  162.2760  210.3840  157.2600 C   0  0  0  0  0  3  0  0  0  0  0  0
  163.6070  210.7070  156.9920 C   0  0  0  0  0  3  0  0  0  0  0  0
  159.6590  208.8690  157.2360 C   0  0  0  0  0  2  0  0  0  0  0  0
  160.6160  208.9570  152.0020 C   0  0  1  0  0  3  0  0  0  0  0  0
  160.8310  208.1440  154.2750 N   0  0  2  0  0  0  0  0  0  0  0  0
  161.4280  210.1700  151.6010 C   0  0  2  0  0  3  0  0  0  0  0  0
  161.0610  206.8420  151.0190 O   0  0  0  0  0  1  0  0  0  0  0  0
  160.7050  210.6090  153.7920 C   0  0  1  0  0  3  0  0  0  0  0  0
  1  6  1  0  0  0  0
  1 21  1  0  0  0  0
  4 22  1  0  0  0  0
  5 27  1  6  0  0  0
  5 24  1  0  0  0  0
  5 17  1  0  0  0  0
  6 23  1  0  0  0  0
  8  2  2  0  0  0  0
  8  7  2  0  0  0  0
  9 18  1  6  0  0  0
  9 13  1  0  0  0  0
  9 14  1  0  0  0  0
 10  8  1  6  0  0  0
 10 28  1  0  0  0  0
 12 28  1  0  0  0  0
 12 25  1  0  0  0  0
 13 26  1  0  0  0  0
 14  8  1  0  0  0  0
 15 23  1  0  0  0  0
 15 11  1  0  0  0  0
 16  1  2  0  0  0  0
 17  3  1  0  0  0  0
 17 25  1  0  0  0  0
 19 15  1  0  0  0  0
 20 16  1  0  0  0  0
 20  4  2  0  0  0  0
 22 21  2  0  0  0  0
 24 12  1  0  0  0  0
 25 19  1  0  0  0  0
 26 24  1  0  0  0  0
 26 10  1  0  0  0  0
 28 16  1  0  0  0  0
M  END
>  <MODEL>
3

>  <REMARK>
 VINA RESULT:       0.8      2.475      4.561
  Name = 
  0 active torsions:
  status: ('A' for Active; 'I' for Inactive)
                            x       y       z     vdW  Elec       q    Type
                         _______ _______ _______ _____ _____    ______ ____

>  <TORSDO>
F 0

$$$$
=
 OpenBabel11122414133D

 28 32  0  0  1  0  0  0  0  0999 V2000
  161.2310  207.6160  156.1180 C   0  0  0  0  0  0  0  0  0  0  0  0
  163.6890  206.7770  151.6670 O   0  0  0  0  0  0  0  0  0  0  0  0
  159.4120  211.4230  154.1180 C   0  0  0  0  0  1  0  0  0  0  0  0
  158.5810  206.7840  155.7610 C   0  0  0  0  0  3  0  0  0  0  0  0
  160.4880  210.4770  152.1010 C   0  0  2  0  0  3  0  0  0  0  0  0
  162.5390  208.0750  156.2790 O   0  0  0  0  0  0  0  0  0  0  0  0
  162.5870  204.7470  152.5060 O   0  0  0  0  0  0  0  0  0  0  0  0
  162.3990  206.0060  151.7070 S   0  0  0  0  0  0  0  0  0  0  0  0
  160.6560  206.3640  149.6740 C   0  0  2  0  0  3  0  0  0  0  0  0
  161.1290  206.9680  152.4160 N   0  0  2  0  0  0  0  0  0  0  0  0
  162.7610  211.6760  157.2590 C   0  0  0  0  0  1  0  0  0  0  0  0
  161.9890  209.0580  153.3360 C   0  0  1  0  0  3  0  0  0  0  0  0
  160.8310  207.8350  150.0260 C   0  0  0  0  0  2  0  0  0  0  0  0
  161.9130  205.5910  150.0460 C   0  0  0  0  0  2  0  0  0  0  0  0
  162.2050  210.4730  156.5270 C   0  0  1  0  0  3  0  0  0  0  0  0
  160.7550  207.3430  154.8250 C   0  0  0  0  0  0  0  0  0  0  0  0
  160.7340  211.0320  153.4850 C   0  0  2  0  0  3  0  0  0  0  0  0
  160.4070  206.2260  148.1870 C   0  0  0  0  0  1  0  0  0  0  0  0
  162.4520  210.6300  155.0310 C   0  0  0  0  0  2  0  0  0  0  0  0
  159.4210  206.9370  154.6550 C   0  0  0  0  0  3  0  0  0  0  0  0
  160.3810  207.4720  157.2240 C   0  0  0  0  0  3  0  0  0  0  0  0
  159.0610  207.0510  157.0450 C   0  0  0  0  0  3  0  0  0  0  0  0
  162.8540  209.2050  157.0850 C   0  0  0  0  0  2  0  0  0  0  0  0
  161.4580  209.3350  151.9510 C   0  0  1  0  0  3  0  0  0  0  0  0
  161.3760  209.9950  154.2810 N   0  0  2  0  0  0  0  0  0  0  0  0
  160.7150  208.0820  151.5400 C   0  0  2  0  0  3  0  0  0  0  0  0
  160.7610  211.4560  151.1450 O   0  0  0  0  0  1  0  0  0  0  0  0
  161.6580  207.5820  153.6330 C   0  0  1  0  0  3  0  0  0  0  0  0
  1  6  1  0  0  0  0
  1 21  1  0  0  0  0
  2  8  2  0  0  0  0
  4 22  1  0  0  0  0
  5 27  1  6  0  0  0
  5 17  1  0  0  0  0
  6 23  1  0  0  0  0
  8  7  2  0  0  0  0
  9 18  1  6  0  0  0
  9 13  1  0  0  0  0
  9 14  1  0  0  0  0
 10  8  1  6  0  0  0
 10 28  1  0  0  0  0
 12 28  1  0  0  0  0
 12 25  1  0  0  0  0
 13 26  1  0  0  0  0
 14  8  1  0  0  0  0
 15 23  1  0  0  0  0
 15 11  1  0  0  0  0
 16  1  2  0  0  0  0
 17  3  1  0  0  0  0
 17 25  1  0  0  0  0
 19 15  1  0  0  0  0
 20 16  1  0  0  0  0
 20  4  2  0  0  0  0
 22 21  2  0  0  0  0
 24  5  1  0  0  0  0
 24 12  1  0  0  0  0
 25 19  1  0  0  0  0
 26 24  1  0  0  0  0
 26 10  1  0  0  0  0
 28 16  1  0  0  0  0
M  END
>  <MODEL>
4

>  <REMARK>
 VINA RESULT:       0.9      3.173      5.294
  Name = 
  0 active torsions:
  status: ('A' for Active; 'I' for Inactive)
                            x       y       z     vdW  Elec       q    Type
                         _______ _______ _______ _____ _____    ______ ____

>  <TORSDO>
F 0

$$$$
=
 OpenBabel11122414133D

 28 32  0  0  1  0  0  0  0  0999 V2000
  162.3320  209.4930  151.6830 C   0  0  0  0  0  0  0  0  0  0  0  0
  162.6980  213.9990  149.2080 O   0  0  0  0  0  0  0  0  0  0  0  0
  157.9570  210.7150  152.7610 C   0  0  0  0  0  1  0  0  0  0  0  0
  160.8970  207.7580  150.0190 C   0  0  0  0  0  3  0  0  0  0  0  0
  158.4420  212.5780  151.2070 C   0  0  2  0  0  3  0  0  0  0  0  0
  163.0050  210.3740  152.5310 O   0  0  0  0  0  0  0  0  0  0  0  0
  163.5330  212.1320  147.8470 O   0  0  0  0  0  0  0  0  0  0  0  0
  162.3100  212.9050  148.2520 S   0  0  0  0  0  0  0  0  0  0  0  0
  160.0800  213.2630  146.7700 C   0  0  2  0  0  3  0  0  0  0  0  0
  161.1500  211.8300  148.9860 N   0  0  2  0  0  0  0  0  0  0  0  0
  161.3550  210.8170  155.8570 C   0  0  0  0  0  1  0  0  0  0  0  0
  160.8310  212.3280  151.3530 C   0  0  1  0  0  3  0  0  0  0  0  0
  159.4430  213.5330  148.1270 C   0  0  0  0  0  2  0  0  0  0  0  0
  161.5560  213.6280  146.8100 C   0  0  0  0  0  2  0  0  0  0  0  0
  161.4140  210.6310  154.3560 C   0  0  1  0  0  3  0  0  0  0  0  0
  161.6490  210.0050  150.5670 C   0  0  0  0  0  0  0  0  0  0  0  0
  158.8340  211.9270  152.5130 C   0  0  2  0  0  3  0  0  0  0  0  0
  159.3890  214.0970  145.7120 C   0  0  0  0  0  1  0  0  0  0  0  0
  160.8760  211.8800  153.6680 C   0  0  0  0  0  2  0  0  0  0  0  0
  160.9230  209.1280  149.7450 C   0  0  0  0  0  3  0  0  0  0  0  0
  162.2950  208.1190  151.9600 C   0  0  0  0  0  3  0  0  0  0  0  0
  161.5840  207.2540  151.1260 C   0  0  0  0  0  3  0  0  0  0  0  0
  162.8570  210.3280  153.9460 C   0  0  0  0  0  2  0  0  0  0  0  0
  159.7370  213.0150  150.5750 C   0  0  1  0  0  3  0  0  0  0  0  0
  160.2280  211.5160  152.4140 N   0  0  2  0  0  0  0  0  0  0  0  0
  159.8310  212.4680  149.1660 C   0  0  2  0  0  3  0  0  0  0  0  0
  157.6390  213.6900  151.4560 O   0  0  0  0  0  1  0  0  0  0  0  0
  161.6300  211.5000  150.3260 C   0  0  1  0  0  3  0  0  0  0  0  0
  1 21  1  0  0  0  0
  1  6  1  0  0  0  0
  4 22  1  0  0  0  0
  5 27  1  1  0  0  0
  5 17  1  0  0  0  0
  6 23  1  0  0  0  0
  7  8  2  0  0  0  0
  8  2  2  0  0  0  0
  9 18  1  6  0  0  0
  9 14  1  0  0  0  0
  9 13  1  0  0  0  0
 10  8  1  1  0  0  0
 10 26  1  0  0  0  0
 10 28  1  0  0  0  0
 12 25  1  0  0  0  0
 13 26  1  0  0  0  0
 14  8  1  0  0  0  0
 15 11  1  0  0  0  0
 16  1  2  0  0  0  0
 17  3  1  0  0  0  0
 19 15  1  0  0  0  0
 20  4  2  0  0  0  0
 20 16  1  0  0  0  0
 22 21  2  0  0  0  0
 23 15  1  0  0  0  0
 24  5  1  0  0  0  0
 24 12  1  0  0  0  0
 25 17  1  0  0  0  0
 25 19  1  0  0  0  0
 26 24  1  0  0  0  0
 28 16  1  0  0  0  0
 28 12  1  0  0  0  0
M  END
>  <MODEL>
5

>  <REMARK>
 VINA RESULT:       2.5      1.916      2.440
  Name = 
  0 active torsions:
  status: ('A' for Active; 'I' for Inactive)
                            x       y       z     vdW  Elec       q    Type
                         _______ _______ _______ _____ _____    ______ ____

>  <TORSDO>
F 0

$$$$
=
 OpenBabel11122414133D

 28 32  0  0  1  0  0  0  0  0999 V2000
  160.2080  213.5630  150.3590 C   0  0  0  0  0  0  0  0  0  0  0  0
  162.8640  210.9120  153.8910 O   0  0  0  0  0  0  0  0  0  0  0  0
  160.7030  209.8600  147.5570 C   0  0  0  0  0  1  0  0  0  0  0  0
  157.5930  212.5610  150.3760 C   0  0  0  0  0  3  0  0  0  0  0  0
  161.6230  208.8380  149.6140 C   0  0  2  0  0  3  0  0  0  0  0  0
  161.5230  214.0270  150.3170 O   0  0  0  0  0  0  0  0  0  0  0  0
  160.8350  211.9240  154.8350 O   0  0  0  0  0  0  0  0  0  0  0  0
  161.3860  210.7340  154.1030 S   0  0  0  0  0  0  0  0  0  0  0  0
  160.4240  208.2110  154.1970 C   0  0  2  0  0  3  0  0  0  0  0  0
  160.5640  210.5490  152.5770 N   0  0  2  0  0  0  0  0  0  0  0  0
  163.1220  213.7240  146.9510 C   0  0  0  0  0  1  0  0  0  0  0  0
  162.0610  210.9450  150.6920 C   0  0  1  0  0  3  0  0  0  0  0  0
  161.1600  208.0770  152.8710 C   0  0  0  0  0  2  0  0  0  0  0  0
  161.1050  209.2610  155.0630 C   0  0  0  0  0  2  0  0  0  0  0  0
  162.2470  213.2980  148.1100 C   0  0  1  0  0  3  0  0  0  0  0  0
  159.9260  212.3630  151.0340 C   0  0  0  0  0  0  0  0  0  0  0  0
  161.8100  209.9350  148.5910 C   0  0  2  0  0  3  0  0  0  0  0  0
  160.4390  206.8820  154.9220 C   0  0  0  0  0  1  0  0  0  0  0  0
  162.8280  212.0430  148.7510 C   0  0  0  0  0  2  0  0  0  0  0  0
  158.6150  211.8630  151.0270 C   0  0  0  0  0  3  0  0  0  0  0  0
  159.1820  214.2540  149.6970 C   0  0  0  0  0  3  0  0  0  0  0  0
  157.8780  213.7560  149.7120 C   0  0  0  0  0  3  0  0  0  0  0  0
  162.1410  214.4530  149.1070 C   0  0  0  0  0  2  0  0  0  0  0  0
  161.9930  209.4580  150.9360 C   0  0  1  0  0  3  0  0  0  0  0  0
  161.7530  211.2150  149.2850 N   0  0  2  0  0  0  0  0  0  0  0  0
  160.8680  209.2580  151.9290 C   0  0  2  0  0  3  0  0  0  0  0  0
  162.4830  207.7780  149.3320 O   0  0  0  0  0  1  0  0  0  0  0  0
  161.0580  211.5850  151.6720 C   0  0  1  0  0  3  0  0  0  0  0  0
  1 16  1  0  0  0  0
  2  8  2  0  0  0  0
  3 17  1  0  0  0  0
  4 20  1  0  0  0  0
  5 27  1  6  0  0  0
  5 24  1  0  0  0  0
  6  1  1  0  0  0  0
  8  7  2  0  0  0  0
  8 14  1  0  0  0  0
  9 18  1  1  0  0  0
  9 14  1  0  0  0  0
 10  8  1  1  0  0  0
 11 15  1  0  0  0  0
 12 24  1  0  0  0  0
 12 28  1  0  0  0  0
 13  9  1  0  0  0  0
 15 19  1  0  0  0  0
 15 23  1  0  0  0  0
 16 28  1  0  0  0  0
 17 25  1  0  0  0  0
 17  5  1  0  0  0  0
 19 25  1  0  0  0  0
 20 16  2  0  0  0  0
 21 22  1  0  0  0  0
 21  1  2  0  0  0  0
 22  4  2  0  0  0  0
 23  6  1  0  0  0  0
 24 26  1  0  0  0  0
 25 12  1  0  0  0  0
 26 10  1  0  0  0  0
 26 13  1  0  0  0  0
 28 10  1  0  0  0  0
M  END
>  <MODEL>
6

>  <REMARK>
 VINA RESULT:       2.7      2.663      6.514
  Name = 
  0 active torsions:
  status: ('A' for Active; 'I' for Inactive)
                            x       y       z     vdW  Elec       q    Type
                         _______ _______ _______ _____ _____    ______ ____

>  <TORSDO>
F 0

$$$$
