=
 OpenBabel11122413383D

 37 43  0  0  1  0  0  0  0  0999 V2000
  161.9080  209.8580  155.3210 C   0  0  0  0  0  2  0  0  0  0  0  0
  161.7610  206.7810  151.0050 C   0  0  0  0  0  0  0  0  0  0  0  0
  161.3600  211.0090  151.8130 C   0  0  1  0  0  3  0  0  0  0  0  0
  161.7790  210.3690  156.6810 N   0  0  0  0  0  0  0  0  0  0  0  0
  157.8080  210.8600  153.5240 C   0  0  0  0  0  2  0  0  0  0  0  0
  161.7170  209.1510  150.1230 C   0  0  1  0  0  3  0  0  0  0  0  0
  160.3340  210.8430  152.9350 C   0  0  1  0  0  3  0  0  0  0  0  0
  159.9000  211.9310  156.3690 C   0  0  0  0  0  0  0  0  0  0  0  0
  161.9350  209.6190  151.5690 C   0  0  2  0  0  3  0  0  0  0  0  0
  158.9130  211.3430  152.5720 C   0  0  2  0  0  3  0  0  0  0  0  0
  162.3350  210.1050  149.2030 N   0  0  0  0  0  2  0  0  0  0  0  0
  161.3830  211.7660  156.5660 C   0  0  0  0  0  2  0  0  0  0  0  0
  161.4230  208.6790  152.5870 N   0  0  2  0  0  0  0  0  0  0  0  0
  162.9240  206.1450  151.7420 C   0  0  0  0  0  1  0  0  0  0  0  0
  160.4100  213.1130  150.6730 C   0  0  0  0  0  2  0  0  0  0  0  0
  161.7360  211.4490  149.3140 C   0  0  0  0  0  2  0  0  0  0  0  0
  160.8230  207.4650  152.0140 C   0  0  0  0  0  2  0  0  0  0  0  0
  159.1170  210.9910  155.6130 N   0  0  0  0  0  0  0  0  0  0  0  0
  157.9080  211.4460  154.9350 C   0  0  0  0  0  2  0  0  0  0  0  0
  160.7950  211.6380  150.5190 C   0  0  1  0  0  3  0  0  0  0  0  0
  160.3740  209.3650  153.3390 C   0  0  1  0  0  3  0  0  0  0  0  0
  162.3100  207.7610  149.9550 C   0  0  0  0  0  2  0  0  0  0  0  0
  158.8640  212.8760  152.3990 C   0  0  1  0  0  3  0  0  0  0  0  0
  160.9880  205.6900  150.2920 C   0  0  0  0  0  1  0  0  0  0  0  0
  159.3800  209.5560  155.6740 C   0  0  0  0  0  2  0  0  0  0  0  0
  159.3630  212.9870  156.7970 O   0  0  0  0  0  0  0  0  0  0  0  0
  160.6130  209.1820  154.8460 C   0  0  2  0  0  3  0  0  0  0  0  0
  160.0890  213.4680  152.0010 O   0  0  0  0  0  0  0  0  0  0  0  0
  156.6030  213.9550  152.3550 C   0  0  0  0  0  3  0  0  0  0  0  0
  157.6660  213.3880  151.6440 C   0  0  0  0  0  0  0  0  0  0  0  0
  157.6120  213.3310  150.2440 C   0  0  0  0  0  3  0  0  0  0  0  0
  156.4450  213.7660  148.1780 O   0  0  0  0  0  1  0  0  0  0  0  0
  155.4340  214.3870  150.2790 C   0  0  0  0  0  3  0  0  0  0  0  0
  156.4970  213.8280  149.5640 C   0  0  0  0  0  0  0  0  0  0  0  0
  155.4880  214.4520  151.6750 C   0  0  0  0  0  3  0  0  0  0  0  0
  163.9820  211.0850  156.4420 O   0  0  0  0  0  1  0  0  0  0  0  0
  163.1110  210.3660  157.2610 C   0  0  0  0  0  2  0  0  0  0  0  0
  1  4  1  0  0  0  0
  2 14  1  0  0  0  0
  2 17  1  0  0  0  0
  3  7  1  0  0  0  0
  4 37  1  0  0  0  0
  5 19  1  0  0  0  0
  6  9  1  0  0  0  0
  7 21  1  0  0  0  0
  8 12  1  0  0  0  0
  8 26  2  0  0  0  0
  9  3  1  0  0  0  0
  9 13  1  0  0  0  0
 10  7  1  0  0  0  0
 10  5  1  0  0  0  0
 11 16  1  0  0  0  0
 11  6  1  0  0  0  0
 12  4  1  0  0  0  0
 13 21  1  0  0  0  0
 15 28  1  0  0  0  0
 16 20  1  0  0  0  0
 17 13  1  0  0  0  0
 18 25  1  0  0  0  0
 18  8  1  0  0  0  0
 19 18  1  0  0  0  0
 20 15  1  0  0  0  0
 20  3  1  0  0  0  0
 21 27  1  0  0  0  0
 22  6  1  0  0  0  0
 22  2  1  0  0  0  0
 23 10  1  0  0  0  0
 24  2  1  0  0  0  0
 27  1  1  0  0  0  0
 27 25  1  0  0  0  0
 28 23  1  0  0  0  0
 30 29  2  0  0  0  0
 30 23  1  0  0  0  0
 31 30  1  0  0  0  0
 32 34  1  0  0  0  0
 33 35  2  0  0  0  0
 34 31  2  0  0  0  0
 34 33  1  0  0  0  0
 35 29  1  0  0  0  0
 36 37  1  0  0  0  0
M  END
>  <MODEL>
1

>  <REMARK>
 VINA RESULT:      -6.5      0.000      0.000
  Name = 
  2 active torsions:
  status: ('A' for Active; 'I' for Inactive)
    1  A    between atoms: N_4  and  C_37
    2  A    between atoms: C_23  and  C_30
                            x       y       z     vdW  Elec       q    Type
                         _______ _______ _______ _____ _____    ______ ____

>  <TORSDO>
F 2

$$$$
