=
 OpenBabel11122413133D

 31 35  0  0  1  0  0  0  0  0999 V2000
  160.6240  207.7930  156.2160 C   0  0  0  0  0  0  0  0  0  0  0  0
  161.9550  208.9960  152.8570 C   0  0  2  0  0  3  0  0  0  0  0  0
  161.5100  208.0070  151.7920 C   0  0  0  0  0  0  0  0  0  0  0  0
  160.7700  205.7810  151.1500 C   0  0  0  0  0  0  0  0  0  0  0  0
  161.1320  208.8900  154.1160 C   0  0  0  0  0  0  0  0  0  0  0  0
  159.4990  208.6090  156.3710 C   0  0  0  0  0  3  0  0  0  0  0  0
  161.1430  206.6960  152.1370 C   0  0  0  0  0  3  0  0  0  0  0  0
  160.5510  211.0550  152.3640 C   0  0  0  0  0  0  0  0  0  0  0  0
  160.9350  206.8160  157.2010 N   0  0  0  0  0  1  0  0  0  0  0  0
  161.9460  209.6530  150.0480 O   0  0  0  0  0  0  0  0  0  0  0  0
  160.3950  204.4930  151.5050 O   0  0  0  0  0  1  0  0  0  0  0  0
  159.7150  210.7280  153.3080 N   0  0  0  0  0  0  0  0  0  0  0  0
  161.9430  210.4550  152.3410 C   0  0  2  0  0  3  0  0  0  0  0  0
  160.2020  212.0760  151.4220 N   0  0  0  0  0  2  0  0  0  0  0  0
  161.4380  207.9280  155.0870 C   0  0  0  0  0  3  0  0  0  0  0  0
  160.7740  206.1600  149.8060 C   0  0  0  0  0  3  0  0  0  0  0  0
  160.0100  209.7200  154.2810 C   0  0  0  0  0  0  0  0  0  0  0  0
  159.1920  209.5720  155.4050 C   0  0  0  0  0  3  0  0  0  0  0  0
  162.5950  210.5350  150.9610 C   0  0  0  0  0  2  0  0  0  0  0  0
  161.5440  208.3720  150.4290 C   0  0  0  0  0  0  0  0  0  0  0  0
  161.1610  207.4530  149.4470 C   0  0  0  0  0  3  0  0  0  0  0  0
  158.5900  213.5010  152.5510 C   0  0  0  0  0  1  0  0  0  0  0  0
  158.8720  212.6650  151.3170 C   0  0  1  0  0  3  0  0  0  0  0  0
  158.1410  212.8970  147.3060 C   0  0  0  0  0  0  0  0  0  0  0  0
  157.3980  213.3600  149.5090 O   0  0  0  0  0  0  0  0  0  0  0  0
  161.1470  213.4410  149.4110 O   0  0  0  0  0  1  0  0  0  0  0  0
  157.8500  212.5910  145.8810 C   0  0  0  0  0  1  0  0  0  0  0  0
  157.1420  213.0670  148.1640 C   0  0  0  0  0  2  0  0  0  0  0  0
  159.8170  213.3120  149.0310 C   0  0  0  0  0  0  0  0  0  0  0  0
  158.7160  213.5210  150.0530 C   0  0  0  0  0  0  0  0  0  0  0  0
  159.5310  213.0240  147.7610 C   0  0  0  0  0  3  0  0  0  0  0  0
  1  6  1  0  0  0  0
  1  9  1  0  0  0  0
  2  3  1  6  0  0  0
  2  5  1  0  0  0  0
  3  7  1  0  0  0  0
  4 11  1  0  0  0  0
  4  7  2  0  0  0  0
  5 17  2  0  0  0  0
  5 15  1  0  0  0  0
  8 12  2  0  0  0  0
 10 20  1  0  0  0  0
 10 19  1  0  0  0  0
 12 17  1  0  0  0  0
 13 19  1  6  0  0  0
 13  8  1  0  0  0  0
 13  2  1  0  0  0  0
 14  8  1  0  0  0  0
 15  1  2  0  0  0  0
 16  4  1  0  0  0  0
 17 18  1  0  0  0  0
 18  6  2  0  0  0  0
 20  3  2  0  0  0  0
 21 16  2  0  0  0  0
 21 20  1  0  0  0  0
 23 14  1  0  0  0  0
 23 22  1  1  0  0  0
 24 31  2  0  0  0  0
 24 28  1  0  0  0  0
 25 30  1  0  0  0  0
 27 24  1  0  0  0  0
 28 25  1  0  0  0  0
 29 26  1  0  0  0  0
 29 30  2  0  0  0  0
 30 23  1  0  0  0  0
 31 29  1  0  0  0  0
M  END
>  <MODEL>
1

>  <REMARK>
 VINA RESULT:      -6.5      0.000      0.000
  Name = 
  2 active torsions:
  status: ('A' for Active; 'I' for Inactive)
    1  A    between atoms: C_5  and  N_16
    2  A    between atoms: C_5  and  C_30
                            x       y       z     vdW  Elec       q    Type
                         _______ _______ _______ _____ _____    ______ ____

>  <TORSDO>
F 2

$$$$
=
 OpenBabel11122413133D

 31 35  0  0  1  0  0  0  0  0999 V2000
  160.8630  208.5730  154.9100 C   0  0  0  0  0  0  0  0  0  0  0  0
  162.2010  209.2370  151.4080 C   0  0  2  0  0  3  0  0  0  0  0  0
  161.6440  208.1710  150.4800 C   0  0  0  0  0  0  0  0  0  0  0  0
  160.6970  205.9590  150.1280 C   0  0  0  0  0  0  0  0  0  0  0  0
  161.4070  209.3580  152.6830 C   0  0  0  0  0  0  0  0  0  0  0  0
  159.8170  209.4990  154.9830 C   0  0  0  0  0  3  0  0  0  0  0  0
  161.1740  206.9490  150.9890 C   0  0  0  0  0  3  0  0  0  0  0  0
  160.9680  211.3380  150.6890 C   0  0  0  0  0  0  0  0  0  0  0  0
  161.1140  207.6980  156.0030 N   0  0  0  0  0  1  0  0  0  0  0  0
  162.1740  209.5490  148.5400 O   0  0  0  0  0  0  0  0  0  0  0  0
  160.2220  204.7610  150.6450 O   0  0  0  0  0  1  0  0  0  0  0  0
  160.1330  211.2050  151.6800 N   0  0  0  0  0  0  0  0  0  0  0  0
  162.3020  210.6180  150.7170 C   0  0  2  0  0  3  0  0  0  0  0  0
  160.6840  212.2650  149.6340 N   0  0  0  0  0  2  0  0  0  0  0  0
  161.6540  208.4980  153.7600 C   0  0  0  0  0  3  0  0  0  0  0  0
  160.6970  206.1710  148.7480 C   0  0  0  0  0  3  0  0  0  0  0  0
  160.3660  210.2990  152.7640 C   0  0  0  0  0  0  0  0  0  0  0  0
  159.5690  210.3620  153.9100 C   0  0  0  0  0  3  0  0  0  0  0  0
  162.9210  210.4730  149.3270 C   0  0  0  0  0  2  0  0  0  0  0  0
  161.6730  208.3640  149.0820 C   0  0  0  0  0  0  0  0  0  0  0  0
  161.1850  207.3710  148.2270 C   0  0  0  0  0  3  0  0  0  0  0  0
  159.6290  214.4530  149.5500 C   0  0  0  0  0  1  0  0  0  0  0  0
  159.4070  212.9540  149.4800 C   0  0  1  0  0  3  0  0  0  0  0  0
  158.6280  213.7970  145.5610 C   0  0  0  0  0  0  0  0  0  0  0  0
  159.6770  212.3660  147.1340 O   0  0  0  0  0  0  0  0  0  0  0  0
  156.5920  213.8570  148.6610 O   0  0  0  0  0  1  0  0  0  0  0  0
  158.5740  214.4140  144.2100 C   0  0  0  0  0  1  0  0  0  0  0  0
  159.6120  212.9590  145.8670 C   0  0  0  0  0  2  0  0  0  0  0  0
  157.6080  213.5530  147.7640 C   0  0  0  0  0  0  0  0  0  0  0  0
  158.7050  212.5850  148.1670 C   0  0  0  0  0  0  0  0  0  0  0  0
  157.5890  214.1040  146.5510 C   0  0  0  0  0  3  0  0  0  0  0  0
  1  6  1  0  0  0  0
  1  9  1  0  0  0  0
  2  3  1  6  0  0  0
  2  5  1  0  0  0  0
  3  7  1  0  0  0  0
  4 11  1  0  0  0  0
  4  7  2  0  0  0  0
  5 17  2  0  0  0  0
  5 15  1  0  0  0  0
  8 13  1  0  0  0  0
  8 12  2  0  0  0  0
 10 20  1  0  0  0  0
 10 19  1  0  0  0  0
 12 17  1  0  0  0  0
 13 19  1  6  0  0  0
 13  2  1  0  0  0  0
 14  8  1  0  0  0  0
 15  1  2  0  0  0  0
 16  4  1  0  0  0  0
 17 18  1  0  0  0  0
 18  6  2  0  0  0  0
 20  3  2  0  0  0  0
 21 16  2  0  0  0  0
 21 20  1  0  0  0  0
 23 22  1  6  0  0  0
 23 14  1  0  0  0  0
 24 28  1  0  0  0  0
 24 31  2  0  0  0  0
 25 30  1  0  0  0  0
 27 24  1  0  0  0  0
 28 25  1  0  0  0  0
 29 30  2  0  0  0  0
 29 26  1  0  0  0  0
 30 23  1  0  0  0  0
 31 29  1  0  0  0  0
M  END
>  <MODEL>
2

>  <REMARK>
 VINA RESULT:      -4.9      1.347      2.083
  Name = 
  2 active torsions:
  status: ('A' for Active; 'I' for Inactive)
    1  A    between atoms: C_5  and  N_16
    2  A    between atoms: C_5  and  C_30
                            x       y       z     vdW  Elec       q    Type
                         _______ _______ _______ _____ _____    ______ ____

>  <TORSDO>
F 2

$$$$
=
 OpenBabel11122413133D

 31 35  0  0  1  0  0  0  0  0999 V2000
  161.9750  213.1090  148.0570 C   0  0  0  0  0  0  0  0  0  0  0  0
  161.8560  211.1240  151.3050 C   0  0  2  0  0  3  0  0  0  0  0  0
  160.5040  211.3650  151.9560 C   0  0  0  0  0  0  0  0  0  0  0  0
  158.5140  212.7310  152.2530 C   0  0  0  0  0  0  0  0  0  0  0  0
  161.8550  211.4690  149.8380 C   0  0  0  0  0  0  0  0  0  0  0  0
  161.6940  212.1110  147.1180 C   0  0  0  0  0  3  0  0  0  0  0  0
  159.7390  212.4960  151.6260 C   0  0  0  0  0  3  0  0  0  0  0  0
  161.7050  208.7120  150.5230 C   0  0  0  0  0  0  0  0  0  0  0  0
  162.1730  214.4510  147.6310 N   0  0  0  0  0  1  0  0  0  0  0  0
  160.7960  209.3880  153.3500 O   0  0  0  0  0  0  0  0  0  0  0  0
  157.7600  213.8440  151.9080 O   0  0  0  0  0  1  0  0  0  0  0  0
  161.4240  209.1070  149.3140 N   0  0  0  0  0  0  0  0  0  0  0  0
  162.3500  209.6720  151.5040 C   0  0  2  0  0  3  0  0  0  0  0  0
  161.5260  207.3390  150.8870 N   0  0  0  0  0  2  0  0  0  0  0  0
  162.0500  212.7910  149.4170 C   0  0  0  0  0  3  0  0  0  0  0  0
  158.0460  211.8480  153.2280 C   0  0  0  0  0  3  0  0  0  0  0  0
  161.5890  210.4650  148.8910 C   0  0  0  0  0  0  0  0  0  0  0  0
  161.5020  210.7900  147.5340 C   0  0  0  0  0  3  0  0  0  0  0  0
  162.1590  209.2410  152.9580 C   0  0  0  0  0  2  0  0  0  0  0  0
  160.0400  210.4970  152.9660 C   0  0  0  0  0  0  0  0  0  0  0  0
  158.8080  210.7330  153.5840 C   0  0  0  0  0  3  0  0  0  0  0  0
  160.6860  206.9190  148.6450 C   0  0  0  0  0  1  0  0  0  0  0  0
  160.8560  206.3550  150.0420 C   0  0  1  0  0  3  0  0  0  0  0  0
  160.8620  202.3430  149.2780 C   0  0  0  0  0  0  0  0  0  0  0  0
  161.6040  204.5060  148.6490 O   0  0  0  0  0  0  0  0  0  0  0  0
  161.1410  204.3760  152.3690 O   0  0  0  0  0  1  0  0  0  0  0  0
  160.4850  200.9510  148.9210 C   0  0  0  0  0  1  0  0  0  0  0  0
  161.2430  203.1910  148.3300 C   0  0  0  0  0  2  0  0  0  0  0  0
  161.1720  204.0170  151.0280 C   0  0  0  0  0  0  0  0  0  0  0  0
  161.6190  205.0250  149.9860 C   0  0  0  0  0  0  0  0  0  0  0  0
  160.8260  202.7780  150.6800 C   0  0  0  0  0  3  0  0  0  0  0  0
  1 15  1  0  0  0  0
  2  5  1  6  0  0  0
  2 13  1  0  0  0  0
  2  3  1  0  0  0  0
  3 20  1  0  0  0  0
  4 16  2  0  0  0  0
  6 18  1  0  0  0  0
  6  1  2  0  0  0  0
  7  3  2  0  0  0  0
  7  4  1  0  0  0  0
  8 14  1  0  0  0  0
  8 13  1  0  0  0  0
  9  1  1  0  0  0  0
 11  4  1  0  0  0  0
 12  8  2  0  0  0  0
 13 19  1  1  0  0  0
 15  5  2  0  0  0  0
 16 21  1  0  0  0  0
 17 12  1  0  0  0  0
 17  5  1  0  0  0  0
 18 17  2  0  0  0  0
 19 10  1  0  0  0  0
 20 10  1  0  0  0  0
 20 21  2  0  0  0  0
 23 22  1  6  0  0  0
 23 14  1  0  0  0  0
 24 31  2  0  0  0  0
 25 30  1  0  0  0  0
 27 24  1  0  0  0  0
 28 25  1  0  0  0  0
 28 24  1  0  0  0  0
 29 26  1  0  0  0  0
 30 23  1  0  0  0  0
 30 29  2  0  0  0  0
 31 29  1  0  0  0  0
M  END
>  <MODEL>
3

>  <REMARK>
 VINA RESULT:      -4.7      2.761      7.796
  Name = 
  2 active torsions:
  status: ('A' for Active; 'I' for Inactive)
    1  A    between atoms: C_5  and  N_16
    2  A    between atoms: C_5  and  C_30
                            x       y       z     vdW  Elec       q    Type
                         _______ _______ _______ _____ _____    ______ ____

>  <TORSDO>
F 2

$$$$
=
 OpenBabel11122413133D

 31 35  0  0  1  0  0  0  0  0999 V2000
  162.4270  213.7290  146.7720 C   0  0  0  0  0  0  0  0  0  0  0  0
  160.0210  214.4000  149.6460 C   0  0  2  0  0  3  0  0  0  0  0  0
  158.6090  214.1290  149.1520 C   0  0  0  0  0  0  0  0  0  0  0  0
  157.0070  213.9280  147.3340 C   0  0  0  0  0  0  0  0  0  0  0  0
  161.0660  213.7490  148.7760 C   0  0  0  0  0  0  0  0  0  0  0  0
  162.8920  212.4510  147.0980 C   0  0  0  0  0  3  0  0  0  0  0  0
  158.3130  214.1420  147.7800 C   0  0  0  0  0  3  0  0  0  0  0  0
  160.4580  212.4780  151.2480 C   0  0  0  0  0  0  0  0  0  0  0  0
  162.8770  214.3660  145.5830 N   0  0  0  0  0  1  0  0  0  0  0  0
  157.8110  213.9710  151.4500 O   0  0  0  0  0  0  0  0  0  0  0  0
  156.7300  213.9290  145.9740 O   0  0  0  0  0  1  0  0  0  0  0  0
  161.1230  211.8420  150.3260 N   0  0  0  0  0  0  0  0  0  0  0  0
  160.2180  213.9700  151.1190 C   0  0  2  0  0  3  0  0  0  0  0  0
  160.0650  211.7970  152.4450 N   0  0  0  0  0  2  0  0  0  0  0  0
  161.5100  214.3760  147.6060 C   0  0  0  0  0  3  0  0  0  0  0  0
  155.9790  213.7140  148.2540 C   0  0  0  0  0  3  0  0  0  0  0  0
  161.5470  212.4720  149.1120 C   0  0  0  0  0  0  0  0  0  0  0  0
  162.4530  211.8230  148.2680 C   0  0  0  0  0  3  0  0  0  0  0  0
  159.0470  214.4520  151.9740 C   0  0  0  0  0  2  0  0  0  0  0  0
  157.5590  213.9460  150.0770 C   0  0  0  0  0  0  0  0  0  0  0  0
  156.2560  213.7240  149.6230 C   0  0  0  0  0  3  0  0  0  0  0  0
  161.0240  209.7650  151.5190 C   0  0  0  0  0  1  0  0  0  0  0  0
  160.1890  210.3560  152.6380 C   0  0  1  0  0  3  0  0  0  0  0  0
  160.2440  207.9790  155.9590 C   0  0  0  0  0  0  0  0  0  0  0  0
  161.3350  208.6720  153.9710 O   0  0  0  0  0  0  0  0  0  0  0  0
  159.3000  211.5120  155.3370 O   0  0  0  0  0  1  0  0  0  0  0  0
  159.9630  206.9410  156.9840 C   0  0  0  0  0  1  0  0  0  0  0  0
  161.0560  207.7050  154.9440 C   0  0  0  0  0  2  0  0  0  0  0  0
  159.8830  210.2620  155.1760 C   0  0  0  0  0  0  0  0  0  0  0  0
  160.8070  210.0060  153.9990 C   0  0  0  0  0  0  0  0  0  0  0  0
  159.6350  209.3100  156.0740 C   0  0  0  0  0  3  0  0  0  0  0  0
  1  6  2  0  0  0  0
  1 15  1  0  0  0  0
  2  5  1  6  0  0  0
  2 13  1  0  0  0  0
  3  2  1  0  0  0  0
  3 20  1  0  0  0  0
  4  7  1  0  0  0  0
  4 16  2  0  0  0  0
  5 17  1  0  0  0  0
  6 18  1  0  0  0  0
  7  3  2  0  0  0  0
  8 14  1  0  0  0  0
  9  1  1  0  0  0  0
 10 19  1  0  0  0  0
 11  4  1  0  0  0  0
 12  8  2  0  0  0  0
 13  8  1  0  0  0  0
 13 19  1  1  0  0  0
 14 23  1  0  0  0  0
 15  5  2  0  0  0  0
 16 21  1  0  0  0  0
 17 12  1  0  0  0  0
 18 17  2  0  0  0  0
 20 10  1  0  0  0  0
 21 20  2  0  0  0  0
 23 22  1  6  0  0  0
 23 30  1  0  0  0  0
 24 31  2  0  0  0  0
 24 27  1  0  0  0  0
 25 30  1  0  0  0  0
 25 28  1  0  0  0  0
 28 24  1  0  0  0  0
 29 26  1  0  0  0  0
 29 31  1  0  0  0  0
 30 29  2  0  0  0  0
M  END
>  <MODEL>
4

>  <REMARK>
 VINA RESULT:      -4.7      2.543      8.098
  Name = 
  2 active torsions:
  status: ('A' for Active; 'I' for Inactive)
    1  A    between atoms: C_5  and  N_16
    2  A    between atoms: C_5  and  C_30
                            x       y       z     vdW  Elec       q    Type
                         _______ _______ _______ _____ _____    ______ ____

>  <TORSDO>
F 2

$$$$
=
 OpenBabel11122413133D

 31 35  0  0  1  0  0  0  0  0999 V2000
  160.6880  207.1970  156.2960 C   0  0  0  0  0  0  0  0  0  0  0  0
  161.9800  208.7750  153.0800 C   0  0  2  0  0  3  0  0  0  0  0  0
  161.5450  207.9000  151.9170 C   0  0  0  0  0  0  0  0  0  0  0  0
  160.8370  205.7430  151.0430 C   0  0  0  0  0  0  0  0  0  0  0  0
  161.1660  208.5210  154.3240 C   0  0  0  0  0  0  0  0  0  0  0  0
  159.5500  207.9730  156.5420 C   0  0  0  0  0  3  0  0  0  0  0  0
  161.2010  206.5530  152.1200 C   0  0  0  0  0  3  0  0  0  0  0  0
  160.5400  210.8510  152.8170 C   0  0  0  0  0  0  0  0  0  0  0  0
  161.0190  206.1250  157.1690 N   0  0  0  0  0  1  0  0  0  0  0  0
  161.9450  209.7300  150.3590 O   0  0  0  0  0  0  0  0  0  0  0  0
  160.4860  204.4180  151.2590 O   0  0  0  0  0  1  0  0  0  0  0  0
  159.7150  210.4120  153.7240 N   0  0  0  0  0  0  0  0  0  0  0  0
  161.9420  210.2810  152.7240 C   0  0  2  0  0  3  0  0  0  0  0  0
  160.1700  211.9620  151.9910 N   0  0  0  0  0  2  0  0  0  0  0  0
  161.4930  207.4660  155.1850 C   0  0  0  0  0  3  0  0  0  0  0  0
  160.8270  206.2650  149.7470 C   0  0  0  0  0  3  0  0  0  0  0  0
  160.0320  209.3100  154.5820 C   0  0  0  0  0  0  0  0  0  0  0  0
  159.2230  209.0290  155.6860 C   0  0  0  0  0  3  0  0  0  0  0  0
  162.5840  210.5200  151.3590 C   0  0  0  0  0  2  0  0  0  0  0  0
  161.5650  208.4090  150.6010 C   0  0  0  0  0  0  0  0  0  0  0  0
  161.1920  207.5950  149.5280 C   0  0  0  0  0  3  0  0  0  0  0  0
  157.8180  211.4920  152.3860 C   0  0  0  0  0  1  0  0  0  0  0  0
  158.8290  212.5370  151.9560 C   0  0  1  0  0  3  0  0  0  0  0  0
  157.7610  214.2130  155.5250 C   0  0  0  0  0  0  0  0  0  0  0  0
  159.5040  213.6190  154.0290 O   0  0  0  0  0  0  0  0  0  0  0  0
  156.3950  214.4000  152.0810 O   0  0  0  0  0  1  0  0  0  0  0  0
  157.2690  214.4530  156.9060 C   0  0  0  0  0  1  0  0  0  0  0  0
  159.0220  213.8470  155.3240 C   0  0  0  0  0  2  0  0  0  0  0  0
  157.2800  214.1980  153.1320 C   0  0  0  0  0  0  0  0  0  0  0  0
  158.7110  213.7830  152.8450 C   0  0  0  0  0  0  0  0  0  0  0  0
  156.8580  214.3930  154.3810 C   0  0  0  0  0  3  0  0  0  0  0  0
  1  6  1  0  0  0  0
  1  9  1  0  0  0  0
  2  3  1  6  0  0  0
  2  5  1  0  0  0  0
  3  7  1  0  0  0  0
  4 11  1  0  0  0  0
  4  7  2  0  0  0  0
  5 17  2  0  0  0  0
  5 15  1  0  0  0  0
  8 12  2  0  0  0  0
 10 20  1  0  0  0  0
 10 19  1  0  0  0  0
 12 17  1  0  0  0  0
 13 19  1  6  0  0  0
 13  8  1  0  0  0  0
 13  2  1  0  0  0  0
 14  8  1  0  0  0  0
 15  1  2  0  0  0  0
 16  4  1  0  0  0  0
 17 18  1  0  0  0  0
 18  6  2  0  0  0  0
 20  3  2  0  0  0  0
 21 16  2  0  0  0  0
 21 20  1  0  0  0  0
 23 14  1  0  0  0  0
 23 22  1  1  0  0  0
 23 30  1  0  0  0  0
 24 27  1  0  0  0  0
 25 28  1  0  0  0  0
 26 29  1  0  0  0  0
 28 24  1  0  0  0  0
 29 31  1  0  0  0  0
 30 29  2  0  0  0  0
 30 25  1  0  0  0  0
 31 24  2  0  0  0  0
M  END
>  <MODEL>
5

>  <REMARK>
 VINA RESULT:      -4.0      2.119      3.590
  Name = 
  2 active torsions:
  status: ('A' for Active; 'I' for Inactive)
    1  A    between atoms: C_5  and  N_16
    2  A    between atoms: C_5  and  C_30
                            x       y       z     vdW  Elec       q    Type
                         _______ _______ _______ _____ _____    ______ ____

>  <TORSDO>
F 2

$$$$
=
 OpenBabel11122413133D

 31 35  0  0  1  0  0  0  0  0999 V2000
  162.1230  212.2880  148.5360 C   0  0  0  0  0  0  0  0  0  0  0  0
  162.0630  210.0450  151.6120 C   0  0  2  0  0  3  0  0  0  0  0  0
  160.7750  210.3190  152.3700 C   0  0  0  0  0  0  0  0  0  0  0  0
  158.9110  211.7840  152.9120 C   0  0  0  0  0  0  0  0  0  0  0  0
  161.9950  210.5140  150.1800 C   0  0  0  0  0  0  0  0  0  0  0  0
  161.7130  211.3960  147.5390 C   0  0  0  0  0  3  0  0  0  0  0  0
  160.0750  211.5220  152.1860 C   0  0  0  0  0  3  0  0  0  0  0  0
  161.6900  207.7250  150.6480 C   0  0  0  0  0  0  0  0  0  0  0  0
  162.3910  213.6460  148.2070 N   0  0  0  0  0  1  0  0  0  0  0  0
  161.0090  208.2140  153.5750 O   0  0  0  0  0  0  0  0  0  0  0  0
  158.2200  212.9710  152.7100 O   0  0  0  0  0  1  0  0  0  0  0  0
  161.3630  208.2390  149.4970 N   0  0  0  0  0  0  0  0  0  0  0  0
  162.4620  208.5510  151.6580 C   0  0  2  0  0  3  0  0  0  0  0  0
  161.4340  206.3400  150.9100 N   0  0  0  0  0  2  0  0  0  0  0  0
  162.2590  211.8500  149.8560 C   0  0  0  0  0  3  0  0  0  0  0  0
  158.4420  210.8530  153.8420 C   0  0  0  0  0  3  0  0  0  0  0  0
  161.5990  209.6150  149.1760 C   0  0  0  0  0  0  0  0  0  0  0  0
  161.4520  210.0600  147.8590 C   0  0  0  0  0  3  0  0  0  0  0  0
  162.3310  208.0100  153.0810 C   0  0  0  0  0  2  0  0  0  0  0  0
  160.3130  209.4000  153.3350 C   0  0  0  0  0  0  0  0  0  0  0  0
  159.1430  209.6640  154.0530 C   0  0  0  0  0  3  0  0  0  0  0  0
  160.0980  206.2960  148.8800 C   0  0  0  0  0  1  0  0  0  0  0  0
  160.6440  205.4800  150.0360 C   0  0  1  0  0  3  0  0  0  0  0  0
  160.9840  202.3380  147.4470 C   0  0  0  0  0  0  0  0  0  0  0  0
  161.7540  204.4800  148.1140 O   0  0  0  0  0  0  0  0  0  0  0  0
  160.5010  202.6110  151.1160 O   0  0  0  0  0  1  0  0  0  0  0  0
  160.7530  201.3190  146.3910 C   0  0  0  0  0  1  0  0  0  0  0  0
  161.5260  203.5100  147.1310 C   0  0  0  0  0  2  0  0  0  0  0  0
  160.8370  202.9390  149.8090 C   0  0  0  0  0  0  0  0  0  0  0  0
  161.4570  204.2910  149.5050 C   0  0  0  0  0  0  0  0  0  0  0  0
  160.6270  202.0470  148.8410 C   0  0  0  0  0  3  0  0  0  0  0  0
  1 15  1  0  0  0  0
  2  5  1  6  0  0  0
  2 13  1  0  0  0  0
  2  3  1  0  0  0  0
  3 20  1  0  0  0  0
  4 16  2  0  0  0  0
  6 18  1  0  0  0  0
  6  1  2  0  0  0  0
  7  3  2  0  0  0  0
  7  4  1  0  0  0  0
  8 14  1  0  0  0  0
  8 13  1  0  0  0  0
  9  1  1  0  0  0  0
 11  4  1  0  0  0  0
 12  8  2  0  0  0  0
 13 19  1  1  0  0  0
 15  5  2  0  0  0  0
 16 21  1  0  0  0  0
 17 12  1  0  0  0  0
 17  5  1  0  0  0  0
 18 17  2  0  0  0  0
 19 10  1  0  0  0  0
 20 10  1  0  0  0  0
 20 21  2  0  0  0  0
 23 22  1  6  0  0  0
 23 14  1  0  0  0  0
 24 31  2  0  0  0  0
 25 30  1  0  0  0  0
 27 24  1  0  0  0  0
 28 24  1  0  0  0  0
 28 25  1  0  0  0  0
 29 26  1  0  0  0  0
 30 29  2  0  0  0  0
 30 23  1  0  0  0  0
 31 29  1  0  0  0  0
M  END
>  <MODEL>
6

>  <REMARK>
 VINA RESULT:      -4.0      2.887      7.693
  Name = 
  2 active torsions:
  status: ('A' for Active; 'I' for Inactive)
    1  A    between atoms: C_5  and  N_16
    2  A    between atoms: C_5  and  C_30
                            x       y       z     vdW  Elec       q    Type
                         _______ _______ _______ _____ _____    ______ ____

>  <TORSDO>
F 2

$$$$
