=
 OpenBabel11122413263D

 31 35  0  0  1  0  0  0  0  0999 V2000
  160.9940  201.4730  148.8780 C   0  0  0  0  0  0  0  0  0  0  0  0
  162.0940  205.1170  148.7170 C   0  0  2  0  0  3  0  0  0  0  0  0
  161.6390  205.4560  147.3310 C   0  0  0  0  0  0  0  0  0  0  0  0
  161.8490  205.2290  144.9340 C   0  0  0  0  0  0  0  0  0  0  0  0
  161.4990  203.8230  149.2290 C   0  0  0  0  0  0  0  0  0  0  0  0
  160.5500  201.3750  150.2020 C   0  0  0  0  0  3  0  0  0  0  0  0
  162.3480  204.9980  146.2150 C   0  0  0  0  0  3  0  0  0  0  0  0
  162.1240  205.8640  151.0540 N   0  0  0  0  0  0  0  0  0  0  0  0
  160.9720  200.3840  148.0600 F   0  0  0  0  0  0  0  0  0  0  0  0
  159.7570  206.6320  148.2660 O   0  0  0  0  0  0  0  0  0  0  0  0
  162.5690  204.7620  143.7960 N   0  0  0  0  0  1  0  0  0  0  0  0
  161.1290  204.8870  151.5120 C   0  0  0  0  0  2  0  0  0  0  0  0
  161.8160  206.2940  149.6710 C   0  0  2  0  0  3  0  0  0  0  0  0
  161.4730  202.6870  148.3970 C   0  0  0  0  0  3  0  0  0  0  0  0
  160.6290  205.8920  144.7590 C   0  0  0  0  0  3  0  0  0  0  0  0
  161.0880  203.7030  150.5800 C   0  0  0  0  0  0  0  0  0  0  0  0
  160.5970  202.4890  151.0520 C   0  0  0  0  0  3  0  0  0  0  0  0
  160.4030  206.9190  149.5210 C   0  0  0  0  0  2  0  0  0  0  0  0
  160.4380  206.1500  147.1560 C   0  0  0  0  0  0  0  0  0  0  0  0
  159.9210  206.3510  145.8700 C   0  0  0  0  0  3  0  0  0  0  0  0
  162.0950  207.0060  151.9530 C   0  0  0  0  0  2  0  0  0  0  0  0
  162.1510  206.2360  154.2200 O   0  0  0  0  0  1  0  0  0  0  0  0
  161.2870  206.6570  153.2010 C   0  0  1  0  0  3  0  0  0  0  0  0
  161.7560  209.8180  155.2970 C   0  0  0  0  0  0  0  0  0  0  0  0
  160.7930  209.1480  153.0890 C   0  0  0  0  0  2  0  0  0  0  0  0
  159.6040  207.0820  155.8250 O   0  0  0  0  0  0  0  0  0  0  0  0
  162.4510  210.8360  156.1010 C   0  0  0  0  0  1  0  0  0  0  0  0
  161.9940  209.7580  153.8170 C   0  0  0  0  0  2  0  0  0  0  0  0
  160.3040  207.9050  155.1890 C   0  0  0  0  0  0  0  0  0  0  0  0
  160.3930  207.8010  153.6940 C   0  0  2  0  0  3  0  0  0  0  0  0
  161.0040  208.9410  155.8940 N   0  0  0  0  0  0  0  0  0  0  0  0
  1  6  1  0  0  0  0
  2  3  1  6  0  0  0
  2  5  1  0  0  0  0
  2 13  1  0  0  0  0
  4  7  1  0  0  0  0
  5 16  2  0  0  0  0
  6 17  2  0  0  0  0
  7  3  2  0  0  0  0
  8 12  1  0  0  0  0
  8 21  1  0  0  0  0
  9  1  1  0  0  0  0
 10 18  1  0  0  0  0
 11  4  1  0  0  0  0
 13 18  1  1  0  0  0
 13  8  1  0  0  0  0
 14  1  2  0  0  0  0
 14  5  1  0  0  0  0
 15  4  2  0  0  0  0
 15 20  1  0  0  0  0
 16 17  1  0  0  0  0
 16 12  1  0  0  0  0
 19  3  1  0  0  0  0
 19 10  1  0  0  0  0
 20 19  2  0  0  0  0
 21 23  1  0  0  0  0
 23 22  1  1  0  0  0
 24 31  2  0  0  0  0
 24 27  1  0  0  0  0
 25 30  1  0  0  0  0
 25 28  1  0  0  0  0
 28 24  1  0  0  0  0
 29 26  2  0  0  0  0
 29 31  1  0  0  0  0
 30 23  1  1  0  0  0
 30 29  1  0  0  0  0
M  END
>  <MODEL>
1

>  <REMARK>
 VINA RESULT:      -6.8      0.000      0.000
  Name = 
  3 active torsions:
  status: ('A' for Active; 'I' for Inactive)
    1  A    between atoms: C_5  and  C_16
    2  A    between atoms: C_5  and  C_30
    3  A    between atoms: N_10  and  C_16
                            x       y       z     vdW  Elec       q    Type
                         _______ _______ _______ _____ _____    ______ ____

>  <TORSDO>
F 3

$$$$
=
 OpenBabel11122413263D

 31 35  0  0  1  0  0  0  0  0999 V2000
  161.7800  206.9030  147.5750 C   0  0  0  0  0  0  0  0  0  0  0  0
  160.5150  205.9160  151.0300 C   0  0  2  0  0  3  0  0  0  0  0  0
  160.7410  204.4370  150.9680 C   0  0  0  0  0  0  0  0  0  0  0  0
  160.1830  202.2590  150.0800 C   0  0  0  0  0  0  0  0  0  0  0  0
  161.2340  206.6660  149.9300 C   0  0  0  0  0  0  0  0  0  0  0  0
  162.4210  208.1170  147.8510 C   0  0  0  0  0  3  0  0  0  0  0  0
  159.8930  203.6160  150.2170 C   0  0  0  0  0  3  0  0  0  0  0  0
  160.8030  207.9310  152.4010 N   0  0  0  0  0  0  0  0  0  0  0  0
  161.7250  206.4250  146.3010 F   0  0  0  0  0  0  0  0  0  0  0  0
  162.6900  204.7050  152.3560 O   0  0  0  0  0  0  0  0  0  0  0  0
  159.3210  201.4210  149.3150 N   0  0  0  0  0  1  0  0  0  0  0  0
  161.8970  208.4800  151.5890 C   0  0  0  0  0  2  0  0  0  0  0  0
  160.8820  206.4520  152.4270 C   0  0  2  0  0  3  0  0  0  0  0  0
  161.1830  206.1870  148.6080 C   0  0  0  0  0  3  0  0  0  0  0  0
  161.3340  201.7200  150.6670 C   0  0  0  0  0  3  0  0  0  0  0  0
  161.8480  207.9170  150.1930 C   0  0  0  0  0  0  0  0  0  0  0  0
  162.4550  208.6230  149.1580 C   0  0  0  0  0  3  0  0  0  0  0  0
  162.2280  205.9170  152.9840 C   0  0  0  0  0  2  0  0  0  0  0  0
  161.8720  203.8910  151.5840 C   0  0  0  0  0  0  0  0  0  0  0  0
  162.1810  202.5360  151.4170 C   0  0  0  0  0  3  0  0  0  0  0  0
  160.9190  208.4630  153.7490 C   0  0  0  0  0  2  0  0  0  0  0  0
  159.6510  210.1540  152.6240 O   0  0  0  0  0  1  0  0  0  0  0  0
  160.3980  209.8980  153.7800 C   0  0  1  0  0  3  0  0  0  0  0  0
  159.7690  212.9920  155.9340 C   0  0  0  0  0  0  0  0  0  0  0  0
  158.4570  211.2270  154.7450 C   0  0  0  0  0  2  0  0  0  0  0  0
  161.0710  209.8540  156.8530 O   0  0  0  0  0  0  0  0  0  0  0  0
  159.8640  214.3920  156.3800 C   0  0  0  0  0  1  0  0  0  0  0  0
  158.9830  212.6640  154.6990 C   0  0  0  0  0  2  0  0  0  0  0  0
  160.4040  210.6890  156.1990 C   0  0  0  0  0  0  0  0  0  0  0  0
  159.5780  210.2260  155.0330 C   0  0  2  0  0  3  0  0  0  0  0  0
  160.4270  212.0740  156.5770 N   0  0  0  0  0  0  0  0  0  0  0  0
  1  6  2  0  0  0  0
  1 14  1  0  0  0  0
  2  5  1  6  0  0  0
  2 13  1  0  0  0  0
  3  2  1  0  0  0  0
  3 19  1  0  0  0  0
  4  7  1  0  0  0  0
  4 15  2  0  0  0  0
  5 16  1  0  0  0  0
  6 17  1  0  0  0  0
  7  3  2  0  0  0  0
  8 13  1  0  0  0  0
  8 21  1  0  0  0  0
  9  1  1  0  0  0  0
 10 18  1  0  0  0  0
 11  4  1  0  0  0  0
 12  8  1  0  0  0  0
 13 18  1  6  0  0  0
 14  5  2  0  0  0  0
 15 20  1  0  0  0  0
 16 12  1  0  0  0  0
 17 16  2  0  0  0  0
 19 10  1  0  0  0  0
 20 19  2  0  0  0  0
 21 23  1  0  0  0  0
 23 22  1  6  0  0  0
 24 27  1  0  0  0  0
 24 31  2  0  0  0  0
 25 30  1  0  0  0  0
 28 25  1  0  0  0  0
 28 24  1  0  0  0  0
 29 31  1  0  0  0  0
 29 26  2  0  0  0  0
 30 23  1  6  0  0  0
 30 29  1  0  0  0  0
M  END
>  <MODEL>
2

>  <REMARK>
 VINA RESULT:      -6.7      2.730      4.750
  Name = 
  3 active torsions:
  status: ('A' for Active; 'I' for Inactive)
    1  A    between atoms: C_5  and  C_16
    2  A    between atoms: C_5  and  C_30
    3  A    between atoms: N_10  and  C_16
                            x       y       z     vdW  Elec       q    Type
                         _______ _______ _______ _____ _____    ______ ____

>  <TORSDO>
F 3

$$$$
=
 OpenBabel11122413263D

 31 35  0  0  1  0  0  0  0  0999 V2000
  160.5330  211.9200  156.2610 C   0  0  0  0  0  0  0  0  0  0  0  0
  159.7780  210.8010  152.6990 C   0  0  2  0  0  3  0  0  0  0  0  0
  159.0720  212.0230  152.1960 C   0  0  0  0  0  0  0  0  0  0  0  0
  157.1550  213.4950  152.1990 C   0  0  0  0  0  0  0  0  0  0  0  0
  160.5190  211.0450  153.9950 C   0  0  0  0  0  0  0  0  0  0  0  0
  161.8060  211.3730  156.4600 C   0  0  0  0  0  3  0  0  0  0  0  0
  157.7570  212.2990  152.5870 C   0  0  0  0  0  3  0  0  0  0  0  0
  161.5030  209.1320  152.1890 N   0  0  0  0  0  0  0  0  0  0  0  0
  159.9130  212.6070  157.2610 F   0  0  0  0  0  0  0  0  0  0  0  0
  161.0650  212.6470  150.9980 O   0  0  0  0  0  0  0  0  0  0  0  0
  155.8170  213.7790  152.5970 N   0  0  0  0  0  1  0  0  0  0  0  0
  162.4840  209.6700  153.1400 C   0  0  0  0  0  2  0  0  0  0  0  0
  160.7030  210.2340  151.6060 C   0  0  2  0  0  3  0  0  0  0  0  0
  159.8910  211.7500  155.0390 C   0  0  0  0  0  3  0  0  0  0  0  0
  157.8690  214.4330  151.4430 C   0  0  0  0  0  3  0  0  0  0  0  0
  161.7900  210.4580  154.2200 C   0  0  0  0  0  0  0  0  0  0  0  0
  162.4340  210.6430  155.4410 C   0  0  0  0  0  3  0  0  0  0  0  0
  161.5630  211.3010  150.8770 C   0  0  0  0  0  2  0  0  0  0  0  0
  159.7730  212.9430  151.4100 C   0  0  0  0  0  0  0  0  0  0  0  0
  159.1790  214.1590  151.0510 C   0  0  0  0  0  3  0  0  0  0  0  0
  162.2190  208.4230  151.1410 C   0  0  0  0  0  2  0  0  0  0  0  0
  160.7740  206.7250  152.0150 O   0  0  0  0  0  1  0  0  0  0  0  0
  161.5780  207.0550  150.9170 C   0  0  1  0  0  3  0  0  0  0  0  0
  162.0640  205.4420  147.4860 C   0  0  0  0  0  0  0  0  0  0  0  0
  160.3480  205.5230  149.3030 C   0  0  0  0  0  2  0  0  0  0  0  0
  161.5020  208.8180  148.3120 O   0  0  0  0  0  0  0  0  0  0  0  0
  162.7180  204.6700  146.4170 C   0  0  0  0  0  1  0  0  0  0  0  0
  161.4900  204.7220  148.6700 C   0  0  0  0  0  2  0  0  0  0  0  0
  161.4610  207.5700  148.4280 C   0  0  0  0  0  0  0  0  0  0  0  0
  160.7740  206.9590  149.6150 C   0  0  2  0  0  3  0  0  0  0  0  0
  162.0600  206.7410  147.4210 N   0  0  0  0  0  0  0  0  0  0  0  0
  1  6  1  0  0  0  0
  1  9  1  0  0  0  0
  2  3  1  6  0  0  0
  2  5  1  0  0  0  0
  3  7  1  0  0  0  0
  4  7  2  0  0  0  0
  4 11  1  0  0  0  0
  5 16  2  0  0  0  0
  5 14  1  0  0  0  0
  8 12  1  0  0  0  0
 10 19  1  0  0  0  0
 12 16  1  0  0  0  0
 13 18  1  1  0  0  0
 13  8  1  0  0  0  0
 13  2  1  0  0  0  0
 14  1  2  0  0  0  0
 15  4  1  0  0  0  0
 16 17  1  0  0  0  0
 17  6  2  0  0  0  0
 18 10  1  0  0  0  0
 19  3  2  0  0  0  0
 20 19  1  0  0  0  0
 20 15  2  0  0  0  0
 21  8  1  0  0  0  0
 23 21  1  0  0  0  0
 23 22  1  1  0  0  0
 24 28  1  0  0  0  0
 25 30  1  0  0  0  0
 26 29  2  0  0  0  0
 27 24  1  0  0  0  0
 28 25  1  0  0  0  0
 29 30  1  0  0  0  0
 30 23  1  1  0  0  0
 31 24  2  0  0  0  0
 31 29  1  0  0  0  0
M  END
>  <MODEL>
3

>  <REMARK>
 VINA RESULT:      -5.8      4.335      8.801
  Name = 
  3 active torsions:
  status: ('A' for Active; 'I' for Inactive)
    1  A    between atoms: C_5  and  C_16
    2  A    between atoms: C_5  and  C_30
    3  A    between atoms: N_10  and  C_16
                            x       y       z     vdW  Elec       q    Type
                         _______ _______ _______ _____ _____    ______ ____

>  <TORSDO>
F 3

$$$$
=
 OpenBabel11122413263D

 31 35  0  0  1  0  0  0  0  0999 V2000
  161.8390  206.5510  151.3780 C   0  0  0  0  0  0  0  0  0  0  0  0
  160.1890  209.3150  153.4150 C   0  0  2  0  0  3  0  0  0  0  0  0
  160.5760  208.8760  154.7940 C   0  0  0  0  0  0  0  0  0  0  0  0
  160.3870  207.3270  156.6390 C   0  0  0  0  0  0  0  0  0  0  0  0
  160.9800  208.6130  152.3330 C   0  0  0  0  0  0  0  0  0  0  0  0
  162.3020  207.2650  150.2650 C   0  0  0  0  0  3  0  0  0  0  0  0
  159.9390  207.7910  155.4030 C   0  0  0  0  0  3  0  0  0  0  0  0
  160.0600  211.2290  151.8840 N   0  0  0  0  0  0  0  0  0  0  0  0
  162.0230  205.2040  151.4590 F   0  0  0  0  0  0  0  0  0  0  0  0
  162.2610  210.5970  154.8380 O   0  0  0  0  0  0  0  0  0  0  0  0
  159.7400  206.2200  157.2600 N   0  0  0  0  0  1  0  0  0  0  0  0
  161.1980  210.8060  151.0570 C   0  0  0  0  0  2  0  0  0  0  0  0
  160.2890  210.8480  153.2970 C   0  0  2  0  0  3  0  0  0  0  0  0
  161.1760  207.2210  152.4010 C   0  0  0  0  0  3  0  0  0  0  0  0
  161.4890  207.9260  157.2610 C   0  0  0  0  0  3  0  0  0  0  0  0
  161.4140  209.3200  151.1830 C   0  0  0  0  0  0  0  0  0  0  0  0
  162.0900  208.6470  150.1690 C   0  0  0  0  0  3  0  0  0  0  0  0
  161.5870  211.4530  153.8950 C   0  0  0  0  0  2  0  0  0  0  0  0
  161.6550  209.4980  155.4320 C   0  0  0  0  0  0  0  0  0  0  0  0
  162.1260  209.0090  156.6560 C   0  0  0  0  0  3  0  0  0  0  0  0
  159.9200  212.6710  151.7690 C   0  0  0  0  0  2  0  0  0  0  0  0
  157.7060  213.4190  152.2960 O   0  0  0  0  0  1  0  0  0  0  0  0
  158.5290  213.0110  151.2390 C   0  0  1  0  0  3  0  0  0  0  0  0
  157.7540  213.0820  147.4970 C   0  0  0  0  0  0  0  0  0  0  0  0
  157.1360  214.3320  149.5720 C   0  0  0  0  0  2  0  0  0  0  0  0
  160.7220  213.9410  149.1840 O   0  0  0  0  0  0  0  0  0  0  0  0
  157.3520  212.5810  146.1720 C   0  0  0  0  0  1  0  0  0  0  0  0
  156.7150  213.2580  148.5650 C   0  0  0  0  0  2  0  0  0  0  0  0
  159.4930  213.7670  149.0080 C   0  0  0  0  0  0  0  0  0  0  0  0
  158.5370  214.0660  150.1270 C   0  0  2  0  0  3  0  0  0  0  0  0
  159.0130  213.2950  147.7400 N   0  0  0  0  0  0  0  0  0  0  0  0
  1  9  1  0  0  0  0
  1 14  1  0  0  0  0
  2  5  1  6  0  0  0
  2  3  1  0  0  0  0
  3  7  2  0  0  0  0
  3 19  1  0  0  0  0
  4 11  1  0  0  0  0
  4 15  2  0  0  0  0
  5 14  2  0  0  0  0
  6  1  2  0  0  0  0
  7  4  1  0  0  0  0
  8 13  1  0  0  0  0
 10 19  1  0  0  0  0
 12 16  1  0  0  0  0
 12  8  1  0  0  0  0
 13  2  1  0  0  0  0
 13 18  1  6  0  0  0
 16  5  1  0  0  0  0
 17  6  1  0  0  0  0
 17 16  2  0  0  0  0
 18 10  1  0  0  0  0
 19 20  2  0  0  0  0
 20 15  1  0  0  0  0
 21  8  1  0  0  0  0
 23 21  1  0  0  0  0
 23 22  1  1  0  0  0
 24 31  2  0  0  0  0
 24 28  1  0  0  0  0
 25 30  1  0  0  0  0
 27 24  1  0  0  0  0
 28 25  1  0  0  0  0
 29 26  2  0  0  0  0
 29 30  1  0  0  0  0
 30 23  1  1  0  0  0
 31 29  1  0  0  0  0
M  END
>  <MODEL>
4

>  <REMARK>
 VINA RESULT:      -5.6      4.519      8.396
  Name = 
  3 active torsions:
  status: ('A' for Active; 'I' for Inactive)
    1  A    between atoms: C_5  and  C_16
    2  A    between atoms: C_5  and  C_30
    3  A    between atoms: N_10  and  C_16
                            x       y       z     vdW  Elec       q    Type
                         _______ _______ _______ _____ _____    ______ ____

>  <TORSDO>
F 3

$$$$
=
 OpenBabel11122413263D

 31 35  0  0  1  0  0  0  0  0999 V2000
  160.8740  202.3490  150.1970 C   0  0  0  0  0  0  0  0  0  0  0  0
  162.3310  205.6920  149.0940 C   0  0  2  0  0  3  0  0  0  0  0  0
  161.9920  205.6450  147.6350 C   0  0  0  0  0  0  0  0  0  0  0  0
  162.3160  204.7130  145.4300 C   0  0  0  0  0  0  0  0  0  0  0  0
  161.5850  204.6530  149.9030 C   0  0  0  0  0  0  0  0  0  0  0  0
  160.3480  202.6760  151.4520 C   0  0  0  0  0  3  0  0  0  0  0  0
  162.7160  204.8280  146.7600 C   0  0  0  0  0  3  0  0  0  0  0  0
  162.3010  207.0840  151.1140 N   0  0  0  0  0  0  0  0  0  0  0  0
  160.7930  201.0740  149.7260 F   0  0  0  0  0  0  0  0  0  0  0  0
  160.1830  207.1830  148.0360 O   0  0  0  0  0  0  0  0  0  0  0  0
  163.0510  203.8800  144.5370 N   0  0  0  0  0  1  0  0  0  0  0  0
  161.1900  206.3630  151.7480 C   0  0  0  0  0  2  0  0  0  0  0  0
  162.1160  207.1140  149.6450 C   0  0  2  0  0  3  0  0  0  0  0  0
  161.4960  203.3300  149.4310 C   0  0  0  0  0  3  0  0  0  0  0  0
  161.1780  205.3880  144.9720 C   0  0  0  0  0  3  0  0  0  0  0  0
  161.0870  204.9660  151.1930 C   0  0  0  0  0  0  0  0  0  0  0  0
  160.4540  203.9830  151.9490 C   0  0  0  0  0  3  0  0  0  0  0  0
  160.7810  207.7750  149.2060 C   0  0  0  0  0  2  0  0  0  0  0  0
  160.8760  206.3480  147.1700 C   0  0  0  0  0  0  0  0  0  0  0  0
  160.4560  206.2030  145.8430 C   0  0  0  0  0  3  0  0  0  0  0  0
  162.3310  208.4380  151.6430 C   0  0  0  0  0  2  0  0  0  0  0  0
  161.5840  207.5510  153.7380 O   0  0  0  0  0  1  0  0  0  0  0  0
  161.3400  208.5600  152.7980 C   0  0  1  0  0  3  0  0  0  0  0  0
  158.8390  210.6980  154.7430 C   0  0  0  0  0  0  0  0  0  0  0  0
  161.1730  209.8370  154.9900 C   0  0  0  0  0  2  0  0  0  0  0  0
  160.6020  211.4470  151.7890 O   0  0  0  0  0  0  0  0  0  0  0  0
  157.5710  211.0750  155.3870 C   0  0  0  0  0  1  0  0  0  0  0  0
  159.7030  209.6470  155.3740 C   0  0  0  0  0  2  0  0  0  0  0  0
  160.3620  210.9070  152.8950 C   0  0  0  0  0  0  0  0  0  0  0  0
  161.3510  209.9360  153.4730 C   0  0  2  0  0  3  0  0  0  0  0  0
  159.1540  211.2310  153.5990 N   0  0  0  0  0  0  0  0  0  0  0  0
  1  6  1  0  0  0  0
  2  3  1  6  0  0  0
  2 13  1  0  0  0  0
  2  5  1  0  0  0  0
  4  7  1  0  0  0  0
  5 16  2  0  0  0  0
  6 17  2  0  0  0  0
  7  3  2  0  0  0  0
  8 21  1  0  0  0  0
  8 12  1  0  0  0  0
  9  1  1  0  0  0  0
 10 18  1  0  0  0  0
 11  4  1  0  0  0  0
 13 18  1  1  0  0  0
 13  8  1  0  0  0  0
 14  5  1  0  0  0  0
 14  1  2  0  0  0  0
 15  4  2  0  0  0  0
 15 20  1  0  0  0  0
 16 12  1  0  0  0  0
 16 17  1  0  0  0  0
 19  3  1  0  0  0  0
 19 10  1  0  0  0  0
 20 19  2  0  0  0  0
 21 23  1  0  0  0  0
 23 22  1  1  0  0  0
 24 28  1  0  0  0  0
 24 27  1  0  0  0  0
 25 28  1  0  0  0  0
 26 29  2  0  0  0  0
 29 30  1  0  0  0  0
 29 31  1  0  0  0  0
 30 23  1  6  0  0  0
 30 25  1  0  0  0  0
 31 24  2  0  0  0  0
M  END
>  <MODEL>
5

>  <REMARK>
 VINA RESULT:      -5.5      1.848      2.212
  Name = 
  3 active torsions:
  status: ('A' for Active; 'I' for Inactive)
    1  A    between atoms: C_5  and  C_16
    2  A    between atoms: C_5  and  C_30
    3  A    between atoms: N_10  and  C_16
                            x       y       z     vdW  Elec       q    Type
                         _______ _______ _______ _____ _____    ______ ____

>  <TORSDO>
F 3

$$$$
=
 OpenBabel11122413263D

 31 35  0  0  1  0  0  0  0  0999 V2000
  159.8010  209.2100  156.3310 C   0  0  0  0  0  0  0  0  0  0  0  0
  159.9890  208.9260  152.5370 C   0  0  2  0  0  3  0  0  0  0  0  0
  159.8960  210.3760  152.1710 C   0  0  0  0  0  0  0  0  0  0  0  0
  158.6290  212.4270  152.0110 C   0  0  0  0  0  0  0  0  0  0  0  0
  160.2870  208.7100  154.0040 C   0  0  0  0  0  0  0  0  0  0  0  0
  160.7050  208.2170  156.7280 C   0  0  0  0  0  3  0  0  0  0  0  0
  158.6750  211.0540  152.2470 C   0  0  0  0  0  3  0  0  0  0  0  0
  161.1960  206.8300  152.1250 N   0  0  0  0  0  0  0  0  0  0  0  0
  159.1190  209.9340  157.2610 F   0  0  0  0  0  0  0  0  0  0  0  0
  162.2660  210.3900  151.7430 O   0  0  0  0  0  0  0  0  0  0  0  0
  157.3870  213.1210  152.0890 N   0  0  0  0  0  1  0  0  0  0  0  0
  161.9130  206.8440  153.4060 C   0  0  0  0  0  2  0  0  0  0  0  0
  161.0100  208.2140  151.6310 C   0  0  2  0  0  3  0  0  0  0  0  0
  159.5880  209.4480  154.9770 C   0  0  0  0  0  3  0  0  0  0  0  0
  159.8030  213.1350  151.7250 C   0  0  0  0  0  3  0  0  0  0  0  0
  161.1690  207.6780  154.4160 C   0  0  0  0  0  0  0  0  0  0  0  0
  161.3880  207.4530  155.7720 C   0  0  0  0  0  3  0  0  0  0  0  0
  162.3450  208.9840  151.4410 C   0  0  0  0  0  2  0  0  0  0  0  0
  161.0630  211.0760  151.8500 C   0  0  0  0  0  0  0  0  0  0  0  0
  161.0210  212.4610  151.6480 C   0  0  0  0  0  3  0  0  0  0  0  0
  161.9730  206.0560  151.1710 C   0  0  0  0  0  2  0  0  0  0  0  0
  161.0140  204.3010  152.4880 O   0  0  0  0  0  1  0  0  0  0  0  0
  161.5400  204.5920  151.2230 C   0  0  1  0  0  3  0  0  0  0  0  0
  161.2120  201.7820  148.6540 C   0  0  0  0  0  0  0  0  0  0  0  0
  159.8330  202.8850  150.4250 C   0  0  0  0  0  2  0  0  0  0  0  0
  161.3680  205.2630  148.1540 O   0  0  0  0  0  0  0  0  0  0  0  0
  161.5520  200.5530  147.9190 C   0  0  0  0  0  1  0  0  0  0  0  0
  160.7100  201.6830  150.0650 C   0  0  0  0  0  2  0  0  0  0  0  0
  161.1330  204.1830  148.7450 C   0  0  0  0  0  0  0  0  0  0  0  0
  160.5420  204.2080  150.1250 C   0  0  2  0  0  3  0  0  0  0  0  0
  161.4200  202.9360  148.0930 N   0  0  0  0  0  0  0  0  0  0  0  0
  1  6  1  0  0  0  0
  1  9  1  0  0  0  0
  2  3  1  1  0  0  0
  2  5  1  0  0  0  0
  3  7  1  0  0  0  0
  4 11  1  0  0  0  0
  4  7  2  0  0  0  0
  5 16  2  0  0  0  0
  5 14  1  0  0  0  0
  8 12  1  0  0  0  0
 10 19  1  0  0  0  0
 12 16  1  0  0  0  0
 13 18  1  1  0  0  0
 13  8  1  0  0  0  0
 13  2  1  0  0  0  0
 14  1  2  0  0  0  0
 15  4  1  0  0  0  0
 16 17  1  0  0  0  0
 17  6  2  0  0  0  0
 18 10  1  0  0  0  0
 19  3  2  0  0  0  0
 20 15  2  0  0  0  0
 20 19  1  0  0  0  0
 21 23  1  0  0  0  0
 21  8  1  0  0  0  0
 23 22  1  1  0  0  0
 24 28  1  0  0  0  0
 26 29  2  0  0  0  0
 27 24  1  0  0  0  0
 28 25  1  0  0  0  0
 29 30  1  0  0  0  0
 30 25  1  0  0  0  0
 30 23  1  1  0  0  0
 31 24  2  0  0  0  0
 31 29  1  0  0  0  0
M  END
>  <MODEL>
6

>  <REMARK>
 VINA RESULT:      -5.0      3.475      8.050
  Name = 
  3 active torsions:
  status: ('A' for Active; 'I' for Inactive)
    1  A    between atoms: C_5  and  C_16
    2  A    between atoms: C_5  and  C_30
    3  A    between atoms: N_10  and  C_16
                            x       y       z     vdW  Elec       q    Type
                         _______ _______ _______ _____ _____    ______ ____

>  <TORSDO>
F 3

$$$$
=
 OpenBabel11122413263D

 31 35  0  0  1  0  0  0  0  0999 V2000
  160.9600  201.3660  148.6550 C   0  0  0  0  0  0  0  0  0  0  0  0
  162.1440  204.9840  148.7640 C   0  0  2  0  0  3  0  0  0  0  0  0
  161.6150  205.4620  147.4470 C   0  0  0  0  0  0  0  0  0  0  0  0
  161.6710  205.4580  145.0310 C   0  0  0  0  0  0  0  0  0  0  0  0
  161.5480  203.6610  149.1900 C   0  0  0  0  0  0  0  0  0  0  0  0
  160.5950  201.1520  149.9900 C   0  0  0  0  0  3  0  0  0  0  0  0
  162.2410  205.0970  146.2510 C   0  0  0  0  0  3  0  0  0  0  0  0
  162.3380  205.5070  151.1540 N   0  0  0  0  0  0  0  0  0  0  0  0
  160.8580  200.3590  147.7430 F   0  0  0  0  0  0  0  0  0  0  0  0
  159.8260  206.5840  148.6050 O   0  0  0  0  0  0  0  0  0  0  0  0
  162.3070  205.0860  143.8110 N   0  0  0  0  0  1  0  0  0  0  0  0
  161.3470  204.5120  151.5820 C   0  0  0  0  0  2  0  0  0  0  0  0
  161.9570  206.0720  149.8390 C   0  0  2  0  0  3  0  0  0  0  0  0
  161.4400  202.6100  148.2600 C   0  0  0  0  0  3  0  0  0  0  0  0
  160.4600  206.1600  144.9970 C   0  0  0  0  0  3  0  0  0  0  0  0
  161.2170  203.4230  150.5490 C   0  0  0  0  0  0  0  0  0  0  0  0
  160.7240  202.1800  150.9350 C   0  0  0  0  0  3  0  0  0  0  0  0
  160.5550  206.7380  149.8380 C   0  0  0  0  0  2  0  0  0  0  0  0
  160.4240  206.1950  147.4140 C   0  0  0  0  0  0  0  0  0  0  0  0
  159.8340  206.5270  146.1880 C   0  0  0  0  0  3  0  0  0  0  0  0
  162.3950  206.5600  152.1550 C   0  0  0  0  0  2  0  0  0  0  0  0
  160.4290  207.8750  152.5310 O   0  0  0  0  0  1  0  0  0  0  0  0
  161.5490  207.7470  151.7000 C   0  0  1  0  0  3  0  0  0  0  0  0
  160.6870  211.4660  151.8730 C   0  0  0  0  0  0  0  0  0  0  0  0
  162.2500  209.8430  152.9560 C   0  0  0  0  0  2  0  0  0  0  0  0
  162.3310  209.6660  149.3320 O   0  0  0  0  0  0  0  0  0  0  0  0
  159.8550  212.6740  151.9970 C   0  0  0  0  0  1  0  0  0  0  0  0
  160.9320  210.6120  153.0810 C   0  0  0  0  0  2  0  0  0  0  0  0
  161.9390  209.9510  150.4890 C   0  0  0  0  0  0  0  0  0  0  0  0
  162.3260  209.0670  151.6390 C   0  0  2  0  0  3  0  0  0  0  0  0
  161.1360  211.1220  150.7020 N   0  0  0  0  0  0  0  0  0  0  0  0
  1  6  1  0  0  0  0
  2  3  1  6  0  0  0
  2  5  1  0  0  0  0
  2 13  1  0  0  0  0
  4  7  1  0  0  0  0
  5 16  2  0  0  0  0
  6 17  2  0  0  0  0
  7  3  2  0  0  0  0
  8 12  1  0  0  0  0
  8 21  1  0  0  0  0
  9  1  1  0  0  0  0
 10 18  1  0  0  0  0
 11  4  1  0  0  0  0
 13 18  1  1  0  0  0
 13  8  1  0  0  0  0
 14  1  2  0  0  0  0
 14  5  1  0  0  0  0
 15  4  2  0  0  0  0
 15 20  1  0  0  0  0
 16 17  1  0  0  0  0
 16 12  1  0  0  0  0
 19  3  1  0  0  0  0
 19 10  1  0  0  0  0
 20 19  2  0  0  0  0
 23 21  1  0  0  0  0
 23 22  1  1  0  0  0
 24 27  1  0  0  0  0
 24 28  1  0  0  0  0
 25 28  1  0  0  0  0
 26 29  2  0  0  0  0
 29 31  1  0  0  0  0
 29 30  1  0  0  0  0
 30 23  1  1  0  0  0
 30 25  1  0  0  0  0
 31 24  2  0  0  0  0
M  END
>  <MODEL>
7

>  <REMARK>
 VINA RESULT:      -4.8      1.750      2.465
  Name = 
  3 active torsions:
  status: ('A' for Active; 'I' for Inactive)
    1  A    between atoms: C_5  and  C_16
    2  A    between atoms: C_5  and  C_30
    3  A    between atoms: N_10  and  C_16
                            x       y       z     vdW  Elec       q    Type
                         _______ _______ _______ _____ _____    ______ ____

>  <TORSDO>
F 3

$$$$
=
 OpenBabel11122413263D

 31 35  0  0  1  0  0  0  0  0999 V2000
  161.7500  208.6120  148.5850 C   0  0  0  0  0  0  0  0  0  0  0  0
  160.5350  207.1110  151.8690 C   0  0  2  0  0  3  0  0  0  0  0  0
  160.9250  205.6810  151.6510 C   0  0  0  0  0  0  0  0  0  0  0  0
  160.6280  203.5710  150.5130 C   0  0  0  0  0  0  0  0  0  0  0  0
  161.1880  208.0530  150.8810 C   0  0  0  0  0  0  0  0  0  0  0  0
  162.2480  209.8490  149.0120 C   0  0  0  0  0  3  0  0  0  0  0  0
  160.1870  204.8640  150.7890 C   0  0  0  0  0  3  0  0  0  0  0  0
  160.5730  208.9780  153.4610 N   0  0  0  0  0  0  0  0  0  0  0  0
  161.7730  208.2780  147.2650 F   0  0  0  0  0  0  0  0  0  0  0  0
  162.8060  206.0000  153.1210 O   0  0  0  0  0  0  0  0  0  0  0  0
  159.8790  202.7360  149.6340 N   0  0  0  0  0  1  0  0  0  0  0  0
  161.6150  209.7300  152.7490 C   0  0  0  0  0  2  0  0  0  0  0  0
  160.8140  207.5230  153.3270 C   0  0  2  0  0  3  0  0  0  0  0  0
  161.2160  207.7240  149.5130 C   0  0  0  0  0  3  0  0  0  0  0  0
  161.8210  203.0960  151.0730 C   0  0  0  0  0  3  0  0  0  0  0  0
  161.6550  209.3250  151.2990 C   0  0  0  0  0  0  0  0  0  0  0  0
  162.2000  210.2050  150.3670 C   0  0  0  0  0  3  0  0  0  0  0  0
  162.2010  207.0770  153.8640 C   0  0  0  0  0  2  0  0  0  0  0  0
  162.0970  205.1950  152.2400 C   0  0  0  0  0  0  0  0  0  0  0  0
  162.5570  203.9090  151.9340 C   0  0  0  0  0  3  0  0  0  0  0  0
  160.6030  209.3640  154.8620 C   0  0  0  0  0  2  0  0  0  0  0  0
  159.0810  208.9790  156.6710 O   0  0  0  0  0  1  0  0  0  0  0  0
  159.1760  209.5210  155.3830 C   0  0  1  0  0  3  0  0  0  0  0  0
  159.3630  212.4870  152.9790 C   0  0  0  0  0  0  0  0  0  0  0  0
  157.6400  211.2140  154.2700 C   0  0  0  0  0  2  0  0  0  0  0  0
  160.4560  212.2390  156.3160 O   0  0  0  0  0  0  0  0  0  0  0  0
  159.7080  213.2460  151.7660 C   0  0  0  0  0  1  0  0  0  0  0  0
  158.3070  211.4220  152.9080 C   0  0  0  0  0  2  0  0  0  0  0  0
  159.7690  211.9940  155.2960 C   0  0  0  0  0  0  0  0  0  0  0  0
  158.6740  210.9690  155.3710 C   0  0  2  0  0  3  0  0  0  0  0  0
  160.0290  212.7020  154.0750 N   0  0  0  0  0  0  0  0  0  0  0  0
  1  6  2  0  0  0  0
  1 14  1  0  0  0  0
  2  5  1  6  0  0  0
  2 13  1  0  0  0  0
  3  2  1  0  0  0  0
  3 19  1  0  0  0  0
  4  7  1  0  0  0  0
  4 15  2  0  0  0  0
  5 16  1  0  0  0  0
  6 17  1  0  0  0  0
  7  3  2  0  0  0  0
  8 21  1  0  0  0  0
  9  1  1  0  0  0  0
 10 18  1  0  0  0  0
 11  4  1  0  0  0  0
 12  8  1  0  0  0  0
 13  8  1  0  0  0  0
 13 18  1  6  0  0  0
 14  5  2  0  0  0  0
 15 20  1  0  0  0  0
 16 12  1  0  0  0  0
 17 16  2  0  0  0  0
 19 10  1  0  0  0  0
 20 19  2  0  0  0  0
 21 23  1  0  0  0  0
 23 22  1  1  0  0  0
 24 31  2  0  0  0  0
 25 30  1  0  0  0  0
 27 24  1  0  0  0  0
 28 24  1  0  0  0  0
 28 25  1  0  0  0  0
 29 30  1  0  0  0  0
 29 26  2  0  0  0  0
 30 23  1  6  0  0  0
 31 29  1  0  0  0  0
M  END
>  <MODEL>
8

>  <REMARK>
 VINA RESULT:      -4.3      3.238      5.498
  Name = 
  3 active torsions:
  status: ('A' for Active; 'I' for Inactive)
    1  A    between atoms: C_5  and  C_16
    2  A    between atoms: C_5  and  C_30
    3  A    between atoms: N_10  and  C_16
                            x       y       z     vdW  Elec       q    Type
                         _______ _______ _______ _____ _____    ______ ____

>  <TORSDO>
F 3

$$$$
=
 OpenBabel11122413263D

 31 35  0  0  1  0  0  0  0  0999 V2000
  160.5580  206.7200  155.1900 C   0  0  0  0  0  0  0  0  0  0  0  0
  160.1180  208.7440  151.9930 C   0  0  2  0  0  3  0  0  0  0  0  0
  159.9230  210.1070  152.5830 C   0  0  0  0  0  0  0  0  0  0  0  0
  158.5880  211.6870  153.8320 C   0  0  0  0  0  0  0  0  0  0  0  0
  160.6640  207.7460  152.9910 C   0  0  0  0  0  0  0  0  0  0  0  0
  161.5440  205.8040  154.8060 C   0  0  0  0  0  3  0  0  0  0  0  0
  158.7130  210.4550  153.1910 C   0  0  0  0  0  3  0  0  0  0  0  0
  161.3000  207.4560  150.2710 N   0  0  0  0  0  0  0  0  0  0  0  0
  160.0190  206.6710  156.4410 F   0  0  0  0  0  0  0  0  0  0  0  0
  162.1870  210.6620  151.9760 O   0  0  0  0  0  0  0  0  0  0  0  0
  157.3560  212.0430  154.4540 N   0  0  0  0  0  1  0  0  0  0  0  0
  162.2210  206.8040  151.2110 C   0  0  0  0  0  2  0  0  0  0  0  0
  160.9950  208.8310  150.7300 C   0  0  2  0  0  3  0  0  0  0  0  0
  160.1150  207.6800  154.2860 C   0  0  0  0  0  3  0  0  0  0  0  0
  159.6760  212.5650  153.8930 C   0  0  0  0  0  3  0  0  0  0  0  0
  161.6310  206.7870  152.5970 C   0  0  0  0  0  0  0  0  0  0  0  0
  162.0800  205.8380  153.5110 C   0  0  0  0  0  3  0  0  0  0  0  0
  162.2560  209.7220  150.8860 C   0  0  0  0  0  2  0  0  0  0  0  0
  161.0000  210.9990  152.6120 C   0  0  0  0  0  0  0  0  0  0  0  0
  160.8840  212.2210  153.2860 C   0  0  0  0  0  3  0  0  0  0  0  0
  161.9300  207.4930  148.9610 C   0  0  0  0  0  2  0  0  0  0  0  0
  161.1460  206.9380  146.7670 O   0  0  0  0  0  1  0  0  0  0  0  0
  161.3050  206.4280  148.0620 C   0  0  1  0  0  3  0  0  0  0  0  0
  161.0190  203.0860  146.2290 C   0  0  0  0  0  0  0  0  0  0  0  0
  162.7310  204.8570  146.6600 C   0  0  0  0  0  2  0  0  0  0  0  0
  161.0680  203.7450  149.6870 O   0  0  0  0  0  0  0  0  0  0  0  0
  160.4760  202.0690  145.3150 C   0  0  0  0  0  1  0  0  0  0  0  0
  161.7170  204.2890  145.6640 C   0  0  0  0  0  2  0  0  0  0  0  0
  161.3030  203.9160  148.4670 C   0  0  0  0  0  0  0  0  0  0  0  0
  162.0940  205.1140  148.0270 C   0  0  2  0  0  3  0  0  0  0  0  0
  160.8220  202.9620  147.5080 N   0  0  0  0  0  0  0  0  0  0  0  0
  1  9  1  0  0  0  0
  2  3  1  1  0  0  0
  2  5  1  0  0  0  0
  3 19  2  0  0  0  0
  3  7  1  0  0  0  0
  4 15  1  0  0  0  0
  4 11  1  0  0  0  0
  5 14  1  0  0  0  0
  6  1  1  0  0  0  0
  7  4  2  0  0  0  0
  8 13  1  0  0  0  0
  8 12  1  0  0  0  0
 10 19  1  0  0  0  0
 12 16  1  0  0  0  0
 13 18  1  1  0  0  0
 13  2  1  0  0  0  0
 14  1  2  0  0  0  0
 16  5  2  0  0  0  0
 16 17  1  0  0  0  0
 17  6  2  0  0  0  0
 18 10  1  0  0  0  0
 19 20  1  0  0  0  0
 20 15  2  0  0  0  0
 21  8  1  0  0  0  0
 23 22  1  6  0  0  0
 23 21  1  0  0  0  0
 24 31  2  0  0  0  0
 25 30  1  0  0  0  0
 27 24  1  0  0  0  0
 28 24  1  0  0  0  0
 28 25  1  0  0  0  0
 29 26  2  0  0  0  0
 30 23  1  6  0  0  0
 30 29  1  0  0  0  0
 31 29  1  0  0  0  0
M  END
>  <MODEL>
9

>  <REMARK>
 VINA RESULT:      -4.1      3.161      8.073
  Name = 
  3 active torsions:
  status: ('A' for Active; 'I' for Inactive)
    1  A    between atoms: C_5  and  C_16
    2  A    between atoms: C_5  and  C_30
    3  A    between atoms: N_10  and  C_16
                            x       y       z     vdW  Elec       q    Type
                         _______ _______ _______ _____ _____    ______ ____

>  <TORSDO>
F 3

$$$$
