=
 OpenBabel11122413203D

 31 35  0  0  0  0  0  0  0  0999 V2000
  161.1050  207.8760  154.1540 C   0  0  0  0  0  0  0  0  0  0  0  0
  161.3320  207.2990  150.4400 C   0  0  0  0  0  0  0  0  0  0  0  0
  161.2380  205.8890  150.2250 C   0  0  0  0  0  0  0  0  0  0  0  0
  161.8120  212.4240  149.3220 O   0  0  0  0  0  0  0  0  0  0  0  0
  161.8410  211.7710  148.2440 C   0  0  0  0  0  0  0  0  0  0  0  0
  161.0010  203.5920  151.0280 C   0  0  0  0  0  0  0  0  0  0  0  0
  161.2880  207.9310  151.7190 C   0  0  0  0  0  0  0  0  0  0  0  0
  161.2100  209.2640  154.2070 C   0  0  0  0  0  3  0  0  0  0  0  0
  161.0900  204.9640  151.2740 C   0  0  0  0  0  3  0  0  0  0  0  0
  161.5790  209.5200  149.4310 C   0  0  0  0  0  0  0  0  0  0  0  0
  160.9260  206.9530  155.6300 Cl  0  0  0  0  0  0  0  0  0  0  0  0
  161.4420  206.2510  147.8320 C   0  0  0  0  0  3  0  0  0  0  0  0
  160.8510  202.6840  152.1120 N   0  0  0  0  0  1  0  0  0  0  0  0
  161.5320  210.0810  150.6650 N   0  0  0  0  0  0  0  0  0  0  0  0
  161.4810  208.1280  149.2930 C   0  0  0  0  0  0  0  0  0  0  0  0
  161.7280  210.3400  148.2630 N   0  0  0  0  0  2  0  0  0  0  0  0
  161.1450  207.2190  152.9220 C   0  0  0  0  0  3  0  0  0  0  0  0
  161.0600  203.1130  149.7190 C   0  0  0  0  0  3  0  0  0  0  0  0
  161.3920  209.3430  151.7930 C   0  0  0  0  0  0  0  0  0  0  0  0
  161.3530  209.9960  153.0280 C   0  0  0  0  0  3  0  0  0  0  0  0
  161.5290  207.5840  148.0470 N   0  0  0  0  0  0  0  0  0  0  0  0
  161.2950  205.3800  148.9030 C   0  0  0  0  0  0  0  0  0  0  0  0
  161.2070  204.0060  148.6580 C   0  0  0  0  0  3  0  0  0  0  0  0
  162.3550  213.7990  144.4970 C   0  0  0  0  0  0  0  0  0  0  0  0
  163.2780  212.6820  146.4330 C   0  0  0  0  0  3  0  0  0  0  0  0
  159.6100  212.7640  146.6680 F   0  0  0  0  0  0  0  0  0  0  0  0
  162.5350  214.4530  143.2870 O   0  0  0  0  0  1  0  0  0  0  0  0
  163.4610  213.3410  145.2150 C   0  0  0  0  0  3  0  0  0  0  0  0
  160.8760  212.9390  146.2160 C   0  0  0  0  0  0  0  0  0  0  0  0
  161.9890  212.4730  146.9500 C   0  0  0  0  0  0  0  0  0  0  0  0
  161.0670  213.5980  144.9970 C   0  0  0  0  0  3  0  0  0  0  0  0
  1  8  1  0  0  0  0
  1 11  1  0  0  0  0
  2  7  1  0  0  0  0
  3  2  1  0  0  0  0
  3  9  1  0  0  0  0
  5 16  1  0  0  0  0
  5  4  2  0  0  0  0
  6  9  2  0  0  0  0
  6 13  1  0  0  0  0
  7 19  2  0  0  0  0
  7 17  1  0  0  0  0
 10 14  2  0  0  0  0
 12 21  2  0  0  0  0
 12 22  1  0  0  0  0
 14 19  1  0  0  0  0
 15 10  1  0  0  0  0
 15  2  2  0  0  0  0
 16 10  1  0  0  0  0
 17  1  2  0  0  0  0
 18  6  1  0  0  0  0
 19 20  1  0  0  0  0
 20  8  2  0  0  0  0
 21 15  1  0  0  0  0
 22  3  2  0  0  0  0
 23 22  1  0  0  0  0
 23 18  2  0  0  0  0
 24 31  2  0  0  0  0
 24 28  1  0  0  0  0
 25 30  1  0  0  0  0
 27 24  1  0  0  0  0
 28 25  2  0  0  0  0
 29 26  1  0  0  0  0
 29 30  2  0  0  0  0
 30  5  1  0  0  0  0
 31 29  1  0  0  0  0
M  END
>  <MODEL>
1

>  <REMARK>
 VINA RESULT:      -9.5      0.000      0.000
  Name = 
  1 active torsions:
  status: ('A' for Active; 'I' for Inactive)
    1  A    between atoms: C_5  and  C_30
                            x       y       z     vdW  Elec       q    Type
                         _______ _______ _______ _____ _____    ______ ____

>  <TORSDO>
F 1

$$$$
=
 OpenBabel11122413203D

 31 35  0  0  0  0  0  0  0  0999 V2000
  161.2040  205.4500  145.6670 C   0  0  0  0  0  0  0  0  0  0  0  0
  161.1230  204.4400  149.2940 C   0  0  0  0  0  0  0  0  0  0  0  0
  161.1210  203.0110  149.3350 C   0  0  0  0  0  0  0  0  0  0  0  0
  161.0900  209.4110  151.0360 O   0  0  0  0  0  0  0  0  0  0  0  0
  161.0670  208.6340  152.0300 C   0  0  0  0  0  0  0  0  0  0  0  0
  161.1420  200.8190  148.2530 C   0  0  0  0  0  0  0  0  0  0  0  0
  161.1500  205.2200  148.0980 C   0  0  0  0  0  0  0  0  0  0  0  0
  161.2020  206.8380  145.7850 C   0  0  0  0  0  3  0  0  0  0  0  0
  161.1450  202.2140  148.1760 C   0  0  0  0  0  3  0  0  0  0  0  0
  161.0970  206.5330  150.5710 C   0  0  0  0  0  0  0  0  0  0  0  0
  161.2380  204.7040  144.0840 Cl  0  0  0  0  0  0  0  0  0  0  0  0
  161.0670  203.0920  151.7610 C   0  0  0  0  0  3  0  0  0  0  0  0
  161.1680  200.0420  147.0630 N   0  0  0  0  0  1  0  0  0  0  0  0
  161.1230  207.2360  149.4110 N   0  0  0  0  0  0  0  0  0  0  0  0
  161.0960  205.1320  150.5380 C   0  0  0  0  0  0  0  0  0  0  0  0
  161.0700  207.2130  151.8350 N   0  0  0  0  0  2  0  0  0  0  0  0
  161.1780  204.6520  146.8130 C   0  0  0  0  0  3  0  0  0  0  0  0
  161.1140  200.1890  149.4970 C   0  0  0  0  0  3  0  0  0  0  0  0
  161.1490  206.6340  148.1980 C   0  0  0  0  0  0  0  0  0  0  0  0
  161.1750  207.4280  147.0490 C   0  0  0  0  0  3  0  0  0  0  0  0
  161.0700  204.4440  151.7110 N   0  0  0  0  0  0  0  0  0  0  0  0
  161.0920  202.3500  150.5880 C   0  0  0  0  0  0  0  0  0  0  0  0
  161.0890  200.9540  150.6630 C   0  0  0  0  0  3  0  0  0  0  0  0
  161.0070  210.2940  155.9870 C   0  0  0  0  0  0  0  0  0  0  0  0
  161.4030  210.5210  153.6120 C   0  0  0  0  0  3  0  0  0  0  0  0
  160.2910  207.1000  154.3730 F   0  0  0  0  0  0  0  0  0  0  0  0
  160.9920  210.8430  157.2610 O   0  0  0  0  0  1  0  0  0  0  0  0
  161.3880  211.0750  154.8940 C   0  0  0  0  0  3  0  0  0  0  0  0
  160.6530  208.3990  154.5160 C   0  0  0  0  0  0  0  0  0  0  0  0
  161.0370  209.1810  153.4040 C   0  0  0  0  0  0  0  0  0  0  0  0
  160.6410  208.9610  155.7970 C   0  0  0  0  0  3  0  0  0  0  0  0
  1  8  2  0  0  0  0
  1 17  1  0  0  0  0
  2  3  2  0  0  0  0
  2 15  1  0  0  0  0
  3 22  1  0  0  0  0
  4  5  2  0  0  0  0
  5 30  1  0  0  0  0
  6 18  1  0  0  0  0
  7 19  1  0  0  0  0
  7  2  1  0  0  0  0
  8 20  1  0  0  0  0
  9  6  2  0  0  0  0
  9  3  1  0  0  0  0
 10 16  1  0  0  0  0
 11  1  1  0  0  0  0
 13  6  1  0  0  0  0
 14 10  2  0  0  0  0
 15 10  1  0  0  0  0
 15 21  2  0  0  0  0
 16  5  1  0  0  0  0
 17  7  2  0  0  0  0
 18 23  2  0  0  0  0
 19 14  1  0  0  0  0
 20 19  2  0  0  0  0
 21 12  1  0  0  0  0
 22 23  1  0  0  0  0
 22 12  2  0  0  0  0
 24 27  1  0  0  0  0
 25 28  1  0  0  0  0
 26 29  1  0  0  0  0
 28 24  2  0  0  0  0
 29 31  2  0  0  0  0
 30 25  2  0  0  0  0
 30 29  1  0  0  0  0
 31 24  1  0  0  0  0
M  END
>  <MODEL>
2

>  <REMARK>
 VINA RESULT:      -9.0      4.485      7.119
  Name = 
  1 active torsions:
  status: ('A' for Active; 'I' for Inactive)
    1  A    between atoms: C_5  and  C_30
                            x       y       z     vdW  Elec       q    Type
                         _______ _______ _______ _____ _____    ______ ____

>  <TORSDO>
F 1

$$$$
=
 OpenBabel11122413203D

 31 35  0  0  0  0  0  0  0  0999 V2000
  161.0320  201.7090  150.2960 C   0  0  0  0  0  0  0  0  0  0  0  0
  161.3070  205.4100  149.6570 C   0  0  0  0  0  0  0  0  0  0  0  0
  161.4940  205.5830  148.2500 C   0  0  0  0  0  0  0  0  0  0  0  0
  160.7320  206.6820  154.7360 O   0  0  0  0  0  0  0  0  0  0  0  0
  160.8730  207.7420  154.0670 C   0  0  0  0  0  0  0  0  0  0  0  0
  161.7360  204.7100  145.9800 C   0  0  0  0  0  0  0  0  0  0  0  0
  161.1590  204.1480  150.3090 C   0  0  0  0  0  0  0  0  0  0  0  0
  160.8580  201.6970  151.6790 C   0  0  0  0  0  3  0  0  0  0  0  0
  161.5520  204.5040  147.3490 C   0  0  0  0  0  3  0  0  0  0  0  0
  161.0870  206.4860  151.8490 C   0  0  0  0  0  0  0  0  0  0  0  0
  161.0660  200.2030  149.4040 Cl  0  0  0  0  0  0  0  0  0  0  0  0
  161.5810  207.9880  148.5690 C   0  0  0  0  0  3  0  0  0  0  0  0
  161.7890  203.5980  145.0950 N   0  0  0  0  0  1  0  0  0  0  0  0
  160.9500  205.2670  152.4290 N   0  0  0  0  0  0  0  0  0  0  0  0
  161.2680  206.5830  150.4620 C   0  0  0  0  0  0  0  0  0  0  0  0
  161.0490  207.6800  152.6450 N   0  0  0  0  0  2  0  0  0  0  0  0
  161.1810  202.9220  149.6210 C   0  0  0  0  0  3  0  0  0  0  0  0
  161.8670  206.0060  145.4800 C   0  0  0  0  0  3  0  0  0  0  0  0
  160.9800  204.1170  151.7150 C   0  0  0  0  0  0  0  0  0  0  0  0
  160.8310  202.9000  152.3860 C   0  0  0  0  0  3  0  0  0  0  0  0
  161.4030  207.8140  149.8990 N   0  0  0  0  0  0  0  0  0  0  0  0
  161.6300  206.8900  147.7210 C   0  0  0  0  0  0  0  0  0  0  0  0
  161.8140  207.0950  146.3500 C   0  0  0  0  0  3  0  0  0  0  0  0
  160.7750  211.5880  155.9680 C   0  0  0  0  0  0  0  0  0  0  0  0
  160.0970  210.1000  154.1870 C   0  0  0  0  0  3  0  0  0  0  0  0
  162.3310  208.3320  156.5110 F   0  0  0  0  0  0  0  0  0  0  0  0
  160.7350  212.8370  156.5720 O   0  0  0  0  0  1  0  0  0  0  0  0
  160.0560  211.3570  154.7940 C   0  0  0  0  0  3  0  0  0  0  0  0
  161.5810  209.3020  155.9310 C   0  0  0  0  0  0  0  0  0  0  0  0
  160.8570  209.0580  154.7430 C   0  0  0  0  0  0  0  0  0  0  0  0
  161.5350  210.5630  156.5330 C   0  0  0  0  0  3  0  0  0  0  0  0
  1  8  1  0  0  0  0
  2  7  1  0  0  0  0
  2 15  1  0  0  0  0
  3  2  2  0  0  0  0
  5  4  2  0  0  0  0
  5 30  1  0  0  0  0
  6  9  2  0  0  0  0
  7 19  2  0  0  0  0
  8 20  2  0  0  0  0
  9  3  1  0  0  0  0
 10 14  2  0  0  0  0
 10 16  1  0  0  0  0
 11  1  1  0  0  0  0
 12 21  1  0  0  0  0
 13  6  1  0  0  0  0
 15 10  1  0  0  0  0
 16  5  1  0  0  0  0
 17  1  2  0  0  0  0
 17  7  1  0  0  0  0
 18  6  1  0  0  0  0
 18 23  2  0  0  0  0
 19 20  1  0  0  0  0
 19 14  1  0  0  0  0
 21 15  2  0  0  0  0
 22  3  1  0  0  0  0
 22 12  2  0  0  0  0
 23 22  1  0  0  0  0
 24 31  1  0  0  0  0
 24 27  1  0  0  0  0
 25 30  2  0  0  0  0
 25 28  1  0  0  0  0
 28 24  2  0  0  0  0
 29 26  1  0  0  0  0
 29 31  2  0  0  0  0
 30 29  1  0  0  0  0
M  END
>  <MODEL>
3

>  <REMARK>
 VINA RESULT:      -9.0      4.846      7.232
  Name = 
  1 active torsions:
  status: ('A' for Active; 'I' for Inactive)
    1  A    between atoms: C_5  and  C_30
                            x       y       z     vdW  Elec       q    Type
                         _______ _______ _______ _____ _____    ______ ____

>  <TORSDO>
F 1

$$$$
=
 OpenBabel11122413203D

 31 35  0  0  0  0  0  0  0  0999 V2000
  161.2480  205.5600  146.0630 C   0  0  0  0  0  0  0  0  0  0  0  0
  161.1970  204.9690  149.7820 C   0  0  0  0  0  0  0  0  0  0  0  0
  161.1910  203.5540  149.9840 C   0  0  0  0  0  0  0  0  0  0  0  0
  161.1930  210.1050  150.9490 O   0  0  0  0  0  0  0  0  0  0  0  0
  161.1770  209.4460  152.0250 C   0  0  0  0  0  0  0  0  0  0  0  0
  161.1970  201.2530  149.1580 C   0  0  0  0  0  0  0  0  0  0  0  0
  161.2150  205.6080  148.5050 C   0  0  0  0  0  0  0  0  0  0  0  0
  161.2510  206.9540  146.0230 C   0  0  0  0  0  3  0  0  0  0  0  0
  161.2030  202.6300  148.9230 C   0  0  0  0  0  3  0  0  0  0  0  0
  161.1880  207.1930  150.8140 C   0  0  0  0  0  0  0  0  0  0  0  0
  161.2660  204.6400  144.5750 Cl  0  0  0  0  0  0  0  0  0  0  0  0
  161.1590  203.9090  152.3860 C   0  0  0  0  0  3  0  0  0  0  0  0
  161.2100  200.3460  148.0630 N   0  0  0  0  0  1  0  0  0  0  0  0
  161.2060  207.7600  149.5810 N   0  0  0  0  0  0  0  0  0  0  0  0
  161.1830  205.7970  150.9400 C   0  0  0  0  0  0  0  0  0  0  0  0
  161.1740  208.0120  151.9920 N   0  0  0  0  0  2  0  0  0  0  0  0
  161.2300  204.8980  147.2920 C   0  0  0  0  0  3  0  0  0  0  0  0
  161.1790  200.7680  150.4650 C   0  0  0  0  0  3  0  0  0  0  0  0
  161.2190  207.0240  148.4440 C   0  0  0  0  0  0  0  0  0  0  0  0
  161.2370  207.6830  147.2120 C   0  0  0  0  0  3  0  0  0  0  0  0
  161.1660  205.2470  152.1830 N   0  0  0  0  0  0  0  0  0  0  0  0
  161.1730  203.0390  151.3050 C   0  0  0  0  0  0  0  0  0  0  0  0
  161.1660  201.6600  151.5380 C   0  0  0  0  0  3  0  0  0  0  0  0
  161.2070  211.4470  155.8210 C   0  0  0  0  0  0  0  0  0  0  0  0
  162.2860  210.0570  154.1630 C   0  0  0  0  0  3  0  0  0  0  0  0
  158.9360  211.0210  152.9960 F   0  0  0  0  0  0  0  0  0  0  0  0
  161.2300  212.0890  157.0510 O   0  0  0  0  0  1  0  0  0  0  0  0
  162.3110  210.7030  155.4010 C   0  0  0  0  0  3  0  0  0  0  0  0
  160.0490  210.9020  153.7620 C   0  0  0  0  0  0  0  0  0  0  0  0
  161.1610  210.1460  153.3280 C   0  0  0  0  0  0  0  0  0  0  0  0
  160.0800  211.5450  155.0030 C   0  0  0  0  0  3  0  0  0  0  0  0
  1 17  1  0  0  0  0
  2  3  2  0  0  0  0
  2 15  1  0  0  0  0
  3 22  1  0  0  0  0
  4  5  2  0  0  0  0
  5 30  1  0  0  0  0
  6 18  1  0  0  0  0
  7  2  1  0  0  0  0
  8  1  2  0  0  0  0
  8 20  1  0  0  0  0
  9  6  2  0  0  0  0
  9  3  1  0  0  0  0
 10 15  1  0  0  0  0
 10 16  1  0  0  0  0
 11  1  1  0  0  0  0
 13  6  1  0  0  0  0
 14 10  2  0  0  0  0
 15 21  2  0  0  0  0
 16  5  1  0  0  0  0
 17  7  2  0  0  0  0
 18 23  2  0  0  0  0
 19  7  1  0  0  0  0
 19 14  1  0  0  0  0
 20 19  2  0  0  0  0
 21 12  1  0  0  0  0
 22 23  1  0  0  0  0
 22 12  2  0  0  0  0
 24 27  1  0  0  0  0
 25 28  2  0  0  0  0
 26 29  1  0  0  0  0
 28 24  1  0  0  0  0
 29 31  1  0  0  0  0
 30 29  2  0  0  0  0
 30 25  1  0  0  0  0
 31 24  2  0  0  0  0
M  END
>  <MODEL>
4

>  <REMARK>
 VINA RESULT:      -8.7      4.165      6.605
  Name = 
  1 active torsions:
  status: ('A' for Active; 'I' for Inactive)
    1  A    between atoms: C_5  and  C_30
                            x       y       z     vdW  Elec       q    Type
                         _______ _______ _______ _____ _____    ______ ____

>  <TORSDO>
F 1

$$$$
=
 OpenBabel11122413203D

 31 35  0  0  0  0  0  0  0  0999 V2000
  161.8280  210.6230  149.8660 C   0  0  0  0  0  0  0  0  0  0  0  0
  161.3000  207.1560  151.2360 C   0  0  0  0  0  0  0  0  0  0  0  0
  161.1510  207.2800  152.6520 C   0  0  0  0  0  0  0  0  0  0  0  0
  161.5970  204.8640  146.5030 O   0  0  0  0  0  0  0  0  0  0  0  0
  161.4020  203.9710  147.3720 C   0  0  0  0  0  0  0  0  0  0  0  0
  161.0580  208.6000  154.7080 C   0  0  0  0  0  0  0  0  0  0  0  0
  161.5200  208.2480  150.3430 C   0  0  0  0  0  0  0  0  0  0  0  0
  161.9550  210.3480  148.5050 C   0  0  0  0  0  3  0  0  0  0  0  0
  161.2070  208.5160  153.3220 C   0  0  0  0  0  3  0  0  0  0  0  0
  161.3610  205.6540  149.2990 C   0  0  0  0  0  0  0  0  0  0  0  0
  161.9390  212.2730  150.4400 Cl  0  0  0  0  0  0  0  0  0  0  0  0
  160.8750  204.8730  152.8220 C   0  0  0  0  0  3  0  0  0  0  0  0
  161.1190  209.8650  155.3530 N   0  0  0  0  0  1  0  0  0  0  0  0
  161.5680  206.7190  148.4850 N   0  0  0  0  0  0  0  0  0  0  0  0
  161.2240  205.8470  150.6810 C   0  0  0  0  0  0  0  0  0  0  0  0
  161.2810  204.3270  148.7570 N   0  0  0  0  0  2  0  0  0  0  0  0
  161.6130  209.5830  150.7720 C   0  0  0  0  0  3  0  0  0  0  0  0
  160.8480  207.4430  155.4580 C   0  0  0  0  0  3  0  0  0  0  0  0
  161.6500  207.9870  148.9550 C   0  0  0  0  0  0  0  0  0  0  0  0
  161.8660  209.0310  148.0520 C   0  0  0  0  0  3  0  0  0  0  0  0
  161.0170  204.7670  151.4810 N   0  0  0  0  0  0  0  0  0  0  0  0
  160.9370  206.1170  153.4350 C   0  0  0  0  0  0  0  0  0  0  0  0
  160.7880  206.2030  154.8220 C   0  0  0  0  0  3  0  0  0  0  0  0
  161.1220  199.8290  146.2880 C   0  0  0  0  0  0  0  0  0  0  0  0
  161.6680  201.5560  147.8900 C   0  0  0  0  0  3  0  0  0  0  0  0
  160.4580  203.0810  144.7720 F   0  0  0  0  0  0  0  0  0  0  0  0
  161.0360  198.4860  145.9500 O   0  0  0  0  0  1  0  0  0  0  0  0
  161.5820  200.2030  147.5520 C   0  0  0  0  0  3  0  0  0  0  0  0
  160.8310  202.1630  145.6970 C   0  0  0  0  0  0  0  0  0  0  0  0
  161.2960  202.5510  146.9730 C   0  0  0  0  0  0  0  0  0  0  0  0
  160.7480  200.8060  145.3650 C   0  0  0  0  0  3  0  0  0  0  0  0
  1 11  1  0  0  0  0
  1 17  1  0  0  0  0
  2  3  1  0  0  0  0
  3  9  2  0  0  0  0
  3 22  1  0  0  0  0
  4  5  2  0  0  0  0
  5 16  1  0  0  0  0
  6 13  1  0  0  0  0
  6 18  2  0  0  0  0
  7 17  2  0  0  0  0
  7  2  1  0  0  0  0
  8  1  2  0  0  0  0
  9  6  1  0  0  0  0
 10 15  1  0  0  0  0
 12 22  1  0  0  0  0
 14 19  1  0  0  0  0
 14 10  2  0  0  0  0
 15  2  2  0  0  0  0
 15 21  1  0  0  0  0
 16 10  1  0  0  0  0
 19  7  1  0  0  0  0
 20  8  1  0  0  0  0
 20 19  2  0  0  0  0
 21 12  2  0  0  0  0
 22 23  2  0  0  0  0
 23 18  1  0  0  0  0
 24 28  1  0  0  0  0
 26 29  1  0  0  0  0
 27 24  1  0  0  0  0
 28 25  2  0  0  0  0
 29 30  2  0  0  0  0
 30  5  1  0  0  0  0
 30 25  1  0  0  0  0
 31 29  1  0  0  0  0
 31 24  2  0  0  0  0
M  END
>  <MODEL>
5

>  <REMARK>
 VINA RESULT:      -7.7      4.277      7.845
  Name = 
  1 active torsions:
  status: ('A' for Active; 'I' for Inactive)
    1  A    between atoms: C_5  and  C_30
                            x       y       z     vdW  Elec       q    Type
                         _______ _______ _______ _____ _____    ______ ____

>  <TORSDO>
F 1

$$$$
=
 OpenBabel11122413203D

 31 35  0  0  0  0  0  0  0  0999 V2000
  161.8000  210.6390  149.9050 C   0  0  0  0  0  0  0  0  0  0  0  0
  161.3230  207.1750  151.3000 C   0  0  0  0  0  0  0  0  0  0  0  0
  161.1950  207.3040  152.7190 C   0  0  0  0  0  0  0  0  0  0  0  0
  161.5620  204.8620  146.5740 O   0  0  0  0  0  0  0  0  0  0  0  0
  161.3890  203.9720  147.4510 C   0  0  0  0  0  0  0  0  0  0  0  0
  161.1240  208.6340  154.7690 C   0  0  0  0  0  0  0  0  0  0  0  0
  161.5190  208.2640  150.3990 C   0  0  0  0  0  0  0  0  0  0  0  0
  161.9070  210.3580  148.5440 C   0  0  0  0  0  3  0  0  0  0  0  0
  161.2520  208.5440  153.3810 C   0  0  0  0  0  3  0  0  0  0  0  0
  161.3650  205.6630  149.3710 C   0  0  0  0  0  0  0  0  0  0  0  0
  161.9060  212.2930  150.4700 Cl  0  0  0  0  0  0  0  0  0  0  0  0
  160.9420  204.8960  152.9050 C   0  0  0  0  0  3  0  0  0  0  0  0
  161.1850  209.9030  155.4070 N   0  0  0  0  0  1  0  0  0  0  0  0
  161.5500  206.7260  148.5480 N   0  0  0  0  0  0  0  0  0  0  0  0
  161.2490  205.8630  150.7530 C   0  0  0  0  0  0  0  0  0  0  0  0
  161.2880  204.3340  148.8360 N   0  0  0  0  0  2  0  0  0  0  0  0
  161.6080  209.6020  150.8200 C   0  0  0  0  0  3  0  0  0  0  0  0
  160.9360  207.4790  155.5280 C   0  0  0  0  0  3  0  0  0  0  0  0
  161.6290  207.9970  149.0110 C   0  0  0  0  0  0  0  0  0  0  0  0
  161.8220  209.0390  148.0990 C   0  0  0  0  0  3  0  0  0  0  0  0
  161.0630  204.7850  151.5620 N   0  0  0  0  0  0  0  0  0  0  0  0
  161.0040  206.1440  153.5100 C   0  0  0  0  0  0  0  0  0  0  0  0
  160.8760  206.2350  154.8990 C   0  0  0  0  0  3  0  0  0  0  0  0
  161.0740  199.8670  146.2410 C   0  0  0  0  0  0  0  0  0  0  0  0
  160.9170  202.2280  145.7450 C   0  0  0  0  0  3  0  0  0  0  0  0
  161.9150  201.7520  149.2510 F   0  0  0  0  0  0  0  0  0  0  0  0
  160.9680  198.5440  145.8370 O   0  0  0  0  0  1  0  0  0  0  0  0
  160.8110  200.8970  145.3370 C   0  0  0  0  0  3  0  0  0  0  0  0
  161.5530  201.5000  147.9690 C   0  0  0  0  0  0  0  0  0  0  0  0
  161.2880  202.5490  147.0600 C   0  0  0  0  0  0  0  0  0  0  0  0
  161.4440  200.1690  147.5530 C   0  0  0  0  0  3  0  0  0  0  0  0
  1 11  1  0  0  0  0
  1 17  1  0  0  0  0
  2  3  1  0  0  0  0
  3  9  2  0  0  0  0
  3 22  1  0  0  0  0
  4  5  2  0  0  0  0
  5 16  1  0  0  0  0
  6 13  1  0  0  0  0
  6 18  2  0  0  0  0
  7 17  2  0  0  0  0
  7  2  1  0  0  0  0
  8  1  2  0  0  0  0
  9  6  1  0  0  0  0
 10 15  1  0  0  0  0
 12 22  1  0  0  0  0
 14 19  1  0  0  0  0
 14 10  2  0  0  0  0
 15  2  2  0  0  0  0
 15 21  1  0  0  0  0
 16 10  1  0  0  0  0
 19  7  1  0  0  0  0
 20  8  1  0  0  0  0
 20 19  2  0  0  0  0
 21 12  2  0  0  0  0
 22 23  2  0  0  0  0
 23 18  1  0  0  0  0
 24 31  1  0  0  0  0
 25 30  2  0  0  0  0
 27 24  1  0  0  0  0
 28 25  1  0  0  0  0
 28 24  2  0  0  0  0
 29 26  1  0  0  0  0
 30  5  1  0  0  0  0
 30 29  1  0  0  0  0
 31 29  2  0  0  0  0
M  END
>  <MODEL>
6

>  <REMARK>
 VINA RESULT:      -7.3      4.400      7.935
  Name = 
  1 active torsions:
  status: ('A' for Active; 'I' for Inactive)
    1  A    between atoms: C_5  and  C_30
                            x       y       z     vdW  Elec       q    Type
                         _______ _______ _______ _____ _____    ______ ____

>  <TORSDO>
F 1

$$$$
