=
 OpenBabel11122414093D

 28 32  0  0  1  0  0  0  0  0999 V2000
  158.4990  212.2570  152.0050 C   0  0  0  0  0  0  0  0  0  0  0  0
  160.0920  208.9480  151.0450 O   0  0  0  0  0  0  0  0  0  0  0  0
  160.0280  209.5470  157.2610 O   0  0  0  0  0  1  0  0  0  0  0  0
  160.4670  213.5630  150.4970 C   0  0  0  0  0  3  0  0  0  0  0  0
  161.7910  211.0580  156.5900 C   0  0  2  0  0  3  0  0  0  0  0  0
  157.4780  211.6580  152.8020 N   0  0  0  0  0  2  0  0  0  0  0  0
  162.5230  208.5680  151.0680 O   0  0  0  0  0  0  0  0  0  0  0  0
  161.3040  208.7820  151.9190 S   0  0  0  0  0  0  0  0  0  0  0  0
  161.1200  207.6100  154.3850 C   0  0  0  0  0  0  0  0  0  0  0  0
  161.5410  210.2140  152.9400 C   0  0  2  0  0  3  0  0  0  0  0  0
  156.7170  211.5290  156.3770 O   0  0  0  0  0  1  0  0  0  0  0  0
  160.5210  211.6290  154.6350 C   0  0  2  0  0  3  0  0  0  0  0  0
  161.5440  208.7100  154.9360 N   0  0  0  0  0  0  0  0  0  0  0  0
  161.0880  207.4380  152.9700 N   0  0  0  0  0  2  0  0  0  0  0  0
  157.1500  211.0370  155.1450 C   0  0  2  0  0  3  0  0  0  0  0  0
  159.8600  211.9690  152.2330 C   0  0  0  0  0  0  0  0  0  0  0  0
  160.3100  210.8720  156.8950 C   0  0  1  0  0  3  0  0  0  0  0  0
  160.6220  206.5690  155.2160 N   0  0  0  0  0  1  0  0  0  0  0  0
  158.5040  210.3530  155.3100 C   0  0  0  0  0  2  0  0  0  0  0  0
  160.8380  212.6450  151.4830 C   0  0  0  0  0  3  0  0  0  0  0  0
  158.1370  213.1690  151.0090 C   0  0  0  0  0  3  0  0  0  0  0  0
  159.1170  213.8190  150.2550 C   0  0  0  0  0  3  0  0  0  0  0  0
  157.2080  212.1720  154.1350 C   0  0  0  0  0  2  0  0  0  0  0  0
  161.8930  211.1560  155.0810 C   0  0  2  0  0  3  0  0  0  0  0  0
  159.5450  211.3170  155.7080 N   0  0  2  0  0  0  0  0  0  0  0  0
  162.1700  209.8730  154.2820 C   0  0  2  0  0  3  0  0  0  0  0  0
  162.6000  210.0520  157.1310 O   0  0  0  0  0  1  0  0  0  0  0  0
  160.2570  210.9580  153.2780 C   0  0  1  0  0  3  0  0  0  0  0  0
  1 16  1  0  0  0  0
  1  6  1  0  0  0  0
  2  8  2  0  0  0  0
  4 20  1  0  0  0  0
  5 17  1  0  0  0  0
  5 27  1  6  0  0  0
  6 23  1  0  0  0  0
  7  8  2  0  0  0  0
  8 14  1  0  0  0  0
  9 13  2  0  0  0  0
  9 18  1  0  0  0  0
 10  8  1  1  0  0  0
 10 28  1  0  0  0  0
 10 26  1  0  0  0  0
 12 24  1  0  0  0  0
 12 25  1  0  0  0  0
 14  9  1  0  0  0  0
 15 19  1  0  0  0  0
 15 11  1  0  0  0  0
 16 28  1  0  0  0  0
 17  3  1  0  0  0  0
 19 25  1  0  0  0  0
 20 16  2  0  0  0  0
 21  1  2  0  0  0  0
 22  4  2  0  0  0  0
 22 21  1  0  0  0  0
 23 15  1  0  0  0  0
 24  5  1  0  0  0  0
 25 17  1  0  0  0  0
 26 13  1  0  0  0  0
 26 24  1  0  0  0  0
 28 12  1  0  0  0  0
M  END
>  <MODEL>
1

>  <REMARK>
 VINA RESULT:      -2.1      0.000      0.000
  Name = 
  0 active torsions:
  status: ('A' for Active; 'I' for Inactive)
                            x       y       z     vdW  Elec       q    Type
                         _______ _______ _______ _____ _____    ______ ____

>  <TORSDO>
F 0

$$$$
=
 OpenBabel11122414093D

 28 32  0  0  1  0  0  0  0  0999 V2000
  161.3150  210.1000  156.3050 C   0  0  0  0  0  0  0  0  0  0  0  0
  162.4640  210.2840  152.6920 O   0  0  0  0  0  0  0  0  0  0  0  0
  157.9030  214.4330  153.6810 O   0  0  0  0  0  1  0  0  0  0  0  0
  160.6830  207.4010  155.8930 C   0  0  0  0  0  3  0  0  0  0  0  0
  156.7160  212.3290  153.6250 C   0  0  2  0  0  3  0  0  0  0  0  0
  161.6000  211.4710  156.5790 N   0  0  0  0  0  2  0  0  0  0  0  0
  161.2050  209.2880  150.8270 O   0  0  0  0  0  0  0  0  0  0  0  0
  161.2240  210.3890  151.8480 S   0  0  0  0  0  0  0  0  0  0  0  0
  160.1010  212.8190  151.2780 C   0  0  0  0  0  0  0  0  0  0  0  0
  159.7680  210.2810  152.8580 C   0  0  2  0  0  3  0  0  0  0  0  0
  159.5950  214.4520  157.2610 O   0  0  0  0  0  1  0  0  0  0  0  0
  158.5750  211.2820  154.7260 C   0  0  2  0  0  3  0  0  0  0  0  0
  159.0060  212.4500  151.8780 N   0  0  0  0  0  0  0  0  0  0  0  0
  161.1810  211.9140  151.0560 N   0  0  0  0  0  2  0  0  0  0  0  0
  160.4130  213.6090  156.5090 C   0  0  2  0  0  3  0  0  0  0  0  0
  160.4930  209.7330  155.2200 C   0  0  0  0  0  0  0  0  0  0  0  0
  157.4370  213.3710  154.4710 C   0  0  1  0  0  3  0  0  0  0  0  0
  160.2460  214.1760  150.8810 N   0  0  0  0  0  1  0  0  0  0  0  0
  159.8060  213.3970  155.1250 C   0  0  0  0  0  2  0  0  0  0  0  0
  160.1670  208.3770  155.0370 C   0  0  0  0  0  3  0  0  0  0  0  0
  161.8360  209.1150  157.1500 C   0  0  0  0  0  3  0  0  0  0  0  0
  161.5240  207.7690  156.9440 C   0  0  0  0  0  3  0  0  0  0  0  0
  160.6070  212.2950  157.2490 C   0  0  0  0  0  2  0  0  0  0  0  0
  157.6710  211.1560  153.5130 C   0  0  2  0  0  3  0  0  0  0  0  0
  158.5190  212.6840  155.2090 N   0  0  2  0  0  0  0  0  0  0  0  0
  158.6110  211.0930  152.2980 C   0  0  2  0  0  3  0  0  0  0  0  0
  156.2960  212.8160  152.3820 O   0  0  0  0  0  1  0  0  0  0  0  0
  159.9600  210.7840  154.2820 C   0  0  1  0  0  3  0  0  0  0  0  0
  1  6  1  0  0  0  0
  1 21  1  0  0  0  0
  3 17  1  0  0  0  0
  4 22  1  0  0  0  0
  5 27  1  6  0  0  0
  5 17  1  0  0  0  0
  6 23  1  0  0  0  0
  7  8  2  0  0  0  0
  8  2  2  0  0  0  0
  9 13  2  0  0  0  0
 10  8  1  6  0  0  0
 10 28  1  0  0  0  0
 12 25  1  0  0  0  0
 13 26  1  0  0  0  0
 14  9  1  0  0  0  0
 14  8  1  0  0  0  0
 15 23  1  0  0  0  0
 15 11  1  0  0  0  0
 16  1  2  0  0  0  0
 17 25  1  0  0  0  0
 18  9  1  0  0  0  0
 19 25  1  0  0  0  0
 19 15  1  0  0  0  0
 20 16  1  0  0  0  0
 20  4  2  0  0  0  0
 22 21  2  0  0  0  0
 24  5  1  0  0  0  0
 24 12  1  0  0  0  0
 26 10  1  0  0  0  0
 26 24  1  0  0  0  0
 28 12  1  0  0  0  0
 28 16  1  0  0  0  0
M  END
>  <MODEL>
2

>  <REMARK>
 VINA RESULT:      -1.7      2.452      5.344
  Name = 
  0 active torsions:
  status: ('A' for Active; 'I' for Inactive)
                            x       y       z     vdW  Elec       q    Type
                         _______ _______ _______ _____ _____    ______ ____

>  <TORSDO>
F 0

$$$$
=
 OpenBabel11122414093D

 28 32  0  0  1  0  0  0  0  0999 V2000
  159.1100  212.9280  151.8350 C   0  0  0  0  0  0  0  0  0  0  0  0
  160.0830  214.4450  155.1750 O   0  0  0  0  0  0  0  0  0  0  0  0
  161.9510  208.4910  154.9240 O   0  0  0  0  0  1  0  0  0  0  0  0
  156.4370  213.5290  152.4200 C   0  0  0  0  0  3  0  0  0  0  0  0
  159.5640  208.2950  155.2440 C   0  0  2  0  0  3  0  0  0  0  0  0
  160.4480  212.5800  151.4800 N   0  0  0  0  0  2  0  0  0  0  0  0
  158.8510  214.0090  157.2610 O   0  0  0  0  0  0  0  0  0  0  0  0
  159.7650  213.4170  156.2260 S   0  0  0  0  0  0  0  0  0  0  0  0
  161.5870  211.5000  156.9300 C   0  0  0  0  0  0  0  0  0  0  0  0
  158.9880  211.9960  155.4980 C   0  0  2  0  0  3  0  0  0  0  0  0
  162.3010  209.4500  151.0980 O   0  0  0  0  0  1  0  0  0  0  0  0
  159.2460  210.2240  153.8530 C   0  0  2  0  0  3  0  0  0  0  0  0
  160.7560  210.5740  156.5460 N   0  0  0  0  0  0  0  0  0  0  0  0
  161.2140  212.8760  156.9750 N   0  0  0  0  0  2  0  0  0  0  0  0
  161.9310  210.6480  151.7110 C   0  0  2  0  0  3  0  0  0  0  0  0
  158.5510  212.5070  153.0580 C   0  0  0  0  0  0  0  0  0  0  0  0
  160.7210  208.3850  154.2570 C   0  0  1  0  0  3  0  0  0  0  0  0
  162.9200  211.1360  157.2610 N   0  0  0  0  0  1  0  0  0  0  0  0
  161.6280  210.4030  153.1860 C   0  0  0  0  0  2  0  0  0  0  0  0
  157.2030  212.7980  153.3310 C   0  0  0  0  0  3  0  0  0  0  0  0
  158.3390  213.6690  150.9340 C   0  0  0  0  0  3  0  0  0  0  0  0
  157.0070  213.9720  151.2250 C   0  0  0  0  0  3  0  0  0  0  0  0
  160.7380  211.2460  150.9800 C   0  0  0  0  0  2  0  0  0  0  0  0
  158.8870  209.6510  155.2110 C   0  0  2  0  0  3  0  0  0  0  0  0
  160.4560  209.5260  153.3530 N   0  0  2  0  0  0  0  0  0  0  0  0
  159.3210  210.7100  156.2370 C   0  0  2  0  0  3  0  0  0  0  0  0
  159.9600  207.9100  156.5300 O   0  0  0  0  0  1  0  0  0  0  0  0
  159.3870  211.7420  154.0510 C   0  0  1  0  0  3  0  0  0  0  0  0
  1 16  1  0  0  0  0
  2  8  2  0  0  0  0
  4 20  1  0  0  0  0
  5 27  1  1  0  0  0
  6  1  1  0  0  0  0
  8 14  1  0  0  0  0
  8  7  2  0  0  0  0
  9 14  1  0  0  0  0
  9 18  1  0  0  0  0
 10  8  1  1  0  0  0
 10 26  1  0  0  0  0
 11 15  1  0  0  0  0
 12 28  1  0  0  0  0
 12 24  1  0  0  0  0
 13  9  2  0  0  0  0
 15 19  1  0  0  0  0
 16 20  2  0  0  0  0
 16 28  1  0  0  0  0
 17  3  1  0  0  0  0
 17  5  1  0  0  0  0
 19 25  1  0  0  0  0
 21 22  1  0  0  0  0
 21  1  2  0  0  0  0
 22  4  2  0  0  0  0
 23  6  1  0  0  0  0
 23 15  1  0  0  0  0
 24  5  1  0  0  0  0
 24 26  1  0  0  0  0
 25 12  1  0  0  0  0
 25 17  1  0  0  0  0
 26 13  1  0  0  0  0
 28 10  1  0  0  0  0
M  END
>  <MODEL>
3

>  <REMARK>
 VINA RESULT:      -1.1      2.340      4.529
  Name = 
  0 active torsions:
  status: ('A' for Active; 'I' for Inactive)
                            x       y       z     vdW  Elec       q    Type
                         _______ _______ _______ _____ _____    ______ ____

>  <TORSDO>
F 0

$$$$
=
 OpenBabel11122414093D

 28 32  0  0  1  0  0  0  0  0999 V2000
  159.3390  211.9710  152.2670 C   0  0  0  0  0  0  0  0  0  0  0  0
  156.8450  212.3400  149.4290 O   0  0  0  0  0  0  0  0  0  0  0  0
  162.6300  211.8750  147.1230 O   0  0  0  0  0  1  0  0  0  0  0  0
  158.4350  214.4200  153.2860 C   0  0  0  0  0  3  0  0  0  0  0  0
  162.5790  214.1240  148.0050 C   0  0  2  0  0  3  0  0  0  0  0  0
  159.8560  210.7280  151.7950 N   0  0  0  0  0  2  0  0  0  0  0  0
  156.4900  214.4510  148.2160 O   0  0  0  0  0  0  0  0  0  0  0  0
  157.4430  213.3140  148.4520 S   0  0  0  0  0  0  0  0  0  0  0  0
  159.1070  212.4700  146.4510 C   0  0  0  0  0  0  0  0  0  0  0  0
  158.9810  213.9520  149.0650 C   0  0  2  0  0  3  0  0  0  0  0  0
  163.0270  209.6170  150.3510 O   0  0  0  0  0  1  0  0  0  0  0  0
  161.2130  213.3520  149.8220 C   0  0  2  0  0  3  0  0  0  0  0  0
  160.0630  213.2080  146.9390 N   0  0  0  0  0  0  0  0  0  0  0  0
  157.7780  212.5200  146.9650 N   0  0  0  0  0  2  0  0  0  0  0  0
  161.6760  209.9630  150.3500 C   0  0  2  0  0  3  0  0  0  0  0  0
  159.2950  213.1040  151.4290 C   0  0  0  0  0  0  0  0  0  0  0  0
  162.8870  212.6540  148.2610 C   0  0  1  0  0  3  0  0  0  0  0  0
  159.4100  211.5480  145.4120 N   0  0  0  0  0  1  0  0  0  0  0  0
  161.3960  210.9520  149.2220 C   0  0  0  0  0  2  0  0  0  0  0  0
  158.8580  214.3300  151.9580 C   0  0  0  0  0  3  0  0  0  0  0  0
  158.9020  212.0670  153.5920 C   0  0  0  0  0  3  0  0  0  0  0  0
  158.4490  213.2860  154.1010 C   0  0  0  0  0  3  0  0  0  0  0  0
  161.2940  210.5310  151.7080 C   0  0  0  0  0  2  0  0  0  0  0  0
  161.2780  214.4050  148.7310 C   0  0  2  0  0  3  0  0  0  0  0  0
  162.1030  212.2270  149.4410 N   0  0  2  0  0  0  0  0  0  0  0  0
  159.9610  214.2760  147.9490 C   0  0  2  0  0  3  0  0  0  0  0  0
  162.5320  214.4530  146.6460 O   0  0  0  0  0  1  0  0  0  0  0  0
  159.7260  212.9990  149.9890 C   0  0  1  0  0  3  0  0  0  0  0  0
  1 21  1  0  0  0  0
  3 17  1  0  0  0  0
  4 22  1  0  0  0  0
  5 27  1  6  0  0  0
  5 17  1  0  0  0  0
  5 24  1  0  0  0  0
  6  1  1  0  0  0  0
  7  8  2  0  0  0  0
  8  2  2  0  0  0  0
  9 13  2  0  0  0  0
  9 14  1  0  0  0  0
 10  8  1  6  0  0  0
 10 28  1  0  0  0  0
 12 28  1  0  0  0  0
 13 26  1  0  0  0  0
 14  8  1  0  0  0  0
 15 11  1  0  0  0  0
 15 23  1  0  0  0  0
 16 20  1  0  0  0  0
 16  1  2  0  0  0  0
 17 25  1  0  0  0  0
 18  9  1  0  0  0  0
 19 25  1  0  0  0  0
 19 15  1  0  0  0  0
 20  4  2  0  0  0  0
 21 22  2  0  0  0  0
 23  6  1  0  0  0  0
 24 12  1  0  0  0  0
 25 12  1  0  0  0  0
 26 24  1  0  0  0  0
 26 10  1  0  0  0  0
 28 16  1  0  0  0  0
M  END
>  <MODEL>
4

>  <REMARK>
 VINA RESULT:      -0.8      4.095      7.135
  Name = 
  0 active torsions:
  status: ('A' for Active; 'I' for Inactive)
                            x       y       z     vdW  Elec       q    Type
                         _______ _______ _______ _____ _____    ______ ____

>  <TORSDO>
F 0

$$$$
