=
 OpenBabel11122413273D

 31 35  0  0  1  0  0  0  0  0999 V2000
  160.8790  206.4930  146.6830 C   0  0  0  0  0  0  0  0  0  0  0  0
  160.3380  204.9150  150.1060 C   0  0  2  0  0  3  0  0  0  0  0  0
  160.7790  203.4610  150.0320 C   0  0  0  0  0  0  0  0  0  0  0  0
  161.1990  201.4650  148.7000 C   0  0  0  0  0  0  0  0  0  0  0  0
  160.9070  205.7730  148.9990 C   0  0  0  0  0  0  0  0  0  0  0  0
  161.9640  207.3400  146.9290 C   0  0  0  0  0  3  0  0  0  0  0  0
  160.8770  202.8200  148.7850 C   0  0  0  0  0  3  0  0  0  0  0  0
  162.0690  205.9230  151.6690 C   0  0  2  0  0  3  0  0  0  0  0  0
  160.2880  206.4210  145.3220 C   0  0  0  0  0  1  0  0  0  0  0  0
  160.8850  203.3020  152.5770 C   0  0  0  0  0  2  0  0  0  0  0  0
  161.3060  200.8550  147.4580 O   0  0  0  0  0  1  0  0  0  0  0  0
  162.5240  206.7650  150.5660 N   0  0  0  0  0  2  0  0  0  0  0  0
  160.5880  205.5530  151.4880 C   0  0  2  0  0  3  0  0  0  0  0  0
  160.3510  205.7150  147.7160 C   0  0  0  0  0  3  0  0  0  0  0  0
  161.4080  200.7230  149.8620 C   0  0  0  0  0  3  0  0  0  0  0  0
  161.9970  206.6310  149.2450 C   0  0  0  0  0  0  0  0  0  0  0  0
  162.5180  207.4130  148.2100 C   0  0  0  0  0  3  0  0  0  0  0  0
  160.0990  204.6120  152.5890 C   0  0  0  0  0  2  0  0  0  0  0  0
  160.9560  202.6910  151.2080 C   0  0  0  0  0  0  0  0  0  0  0  0
  161.2880  201.3360  151.1110 C   0  0  0  0  0  3  0  0  0  0  0  0
  160.5660  208.1800  152.5470 O   0  0  0  0  0  0  0  0  0  0  0  0
  161.4690  207.7460  153.3130 C   0  0  0  0  0  0  0  0  0  0  0  0
  162.2640  206.6240  152.9300 N   0  0  0  0  0  2  0  0  0  0  0  0
  159.3800  209.8810  155.6430 C   0  0  1  0  0  3  0  0  0  0  0  0
  160.8380  207.8400  155.7470 C   0  0  0  0  0  2  0  0  0  0  0  0
  162.4060  210.4500  153.5330 O   0  0  0  0  0  1  0  0  0  0  0  0
  158.0650  210.3280  155.5310 O   0  0  0  0  0  1  0  0  0  0  0  0
  159.4020  208.3560  155.6340 C   0  0  0  0  0  2  0  0  0  0  0  0
  161.6460  209.9420  154.5880 C   0  0  2  0  0  3  0  0  0  0  0  0
  161.7300  208.4070  154.6360 C   0  0  2  0  0  3  0  0  0  0  0  0
  160.2030  210.4280  154.4800 C   0  0  0  0  0  2  0  0  0  0  0  0
  1  6  2  0  0  0  0
  1 14  1  0  0  0  0
  2  5  1  6  0  0  0
  2 13  1  0  0  0  0
  3  2  1  0  0  0  0
  3 19  1  0  0  0  0
  4  7  1  0  0  0  0
  4 15  2  0  0  0  0
  5 16  1  0  0  0  0
  6 17  1  0  0  0  0
  7  3  2  0  0  0  0
  8 23  1  1  0  0  0
  9  1  1  0  0  0  0
 10 18  1  0  0  0  0
 11  4  1  0  0  0  0
 12  8  1  0  0  0  0
 13  8  1  0  0  0  0
 13 18  1  1  0  0  0
 14  5  2  0  0  0  0
 15 20  1  0  0  0  0
 16 12  1  0  0  0  0
 17 16  2  0  0  0  0
 19 10  1  0  0  0  0
 20 19  2  0  0  0  0
 21 22  2  0  0  0  0
 23 22  1  0  0  0  0
 24 27  1  6  0  0  0
 28 24  1  0  0  0  0
 28 25  1  0  0  0  0
 29 26  1  6  0  0  0
 29 30  1  0  0  0  0
 30 22  1  6  0  0  0
 30 25  1  0  0  0  0
 31 29  1  0  0  0  0
 31 24  1  0  0  0  0
M  END
>  <MODEL>
1

>  <REMARK>
 VINA RESULT:      -7.6      0.000      0.000
  Name = 
  2 active torsions:
  status: ('A' for Active; 'I' for Inactive)
    1  A    between atoms: C_5  and  C_30
    2  A    between atoms: C_10  and  N_16
                            x       y       z     vdW  Elec       q    Type
                         _______ _______ _______ _____ _____    ______ ____

>  <TORSDO>
F 2

$$$$
=
 OpenBabel11122413273D

 31 35  0  0  1  0  0  0  0  0999 V2000
  161.0260  204.3410  145.5860 C   0  0  0  0  0  0  0  0  0  0  0  0
  160.5360  205.9360  149.0090 C   0  0  2  0  0  3  0  0  0  0  0  0
  160.9170  204.9120  150.0670 C   0  0  0  0  0  0  0  0  0  0  0  0
  161.2150  202.5840  150.7170 C   0  0  0  0  0  0  0  0  0  0  0  0
  161.1020  205.6270  147.6420 C   0  0  0  0  0  0  0  0  0  0  0  0
  162.1510  205.0240  145.1130 C   0  0  0  0  0  3  0  0  0  0  0  0
  160.9500  203.5450  149.7420 C   0  0  0  0  0  3  0  0  0  0  0  0
  162.3550  207.6900  149.2770 C   0  0  2  0  0  3  0  0  0  0  0  0
  160.3890  203.2920  144.7490 C   0  0  0  0  0  1  0  0  0  0  0  0
  161.1000  206.7320  151.8470 C   0  0  0  0  0  2  0  0  0  0  0  0
  161.2580  201.2390  150.3710 O   0  0  0  0  0  1  0  0  0  0  0  0
  162.8060  207.3790  147.9230 N   0  0  0  0  0  2  0  0  0  0  0  0
  160.8560  207.3860  149.4280 C   0  0  2  0  0  3  0  0  0  0  0  0
  160.5020  204.6450  146.8440 C   0  0  0  0  0  3  0  0  0  0  0  0
  161.4330  202.9710  152.0390 C   0  0  0  0  0  3  0  0  0  0  0  0
  162.2320  206.3160  147.1600 C   0  0  0  0  0  0  0  0  0  0  0  0
  162.7490  206.0150  145.8970 C   0  0  0  0  0  3  0  0  0  0  0  0
  160.3660  207.6330  150.8550 C   0  0  0  0  0  2  0  0  0  0  0  0
  161.1020  205.2940  151.4190 C   0  0  0  0  0  0  0  0  0  0  0  0
  161.3780  204.3220  152.3870 C   0  0  0  0  0  3  0  0  0  0  0  0
  161.3010  209.9000  147.8180 O   0  0  0  0  0  0  0  0  0  0  0  0
  162.0510  210.1530  148.8010 C   0  0  0  0  0  0  0  0  0  0  0  0
  162.6180  209.0920  149.5690 N   0  0  0  0  0  2  0  0  0  0  0  0
  160.9940  213.5270  147.4400 C   0  0  1  0  0  3  0  0  0  0  0  0
  161.1210  212.3340  149.6440 C   0  0  0  0  0  2  0  0  0  0  0  0
  164.2030  211.6250  147.6010 O   0  0  0  0  0  1  0  0  0  0  0  0
  160.1550  213.8550  146.3770 O   0  0  0  0  0  1  0  0  0  0  0  0
  160.2180  212.7140  148.4700 C   0  0  0  0  0  2  0  0  0  0  0  0
  163.1080  212.3510  148.0740 C   0  0  2  0  0  3  0  0  0  0  0  0
  162.3670  211.5730  149.1740 C   0  0  2  0  0  3  0  0  0  0  0  0
  162.1820  212.7220  146.9190 C   0  0  0  0  0  2  0  0  0  0  0  0
  1 14  1  0  0  0  0
  2  5  1  6  0  0  0
  2 13  1  0  0  0  0
  2  3  1  0  0  0  0
  3 19  1  0  0  0  0
  4 15  2  0  0  0  0
  6  1  2  0  0  0  0
  6 17  1  0  0  0  0
  7  3  2  0  0  0  0
  7  4  1  0  0  0  0
  8 13  1  0  0  0  0
  8 23  1  6  0  0  0
  9  1  1  0  0  0  0
 11  4  1  0  0  0  0
 12  8  1  0  0  0  0
 13 18  1  1  0  0  0
 14  5  2  0  0  0  0
 15 20  1  0  0  0  0
 16  5  1  0  0  0  0
 16 12  1  0  0  0  0
 17 16  2  0  0  0  0
 18 10  1  0  0  0  0
 19 10  1  0  0  0  0
 19 20  2  0  0  0  0
 21 22  2  0  0  0  0
 22 23  1  0  0  0  0
 24 27  1  6  0  0  0
 24 28  1  0  0  0  0
 28 25  1  0  0  0  0
 29 26  1  6  0  0  0
 29 30  1  0  0  0  0
 30 22  1  6  0  0  0
 30 25  1  0  0  0  0
 31 24  1  0  0  0  0
 31 29  1  0  0  0  0
M  END
>  <MODEL>
2

>  <REMARK>
 VINA RESULT:      -7.5      3.489      4.802
  Name = 
  2 active torsions:
  status: ('A' for Active; 'I' for Inactive)
    1  A    between atoms: C_5  and  C_30
    2  A    between atoms: C_10  and  N_16
                            x       y       z     vdW  Elec       q    Type
                         _______ _______ _______ _____ _____    ______ ____

>  <TORSDO>
F 2

$$$$
=
 OpenBabel11122413273D

 31 35  0  0  1  0  0  0  0  0999 V2000
  161.6080  206.5740  152.0130 C   0  0  0  0  0  0  0  0  0  0  0  0
  159.9540  209.7920  153.2020 C   0  0  2  0  0  3  0  0  0  0  0  0
  160.6010  210.1980  154.5180 C   0  0  0  0  0  0  0  0  0  0  0  0
  161.8260  209.5770  156.5290 C   0  0  0  0  0  0  0  0  0  0  0  0
  160.7910  208.8270  152.3940 C   0  0  0  0  0  0  0  0  0  0  0  0
  162.3540  207.0250  150.9210 C   0  0  0  0  0  3  0  0  0  0  0  0
  161.2970  209.2460  155.2810 C   0  0  0  0  0  3  0  0  0  0  0  0
  160.7170  211.6400  151.6340 C   0  0  2  0  0  3  0  0  0  0  0  0
  161.6460  205.1390  152.3970 C   0  0  0  0  0  1  0  0  0  0  0  0
  159.6750  212.5680  154.3080 C   0  0  0  0  0  2  0  0  0  0  0  0
  162.5250  208.6250  157.2600 O   0  0  0  0  0  1  0  0  0  0  0  0
  161.4520  210.6390  150.8660 N   0  0  0  0  0  2  0  0  0  0  0  0
  159.5160  210.9980  152.3460 C   0  0  2  0  0  3  0  0  0  0  0  0
  160.8260  207.4710  152.7450 C   0  0  0  0  0  3  0  0  0  0  0  0
  161.6490  210.8610  157.0440 C   0  0  0  0  0  3  0  0  0  0  0  0
  161.5410  209.2770  151.2900 C   0  0  0  0  0  0  0  0  0  0  0  0
  162.3160  208.3740  150.5560 C   0  0  0  0  0  3  0  0  0  0  0  0
  158.7660  212.0060  153.2170 C   0  0  0  0  0  2  0  0  0  0  0  0
  160.3930  211.4890  155.0650 C   0  0  0  0  0  0  0  0  0  0  0  0
  160.9360  211.8120  156.3130 C   0  0  0  0  0  3  0  0  0  0  0  0
  161.6920  212.0980  148.9950 O   0  0  0  0  0  0  0  0  0  0  0  0
  160.7950  212.8730  149.4290 C   0  0  0  0  0  0  0  0  0  0  0  0
  160.2700  212.7030  150.7460 N   0  0  0  0  0  2  0  0  0  0  0  0
  158.0100  213.1480  146.8770 C   0  0  1  0  0  3  0  0  0  0  0  0
  158.8240  214.3520  148.9230 C   0  0  0  0  0  2  0  0  0  0  0  0
  161.7360  213.3460  146.7600 O   0  0  0  0  0  1  0  0  0  0  0  0
  157.1090  212.1930  146.4080 O   0  0  0  0  0  1  0  0  0  0  0  0
  157.8390  213.3140  148.3830 C   0  0  0  0  0  2  0  0  0  0  0  0
  160.4320  213.7410  147.0640 C   0  0  2  0  0  3  0  0  0  0  0  0
  160.2720  213.9910  148.5740 C   0  0  2  0  0  3  0  0  0  0  0  0
  159.4340  212.7050  146.5530 C   0  0  0  0  0  2  0  0  0  0  0  0
  1  9  1  0  0  0  0
  1 14  1  0  0  0  0
  2  5  1  6  0  0  0
  2  3  1  0  0  0  0
  3 19  2  0  0  0  0
  3  7  1  0  0  0  0
  4 15  1  0  0  0  0
  4 11  1  0  0  0  0
  5 14  2  0  0  0  0
  6  1  2  0  0  0  0
  7  4  2  0  0  0  0
  8 23  1  6  0  0  0
  8 13  1  0  0  0  0
 10 19  1  0  0  0  0
 12 16  1  0  0  0  0
 12  8  1  0  0  0  0
 13  2  1  0  0  0  0
 13 18  1  1  0  0  0
 16  5  1  0  0  0  0
 17  6  1  0  0  0  0
 17 16  2  0  0  0  0
 18 10  1  0  0  0  0
 19 20  1  0  0  0  0
 20 15  2  0  0  0  0
 21 22  2  0  0  0  0
 22 23  1  0  0  0  0
 24 27  1  1  0  0  0
 24 28  1  0  0  0  0
 28 25  1  0  0  0  0
 29 26  1  1  0  0  0
 29 30  1  0  0  0  0
 30 25  1  0  0  0  0
 30 22  1  1  0  0  0
 31 24  1  0  0  0  0
 31 29  1  0  0  0  0
M  END
>  <MODEL>
3

>  <REMARK>
 VINA RESULT:      -7.0      4.367      7.992
  Name = 
  2 active torsions:
  status: ('A' for Active; 'I' for Inactive)
    1  A    between atoms: C_5  and  C_30
    2  A    between atoms: C_10  and  N_16
                            x       y       z     vdW  Elec       q    Type
                         _______ _______ _______ _____ _____    ______ ____

>  <TORSDO>
F 2

$$$$
=
 OpenBabel11122413273D

 31 35  0  0  1  0  0  0  0  0999 V2000
  160.9980  204.9830  145.3140 C   0  0  0  0  0  0  0  0  0  0  0  0
  160.5140  205.1540  149.0870 C   0  0  2  0  0  3  0  0  0  0  0  0
  160.9100  203.8080  149.6770 C   0  0  0  0  0  0  0  0  0  0  0  0
  161.2290  201.4100  149.3930 C   0  0  0  0  0  0  0  0  0  0  0  0
  161.0750  205.3920  147.7040 C   0  0  0  0  0  0  0  0  0  0  0  0
  162.1150  205.8050  145.1330 C   0  0  0  0  0  3  0  0  0  0  0  0
  160.9510  202.6680  148.8570 C   0  0  0  0  0  3  0  0  0  0  0  0
  162.3210  206.6910  149.9970 C   0  0  2  0  0  3  0  0  0  0  0  0
  160.3650  204.3240  144.1430 C   0  0  0  0  0  1  0  0  0  0  0  0
  161.0870  204.8180  152.0140 C   0  0  0  0  0  2  0  0  0  0  0  0
  161.2810  200.2980  148.5630 O   0  0  0  0  0  1  0  0  0  0  0  0
  162.7670  206.9220  148.6270 N   0  0  0  0  0  2  0  0  0  0  0  0
  160.8250  206.3390  150.0250 C   0  0  2  0  0  3  0  0  0  0  0  0
  160.4790  204.7810  146.5950 C   0  0  0  0  0  3  0  0  0  0  0  0
  161.4510  201.2690  150.7630 C   0  0  0  0  0  3  0  0  0  0  0  0
  162.1970  206.2230  147.5180 C   0  0  0  0  0  0  0  0  0  0  0  0
  162.7100  206.4290  146.2340 C   0  0  0  0  0  3  0  0  0  0  0  0
  160.3420  206.0200  151.4400 C   0  0  0  0  0  2  0  0  0  0  0  0
  161.0990  203.6500  151.0720 C   0  0  0  0  0  0  0  0  0  0  0  0
  161.3870  202.3860  151.5980 C   0  0  0  0  0  3  0  0  0  0  0  0
  161.5690  209.3460  149.2870 O   0  0  0  0  0  0  0  0  0  0  0  0
  162.1640  209.1830  150.3880 C   0  0  0  0  0  0  0  0  0  0  0  0
  162.5750  207.8790  150.7990 N   0  0  0  0  0  2  0  0  0  0  0  0
  160.1370  211.1230  152.9330 C   0  0  1  0  0  3  0  0  0  0  0  0
  162.3680  209.9850  152.7630 C   0  0  0  0  0  2  0  0  0  0  0  0
  161.6350  211.8920  149.6010 O   0  0  0  0  0  1  0  0  0  0  0  0
  158.8170  210.9690  153.3510 O   0  0  0  0  0  1  0  0  0  0  0  0
  160.9160  209.8440  153.2220 C   0  0  0  0  0  2  0  0  0  0  0  0
  161.6060  211.5980  150.9660 C   0  0  2  0  0  3  0  0  0  0  0  0
  162.4570  210.3560  151.2780 C   0  0  2  0  0  3  0  0  0  0  0  0
  160.1640  211.4310  151.4390 C   0  0  0  0  0  2  0  0  0  0  0  0
  1 14  1  0  0  0  0
  2  5  1  6  0  0  0
  2  3  1  0  0  0  0
  2 13  1  0  0  0  0
  3 19  1  0  0  0  0
  4 15  2  0  0  0  0
  6  1  2  0  0  0  0
  6 17  1  0  0  0  0
  7  4  1  0  0  0  0
  7  3  2  0  0  0  0
  8 13  1  0  0  0  0
  8 23  1  1  0  0  0
  9  1  1  0  0  0  0
 11  4  1  0  0  0  0
 12  8  1  0  0  0  0
 13 18  1  1  0  0  0
 14  5  2  0  0  0  0
 15 20  1  0  0  0  0
 16  5  1  0  0  0  0
 16 12  1  0  0  0  0
 17 16  2  0  0  0  0
 18 10  1  0  0  0  0
 19 20  2  0  0  0  0
 19 10  1  0  0  0  0
 21 22  2  0  0  0  0
 22 23  1  0  0  0  0
 24 28  1  0  0  0  0
 24 27  1  6  0  0  0
 25 28  1  0  0  0  0
 29 26  1  6  0  0  0
 29 30  1  0  0  0  0
 29 31  1  0  0  0  0
 30 22  1  6  0  0  0
 30 25  1  0  0  0  0
 31 24  1  0  0  0  0
M  END
>  <MODEL>
4

>  <REMARK>
 VINA RESULT:      -6.5      1.991      2.424
  Name = 
  2 active torsions:
  status: ('A' for Active; 'I' for Inactive)
    1  A    between atoms: C_5  and  C_30
    2  A    between atoms: C_10  and  N_16
                            x       y       z     vdW  Elec       q    Type
                         _______ _______ _______ _____ _____    ______ ____

>  <TORSDO>
F 2

$$$$
=
 OpenBabel11122413273D

 31 35  0  0  1  0  0  0  0  0999 V2000
  161.8340  212.8770  148.1820 C   0  0  0  0  0  0  0  0  0  0  0  0
  159.5720  213.9210  151.0620 C   0  0  2  0  0  3  0  0  0  0  0  0
  158.1360  213.9230  150.5590 C   0  0  0  0  0  0  0  0  0  0  0  0
  156.5680  214.0800  148.7030 C   0  0  0  0  0  0  0  0  0  0  0  0
  160.5090  213.1050  150.2020 C   0  0  0  0  0  0  0  0  0  0  0  0
  162.2300  211.5970  148.5820 C   0  0  0  0  0  3  0  0  0  0  0  0
  157.8760  213.9930  149.1810 C   0  0  0  0  0  3  0  0  0  0  0  0
  159.5580  212.0010  152.7260 C   0  0  2  0  0  3  0  0  0  0  0  0
  162.3230  213.4380  146.8960 C   0  0  0  0  0  1  0  0  0  0  0  0
  157.2380  213.9170  152.9490 C   0  0  0  0  0  2  0  0  0  0  0  0
  156.3310  214.1310  147.3360 O   0  0  0  0  0  1  0  0  0  0  0  0
  160.5120  211.2990  151.8730 N   0  0  0  0  0  2  0  0  0  0  0  0
  159.6920  213.5220  152.5480 C   0  0  2  0  0  3  0  0  0  0  0  0
  160.9800  213.6290  148.9920 C   0  0  0  0  0  3  0  0  0  0  0  0
  155.4990  214.1180  149.5980 C   0  0  0  0  0  3  0  0  0  0  0  0
  160.9140  211.8170  150.6030 C   0  0  0  0  0  0  0  0  0  0  0  0
  161.7750  211.0700  149.7940 C   0  0  0  0  0  3  0  0  0  0  0  0
  158.6580  214.2860  153.3740 C   0  0  0  0  0  2  0  0  0  0  0  0
  157.0470  214.0020  151.4630 C   0  0  0  0  0  0  0  0  0  0  0  0
  155.7390  214.0780  150.9730 C   0  0  0  0  0  3  0  0  0  0  0  0
  157.6010  210.8900  154.4750 O   0  0  0  0  0  0  0  0  0  0  0  0
  158.7600  211.0730  154.9380 C   0  0  0  0  0  0  0  0  0  0  0  0
  159.7850  211.6340  154.1170 N   0  0  0  0  0  2  0  0  0  0  0  0
  161.9800  210.7520  156.9070 C   0  0  1  0  0  3  0  0  0  0  0  0
  159.7440  211.8740  157.1100 C   0  0  0  0  0  2  0  0  0  0  0  0
  159.3320  208.3840  155.7610 O   0  0  0  0  0  1  0  0  0  0  0  0
  163.3060  210.9320  156.5160 O   0  0  0  0  0  1  0  0  0  0  0  0
  161.2060  212.0490  156.6960 C   0  0  0  0  0  2  0  0  0  0  0  0
  159.9030  209.4210  156.5010 C   0  0  2  0  0  3  0  0  0  0  0  0
  159.0800  210.7130  156.3600 C   0  0  2  0  0  3  0  0  0  0  0  0
  161.3570  209.6270  156.0860 C   0  0  0  0  0  2  0  0  0  0  0  0
  1  6  2  0  0  0  0
  1 14  1  0  0  0  0
  2  5  1  6  0  0  0
  2 13  1  0  0  0  0
  3  2  1  0  0  0  0
  3 19  1  0  0  0  0
  4  7  1  0  0  0  0
  4 15  2  0  0  0  0
  5 16  1  0  0  0  0
  6 17  1  0  0  0  0
  7  3  2  0  0  0  0
  8 23  1  1  0  0  0
  9  1  1  0  0  0  0
 10 18  1  0  0  0  0
 11  4  1  0  0  0  0
 12  8  1  0  0  0  0
 13  8  1  0  0  0  0
 13 18  1  1  0  0  0
 14  5  2  0  0  0  0
 15 20  1  0  0  0  0
 16 12  1  0  0  0  0
 17 16  2  0  0  0  0
 19 10  1  0  0  0  0
 20 19  2  0  0  0  0
 21 22  2  0  0  0  0
 23 22  1  0  0  0  0
 24 27  1  6  0  0  0
 28 24  1  0  0  0  0
 28 25  1  0  0  0  0
 29 26  1  6  0  0  0
 30 22  1  6  0  0  0
 30 29  1  0  0  0  0
 30 25  1  0  0  0  0
 31 29  1  0  0  0  0
 31 24  1  0  0  0  0
M  END
>  <MODEL>
5

>  <REMARK>
 VINA RESULT:      -5.3      6.006      8.242
  Name = 
  2 active torsions:
  status: ('A' for Active; 'I' for Inactive)
    1  A    between atoms: C_5  and  C_30
    2  A    between atoms: C_10  and  N_16
                            x       y       z     vdW  Elec       q    Type
                         _______ _______ _______ _____ _____    ______ ____

>  <TORSDO>
F 2

$$$$
=
 OpenBabel11122413273D

 31 35  0  0  1  0  0  0  0  0999 V2000
  160.9850  201.4370  149.0740 C   0  0  0  0  0  0  0  0  0  0  0  0
  162.2480  204.9450  149.8470 C   0  0  2  0  0  3  0  0  0  0  0  0
  161.6910  205.8910  148.7940 C   0  0  0  0  0  0  0  0  0  0  0  0
  160.7970  206.2410  146.5560 C   0  0  0  0  0  0  0  0  0  0  0  0
  161.4860  203.6430  149.9490 C   0  0  0  0  0  0  0  0  0  0  0  0
  160.0660  201.2310  150.1080 C   0  0  0  0  0  3  0  0  0  0  0  0
  161.2330  205.3840  147.5670 C   0  0  0  0  0  3  0  0  0  0  0  0
  161.0510  205.7170  151.9510 C   0  0  2  0  0  3  0  0  0  0  0  0
  161.2060  200.3770  148.0560 C   0  0  0  0  0  1  0  0  0  0  0  0
  162.2190  207.9190  150.2530 C   0  0  0  0  0  2  0  0  0  0  0  0
  160.3320  205.7180  145.3560 O   0  0  0  0  0  1  0  0  0  0  0  0
  160.3990  204.4120  152.0180 N   0  0  0  0  0  2  0  0  0  0  0  0
  162.4050  205.6070  151.2320 C   0  0  2  0  0  3  0  0  0  0  0  0
  161.6950  202.6370  148.9980 C   0  0  0  0  0  3  0  0  0  0  0  0
  160.8300  207.6220  146.7490 C   0  0  0  0  0  3  0  0  0  0  0  0
  160.5630  203.4310  150.9920 C   0  0  0  0  0  0  0  0  0  0  0  0
  159.8600  202.2260  151.0690 C   0  0  0  0  0  3  0  0  0  0  0  0
  163.0810  206.9690  151.0820 C   0  0  0  0  0  2  0  0  0  0  0  0
  161.7580  207.2960  148.9670 C   0  0  0  0  0  0  0  0  0  0  0  0
  161.3090  208.1460  147.9510 C   0  0  0  0  0  3  0  0  0  0  0  0
  160.4570  208.3780  152.7780 O   0  0  0  0  0  0  0  0  0  0  0  0
  160.9090  207.5840  153.6480 C   0  0  0  0  0  0  0  0  0  0  0  0
  161.2340  206.2390  153.2980 N   0  0  0  0  0  2  0  0  0  0  0  0
  159.0550  209.9530  155.9510 C   0  0  1  0  0  3  0  0  0  0  0  0
  159.9700  207.6160  155.9820 C   0  0  0  0  0  2  0  0  0  0  0  0
  162.4040  209.9450  154.3020 O   0  0  0  0  0  1  0  0  0  0  0  0
  157.9100  210.7180  155.7370 O   0  0  0  0  0  1  0  0  0  0  0  0
  158.7250  208.4760  155.7610 C   0  0  0  0  0  2  0  0  0  0  0  0
  161.4020  209.5490  155.1890 C   0  0  2  0  0  3  0  0  0  0  0  0
  161.1210  208.0420  155.0620 C   0  0  2  0  0  3  0  0  0  0  0  0
  160.1420  210.3810  154.9690 C   0  0  0  0  0  2  0  0  0  0  0  0
  1  6  1  0  0  0  0
  2  3  1  6  0  0  0
  2  5  1  0  0  0  0
  2 13  1  0  0  0  0
  3 19  1  0  0  0  0
  4 15  2  0  0  0  0
  4  7  1  0  0  0  0
  5 16  2  0  0  0  0
  6 17  2  0  0  0  0
  7  3  2  0  0  0  0
  8 12  1  0  0  0  0
  8 23  1  1  0  0  0
  9  1  1  0  0  0  0
 10 18  1  0  0  0  0
 11  4  1  0  0  0  0
 13 18  1  6  0  0  0
 13  8  1  0  0  0  0
 14  1  2  0  0  0  0
 14  5  1  0  0  0  0
 15 20  1  0  0  0  0
 16 17  1  0  0  0  0
 16 12  1  0  0  0  0
 19 10  1  0  0  0  0
 20 19  2  0  0  0  0
 21 22  2  0  0  0  0
 23 22  1  0  0  0  0
 24 27  1  6  0  0  0
 28 24  1  0  0  0  0
 28 25  1  0  0  0  0
 29 26  1  6  0  0  0
 30 22  1  6  0  0  0
 30 29  1  0  0  0  0
 30 25  1  0  0  0  0
 31 29  1  0  0  0  0
 31 24  1  0  0  0  0
M  END
>  <MODEL>
6

>  <REMARK>
 VINA RESULT:      -4.8      1.463      3.971
  Name = 
  2 active torsions:
  status: ('A' for Active; 'I' for Inactive)
    1  A    between atoms: C_5  and  C_30
    2  A    between atoms: C_10  and  N_16
                            x       y       z     vdW  Elec       q    Type
                         _______ _______ _______ _____ _____    ______ ____

>  <TORSDO>
F 2

$$$$
