=
 OpenBabel11122412383D

 30 35  0  0  1  0  0  0  0  0999 V2000
  161.5480  208.7290  151.6560 C   0  0  0  0  0  0  0  0  0  0  0  0
  161.3300  209.6550  154.0310 C   0  0  0  0  0  0  0  0  0  0  0  0
  160.9270  204.8820  152.9540 N   0  0  0  0  0  0  0  0  0  0  0  0
  161.5000  207.6320  150.7450 C   0  0  0  0  0  0  0  0  0  0  0  0
  161.8020  209.9720  151.1750 N   0  0  0  0  0  0  0  0  0  0  0  0
  161.9550  209.3870  147.7070 O   0  0  0  0  0  0  0  0  0  0  0  0
  162.2750  205.7270  148.4340 C   0  0  1  0  0  3  0  0  0  0  0  0
  161.8410  209.1570  148.9440 C   0  0  0  0  0  0  0  0  0  0  0  0
  161.9550  204.6550  149.4580 C   0  0  2  0  0  3  0  0  0  0  0  0
  161.1220  204.2590  151.7720 C   0  0  0  0  0  0  0  0  0  0  0  0
  161.9700  210.2100  149.8550 C   0  0  0  0  0  0  0  0  0  0  0  0
  161.5770  207.8890  149.3950 N   0  0  0  0  0  0  0  0  0  0  0  0
  161.4100  209.3660  155.5030 C   0  0  0  0  0  2  0  0  0  0  0  0
  161.0860  203.6470  148.7340 C   0  0  0  0  0  2  0  0  0  0  0  0
  162.2770  205.0060  147.0950 C   0  0  0  0  0  2  0  0  0  0  0  0
  161.3110  210.8560  153.6530 O   0  0  0  0  0  0  0  0  0  0  0  0
  161.0600  206.1800  152.6390 C   0  0  0  0  0  0  0  0  0  0  0  0
  160.9040  207.9970  155.8630 C   0  0  0  0  0  3  0  0  0  0  0  0
  161.3230  208.5360  153.0490 C   0  0  0  0  0  0  0  0  0  0  0  0
  161.3100  206.3390  151.2980 C   0  0  0  0  0  0  0  0  0  0  0  0
  161.1790  202.7700  151.6780 C   0  0  0  0  0  1  0  0  0  0  0  0
  161.3660  205.1040  150.7320 N   0  0  0  0  0  0  0  0  0  0  0  0
  161.5720  203.6720  147.2980 C   0  0  0  0  0  2  0  0  0  0  0  0
  159.8000  206.4910  148.3820 C   0  0  0  0  0  1  0  0  0  0  0  0
  160.7770  207.0180  154.9660 C   0  0  0  0  0  3  0  0  0  0  0  0
  161.0580  207.2420  153.5370 C   0  0  0  0  0  0  0  0  0  0  0  0
  161.2780  206.8750  148.3860 C   0  0  2  0  0  3  0  0  0  0  0  0
  162.2770  211.5980  149.3980 C   0  0  0  0  0  2  0  0  0  0  0  0
  160.6970  212.5740  147.9140 O   0  0  0  0  0  1  0  0  0  0  0  0
  160.9940  212.3950  149.2640 C   0  0  0  0  0  2  0  0  0  0  0  0
  1 19  1  0  0  0  0
  2 13  1  0  0  0  0
  4 20  1  0  0  0  0
  4  1  2  0  0  0  0
  5  1  1  0  0  0  0
  6  8  2  0  0  0  0
  7 15  1  6  0  0  0
  7  9  1  0  0  0  0
  8 12  1  0  0  0  0
  8 11  1  0  0  0  0
  9 14  1  6  0  0  0
  9 22  1  0  0  0  0
 10  3  2  0  0  0  0
 11  5  2  0  0  0  0
 12  4  1  0  0  0  0
 13 18  1  0  0  0  0
 15 23  1  0  0  0  0
 16  2  2  0  0  0  0
 17  3  1  0  0  0  0
 17 26  1  0  0  0  0
 19 26  2  0  0  0  0
 19  2  1  0  0  0  0
 20 17  2  0  0  0  0
 21 10  1  0  0  0  0
 22 20  1  0  0  0  0
 22 10  1  0  0  0  0
 23 14  1  0  0  0  0
 25 18  2  0  0  0  0
 26 25  1  0  0  0  0
 27 24  1  1  0  0  0
 27  7  1  0  0  0  0
 27 12  1  0  0  0  0
 28 11  1  0  0  0  0
 29 30  1  0  0  0  0
 30 28  1  0  0  0  0
M  END
>  <MODEL>
1

>  <REMARK>
 VINA RESULT:      -7.8      0.000      0.000
  Name = 
  2 active torsions:
  status: ('A' for Active; 'I' for Inactive)
    1  A    between atoms: C_11  and  C_28
    2  A    between atoms: C_28  and  C_30
                            x       y       z     vdW  Elec       q    Type
                         _______ _______ _______ _____ _____    ______ ____

>  <TORSDO>
F 2

$$$$
=
 OpenBabel11122412383D

 30 35  0  0  1  0  0  0  0  0999 V2000
  161.2140  205.7180  149.7950 C   0  0  0  0  0  0  0  0  0  0  0  0
  161.2220  203.1810  149.4710 C   0  0  0  0  0  0  0  0  0  0  0  0
  160.9630  205.3330  153.8760 N   0  0  0  0  0  0  0  0  0  0  0  0
  161.2120  206.8580  150.6540 C   0  0  0  0  0  0  0  0  0  0  0  0
  161.2530  205.9090  148.4520 N   0  0  0  0  0  0  0  0  0  0  0  0
  161.5310  209.4110  148.2260 O   0  0  0  0  0  0  0  0  0  0  0  0
  160.4840  209.6310  151.8150 C   0  0  1  0  0  3  0  0  0  0  0  0
  161.4150  208.2620  148.7380 C   0  0  0  0  0  0  0  0  0  0  0  0
  160.4570  208.8690  153.1260 C   0  0  2  0  0  3  0  0  0  0  0  0
  160.8470  206.6440  154.1750 C   0  0  0  0  0  0  0  0  0  0  0  0
  161.3300  207.1420  147.9030 C   0  0  0  0  0  0  0  0  0  0  0  0
  161.3870  208.1060  150.1000 N   0  0  0  0  0  0  0  0  0  0  0  0
  160.8720  201.8400  150.0500 C   0  0  0  0  0  2  0  0  0  0  0  0
  161.2400  209.7180  154.1060 C   0  0  0  0  0  2  0  0  0  0  0  0
  160.5620  211.0970  152.2120 C   0  0  0  0  0  2  0  0  0  0  0  0
  161.5040  203.2520  148.2450 O   0  0  0  0  0  0  0  0  0  0  0  0
  161.1040  205.3360  152.5410 C   0  0  0  0  0  0  0  0  0  0  0  0
  161.0760  201.7700  151.5380 C   0  0  0  0  0  3  0  0  0  0  0  0
  161.1880  204.3980  150.3270 C   0  0  0  0  0  0  0  0  0  0  0  0
  161.0910  206.6170  152.0480 C   0  0  0  0  0  0  0  0  0  0  0  0
  160.5520  207.1020  155.5650 C   0  0  0  0  0  1  0  0  0  0  0  0
  160.9130  207.4690  153.0930 N   0  0  0  0  0  0  0  0  0  0  0  0
  160.9900  211.1480  153.6720 C   0  0  0  0  0  2  0  0  0  0  0  0
  163.0320  209.2290  151.5720 C   0  0  0  0  0  1  0  0  0  0  0  0
  161.1680  202.8580  152.3040 C   0  0  0  0  0  3  0  0  0  0  0  0
  161.1510  204.2120  151.7230 C   0  0  0  0  0  0  0  0  0  0  0  0
  161.6570  209.2910  150.9090 C   0  0  2  0  0  3  0  0  0  0  0  0
  161.3380  207.2800  146.4170 C   0  0  0  0  0  2  0  0  0  0  0  0
  161.0960  205.6490  144.7050 O   0  0  0  0  0  1  0  0  0  0  0  0
  160.4440  206.2250  145.7950 C   0  0  0  0  0  2  0  0  0  0  0  0
  1 19  2  0  0  0  0
  1  4  1  0  0  0  0
  2 13  1  0  0  0  0
  2 19  1  0  0  0  0
  3 10  2  0  0  0  0
  4 20  2  0  0  0  0
  5  1  1  0  0  0  0
  6  8  2  0  0  0  0
  7 15  1  1  0  0  0
  7  9  1  0  0  0  0
  8 12  1  0  0  0  0
  9 14  1  1  0  0  0
 10 21  1  0  0  0  0
 11  5  2  0  0  0  0
 11  8  1  0  0  0  0
 12  4  1  0  0  0  0
 12 27  1  0  0  0  0
 13 18  1  0  0  0  0
 15 23  1  0  0  0  0
 16  2  2  0  0  0  0
 17  3  1  0  0  0  0
 18 25  2  0  0  0  0
 19 26  1  0  0  0  0
 20 17  1  0  0  0  0
 20 22  1  0  0  0  0
 22  9  1  0  0  0  0
 22 10  1  0  0  0  0
 23 14  1  0  0  0  0
 26 25  1  0  0  0  0
 26 17  2  0  0  0  0
 27 24  1  1  0  0  0
 27  7  1  0  0  0  0
 28 11  1  0  0  0  0
 29 30  1  0  0  0  0
 30 28  1  0  0  0  0
M  END
>  <MODEL>
2

>  <REMARK>
 VINA RESULT:      -7.4      1.952      5.593
  Name = 
  2 active torsions:
  status: ('A' for Active; 'I' for Inactive)
    1  A    between atoms: C_11  and  C_28
    2  A    between atoms: C_28  and  C_30
                            x       y       z     vdW  Elec       q    Type
                         _______ _______ _______ _____ _____    ______ ____

>  <TORSDO>
F 2

$$$$
=
 OpenBabel11122412383D

 30 35  0  0  1  0  0  0  0  0999 V2000
  161.3180  208.0060  151.6380 C   0  0  0  0  0  0  0  0  0  0  0  0
  161.6830  210.4990  151.2010 C   0  0  0  0  0  0  0  0  0  0  0  0
  161.8470  207.0940  147.6690 N   0  0  0  0  0  0  0  0  0  0  0  0
  161.2800  206.6580  151.1700 C   0  0  0  0  0  0  0  0  0  0  0  0
  161.0910  208.2510  152.9540 N   0  0  0  0  0  0  0  0  0  0  0  0
  160.7500  204.9940  154.2460 O   0  0  0  0  0  0  0  0  0  0  0  0
  160.3220  203.7480  150.7410 C   0  0  1  0  0  3  0  0  0  0  0  0
  160.9140  205.9250  153.4090 C   0  0  0  0  0  0  0  0  0  0  0  0
  160.6480  204.0510  149.2910 C   0  0  2  0  0  3  0  0  0  0  0  0
  161.5720  205.7750  147.7480 C   0  0  0  0  0  0  0  0  0  0  0  0
  160.8700  207.2550  153.8410 C   0  0  0  0  0  0  0  0  0  0  0  0
  161.1490  205.6410  152.0890 N   0  0  0  0  0  0  0  0  0  0  0  0
  161.6620  211.6140  150.1940 C   0  0  0  0  0  2  0  0  0  0  0  0
  161.4410  202.8600  148.7950 C   0  0  0  0  0  2  0  0  0  0  0  0
  160.2280  202.2320  150.8150 C   0  0  0  0  0  2  0  0  0  0  0  0
  161.7320  210.7950  152.4250 O   0  0  0  0  0  0  0  0  0  0  0  0
  161.7510  207.5020  148.9440 C   0  0  0  0  0  0  0  0  0  0  0  0
  162.1300  211.1850  148.8320 C   0  0  0  0  0  3  0  0  0  0  0  0
  161.6000  209.0830  150.7510 C   0  0  0  0  0  0  0  0  0  0  0  0
  161.4440  206.4530  149.7750 C   0  0  0  0  0  0  0  0  0  0  0  0
  161.4520  204.9300  146.5230 C   0  0  0  0  0  1  0  0  0  0  0  0
  161.3130  205.3360  149.0120 N   0  0  0  0  0  0  0  0  0  0  0  0
  160.8890  201.6760  149.5620 C   0  0  0  0  0  2  0  0  0  0  0  0
  162.8200  203.9470  151.3990 C   0  0  0  0  0  1  0  0  0  0  0  0
  162.1760  209.9060  148.4560 C   0  0  0  0  0  3  0  0  0  0  0  0
  161.8380  208.8170  149.3880 C   0  0  0  0  0  0  0  0  0  0  0  0
  161.3600  204.2390  151.7390 C   0  0  2  0  0  3  0  0  0  0  0  0
  160.5960  207.5980  155.2680 C   0  0  0  0  0  2  0  0  0  0  0  0
  162.2070  208.6040  156.6970 O   0  0  0  0  0  1  0  0  0  0  0  0
  161.3320  208.8690  155.6450 C   0  0  0  0  0  2  0  0  0  0  0  0
  1  5  1  0  0  0  0
  2 16  2  0  0  0  0
  3 10  2  0  0  0  0
  3 17  1  0  0  0  0
  4  1  1  0  0  0  0
  4 12  1  0  0  0  0
  5 11  2  0  0  0  0
  7 15  1  6  0  0  0
  7 27  1  0  0  0  0
  8 11  1  0  0  0  0
  8  6  2  0  0  0  0
  9 14  1  1  0  0  0
  9  7  1  0  0  0  0
 10 22  1  0  0  0  0
 11 28  1  0  0  0  0
 12  8  1  0  0  0  0
 13  2  1  0  0  0  0
 14 23  1  0  0  0  0
 17 26  2  0  0  0  0
 17 20  1  0  0  0  0
 18 13  1  0  0  0  0
 19  2  1  0  0  0  0
 19  1  2  0  0  0  0
 20  4  2  0  0  0  0
 21 10  1  0  0  0  0
 22  9  1  0  0  0  0
 22 20  1  0  0  0  0
 23 15  1  0  0  0  0
 25 18  2  0  0  0  0
 25 26  1  0  0  0  0
 26 19  1  0  0  0  0
 27 24  1  6  0  0  0
 27 12  1  0  0  0  0
 28 30  1  0  0  0  0
 30 29  1  0  0  0  0
M  END
>  <MODEL>
3

>  <REMARK>
 VINA RESULT:      -6.7      1.757      4.919
  Name = 
  2 active torsions:
  status: ('A' for Active; 'I' for Inactive)
    1  A    between atoms: C_11  and  C_28
    2  A    between atoms: C_28  and  C_30
                            x       y       z     vdW  Elec       q    Type
                         _______ _______ _______ _____ _____    ______ ____

>  <TORSDO>
F 2

$$$$
=
 OpenBabel11122412383D

 30 35  0  0  1  0  0  0  0  0999 V2000
  161.3920  207.7890  150.7990 C   0  0  0  0  0  0  0  0  0  0  0  0
  161.5510  205.5490  149.5760 C   0  0  0  0  0  0  0  0  0  0  0  0
  160.7450  205.9290  154.4040 N   0  0  0  0  0  0  0  0  0  0  0  0
  161.2490  208.5330  152.0090 C   0  0  0  0  0  0  0  0  0  0  0  0
  161.5580  208.4600  149.6310 N   0  0  0  0  0  0  0  0  0  0  0  0
  161.6940  211.8020  150.7310 O   0  0  0  0  0  0  0  0  0  0  0  0
  160.2780  210.6820  154.0110 C   0  0  1  0  0  3  0  0  0  0  0  0
  161.5800  210.5440  150.7720 C   0  0  0  0  0  0  0  0  0  0  0  0
  160.1530  209.4910  154.9420 C   0  0  2  0  0  3  0  0  0  0  0  0
  160.5370  207.0380  155.1450 C   0  0  0  0  0  0  0  0  0  0  0  0
  161.6330  209.8090  149.5830 C   0  0  0  0  0  0  0  0  0  0  0  0
  161.4210  209.8990  151.9710 N   0  0  0  0  0  0  0  0  0  0  0  0
  161.2060  204.0870  149.5830 C   0  0  0  0  0  2  0  0  0  0  0  0
  160.7920  209.9240  156.2460 C   0  0  0  0  0  2  0  0  0  0  0  0
  160.2470  211.8990  154.9220 C   0  0  0  0  0  2  0  0  0  0  0  0
  161.9520  206.0670  148.5000 O   0  0  0  0  0  0  0  0  0  0  0  0
  161.0200  206.4230  153.1860 C   0  0  0  0  0  0  0  0  0  0  0  0
  161.2610  203.4760  150.9560 C   0  0  0  0  0  3  0  0  0  0  0  0
  161.3730  206.3650  150.8070 C   0  0  0  0  0  0  0  0  0  0  0  0
  160.9980  207.7970  153.1960 C   0  0  0  0  0  0  0  0  0  0  0  0
  160.0810  206.9510  156.5630 C   0  0  0  0  0  1  0  0  0  0  0  0
  160.6740  208.2030  154.4520 N   0  0  0  0  0  0  0  0  0  0  0  0
  160.5210  211.4120  156.3380 C   0  0  0  0  0  2  0  0  0  0  0  0
  162.8530  210.4110  153.9260 C   0  0  0  0  0  1  0  0  0  0  0  0
  161.2230  204.2070  152.0710 C   0  0  0  0  0  3  0  0  0  0  0  0
  161.2030  205.6790  152.0260 C   0  0  0  0  0  0  0  0  0  0  0  0
  161.5520  210.7050  153.1810 C   0  0  2  0  0  3  0  0  0  0  0  0
  161.7860  210.4830  148.2590 C   0  0  0  0  0  2  0  0  0  0  0  0
  162.6350  212.5930  147.5670 O   0  0  0  0  0  1  0  0  0  0  0  0
  162.9510  211.4520  148.3040 C   0  0  0  0  0  2  0  0  0  0  0  0
  1 19  2  0  0  0  0
  1  4  1  0  0  0  0
  2 13  1  0  0  0  0
  2 19  1  0  0  0  0
  3 10  2  0  0  0  0
  4 20  2  0  0  0  0
  5  1  1  0  0  0  0
  6  8  2  0  0  0  0
  7 15  1  1  0  0  0
  7  9  1  0  0  0  0
  8 12  1  0  0  0  0
  9 14  1  1  0  0  0
 10 21  1  0  0  0  0
 11  5  2  0  0  0  0
 11  8  1  0  0  0  0
 12  4  1  0  0  0  0
 12 27  1  0  0  0  0
 13 18  1  0  0  0  0
 14 23  1  0  0  0  0
 15 23  1  0  0  0  0
 16  2  2  0  0  0  0
 17 20  1  0  0  0  0
 17  3  1  0  0  0  0
 18 25  2  0  0  0  0
 19 26  1  0  0  0  0
 20 22  1  0  0  0  0
 22  9  1  0  0  0  0
 22 10  1  0  0  0  0
 26 25  1  0  0  0  0
 26 17  2  0  0  0  0
 27 24  1  1  0  0  0
 27  7  1  0  0  0  0
 28 30  1  0  0  0  0
 28 11  1  0  0  0  0
 29 30  1  0  0  0  0
M  END
>  <MODEL>
4

>  <REMARK>
 VINA RESULT:      -6.3      1.654      5.580
  Name = 
  2 active torsions:
  status: ('A' for Active; 'I' for Inactive)
    1  A    between atoms: C_11  and  C_28
    2  A    between atoms: C_28  and  C_30
                            x       y       z     vdW  Elec       q    Type
                         _______ _______ _______ _____ _____    ______ ____

>  <TORSDO>
F 2

$$$$
=
 OpenBabel11122412383D

 30 35  0  0  1  0  0  0  0  0999 V2000
  161.5880  207.7700  150.8650 C   0  0  0  0  0  0  0  0  0  0  0  0
  161.2250  208.3240  153.3360 C   0  0  0  0  0  0  0  0  0  0  0  0
  160.6110  203.8250  151.4660 N   0  0  0  0  0  0  0  0  0  0  0  0
  161.5480  206.8370  149.7850 C   0  0  0  0  0  0  0  0  0  0  0  0
  161.9610  209.0500  150.6140 N   0  0  0  0  0  0  0  0  0  0  0  0
  162.3770  209.0080  147.1180 O   0  0  0  0  0  0  0  0  0  0  0  0
  162.3970  205.2660  147.2600 C   0  0  1  0  0  3  0  0  0  0  0  0
  162.1410  208.5950  148.2880 C   0  0  0  0  0  0  0  0  0  0  0  0
  161.9210  204.0740  148.0680 C   0  0  2  0  0  3  0  0  0  0  0  0
  160.8680  203.3830  150.2170 C   0  0  0  0  0  0  0  0  0  0  0  0
  162.2580  209.4790  149.3670 C   0  0  0  0  0  0  0  0  0  0  0  0
  161.7580  207.2970  148.5050 N   0  0  0  0  0  0  0  0  0  0  0  0
  161.1580  207.8020  154.7430 C   0  0  0  0  0  2  0  0  0  0  0  0
  161.0560  203.2630  147.1250 C   0  0  0  0  0  2  0  0  0  0  0  0
  162.4690  204.7660  145.8250 C   0  0  0  0  0  2  0  0  0  0  0  0
  161.3160  209.5680  153.1590 O   0  0  0  0  0  0  0  0  0  0  0  0
  160.8540  205.1430  151.3790 C   0  0  0  0  0  0  0  0  0  0  0  0
  160.5360  206.4360  154.8350 C   0  0  0  0  0  3  0  0  0  0  0  0
  161.2310  207.3780  152.1870 C   0  0  0  0  0  0  0  0  0  0  0  0
  161.2290  205.4910  150.1040 C   0  0  0  0  0  0  0  0  0  0  0  0
  160.8370  201.9280  149.8850 C   0  0  0  0  0  1  0  0  0  0  0  0
  161.2540  204.3610  149.3500 N   0  0  0  0  0  0  0  0  0  0  0  0
  161.6650  203.4760  145.7540 C   0  0  0  0  0  2  0  0  0  0  0  0
  159.9900  206.2180  147.1470 C   0  0  0  0  0  1  0  0  0  0  0  0
  160.4250  205.6230  153.7840 C   0  0  0  0  0  3  0  0  0  0  0  0
  160.8420  206.0470  152.4360 C   0  0  0  0  0  0  0  0  0  0  0  0
  161.4840  206.4810  147.3250 C   0  0  2  0  0  3  0  0  0  0  0  0
  162.6920  210.8940  149.1670 C   0  0  0  0  0  2  0  0  0  0  0  0
  161.2610  212.1320  147.7290 O   0  0  0  0  0  1  0  0  0  0  0  0
  161.4790  211.7980  149.0640 C   0  0  0  0  0  2  0  0  0  0  0  0
  1 19  1  0  0  0  0
  2 13  1  0  0  0  0
  4 20  1  0  0  0  0
  4  1  2  0  0  0  0
  5  1  1  0  0  0  0
  6  8  2  0  0  0  0
  7 15  1  6  0  0  0
  7 27  1  0  0  0  0
  7  9  1  0  0  0  0
  8 12  1  0  0  0  0
  8 11  1  0  0  0  0
  9 14  1  6  0  0  0
  9 22  1  0  0  0  0
 10  3  2  0  0  0  0
 11  5  2  0  0  0  0
 12  4  1  0  0  0  0
 13 18  1  0  0  0  0
 16  2  2  0  0  0  0
 17  3  1  0  0  0  0
 17 26  1  0  0  0  0
 19 26  2  0  0  0  0
 19  2  1  0  0  0  0
 20 17  2  0  0  0  0
 21 10  1  0  0  0  0
 22 20  1  0  0  0  0
 22 10  1  0  0  0  0
 23 15  1  0  0  0  0
 23 14  1  0  0  0  0
 25 18  2  0  0  0  0
 26 25  1  0  0  0  0
 27 24  1  1  0  0  0
 27 12  1  0  0  0  0
 28 11  1  0  0  0  0
 29 30  1  0  0  0  0
 30 28  1  0  0  0  0
M  END
>  <MODEL>
5

>  <REMARK>
 VINA RESULT:      -6.0      1.120      1.422
  Name = 
  2 active torsions:
  status: ('A' for Active; 'I' for Inactive)
    1  A    between atoms: C_11  and  C_28
    2  A    between atoms: C_28  and  C_30
                            x       y       z     vdW  Elec       q    Type
                         _______ _______ _______ _____ _____    ______ ____

>  <TORSDO>
F 2

$$$$
=
 OpenBabel11122412383D

 30 35  0  0  1  0  0  0  0  0999 V2000
  161.2150  203.9070  148.5010 C   0  0  0  0  0  0  0  0  0  0  0  0
  160.6940  201.4950  149.1730 C   0  0  0  0  0  0  0  0  0  0  0  0
  161.1510  205.1550  152.4140 N   0  0  0  0  0  0  0  0  0  0  0  0
  161.4960  205.2610  148.8590 C   0  0  0  0  0  0  0  0  0  0  0  0
  161.2060  203.5630  147.1880 N   0  0  0  0  0  0  0  0  0  0  0  0
  162.1660  206.5780  145.6450 O   0  0  0  0  0  0  0  0  0  0  0  0
  161.4140  208.3530  148.8550 C   0  0  1  0  0  3  0  0  0  0  0  0
  161.8550  205.7600  146.5550 C   0  0  0  0  0  0  0  0  0  0  0  0
  161.3170  208.1670  150.3580 C   0  0  2  0  0  3  0  0  0  0  0  0
  161.3190  206.4740  152.1860 C   0  0  0  0  0  0  0  0  0  0  0  0
  161.4950  204.4520  146.2110 C   0  0  0  0  0  0  0  0  0  0  0  0
  161.8820  206.1400  147.8720 N   0  0  0  0  0  0  0  0  0  0  0  0
  160.1180  200.5790  150.2150 C   0  0  0  0  0  2  0  0  0  0  0  0
  162.3160  209.1380  150.9530 C   0  0  0  0  0  2  0  0  0  0  0  0
  161.8100  209.8080  148.6630 C   0  0  0  0  0  2  0  0  0  0  0  0
  160.9060  201.0370  148.0190 O   0  0  0  0  0  0  0  0  0  0  0  0
  161.2040  204.6230  151.1820 C   0  0  0  0  0  0  0  0  0  0  0  0
  160.3980  201.0350  151.6200 C   0  0  0  0  0  3  0  0  0  0  0  0
  160.9580  202.9230  149.4980 C   0  0  0  0  0  0  0  0  0  0  0  0
  161.4180  205.5950  150.2360 C   0  0  0  0  0  0  0  0  0  0  0  0
  161.2100  207.4740  153.2890 C   0  0  0  0  0  1  0  0  0  0  0  0
  161.4800  206.7950  150.8720 N   0  0  0  0  0  0  0  0  0  0  0  0
  162.3300  210.3160  150.0000 C   0  0  0  0  0  2  0  0  0  0  0  0
  163.8090  207.3640  148.8340 C   0  0  0  0  0  1  0  0  0  0  0  0
  160.7550  202.2860  151.9120 C   0  0  0  0  0  3  0  0  0  0  0  0
  160.9730  203.2910  150.8570 C   0  0  0  0  0  0  0  0  0  0  0  0
  162.4360  207.4570  148.1710 C   0  0  2  0  0  3  0  0  0  0  0  0
  161.4360  204.0130  144.7860 C   0  0  0  0  0  2  0  0  0  0  0  0
  159.7100  202.4010  144.5110 O   0  0  0  0  0  1  0  0  0  0  0  0
  159.9970  203.7590  144.3810 C   0  0  0  0  0  2  0  0  0  0  0  0
  1  4  2  0  0  0  0
  1 19  1  0  0  0  0
  2 19  1  0  0  0  0
  2 13  1  0  0  0  0
  4 20  1  0  0  0  0
  5  1  1  0  0  0  0
  6  8  2  0  0  0  0
  7 15  1  1  0  0  0
  7  9  1  0  0  0  0
  8 12  1  0  0  0  0
  9 22  1  0  0  0  0
  9 14  1  1  0  0  0
 10  3  2  0  0  0  0
 10 21  1  0  0  0  0
 11  8  1  0  0  0  0
 11  5  2  0  0  0  0
 12 27  1  0  0  0  0
 12  4  1  0  0  0  0
 13 18  1  0  0  0  0
 15 23  1  0  0  0  0
 16  2  2  0  0  0  0
 17  3  1  0  0  0  0
 18 25  2  0  0  0  0
 19 26  2  0  0  0  0
 20 22  1  0  0  0  0
 20 17  2  0  0  0  0
 22 10  1  0  0  0  0
 23 14  1  0  0  0  0
 26 17  1  0  0  0  0
 26 25  1  0  0  0  0
 27 24  1  1  0  0  0
 27  7  1  0  0  0  0
 28 11  1  0  0  0  0
 30 29  1  0  0  0  0
 30 28  1  0  0  0  0
M  END
>  <MODEL>
6

>  <REMARK>
 VINA RESULT:      -4.9      2.734      6.222
  Name = 
  2 active torsions:
  status: ('A' for Active; 'I' for Inactive)
    1  A    between atoms: C_11  and  C_28
    2  A    between atoms: C_28  and  C_30
                            x       y       z     vdW  Elec       q    Type
                         _______ _______ _______ _____ _____    ______ ____

>  <TORSDO>
F 2

$$$$
=
 OpenBabel11122412383D

 30 35  0  0  1  0  0  0  0  0999 V2000
  161.2290  203.8650  147.8490 C   0  0  0  0  0  0  0  0  0  0  0  0
  161.1370  203.9280  145.2930 C   0  0  0  0  0  0  0  0  0  0  0  0
  161.4090  207.9620  148.0790 N   0  0  0  0  0  0  0  0  0  0  0  0
  161.2580  204.5420  149.1050 C   0  0  0  0  0  0  0  0  0  0  0  0
  161.2150  202.5080  147.8340 N   0  0  0  0  0  0  0  0  0  0  0  0
  161.0620  201.7500  151.2690 O   0  0  0  0  0  0  0  0  0  0  0  0
  162.0670  205.2840  151.9970 C   0  0  1  0  0  3  0  0  0  0  0  0
  161.1310  202.4320  150.2070 C   0  0  0  0  0  0  0  0  0  0  0  0
  162.0490  206.6950  151.4420 C   0  0  2  0  0  3  0  0  0  0  0  0
  161.5670  208.0610  149.4160 C   0  0  0  0  0  0  0  0  0  0  0  0
  161.1880  201.7780  148.9720 C   0  0  0  0  0  0  0  0  0  0  0  0
  161.1350  203.8020  150.2590 N   0  0  0  0  0  0  0  0  0  0  0  0
  161.4320  204.7110  144.0450 C   0  0  0  0  0  2  0  0  0  0  0  0
  161.2820  207.5210  152.4550 C   0  0  0  0  0  2  0  0  0  0  0  0
  162.0330  205.4530  153.5080 C   0  0  0  0  0  2  0  0  0  0  0  0
  160.8750  202.7010  145.1860 O   0  0  0  0  0  0  0  0  0  0  0  0
  161.2880  206.6390  147.8840 C   0  0  0  0  0  0  0  0  0  0  0  0
  161.2060  206.1880  144.2090 C   0  0  0  0  0  3  0  0  0  0  0  0
  161.2020  204.5910  146.6240 C   0  0  0  0  0  0  0  0  0  0  0  0
  161.3520  205.9580  149.0750 C   0  0  0  0  0  0  0  0  0  0  0  0
  161.8590  209.3710  150.0700 C   0  0  0  0  0  1  0  0  0  0  0  0
  161.5450  206.8650  150.0680 N   0  0  0  0  0  0  0  0  0  0  0  0
  161.5880  206.8810  153.7940 C   0  0  0  0  0  2  0  0  0  0  0  0
  159.5100  205.0570  151.6450 C   0  0  0  0  0  1  0  0  0  0  0  0
  161.1410  206.7780  145.4020 C   0  0  0  0  0  3  0  0  0  0  0  0
  161.2130  206.0000  146.6510 C   0  0  0  0  0  0  0  0  0  0  0  0
  160.8940  204.4170  151.5610 C   0  0  2  0  0  3  0  0  0  0  0  0
  161.2060  200.2880  148.8820 C   0  0  0  0  0  2  0  0  0  0  0  0
  161.0620  199.7290  146.5770 O   0  0  0  0  0  1  0  0  0  0  0  0
  161.9560  199.8530  147.6390 C   0  0  0  0  0  2  0  0  0  0  0  0
  1  4  1  0  0  0  0
  2 19  1  0  0  0  0
  3 10  2  0  0  0  0
  4 12  1  0  0  0  0
  5  1  1  0  0  0  0
  5 11  2  0  0  0  0
  7 15  1  1  0  0  0
  8 12  1  0  0  0  0
  8  6  2  0  0  0  0
  9  7  1  0  0  0  0
  9 14  1  1  0  0  0
 10 22  1  0  0  0  0
 10 21  1  0  0  0  0
 11  8  1  0  0  0  0
 12 27  1  0  0  0  0
 13 18  1  0  0  0  0
 13  2  1  0  0  0  0
 14 23  1  0  0  0  0
 15 23  1  0  0  0  0
 16  2  2  0  0  0  0
 17  3  1  0  0  0  0
 17 20  1  0  0  0  0
 18 25  2  0  0  0  0
 19 26  1  0  0  0  0
 19  1  2  0  0  0  0
 20  4  2  0  0  0  0
 20 22  1  0  0  0  0
 22  9  1  0  0  0  0
 25 26  1  0  0  0  0
 26 17  2  0  0  0  0
 27 24  1  6  0  0  0
 27  7  1  0  0  0  0
 28 11  1  0  0  0  0
 29 30  1  0  0  0  0
 30 28  1  0  0  0  0
M  END
>  <MODEL>
7

>  <REMARK>
 VINA RESULT:      -4.8      3.314      7.802
  Name = 
  2 active torsions:
  status: ('A' for Active; 'I' for Inactive)
    1  A    between atoms: C_11  and  C_28
    2  A    between atoms: C_28  and  C_30
                            x       y       z     vdW  Elec       q    Type
                         _______ _______ _______ _____ _____    ______ ____

>  <TORSDO>
F 2

$$$$
