=
 OpenBabel11122414063D

 28 31  0  0  1  0  0  0  0  0999 V2000
  158.2190  211.9710  153.0260 C   0  0  0  0  0  0  0  0  0  0  0  0
  160.3300  209.5920  151.2570 O   0  0  0  0  0  0  0  0  0  0  0  0
  159.2490  214.2260  151.7160 C   0  0  0  0  0  3  0  0  0  0  0  0
  157.6300  210.7710  153.7000 C   0  0  0  0  0  2  0  0  0  0  0  0
  162.5040  210.2650  152.1900 O   0  0  0  0  0  0  0  0  0  0  0  0
  161.2420  209.4900  152.4470 S   0  0  0  0  0  0  0  0  0  0  0  0
  161.1190  207.2860  154.1060 C   0  0  0  0  0  0  0  0  0  0  0  0
  160.4330  210.0820  153.8590 N   0  0  1  0  0  0  0  0  0  0  0  0
  156.7460  213.3490  155.5090 C   0  0  0  0  0  1  0  0  0  0  0  0
  160.5830  211.8040  155.5250 C   0  0  2  0  0  3  0  0  0  0  0  0
  160.9280  208.1130  155.1510 C   0  0  0  0  0  3  0  0  0  0  0  0
  161.6430  207.7660  152.7650 C   0  0  0  0  0  2  0  0  0  0  0  0
  156.8690  211.9280  155.8220 N   0  0  0  0  0  0  0  0  0  0  0  0
  159.5830  212.3140  153.1780 C   0  0  0  0  0  0  0  0  0  0  0  0
  160.8610  205.8310  154.2890 C   0  0  0  0  0  1  0  0  0  0  0  0
  158.1710  211.5300  156.3910 C   0  0  0  0  0  2  0  0  0  0  0  0
  160.0790  213.4490  152.5240 C   0  0  0  0  0  3  0  0  0  0  0  0
  157.3980  212.7490  152.1970 C   0  0  0  0  0  3  0  0  0  0  0  0
  157.9090  213.8740  151.5480 C   0  0  0  0  0  3  0  0  0  0  0  0
  156.4830  211.1240  154.6560 C   0  0  0  0  0  2  0  0  0  0  0  0
  160.8610  210.4480  156.1700 C   0  0  1  0  0  3  0  0  0  0  0  0
  159.3310  212.4960  156.0950 C   0  0  1  0  0  3  0  0  0  0  0  0
  161.1940  209.5740  154.9820 C   0  0  2  0  0  3  0  0  0  0  0  0
  160.5630  211.5230  154.0130 C   0  0  2  0  0  3  0  0  0  0  0  0
  160.0670  214.4530  156.8270 C   0  0  0  0  0  1  0  0  0  0  0  0
  159.6680  213.1880  157.2610 O   0  0  0  0  0  0  0  0  0  0  0  0
  161.9670  210.5420  157.0160 O   0  0  0  0  0  0  0  0  0  0  0  0
  163.0530  210.7370  156.1620 C   0  0  0  0  0  1  0  0  0  0  0  0
  1 14  1  0  0  0  0
  1  4  1  0  0  0  0
  2  6  2  0  0  0  0
  3 17  1  0  0  0  0
  4 20  1  0  0  0  0
  5  6  2  0  0  0  0
  6 12  1  0  0  0  0
  7 15  1  0  0  0  0
  7 11  2  0  0  0  0
  8  6  1  6  0  0  0
  8 24  1  0  0  0  0
  8 23  1  0  0  0  0
  9 13  1  0  0  0  0
 10 22  1  0  0  0  0
 10 21  1  0  0  0  0
 12  7  1  0  0  0  0
 13 16  1  0  0  0  0
 14 24  1  0  0  0  0
 17 14  2  0  0  0  0
 18  1  2  0  0  0  0
 19  3  2  0  0  0  0
 19 18  1  0  0  0  0
 20 13  1  0  0  0  0
 21 27  1  0  0  0  0
 22 16  1  0  0  0  0
 22 26  1  0  0  0  0
 23 11  1  0  0  0  0
 23 21  1  0  0  0  0
 24 10  1  0  0  0  0
 25 26  1  0  0  0  0
 28 27  1  0  0  0  0
M  END
>  <MODEL>
1

>  <REMARK>
 VINA RESULT:      -2.8      0.000      0.000
  Name = 
  2 active torsions:
  status: ('A' for Active; 'I' for Inactive)
    1  A    between atoms: O_5  and  C_24
    2  A    between atoms: O_17  and  C_25
                            x       y       z     vdW  Elec       q    Type
                         _______ _______ _______ _____ _____    ______ ____

>  <TORSDO>
F 2

$$$$
=
 OpenBabel11122414063D

 28 31  0  0  1  0  0  0  0  0999 V2000
  161.1030  209.2860  155.8200 C   0  0  0  0  0  0  0  0  0  0  0  0
  159.0100  211.8920  157.2610 O   0  0  0  0  0  0  0  0  0  0  0  0
  163.5040  210.3150  156.8400 C   0  0  0  0  0  3  0  0  0  0  0  0
  159.8230  208.7030  155.3080 C   0  0  0  0  0  2  0  0  0  0  0  0
  159.8190  213.7930  155.9250 O   0  0  0  0  0  0  0  0  0  0  0  0
  158.9250  212.5840  155.9300 S   0  0  0  0  0  0  0  0  0  0  0  0
  156.6350  212.3770  154.4000 C   0  0  0  0  0  0  0  0  0  0  0  0
  159.3700  211.4860  154.6670 N   0  0  1  0  0  0  0  0  0  0  0  0
  162.2180  207.2730  153.5980 C   0  0  0  0  0  1  0  0  0  0  0  0
  161.0090  211.1740  152.9410 C   0  0  2  0  0  3  0  0  0  0  0  0
  157.3860  211.9260  153.3780 C   0  0  0  0  0  3  0  0  0  0  0  0
  157.2280  213.0830  155.6070 C   0  0  0  0  0  2  0  0  0  0  0  0
  160.7980  207.4710  153.3190 N   0  0  0  0  0  0  0  0  0  0  0  0
  161.5540  210.5640  155.4110 C   0  0  0  0  0  0  0  0  0  0  0  0
  155.1560  212.2280  154.3200 C   0  0  0  0  0  1  0  0  0  0  0  0
  160.4840  208.6830  152.5380 C   0  0  0  0  0  2  0  0  0  0  0  0
  162.7600  211.0580  155.9220 C   0  0  0  0  0  3  0  0  0  0  0  0
  161.8500  208.5560  156.7550 C   0  0  0  0  0  3  0  0  0  0  0  0
  163.0480  209.0660  157.2600 C   0  0  0  0  0  3  0  0  0  0  0  0
  160.0260  207.3760  154.5640 C   0  0  0  0  0  2  0  0  0  0  0  0
  159.6500  211.4600  152.3050 C   0  0  1  0  0  3  0  0  0  0  0  0
  161.5610  209.7820  152.5830 C   0  0  1  0  0  3  0  0  0  0  0  0
  158.8720  212.0790  153.4440 C   0  0  2  0  0  3  0  0  0  0  0  0
  160.8080  211.4500  154.4410 C   0  0  2  0  0  3  0  0  0  0  0  0
  161.5900  208.8710  150.5650 C   0  0  0  0  0  1  0  0  0  0  0  0
  162.2170  209.8390  151.3520 O   0  0  0  0  0  0  0  0  0  0  0  0
  159.7950  212.3840  151.2700 O   0  0  0  0  0  0  0  0  0  0  0  0
  159.7600  213.6300  151.8980 C   0  0  0  0  0  1  0  0  0  0  0  0
  1 18  1  0  0  0  0
  3 19  1  0  0  0  0
  4  1  1  0  0  0  0
  5  6  2  0  0  0  0
  6  2  2  0  0  0  0
  7 12  1  0  0  0  0
  8  6  1  1  0  0  0
 10 24  1  0  0  0  0
 11 23  1  0  0  0  0
 11  7  2  0  0  0  0
 12  6  1  0  0  0  0
 13  9  1  0  0  0  0
 13 20  1  0  0  0  0
 14  1  2  0  0  0  0
 14 17  1  0  0  0  0
 15  7  1  0  0  0  0
 16 22  1  0  0  0  0
 16 13  1  0  0  0  0
 17  3  2  0  0  0  0
 18 19  2  0  0  0  0
 20  4  1  0  0  0  0
 21 10  1  0  0  0  0
 21 23  1  0  0  0  0
 22 10  1  0  0  0  0
 23  8  1  0  0  0  0
 24  8  1  0  0  0  0
 24 14  1  0  0  0  0
 25 26  1  0  0  0  0
 26 22  1  0  0  0  0
 27 28  1  0  0  0  0
 27 21  1  0  0  0  0
M  END
>  <MODEL>
2

>  <REMARK>
 VINA RESULT:      -2.1      1.880      6.033
  Name = 
  2 active torsions:
  status: ('A' for Active; 'I' for Inactive)
    1  A    between atoms: O_5  and  C_24
    2  A    between atoms: O_17  and  C_25
                            x       y       z     vdW  Elec       q    Type
                         _______ _______ _______ _____ _____    ______ ____

>  <TORSDO>
F 2

$$$$
=
 OpenBabel11122414063D

 28 31  0  0  1  0  0  0  0  0999 V2000
  157.2480  211.8030  155.6990 C   0  0  0  0  0  0  0  0  0  0  0  0
  159.3930  209.3100  157.2610 O   0  0  0  0  0  0  0  0  0  0  0  0
  155.1590  210.0140  155.1530 C   0  0  0  0  0  3  0  0  0  0  0  0
  158.3390  212.7750  156.0250 C   0  0  0  0  0  2  0  0  0  0  0  0
  159.8710  207.9410  155.2740 O   0  0  0  0  0  0  0  0  0  0  0  0
  160.2150  209.2070  156.0070 S   0  0  0  0  0  0  0  0  0  0  0  0
  162.6900  210.4250  155.8660 C   0  0  0  0  0  0  0  0  0  0  0  0
  159.9370  210.5930  155.0060 N   0  0  1  0  0  0  0  0  0  0  0  0
  156.4470  214.2470  153.7980 C   0  0  0  0  0  1  0  0  0  0  0  0
  159.0860  211.2080  152.8480 C   0  0  2  0  0  3  0  0  0  0  0  0
  162.2810  211.0730  154.7590 C   0  0  0  0  0  3  0  0  0  0  0  0
  161.9650  209.2120  156.4210 C   0  0  0  0  0  2  0  0  0  0  0  0
  157.8380  214.4530  154.1920 N   0  0  0  0  0  0  0  0  0  0  0  0
  157.4620  210.7150  154.8200 C   0  0  0  0  0  0  0  0  0  0  0  0
  163.9350  210.8810  156.5420 C   0  0  0  0  0  1  0  0  0  0  0  0
  158.8260  213.7160  153.3820 C   0  0  0  0  0  2  0  0  0  0  0  0
  156.4050  209.8360  154.5500 C   0  0  0  0  0  3  0  0  0  0  0  0
  155.9980  211.9610  156.3130 C   0  0  0  0  0  3  0  0  0  0  0  0
  154.9560  211.0730  156.0380 C   0  0  0  0  0  3  0  0  0  0  0  0
  157.9900  214.2180  155.6330 C   0  0  0  0  0  2  0  0  0  0  0  0
  160.5920  211.4570  152.8900 C   0  0  1  0  0  3  0  0  0  0  0  0
  158.2680  212.4940  152.6310 C   0  0  1  0  0  3  0  0  0  0  0  0
  161.0380  210.6180  154.0660 C   0  0  2  0  0  3  0  0  0  0  0  0
  158.7800  210.4280  154.1380 C   0  0  2  0  0  3  0  0  0  0  0  0
  159.0810  213.8450  151.0760 C   0  0  0  0  0  1  0  0  0  0  0  0
  158.1980  212.7810  151.2660 O   0  0  0  0  0  0  0  0  0  0  0  0
  161.1850  210.9870  151.7170 O   0  0  0  0  0  0  0  0  0  0  0  0
  161.1390  209.5960  151.8290 C   0  0  0  0  0  1  0  0  0  0  0  0
  1  4  1  0  0  0  0
  1 18  1  0  0  0  0
  3 19  1  0  0  0  0
  5  6  2  0  0  0  0
  6 12  1  0  0  0  0
  6  2  2  0  0  0  0
  7 12  1  0  0  0  0
  7 15  1  0  0  0  0
  8  6  1  1  0  0  0
  9 13  1  0  0  0  0
 10 21  1  0  0  0  0
 10 24  1  0  0  0  0
 11  7  2  0  0  0  0
 13 20  1  0  0  0  0
 14  1  2  0  0  0  0
 16 13  1  0  0  0  0
 17 14  1  0  0  0  0
 17  3  2  0  0  0  0
 19 18  2  0  0  0  0
 20  4  1  0  0  0  0
 21 23  1  0  0  0  0
 22 10  1  0  0  0  0
 22 16  1  0  0  0  0
 23 11  1  0  0  0  0
 23  8  1  0  0  0  0
 24 14  1  0  0  0  0
 24  8  1  0  0  0  0
 25 26  1  0  0  0  0
 26 22  1  0  0  0  0
 27 28  1  0  0  0  0
 27 21  1  0  0  0  0
M  END
>  <MODEL>
3

>  <REMARK>
 VINA RESULT:      -2.0      2.071      4.328
  Name = 
  2 active torsions:
  status: ('A' for Active; 'I' for Inactive)
    1  A    between atoms: O_5  and  C_24
    2  A    between atoms: O_17  and  C_25
                            x       y       z     vdW  Elec       q    Type
                         _______ _______ _______ _____ _____    ______ ____

>  <TORSDO>
F 2

$$$$
=
 OpenBabel11122414063D

 28 31  0  0  1  0  0  0  0  0999 V2000
  161.5330  209.1740  155.2230 C   0  0  0  0  0  0  0  0  0  0  0  0
  162.4510  207.6900  152.0290 O   0  0  0  0  0  0  0  0  0  0  0  0
  160.0710  206.9520  156.1090 C   0  0  0  0  0  3  0  0  0  0  0  0
  162.3480  210.3490  154.7790 C   0  0  0  0  0  2  0  0  0  0  0  0
  160.2160  207.6120  151.0040 O   0  0  0  0  0  0  0  0  0  0  0  0
  161.3900  208.4930  151.3310 S   0  0  0  0  0  0  0  0  0  0  0  0
  162.0800  210.7210  149.8530 C   0  0  0  0  0  0  0  0  0  0  0  0
  160.9030  209.8190  152.3320 N   0  0  1  0  0  0  0  0  0  0  0  0
  160.5000  211.4130  157.2610 C   0  0  0  0  0  1  0  0  0  0  0  0
  158.9870  210.7020  153.4780 C   0  0  2  0  0  3  0  0  0  0  0  0
  161.2180  211.4470  150.5890 C   0  0  0  0  0  3  0  0  0  0  0  0
  162.0550  209.2030  149.8190 C   0  0  0  0  0  2  0  0  0  0  0  0
  161.1590  212.1120  156.1600 N   0  0  0  0  0  0  0  0  0  0  0  0
  160.3760  208.7640  154.5190 C   0  0  0  0  0  0  0  0  0  0  0  0
  163.0630  211.4350  148.9920 C   0  0  0  0  0  1  0  0  0  0  0  0
  160.3120  212.3310  154.9720 C   0  0  0  0  0  2  0  0  0  0  0  0
  159.6520  207.6580  154.9810 C   0  0  0  0  0  3  0  0  0  0  0  0
  161.9540  208.4470  156.3450 C   0  0  0  0  0  3  0  0  0  0  0  0
  161.2240  207.3430  156.7890 C   0  0  0  0  0  3  0  0  0  0  0  0
  162.4320  211.4540  155.8420 C   0  0  0  0  0  2  0  0  0  0  0  0
  159.3550  211.6250  152.3180 C   0  0  1  0  0  3  0  0  0  0  0  0
  159.1030  211.3860  154.8520 C   0  0  1  0  0  3  0  0  0  0  0  0
  160.2200  210.7410  151.4490 C   0  0  2  0  0  3  0  0  0  0  0  0
  159.8580  209.4500  153.2760 C   0  0  2  0  0  3  0  0  0  0  0  0
  156.9230  211.1300  155.1500 C   0  0  0  0  0  1  0  0  0  0  0  0
  157.9310  212.0950  155.1240 O   0  0  0  0  0  0  0  0  0  0  0  0
  158.2030  211.9960  151.6220 O   0  0  0  0  0  0  0  0  0  0  0  0
  158.1320  213.3820  151.7670 C   0  0  0  0  0  1  0  0  0  0  0  0
  1 18  1  0  0  0  0
  3 19  1  0  0  0  0
  4  1  1  0  0  0  0
  4 20  1  0  0  0  0
  5  6  2  0  0  0  0
  6  2  2  0  0  0  0
  7 11  2  0  0  0  0
  8  6  1  6  0  0  0
  8 24  1  0  0  0  0
 10 22  1  0  0  0  0
 11 23  1  0  0  0  0
 12  7  1  0  0  0  0
 12  6  1  0  0  0  0
 13  9  1  0  0  0  0
 14 17  1  0  0  0  0
 14  1  2  0  0  0  0
 15  7  1  0  0  0  0
 16 13  1  0  0  0  0
 17  3  2  0  0  0  0
 18 19  2  0  0  0  0
 20 13  1  0  0  0  0
 21 10  1  0  0  0  0
 22 16  1  0  0  0  0
 22 26  1  0  0  0  0
 23 21  1  0  0  0  0
 23  8  1  0  0  0  0
 24 10  1  0  0  0  0
 24 14  1  0  0  0  0
 26 25  1  0  0  0  0
 27 28  1  0  0  0  0
 27 21  1  0  0  0  0
M  END
>  <MODEL>
4

>  <REMARK>
 VINA RESULT:      -1.0      2.260      5.138
  Name = 
  2 active torsions:
  status: ('A' for Active; 'I' for Inactive)
    1  A    between atoms: O_5  and  C_24
    2  A    between atoms: O_17  and  C_25
                            x       y       z     vdW  Elec       q    Type
                         _______ _______ _______ _____ _____    ______ ____

>  <TORSDO>
F 2

$$$$
