=
 OpenBabel11122413493D

 37 42  0  0  1  0  0  0  0  0999 V2000
  160.6410  210.9310  156.3480 C   0  0  0  0  0  0  0  0  0  0  0  0
  159.7040  212.0820  152.5650 C   0  0  2  0  0  3  0  0  0  0  0  0
  162.1840  211.0240  150.0230 O   0  0  0  0  0  0  0  0  0  0  0  0
  159.1610  212.2840  154.8470 C   0  0  1  0  0  3  0  0  0  0  0  0
  160.3100  211.0790  151.6400 C   0  0  1  0  0  3  0  0  0  0  0  0
  159.3890  211.2630  153.7550 C   0  0  2  0  0  3  0  0  0  0  0  0
  161.1420  211.8130  150.5670 C   0  0  2  0  0  3  0  0  0  0  0  0
  157.8920  213.0380  154.5070 C   0  0  0  0  0  3  0  0  0  0  0  0
  160.4730  210.3010  153.9460 N   0  0  2  0  0  0  0  0  0  0  0  0
  160.4520  209.5730  156.9970 C   0  0  0  0  0  1  0  0  0  0  0  0
  158.1450  212.9760  150.7510 C   0  0  0  0  0  2  0  0  0  0  0  0
  157.6090  213.2780  153.2010 C   0  0  0  0  0  3  0  0  0  0  0  0
  161.3900  210.7500  155.0000 C   0  0  0  0  0  2  0  0  0  0  0  0
  162.3310  208.6290  149.8820 C   0  0  1  0  0  3  0  0  0  0  0  0
  161.6210  209.8930  149.4080 C   0  0  0  0  0  2  0  0  0  0  0  0
  158.4750  212.7660  152.1540 N   0  0  0  0  0  0  0  0  0  0  0  0
  161.1550  210.2560  152.6420 C   0  0  1  0  0  3  0  0  0  0  0  0
  159.2550  211.6050  156.1990 C   0  0  0  0  0  2  0  0  0  0  0  0
  160.2680  212.4800  149.4720 C   0  0  1  0  0  3  0  0  0  0  0  0
  161.5000  211.7810  157.2610 C   0  0  0  0  0  1  0  0  0  0  0  0
  162.5360  208.5700  151.4010 C   0  0  0  0  0  2  0  0  0  0  0  0
  161.2550  208.8040  152.1930 C   0  0  0  0  0  2  0  0  0  0  0  0
  159.3350  213.5700  150.0080 C   0  0  0  0  0  2  0  0  0  0  0  0
  162.1710  213.9000  148.6830 C   0  0  0  0  0  3  0  0  0  0  0  0
  161.1060  213.0480  148.3650 C   0  0  0  0  0  0  0  0  0  0  0  0
  160.8420  212.7390  147.0210 C   0  0  0  0  0  3  0  0  0  0  0  0
  161.3510  212.9560  144.5870 C   0  0  0  0  0  1  0  0  0  0  0  0
  162.6970  214.1350  146.3300 C   0  0  0  0  0  3  0  0  0  0  0  0
  161.6360  213.2830  146.0080 C   0  0  0  0  0  0  0  0  0  0  0  0
  162.9640  214.4430  147.6670 C   0  0  0  0  0  3  0  0  0  0  0  0
  160.4440  204.8430  148.7110 O   0  0  0  0  0  0  0  0  0  0  0  0
  161.0930  204.9540  149.7840 C   0  0  0  0  0  0  0  0  0  0  0  0
  161.6470  207.4040  149.3680 C   0  0  0  0  0  0  0  0  0  0  0  0
  161.7020  206.2020  150.1440 N   0  0  0  0  0  2  0  0  0  0  0  0
  161.0200  207.4390  148.2730 O   0  0  0  0  0  0  0  0  0  0  0  0
  161.1520  203.9610  152.0330 C   0  0  0  0  0  1  0  0  0  0  0  0
  161.2130  203.8440  150.6200 O   0  0  0  0  0  0  0  0  0  0  0  0
  1 10  1  0  0  0  0
  1 20  1  0  0  0  0
  2 16  1  6  0  0  0
  2  6  1  0  0  0  0
  3  7  1  0  0  0  0
  4  8  1  6  0  0  0
  4 18  1  0  0  0  0
  5  2  1  0  0  0  0
  5 17  1  0  0  0  0
  6  9  1  0  0  0  0
  6  4  1  0  0  0  0
  7  5  1  0  0  0  0
  9 13  1  0  0  0  0
 11 16  1  0  0  0  0
 12  8  2  0  0  0  0
 13  1  1  0  0  0  0
 14 21  1  0  0  0  0
 15 14  1  0  0  0  0
 15  3  1  0  0  0  0
 16 12  1  0  0  0  0
 17  9  1  0  0  0  0
 18  1  1  0  0  0  0
 19 23  1  0  0  0  0
 19  7  1  0  0  0  0
 21 22  1  0  0  0  0
 22 17  1  0  0  0  0
 23 11  1  0  0  0  0
 25 24  1  0  0  0  0
 25 19  1  0  0  0  0
 26 25  2  0  0  0  0
 27 29  1  0  0  0  0
 28 30  1  0  0  0  0
 29 28  2  0  0  0  0
 29 26  1  0  0  0  0
 30 24  2  0  0  0  0
 31 32  2  0  0  0  0
 32 34  1  0  0  0  0
 32 37  1  0  0  0  0
 33 14  1  0  0  0  0
 33 34  1  0  0  0  0
 35 33  2  0  0  0  0
 37 36  1  0  0  0  0
M  END
>  <MODEL>
1

>  <REMARK>
 VINA RESULT:      -6.2      0.000      0.000
  Name = 
  3 active torsions:
  status: ('A' for Active; 'I' for Inactive)
    1  A    between atoms: C_4  and  O_37
    2  A    between atoms: C_8  and  C_18
    3  A    between atoms: C_23  and  C_30
                            x       y       z     vdW  Elec       q    Type
                         _______ _______ _______ _____ _____    ______ ____

>  <TORSDO>
F 3

$$$$
=
 OpenBabel11122413493D

 37 42  0  0  1  0  0  0  0  0999 V2000
  159.9070  212.0380  156.2840 C   0  0  0  0  0  0  0  0  0  0  0  0
  159.2570  212.7000  152.3270 C   0  0  2  0  0  3  0  0  0  0  0  0
  161.9700  211.4460  150.1370 O   0  0  0  0  0  0  0  0  0  0  0  0
  158.5190  213.1470  154.5170 C   0  0  1  0  0  3  0  0  0  0  0  0
  159.9660  211.6190  151.5810 C   0  0  1  0  0  3  0  0  0  0  0  0
  158.8670  212.0140  153.5780 C   0  0  2  0  0  3  0  0  0  0  0  0
  160.8640  212.2530  150.4970 C   0  0  2  0  0  3  0  0  0  0  0  0
  157.2620  213.8060  153.9890 C   0  0  0  0  0  3  0  0  0  0  0  0
  159.9580  211.1250  153.9690 N   0  0  2  0  0  0  0  0  0  0  0  0
  159.7020  210.7600  157.0740 C   0  0  0  0  0  1  0  0  0  0  0  0
  157.8300  213.3130  150.3000 C   0  0  0  0  0  2  0  0  0  0  0  0
  157.0820  213.8810  152.6450 C   0  0  0  0  0  3  0  0  0  0  0  0
  160.7710  211.7290  155.0310 C   0  0  0  0  0  2  0  0  0  0  0  0
  162.1970  209.0580  150.2970 C   0  0  1  0  0  3  0  0  0  0  0  0
  161.4940  210.2290  149.6200 C   0  0  0  0  0  2  0  0  0  0  0  0
  158.0470  213.2820  151.7400 N   0  0  0  0  0  0  0  0  0  0  0  0
  160.7480  210.9520  152.7380 C   0  0  1  0  0  3  0  0  0  0  0  0
  158.5190  212.6360  155.9440 C   0  0  0  0  0  2  0  0  0  0  0  0
  160.0660  212.7520  149.2630 C   0  0  1  0  0  3  0  0  0  0  0  0
  160.6610  213.0220  157.1530 C   0  0  0  0  0  1  0  0  0  0  0  0
  162.2760  209.1870  151.8230 C   0  0  0  0  0  2  0  0  0  0  0  0
  160.9270  209.4620  152.4770 C   0  0  0  0  0  2  0  0  0  0  0  0
  159.0610  213.8600  149.5880 C   0  0  0  0  0  2  0  0  0  0  0  0
  162.0890  214.0050  148.4900 C   0  0  0  0  0  3  0  0  0  0  0  0
  160.9780  213.2180  148.1670 C   0  0  0  0  0  0  0  0  0  0  0  0
  160.7350  212.8770  146.8260 C   0  0  0  0  0  3  0  0  0  0  0  0
  161.3360  212.9650  144.4040 C   0  0  0  0  0  1  0  0  0  0  0  0
  162.7050  214.1130  146.1500 C   0  0  0  0  0  3  0  0  0  0  0  0
  161.5970  213.3260  145.8220 C   0  0  0  0  0  0  0  0  0  0  0  0
  162.9500  214.4530  147.4840 C   0  0  0  0  0  3  0  0  0  0  0  0
  160.4570  205.3610  148.6940 O   0  0  0  0  0  0  0  0  0  0  0  0
  160.8040  206.3100  147.9410 C   0  0  0  0  0  0  0  0  0  0  0  0
  161.5940  207.7560  149.8820 C   0  0  0  0  0  0  0  0  0  0  0  0
  161.3690  207.5090  148.4890 N   0  0  0  0  0  2  0  0  0  0  0  0
  161.3020  206.8870  150.7480 O   0  0  0  0  0  0  0  0  0  0  0  0
  161.6690  205.7020  145.7210 C   0  0  0  0  0  1  0  0  0  0  0  0
  160.6310  206.1780  146.5640 O   0  0  0  0  0  0  0  0  0  0  0  0
  1 10  1  0  0  0  0
  1 20  1  0  0  0  0
  2 16  1  6  0  0  0
  2  6  1  0  0  0  0
  3  7  1  0  0  0  0
  4  8  1  6  0  0  0
  4 18  1  0  0  0  0
  5  2  1  0  0  0  0
  5 17  1  0  0  0  0
  6  9  1  0  0  0  0
  6  4  1  0  0  0  0
  7  5  1  0  0  0  0
  9 13  1  0  0  0  0
 11 16  1  0  0  0  0
 12  8  2  0  0  0  0
 13  1  1  0  0  0  0
 14 21  1  0  0  0  0
 15  3  1  0  0  0  0
 15 14  1  0  0  0  0
 16 12  1  0  0  0  0
 17  9  1  0  0  0  0
 18  1  1  0  0  0  0
 19 23  1  0  0  0  0
 19  7  1  0  0  0  0
 21 22  1  0  0  0  0
 22 17  1  0  0  0  0
 23 11  1  0  0  0  0
 25 24  1  0  0  0  0
 25 19  1  0  0  0  0
 26 25  2  0  0  0  0
 27 29  1  0  0  0  0
 28 30  1  0  0  0  0
 29 28  2  0  0  0  0
 29 26  1  0  0  0  0
 30 24  2  0  0  0  0
 32 34  1  0  0  0  0
 32 31  2  0  0  0  0
 33 14  1  0  0  0  0
 33 35  2  0  0  0  0
 34 33  1  0  0  0  0
 36 37  1  0  0  0  0
 37 32  1  0  0  0  0
M  END
>  <MODEL>
2

>  <REMARK>
 VINA RESULT:      -6.2      1.262      1.665
  Name = 
  3 active torsions:
  status: ('A' for Active; 'I' for Inactive)
    1  A    between atoms: C_4  and  O_37
    2  A    between atoms: C_8  and  C_18
    3  A    between atoms: C_23  and  C_30
                            x       y       z     vdW  Elec       q    Type
                         _______ _______ _______ _____ _____    ______ ____

>  <TORSDO>
F 3

$$$$
