=
 OpenBabel11122414243D

 34 41  0  0  1  0  0  0  0  0999 V2000
  160.9090  207.8550  154.2700 C   0  0  0  0  0  0  0  0  0  0  0  0
  161.8960  206.0720  152.7950 C   0  0  0  0  0  2  0  0  0  0  0  0
  159.6820  213.3930  155.9500 C   0  0  2  0  0  3  0  0  0  0  0  0
  159.1540  209.3790  155.0200 C   0  0  0  0  0  0  0  0  0  0  0  0
  158.9830  211.7290  154.0080 C   0  0  1  0  0  3  0  0  0  0  0  0
  160.9550  211.7560  155.5120 O   0  0  0  0  0  0  0  0  0  0  0  0
  160.7080  212.5360  156.6570 C   0  0  0  0  0  2  0  0  0  0  0  0
  157.9510  211.7870  156.9880 C   0  0  0  0  0  2  0  0  0  0  0  0
  162.3010  208.3890  152.1480 C   0  0  2  0  0  3  0  0  0  0  0  0
  161.8010  208.8800  149.0380 C   0  0  0  0  0  2  0  0  0  0  0  0
  159.5690  211.1180  152.7390 C   0  0  0  0  0  2  0  0  0  0  0  0
  157.3050  211.0080  155.8640 C   0  0  0  0  0  2  0  0  0  0  0  0
  161.1470  209.3560  151.8080 C   0  0  1  0  0  3  0  0  0  0  0  0
  162.7610  206.0450  151.5560 C   0  0  0  0  0  2  0  0  0  0  0  0
  158.2970  210.5970  154.7790 C   0  0  2  0  0  3  0  0  0  0  0  0
  158.2690  213.2040  156.5230 C   0  0  0  0  0  2  0  0  0  0  0  0
  161.8180  207.5000  149.7210 C   0  0  1  0  0  3  0  0  0  0  0  0
  160.1960  209.0620  154.1120 C   0  0  0  0  0  0  0  0  0  0  0  0
  160.0680  212.5430  154.7580 C   0  0  2  0  0  3  0  0  0  0  0  0
  160.6460  210.0650  153.0650 C   0  0  2  0  0  3  0  0  0  0  0  0
  159.5580  207.3080  156.2140 C   0  0  0  0  0  3  0  0  0  0  0  0
  162.4800  209.8490  149.7950 O   0  0  0  0  0  0  0  0  0  0  0  0
  158.8350  208.4860  156.0490 C   0  0  0  0  0  3  0  0  0  0  0  0
  161.5620  210.3740  150.7230 C   0  0  0  0  0  2  0  0  0  0  0  0
  162.7080  207.4510  150.9860 C   0  0  1  0  0  3  0  0  0  0  0  0
  160.5910  206.9980  155.3320 C   0  0  0  0  0  3  0  0  0  0  0  0
  162.0480  207.4740  153.3530 C   0  0  1  0  0  3  0  0  0  0  0  0
  160.5070  207.1050  150.0110 O   0  0  0  0  0  0  0  0  0  0  0  0
  160.0740  206.4160  148.8740 C   0  0  0  0  0  2  0  0  0  0  0  0
  161.7080  203.3070  147.8970 C   0  0  0  0  0  2  0  0  0  0  0  0
  161.0410  205.5950  146.9140 C   0  0  0  0  0  2  0  0  0  0  0  0
  161.1530  205.5900  148.3630 N   0  0  0  0  0  0  0  0  0  0  0  0
  161.7770  204.0690  146.2550 S   0  0  0  0  0  0  0  0  0  0  0  0
  160.8910  204.2230  148.7750 C   0  0  0  0  0  2  0  0  0  0  0  0
  1 26  1  0  0  0  0
  2 27  1  0  0  0  0
  3 16  1  1  0  0  0
  3  7  1  0  0  0  0
  4 23  2  0  0  0  0
  5 11  1  6  0  0  0
  5 19  1  0  0  0  0
  5 15  1  0  0  0  0
  6  7  1  0  0  0  0
  9 27  1  0  0  0  0
 10 17  1  0  0  0  0
 10 22  1  0  0  0  0
 11 20  1  0  0  0  0
 12  8  1  0  0  0  0
 13  9  1  0  0  0  0
 13 20  1  0  0  0  0
 14  2  1  0  0  0  0
 15  4  1  0  0  0  0
 15 12  1  0  0  0  0
 16  8  1  0  0  0  0
 17 28  1  0  0  0  0
 17 25  1  0  0  0  0
 18  1  2  0  0  0  0
 18  4  1  0  0  0  0
 19  6  1  0  0  0  0
 19  3  1  0  0  0  0
 20 18  1  0  0  0  0
 22 24  1  0  0  0  0
 23 21  1  0  0  0  0
 24 13  1  0  0  0  0
 25 14  1  0  0  0  0
 25  9  1  0  0  0  0
 26 21  2  0  0  0  0
 27  1  1  0  0  0  0
 29 28  1  0  0  0  0
 30 34  1  0  0  0  0
 31 32  1  0  0  0  0
 32 34  1  0  0  0  0
 32 29  1  0  0  0  0
 33 31  1  0  0  0  0
 33 30  1  0  0  0  0
M  END
>  <MODEL>
1

>  <REMARK>
 VINA RESULT:      -6.1      0.000      0.000
  Name = 
  3 active torsions:
  status: ('A' for Active; 'I' for Inactive)
    1  A    between atoms: C_17  and  O_28
    2  A    between atoms: O_28  and  C_29
    3  A    between atoms: C_29  and  N_32
                            x       y       z     vdW  Elec       q    Type
                         _______ _______ _______ _____ _____    ______ ____

>  <TORSDO>
F 3

$$$$
=
 OpenBabel11122414243D

 34 41  0  0  1  0  0  0  0  0999 V2000
  161.1760  211.1830  151.3330 C   0  0  0  0  0  0  0  0  0  0  0  0
  160.5880  212.8160  149.5130 C   0  0  0  0  0  2  0  0  0  0  0  0
  161.2140  209.0360  156.8450 C   0  0  2  0  0  3  0  0  0  0  0  0
  160.8370  209.1960  152.7120 C   0  0  0  0  0  0  0  0  0  0  0  0
  159.4700  209.3590  154.8750 C   0  0  1  0  0  3  0  0  0  0  0  0
  161.6440  210.4600  155.3360 O   0  0  0  0  0  0  0  0  0  0  0  0
  162.4240  209.6910  156.2190 C   0  0  0  0  0  2  0  0  0  0  0  0
  161.6660  207.1170  155.1830 C   0  0  0  0  0  2  0  0  0  0  0  0
  159.7960  213.3360  151.7610 C   0  0  2  0  0  3  0  0  0  0  0  0
  156.7370  214.2330  151.7870 C   0  0  0  0  0  2  0  0  0  0  0  0
  158.6950  210.4780  154.1850 C   0  0  0  0  0  2  0  0  0  0  0  0
  160.5230  207.0760  154.1940 C   0  0  0  0  0  2  0  0  0  0  0  0
  158.8380  212.3990  152.5270 C   0  0  1  0  0  3  0  0  0  0  0  0
  159.8610  214.1390  149.4350 C   0  0  0  0  0  2  0  0  0  0  0  0
  160.0520  208.4670  153.7740 C   0  0  2  0  0  3  0  0  0  0  0  0
  161.1510  207.5280  156.5580 C   0  0  0  0  0  2  0  0  0  0  0  0
  157.5830  214.0230  150.5180 C   0  0  1  0  0  3  0  0  0  0  0  0
  160.5280  210.5470  152.4130 C   0  0  0  0  0  0  0  0  0  0  0  0
  160.4620  209.9550  155.9050 C   0  0  2  0  0  3  0  0  0  0  0  0
  159.6220  211.3560  153.3220 C   0  0  2  0  0  3  0  0  0  0  0  0
  162.4190  209.1460  150.8750 C   0  0  0  0  0  3  0  0  0  0  0  0
  157.5370  214.4530  152.9200 O   0  0  0  0  0  0  0  0  0  0  0  0
  161.7650  208.5050  151.9240 C   0  0  0  0  0  3  0  0  0  0  0  0
  157.8810  213.1930  153.4420 C   0  0  0  0  0  2  0  0  0  0  0  0
  159.0950  214.2650  150.7400 C   0  0  1  0  0  3  0  0  0  0  0  0
  162.1280  210.4770  150.5850 C   0  0  0  0  0  3  0  0  0  0  0  0
  160.9120  212.6280  150.9820 C   0  0  1  0  0  3  0  0  0  0  0  0
  157.3470  212.7430  150.0050 O   0  0  0  0  0  0  0  0  0  0  0  0
  156.5280  212.9420  148.8900 C   0  0  0  0  0  2  0  0  0  0  0  0
  158.0540  212.9440  145.5780 C   0  0  0  0  0  2  0  0  0  0  0  0
  156.4390  214.3410  147.0220 C   0  0  0  0  0  2  0  0  0  0  0  0
  157.3170  213.4780  147.7940 N   0  0  0  0  0  0  0  0  0  0  0  0
  157.0380  214.4180  145.3070 S   0  0  0  0  0  0  0  0  0  0  0  0
  157.6540  212.3710  146.9160 C   0  0  0  0  0  2  0  0  0  0  0  0
  1 18  1  0  0  0  0
  2 27  1  0  0  0  0
  3  7  1  6  0  0  0
  4 15  1  0  0  0  0
  5 11  1  6  0  0  0
  5 19  1  0  0  0  0
  6 19  1  0  0  0  0
  6  7  1  0  0  0  0
  8 16  1  0  0  0  0
  9 13  1  0  0  0  0
 10 22  1  0  0  0  0
 12  8  1  0  0  0  0
 13 20  1  0  0  0  0
 13 24  1  0  0  0  0
 14  2  1  0  0  0  0
 14 25  1  0  0  0  0
 15 12  1  0  0  0  0
 15  5  1  0  0  0  0
 16  3  1  0  0  0  0
 17 25  1  0  0  0  0
 17 10  1  0  0  0  0
 18  4  2  0  0  0  0
 18 20  1  0  0  0  0
 19  3  1  0  0  0  0
 20 11  1  0  0  0  0
 21 23  2  0  0  0  0
 22 24  1  0  0  0  0
 23  4  1  0  0  0  0
 25  9  1  0  0  0  0
 26 21  1  0  0  0  0
 26  1  2  0  0  0  0
 27  1  1  0  0  0  0
 27  9  1  0  0  0  0
 28 17  1  0  0  0  0
 29 28  1  0  0  0  0
 30 34  1  0  0  0  0
 31 32  1  0  0  0  0
 32 29  1  0  0  0  0
 33 30  1  0  0  0  0
 33 31  1  0  0  0  0
 34 32  1  0  0  0  0
M  END
>  <MODEL>
2

>  <REMARK>
 VINA RESULT:      -3.9      4.017      6.384
  Name = 
  3 active torsions:
  status: ('A' for Active; 'I' for Inactive)
    1  A    between atoms: C_17  and  O_28
    2  A    between atoms: O_28  and  C_29
    3  A    between atoms: C_29  and  N_32
                            x       y       z     vdW  Elec       q    Type
                         _______ _______ _______ _____ _____    ______ ____

>  <TORSDO>
F 3

$$$$
