=
 OpenBabel11122413233D

 31 35  0  0  1  0  0  0  0  0999 V2000
  160.5420  207.7690  155.4520 C   0  0  0  0  0  0  0  0  0  0  0  0
  161.7010  208.0870  151.8860 N   0  0  0  0  0  0  0  0  0  0  0  0
  161.3990  206.8580  151.1880 C   0  0  0  0  0  0  0  0  0  0  0  0
  159.8680  212.9620  151.1470 O   0  0  0  0  0  0  0  0  0  0  0  0
  160.6430  212.6620  150.2000 C   0  0  0  0  0  0  0  0  0  0  0  0
  160.8640  204.4870  151.1510 C   0  0  0  0  0  0  0  0  0  0  0  0
  161.1520  208.3850  153.1850 C   0  0  0  0  0  0  0  0  0  0  0  0
  160.0220  209.0490  155.6620 C   0  0  0  0  0  3  0  0  0  0  0  0
  161.1620  205.6520  151.8660 C   0  0  0  0  0  3  0  0  0  0  0  0
  161.3710  210.4520  151.2590 C   0  0  0  0  0  0  0  0  0  0  0  0
  160.4820  206.5790  156.7330 Cl  0  0  0  0  0  0  0  0  0  0  0  0
  161.5460  208.1750  149.0900 C   0  0  0  0  0  2  0  0  0  0  0  0
  160.6140  203.2150  151.8780 C   0  0  0  0  0  1  0  0  0  0  0  0
  160.6850  210.6460  152.3510 N   0  0  0  0  0  0  0  0  0  0  0  0
  162.2630  209.2370  151.1450 C   0  0  2  0  0  3  0  0  0  0  0  0
  161.4000  211.4450  150.2260 N   0  0  0  0  0  2  0  0  0  0  0  0
  161.1040  207.4350  154.2150 C   0  0  0  0  0  3  0  0  0  0  0  0
  160.7950  204.5210  149.7560 C   0  0  0  0  0  3  0  0  0  0  0  0
  160.6430  209.6760  153.4080 C   0  0  0  0  0  0  0  0  0  0  0  0
  160.0700  210.0020  154.6410 C   0  0  0  0  0  3  0  0  0  0  0  0
  162.6180  208.9160  149.7520 N   0  0  0  0  0  2  0  0  0  0  0  0
  161.3380  206.8770  149.7890 C   0  0  0  0  0  0  0  0  0  0  0  0
  161.0270  205.7190  149.0730 C   0  0  0  0  0  3  0  0  0  0  0  0
  158.6730  213.0060  146.9940 C   0  0  1  0  0  3  0  0  0  0  0  0
  159.4860  214.4530  148.8800 C   0  0  0  0  0  2  0  0  0  0  0  0
  162.3090  212.0100  147.7910 C   0  0  0  0  0  1  0  0  0  0  0  0
  157.4990  212.1960  146.4880 C   0  0  0  0  0  1  0  0  0  0  0  0
  158.3090  213.6430  148.3320 C   0  0  0  0  0  2  0  0  0  0  0  0
  161.0750  212.8890  147.6890 C   0  0  2  0  0  3  0  0  0  0  0  0
  160.7440  213.5900  149.0220 C   0  0  2  0  0  3  0  0  0  0  0  0
  159.8870  212.0940  147.1490 C   0  0  0  0  0  2  0  0  0  0  0  0
  1  8  1  0  0  0  0
  1 11  1  0  0  0  0
  2  7  1  0  0  0  0
  3  9  1  0  0  0  0
  3  2  1  0  0  0  0
  5 16  1  0  0  0  0
  5  4  2  0  0  0  0
  6  9  2  0  0  0  0
  6 13  1  0  0  0  0
  7 19  2  0  0  0  0
  7 17  1  0  0  0  0
 10 14  2  0  0  0  0
 12 21  1  0  0  0  0
 12 22  1  0  0  0  0
 14 19  1  0  0  0  0
 15 21  1  6  0  0  0
 15 10  1  0  0  0  0
 15  2  1  0  0  0  0
 16 10  1  0  0  0  0
 17  1  2  0  0  0  0
 18  6  1  0  0  0  0
 19 20  1  0  0  0  0
 20  8  2  0  0  0  0
 22  3  2  0  0  0  0
 23 18  2  0  0  0  0
 23 22  1  0  0  0  0
 24 27  1  1  0  0  0
 24 31  1  0  0  0  0
 24 28  1  0  0  0  0
 25 30  1  0  0  0  0
 28 25  1  0  0  0  0
 29 26  1  1  0  0  0
 29 30  1  0  0  0  0
 30  5  1  1  0  0  0
 31 29  1  0  0  0  0
M  END
>  <MODEL>
1

>  <REMARK>
 VINA RESULT:      -9.2      0.000      0.000
  Name = 
  1 active torsions:
  status: ('A' for Active; 'I' for Inactive)
    1  A    between atoms: C_5  and  C_30
                            x       y       z     vdW  Elec       q    Type
                         _______ _______ _______ _____ _____    ______ ____

>  <TORSDO>
F 1

$$$$
=
 OpenBabel11122413233D

 31 35  0  0  1  0  0  0  0  0999 V2000
  161.0580  202.1860  150.6540 C   0  0  0  0  0  0  0  0  0  0  0  0
  161.9700  205.5880  149.3330 N   0  0  0  0  0  0  0  0  0  0  0  0
  161.5090  205.6960  147.9680 C   0  0  0  0  0  0  0  0  0  0  0  0
  160.5270  208.2520  153.6330 O   0  0  0  0  0  0  0  0  0  0  0  0
  161.1990  209.0080  152.8830 C   0  0  0  0  0  0  0  0  0  0  0  0
  160.7650  204.7150  145.8710 C   0  0  0  0  0  0  0  0  0  0  0  0
  161.5490  204.5190  150.2020 C   0  0  0  0  0  0  0  0  0  0  0  0
  160.6710  202.5170  151.9560 C   0  0  0  0  0  3  0  0  0  0  0  0
  161.2180  204.5670  147.1860 C   0  0  0  0  0  3  0  0  0  0  0  0
  161.8050  207.1410  151.2450 C   0  0  0  0  0  0  0  0  0  0  0  0
  160.9890  200.5220  150.1180 Cl  0  0  0  0  0  0  0  0  0  0  0  0
  161.6150  208.1560  148.2700 C   0  0  0  0  0  2  0  0  0  0  0  0
  160.4590  203.5150  145.0520 C   0  0  0  0  0  1  0  0  0  0  0  0
  161.2230  206.2120  151.9500 N   0  0  0  0  0  0  0  0  0  0  0  0
  162.5750  206.7610  150.0010 C   0  0  2  0  0  3  0  0  0  0  0  0
  161.8450  208.4960  151.7100 N   0  0  0  0  0  2  0  0  0  0  0  0
  161.4940  203.1840  149.7770 C   0  0  0  0  0  3  0  0  0  0  0  0
  160.5940  205.9940  145.3310 C   0  0  0  0  0  3  0  0  0  0  0  0
  161.1740  204.8440  151.5170 C   0  0  0  0  0  0  0  0  0  0  0  0
  160.7270  203.8460  152.3880 C   0  0  0  0  0  3  0  0  0  0  0  0
  162.7950  207.9010  149.0930 N   0  0  0  0  0  2  0  0  0  0  0  0
  161.3450  206.9700  147.4110 C   0  0  0  0  0  0  0  0  0  0  0  0
  160.8810  207.1230  146.1030 C   0  0  0  0  0  3  0  0  0  0  0  0
  160.3010  211.0250  155.9500 C   0  0  1  0  0  3  0  0  0  0  0  0
  162.2490  210.7120  154.3940 C   0  0  0  0  0  2  0  0  0  0  0  0
  158.9520  210.9220  152.3410 C   0  0  0  0  0  1  0  0  0  0  0  0
  159.6940  210.5730  157.2610 C   0  0  0  0  0  1  0  0  0  0  0  0
  161.6210  210.2930  155.7240 C   0  0  0  0  0  2  0  0  0  0  0  0
  159.9350  211.1510  153.4770 C   0  0  2  0  0  3  0  0  0  0  0  0
  161.2930  210.4700  153.2200 C   0  0  2  0  0  3  0  0  0  0  0  0
  159.3260  210.7300  154.8130 C   0  0  0  0  0  2  0  0  0  0  0  0
  1  8  1  0  0  0  0
  2 15  1  0  0  0  0
  2  7  1  0  0  0  0
  3  2  1  0  0  0  0
  5  4  2  0  0  0  0
  6  9  1  0  0  0  0
  7 19  2  0  0  0  0
  8 20  2  0  0  0  0
  9  3  2  0  0  0  0
 10 16  1  0  0  0  0
 10 14  2  0  0  0  0
 11  1  1  0  0  0  0
 12 21  1  0  0  0  0
 13  6  1  0  0  0  0
 15 21  1  6  0  0  0
 15 10  1  0  0  0  0
 16  5  1  0  0  0  0
 17  7  1  0  0  0  0
 17  1  2  0  0  0  0
 18  6  2  0  0  0  0
 18 23  1  0  0  0  0
 19 14  1  0  0  0  0
 19 20  1  0  0  0  0
 22  3  1  0  0  0  0
 22 12  1  0  0  0  0
 23 22  2  0  0  0  0
 24 27  1  1  0  0  0
 25 28  1  0  0  0  0
 28 24  1  0  0  0  0
 29 26  1  6  0  0  0
 29 31  1  0  0  0  0
 30  5  1  1  0  0  0
 30 29  1  0  0  0  0
 30 25  1  0  0  0  0
 31 24  1  0  0  0  0
M  END
>  <MODEL>
2

>  <REMARK>
 VINA RESULT:      -7.4      3.454      5.917
  Name = 
  1 active torsions:
  status: ('A' for Active; 'I' for Inactive)
    1  A    between atoms: C_5  and  C_30
                            x       y       z     vdW  Elec       q    Type
                         _______ _______ _______ _____ _____    ______ ____

>  <TORSDO>
F 1

$$$$
=
 OpenBabel11122413233D

 31 35  0  0  1  0  0  0  0  0999 V2000
  161.1340  202.2210  150.7830 C   0  0  0  0  0  0  0  0  0  0  0  0
  161.9830  205.6910  149.6000 N   0  0  0  0  0  0  0  0  0  0  0  0
  161.5270  205.8420  148.2370 C   0  0  0  0  0  0  0  0  0  0  0  0
  160.4640  208.1540  153.9930 O   0  0  0  0  0  0  0  0  0  0  0  0
  161.1240  208.9520  153.2760 C   0  0  0  0  0  0  0  0  0  0  0  0
  160.8140  204.9290  146.1000 C   0  0  0  0  0  0  0  0  0  0  0  0
  161.5800  204.5790  150.4240 C   0  0  0  0  0  0  0  0  0  0  0  0
  160.7340  202.4930  152.0940 C   0  0  0  0  0  3  0  0  0  0  0  0
  161.2630  204.7380  147.4110 C   0  0  0  0  0  3  0  0  0  0  0  0
  161.7770  207.1640  151.5710 C   0  0  0  0  0  0  0  0  0  0  0  0
  161.1020  200.5780  150.1810 Cl  0  0  0  0  0  0  0  0  0  0  0  0
  161.5810  208.2900  148.6360 C   0  0  0  0  0  2  0  0  0  0  0  0
  160.5370  203.7550  145.2330 C   0  0  0  0  0  1  0  0  0  0  0  0
  161.2100  206.1960  152.2360 N   0  0  0  0  0  0  0  0  0  0  0  0
  162.5600  206.8490  150.3170 C   0  0  2  0  0  3  0  0  0  0  0  0
  161.7870  208.5000  152.0880 N   0  0  0  0  0  2  0  0  0  0  0  0
  161.5540  203.2610  149.9480 C   0  0  0  0  0  3  0  0  0  0  0  0
  160.6200  206.2240  145.6090 C   0  0  0  0  0  3  0  0  0  0  0  0
  161.1920  204.8450  151.7490 C   0  0  0  0  0  0  0  0  0  0  0  0
  160.7600  203.8050  152.5770 C   0  0  0  0  0  3  0  0  0  0  0  0
  162.7610  208.0270  149.4560 N   0  0  0  0  0  2  0  0  0  0  0  0
  161.3400  207.1330  147.7300 C   0  0  0  0  0  0  0  0  0  0  0  0
  160.8790  207.3280  146.4260 C   0  0  0  0  0  3  0  0  0  0  0  0
  158.5260  211.4390  154.4370 C   0  0  1  0  0  3  0  0  0  0  0  0
  160.7880  210.5990  155.1370 C   0  0  0  0  0  2  0  0  0  0  0  0
  160.7340  211.1690  151.2910 C   0  0  0  0  0  1  0  0  0  0  0  0
  157.0360  211.2600  154.6360 C   0  0  0  0  0  1  0  0  0  0  0  0
  159.2770  210.4570  155.3320 C   0  0  0  0  0  2  0  0  0  0  0  0
  160.3790  211.3440  152.7570 C   0  0  2  0  0  3  0  0  0  0  0  0
  161.1860  210.4020  153.6710 C   0  0  2  0  0  3  0  0  0  0  0  0
  158.8740  211.1980  152.9710 C   0  0  0  0  0  2  0  0  0  0  0  0
  1  8  1  0  0  0  0
  2 15  1  0  0  0  0
  2  7  1  0  0  0  0
  3  2  1  0  0  0  0
  5  4  2  0  0  0  0
  6  9  1  0  0  0  0
  7 19  2  0  0  0  0
  8 20  2  0  0  0  0
  9  3  2  0  0  0  0
 10 16  1  0  0  0  0
 10 14  2  0  0  0  0
 11  1  1  0  0  0  0
 12 21  1  0  0  0  0
 13  6  1  0  0  0  0
 15 21  1  6  0  0  0
 15 10  1  0  0  0  0
 16  5  1  0  0  0  0
 17  7  1  0  0  0  0
 17  1  2  0  0  0  0
 18  6  2  0  0  0  0
 18 23  1  0  0  0  0
 19 14  1  0  0  0  0
 19 20  1  0  0  0  0
 22  3  1  0  0  0  0
 22 12  1  0  0  0  0
 23 22  2  0  0  0  0
 24 27  1  6  0  0  0
 24 28  1  0  0  0  0
 25 28  1  0  0  0  0
 29 26  1  6  0  0  0
 29 31  1  0  0  0  0
 29 30  1  0  0  0  0
 30  5  1  6  0  0  0
 30 25  1  0  0  0  0
 31 24  1  0  0  0  0
M  END
>  <MODEL>
3

>  <REMARK>
 VINA RESULT:      -7.2      3.215      5.450
  Name = 
  1 active torsions:
  status: ('A' for Active; 'I' for Inactive)
    1  A    between atoms: C_5  and  C_30
                            x       y       z     vdW  Elec       q    Type
                         _______ _______ _______ _____ _____    ______ ____

>  <TORSDO>
F 1

$$$$
