=
 OpenBabel11122412313D

 30 35  0  0  1  0  0  0  0  0999 V2000
  161.4050  206.3680  150.3640 C   0  0  0  0  0  0  0  0  0  0  0  0
  161.2840  203.8740  150.2830 C   0  0  0  0  0  0  0  0  0  0  0  0
  160.5690  206.3630  154.4860 N   0  0  0  0  0  2  0  0  0  0  0  0
  161.3230  207.5730  151.1110 C   0  0  0  0  0  0  0  0  0  0  0  0
  161.6570  206.4430  148.9570 N   0  0  0  0  0  2  0  0  0  0  0  0
  161.7040  209.9680  148.3990 O   0  0  0  0  0  0  0  0  0  0  0  0
  160.5490  210.4710  152.0110 C   0  0  1  0  0  3  0  0  0  0  0  0
  161.7660  208.8740  149.0240 C   0  0  0  0  0  0  0  0  0  0  0  0
  160.5340  209.7860  153.3170 C   0  0  0  0  0  0  0  0  0  0  0  0
  160.5490  207.7800  154.8310 C   0  0  1  0  0  3  0  0  0  0  0  0
  162.1710  207.6320  148.2920 C   0  0  2  0  0  3  0  0  0  0  0  0
  161.5610  208.8420  150.4470 N   0  0  0  0  0  0  0  0  0  0  0  0
  161.1000  202.6620  150.9560 C   0  0  0  0  0  3  0  0  0  0  0  0
  160.2520  210.7540  154.3750 C   0  0  0  0  0  2  0  0  0  0  0  0
  160.5370  211.8550  152.2670 O   0  0  0  0  0  0  0  0  0  0  0  0
  161.5420  203.8270  148.9180 O   0  0  0  0  0  1  0  0  0  0  0  0
  160.8480  206.2510  153.0940 C   0  0  0  0  0  0  0  0  0  0  0  0
  160.8420  202.6390  152.3250 C   0  0  0  0  0  3  0  0  0  0  0  0
  161.2090  205.1020  150.9910 C   0  0  0  0  0  0  0  0  0  0  0  0
  160.9950  207.4690  152.4810 C   0  0  0  0  0  0  0  0  0  0  0  0
  161.7130  208.0850  155.7570 C   0  0  0  0  0  1  0  0  0  0  0  0
  160.7350  208.4800  153.5120 C   0  0  0  0  0  0  0  0  0  0  0  0
  160.0270  212.0210  153.5750 C   0  0  0  0  0  2  0  0  0  0  0  0
  163.0960  210.1350  151.8960 C   0  0  0  0  0  1  0  0  0  0  0  0
  160.7630  203.8320  153.0380 C   0  0  0  0  0  3  0  0  0  0  0  0
  160.9420  205.0570  152.3860 C   0  0  0  0  0  0  0  0  0  0  0  0
  161.7590  210.1040  151.1620 C   0  0  2  0  0  3  0  0  0  0  0  0
  161.7120  207.6620  146.9730 O   0  0  0  0  0  0  0  0  0  0  0  0
  160.4450  206.2470  145.5450 C   0  0  0  0  0  1  0  0  0  0  0  0
  161.4850  206.3260  146.6420 C   0  0  0  0  0  2  0  0  0  0  0  0
  1 19  2  0  0  0  0
  1  4  1  0  0  0  0
  2 13  2  0  0  0  0
  2 19  1  0  0  0  0
  3 10  1  0  0  0  0
  4 20  2  0  0  0  0
  5  1  1  0  0  0  0
  6  8  2  0  0  0  0
  7 15  1  1  0  0  0
  7  9  1  0  0  0  0
  8 12  1  0  0  0  0
  9 22  2  0  0  0  0
  9 14  1  0  0  0  0
 10 21  1  1  0  0  0
 11 28  1  6  0  0  0
 11  5  1  0  0  0  0
 11  8  1  0  0  0  0
 12  4  1  0  0  0  0
 12 27  1  0  0  0  0
 13 18  1  0  0  0  0
 15 23  1  0  0  0  0
 16  2  1  0  0  0  0
 17  3  1  0  0  0  0
 18 25  2  0  0  0  0
 19 26  1  0  0  0  0
 20 17  1  0  0  0  0
 20 22  1  0  0  0  0
 22 10  1  0  0  0  0
 23 14  1  0  0  0  0
 26 25  1  0  0  0  0
 26 17  2  0  0  0  0
 27 24  1  1  0  0  0
 27  7  1  0  0  0  0
 29 30  1  0  0  0  0
 30 28  1  0  0  0  0
M  END
>  <MODEL>
1

>  <REMARK>
 VINA RESULT:      -8.1      0.000      0.000
  Name = 
  2 active torsions:
  status: ('A' for Active; 'I' for Inactive)
    1  A    between atoms: C_11  and  O_28
    2  A    between atoms: O_28  and  C_30
                            x       y       z     vdW  Elec       q    Type
                         _______ _______ _______ _____ _____    ______ ____

>  <TORSDO>
F 2

$$$$
=
 OpenBabel11122412313D

 30 35  0  0  1  0  0  0  0  0999 V2000
  161.4850  207.7000  151.4910 C   0  0  0  0  0  0  0  0  0  0  0  0
  161.7910  210.1310  151.0040 C   0  0  0  0  0  0  0  0  0  0  0  0
  161.7730  206.7550  147.4030 N   0  0  0  0  0  2  0  0  0  0  0  0
  161.3880  206.3620  151.0250 C   0  0  0  0  0  0  0  0  0  0  0  0
  161.3410  207.9560  152.8920 N   0  0  0  0  0  2  0  0  0  0  0  0
  160.6140  204.7030  154.1690 O   0  0  0  0  0  0  0  0  0  0  0  0
  160.3760  203.4330  150.5680 C   0  0  1  0  0  3  0  0  0  0  0  0
  161.0310  205.5900  153.3740 C   0  0  0  0  0  0  0  0  0  0  0  0
  160.8250  203.7630  149.2030 C   0  0  0  0  0  0  0  0  0  0  0  0
  161.5930  205.3070  147.3740 C   0  0  1  0  0  3  0  0  0  0  0  0
  161.4440  206.9240  153.9140 C   0  0  2  0  0  3  0  0  0  0  0  0
  161.2150  205.2840  151.9820 N   0  0  0  0  0  0  0  0  0  0  0  0
  162.0080  211.1460  150.0670 C   0  0  0  0  0  3  0  0  0  0  0  0
  160.6640  202.5960  148.3380 C   0  0  0  0  0  2  0  0  0  0  0  0
  160.1860  202.0400  150.6180 O   0  0  0  0  0  0  0  0  0  0  0  0
  161.6860  210.4930  152.3420 O   0  0  0  0  0  1  0  0  0  0  0  0
  161.6920  207.1830  148.7580 C   0  0  0  0  0  0  0  0  0  0  0  0
  162.1260  210.8500  148.7110 C   0  0  0  0  0  3  0  0  0  0  0  0
  161.6880  208.7800  150.5810 C   0  0  0  0  0  0  0  0  0  0  0  0
  161.4550  206.1510  149.6290 C   0  0  0  0  0  0  0  0  0  0  0  0
  162.8860  204.6520  146.9210 C   0  0  0  0  0  1  0  0  0  0  0  0
  161.2990  204.9480  148.8060 C   0  0  0  0  0  0  0  0  0  0  0  0
  160.0160  201.6050  149.2840 C   0  0  0  0  0  2  0  0  0  0  0  0
  162.8210  203.5060  151.3600 C   0  0  0  0  0  1  0  0  0  0  0  0
  162.0260  209.5320  148.2750 C   0  0  0  0  0  3  0  0  0  0  0  0
  161.8080  208.5000  149.1940 C   0  0  0  0  0  0  0  0  0  0  0  0
  161.3670  203.8680  151.6410 C   0  0  2  0  0  3  0  0  0  0  0  0
  160.6570  207.2790  155.0130 O   0  0  0  0  0  0  0  0  0  0  0  0
  161.8500  208.5390  156.6380 C   0  0  0  0  0  1  0  0  0  0  0  0
  161.0660  208.5720  155.3430 C   0  0  0  0  0  2  0  0  0  0  0  0
  1  5  1  0  0  0  0
  2 16  1  0  0  0  0
  3 17  1  0  0  0  0
  4  1  1  0  0  0  0
  4 12  1  0  0  0  0
  5 11  1  0  0  0  0
  7  9  1  6  0  0  0
  7 15  1  0  0  0  0
  7 27  1  0  0  0  0
  8 11  1  0  0  0  0
  8  6  2  0  0  0  0
 10 21  1  1  0  0  0
 10  3  1  0  0  0  0
 10 22  1  0  0  0  0
 11 28  1  1  0  0  0
 12  8  1  0  0  0  0
 13  2  2  0  0  0  0
 14  9  1  0  0  0  0
 14 23  1  0  0  0  0
 17 26  2  0  0  0  0
 17 20  1  0  0  0  0
 18 13  1  0  0  0  0
 19  2  1  0  0  0  0
 19  1  2  0  0  0  0
 20  4  2  0  0  0  0
 22  9  2  0  0  0  0
 22 20  1  0  0  0  0
 23 15  1  0  0  0  0
 25 18  2  0  0  0  0
 25 26  1  0  0  0  0
 26 19  1  0  0  0  0
 27 24  1  6  0  0  0
 27 12  1  0  0  0  0
 28 30  1  0  0  0  0
 30 29  1  0  0  0  0
M  END
>  <MODEL>
2

>  <REMARK>
 VINA RESULT:      -6.9      2.120      7.243
  Name = 
  2 active torsions:
  status: ('A' for Active; 'I' for Inactive)
    1  A    between atoms: C_11  and  O_28
    2  A    between atoms: O_28  and  C_30
                            x       y       z     vdW  Elec       q    Type
                         _______ _______ _______ _____ _____    ______ ____

>  <TORSDO>
F 2

$$$$
=
 OpenBabel11122412313D

 30 35  0  0  1  0  0  0  0  0999 V2000
  161.2920  207.9720  151.4380 C   0  0  0  0  0  0  0  0  0  0  0  0
  161.5250  205.7350  150.3510 C   0  0  0  0  0  0  0  0  0  0  0  0
  160.3560  206.1820  155.1260 N   0  0  0  0  0  2  0  0  0  0  0  0
  161.0210  208.7470  152.5970 C   0  0  0  0  0  0  0  0  0  0  0  0
  161.5670  208.6460  150.2060 N   0  0  0  0  0  2  0  0  0  0  0  0
  161.1340  212.0700  151.1180 O   0  0  0  0  0  0  0  0  0  0  0  0
  159.8240  210.9100  154.5210 C   0  0  1  0  0  3  0  0  0  0  0  0
  161.3320  210.8310  151.2530 C   0  0  0  0  0  0  0  0  0  0  0  0
  159.8710  209.7530  155.4350 C   0  0  0  0  0  0  0  0  0  0  0  0
  160.1280  207.3200  156.0100 C   0  0  1  0  0  3  0  0  0  0  0  0
  161.9270  210.0540  150.1200 C   0  0  2  0  0  3  0  0  0  0  0  0
  161.0960  210.1950  152.5210 N   0  0  0  0  0  0  0  0  0  0  0  0
  161.4950  204.3410  150.4630 C   0  0  0  0  0  3  0  0  0  0  0  0
  159.4280  210.1630  156.7660 C   0  0  0  0  0  2  0  0  0  0  0  0
  159.6110  212.0550  155.3100 O   0  0  0  0  0  0  0  0  0  0  0  0
  161.8230  206.2810  149.1080 O   0  0  0  0  0  1  0  0  0  0  0  0
  160.6850  206.6830  153.8350 C   0  0  0  0  0  0  0  0  0  0  0  0
  161.2060  203.7300  151.6810 C   0  0  0  0  0  3  0  0  0  0  0  0
  161.2590  206.5470  151.4850 C   0  0  0  0  0  0  0  0  0  0  0  0
  160.6750  208.0540  153.7780 C   0  0  0  0  0  0  0  0  0  0  0  0
  161.2130  207.3530  157.0720 C   0  0  0  0  0  1  0  0  0  0  0  0
  160.2480  208.5150  155.1030 C   0  0  0  0  0  0  0  0  0  0  0  0
  159.0490  211.6100  156.5270 C   0  0  0  0  0  2  0  0  0  0  0  0
  162.3950  210.9520  154.4880 C   0  0  0  0  0  1  0  0  0  0  0  0
  160.9410  204.5080  152.8040 C   0  0  0  0  0  3  0  0  0  0  0  0
  160.9640  205.9040  152.7160 C   0  0  0  0  0  0  0  0  0  0  0  0
  161.0960  211.0670  153.6970 C   0  0  2  0  0  3  0  0  0  0  0  0
  161.5040  210.5680  148.8910 O   0  0  0  0  0  0  0  0  0  0  0  0
  162.0670  212.5410  147.6910 C   0  0  0  0  0  1  0  0  0  0  0  0
  162.5820  211.3210  148.4260 C   0  0  0  0  0  2  0  0  0  0  0  0
  1 19  2  0  0  0  0
  1  4  1  0  0  0  0
  2 13  2  0  0  0  0
  2 19  1  0  0  0  0
  3 10  1  0  0  0  0
  4 20  2  0  0  0  0
  5  1  1  0  0  0  0
  6  8  2  0  0  0  0
  7 15  1  1  0  0  0
  7  9  1  0  0  0  0
  8 12  1  0  0  0  0
  9 14  1  0  0  0  0
 10 21  1  1  0  0  0
 11 28  1  6  0  0  0
 11  5  1  0  0  0  0
 11  8  1  0  0  0  0
 12  4  1  0  0  0  0
 12 27  1  0  0  0  0
 13 18  1  0  0  0  0
 15 23  1  0  0  0  0
 16  2  1  0  0  0  0
 17  3  1  0  0  0  0
 18 25  2  0  0  0  0
 19 26  1  0  0  0  0
 20 17  1  0  0  0  0
 20 22  1  0  0  0  0
 22  9  2  0  0  0  0
 22 10  1  0  0  0  0
 23 14  1  0  0  0  0
 26 25  1  0  0  0  0
 26 17  2  0  0  0  0
 27 24  1  1  0  0  0
 27  7  1  0  0  0  0
 29 30  1  0  0  0  0
 30 28  1  0  0  0  0
M  END
>  <MODEL>
3

>  <REMARK>
 VINA RESULT:      -6.3      1.762      2.721
  Name = 
  2 active torsions:
  status: ('A' for Active; 'I' for Inactive)
    1  A    between atoms: C_11  and  O_28
    2  A    between atoms: O_28  and  C_30
                            x       y       z     vdW  Elec       q    Type
                         _______ _______ _______ _____ _____    ______ ____

>  <TORSDO>
F 2

$$$$
=
 OpenBabel11122412313D

 30 35  0  0  1  0  0  0  0  0999 V2000
  161.4820  208.1570  151.2480 C   0  0  0  0  0  0  0  0  0  0  0  0
  161.2060  208.5000  153.7070 C   0  0  0  0  0  0  0  0  0  0  0  0
  161.0540  203.9970  151.6900 N   0  0  0  0  0  2  0  0  0  0  0  0
  161.5400  207.2780  150.1340 C   0  0  0  0  0  0  0  0  0  0  0  0
  161.6730  209.5590  151.0310 N   0  0  0  0  0  2  0  0  0  0  0  0
  162.3780  209.6820  147.5350 O   0  0  0  0  0  0  0  0  0  0  0  0
  162.4840  205.8580  147.5070 C   0  0  1  0  0  3  0  0  0  0  0  0
  161.9530  209.2340  148.6350 C   0  0  0  0  0  0  0  0  0  0  0  0
  162.0000  204.6910  148.2670 C   0  0  0  0  0  0  0  0  0  0  0  0
  161.2070  203.4920  150.3290 C   0  0  1  0  0  3  0  0  0  0  0  0
  161.5810  210.1930  149.7240 C   0  0  2  0  0  3  0  0  0  0  0  0
  161.7220  207.8250  148.8020 N   0  0  0  0  0  0  0  0  0  0  0  0
  160.9800  207.9520  154.9730 C   0  0  0  0  0  3  0  0  0  0  0  0
  162.1140  203.4880  147.4450 C   0  0  0  0  0  2  0  0  0  0  0  0
  162.6500  205.4450  146.1720 O   0  0  0  0  0  0  0  0  0  0  0  0
  161.3580  209.8780  153.6120 O   0  0  0  0  0  1  0  0  0  0  0  0
  161.1830  205.4140  151.6520 C   0  0  0  0  0  0  0  0  0  0  0  0
  160.8160  206.5790  155.1370 C   0  0  0  0  0  3  0  0  0  0  0  0
  161.2720  207.6570  152.5660 C   0  0  0  0  0  0  0  0  0  0  0  0
  161.4270  205.8930  150.3900 C   0  0  0  0  0  0  0  0  0  0  0  0
  159.8890  202.8950  149.8670 C   0  0  0  0  0  1  0  0  0  0  0  0
  161.5360  204.7170  149.5200 C   0  0  0  0  0  0  0  0  0  0  0  0
  162.7720  204.0370  146.1950 C   0  0  0  0  0  2  0  0  0  0  0  0
  160.0650  206.7140  147.3350 C   0  0  0  0  0  1  0  0  0  0  0  0
  160.8790  205.7340  154.0320 C   0  0  0  0  0  3  0  0  0  0  0  0
  161.1050  206.2590  152.7550 C   0  0  0  0  0  0  0  0  0  0  0  0
  161.5340  207.0470  147.5760 C   0  0  2  0  0  3  0  0  0  0  0  0
  162.4070  211.3200  149.6950 O   0  0  0  0  0  0  0  0  0  0  0  0
  162.3250  213.1600  148.1930 C   0  0  0  0  0  1  0  0  0  0  0  0
  161.5870  212.3530  149.2400 C   0  0  0  0  0  2  0  0  0  0  0  0
  1 19  1  0  0  0  0
  2 13  1  0  0  0  0
  4 20  1  0  0  0  0
  4  1  2  0  0  0  0
  5  1  1  0  0  0  0
  6  8  2  0  0  0  0
  7 15  1  6  0  0  0
  7 27  1  0  0  0  0
  7  9  1  0  0  0  0
  8 12  1  0  0  0  0
  8 11  1  0  0  0  0
  9 22  2  0  0  0  0
 10 21  1  6  0  0  0
 10  3  1  0  0  0  0
 11 28  1  1  0  0  0
 11  5  1  0  0  0  0
 12  4  1  0  0  0  0
 13 18  2  0  0  0  0
 14  9  1  0  0  0  0
 15 23  1  0  0  0  0
 16  2  1  0  0  0  0
 17  3  1  0  0  0  0
 17 26  1  0  0  0  0
 19 26  1  0  0  0  0
 19  2  2  0  0  0  0
 20 17  2  0  0  0  0
 22 10  1  0  0  0  0
 22 20  1  0  0  0  0
 23 14  1  0  0  0  0
 25 18  1  0  0  0  0
 26 25  2  0  0  0  0
 27 24  1  1  0  0  0
 27 12  1  0  0  0  0
 29 30  1  0  0  0  0
 30 28  1  0  0  0  0
M  END
>  <MODEL>
4

>  <REMARK>
 VINA RESULT:      -5.9      1.836      5.671
  Name = 
  2 active torsions:
  status: ('A' for Active; 'I' for Inactive)
    1  A    between atoms: C_11  and  O_28
    2  A    between atoms: O_28  and  C_30
                            x       y       z     vdW  Elec       q    Type
                         _______ _______ _______ _____ _____    ______ ____

>  <TORSDO>
F 2

$$$$
