=
 OpenBabel11122413053D

 32 37  0  0  1  0  0  0  0  0999 V2000
  160.8550  201.8190  151.2220 C   0  0  0  0  0  2  0  0  0  0  0  0
  161.3480  206.8500  152.2470 C   0  0  2  0  0  3  0  0  0  0  0  0
  162.3190  209.7910  148.5100 C   0  0  0  0  0  3  0  0  0  0  0  0
  162.2880  210.9090  149.3480 C   0  0  0  0  0  3  0  0  0  0  0  0
  160.7660  207.8990  154.5810 C   0  0  2  0  0  3  0  0  0  0  0  0
  160.8180  209.1820  155.4330 C   0  0  1  0  0  3  0  0  0  0  0  0
  160.7380  204.4770  151.8470 N   0  0  1  0  0  0  0  0  0  0  0  0
  161.1730  205.9850  149.9800 N   0  0  0  0  0  2  0  0  0  0  0  0
  160.9000  211.4860  155.5730 C   0  0  2  0  0  3  0  0  0  0  0  0
  160.5100  203.6870  149.4720 C   0  0  0  0  0  2  0  0  0  0  0  0
  161.8740  208.5520  148.9790 C   0  0  0  0  0  3  0  0  0  0  0  0
  160.8530  207.1300  150.8250 C   0  0  2  0  0  3  0  0  0  0  0  0
  161.4130  208.4230  150.2970 C   0  0  0  0  0  0  0  0  0  0  0  0
  160.8100  209.3710  152.5330 C   0  0  2  0  0  3  0  0  0  0  0  0
  162.0040  210.9340  156.4720 C   0  0  0  0  0  2  0  0  0  0  0  0
  162.2130  202.5100  151.3900 C   0  0  0  0  0  2  0  0  0  0  0  0
  160.3770  204.8530  150.4590 C   0  0  1  0  0  3  0  0  0  0  0  0
  162.1390  209.4760  156.1060 C   0  0  0  0  0  2  0  0  0  0  0  0
  162.1010  203.9370  151.9520 C   0  0  0  0  0  2  0  0  0  0  0  0
  160.0210  202.3490  150.0360 C   0  0  1  0  0  3  0  0  0  0  0  0
  161.8130  210.7900  150.6570 C   0  0  0  0  0  3  0  0  0  0  0  0
  161.3810  209.5460  151.1430 C   0  0  0  0  0  0  0  0  0  0  0  0
  161.0940  210.5520  153.4530 C   0  0  0  0  0  2  0  0  0  0  0  0
  160.5970  205.6180  152.7620 C   0  0  0  0  0  2  0  0  0  0  0  0
  161.4080  206.8560  155.2550 O   0  0  0  0  0  1  0  0  0  0  0  0
  159.7770  212.0490  156.4230 C   0  0  0  0  0  1  0  0  0  0  0  0
  161.3710  208.0980  153.1850 C   0  0  2  0  0  3  0  0  0  0  0  0
  160.3940  210.4020  154.7330 N   0  0  1  0  0  0  0  0  0  0  0  0
  160.0020  201.3220  148.9150 C   0  0  0  0  0  2  0  0  0  0  0  0
  161.2050  201.4690  148.0480 C   0  0  0  0  0  0  0  0  0  0  0  0
  162.2330  200.7780  148.2730 O   0  0  0  0  0  1  0  0  0  0  0  0
  161.1840  202.3500  146.9740 O   0  0  0  0  0  0  0  0  0  0  0  0
  1 16  1  0  0  0  0
  2 24  1  1  0  0  0
  2 27  1  0  0  0  0
  3 11  2  0  0  0  0
  3  4  1  0  0  0  0
  4 21  2  0  0  0  0
  5 25  1  1  0  0  0
  5  6  1  0  0  0  0
  6 18  1  6  0  0  0
  7 19  1  6  0  0  0
  7 24  1  0  0  0  0
  8 17  1  0  0  0  0
  9 26  1  1  0  0  0
  9 15  1  0  0  0  0
 10 20  1  0  0  0  0
 11 13  1  0  0  0  0
 12  8  1  6  0  0  0
 12  2  1  0  0  0  0
 13 12  1  0  0  0  0
 13 22  2  0  0  0  0
 14 27  1  0  0  0  0
 14 23  1  1  0  0  0
 16 19  1  0  0  0  0
 17 10  1  6  0  0  0
 17  7  1  0  0  0  0
 18 15  1  0  0  0  0
 20 29  1  6  0  0  0
 20  1  1  0  0  0  0
 21 22  1  0  0  0  0
 22 14  1  0  0  0  0
 23 28  1  0  0  0  0
 27  5  1  0  0  0  0
 28  6  1  0  0  0  0
 28  9  1  0  0  0  0
 30 31  1  0  0  0  0
 30 29  1  0  0  0  0
 32 30  2  0  0  0  0
M  END
>  <MODEL>
1

>  <REMARK>
 VINA RESULT:      -7.0      0.000      0.000
  Name = 
  2 active torsions:
  status: ('A' for Active; 'I' for Inactive)
    1  A    between atoms: C_20  and  C_29
    2  A    between atoms: C_29  and  C_30
                            x       y       z     vdW  Elec       q    Type
                         _______ _______ _______ _____ _____    ______ ____

>  <TORSDO>
F 2

$$$$
=
 OpenBabel11122413053D

 32 37  0  0  1  0  0  0  0  0999 V2000
  161.4030  210.9860  153.5570 C   0  0  0  0  0  2  0  0  0  0  0  0
  161.5070  206.8870  150.4260 C   0  0  2  0  0  3  0  0  0  0  0  0
  161.2200  202.5070  152.4940 C   0  0  0  0  0  3  0  0  0  0  0  0
  161.2480  201.8850  151.2430 C   0  0  0  0  0  3  0  0  0  0  0  0
  161.3600  207.0790  147.8120 C   0  0  2  0  0  3  0  0  0  0  0  0
  161.4530  206.3000  146.4860 C   0  0  1  0  0  3  0  0  0  0  0  0
  161.1130  208.9360  151.7720 N   0  0  1  0  0  0  0  0  0  0  0  0
  160.9160  206.7240  152.7800 N   0  0  0  0  0  2  0  0  0  0  0  0
  161.2850  204.3140  145.3190 C   0  0  2  0  0  3  0  0  0  0  0  0
  160.4370  208.6720  154.1770 C   0  0  0  0  0  2  0  0  0  0  0  0
  161.0490  203.8900  152.5850 C   0  0  0  0  0  3  0  0  0  0  0  0
  160.6650  206.1430  151.4660 C   0  0  2  0  0  3  0  0  0  0  0  0
  160.9260  204.6620  151.4200 C   0  0  0  0  0  0  0  0  0  0  0  0
  160.7490  204.9050  148.9360 C   0  0  2  0  0  3  0  0  0  0  0  0
  162.6260  204.9470  144.9540 C   0  0  0  0  0  2  0  0  0  0  0  0
  162.6690  210.1590  153.3000 C   0  0  0  0  0  2  0  0  0  0  0  0
  160.3970  208.0930  152.7590 C   0  0  1  0  0  3  0  0  0  0  0  0
  162.8480  206.0460  145.9640 C   0  0  0  0  0  2  0  0  0  0  0  0
  162.5180  209.1660  152.1370 C   0  0  0  0  0  2  0  0  0  0  0  0
  160.2580  210.1930  154.2240 C   0  0  1  0  0  3  0  0  0  0  0  0
  161.1080  202.6460  150.0800 C   0  0  0  0  0  3  0  0  0  0  0  0
  160.9550  204.0400  150.1600 C   0  0  0  0  0  0  0  0  0  0  0  0
  161.0930  204.1950  147.6320 C   0  0  0  0  0  2  0  0  0  0  0  0
  161.0510  208.3510  150.4250 C   0  0  0  0  0  2  0  0  0  0  0  0
  162.2630  208.1460  147.7990 O   0  0  0  0  0  1  0  0  0  0  0  0
  160.3310  204.4190  144.1440 C   0  0  0  0  0  1  0  0  0  0  0  0
  161.5960  206.1830  149.0350 C   0  0  2  0  0  3  0  0  0  0  0  0
  160.7330  205.0190  146.4730 N   0  0  1  0  0  0  0  0  0  0  0  0
  160.1050  210.6250  155.6730 C   0  0  0  0  0  2  0  0  0  0  0  0
  158.7050  211.0570  155.9480 C   0  0  0  0  0  0  0  0  0  0  0  0
  157.8520  211.0570  155.0230 O   0  0  0  0  0  0  0  0  0  0  0  0
  158.3340  211.4350  157.2320 O   0  0  0  0  0  1  0  0  0  0  0  0
  1 20  1  0  0  0  0
  2 24  1  6  0  0  0
  2 12  1  0  0  0  0
  3 11  1  0  0  0  0
  4  3  2  0  0  0  0
  5 25  1  6  0  0  0
  5 27  1  0  0  0  0
  6 18  1  1  0  0  0
  6  5  1  0  0  0  0
  7 24  1  6  0  0  0
  7 19  1  0  0  0  0
  7 17  1  0  0  0  0
  9 26  1  6  0  0  0
  9 28  1  0  0  0  0
 10 20  1  0  0  0  0
 12 13  1  1  0  0  0
 12  8  1  0  0  0  0
 13 11  2  0  0  0  0
 14 23  1  6  0  0  0
 14 27  1  0  0  0  0
 14 22  1  0  0  0  0
 15  9  1  0  0  0  0
 15 18  1  0  0  0  0
 16  1  1  0  0  0  0
 17  8  1  0  0  0  0
 17 10  1  1  0  0  0
 19 16  1  0  0  0  0
 20 29  1  1  0  0  0
 21 22  2  0  0  0  0
 21  4  1  0  0  0  0
 22 13  1  0  0  0  0
 27  2  1  0  0  0  0
 28  6  1  0  0  0  0
 28 23  1  0  0  0  0
 29 30  1  0  0  0  0
 30 32  1  0  0  0  0
 31 30  2  0  0  0  0
M  END
>  <MODEL>
2

>  <REMARK>
 VINA RESULT:      -7.0      2.844      8.664
  Name = 
  2 active torsions:
  status: ('A' for Active; 'I' for Inactive)
    1  A    between atoms: C_20  and  C_29
    2  A    between atoms: C_29  and  C_30
                            x       y       z     vdW  Elec       q    Type
                         _______ _______ _______ _____ _____    ______ ____

>  <TORSDO>
F 2

$$$$
=
 OpenBabel11122413053D

 32 37  0  0  1  0  0  0  0  0999 V2000
  161.0710  214.4530  145.8890 C   0  0  0  0  0  2  0  0  0  0  0  0
  160.4370  211.9600  150.3600 C   0  0  2  0  0  3  0  0  0  0  0  0
  162.3250  207.5020  150.7010 C   0  0  0  0  0  3  0  0  0  0  0  0
  161.9010  207.3950  152.0280 C   0  0  0  0  0  3  0  0  0  0  0  0
  159.4680  213.1060  152.5130 C   0  0  2  0  0  3  0  0  0  0  0  0
  158.9830  212.8670  153.9560 C   0  0  1  0  0  3  0  0  0  0  0  0
  160.9700  213.3990  148.4090 N   0  0  1  0  0  0  0  0  0  0  0  0
  161.9550  211.1780  148.6270 N   0  0  0  0  0  2  0  0  0  0  0  0
  159.0150  211.6080  155.8920 C   0  0  2  0  0  3  0  0  0  0  0  0
  162.6050  212.5410  146.7040 C   0  0  0  0  0  2  0  0  0  0  0  0
  162.2660  208.7330  150.0440 C   0  0  0  0  0  3  0  0  0  0  0  0
  161.7490  211.2240  150.0700 C   0  0  2  0  0  3  0  0  0  0  0  0
  161.7620  209.8620  150.7070 C   0  0  0  0  0  0  0  0  0  0  0  0
  160.8640  211.0170  152.7380 C   0  0  2  0  0  3  0  0  0  0  0  0
  157.5520  211.8370  155.5190 C   0  0  0  0  0  2  0  0  0  0  0  0
  159.9810  213.3970  146.1120 C   0  0  0  0  0  2  0  0  0  0  0  0
  162.1660  212.5550  148.1720 C   0  0  1  0  0  3  0  0  0  0  0  0
  157.5670  212.3610  154.1040 C   0  0  0  0  0  2  0  0  0  0  0  0
  159.8200  212.9970  147.5880 C   0  0  0  0  0  2  0  0  0  0  0  0
  162.5100  213.9110  146.0230 C   0  0  1  0  0  3  0  0  0  0  0  0
  161.4150  208.5200  152.7000 C   0  0  0  0  0  3  0  0  0  0  0  0
  161.3340  209.7580  152.0430 C   0  0  0  0  0  0  0  0  0  0  0  0
  160.1510  210.7460  154.0570 C   0  0  0  0  0  2  0  0  0  0  0  0
  160.5820  213.3890  149.8260 C   0  0  0  0  0  2  0  0  0  0  0  0
  158.4630  213.7360  151.7740 O   0  0  0  0  0  1  0  0  0  0  0  0
  159.3710  212.4380  157.1100 C   0  0  0  0  0  1  0  0  0  0  0  0
  159.9160  211.8100  151.8240 C   0  0  2  0  0  3  0  0  0  0  0  0
  159.8530  211.9980  154.7610 N   0  0  1  0  0  0  0  0  0  0  0  0
  163.1610  213.8240  144.6530 C   0  0  0  0  0  2  0  0  0  0  0  0
  162.1640  213.4180  143.6220 C   0  0  0  0  0  0  0  0  0  0  0  0
  161.8660  212.2040  143.4760 O   0  0  0  0  0  1  0  0  0  0  0  0
  161.5450  214.3820  142.8380 O   0  0  0  0  0  0  0  0  0  0  0  0
  1 20  1  0  0  0  0
  1 16  1  0  0  0  0
  2 24  1  1  0  0  0
  2 27  1  0  0  0  0
  3  4  1  0  0  0  0
  4 21  2  0  0  0  0
  5 25  1  6  0  0  0
  5  6  1  0  0  0  0
  6 18  1  6  0  0  0
  6 28  1  0  0  0  0
  7 19  1  6  0  0  0
  7 24  1  0  0  0  0
  9 26  1  1  0  0  0
 11  3  2  0  0  0  0
 11 13  1  0  0  0  0
 12  8  1  6  0  0  0
 12  2  1  0  0  0  0
 12 13  1  0  0  0  0
 13 22  2  0  0  0  0
 14 23  1  1  0  0  0
 15  9  1  0  0  0  0
 16 19  1  0  0  0  0
 17 10  1  6  0  0  0
 17  7  1  0  0  0  0
 17  8  1  0  0  0  0
 18 15  1  0  0  0  0
 20 29  1  6  0  0  0
 20 10  1  0  0  0  0
 22 21  1  0  0  0  0
 22 14  1  0  0  0  0
 23 28  1  0  0  0  0
 27  5  1  0  0  0  0
 27 14  1  0  0  0  0
 28  9  1  0  0  0  0
 30 29  1  0  0  0  0
 31 30  1  0  0  0  0
 32 30  2  0  0  0  0
M  END
>  <MODEL>
3

>  <REMARK>
 VINA RESULT:      -5.8      4.657      7.726
  Name = 
  2 active torsions:
  status: ('A' for Active; 'I' for Inactive)
    1  A    between atoms: C_20  and  C_29
    2  A    between atoms: C_29  and  C_30
                            x       y       z     vdW  Elec       q    Type
                         _______ _______ _______ _____ _____    ______ ____

>  <TORSDO>
F 2

$$$$
=
 OpenBabel11122413053D

 32 37  0  0  1  0  0  0  0  0999 V2000
  160.7520  207.5180  156.8820 C   0  0  0  0  0  2  0  0  0  0  0  0
  160.8590  205.7530  152.0360 C   0  0  2  0  0  3  0  0  0  0  0  0
  161.5990  209.0020  148.5070 C   0  0  0  0  0  3  0  0  0  0  0  0
  161.5690  207.9950  147.5380 C   0  0  0  0  0  3  0  0  0  0  0  0
  160.8770  203.1960  151.4450 C   0  0  2  0  0  3  0  0  0  0  0  0
  160.7930  202.1690  150.2990 C   0  0  1  0  0  3  0  0  0  0  0  0
  161.1360  206.4040  154.4160 N   0  0  1  0  0  0  0  0  0  0  0  0
  161.5600  208.0060  152.6260 N   0  0  0  0  0  2  0  0  0  0  0  0
  161.0770  201.6330  148.0700 C   0  0  2  0  0  3  0  0  0  0  0  0
  161.9340  208.7300  154.9310 C   0  0  0  0  0  2  0  0  0  0  0  0
  161.6570  208.6670  149.8620 C   0  0  0  0  0  3  0  0  0  0  0  0
  161.8030  206.9100  151.6960 C   0  0  2  0  0  3  0  0  0  0  0  0
  161.6650  207.3210  150.2560 C   0  0  0  0  0  0  0  0  0  0  0  0
  161.7160  204.8700  149.7530 C   0  0  2  0  0  3  0  0  0  0  0  0
  159.6740  201.1860  148.4730 C   0  0  0  0  0  2  0  0  0  0  0  0
  159.5500  207.6010  155.9340 C   0  0  0  0  0  2  0  0  0  0  0  0
  161.9620  207.5470  153.9580 C   0  0  1  0  0  3  0  0  0  0  0  0
  159.4030  201.8380  149.8070 C   0  0  0  0  0  2  0  0  0  0  0  0
  159.7340  206.7760  154.6500 C   0  0  0  0  0  2  0  0  0  0  0  0
  161.9870  208.3130  156.4050 C   0  0  1  0  0  3  0  0  0  0  0  0
  161.5950  206.6520  147.9230 C   0  0  0  0  0  3  0  0  0  0  0  0
  161.6340  206.3060  149.2830 C   0  0  0  0  0  0  0  0  0  0  0  0
  161.3760  203.8590  148.6640 C   0  0  0  0  0  2  0  0  0  0  0  0
  161.1900  205.2900  153.4590 C   0  0  0  0  0  2  0  0  0  0  0  0
  159.8890  202.9270  152.3950 O   0  0  0  0  0  1  0  0  0  0  0  0
  161.9680  200.4200  147.8820 C   0  0  0  0  0  1  0  0  0  0  0  0
  160.7690  204.6420  150.9430 C   0  0  2  0  0  3  0  0  0  0  0  0
  161.6170  202.4880  149.1250 N   0  0  1  0  0  0  0  0  0  0  0  0
  162.1650  209.5560  157.2610 C   0  0  0  0  0  2  0  0  0  0  0  0
  162.4850  210.7380  156.4110 C   0  0  0  0  0  0  0  0  0  0  0  0
  161.5580  211.4460  155.9400 O   0  0  0  0  0  0  0  0  0  0  0  0
  163.8090  211.0750  156.1600 O   0  0  0  0  0  1  0  0  0  0  0  0
  2 24  1  1  0  0  0
  3 11  1  0  0  0  0
  4 21  1  0  0  0  0
  4  3  2  0  0  0  0
  5 25  1  1  0  0  0
  6 18  1  6  0  0  0
  6  5  1  0  0  0  0
  7 24  1  6  0  0  0
  7 19  1  0  0  0  0
  8 17  1  0  0  0  0
  9 26  1  1  0  0  0
  9 15  1  0  0  0  0
  9 28  1  0  0  0  0
 10 20  1  0  0  0  0
 11 13  2  0  0  0  0
 12 13  1  6  0  0  0
 12  2  1  0  0  0  0
 12  8  1  0  0  0  0
 14 23  1  6  0  0  0
 14 27  1  0  0  0  0
 15 18  1  0  0  0  0
 16  1  1  0  0  0  0
 17  7  1  0  0  0  0
 17 10  1  1  0  0  0
 19 16  1  0  0  0  0
 20  1  1  0  0  0  0
 20 29  1  1  0  0  0
 21 22  2  0  0  0  0
 22 14  1  0  0  0  0
 22 13  1  0  0  0  0
 23 28  1  0  0  0  0
 27  5  1  0  0  0  0
 27  2  1  0  0  0  0
 28  6  1  0  0  0  0
 30 29  1  0  0  0  0
 31 30  2  0  0  0  0
 32 30  1  0  0  0  0
M  END
>  <MODEL>
4

>  <REMARK>
 VINA RESULT:      -5.3      2.309      7.901
  Name = 
  2 active torsions:
  status: ('A' for Active; 'I' for Inactive)
    1  A    between atoms: C_20  and  C_29
    2  A    between atoms: C_29  and  C_30
                            x       y       z     vdW  Elec       q    Type
                         _______ _______ _______ _____ _____    ______ ____

>  <TORSDO>
F 2

$$$$
=
 OpenBabel11122413053D

 32 37  0  0  1  0  0  0  0  0999 V2000
  161.5760  203.5350  151.6160 C   0  0  0  0  0  2  0  0  0  0  0  0
  161.1030  208.6170  152.3640 C   0  0  2  0  0  3  0  0  0  0  0  0
  162.2130  211.5210  148.6370 C   0  0  0  0  0  3  0  0  0  0  0  0
  161.8690  212.6520  149.3810 C   0  0  0  0  0  3  0  0  0  0  0  0
  159.9850  209.6510  154.5010 C   0  0  2  0  0  3  0  0  0  0  0  0
  159.6960  210.9590  155.2620 C   0  0  1  0  0  3  0  0  0  0  0  0
  160.9450  206.1610  152.0340 N   0  0  1  0  0  0  0  0  0  0  0  0
  161.4440  207.6420  150.1610 N   0  0  0  0  0  2  0  0  0  0  0  0
  159.3940  213.2490  155.2570 C   0  0  2  0  0  3  0  0  0  0  0  0
  161.2390  205.2470  149.7120 C   0  0  0  0  0  2  0  0  0  0  0  0
  161.8940  210.2460  149.1120 C   0  0  0  0  0  3  0  0  0  0  0  0
  160.8140  208.7530  150.8660 C   0  0  2  0  0  3  0  0  0  0  0  0
  161.2460  210.0970  150.3470 C   0  0  0  0  0  0  0  0  0  0  0  0
  160.1400  211.0240  152.3910 C   0  0  2  0  0  3  0  0  0  0  0  0
  160.4050  212.9240  156.3540 C   0  0  0  0  0  2  0  0  0  0  0  0
  162.7630  204.4460  151.9480 C   0  0  0  0  0  2  0  0  0  0  0  0
  160.7650  206.4150  150.5840 C   0  0  1  0  0  3  0  0  0  0  0  0
  160.8240  211.4940  156.1130 C   0  0  0  0  0  2  0  0  0  0  0  0
  162.3380  205.8570  152.3880 C   0  0  0  0  0  2  0  0  0  0  0  0
  160.8780  203.8710  150.2800 C   0  0  1  0  0  3  0  0  0  0  0  0
  161.2070  212.5100  150.6040 C   0  0  0  0  0  3  0  0  0  0  0  0
  160.9000  211.2330  151.0990 C   0  0  0  0  0  0  0  0  0  0  0  0
  160.0800  212.2730  153.2630 C   0  0  0  0  0  2  0  0  0  0  0  0
  160.4770  207.3000  152.8360 C   0  0  0  0  0  2  0  0  0  0  0  0
  160.6610  208.7570  155.3370 O   0  0  0  0  0  1  0  0  0  0  0  0
  158.0720  213.6540  155.8810 C   0  0  0  0  0  1  0  0  0  0  0  0
  160.7760  209.8890  153.2080 C   0  0  2  0  0  3  0  0  0  0  0  0
  159.2090  212.0630  154.4230 N   0  0  1  0  0  0  0  0  0  0  0  0
  161.2060  202.8100  149.2420 C   0  0  0  0  0  2  0  0  0  0  0  0
  160.5390  201.5200  149.5800 C   0  0  0  0  0  0  0  0  0  0  0  0
  161.2060  200.5780  150.0810 O   0  0  0  0  0  1  0  0  0  0  0  0
  159.1760  201.3660  149.3650 O   0  0  0  0  0  0  0  0  0  0  0  0
  1 16  1  0  0  0  0
  2 24  1  1  0  0  0
  2 27  1  0  0  0  0
  3 11  2  0  0  0  0
  3  4  1  0  0  0  0
  4 21  2  0  0  0  0
  5  6  1  0  0  0  0
  5 25  1  1  0  0  0
  6 18  1  6  0  0  0
  7 19  1  6  0  0  0
  7 24  1  0  0  0  0
  8 17  1  0  0  0  0
  9 26  1  1  0  0  0
  9 15  1  0  0  0  0
 10 20  1  0  0  0  0
 11 13  1  0  0  0  0
 12  8  1  6  0  0  0
 12  2  1  0  0  0  0
 13 12  1  0  0  0  0
 13 22  2  0  0  0  0
 14 27  1  0  0  0  0
 14 23  1  1  0  0  0
 16 19  1  0  0  0  0
 17 10  1  6  0  0  0
 17  7  1  0  0  0  0
 18 15  1  0  0  0  0
 20 29  1  6  0  0  0
 20  1  1  0  0  0  0
 21 22  1  0  0  0  0
 22 14  1  0  0  0  0
 23 28  1  0  0  0  0
 27  5  1  0  0  0  0
 28  9  1  0  0  0  0
 28  6  1  0  0  0  0
 29 30  1  0  0  0  0
 30 31  1  0  0  0  0
 32 30  2  0  0  0  0
M  END
>  <MODEL>
5

>  <REMARK>
 VINA RESULT:      -4.8      1.491      1.985
  Name = 
  2 active torsions:
  status: ('A' for Active; 'I' for Inactive)
    1  A    between atoms: C_20  and  C_29
    2  A    between atoms: C_29  and  C_30
                            x       y       z     vdW  Elec       q    Type
                         _______ _______ _______ _____ _____    ______ ____

>  <TORSDO>
F 2

$$$$
=
 OpenBabel11122413053D

 32 37  0  0  1  0  0  0  0  0999 V2000
  160.6780  209.2850  156.4090 C   0  0  0  0  0  2  0  0  0  0  0  0
  161.1660  208.6510  151.3120 C   0  0  2  0  0  3  0  0  0  0  0  0
  161.1190  212.6510  148.5640 C   0  0  0  0  0  3  0  0  0  0  0  0
  161.3180  211.8910  147.4090 C   0  0  0  0  0  3  0  0  0  0  0  0
  161.7720  206.3480  150.2090 C   0  0  2  0  0  3  0  0  0  0  0  0
  161.9210  205.5930  148.8730 C   0  0  1  0  0  3  0  0  0  0  0  0
  161.2970  208.8320  153.7850 N   0  0  1  0  0  0  0  0  0  0  0  0
  161.3310  210.8290  152.3840 N   0  0  0  0  0  2  0  0  0  0  0  0
  162.3110  205.6170  146.5970 C   0  0  2  0  0  3  0  0  0  0  0  0
  161.5390  211.1170  154.8030 C   0  0  0  0  0  2  0  0  0  0  0  0
  161.2590  212.0610  149.8230 C   0  0  0  0  0  3  0  0  0  0  0  0
  161.8160  210.0370  151.2600 C   0  0  2  0  0  3  0  0  0  0  0  0
  161.5800  210.7000  149.9300 C   0  0  0  0  0  0  0  0  0  0  0  0
  162.1930  208.4860  148.9370 C   0  0  2  0  0  3  0  0  0  0  0  0
  161.0500  204.7900  146.8370 C   0  0  0  0  0  2  0  0  0  0  0  0
  159.4850  209.2910  155.4460 C   0  0  0  0  0  2  0  0  0  0  0  0
  161.8350  210.2030  153.6090 C   0  0  1  0  0  3  0  0  0  0  0  0
  160.6430  205.0670  148.2630 C   0  0  0  0  0  2  0  0  0  0  0  0
  159.8480  208.8190  154.0290 C   0  0  0  0  0  2  0  0  0  0  0  0
  161.6940  210.4210  156.1600 C   0  0  1  0  0  3  0  0  0  0  0  0
  161.6560  210.5390  147.5090 C   0  0  0  0  0  3  0  0  0  0  0  0
  161.7800  209.9320  148.7690 C   0  0  0  0  0  0  0  0  0  0  0  0
  162.0910  207.6780  147.6490 C   0  0  0  0  0  2  0  0  0  0  0  0
  161.6020  207.9860  152.6230 C   0  0  0  0  0  2  0  0  0  0  0  0
  160.8760  205.6680  151.0390 O   0  0  0  0  0  1  0  0  0  0  0  0
  163.4570  204.7050  146.2020 C   0  0  0  0  0  1  0  0  0  0  0  0
  161.3300  207.8050  150.0110 C   0  0  2  0  0  3  0  0  0  0  0  0
  162.6440  206.3310  147.8280 N   0  0  1  0  0  0  0  0  0  0  0  0
  161.5850  211.4640  157.2610 C   0  0  0  0  0  2  0  0  0  0  0  0
  160.3720  212.3090  157.0660 C   0  0  0  0  0  0  0  0  0  0  0  0
  159.2270  211.8230  157.2530 O   0  0  0  0  0  1  0  0  0  0  0  0
  160.5070  213.6430  156.7020 O   0  0  0  0  0  0  0  0  0  0  0  0
  2 24  1  1  0  0  0
  3 11  1  0  0  0  0
  4 21  1  0  0  0  0
  4  3  2  0  0  0  0
  5 25  1  1  0  0  0
  6 18  1  6  0  0  0
  6  5  1  0  0  0  0
  7 24  1  6  0  0  0
  7 19  1  0  0  0  0
  8 17  1  0  0  0  0
  9 26  1  1  0  0  0
  9 15  1  0  0  0  0
  9 28  1  0  0  0  0
 10 20  1  0  0  0  0
 11 13  2  0  0  0  0
 12 13  1  6  0  0  0
 12  2  1  0  0  0  0
 12  8  1  0  0  0  0
 14 23  1  6  0  0  0
 14 27  1  0  0  0  0
 15 18  1  0  0  0  0
 16  1  1  0  0  0  0
 17  7  1  0  0  0  0
 17 10  1  1  0  0  0
 19 16  1  0  0  0  0
 20  1  1  0  0  0  0
 20 29  1  1  0  0  0
 21 22  2  0  0  0  0
 22 14  1  0  0  0  0
 22 13  1  0  0  0  0
 23 28  1  0  0  0  0
 27  5  1  0  0  0  0
 27  2  1  0  0  0  0
 28  6  1  0  0  0  0
 30 31  1  0  0  0  0
 30 29  1  0  0  0  0
 32 30  2  0  0  0  0
M  END
>  <MODEL>
6

>  <REMARK>
 VINA RESULT:      -4.6      2.663      8.079
  Name = 
  2 active torsions:
  status: ('A' for Active; 'I' for Inactive)
    1  A    between atoms: C_20  and  C_29
    2  A    between atoms: C_29  and  C_30
                            x       y       z     vdW  Elec       q    Type
                         _______ _______ _______ _____ _____    ______ ____

>  <TORSDO>
F 2

$$$$
=
 OpenBabel11122413053D

 32 37  0  0  1  0  0  0  0  0999 V2000
  161.1570  213.6490  147.4790 C   0  0  0  0  0  2  0  0  0  0  0  0
  159.9700  212.2270  152.2930 C   0  0  2  0  0  3  0  0  0  0  0  0
  156.2070  214.4530  154.4000 C   0  0  0  0  0  3  0  0  0  0  0  0
  156.3540  213.6720  155.5490 C   0  0  0  0  0  3  0  0  0  0  0  0
  161.0660  210.1630  153.4870 C   0  0  2  0  0  3  0  0  0  0  0  0
  161.1900  209.4000  154.8210 C   0  0  1  0  0  3  0  0  0  0  0  0
  160.4260  212.5570  149.8750 N   0  0  1  0  0  0  0  0  0  0  0  0
  158.5060  213.6200  150.9390 N   0  0  0  0  0  2  0  0  0  0  0  0
  160.3250  208.8290  156.8850 C   0  0  2  0  0  3  0  0  0  0  0  0
  158.8210  213.9520  148.5370 C   0  0  0  0  0  2  0  0  0  0  0  0
  156.9150  214.1320  153.2390 C   0  0  0  0  0  3  0  0  0  0  0  0
  158.5180  212.6050  151.9860 C   0  0  2  0  0  3  0  0  0  0  0  0
  157.7910  213.0370  153.2300 C   0  0  0  0  0  0  0  0  0  0  0  0
  158.8460  211.0380  154.3050 C   0  0  2  0  0  3  0  0  0  0  0  0
  161.7620  209.2950  157.1040 C   0  0  0  0  0  2  0  0  0  0  0  0
  161.5940  214.4400  148.7180 C   0  0  0  0  0  2  0  0  0  0  0  0
  159.0180  212.9950  149.7170 C   0  0  1  0  0  3  0  0  0  0  0  0
  162.1780  209.9630  155.8160 C   0  0  0  0  0  2  0  0  0  0  0  0
  161.3560  213.6830  150.0350 C   0  0  0  0  0  2  0  0  0  0  0  0
  159.6270  213.5650  147.2930 C   0  0  1  0  0  3  0  0  0  0  0  0
  157.2120  212.5690  155.5400 C   0  0  0  0  0  3  0  0  0  0  0  0
  157.9430  212.2490  154.3850 C   0  0  0  0  0  0  0  0  0  0  0  0
  159.1720  210.4390  155.6680 C   0  0  0  0  0  2  0  0  0  0  0  0
  160.5740  211.6400  151.0140 C   0  0  0  0  0  2  0  0  0  0  0  0
  162.3360  210.5190  153.0260 O   0  0  0  0  0  1  0  0  0  0  0  0
  160.2370  207.3270  157.0730 C   0  0  0  0  0  1  0  0  0  0  0  0
  160.1640  211.4000  153.6020 C   0  0  2  0  0  3  0  0  0  0  0  0
  159.9190  209.1860  155.5260 N   0  0  1  0  0  0  0  0  0  0  0  0
  159.1970  214.4500  146.1350 C   0  0  0  0  0  2  0  0  0  0  0  0
  159.1370  213.6670  144.8680 C   0  0  0  0  0  0  0  0  0  0  0  0
  159.2460  214.2520  143.7590 O   0  0  0  0  0  0  0  0  0  0  0  0
  158.9870  212.2870  144.9110 O   0  0  0  0  0  1  0  0  0  0  0  0
  1 16  1  0  0  0  0
  2 24  1  6  0  0  0
  2 27  1  0  0  0  0
  3  4  1  0  0  0  0
  5 25  1  1  0  0  0
  5 27  1  0  0  0  0
  5  6  1  0  0  0  0
  6 28  1  0  0  0  0
  6 18  1  1  0  0  0
  7 19  1  1  0  0  0
  7 24  1  0  0  0  0
  9 26  1  6  0  0  0
  9 15  1  0  0  0  0
 11  3  2  0  0  0  0
 12  8  1  6  0  0  0
 12  2  1  0  0  0  0
 12 13  1  0  0  0  0
 13 11  1  0  0  0  0
 13 22  2  0  0  0  0
 14 22  1  0  0  0  0
 14 23  1  1  0  0  0
 16 19  1  0  0  0  0
 17 10  1  6  0  0  0
 17  7  1  0  0  0  0
 17  8  1  0  0  0  0
 18 15  1  0  0  0  0
 20 29  1  6  0  0  0
 20  1  1  0  0  0  0
 20 10  1  0  0  0  0
 21  4  2  0  0  0  0
 22 21  1  0  0  0  0
 27 14  1  0  0  0  0
 28 23  1  0  0  0  0
 28  9  1  0  0  0  0
 30 32  1  0  0  0  0
 30 29  1  0  0  0  0
 31 30  2  0  0  0  0
M  END
>  <MODEL>
7

>  <REMARK>
 VINA RESULT:      -4.6      5.538      8.071
  Name = 
  2 active torsions:
  status: ('A' for Active; 'I' for Inactive)
    1  A    between atoms: C_20  and  C_29
    2  A    between atoms: C_29  and  C_30
                            x       y       z     vdW  Elec       q    Type
                         _______ _______ _______ _____ _____    ______ ____

>  <TORSDO>
F 2

$$$$
