=
 OpenBabel11122412493D

 32 37  0  0  1  0  0  0  0  0999 V2000
  159.5640  213.2750  146.2460 C   0  0  0  0  0  2  0  0  0  0  0  0
  161.5860  211.1690  151.0200 C   0  0  1  0  0  3  0  0  0  0  0  0
  161.7720  206.9230  148.4650 C   0  0  0  0  0  3  0  0  0  0  0  0
  160.8610  206.2970  149.4810 C   0  0  0  0  0  2  0  0  0  0  0  0
  160.8440  211.0780  153.4930 C   0  0  0  0  0  0  0  0  0  0  0  0
  160.4440  210.2640  154.6400 C   0  0  1  0  0  3  0  0  0  0  0  0
  160.8320  212.7780  149.2620 C   0  0  1  0  0  3  0  0  0  0  0  0
  162.6060  211.0690  148.7590 C   0  0  0  0  0  2  0  0  0  0  0  0
  159.8070  208.3230  155.6440 C   0  0  2  0  0  3  0  0  0  0  0  0
  161.8930  212.6450  146.9920 C   0  0  0  0  0  3  0  0  0  0  0  0
  162.2140  208.1710  148.6360 C   0  0  0  0  0  3  0  0  0  0  0  0
  162.1460  210.3450  149.9410 N   0  0  0  0  0  0  0  0  0  0  0  0
  161.8880  208.9310  149.8670 C   0  0  0  0  0  0  0  0  0  0  0  0
  161.0800  209.0140  152.1800 C   0  0  0  0  0  0  0  0  0  0  0  0
  159.0740  209.3090  156.1430 C   0  0  0  0  0  3  0  0  0  0  0  0
  158.9270  212.9530  147.6030 C   0  0  0  0  0  2  0  0  0  0  0  0
  161.4370  211.8590  148.1790 C   0  0  2  0  0  3  0  0  0  0  0  0
  159.4500  210.5490  155.4680 C   0  0  0  0  0  3  0  0  0  0  0  0
  159.6620  213.6280  148.7560 C   0  0  0  0  0  2  0  0  0  0  0  0
  161.0820  213.2970  146.1480 C   0  0  0  0  0  0  0  0  0  0  0  0
  161.2060  206.7840  150.8900 C   0  0  0  0  0  2  0  0  0  0  0  0
  161.3620  208.2850  150.9270 C   0  0  0  0  0  0  0  0  0  0  0  0
  160.6730  208.2680  153.3460 N   0  0  0  0  0  2  0  0  0  0  0  0
  160.3930  211.9580  150.4770 C   0  0  0  0  0  2  0  0  0  0  0  0
  160.8310  212.3370  153.5560 O   0  0  0  0  0  0  0  0  0  0  0  0
  159.7230  206.9140  156.1140 C   0  0  0  0  0  1  0  0  0  0  0  0
  161.1980  210.3660  152.2390 C   0  0  0  0  0  0  0  0  0  0  0  0
  160.8200  208.8340  154.6840 C   0  0  1  0  0  3  0  0  0  0  0  0
  161.7150  213.9870  145.0610 N   0  0  0  0  0  2  0  0  0  0  0  0
  161.9520  213.4850  143.7400 C   0  0  0  0  0  0  0  0  0  0  0  0
  161.5650  212.3370  143.3940 O   0  0  0  0  0  0  0  0  0  0  0  0
  162.6610  214.3410  142.7540 C   0  0  0  0  0  1  0  0  0  0  0  0
  1 16  1  0  0  0  0
  2 24  1  6  0  0  0
  2 27  1  0  0  0  0
  3 11  2  0  0  0  0
  3  4  1  0  0  0  0
  4 21  1  0  0  0  0
  5 25  2  0  0  0  0
  5  6  1  0  0  0  0
  6 28  1  0  0  0  0
  6 18  1  6  0  0  0
  7 19  1  6  0  0  0
  7 24  1  0  0  0  0
  8 12  1  0  0  0  0
  9 26  1  1  0  0  0
  9 15  1  0  0  0  0
 11 13  1  0  0  0  0
 12  2  1  0  0  0  0
 13 12  1  0  0  0  0
 13 22  2  0  0  0  0
 14 27  2  0  0  0  0
 14 23  1  0  0  0  0
 16 19  1  0  0  0  0
 17 10  1  6  0  0  0
 17  8  1  0  0  0  0
 17  7  1  0  0  0  0
 18 15  2  0  0  0  0
 20  1  1  0  0  0  0
 20 10  2  0  0  0  0
 21 22  1  0  0  0  0
 22 14  1  0  0  0  0
 27  5  1  0  0  0  0
 28 23  1  6  0  0  0
 28  9  1  0  0  0  0
 29 20  1  0  0  0  0
 30 29  1  0  0  0  0
 31 30  2  0  0  0  0
 32 30  1  0  0  0  0
M  END
>  <MODEL>
1

>  <REMARK>
 VINA RESULT:      -6.8      0.000      0.000
  Name = 
  1 active torsions:
  status: ('A' for Active; 'I' for Inactive)
    1  A    between atoms: C_20  and  N_29
                            x       y       z     vdW  Elec       q    Type
                         _______ _______ _______ _____ _____    ______ ____

>  <TORSDO>
F 1

$$$$
=
 OpenBabel11122412493D

 32 37  0  0  1  0  0  0  0  0999 V2000
  160.7340  208.6130  152.7250 C   0  0  0  0  0  2  0  0  0  0  0  0
  161.5450  212.8260  149.1320 C   0  0  1  0  0  3  0  0  0  0  0  0
  156.6220  213.3460  149.4310 C   0  0  0  0  0  3  0  0  0  0  0  0
  156.5310  213.1270  147.9490 C   0  0  0  0  0  2  0  0  0  0  0  0
  162.6710  213.1360  146.8280 C   0  0  0  0  0  0  0  0  0  0  0  0
  162.5280  213.4700  145.4120 C   0  0  0  0  0  0  0  0  0  0  0  0
  161.9580  211.0080  150.7970 C   0  0  1  0  0  3  0  0  0  0  0  0
  160.3880  212.8980  151.3280 C   0  0  0  0  0  2  0  0  0  0  0  0
  161.3290  213.8940  143.5240 C   0  0  0  0  0  0  0  0  0  0  0  0
  160.7710  211.1220  153.0050 C   0  0  0  0  0  3  0  0  0  0  0  0
  157.8140  213.4090  150.0300 C   0  0  0  0  0  3  0  0  0  0  0  0
  160.3350  213.1650  149.8930 N   0  0  0  0  0  0  0  0  0  0  0  0
  159.0660  213.3510  149.2380 C   0  0  0  0  0  0  0  0  0  0  0  0
  160.2540  213.4890  147.0980 C   0  0  0  0  0  0  0  0  0  0  0  0
  162.3670  213.1360  143.1960 C   0  0  0  0  0  3  0  0  0  0  0  0
  161.0990  208.6670  151.2370 C   0  0  0  0  0  2  0  0  0  0  0  0
  160.6690  211.4150  151.5430 C   0  0  2  0  0  3  0  0  0  0  0  0
  163.1130  212.8260  144.4130 C   0  0  0  0  0  3  0  0  0  0  0  0
  162.3280  209.5320  150.9790 C   0  0  0  0  0  2  0  0  0  0  0  0
  160.8290  209.8950  153.5390 C   0  0  0  0  0  0  0  0  0  0  0  0
  157.6970  213.8070  147.2280 C   0  0  0  0  0  2  0  0  0  0  0  0
  159.0130  213.4910  147.8990 C   0  0  0  0  0  0  0  0  0  0  0  0
  160.1780  213.8030  145.6910 N   0  0  0  0  0  2  0  0  0  0  0  0
  161.8420  211.3360  149.3070 C   0  0  0  0  0  2  0  0  0  0  0  0
  163.7780  212.7570  147.2960 O   0  0  0  0  0  0  0  0  0  0  0  0
  160.3580  214.4350  142.5350 C   0  0  0  0  0  1  0  0  0  0  0  0
  161.4490  213.1950  147.6710 C   0  0  0  0  0  0  0  0  0  0  0  0
  161.3600  214.2600  144.9640 C   0  0  1  0  0  3  0  0  0  0  0  0
  160.9160  209.8240  154.9690 N   0  0  0  0  0  2  0  0  0  0  0  0
  162.0330  210.1980  155.7850 C   0  0  0  0  0  0  0  0  0  0  0  0
  163.0810  210.6840  155.2830 O   0  0  0  0  0  0  0  0  0  0  0  0
  161.9490  210.0170  157.2570 C   0  0  0  0  0  1  0  0  0  0  0  0
  1 20  1  0  0  0  0
  2 24  1  6  0  0  0
  2 12  1  0  0  0  0
  3 11  2  0  0  0  0
  4  3  1  0  0  0  0
  5 25  2  0  0  0  0
  5 27  1  0  0  0  0
  6  5  1  0  0  0  0
  7 24  1  6  0  0  0
  7 19  1  0  0  0  0
  7 17  1  0  0  0  0
 10 20  2  0  0  0  0
 12  8  1  0  0  0  0
 13 12  1  0  0  0  0
 13 11  1  0  0  0  0
 14 27  2  0  0  0  0
 14 22  1  0  0  0  0
 15  9  2  0  0  0  0
 15 18  1  0  0  0  0
 16  1  1  0  0  0  0
 17  8  1  1  0  0  0
 17 10  1  0  0  0  0
 18  6  2  0  0  0  0
 19 16  1  0  0  0  0
 20 29  1  0  0  0  0
 21 22  1  0  0  0  0
 21  4  1  0  0  0  0
 22 13  2  0  0  0  0
 23 14  1  0  0  0  0
 26  9  1  0  0  0  0
 27  2  1  0  0  0  0
 28  9  1  6  0  0  0
 28  6  1  0  0  0  0
 28 23  1  0  0  0  0
 29 30  1  0  0  0  0
 30 32  1  0  0  0  0
 31 30  2  0  0  0  0
M  END
>  <MODEL>
2

>  <REMARK>
 VINA RESULT:      -5.7      2.095      8.863
  Name = 
  1 active torsions:
  status: ('A' for Active; 'I' for Inactive)
    1  A    between atoms: C_20  and  N_29
                            x       y       z     vdW  Elec       q    Type
                         _______ _______ _______ _____ _____    ______ ____

>  <TORSDO>
F 1

$$$$
=
 OpenBabel11122412493D

 32 37  0  0  1  0  0  0  0  0999 V2000
  159.4280  212.8430  144.3050 C   0  0  0  0  0  2  0  0  0  0  0  0
  160.8380  212.8770  149.7210 C   0  0  1  0  0  3  0  0  0  0  0  0
  162.5490  208.3200  148.7730 C   0  0  0  0  0  3  0  0  0  0  0  0
  161.6190  207.7770  149.8180 C   0  0  0  0  0  2  0  0  0  0  0  0
  159.6360  213.2900  151.9700 C   0  0  0  0  0  0  0  0  0  0  0  0
  159.2070  212.7610  153.2630 C   0  0  1  0  0  3  0  0  0  0  0  0
  160.1150  213.6220  147.4480 C   0  0  1  0  0  3  0  0  0  0  0  0
  162.3050  212.4320  147.7680 C   0  0  0  0  0  2  0  0  0  0  0  0
  158.8480  211.0930  154.7700 C   0  0  2  0  0  3  0  0  0  0  0  0
  161.6300  213.1560  145.5020 C   0  0  0  0  0  3  0  0  0  0  0  0
  162.6390  209.6360  148.5710 C   0  0  0  0  0  3  0  0  0  0  0  0
  161.7900  211.9770  149.0560 N   0  0  0  0  0  0  0  0  0  0  0  0
  161.8930  210.5900  149.4280 C   0  0  0  0  0  0  0  0  0  0  0  0
  160.6210  211.0960  151.4610 C   0  0  0  0  0  0  0  0  0  0  0  0
  157.8150  211.9240  154.8170 C   0  0  0  0  0  3  0  0  0  0  0  0
  158.6150  212.7540  145.6020 C   0  0  0  0  0  2  0  0  0  0  0  0
  161.1330  212.6480  146.8170 C   0  0  2  0  0  3  0  0  0  0  0  0
  158.0230  212.9710  153.8190 C   0  0  0  0  0  3  0  0  0  0  0  0
  158.9100  213.9140  146.5460 C   0  0  0  0  0  2  0  0  0  0  0  0
  160.8840  213.2740  144.3950 C   0  0  0  0  0  0  0  0  0  0  0  0
  161.5350  208.7260  151.0150 C   0  0  0  0  0  2  0  0  0  0  0  0
  161.3230  210.1530  150.5680 C   0  0  0  0  0  0  0  0  0  0  0  0
  160.1640  210.6320  152.7490 N   0  0  0  0  0  2  0  0  0  0  0  0
  159.6360  213.0960  148.8010 C   0  0  0  0  0  2  0  0  0  0  0  0
  159.3150  214.4530  151.6070 O   0  0  0  0  0  0  0  0  0  0  0  0
  159.0000  209.9170  155.6690 C   0  0  0  0  0  1  0  0  0  0  0  0
  160.4030  212.3820  151.0800 C   0  0  0  0  0  0  0  0  0  0  0  0
  159.8910  211.5770  153.8290 C   0  0  1  0  0  3  0  0  0  0  0  0
  161.5510  213.7750  143.2280 N   0  0  0  0  0  2  0  0  0  0  0  0
  162.0320  213.0120  142.1140 C   0  0  0  0  0  0  0  0  0  0  0  0
  161.8640  211.7660  142.0500 O   0  0  0  0  0  0  0  0  0  0  0  0
  162.7370  213.7090  141.0070 C   0  0  0  0  0  1  0  0  0  0  0  0
  1 20  1  0  0  0  0
  1 16  1  0  0  0  0
  2 24  1  6  0  0  0
  2 27  1  0  0  0  0
  3  4  1  0  0  0  0
  4 21  1  0  0  0  0
  5  6  1  0  0  0  0
  6 18  1  6  0  0  0
  6 28  1  0  0  0  0
  7 19  1  6  0  0  0
  7 24  1  0  0  0  0
  8 12  1  0  0  0  0
  9 15  1  0  0  0  0
  9 26  1  1  0  0  0
 11  3  2  0  0  0  0
 11 13  1  0  0  0  0
 12 13  1  0  0  0  0
 12  2  1  0  0  0  0
 13 22  2  0  0  0  0
 14 23  1  0  0  0  0
 16 19  1  0  0  0  0
 17 10  1  6  0  0  0
 17  7  1  0  0  0  0
 17  8  1  0  0  0  0
 18 15  2  0  0  0  0
 20 10  2  0  0  0  0
 22 21  1  0  0  0  0
 22 14  1  0  0  0  0
 25  5  2  0  0  0  0
 27 14  2  0  0  0  0
 27  5  1  0  0  0  0
 28 23  1  6  0  0  0
 28  9  1  0  0  0  0
 29 20  1  0  0  0  0
 30 29  1  0  0  0  0
 31 30  2  0  0  0  0
 32 30  1  0  0  0  0
M  END
>  <MODEL>
3

>  <REMARK>
 VINA RESULT:      -5.2      1.596      2.293
  Name = 
  1 active torsions:
  status: ('A' for Active; 'I' for Inactive)
    1  A    between atoms: C_20  and  N_29
                            x       y       z     vdW  Elec       q    Type
                         _______ _______ _______ _____ _____    ______ ____

>  <TORSDO>
F 1

$$$$
=
 OpenBabel11122412493D

 32 37  0  0  1  0  0  0  0  0999 V2000
  158.8990  210.9010  155.0070 C   0  0  0  0  0  2  0  0  0  0  0  0
  161.7530  206.8840  152.3540 C   0  0  1  0  0  3  0  0  0  0  0  0
  161.9080  210.1650  148.6380 C   0  0  0  0  0  3  0  0  0  0  0  0
  161.2070  209.1700  147.7600 C   0  0  0  0  0  2  0  0  0  0  0  0
  161.3860  204.3940  151.7730 C   0  0  0  0  0  0  0  0  0  0  0  0
  161.2230  203.3710  150.7410 C   0  0  1  0  0  3  0  0  0  0  0  0
  160.6260  208.2120  154.1460 C   0  0  1  0  0  3  0  0  0  0  0  0
  162.4400  209.2380  152.7410 C   0  0  0  0  0  2  0  0  0  0  0  0
  160.8960  202.6600  148.6030 C   0  0  2  0  0  3  0  0  0  0  0  0
  161.3550  210.5860  154.5070 C   0  0  0  0  0  3  0  0  0  0  0  0
  162.2680  209.8310  149.8790 C   0  0  0  0  0  3  0  0  0  0  0  0
  162.2150  208.1580  151.7850 N   0  0  0  0  0  0  0  0  0  0  0  0
  162.0640  208.4510  150.3840 C   0  0  0  0  0  0  0  0  0  0  0  0
  161.5940  206.0770  149.9940 C   0  0  0  0  0  0  0  0  0  0  0  0
  160.1660  201.9010  149.4100 C   0  0  0  0  0  3  0  0  0  0  0  0
  158.4940  209.5540  154.3970 C   0  0  0  0  0  2  0  0  0  0  0  0
  161.1400  209.5120  153.4910 C   0  0  2  0  0  3  0  0  0  0  0  0
  160.3400  202.3840  150.7780 C   0  0  0  0  0  3  0  0  0  0  0  0
  159.3300  208.4020  154.9420 C   0  0  0  0  0  2  0  0  0  0  0  0
  160.3800  211.1880  155.2030 C   0  0  0  0  0  0  0  0  0  0  0  0
  161.7120  207.7530  148.0370 C   0  0  0  0  0  2  0  0  0  0  0  0
  161.7510  207.4660  149.5190 C   0  0  0  0  0  0  0  0  0  0  0  0
  161.4220  205.0220  149.0240 N   0  0  0  0  0  2  0  0  0  0  0  0
  160.4350  207.1190  153.0940 C   0  0  0  0  0  2  0  0  0  0  0  0
  161.2810  204.1040  152.9950 O   0  0  0  0  0  0  0  0  0  0  0  0
  160.9940  202.4450  147.1350 C   0  0  0  0  0  1  0  0  0  0  0  0
  161.6110  205.7910  151.3210 C   0  0  0  0  0  0  0  0  0  0  0  0
  161.7150  203.6340  149.3710 C   0  0  1  0  0  3  0  0  0  0  0  0
  160.7920  212.2040  156.1280 N   0  0  0  0  0  2  0  0  0  0  0  0
  160.2430  213.5210  156.2640 C   0  0  0  0  0  0  0  0  0  0  0  0
  159.2690  213.9030  155.5630 O   0  0  0  0  0  0  0  0  0  0  0  0
  160.8310  214.4530  157.2610 C   0  0  0  0  0  1  0  0  0  0  0  0
  1 20  1  0  0  0  0
  2 24  1  6  0  0  0
  3 11  2  0  0  0  0
  4 21  1  0  0  0  0
  4  3  1  0  0  0  0
  5 25  2  0  0  0  0
  6 18  1  6  0  0  0
  6  5  1  0  0  0  0
  7 24  1  6  0  0  0
  7 19  1  0  0  0  0
  9 26  1  1  0  0  0
  9 28  1  0  0  0  0
  9 15  1  0  0  0  0
 10 20  2  0  0  0  0
 11 13  1  0  0  0  0
 12  2  1  0  0  0  0
 12  8  1  0  0  0  0
 13 12  1  0  0  0  0
 14 27  2  0  0  0  0
 15 18  2  0  0  0  0
 16 19  1  0  0  0  0
 16  1  1  0  0  0  0
 17  8  1  1  0  0  0
 17  7  1  0  0  0  0
 17 10  1  0  0  0  0
 20 29  1  0  0  0  0
 21 22  1  0  0  0  0
 22 14  1  0  0  0  0
 22 13  2  0  0  0  0
 23 14  1  0  0  0  0
 27  5  1  0  0  0  0
 27  2  1  0  0  0  0
 28 23  1  6  0  0  0
 28  6  1  0  0  0  0
 29 30  1  0  0  0  0
 30 32  1  0  0  0  0
 31 30  2  0  0  0  0
M  END
>  <MODEL>
4

>  <REMARK>
 VINA RESULT:      -3.8      3.837      7.670
  Name = 
  1 active torsions:
  status: ('A' for Active; 'I' for Inactive)
    1  A    between atoms: C_20  and  N_29
                            x       y       z     vdW  Elec       q    Type
                         _______ _______ _______ _____ _____    ______ ____

>  <TORSDO>
F 1

$$$$
