=
 OpenBabel11122413323D

 37 43  0  0  1  0  0  0  0  0999 V2000
  160.7210  208.5770  151.0890 C   0  0  0  0  0  2  0  0  0  0  0  0
  161.3020  209.8820  156.2520 C   0  0  0  0  0  0  0  0  0  0  0  0
  159.9330  212.3190  153.1790 C   0  0  0  0  0  0  0  0  0  0  0  0
  161.2550  207.2530  150.7590 N   0  0  0  0  0  0  0  0  0  0  0  0
  161.2730  211.8430  149.7340 O   0  0  0  0  0  0  0  0  0  0  0  0
  160.2060  212.0040  155.5530 C   0  0  0  0  0  0  0  0  0  0  0  0
  160.4160  211.6460  152.0540 C   0  0  0  0  0  0  0  0  0  0  0  0
  162.5730  208.3820  148.8830 C   0  0  2  0  0  3  0  0  0  0  0  0
  160.4220  211.6530  154.2490 C   0  0  0  0  0  0  0  0  0  0  0  0
  160.2520  212.1110  150.6420 C   0  0  0  0  0  0  0  0  0  0  0  0
  159.4240  213.1460  155.7980 C   0  0  0  0  0  3  0  0  0  0  0  0
  162.5000  207.2920  149.9710 C   0  0  0  0  0  2  0  0  0  0  0  0
  161.1570  210.6090  153.8360 C   0  0  0  0  0  0  0  0  0  0  0  0
  160.1800  208.8700  156.3980 C   0  0  0  0  0  1  0  0  0  0  0  0
  158.4840  214.1570  152.2210 C   0  0  0  0  0  2  0  0  0  0  0  0
  158.8720  213.8600  154.6990 C   0  0  0  0  0  3  0  0  0  0  0  0
  161.9050  209.7520  154.8180 C   0  0  0  0  0  2  0  0  0  0  0  0
  162.5530  209.8400  149.3970 C   0  0  1  0  0  3  0  0  0  0  0  0
  161.3020  210.6270  149.0120 C   0  0  0  0  0  2  0  0  0  0  0  0
  159.1120  213.4390  153.3670 C   0  0  0  0  0  0  0  0  0  0  0  0
  161.1830  210.5840  152.4830 N   0  0  0  0  0  0  0  0  0  0  0  0
  160.7830  211.2030  156.5470 O   0  0  0  0  0  0  0  0  0  0  0  0
  159.1830  212.8450  150.2320 C   0  0  0  0  0  0  0  0  0  0  0  0
  162.3780  209.5420  157.2610 C   0  0  0  0  0  1  0  0  0  0  0  0
  162.8590  209.9510  150.8320 N   0  0  0  0  0  2  0  0  0  0  0  0
  161.6460  208.1520  147.8640 O   0  0  0  0  0  1  0  0  0  0  0  0
  161.7840  209.4840  151.7290 C   0  0  2  0  0  3  0  0  0  0  0  0
  158.0420  213.1590  151.1600 C   0  0  0  0  0  2  0  0  0  0  0  0
  160.2010  213.9570  148.2370 C   0  0  0  0  0  3  0  0  0  0  0  0
  159.0770  213.3810  148.8500 C   0  0  0  0  0  0  0  0  0  0  0  0
  157.8840  213.2800  148.1130 C   0  0  0  0  0  3  0  0  0  0  0  0
  156.5390  213.6600  146.0440 C   0  0  0  0  0  1  0  0  0  0  0  0
  158.9340  214.3480  146.2130 C   0  0  0  0  0  3  0  0  0  0  0  0
  157.8110  213.7660  146.8050 C   0  0  0  0  0  0  0  0  0  0  0  0
  160.1300  214.4420  146.9280 C   0  0  0  0  0  3  0  0  0  0  0  0
  160.7140  205.1310  149.7000 C   0  0  0  0  0  1  0  0  0  0  0  0
  160.2460  206.5450  149.9880 C   0  0  0  0  0  2  0  0  0  0  0  0
  2 14  1  0  0  0  0
  2 22  1  0  0  0  0
  2 24  1  0  0  0  0
  3 20  1  0  0  0  0
  3  9  1  0  0  0  0
  4  1  1  0  0  0  0
  5 10  1  0  0  0  0
  6 11  2  0  0  0  0
  6 22  1  0  0  0  0
  7 21  1  0  0  0  0
  7  3  2  0  0  0  0
  8 26  1  6  0  0  0
  8 18  1  0  0  0  0
  8 12  1  0  0  0  0
  9  6  1  0  0  0  0
 10  7  1  0  0  0  0
 12  4  1  0  0  0  0
 13  9  2  0  0  0  0
 13 17  1  0  0  0  0
 15 20  1  0  0  0  0
 16 11  1  0  0  0  0
 17  2  1  0  0  0  0
 18 19  1  1  0  0  0
 18 25  1  0  0  0  0
 19  5  1  0  0  0  0
 20 16  2  0  0  0  0
 21 13  1  0  0  0  0
 23 10  2  0  0  0  0
 23 28  1  0  0  0  0
 25 27  1  0  0  0  0
 27  1  1  6  0  0  0
 27 21  1  0  0  0  0
 28 15  1  0  0  0  0
 29 30  1  0  0  0  0
 30 23  1  0  0  0  0
 31 30  2  0  0  0  0
 32 34  1  0  0  0  0
 33 34  2  0  0  0  0
 33 35  1  0  0  0  0
 34 31  1  0  0  0  0
 35 29  2  0  0  0  0
 36 37  1  0  0  0  0
 37  4  1  0  0  0  0
M  END
>  <MODEL>
1

>  <REMARK>
 VINA RESULT:      -3.9      0.000      0.000
  Name = 
  2 active torsions:
  status: ('A' for Active; 'I' for Inactive)
    1  A    between atoms: N_4  and  C_37
    2  A    between atoms: C_23  and  C_30
                            x       y       z     vdW  Elec       q    Type
                         _______ _______ _______ _____ _____    ______ ____

>  <TORSDO>
F 2

$$$$
=
 OpenBabel11122413323D

 37 43  0  0  1  0  0  0  0  0999 V2000
  160.5740  210.7110  148.0980 C   0  0  0  0  0  2  0  0  0  0  0  0
  161.6430  205.7530  146.3750 C   0  0  0  0  0  0  0  0  0  0  0  0
  161.3970  207.0500  150.3140 C   0  0  0  0  0  0  0  0  0  0  0  0
  160.5160  211.7020  147.0210 N   0  0  0  0  0  0  0  0  0  0  0  0
  162.4200  210.5330  151.1590 O   0  0  0  0  0  0  0  0  0  0  0  0
  161.5170  205.1830  148.7950 C   0  0  0  0  0  0  0  0  0  0  0  0
  161.5600  208.4290  150.1630 C   0  0  0  0  0  0  0  0  0  0  0  0
  162.1800  213.0940  148.3700 C   0  0  2  0  0  3  0  0  0  0  0  0
  161.5690  206.5190  149.0830 C   0  0  0  0  0  0  0  0  0  0  0  0
  161.6010  209.4150  151.2880 C   0  0  0  0  0  0  0  0  0  0  0  0
  161.2750  204.2970  149.8590 C   0  0  0  0  0  3  0  0  0  0  0  0
  161.6660  212.6230  146.9950 C   0  0  0  0  0  2  0  0  0  0  0  0
  161.8090  207.4970  148.1970 C   0  0  0  0  0  0  0  0  0  0  0  0
  160.2040  205.8530  145.9030 C   0  0  0  0  0  1  0  0  0  0  0  0
  160.8320  206.7620  152.7620 C   0  0  0  0  0  2  0  0  0  0  0  0
  161.0650  204.8190  151.1640 C   0  0  0  0  0  3  0  0  0  0  0  0
  162.1390  207.1810  146.7650 C   0  0  0  0  0  2  0  0  0  0  0  0
  162.7620  211.9870  149.2790 C   0  0  1  0  0  3  0  0  0  0  0  0
  161.9460  211.7140  150.5410 C   0  0  0  0  0  2  0  0  0  0  0  0
  161.1090  206.2160  151.4030 C   0  0  0  0  0  0  0  0  0  0  0  0
  161.8210  208.6900  148.8350 N   0  0  0  0  0  0  0  0  0  0  0  0
  161.7140  204.7960  147.4620 O   0  0  0  0  0  0  0  0  0  0  0  0
  160.9280  209.2240  152.4540 C   0  0  0  0  0  0  0  0  0  0  0  0
  162.4840  205.2470  145.2230 C   0  0  0  0  0  1  0  0  0  0  0  0
  163.0880  210.7510  148.5490 N   0  0  0  0  0  2  0  0  0  0  0  0
  161.2400  213.8950  149.0230 O   0  0  0  0  0  1  0  0  0  0  0  0
  161.9160  209.9630  148.1210 C   0  0  2  0  0  3  0  0  0  0  0  0
  160.0190  208.0430  152.6530 C   0  0  0  0  0  2  0  0  0  0  0  0
  160.1280  211.2090  153.7470 C   0  0  0  0  0  3  0  0  0  0  0  0
  161.0520  210.1630  153.6000 C   0  0  0  0  0  0  0  0  0  0  0  0
  162.0490  209.9990  154.5770 C   0  0  0  0  0  3  0  0  0  0  0  0
  163.1990  210.6950  156.6820 C   0  0  0  0  0  1  0  0  0  0  0  0
  161.2150  211.9200  155.7890 C   0  0  0  0  0  3  0  0  0  0  0  0
  162.1330  210.8760  155.6620 C   0  0  0  0  0  0  0  0  0  0  0  0
  160.2100  212.0860  154.8330 C   0  0  0  0  0  3  0  0  0  0  0  0
  158.5800  212.6300  145.8760 C   0  0  0  0  0  1  0  0  0  0  0  0
  159.3030  212.4860  147.2010 C   0  0  0  0  0  2  0  0  0  0  0  0
  2 17  1  0  0  0  0
  2 22  1  0  0  0  0
  3 20  1  0  0  0  0
  4 37  1  0  0  0  0
  4  1  1  0  0  0  0
  5 10  1  0  0  0  0
  6  9  1  0  0  0  0
  6 11  2  0  0  0  0
  7  3  2  0  0  0  0
  7 10  1  0  0  0  0
  8 26  1  1  0  0  0
  8 18  1  0  0  0  0
  9  3  1  0  0  0  0
 10 23  2  0  0  0  0
 11 16  1  0  0  0  0
 12  4  1  0  0  0  0
 12  8  1  0  0  0  0
 13 21  1  0  0  0  0
 13  9  2  0  0  0  0
 14  2  1  0  0  0  0
 16 20  2  0  0  0  0
 17 13  1  0  0  0  0
 18 19  1  1  0  0  0
 19  5  1  0  0  0  0
 20 15  1  0  0  0  0
 21  7  1  0  0  0  0
 22  6  1  0  0  0  0
 23 28  1  0  0  0  0
 23 30  1  0  0  0  0
 24  2  1  0  0  0  0
 25 18  1  0  0  0  0
 27  1  1  1  0  0  0
 27 25  1  0  0  0  0
 27 21  1  0  0  0  0
 28 15  1  0  0  0  0
 29 35  1  0  0  0  0
 30 29  2  0  0  0  0
 30 31  1  0  0  0  0
 31 34  2  0  0  0  0
 34 33  1  0  0  0  0
 34 32  1  0  0  0  0
 35 33  2  0  0  0  0
 36 37  1  0  0  0  0
M  END
>  <MODEL>
2

>  <REMARK>
 VINA RESULT:      -3.7      2.252      7.598
  Name = 
  2 active torsions:
  status: ('A' for Active; 'I' for Inactive)
    1  A    between atoms: N_4  and  C_37
    2  A    between atoms: C_23  and  C_30
                            x       y       z     vdW  Elec       q    Type
                         _______ _______ _______ _____ _____    ______ ____

>  <TORSDO>
F 2

$$$$
=
 OpenBabel11122413323D

 37 43  0  0  1  0  0  0  0  0999 V2000
  160.6420  207.8060  150.8250 C   0  0  0  0  0  2  0  0  0  0  0  0
  160.3840  208.2320  156.1590 C   0  0  0  0  0  0  0  0  0  0  0  0
  160.0180  211.2890  153.3690 C   0  0  0  0  0  0  0  0  0  0  0  0
  161.0300  206.4700  150.3650 N   0  0  0  0  0  0  0  0  0  0  0  0
  161.9230  211.0840  150.1730 O   0  0  0  0  0  0  0  0  0  0  0  0
  159.7710  210.5920  155.6630 C   0  0  0  0  0  0  0  0  0  0  0  0
  160.6080  210.7100  152.2430 C   0  0  0  0  0  0  0  0  0  0  0  0
  162.8410  207.6060  148.9660 C   0  0  2  0  0  3  0  0  0  0  0  0
  160.1840  210.4000  154.3740 C   0  0  0  0  0  0  0  0  0  0  0  0
  160.7940  211.3950  150.9260 C   0  0  0  0  0  0  0  0  0  0  0  0
  159.1320  211.8080  155.9670 C   0  0  0  0  0  3  0  0  0  0  0  0
  162.3970  206.4010  149.8190 C   0  0  0  0  0  2  0  0  0  0  0  0
  160.8240  209.3130  153.9170 C   0  0  0  0  0  0  0  0  0  0  0  0
  159.1180  207.4240  155.9330 C   0  0  0  0  0  1  0  0  0  0  0  0
  159.0710  213.4720  152.5130 C   0  0  0  0  0  2  0  0  0  0  0  0
  158.9170  212.7580  154.9320 C   0  0  0  0  0  3  0  0  0  0  0  0
  161.2310  208.2050  154.8480 C   0  0  0  0  0  2  0  0  0  0  0  0
  162.9350  208.9550  149.7150 C   0  0  1  0  0  3  0  0  0  0  0  0
  161.9140  209.9980  149.2650 C   0  0  0  0  0  2  0  0  0  0  0  0
  159.3490  212.4970  153.6070 C   0  0  0  0  0  0  0  0  0  0  0  0
  161.1110  209.4780  152.6050 N   0  0  0  0  0  0  0  0  0  0  0  0
  160.0170  209.5670  156.5860 O   0  0  0  0  0  0  0  0  0  0  0  0
  159.9460  212.3570  150.4740 C   0  0  0  0  0  0  0  0  0  0  0  0
  161.1790  207.5660  157.2610 C   0  0  0  0  0  1  0  0  0  0  0  0
  162.9670  208.8030  151.1780 N   0  0  0  0  0  2  0  0  0  0  0  0
  162.1080  207.6920  147.7800 O   0  0  0  0  0  1  0  0  0  0  0  0
  161.6800  208.4090  151.7840 C   0  0  2  0  0  3  0  0  0  0  0  0
  158.7050  212.7310  151.2350 C   0  0  0  0  0  2  0  0  0  0  0  0
  161.4090  213.7750  149.0240 C   0  0  0  0  0  3  0  0  0  0  0  0
  160.1940  213.0970  149.2090 C   0  0  0  0  0  0  0  0  0  0  0  0
  159.2560  213.0930  148.1620 C   0  0  0  0  0  3  0  0  0  0  0  0
  158.5120  213.7660  145.8760 C   0  0  0  0  0  1  0  0  0  0  0  0
  160.7260  214.4530  146.8040 C   0  0  0  0  0  3  0  0  0  0  0  0
  159.5190  213.7720  146.9690 C   0  0  0  0  0  0  0  0  0  0  0  0
  161.6730  214.4530  147.8300 C   0  0  0  0  0  3  0  0  0  0  0  0
  160.5720  204.7840  148.6720 C   0  0  0  0  0  1  0  0  0  0  0  0
  160.0980  206.0700  149.3220 C   0  0  0  0  0  2  0  0  0  0  0  0
  2 22  1  0  0  0  0
  2 24  1  0  0  0  0
  3 20  1  0  0  0  0
  3  9  1  0  0  0  0
  4  1  1  0  0  0  0
  5 10  1  0  0  0  0
  6 11  2  0  0  0  0
  6 22  1  0  0  0  0
  7 21  1  0  0  0  0
  7  3  2  0  0  0  0
  8 26  1  6  0  0  0
  8 18  1  0  0  0  0
  8 12  1  0  0  0  0
  9  6  1  0  0  0  0
 10  7  1  0  0  0  0
 12  4  1  0  0  0  0
 13  9  2  0  0  0  0
 13 17  1  0  0  0  0
 14  2  1  0  0  0  0
 15 20  1  0  0  0  0
 16 11  1  0  0  0  0
 17  2  1  0  0  0  0
 18 19  1  1  0  0  0
 18 25  1  0  0  0  0
 19  5  1  0  0  0  0
 20 16  2  0  0  0  0
 21 13  1  0  0  0  0
 23 10  2  0  0  0  0
 23 28  1  0  0  0  0
 25 27  1  0  0  0  0
 27  1  1  6  0  0  0
 27 21  1  0  0  0  0
 28 15  1  0  0  0  0
 29 30  1  0  0  0  0
 30 23  1  0  0  0  0
 31 30  2  0  0  0  0
 32 34  1  0  0  0  0
 33 34  2  0  0  0  0
 33 35  1  0  0  0  0
 34 31  1  0  0  0  0
 35 29  2  0  0  0  0
 36 37  1  0  0  0  0
 37  4  1  0  0  0  0
M  END
>  <MODEL>
3

>  <REMARK>
 VINA RESULT:      -3.3      1.134      1.325
  Name = 
  2 active torsions:
  status: ('A' for Active; 'I' for Inactive)
    1  A    between atoms: N_4  and  C_37
    2  A    between atoms: C_23  and  C_30
                            x       y       z     vdW  Elec       q    Type
                         _______ _______ _______ _____ _____    ______ ____

>  <TORSDO>
F 2

$$$$
=
 OpenBabel11122413323D

 37 43  0  0  1  0  0  0  0  0999 V2000
  161.0350  211.6400  148.9890 C   0  0  0  0  0  2  0  0  0  0  0  0
  157.8430  213.6950  152.7690 C   0  0  0  0  0  0  0  0  0  0  0  0
  157.3140  213.8840  148.6530 C   0  0  0  0  0  0  0  0  0  0  0  0
  162.2860  211.0920  149.5180 N   0  0  0  0  0  0  0  0  0  0  0  0
  160.3030  214.0340  146.4310 O   0  0  0  0  0  0  0  0  0  0  0  0
  156.3600  214.2190  150.8410 C   0  0  0  0  0  0  0  0  0  0  0  0
  158.6070  213.6190  148.1940 C   0  0  0  0  0  0  0  0  0  0  0  0
  163.5080  212.5320  147.7970 C   0  0  2  0  0  3  0  0  0  0  0  0
  157.4040  213.9490  150.0000 C   0  0  0  0  0  0  0  0  0  0  0  0
  159.0190  213.6040  146.7560 C   0  0  0  0  0  0  0  0  0  0  0  0
  155.1010  214.4530  150.2590 C   0  0  0  0  0  3  0  0  0  0  0  0
  163.4740  211.9070  149.2060 C   0  0  0  0  0  2  0  0  0  0  0  0
  158.6710  213.7230  150.3820 C   0  0  0  0  0  0  0  0  0  0  0  0
  157.6260  212.2210  153.0640 C   0  0  0  0  0  1  0  0  0  0  0  0
  155.9110  213.9230  146.5500 C   0  0  0  0  0  2  0  0  0  0  0  0
  154.9610  214.3690  148.8470 C   0  0  0  0  0  3  0  0  0  0  0  0
  159.0770  213.8360  151.8240 C   0  0  0  0  0  2  0  0  0  0  0  0
  162.4020  213.5710  147.5010 C   0  0  1  0  0  3  0  0  0  0  0  0
  161.3940  213.1330  146.4400 C   0  0  0  0  0  2  0  0  0  0  0  0
  156.0750  214.0660  148.0250 C   0  0  0  0  0  0  0  0  0  0  0  0
  159.4420  213.5260  149.2870 N   0  0  0  0  0  0  0  0  0  0  0  0
  156.6220  214.2470  152.2170 O   0  0  0  0  0  0  0  0  0  0  0  0
  158.1680  213.2590  145.7540 C   0  0  0  0  0  0  0  0  0  0  0  0
  158.1510  214.3970  154.0740 C   0  0  0  0  0  1  0  0  0  0  0  0
  161.7450  214.0780  148.7160 N   0  0  0  0  0  2  0  0  0  0  0  0
  163.6150  211.5540  146.8050 O   0  0  0  0  0  1  0  0  0  0  0  0
  160.8430  213.1150  149.3760 C   0  0  2  0  0  3  0  0  0  0  0  0
  156.7720  212.7770  146.0380 C   0  0  0  0  0  2  0  0  0  0  0  0
  158.0150  214.3430  143.5050 C   0  0  0  0  0  3  0  0  0  0  0  0
  158.5600  213.3400  144.3220 C   0  0  0  0  0  0  0  0  0  0  0  0
  159.5090  212.4610  143.7720 C   0  0  0  0  0  3  0  0  0  0  0  0
  160.8850  211.6280  141.8620 C   0  0  0  0  0  1  0  0  0  0  0  0
  159.3270  213.5650  141.6260 C   0  0  0  0  0  3  0  0  0  0  0  0
  159.8860  212.5700  142.4300 C   0  0  0  0  0  0  0  0  0  0  0  0
  158.3930  214.4530  142.1630 C   0  0  0  0  0  3  0  0  0  0  0  0
  162.1280  208.7060  149.9670 C   0  0  0  0  0  1  0  0  0  0  0  0
  162.4730  209.7690  148.9420 C   0  0  0  0  0  2  0  0  0  0  0  0
  1  4  1  0  0  0  0
  2 14  1  0  0  0  0
  2 24  1  0  0  0  0
  3  9  1  0  0  0  0
  5 19  1  0  0  0  0
  5 10  1  0  0  0  0
  6 22  1  0  0  0  0
  7  3  2  0  0  0  0
  7 21  1  0  0  0  0
  8 26  1  6  0  0  0
  8 12  1  0  0  0  0
  9 13  2  0  0  0  0
  9  6  1  0  0  0  0
 10  7  1  0  0  0  0
 11  6  2  0  0  0  0
 12  4  1  0  0  0  0
 13 17  1  0  0  0  0
 15 20  1  0  0  0  0
 16 11  1  0  0  0  0
 17  2  1  0  0  0  0
 18 19  1  6  0  0  0
 18  8  1  0  0  0  0
 18 25  1  0  0  0  0
 20  3  1  0  0  0  0
 20 16  2  0  0  0  0
 21 27  1  0  0  0  0
 21 13  1  0  0  0  0
 22  2  1  0  0  0  0
 23 28  1  0  0  0  0
 23 10  2  0  0  0  0
 25 27  1  0  0  0  0
 27  1  1  6  0  0  0
 28 15  1  0  0  0  0
 29 30  1  0  0  0  0
 30 23  1  0  0  0  0
 31 30  2  0  0  0  0
 32 34  1  0  0  0  0
 33 35  1  0  0  0  0
 33 34  2  0  0  0  0
 34 31  1  0  0  0  0
 35 29  2  0  0  0  0
 37  4  1  0  0  0  0
 37 36  1  0  0  0  0
M  END
>  <MODEL>
4

>  <REMARK>
 VINA RESULT:      -2.6      3.054      5.234
  Name = 
  2 active torsions:
  status: ('A' for Active; 'I' for Inactive)
    1  A    between atoms: N_4  and  C_37
    2  A    between atoms: C_23  and  C_30
                            x       y       z     vdW  Elec       q    Type
                         _______ _______ _______ _____ _____    ______ ____

>  <TORSDO>
F 2

$$$$
