=
 OpenBabel11122413223D

 31 35  0  0  1  0  0  0  0  0999 V2000
  160.9070  202.0610  150.6750 C   0  0  0  0  0  0  0  0  0  0  0  0
  161.2600  205.5580  149.3150 C   0  0  0  0  0  0  0  0  0  0  0  0
  161.3160  205.4470  147.8940 C   0  0  0  0  0  0  0  0  0  0  0  0
  161.3030  204.1540  145.8210 C   0  0  0  0  0  0  0  0  0  0  0  0
  161.1270  204.4510  150.2140 C   0  0  0  0  0  0  0  0  0  0  0  0
  160.8650  202.3140  152.0440 C   0  0  0  0  0  3  0  0  0  0  0  0
  161.2450  204.2170  147.2140 C   0  0  0  0  0  3  0  0  0  0  0  0
  161.2980  207.0730  151.2580 C   0  0  0  0  0  0  0  0  0  0  0  0
  160.8200  200.7560  150.2070 O   0  0  0  0  0  1  0  0  0  0  0  0
  161.5210  207.8290  147.7280 N   0  0  0  0  0  0  0  0  0  0  0  0
  161.2310  202.9260  145.1790 O   0  0  0  0  0  1  0  0  0  0  0  0
  161.1670  205.9790  152.1120 C   0  0  0  0  0  3  0  0  0  0  0  0
  161.3430  206.8660  149.8700 C   0  0  0  0  0  0  0  0  0  0  0  0
  161.0360  203.1180  149.7730 C   0  0  0  0  0  3  0  0  0  0  0  0
  161.4350  205.3250  145.0750 C   0  0  0  0  0  3  0  0  0  0  0  0
  161.0820  204.6870  151.6110 C   0  0  0  0  0  0  0  0  0  0  0  0
  160.9520  203.6250  152.5110 C   0  0  0  0  0  3  0  0  0  0  0  0
  161.4700  207.9440  149.0520 N   0  0  0  0  0  0  0  0  0  0  0  0
  161.4490  206.6230  147.1200 C   0  0  0  0  0  0  0  0  0  0  0  0
  161.5070  206.5570  145.7240 C   0  0  0  0  0  3  0  0  0  0  0  0
  160.7020  208.0260  153.9890 O   0  0  0  0  0  0  0  0  0  0  0  0
  161.0860  208.8430  153.1080 C   0  0  0  0  0  0  0  0  0  0  0  0
  161.3840  208.4120  151.7740 N   0  0  0  0  0  2  0  0  0  0  0  0
  160.4000  211.6710  155.8450 C   0  0  0  0  0  0  0  0  0  0  0  0
  162.1320  210.4560  154.6520 C   0  0  0  0  0  3  0  0  0  0  0  0
  159.0040  210.9260  152.4940 O   0  0  0  0  0  1  0  0  0  0  0  0
  160.0260  212.2480  156.8980 O   0  0  0  0  0  0  0  0  0  0  0  0
  161.7430  211.0890  155.7610 C   0  0  0  0  0  3  0  0  0  0  0  0
  159.8780  210.9600  153.5740 C   0  0  0  0  0  0  0  0  0  0  0  0
  161.2320  210.2900  153.4480 C   0  0  2  0  0  3  0  0  0  0  0  0
  159.5010  211.5890  154.6900 C   0  0  0  0  0  3  0  0  0  0  0  0
  1  6  1  0  0  0  0
  2 13  2  0  0  0  0
  2  5  1  0  0  0  0
  3  2  1  0  0  0  0
  4  7  1  0  0  0  0
  5 16  2  0  0  0  0
  6 17  2  0  0  0  0
  7  3  2  0  0  0  0
  8 23  1  0  0  0  0
  8 12  2  0  0  0  0
  9  1  1  0  0  0  0
 10 18  2  0  0  0  0
 11  4  1  0  0  0  0
 13  8  1  0  0  0  0
 14  5  1  0  0  0  0
 14  1  2  0  0  0  0
 15 20  1  0  0  0  0
 15  4  2  0  0  0  0
 16 12  1  0  0  0  0
 16 17  1  0  0  0  0
 18 13  1  0  0  0  0
 19 10  1  0  0  0  0
 19  3  1  0  0  0  0
 20 19  2  0  0  0  0
 22 21  2  0  0  0  0
 23 22  1  0  0  0  0
 24 27  2  0  0  0  0
 25 28  2  0  0  0  0
 26 29  1  0  0  0  0
 28 24  1  0  0  0  0
 29 31  2  0  0  0  0
 30 22  1  1  0  0  0
 30 29  1  0  0  0  0
 30 25  1  0  0  0  0
 31 24  1  0  0  0  0
M  END
>  <MODEL>
1

>  <REMARK>
 VINA RESULT:     -10.3      0.000      0.000
  Name = 
  2 active torsions:
  status: ('A' for Active; 'I' for Inactive)
    1  A    between atoms: C_5  and  C_30
    2  A    between atoms: C_10  and  N_16
                            x       y       z     vdW  Elec       q    Type
                         _______ _______ _______ _____ _____    ______ ____

>  <TORSDO>
F 2

$$$$
=
 OpenBabel11122413223D

 31 35  0  0  1  0  0  0  0  0999 V2000
  160.7690  207.5740  154.4450 C   0  0  0  0  0  0  0  0  0  0  0  0
  161.3990  207.9430  150.7490 C   0  0  0  0  0  0  0  0  0  0  0  0
  161.3150  206.6370  150.1810 C   0  0  0  0  0  0  0  0  0  0  0  0
  160.9710  204.2240  150.3440 C   0  0  0  0  0  0  0  0  0  0  0  0
  161.2190  208.2400  152.1370 C   0  0  0  0  0  0  0  0  0  0  0  0
  160.8770  208.8990  154.8640 C   0  0  0  0  0  3  0  0  0  0  0  0
  161.0440  205.4830  150.9390 C   0  0  0  0  0  3  0  0  0  0  0  0
  161.7810  210.3410  150.3300 C   0  0  0  0  0  0  0  0  0  0  0  0
  160.4920  206.5750  155.3690 O   0  0  0  0  0  1  0  0  0  0  0  0
  161.7770  207.5600  148.0180 N   0  0  0  0  0  0  0  0  0  0  0  0
  160.7020  203.1040  151.1180 O   0  0  0  0  0  1  0  0  0  0  0  0
  161.6020  210.6050  151.6870 C   0  0  0  0  0  3  0  0  0  0  0  0
  161.6790  209.0210  149.8620 C   0  0  0  0  0  0  0  0  0  0  0  0
  160.9380  207.2520  153.0980 C   0  0  0  0  0  3  0  0  0  0  0  0
  161.1700  204.0900  148.9690 C   0  0  0  0  0  3  0  0  0  0  0  0
  161.3250  209.5820  152.5850 C   0  0  0  0  0  0  0  0  0  0  0  0
  161.1550  209.9010  153.9350 C   0  0  0  0  0  3  0  0  0  0  0  0
  161.8560  208.7820  148.5360 N   0  0  0  0  0  0  0  0  0  0  0  0
  161.5130  206.4810  148.7890 C   0  0  0  0  0  0  0  0  0  0  0  0
  161.4400  205.2170  148.1950 C   0  0  0  0  0  3  0  0  0  0  0  0
  160.3720  212.9150  149.9960 O   0  0  0  0  0  0  0  0  0  0  0  0
  161.3600  212.6390  149.2610 C   0  0  0  0  0  0  0  0  0  0  0  0
  162.0650  211.3990  149.4000 N   0  0  0  0  0  2  0  0  0  0  0  0
  161.0940  213.7210  145.4250 C   0  0  0  0  0  0  0  0  0  0  0  0
  160.6320  214.4100  147.7070 C   0  0  0  0  0  3  0  0  0  0  0  0
  163.7680  212.2230  147.5070 O   0  0  0  0  0  1  0  0  0  0  0  0
  160.7670  213.7440  144.2100 O   0  0  0  0  0  0  0  0  0  0  0  0
  160.3000  214.4530  146.4160 C   0  0  0  0  0  3  0  0  0  0  0  0
  162.6240  212.9230  147.1450 C   0  0  0  0  0  0  0  0  0  0  0  0
  161.8090  213.6130  148.2210 C   0  0  2  0  0  3  0  0  0  0  0  0
  162.2790  212.9730  145.8560 C   0  0  0  0  0  3  0  0  0  0  0  0
  1  6  1  0  0  0  0
  1  9  1  0  0  0  0
  2  5  1  0  0  0  0
  3  2  1  0  0  0  0
  3  7  2  0  0  0  0
  4  7  1  0  0  0  0
  4 11  1  0  0  0  0
  5 16  2  0  0  0  0
  5 14  1  0  0  0  0
  8 12  2  0  0  0  0
 10 18  2  0  0  0  0
 10 19  1  0  0  0  0
 12 16  1  0  0  0  0
 13  8  1  0  0  0  0
 13  2  2  0  0  0  0
 14  1  2  0  0  0  0
 15  4  2  0  0  0  0
 16 17  1  0  0  0  0
 17  6  2  0  0  0  0
 18 13  1  0  0  0  0
 19  3  1  0  0  0  0
 20 19  2  0  0  0  0
 20 15  1  0  0  0  0
 22 23  1  0  0  0  0
 22 21  2  0  0  0  0
 23  8  1  0  0  0  0
 24 31  1  0  0  0  0
 24 28  1  0  0  0  0
 25 30  1  0  0  0  0
 27 24  2  0  0  0  0
 28 25  2  0  0  0  0
 29 26  1  0  0  0  0
 29 30  1  0  0  0  0
 30 22  1  1  0  0  0
 31 29  2  0  0  0  0
M  END
>  <MODEL>
2

>  <REMARK>
 VINA RESULT:      -9.7      4.042      6.167
  Name = 
  2 active torsions:
  status: ('A' for Active; 'I' for Inactive)
    1  A    between atoms: C_5  and  C_30
    2  A    between atoms: C_10  and  N_16
                            x       y       z     vdW  Elec       q    Type
                         _______ _______ _______ _____ _____    ______ ____

>  <TORSDO>
F 2

$$$$
=
 OpenBabel11122413223D

 31 35  0  0  1  0  0  0  0  0999 V2000
  161.4380  206.5790  146.8580 C   0  0  0  0  0  0  0  0  0  0  0  0
  161.2060  205.1470  150.3360 C   0  0  0  0  0  0  0  0  0  0  0  0
  161.0590  203.7350  150.1940 C   0  0  0  0  0  0  0  0  0  0  0  0
  160.8700  201.7020  148.8530 C   0  0  0  0  0  0  0  0  0  0  0  0
  161.3300  206.0660  149.2450 C   0  0  0  0  0  0  0  0  0  0  0  0
  161.5780  207.9360  147.1410 C   0  0  0  0  0  3  0  0  0  0  0  0
  161.0160  203.0860  148.9460 C   0  0  0  0  0  3  0  0  0  0  0  0
  161.3750  207.0460  151.8970 C   0  0  0  0  0  0  0  0  0  0  0  0
  161.4200  206.1430  145.5390 O   0  0  0  0  0  1  0  0  0  0  0  0
  160.9810  203.5160  152.5790 N   0  0  0  0  0  0  0  0  0  0  0  0
  160.8320  201.0900  147.6080 O   0  0  0  0  0  1  0  0  0  0  0  0
  161.4930  207.9210  150.8180 C   0  0  0  0  0  3  0  0  0  0  0  0
  161.2330  205.6690  151.6600 C   0  0  0  0  0  0  0  0  0  0  0  0
  161.3160  205.6580  147.8990 C   0  0  0  0  0  3  0  0  0  0  0  0
  160.7610  200.9330  150.0120 C   0  0  0  0  0  3  0  0  0  0  0  0
  161.4730  207.4520  149.5110 C   0  0  0  0  0  0  0  0  0  0  0  0
  161.5950  208.3710  148.4650 C   0  0  0  0  0  3  0  0  0  0  0  0
  161.1190  204.8310  152.7230 N   0  0  0  0  0  0  0  0  0  0  0  0
  160.9470  202.9380  151.3580 C   0  0  0  0  0  0  0  0  0  0  0  0
  160.8000  201.5510  151.2610 C   0  0  0  0  0  3  0  0  0  0  0  0
  160.4490  209.6540  152.9270 O   0  0  0  0  0  0  0  0  0  0  0  0
  160.9400  208.8040  153.7190 C   0  0  0  0  0  0  0  0  0  0  0  0
  161.3980  207.5290  153.2500 N   0  0  0  0  0  2  0  0  0  0  0  0
  159.8560  211.2990  156.6450 C   0  0  0  0  0  0  0  0  0  0  0  0
  159.7070  209.0110  155.8440 C   0  0  0  0  0  3  0  0  0  0  0  0
  163.0390  210.6270  154.8700 O   0  0  0  0  0  1  0  0  0  0  0  0
  159.3220  212.2570  157.2610 O   0  0  0  0  0  0  0  0  0  0  0  0
  159.1510  210.0200  156.5180 C   0  0  0  0  0  3  0  0  0  0  0  0
  161.7610  210.4490  155.3860 C   0  0  0  0  0  0  0  0  0  0  0  0
  161.0570  209.1230  155.1740 C   0  0  2  0  0  3  0  0  0  0  0  0
  161.1930  211.4510  156.0610 C   0  0  0  0  0  3  0  0  0  0  0  0
  1  6  2  0  0  0  0
  1 14  1  0  0  0  0
  2 13  1  0  0  0  0
  3  2  2  0  0  0  0
  3 19  1  0  0  0  0
  4  7  2  0  0  0  0
  4 15  1  0  0  0  0
  5 16  1  0  0  0  0
  5  2  1  0  0  0  0
  6 17  1  0  0  0  0
  7  3  1  0  0  0  0
  8 23  1  0  0  0  0
  9  1  1  0  0  0  0
 10 18  1  0  0  0  0
 11  4  1  0  0  0  0
 12  8  2  0  0  0  0
 13  8  1  0  0  0  0
 13 18  2  0  0  0  0
 14  5  2  0  0  0  0
 15 20  2  0  0  0  0
 16 12  1  0  0  0  0
 17 16  2  0  0  0  0
 19 10  2  0  0  0  0
 20 19  1  0  0  0  0
 21 22  2  0  0  0  0
 23 22  1  0  0  0  0
 24 27  2  0  0  0  0
 25 28  2  0  0  0  0
 26 29  1  0  0  0  0
 28 24  1  0  0  0  0
 29 31  2  0  0  0  0
 30 22  1  6  0  0  0
 30 29  1  0  0  0  0
 30 25  1  0  0  0  0
 31 24  1  0  0  0  0
M  END
>  <MODEL>
3

>  <REMARK>
 VINA RESULT:      -9.3      1.906      4.095
  Name = 
  2 active torsions:
  status: ('A' for Active; 'I' for Inactive)
    1  A    between atoms: C_5  and  C_30
    2  A    between atoms: C_10  and  N_16
                            x       y       z     vdW  Elec       q    Type
                         _______ _______ _______ _____ _____    ______ ____

>  <TORSDO>
F 2

$$$$
=
 OpenBabel11122413223D

 31 35  0  0  1  0  0  0  0  0999 V2000
  161.6950  206.2000  146.6320 C   0  0  0  0  0  0  0  0  0  0  0  0
  161.1340  204.8980  150.1230 C   0  0  0  0  0  0  0  0  0  0  0  0
  161.0620  203.4760  150.0290 C   0  0  0  0  0  0  0  0  0  0  0  0
  161.1090  201.3850  148.7680 C   0  0  0  0  0  0  0  0  0  0  0  0
  161.3410  205.7780  149.0130 C   0  0  0  0  0  0  0  0  0  0  0  0
  161.7460  207.5720  146.8680 C   0  0  0  0  0  3  0  0  0  0  0  0
  161.1870  202.7770  148.8150 C   0  0  0  0  0  3  0  0  0  0  0  0
  161.0480  206.8630  151.6070 C   0  0  0  0  0  0  0  0  0  0  0  0
  161.8430  205.7110  145.3400 O   0  0  0  0  0  1  0  0  0  0  0  0
  160.7270  203.3480  152.3990 N   0  0  0  0  0  0  0  0  0  0  0  0
  161.2370  200.7230  147.5550 O   0  0  0  0  0  1  0  0  0  0  0  0
  161.2510  207.6990  150.5100 C   0  0  0  0  0  3  0  0  0  0  0  0
  160.9910  205.4730  151.4180 C   0  0  0  0  0  0  0  0  0  0  0  0
  161.4950  205.3160  147.6930 C   0  0  0  0  0  3  0  0  0  0  0  0
  160.9040  200.6580  149.9410 C   0  0  0  0  0  3  0  0  0  0  0  0
  161.3960  207.1780  149.2310 C   0  0  0  0  0  0  0  0  0  0  0  0
  161.5960  208.0600  148.1650 C   0  0  0  0  0  3  0  0  0  0  0  0
  160.7940  204.6730  152.4980 N   0  0  0  0  0  0  0  0  0  0  0  0
  160.8540  202.7210  151.2080 C   0  0  0  0  0  0  0  0  0  0  0  0
  160.7760  201.3260  151.1580 C   0  0  0  0  0  3  0  0  0  0  0  0
  160.2160  209.5840  152.3980 O   0  0  0  0  0  0  0  0  0  0  0  0
  160.4930  208.7290  153.2840 C   0  0  0  0  0  0  0  0  0  0  0  0
  160.8990  207.4000  152.9320 N   0  0  0  0  0  2  0  0  0  0  0  0
  162.5230  209.9320  156.5070 C   0  0  0  0  0  0  0  0  0  0  0  0
  160.7900  210.5480  154.9220 C   0  0  0  0  0  3  0  0  0  0  0  0
  160.8530  206.7690  155.5380 O   0  0  0  0  0  1  0  0  0  0  0  0
  163.4650  210.2910  157.2610 O   0  0  0  0  0  0  0  0  0  0  0  0
  161.7730  210.9300  155.7400 C   0  0  0  0  0  3  0  0  0  0  0  0
  161.1790  208.1190  155.5890 C   0  0  0  0  0  0  0  0  0  0  0  0
  160.4060  209.0990  154.7290 C   0  0  2  0  0  3  0  0  0  0  0  0
  162.1620  208.5150  156.4020 C   0  0  0  0  0  3  0  0  0  0  0  0
  1  6  2  0  0  0  0
  1 14  1  0  0  0  0
  2 13  1  0  0  0  0
  3  2  2  0  0  0  0
  3 19  1  0  0  0  0
  4  7  2  0  0  0  0
  4 15  1  0  0  0  0
  5 16  1  0  0  0  0
  5  2  1  0  0  0  0
  6 17  1  0  0  0  0
  7  3  1  0  0  0  0
  8 23  1  0  0  0  0
  9  1  1  0  0  0  0
 10 18  1  0  0  0  0
 11  4  1  0  0  0  0
 12  8  2  0  0  0  0
 13  8  1  0  0  0  0
 13 18  2  0  0  0  0
 14  5  2  0  0  0  0
 15 20  2  0  0  0  0
 16 12  1  0  0  0  0
 17 16  2  0  0  0  0
 19 10  2  0  0  0  0
 20 19  1  0  0  0  0
 21 22  2  0  0  0  0
 23 22  1  0  0  0  0
 24 27  2  0  0  0  0
 25 28  2  0  0  0  0
 26 29  1  0  0  0  0
 28 24  1  0  0  0  0
 29 31  2  0  0  0  0
 30 22  1  6  0  0  0
 30 25  1  0  0  0  0
 30 29  1  0  0  0  0
 31 24  1  0  0  0  0
M  END
>  <MODEL>
4

>  <REMARK>
 VINA RESULT:      -8.9      1.973      4.233
  Name = 
  2 active torsions:
  status: ('A' for Active; 'I' for Inactive)
    1  A    between atoms: C_5  and  C_30
    2  A    between atoms: C_10  and  N_16
                            x       y       z     vdW  Elec       q    Type
                         _______ _______ _______ _____ _____    ______ ____

>  <TORSDO>
F 2

$$$$
=
 OpenBabel11122413223D

 31 35  0  0  1  0  0  0  0  0999 V2000
  160.8620  212.9740  150.2600 C   0  0  0  0  0  0  0  0  0  0  0  0
  161.3010  209.3880  151.3310 C   0  0  0  0  0  0  0  0  0  0  0  0
  160.9680  209.3260  152.7170 C   0  0  0  0  0  0  0  0  0  0  0  0
  160.2450  210.3410  154.8180 C   0  0  0  0  0  0  0  0  0  0  0  0
  161.2640  210.5790  150.5380 C   0  0  0  0  0  0  0  0  0  0  0  0
  161.2130  212.8910  148.9130 C   0  0  0  0  0  3  0  0  0  0  0  0
  160.5620  210.4470  153.4630 C   0  0  0  0  0  3  0  0  0  0  0  0
  162.0430  208.1390  149.3410 C   0  0  0  0  0  0  0  0  0  0  0  0
  160.4860  214.1940  150.8050 O   0  0  0  0  0  1  0  0  0  0  0  0
  161.4320  206.9740  152.7110 N   0  0  0  0  0  0  0  0  0  0  0  0
  159.8480  211.4660  155.5280 O   0  0  0  0  0  1  0  0  0  0  0  0
  161.9990  209.3120  148.5900 C   0  0  0  0  0  3  0  0  0  0  0  0
  161.6970  208.1740  150.7020 C   0  0  0  0  0  0  0  0  0  0  0  0
  160.8880  211.8310  151.0590 C   0  0  0  0  0  3  0  0  0  0  0  0
  160.3290  209.1050  155.4590 C   0  0  0  0  0  3  0  0  0  0  0  0
  161.6170  210.5160  149.1660 C   0  0  0  0  0  0  0  0  0  0  0  0
  161.5900  211.6640  148.3680 C   0  0  0  0  0  3  0  0  0  0  0  0
  161.7450  207.0210  151.4190 N   0  0  0  0  0  0  0  0  0  0  0  0
  161.0460  208.0810  153.3850 C   0  0  0  0  0  0  0  0  0  0  0  0
  160.7290  207.9780  154.7430 C   0  0  0  0  0  3  0  0  0  0  0  0
  160.3960  206.2640  147.7620 O   0  0  0  0  0  0  0  0  0  0  0  0
  161.6100  206.0010  147.9840 C   0  0  0  0  0  0  0  0  0  0  0  0
  162.4350  206.8900  148.7460 N   0  0  0  0  0  2  0  0  0  0  0  0
  160.9770  202.7220  145.7920 C   0  0  0  0  0  0  0  0  0  0  0  0
  162.2580  204.7790  145.9420 C   0  0  0  0  0  3  0  0  0  0  0  0
  161.4740  203.3540  149.4090 O   0  0  0  0  0  1  0  0  0  0  0  0
  160.4150  201.8570  145.0700 O   0  0  0  0  0  0  0  0  0  0  0  0
  161.6830  203.8490  145.1770 C   0  0  0  0  0  3  0  0  0  0  0  0
  161.5120  203.5220  148.0300 C   0  0  0  0  0  0  0  0  0  0  0  0
  162.2070  204.7390  147.4530 C   0  0  2  0  0  3  0  0  0  0  0  0
  160.9390  202.5990  147.2530 C   0  0  0  0  0  3  0  0  0  0  0  0
  1  9  1  0  0  0  0
  1 14  1  0  0  0  0
  2  3  1  0  0  0  0
  3 19  2  0  0  0  0
  3  7  1  0  0  0  0
  4 15  1  0  0  0  0
  4 11  1  0  0  0  0
  5 14  2  0  0  0  0
  5  2  1  0  0  0  0
  6  1  2  0  0  0  0
  7  4  2  0  0  0  0
  8 13  1  0  0  0  0
 10 19  1  0  0  0  0
 12 16  1  0  0  0  0
 12  8  2  0  0  0  0
 13  2  2  0  0  0  0
 13 18  1  0  0  0  0
 16  5  1  0  0  0  0
 17  6  1  0  0  0  0
 17 16  2  0  0  0  0
 18 10  2  0  0  0  0
 19 20  1  0  0  0  0
 20 15  2  0  0  0  0
 21 22  2  0  0  0  0
 22 23  1  0  0  0  0
 23  8  1  0  0  0  0
 24 31  1  0  0  0  0
 25 30  1  0  0  0  0
 27 24  2  0  0  0  0
 28 24  1  0  0  0  0
 28 25  2  0  0  0  0
 29 26  1  0  0  0  0
 30 22  1  6  0  0  0
 30 29  1  0  0  0  0
 31 29  2  0  0  0  0
M  END
>  <MODEL>
5

>  <REMARK>
 VINA RESULT:      -8.9      2.482      9.104
  Name = 
  2 active torsions:
  status: ('A' for Active; 'I' for Inactive)
    1  A    between atoms: C_5  and  C_30
    2  A    between atoms: C_10  and  N_16
                            x       y       z     vdW  Elec       q    Type
                         _______ _______ _______ _____ _____    ______ ____

>  <TORSDO>
F 2

$$$$
=
 OpenBabel11122413223D

 31 35  0  0  1  0  0  0  0  0999 V2000
  161.2060  205.1390  145.7730 C   0  0  0  0  0  0  0  0  0  0  0  0
  161.2060  204.9640  149.5370 C   0  0  0  0  0  0  0  0  0  0  0  0
  161.2060  203.5810  149.8880 C   0  0  0  0  0  0  0  0  0  0  0  0
  161.2060  201.2040  149.3240 C   0  0  0  0  0  0  0  0  0  0  0  0
  161.2060  205.4630  148.1950 C   0  0  0  0  0  0  0  0  0  0  0  0
  161.2070  206.5180  145.5740 C   0  0  0  0  0  3  0  0  0  0  0  0
  161.2060  202.5440  148.9360 C   0  0  0  0  0  3  0  0  0  0  0  0
  161.2050  207.2880  150.3540 C   0  0  0  0  0  0  0  0  0  0  0  0
  161.2060  204.2790  144.6820 O   0  0  0  0  0  1  0  0  0  0  0  0
  161.2060  204.1810  152.2080 N   0  0  0  0  0  0  0  0  0  0  0  0
  161.2060  200.2030  148.3620 O   0  0  0  0  0  1  0  0  0  0  0  0
  161.2060  207.7500  149.0390 C   0  0  0  0  0  3  0  0  0  0  0  0
  161.2060  205.9060  150.6040 C   0  0  0  0  0  0  0  0  0  0  0  0
  161.2060  204.6200  147.0680 C   0  0  0  0  0  3  0  0  0  0  0  0
  161.2060  200.8690  150.6780 C   0  0  0  0  0  3  0  0  0  0  0  0
  161.2060  206.8630  147.9700 C   0  0  0  0  0  0  0  0  0  0  0  0
  161.2070  207.3780  146.6710 C   0  0  0  0  0  3  0  0  0  0  0  0
  161.2060  205.4730  151.8920 N   0  0  0  0  0  0  0  0  0  0  0  0
  161.2070  203.2210  151.2560 C   0  0  0  0  0  0  0  0  0  0  0  0
  161.2060  201.8770  151.6410 C   0  0  0  0  0  3  0  0  0  0  0  0
  162.2930  210.0310  150.4630 O   0  0  0  0  0  0  0  0  0  0  0  0
  161.7450  209.5320  151.4830 C   0  0  0  0  0  0  0  0  0  0  0  0
  161.2060  208.2040  151.4630 N   0  0  0  0  0  2  0  0  0  0  0  0
  159.6900  210.1430  154.8540 C   0  0  0  0  0  0  0  0  0  0  0  0
  161.8240  209.4250  153.9460 C   0  0  0  0  0  3  0  0  0  0  0  0
  160.1820  212.0910  151.7400 O   0  0  0  0  0  1  0  0  0  0  0  0
  158.8200  210.0430  155.7580 O   0  0  0  0  0  0  0  0  0  0  0  0
  160.9120  209.3370  154.9160 C   0  0  0  0  0  3  0  0  0  0  0  0
  160.3970  211.1760  152.7640 C   0  0  0  0  0  0  0  0  0  0  0  0
  161.6540  210.3280  152.7440 C   0  0  2  0  0  3  0  0  0  0  0  0
  159.4920  211.0760  153.7400 C   0  0  0  0  0  3  0  0  0  0  0  0
  1 14  1  0  0  0  0
  2  3  2  0  0  0  0
  2 13  1  0  0  0  0
  3 19  1  0  0  0  0
  4 15  1  0  0  0  0
  5  2  1  0  0  0  0
  6  1  2  0  0  0  0
  6 17  1  0  0  0  0
  7  4  2  0  0  0  0
  7  3  1  0  0  0  0
  8 13  1  0  0  0  0
  8 23  1  0  0  0  0
  9  1  1  0  0  0  0
 11  4  1  0  0  0  0
 12  8  2  0  0  0  0
 13 18  2  0  0  0  0
 14  5  2  0  0  0  0
 15 20  2  0  0  0  0
 16  5  1  0  0  0  0
 16 12  1  0  0  0  0
 17 16  2  0  0  0  0
 18 10  1  0  0  0  0
 19 20  1  0  0  0  0
 19 10  2  0  0  0  0
 21 22  2  0  0  0  0
 23 22  1  0  0  0  0
 24 28  1  0  0  0  0
 24 27  2  0  0  0  0
 25 28  2  0  0  0  0
 26 29  1  0  0  0  0
 29 31  2  0  0  0  0
 30 22  1  6  0  0  0
 30 29  1  0  0  0  0
 30 25  1  0  0  0  0
 31 24  1  0  0  0  0
M  END
>  <MODEL>
6

>  <REMARK>
 VINA RESULT:      -8.8      1.658      4.078
  Name = 
  2 active torsions:
  status: ('A' for Active; 'I' for Inactive)
    1  A    between atoms: C_5  and  C_30
    2  A    between atoms: C_10  and  N_16
                            x       y       z     vdW  Elec       q    Type
                         _______ _______ _______ _____ _____    ______ ____

>  <TORSDO>
F 2

$$$$
=
 OpenBabel11122413223D

 31 35  0  0  1  0  0  0  0  0999 V2000
  161.1590  204.9530  152.0200 C   0  0  0  0  0  0  0  0  0  0  0  0
  161.1920  208.6120  152.9200 C   0  0  0  0  0  0  0  0  0  0  0  0
  160.8820  208.7000  154.3100 C   0  0  0  0  0  0  0  0  0  0  0  0
  160.3260  207.7070  156.4720 C   0  0  0  0  0  0  0  0  0  0  0  0
  161.2810  207.3890  152.1820 C   0  0  0  0  0  0  0  0  0  0  0  0
  161.4720  205.0130  150.6640 C   0  0  0  0  0  3  0  0  0  0  0  0
  160.6260  207.5760  155.1150 C   0  0  0  0  0  3  0  0  0  0  0  0
  161.7400  209.8440  150.8580 C   0  0  0  0  0  0  0  0  0  0  0  0
  160.9410  203.7240  152.6290 O   0  0  0  0  0  1  0  0  0  0  0  0
  161.0650  211.0870  154.1870 N   0  0  0  0  0  0  0  0  0  0  0  0
  160.0790  206.5790  157.2400 O   0  0  0  0  0  1  0  0  0  0  0  0
  161.8210  208.6400  150.1610 C   0  0  0  0  0  3  0  0  0  0  0  0
  161.4290  209.8330  152.2270 C   0  0  0  0  0  0  0  0  0  0  0  0
  161.0660  206.1280  152.7680 C   0  0  0  0  0  3  0  0  0  0  0  0
  160.2760  208.9740  157.0550 C   0  0  0  0  0  3  0  0  0  0  0  0
  161.5970  207.4270  150.8000 C   0  0  0  0  0  0  0  0  0  0  0  0
  161.6900  206.2480  150.0550 C   0  0  0  0  0  3  0  0  0  0  0  0
  161.3550  211.0160  152.8910 N   0  0  0  0  0  0  0  0  0  0  0  0
  160.8270  209.9760  154.9200 C   0  0  0  0  0  0  0  0  0  0  0  0
  160.5260  210.1050  156.2790 C   0  0  0  0  0  3  0  0  0  0  0  0
  161.2100  210.5610  148.0430 O   0  0  0  0  0  0  0  0  0  0  0  0
  161.7040  211.4170  148.8260 C   0  0  0  0  0  0  0  0  0  0  0  0
  161.9720  211.1000  150.1980 N   0  0  0  0  0  2  0  0  0  0  0  0
  161.3940  213.9650  145.7660 C   0  0  0  0  0  0  0  0  0  0  0  0
  160.7530  213.5640  148.0730 C   0  0  0  0  0  3  0  0  0  0  0  0
  164.2050  212.0980  147.2970 O   0  0  0  0  0  1  0  0  0  0  0  0
  161.1070  214.4530  144.6420 O   0  0  0  0  0  0  0  0  0  0  0  0
  160.4610  214.1010  146.8880 C   0  0  0  0  0  3  0  0  0  0  0  0
  162.9750  212.7270  147.1460 C   0  0  0  0  0  0  0  0  0  0  0  0
  162.0260  212.7870  148.3260 C   0  0  2  0  0  3  0  0  0  0  0  0
  162.6690  213.2690  145.9640 C   0  0  0  0  0  3  0  0  0  0  0  0
  1  9  1  0  0  0  0
  1 14  1  0  0  0  0
  2  3  1  0  0  0  0
  3 19  2  0  0  0  0
  3  7  1  0  0  0  0
  4 15  1  0  0  0  0
  4 11  1  0  0  0  0
  5 14  2  0  0  0  0
  5  2  1  0  0  0  0
  6  1  2  0  0  0  0
  7  4  2  0  0  0  0
  8 13  1  0  0  0  0
 10 19  1  0  0  0  0
 12 16  1  0  0  0  0
 12  8  2  0  0  0  0
 13 18  1  0  0  0  0
 13  2  2  0  0  0  0
 16  5  1  0  0  0  0
 17  6  1  0  0  0  0
 17 16  2  0  0  0  0
 18 10  2  0  0  0  0
 19 20  1  0  0  0  0
 20 15  2  0  0  0  0
 21 22  2  0  0  0  0
 22 23  1  0  0  0  0
 23  8  1  0  0  0  0
 24 31  1  0  0  0  0
 24 28  1  0  0  0  0
 25 30  1  0  0  0  0
 27 24  2  0  0  0  0
 28 25  2  0  0  0  0
 29 26  1  0  0  0  0
 29 30  1  0  0  0  0
 30 22  1  6  0  0  0
 31 29  2  0  0  0  0
M  END
>  <MODEL>
7

>  <REMARK>
 VINA RESULT:      -8.4      4.231      7.418
  Name = 
  2 active torsions:
  status: ('A' for Active; 'I' for Inactive)
    1  A    between atoms: C_5  and  C_30
    2  A    between atoms: C_10  and  N_16
                            x       y       z     vdW  Elec       q    Type
                         _______ _______ _______ _____ _____    ______ ____

>  <TORSDO>
F 2

$$$$
=
 OpenBabel11122413223D

 31 35  0  0  1  0  0  0  0  0999 V2000
  160.1830  209.9420  154.6290 C   0  0  0  0  0  0  0  0  0  0  0  0
  161.2850  209.3580  151.0730 C   0  0  0  0  0  0  0  0  0  0  0  0
  161.2720  210.6270  150.4210 C   0  0  0  0  0  0  0  0  0  0  0  0
  160.9030  213.0420  150.3910 C   0  0  0  0  0  0  0  0  0  0  0  0
  160.9290  209.1430  152.4430 C   0  0  0  0  0  0  0  0  0  0  0  0
  160.2420  208.6460  155.1380 C   0  0  0  0  0  3  0  0  0  0  0  0
  160.9020  211.8210  151.0660 C   0  0  0  0  0  3  0  0  0  0  0  0
  161.7240  206.9430  150.8540 C   0  0  0  0  0  0  0  0  0  0  0  0
  159.7870  210.9920  155.4460 O   0  0  0  0  0  1  0  0  0  0  0  0
  162.0110  209.5800  148.3950 N   0  0  0  0  0  0  0  0  0  0  0  0
  160.5330  214.2030  151.0540 O   0  0  0  0  0  1  0  0  0  0  0  0
  161.3730  206.7590  152.1910 C   0  0  0  0  0  3  0  0  0  0  0  0
  161.6810  208.2310  150.2970 C   0  0  0  0  0  0  0  0  0  0  0  0
  160.5240  210.1840  153.2970 C   0  0  0  0  0  3  0  0  0  0  0  0
  161.2770  213.0940  149.0470 C   0  0  0  0  0  3  0  0  0  0  0  0
  160.9820  207.8320  152.9810 C   0  0  0  0  0  0  0  0  0  0  0  0
  160.6400  207.5930  154.3160 C   0  0  0  0  0  3  0  0  0  0  0  0
  162.0270  208.3930  148.9930 N   0  0  0  0  0  0  0  0  0  0  0  0
  161.6480  210.7010  149.0590 C   0  0  0  0  0  0  0  0  0  0  0  0
  161.6480  211.9260  148.3840 C   0  0  0  0  0  3  0  0  0  0  0  0
  160.2060  205.5960  148.7090 O   0  0  0  0  0  0  0  0  0  0  0  0
  161.3680  205.2010  149.0000 C   0  0  0  0  0  0  0  0  0  0  0  0
  162.1310  205.8340  150.0350 N   0  0  0  0  0  2  0  0  0  0  0  0
  160.8650  202.5460  146.0570 C   0  0  0  0  0  0  0  0  0  0  0  0
  162.2080  204.4220  146.8150 C   0  0  0  0  0  3  0  0  0  0  0  0
  160.9410  202.3200  149.7550 O   0  0  0  0  0  1  0  0  0  0  0  0
  160.3590  201.9070  145.0990 O   0  0  0  0  0  0  0  0  0  0  0  0
  161.6910  203.7300  145.7990 C   0  0  0  0  0  3  0  0  0  0  0  0
  161.1560  202.7870  148.4640 C   0  0  0  0  0  0  0  0  0  0  0  0
  161.9700  204.0500  148.2620 C   0  0  2  0  0  3  0  0  0  0  0  0
  160.6430  202.1050  147.4370 C   0  0  0  0  0  3  0  0  0  0  0  0
  1  6  1  0  0  0  0
  1  9  1  0  0  0  0
  2  5  1  0  0  0  0
  3  7  2  0  0  0  0
  3  2  1  0  0  0  0
  4 11  1  0  0  0  0
  4  7  1  0  0  0  0
  5 16  2  0  0  0  0
  5 14  1  0  0  0  0
  8 12  2  0  0  0  0
 10 18  2  0  0  0  0
 10 19  1  0  0  0  0
 12 16  1  0  0  0  0
 13  8  1  0  0  0  0
 13  2  2  0  0  0  0
 14  1  2  0  0  0  0
 15  4  2  0  0  0  0
 16 17  1  0  0  0  0
 17  6  2  0  0  0  0
 18 13  1  0  0  0  0
 19  3  1  0  0  0  0
 20 15  1  0  0  0  0
 20 19  2  0  0  0  0
 21 22  2  0  0  0  0
 22 23  1  0  0  0  0
 23  8  1  0  0  0  0
 24 31  1  0  0  0  0
 25 30  1  0  0  0  0
 27 24  2  0  0  0  0
 28 24  1  0  0  0  0
 28 25  2  0  0  0  0
 29 26  1  0  0  0  0
 30 29  1  0  0  0  0
 30 22  1  1  0  0  0
 31 29  2  0  0  0  0
M  END
>  <MODEL>
8

>  <REMARK>
 VINA RESULT:      -8.2      2.476      8.130
  Name = 
  2 active torsions:
  status: ('A' for Active; 'I' for Inactive)
    1  A    between atoms: C_5  and  C_30
    2  A    between atoms: C_10  and  N_16
                            x       y       z     vdW  Elec       q    Type
                         _______ _______ _______ _____ _____    ______ ____

>  <TORSDO>
F 2

$$$$
=
 OpenBabel11122413223D

 31 35  0  0  1  0  0  0  0  0999 V2000
  161.0270  211.8730  151.2080 C   0  0  0  0  0  0  0  0  0  0  0  0
  161.2180  208.1950  152.0060 C   0  0  0  0  0  0  0  0  0  0  0  0
  160.8610  208.0500  153.3800 C   0  0  0  0  0  0  0  0  0  0  0  0
  160.1750  208.9490  155.5460 C   0  0  0  0  0  0  0  0  0  0  0  0
  161.2690  209.4430  151.3060 C   0  0  0  0  0  0  0  0  0  0  0  0
  161.3910  211.8690  149.8630 C   0  0  0  0  0  3  0  0  0  0  0  0
  160.5170  209.1360  154.2060 C   0  0  0  0  0  3  0  0  0  0  0  0
  161.9050  207.0550  149.9330 C   0  0  0  0  0  0  0  0  0  0  0  0
  160.7220  213.0710  151.8420 O   0  0  0  0  0  1  0  0  0  0  0  0
  161.1720  205.6800  153.1980 N   0  0  0  0  0  0  0  0  0  0  0  0
  159.8410  210.0400  156.3360 O   0  0  0  0  0  1  0  0  0  0  0  0
  161.9480  208.2820  149.2730 C   0  0  0  0  0  3  0  0  0  0  0  0
  161.5430  207.0090  151.2890 C   0  0  0  0  0  0  0  0  0  0  0  0
  160.9670  210.6730  151.9180 C   0  0  0  0  0  3  0  0  0  0  0  0
  160.1700  207.6650  156.0910 C   0  0  0  0  0  3  0  0  0  0  0  0
  161.6370  209.4620  149.9370 C   0  0  0  0  0  0  0  0  0  0  0  0
  161.6950  210.6660  149.2290 C   0  0  0  0  0  3  0  0  0  0  0  0
  161.5060  205.8040  151.9170 N   0  0  0  0  0  0  0  0  0  0  0  0
  160.8490  206.7550  153.9520 C   0  0  0  0  0  0  0  0  0  0  0  0
  160.5060  206.5710  155.2940 C   0  0  0  0  0  3  0  0  0  0  0  0
  160.4300  205.7460  147.7360 O   0  0  0  0  0  0  0  0  0  0  0  0
  161.4860  205.2210  148.1830 C   0  0  0  0  0  0  0  0  0  0  0  0
  162.2250  205.8320  149.2480 N   0  0  0  0  0  2  0  0  0  0  0  0
  160.5920  202.0790  145.8840 C   0  0  0  0  0  0  0  0  0  0  0  0
  162.0270  204.0260  146.0950 C   0  0  0  0  0  3  0  0  0  0  0  0
  161.1560  202.5440  149.5170 O   0  0  0  0  0  1  0  0  0  0  0  0
  159.9620  201.2860  145.1370 O   0  0  0  0  0  0  0  0  0  0  0  0
  161.3790  203.1700  145.3030 C   0  0  0  0  0  3  0  0  0  0  0  0
  161.1990  202.7570  148.1450 C   0  0  0  0  0  0  0  0  0  0  0  0
  161.9820  203.9370  147.6040 C   0  0  2  0  0  3  0  0  0  0  0  0
  160.5530  201.9090  147.3400 C   0  0  0  0  0  3  0  0  0  0  0  0
  1  9  1  0  0  0  0
  1 14  1  0  0  0  0
  2  3  1  0  0  0  0
  3 19  2  0  0  0  0
  3  7  1  0  0  0  0
  4 15  1  0  0  0  0
  4 11  1  0  0  0  0
  5 14  2  0  0  0  0
  5  2  1  0  0  0  0
  6  1  2  0  0  0  0
  7  4  2  0  0  0  0
  8 13  1  0  0  0  0
 10 19  1  0  0  0  0
 12  8  2  0  0  0  0
 12 16  1  0  0  0  0
 13 18  1  0  0  0  0
 13  2  2  0  0  0  0
 16  5  1  0  0  0  0
 17  6  1  0  0  0  0
 17 16  2  0  0  0  0
 18 10  2  0  0  0  0
 19 20  1  0  0  0  0
 20 15  2  0  0  0  0
 21 22  2  0  0  0  0
 22 23  1  0  0  0  0
 23  8  1  0  0  0  0
 24 31  1  0  0  0  0
 25 30  1  0  0  0  0
 27 24  2  0  0  0  0
 28 24  1  0  0  0  0
 28 25  2  0  0  0  0
 29 26  1  0  0  0  0
 30 29  1  0  0  0  0
 30 22  1  1  0  0  0
 31 29  2  0  0  0  0
M  END
>  <MODEL>
9

>  <REMARK>
 VINA RESULT:      -8.2      2.303      9.007
  Name = 
  2 active torsions:
  status: ('A' for Active; 'I' for Inactive)
    1  A    between atoms: C_5  and  C_30
    2  A    between atoms: C_10  and  N_16
                            x       y       z     vdW  Elec       q    Type
                         _______ _______ _______ _____ _____    ______ ____

>  <TORSDO>
F 2

$$$$
