=
 OpenBabel11122413433D

 37 44  0  0  1  0  0  0  0  0999 V2000
  158.3600  213.4070  142.2150 C   0  0  0  0  0  2  0  0  0  0  0  0
  155.5280  213.4670  139.5070 C   0  0  0  0  0  0  0  0  0  0  0  0
  159.0930  211.6710  138.1190 C   0  0  2  0  0  3  0  0  0  0  0  0
  158.3480  214.3620  143.4060 C   0  0  2  0  0  3  0  0  0  0  0  0
  161.7320  211.4830  140.9590 C   0  0  0  0  0  2  0  0  0  0  0  0
  156.6800  211.6390  138.1910 C   0  0  2  0  0  3  0  0  0  0  0  0
  159.8490  212.0290  139.1610 C   0  0  2  0  0  3  0  0  0  0  0  0
  160.5270  213.1640  144.1130 C   0  0  2  0  0  3  0  0  0  0  0  0
  157.8940  212.5260  137.9820 C   0  0  1  0  0  3  0  0  0  0  0  0
  161.0190  211.1460  139.6350 C   0  0  1  0  0  3  0  0  0  0  0  0
  156.6400  210.5810  137.0850 C   0  0  0  0  0  2  0  0  0  0  0  0
  159.6970  214.4530  144.1260 C   0  0  0  0  0  2  0  0  0  0  0  0
  158.0190  213.4140  139.1480 C   0  0  0  0  0  0  0  0  0  0  0  0
  155.3730  212.6650  140.7870 C   0  0  0  0  0  1  0  0  0  0  0  0
  160.3330  209.6190  137.3090 N   0  0  0  0  0  2  0  0  0  0  0  0
  157.9580  209.8260  137.0120 C   0  0  0  0  0  3  0  0  0  0  0  0
  156.8520  214.2680  139.5550 C   0  0  0  0  0  2  0  0  0  0  0  0
  161.4000  212.9600  142.8600 C   0  0  1  0  0  3  0  0  0  0  0  0
  160.7920  212.0150  141.9100 N   0  0  1  0  0  0  0  0  0  0  0  0
  159.1170  210.3530  137.4480 C   0  0  0  0  0  0  0  0  0  0  0  0
  159.1250  213.1550  139.8440 C   0  0  0  0  0  0  0  0  0  0  0  0
  155.4330  212.5190  138.2870 C   0  0  0  0  0  2  0  0  0  0  0  0
  162.0890  210.9040  138.5470 C   0  0  1  0  0  3  0  0  0  0  0  0
  154.3820  214.4530  139.4330 C   0  0  0  0  0  1  0  0  0  0  0  0
  160.8490  213.4460  141.5760 C   0  0  1  0  0  3  0  0  0  0  0  0
  159.7770  212.0330  144.4470 O   0  0  0  0  0  1  0  0  0  0  0  0
  159.4200  213.7990  141.1840 C   0  0  2  0  0  3  0  0  0  0  0  0
  161.6150  210.3030  137.2170 C   0  0  0  0  0  2  0  0  0  0  0  0
  162.4280  213.2130  137.6380 C   0  0  0  0  0  3  0  0  0  0  0  0
  162.9600  212.1020  138.2990 C   0  0  0  0  0  0  0  0  0  0  0  0
  164.3030  212.1170  138.7090 C   0  0  0  0  0  3  0  0  0  0  0  0
  166.4620  213.2440  138.8700 N   0  0  0  0  0  1  0  0  0  0  0  0
  164.5640  214.3430  137.7940 C   0  0  0  0  0  3  0  0  0  0  0  0
  165.1020  213.2350  138.4560 C   0  0  0  0  0  0  0  0  0  0  0  0
  163.2270  214.3320  137.3870 C   0  0  0  0  0  3  0  0  0  0  0  0
  157.6070  214.4530  145.7850 C   0  0  0  0  0  1  0  0  0  0  0  0
  157.2660  213.9560  144.3930 C   0  0  0  0  0  2  0  0  0  0  0  0
  1  4  1  0  0  0  0
  2 17  1  0  0  0  0
  2 14  1  0  0  0  0
  3 20  1  1  0  0  0
  3  7  1  0  0  0  0
  4 12  1  0  0  0  0
  4 37  1  1  0  0  0
  5 19  1  0  0  0  0
  6 11  1  6  0  0  0
  6 22  1  0  0  0  0
  7 10  1  0  0  0  0
  7 21  1  1  0  0  0
  8 12  1  0  0  0  0
  8 26  1  6  0  0  0
  9  3  1  0  0  0  0
  9  6  1  0  0  0  0
  9 13  1  1  0  0  0
 10  5  1  1  0  0  0
 13 17  1  0  0  0  0
 13 21  2  0  0  0  0
 15 20  1  0  0  0  0
 16 11  1  0  0  0  0
 16 20  2  0  0  0  0
 18  8  1  0  0  0  0
 19 18  1  0  0  0  0
 21 27  1  0  0  0  0
 22  2  1  0  0  0  0
 23 10  1  0  0  0  0
 24  2  1  0  0  0  0
 25 19  1  0  0  0  0
 25 18  1  0  0  0  0
 27 25  1  0  0  0  0
 27  1  1  0  0  0  0
 28 15  1  0  0  0  0
 28 23  1  0  0  0  0
 29 30  1  0  0  0  0
 30 23  1  0  0  0  0
 30 31  2  0  0  0  0
 33 34  2  0  0  0  0
 34 31  1  0  0  0  0
 34 32  1  0  0  0  0
 35 29  2  0  0  0  0
 35 33  1  0  0  0  0
 37 36  1  0  0  0  0
M  END
>  <MODEL>
1

>  <REMARK>
 VINA RESULT:      -2.9      0.000      0.000
  Name = 
  2 active torsions:
  status: ('A' for Active; 'I' for Inactive)
    1  A    between atoms: C_4  and  C_37
    2  A    between atoms: C_23  and  C_30
                            x       y       z     vdW  Elec       q    Type
                         _______ _______ _______ _____ _____    ______ ____

>  <TORSDO>
F 2

$$$$
=
 OpenBabel11122413433D

 37 44  0  0  1  0  0  0  0  0999 V2000
  158.2470  213.0540  150.9300 C   0  0  0  0  0  2  0  0  0  0  0  0
  160.9940  212.6510  148.1640 C   0  0  0  0  0  0  0  0  0  0  0  0
  161.5250  209.9960  151.4100 C   0  0  2  0  0  3  0  0  0  0  0  0
  157.4260  214.3340  151.0600 C   0  0  2  0  0  3  0  0  0  0  0  0
  158.6240  210.3510  153.9630 C   0  0  0  0  0  2  0  0  0  0  0  0
  161.5880  210.3460  149.0220 C   0  0  2  0  0  3  0  0  0  0  0  0
  160.6090  210.5570  152.2040 C   0  0  2  0  0  3  0  0  0  0  0  0
  156.2470  213.1220  153.0160 C   0  0  2  0  0  3  0  0  0  0  0  0
  161.9980  210.9270  150.3620 C   0  0  1  0  0  3  0  0  0  0  0  0
  159.8100  209.7120  153.2160 C   0  0  1  0  0  3  0  0  0  0  0  0
  162.3000  209.0050  148.8220 C   0  0  0  0  0  2  0  0  0  0  0  0
  156.6950  214.4530  152.4010 C   0  0  0  0  0  2  0  0  0  0  0  0
  161.1710  212.1170  150.6180 C   0  0  0  0  0  0  0  0  0  0  0  0
  159.5360  212.3380  147.8740 C   0  0  0  0  0  1  0  0  0  0  0  0
  161.5640  207.6320  152.3140 N   0  0  0  0  0  2  0  0  0  0  0  0
  162.0510  208.0800  150.0050 C   0  0  0  0  0  3  0  0  0  0  0  0
  161.1270  213.2190  149.5980 C   0  0  0  0  0  2  0  0  0  0  0  0
  157.3160  212.3960  153.8550 C   0  0  1  0  0  3  0  0  0  0  0  0
  157.9500  211.2950  153.1120 N   0  0  1  0  0  0  0  0  0  0  0  0
  161.7380  208.5430  151.2290 C   0  0  0  0  0  0  0  0  0  0  0  0
  160.3650  211.9370  151.6630 C   0  0  0  0  0  0  0  0  0  0  0  0
  161.8520  211.3830  147.9290 C   0  0  0  0  0  2  0  0  0  0  0  0
  160.7000  208.9760  154.2420 C   0  0  1  0  0  3  0  0  0  0  0  0
  161.4460  213.7170  147.1900 C   0  0  0  0  0  1  0  0  0  0  0  0
  158.7180  212.5150  153.3980 C   0  0  1  0  0  3  0  0  0  0  0  0
  155.6150  212.2840  152.0930 O   0  0  0  0  0  1  0  0  0  0  0  0
  159.2850  212.9300  152.0460 C   0  0  2  0  0  3  0  0  0  0  0  0
  161.7940  208.0530  153.6900 C   0  0  0  0  0  2  0  0  0  0  0  0
  160.4060  210.4650  156.2340 C   0  0  0  0  0  3  0  0  0  0  0  0
  161.2650  209.8860  155.2950 C   0  0  0  0  0  0  0  0  0  0  0  0
  162.6380  210.1720  155.3420 C   0  0  0  0  0  3  0  0  0  0  0  0
  164.5340  211.3220  156.3620 N   0  0  0  0  0  1  0  0  0  0  0  0
  162.2800  211.6100  157.2560 C   0  0  0  0  0  3  0  0  0  0  0  0
  163.1430  211.0330  156.3200 C   0  0  0  0  0  0  0  0  0  0  0  0
  160.9120  211.3250  157.2130 C   0  0  0  0  0  3  0  0  0  0  0  0
  156.5230  213.2160  149.0230 C   0  0  0  0  0  1  0  0  0  0  0  0
  156.4260  214.4350  149.9200 C   0  0  0  0  0  2  0  0  0  0  0  0
  1  4  1  0  0  0  0
  1 27  1  0  0  0  0
  2 17  1  0  0  0  0
  3 20  1  6  0  0  0
  3  7  1  0  0  0  0
  4 37  1  6  0  0  0
  4 12  1  0  0  0  0
  6 22  1  6  0  0  0
  6  9  1  0  0  0  0
  7 21  1  6  0  0  0
  7 10  1  0  0  0  0
  8 26  1  6  0  0  0
  8 18  1  0  0  0  0
  9 13  1  1  0  0  0
  9  3  1  0  0  0  0
 10  5  1  1  0  0  0
 10 23  1  0  0  0  0
 11  6  1  0  0  0  0
 11 16  1  0  0  0  0
 12  8  1  0  0  0  0
 13 21  2  0  0  0  0
 14  2  1  0  0  0  0
 15 28  1  0  0  0  0
 16 20  2  0  0  0  0
 17 13  1  0  0  0  0
 19 25  1  0  0  0  0
 19 18  1  0  0  0  0
 19  5  1  0  0  0  0
 20 15  1  0  0  0  0
 21 27  1  0  0  0  0
 22  2  1  0  0  0  0
 23 30  1  0  0  0  0
 24  2  1  0  0  0  0
 25 18  1  0  0  0  0
 27 25  1  0  0  0  0
 28 23  1  0  0  0  0
 29 35  1  0  0  0  0
 30 31  1  0  0  0  0
 30 29  2  0  0  0  0
 31 34  2  0  0  0  0
 34 32  1  0  0  0  0
 34 33  1  0  0  0  0
 35 33  2  0  0  0  0
 36 37  1  0  0  0  0
M  END
>  <MODEL>
2

>  <REMARK>
 VINA RESULT:      -0.1      9.054     13.287
  Name = 
  2 active torsions:
  status: ('A' for Active; 'I' for Inactive)
    1  A    between atoms: C_4  and  C_37
    2  A    between atoms: C_23  and  C_30
                            x       y       z     vdW  Elec       q    Type
                         _______ _______ _______ _____ _____    ______ ____

>  <TORSDO>
F 2

$$$$
=
 OpenBabel11122413433D

 37 44  0  0  1  0  0  0  0  0999 V2000
  160.7090  210.7980  151.0380 C   0  0  0  0  0  2  0  0  0  0  0  0
  158.4050  213.5930  152.5350 C   0  0  0  0  0  0  0  0  0  0  0  0
  158.5800  213.6900  148.3120 C   0  0  2  0  0  3  0  0  0  0  0  0
  161.7910  210.1200  151.8760 C   0  0  2  0  0  3  0  0  0  0  0  0
  160.7150  210.7450  146.9580 C   0  0  0  0  0  2  0  0  0  0  0  0
  157.2370  213.8890  150.3090 C   0  0  2  0  0  3  0  0  0  0  0  0
  159.5780  212.8110  148.1910 C   0  0  2  0  0  3  0  0  0  0  0  0
  162.2670  208.7350  149.7460 C   0  0  2  0  0  3  0  0  0  0  0  0
  158.5430  214.3060  149.6560 C   0  0  1  0  0  3  0  0  0  0  0  0
  159.6740  211.8820  146.9640 C   0  0  1  0  0  3  0  0  0  0  0  0
  156.0700  214.4530  149.4950 C   0  0  0  0  0  2  0  0  0  0  0  0
  162.8170  209.3530  151.0360 C   0  0  0  0  0  2  0  0  0  0  0  0
  159.6410  213.6080  150.3420 C   0  0  0  0  0  0  0  0  0  0  0  0
  158.0620  212.1220  152.6960 C   0  0  0  0  0  1  0  0  0  0  0  0
  157.4310  213.4270  146.0730 N   0  0  0  0  0  2  0  0  0  0  0  0
  156.1900  214.0540  148.0310 C   0  0  0  0  0  3  0  0  0  0  0  0
  159.7780  213.7290  151.8320 C   0  0  0  0  0  2  0  0  0  0  0  0
  162.2310  209.6800  148.5300 C   0  0  1  0  0  3  0  0  0  0  0  0
  160.8830  210.2160  148.2860 N   0  0  1  0  0  0  0  0  0  0  0  0
  157.3700  213.7460  147.4630 C   0  0  0  0  0  0  0  0  0  0  0  0
  160.2530  212.7450  149.5310 C   0  0  0  0  0  0  0  0  0  0  0  0
  157.2600  214.3110  151.7790 C   0  0  0  0  0  2  0  0  0  0  0  0
  159.7650  212.6400  145.6220 C   0  0  1  0  0  3  0  0  0  0  0  0
  158.5180  214.2000  153.9160 C   0  0  0  0  0  1  0  0  0  0  0  0
  161.9350  211.1040  148.8000 C   0  0  1  0  0  3  0  0  0  0  0  0
  161.0640  208.0500  149.9420 O   0  0  0  0  0  1  0  0  0  0  0  0
  161.3060  211.7690  150.0180 C   0  0  2  0  0  3  0  0  0  0  0  0
  158.6500  213.6460  145.3060 C   0  0  0  0  0  2  0  0  0  0  0  0
  161.7920  213.8570  146.4510 C   0  0  0  0  0  3  0  0  0  0  0  0
  161.1120  213.2610  145.3840 C   0  0  0  0  0  0  0  0  0  0  0  0
  161.6920  213.2630  144.1060 C   0  0  0  0  0  3  0  0  0  0  0  0
  163.5220  213.8590  142.6040 N   0  0  0  0  0  1  0  0  0  0  0  0
  163.6140  214.4530  144.9720 C   0  0  0  0  0  3  0  0  0  0  0  0
  162.9390  213.8580  143.9010 C   0  0  0  0  0  0  0  0  0  0  0  0
  163.0400  214.4510  146.2460 C   0  0  0  0  0  3  0  0  0  0  0  0
  160.6620  209.9680  154.0940 C   0  0  0  0  0  1  0  0  0  0  0  0
  161.1590  209.1850  152.8930 C   0  0  0  0  0  2  0  0  0  0  0  0
  1  4  1  0  0  0  0
  2 14  1  0  0  0  0
  2 24  1  0  0  0  0
  3 20  1  1  0  0  0
  3  9  1  0  0  0  0
  4 37  1  1  0  0  0
  5 19  1  0  0  0  0
  6 11  1  6  0  0  0
  6 22  1  0  0  0  0
  7  3  1  0  0  0  0
  7 21  1  1  0  0  0
  8 26  1  1  0  0  0
  8 12  1  0  0  0  0
  9  6  1  0  0  0  0
  9 13  1  1  0  0  0
 10  5  1  1  0  0  0
 10  7  1  0  0  0  0
 12  4  1  0  0  0  0
 13 17  1  0  0  0  0
 15 20  1  0  0  0  0
 16 11  1  0  0  0  0
 17  2  1  0  0  0  0
 18 25  1  0  0  0  0
 18  8  1  0  0  0  0
 19 18  1  0  0  0  0
 19 25  1  0  0  0  0
 20 16  2  0  0  0  0
 21 27  1  0  0  0  0
 21 13  2  0  0  0  0
 22  2  1  0  0  0  0
 23 10  1  0  0  0  0
 25 27  1  0  0  0  0
 27  1  1  0  0  0  0
 28 23  1  0  0  0  0
 28 15  1  0  0  0  0
 30 23  1  0  0  0  0
 30 29  2  0  0  0  0
 31 30  1  0  0  0  0
 32 34  1  0  0  0  0
 33 35  2  0  0  0  0
 34 31  2  0  0  0  0
 34 33  1  0  0  0  0
 35 29  1  0  0  0  0
 37 36  1  0  0  0  0
M  END
>  <MODEL>
3

>  <REMARK>
 VINA RESULT:      -0.0      5.766      9.795
  Name = 
  2 active torsions:
  status: ('A' for Active; 'I' for Inactive)
    1  A    between atoms: C_4  and  C_37
    2  A    between atoms: C_23  and  C_30
                            x       y       z     vdW  Elec       q    Type
                         _______ _______ _______ _____ _____    ______ ____

>  <TORSDO>
F 2

$$$$
