=
 OpenBabel11122413183D

 31 35  0  0  0  0  0  0  0  0999 V2000
  161.2060  205.8350  153.6650 C   0  0  0  0  0  0  0  0  0  0  0  0
  161.3100  205.9900  149.9050 C   0  0  0  0  0  0  0  0  0  0  0  0
  161.2040  204.6530  149.4230 C   0  0  0  0  0  0  0  0  0  0  0  0
  161.7760  211.2320  149.7780 O   0  0  0  0  0  0  0  0  0  0  0  0
  161.7660  210.7980  148.5930 C   0  0  0  0  0  0  0  0  0  0  0  0
  160.9840  202.2430  149.7530 C   0  0  0  0  0  0  0  0  0  0  0  0
  161.3100  206.3620  151.2830 C   0  0  0  0  0  0  0  0  0  0  0  0
  161.3170  207.1880  153.9830 C   0  0  0  0  0  3  0  0  0  0  0  0
  161.0850  203.5370  150.2700 C   0  0  0  0  0  3  0  0  0  0  0  0
  161.5330  208.3620  149.3370 C   0  0  0  0  0  0  0  0  0  0  0  0
  161.1010  204.9130  154.6530 F   0  0  0  0  0  0  0  0  0  0  0  0
  161.3300  205.4700  147.1720 N   0  0  0  0  0  0  0  0  0  0  0  0
  160.8370  200.8790  150.8390 Cl  0  0  0  0  0  0  0  0  0  0  0  0
  161.5290  208.6750  150.6570 N   0  0  0  0  0  0  0  0  0  0  0  0
  161.4250  207.0230  148.9380 C   0  0  0  0  0  0  0  0  0  0  0  0
  161.6480  209.3910  148.3430 N   0  0  0  0  0  2  0  0  0  0  0  0
  161.2030  205.4280  152.3300 C   0  0  0  0  0  3  0  0  0  0  0  0
  160.9990  202.0390  148.3730 C   0  0  0  0  0  3  0  0  0  0  0  0
  161.4230  207.7330  151.6250 C   0  0  0  0  0  0  0  0  0  0  0  0
  161.4250  208.1340  152.9650 C   0  0  0  0  0  3  0  0  0  0  0  0
  161.4300  206.7210  147.6130 N   0  0  0  0  0  0  0  0  0  0  0  0
  161.2180  204.4260  148.0260 C   0  0  0  0  0  0  0  0  0  0  0  0
  161.1160  203.1290  147.5120 C   0  0  0  0  0  3  0  0  0  0  0  0
  161.9780  213.5170  145.3110 C   0  0  0  0  0  0  0  0  0  0  0  0
  160.8180  211.8630  146.5550 C   0  0  0  0  0  3  0  0  0  0  0  0
  164.0780  212.5150  148.1080 F   0  0  0  0  0  0  0  0  0  0  0  0
  162.0180  214.4530  144.1570 C   0  0  0  0  0  1  0  0  0  0  0  0
  160.8890  212.7300  145.5100 N   0  0  0  0  0  0  0  0  0  0  0  0
  163.0130  212.5640  147.2700 C   0  0  0  0  0  0  0  0  0  0  0  0
  161.8780  211.7530  147.4670 C   0  0  0  0  0  0  0  0  0  0  0  0
  163.0600  213.4470  146.1880 C   0  0  0  0  0  3  0  0  0  0  0  0
  1  8  1  0  0  0  0
  1 11  1  0  0  0  0
  2  7  1  0  0  0  0
  3  2  1  0  0  0  0
  3  9  1  0  0  0  0
  5  4  2  0  0  0  0
  6  9  2  0  0  0  0
  6 13  1  0  0  0  0
  7 19  2  0  0  0  0
  7 17  1  0  0  0  0
 10 14  2  0  0  0  0
 12 21  2  0  0  0  0
 12 22  1  0  0  0  0
 14 19  1  0  0  0  0
 15 10  1  0  0  0  0
 15  2  2  0  0  0  0
 16  5  1  0  0  0  0
 16 10  1  0  0  0  0
 17  1  2  0  0  0  0
 18  6  1  0  0  0  0
 19 20  1  0  0  0  0
 20  8  2  0  0  0  0
 21 15  1  0  0  0  0
 22  3  2  0  0  0  0
 23 22  1  0  0  0  0
 23 18  2  0  0  0  0
 24 28  2  0  0  0  0
 24 31  1  0  0  0  0
 25 30  2  0  0  0  0
 27 24  1  0  0  0  0
 28 25  1  0  0  0  0
 29 30  1  0  0  0  0
 29 26  1  0  0  0  0
 30  5  1  0  0  0  0
 31 29  2  0  0  0  0
M  END
>  <MODEL>
1

>  <REMARK>
 VINA RESULT:      -9.7      0.000      0.000
  Name = 
  1 active torsions:
  status: ('A' for Active; 'I' for Inactive)
    1  A    between atoms: C_5  and  C_30
                            x       y       z     vdW  Elec       q    Type
                         _______ _______ _______ _____ _____    ______ ____

>  <TORSDO>
F 1

$$$$
=
 OpenBabel11122413183D

 31 35  0  0  0  0  0  0  0  0999 V2000
  161.0490  201.7040  150.4010 C   0  0  0  0  0  0  0  0  0  0  0  0
  161.1720  205.4040  149.7130 C   0  0  0  0  0  0  0  0  0  0  0  0
  161.2760  205.5680  148.3010 C   0  0  0  0  0  0  0  0  0  0  0  0
  160.8350  206.7230  154.7990 O   0  0  0  0  0  0  0  0  0  0  0  0
  160.9050  207.7780  154.1110 C   0  0  0  0  0  0  0  0  0  0  0  0
  161.4230  204.6970  146.0240 C   0  0  0  0  0  0  0  0  0  0  0  0
  161.0990  204.1460  150.3830 C   0  0  0  0  0  0  0  0  0  0  0  0
  160.9490  201.7020  151.7920 C   0  0  0  0  0  3  0  0  0  0  0  0
  161.3200  204.4880  147.4020 C   0  0  0  0  0  3  0  0  0  0  0  0
  161.0380  206.4980  151.9000 C   0  0  0  0  0  0  0  0  0  0  0  0
  161.0740  200.5310  149.7230 F   0  0  0  0  0  0  0  0  0  0  0  0
  161.3030  207.9480  148.5960 N   0  0  0  0  0  0  0  0  0  0  0  0
  161.4730  203.3270  144.9360 Cl  0  0  0  0  0  0  0  0  0  0  0  0
  160.9700  205.2830  152.5000 N   0  0  0  0  0  0  0  0  0  0  0  0
  161.1400  206.5810  150.5050 C   0  0  0  0  0  0  0  0  0  0  0  0
  161.0060  207.7010  152.6820 N   0  0  0  0  0  2  0  0  0  0  0  0
  161.1230  202.9120  149.7070 C   0  0  0  0  0  3  0  0  0  0  0  0
  161.4850  205.9950  145.5180 C   0  0  0  0  0  3  0  0  0  0  0  0
  160.9980  204.1250  151.7970 C   0  0  0  0  0  0  0  0  0  0  0  0
  160.9240  202.9110  152.4870 C   0  0  0  0  0  3  0  0  0  0  0  0
  161.2060  207.8040  149.9150 N   0  0  0  0  0  0  0  0  0  0  0  0
  161.3410  206.8780  147.7690 C   0  0  0  0  0  0  0  0  0  0  0  0
  161.4440  207.0830  146.3890 C   0  0  0  0  0  3  0  0  0  0  0  0
  160.8960  211.5180  156.1650 C   0  0  0  0  0  0  0  0  0  0  0  0
  161.4490  209.2130  156.0680 C   0  0  0  0  0  3  0  0  0  0  0  0
  159.7420  210.2040  152.9750 F   0  0  0  0  0  0  0  0  0  0  0  0
  160.9120  212.8050  156.9090 C   0  0  0  0  0  1  0  0  0  0  0  0
  161.4450  210.4070  156.7200 N   0  0  0  0  0  0  0  0  0  0  0  0
  160.3100  210.2400  154.2060 C   0  0  0  0  0  0  0  0  0  0  0  0
  160.8820  209.0930  154.7910 C   0  0  0  0  0  0  0  0  0  0  0  0
  160.3190  211.4540  154.8980 C   0  0  0  0  0  3  0  0  0  0  0  0
  1  8  1  0  0  0  0
  2  7  1  0  0  0  0
  2 15  1  0  0  0  0
  3  2  2  0  0  0  0
  5 30  1  0  0  0  0
  5  4  2  0  0  0  0
  6  9  2  0  0  0  0
  7 19  2  0  0  0  0
  8 20  2  0  0  0  0
  9  3  1  0  0  0  0
 10 14  2  0  0  0  0
 10 16  1  0  0  0  0
 11  1  1  0  0  0  0
 12 21  1  0  0  0  0
 13  6  1  0  0  0  0
 15 10  1  0  0  0  0
 16  5  1  0  0  0  0
 17  7  1  0  0  0  0
 17  1  2  0  0  0  0
 18  6  1  0  0  0  0
 18 23  2  0  0  0  0
 19 20  1  0  0  0  0
 19 14  1  0  0  0  0
 21 15  2  0  0  0  0
 22  3  1  0  0  0  0
 22 12  2  0  0  0  0
 23 22  1  0  0  0  0
 24 28  1  0  0  0  0
 24 27  1  0  0  0  0
 25 28  2  0  0  0  0
 26 29  1  0  0  0  0
 29 30  2  0  0  0  0
 29 31  1  0  0  0  0
 30 25  1  0  0  0  0
 31 24  2  0  0  0  0
M  END
>  <MODEL>
2

>  <REMARK>
 VINA RESULT:      -9.3      3.930      6.260
  Name = 
  1 active torsions:
  status: ('A' for Active; 'I' for Inactive)
    1  A    between atoms: C_5  and  C_30
                            x       y       z     vdW  Elec       q    Type
                         _______ _______ _______ _____ _____    ______ ____

>  <TORSDO>
F 1

$$$$
=
 OpenBabel11122413183D

 31 35  0  0  0  0  0  0  0  0999 V2000
  161.1360  207.5160  154.1310 C   0  0  0  0  0  0  0  0  0  0  0  0
  161.3170  207.0290  150.4010 C   0  0  0  0  0  0  0  0  0  0  0  0
  161.2030  205.6310  150.1510 C   0  0  0  0  0  0  0  0  0  0  0  0
  161.8540  212.1700  149.3980 O   0  0  0  0  0  0  0  0  0  0  0  0
  161.8620  211.5410  148.3040 C   0  0  0  0  0  0  0  0  0  0  0  0
  160.9460  203.3140  150.8800 C   0  0  0  0  0  0  0  0  0  0  0  0
  161.2940  207.6300  151.6960 C   0  0  0  0  0  0  0  0  0  0  0  0
  161.2590  208.9020  154.2170 C   0  0  0  0  0  3  0  0  0  0  0  0
  161.0540  204.6760  151.1720 C   0  0  0  0  0  3  0  0  0  0  0  0
  161.5830  209.2680  149.4450 C   0  0  0  0  0  0  0  0  0  0  0  0
  161.0000  206.7770  155.2580 F   0  0  0  0  0  0  0  0  0  0  0  0
  161.3850  206.0530  147.7970 N   0  0  0  0  0  0  0  0  0  0  0  0
  160.7600  202.1560  152.1780 Cl  0  0  0  0  0  0  0  0  0  0  0  0
  161.5560  209.8010  150.6920 N   0  0  0  0  0  0  0  0  0  0  0  0
  161.4650  207.8830  149.2760 C   0  0  0  0  0  0  0  0  0  0  0  0
  161.7310  210.1130  148.2940 N   0  0  0  0  0  2  0  0  0  0  0  0
  161.1540  206.8890  152.8840 C   0  0  0  0  0  3  0  0  0  0  0  0
  160.9860  202.8790  149.5550 C   0  0  0  0  0  3  0  0  0  0  0  0
  161.4180  209.0380  151.8030 C   0  0  0  0  0  0  0  0  0  0  0  0
  161.3990  209.6600  153.0560 C   0  0  0  0  0  3  0  0  0  0  0  0
  161.4930  207.3600  148.0220 N   0  0  0  0  0  0  0  0  0  0  0  0
  161.2430  205.1710  148.8130 C   0  0  0  0  0  0  0  0  0  0  0  0
  161.1340  203.8060  148.5240 C   0  0  0  0  0  3  0  0  0  0  0  0
  162.4030  213.7010  144.6640 C   0  0  0  0  0  0  0  0  0  0  0  0
  163.2900  212.6610  146.6030 C   0  0  0  0  0  3  0  0  0  0  0  0
  159.6360  212.3300  146.5880 F   0  0  0  0  0  0  0  0  0  0  0  0
  162.6280  214.4530  143.4020 C   0  0  0  0  0  1  0  0  0  0  0  0
  163.4590  213.3490  145.4420 N   0  0  0  0  0  0  0  0  0  0  0  0
  160.9050  212.6510  146.2360 C   0  0  0  0  0  0  0  0  0  0  0  0
  162.0080  212.2900  147.0360 C   0  0  0  0  0  0  0  0  0  0  0  0
  161.1070  213.3580  145.0480 C   0  0  0  0  0  3  0  0  0  0  0  0
  1  8  1  0  0  0  0
  1 11  1  0  0  0  0
  2  7  1  0  0  0  0
  3  2  1  0  0  0  0
  3  9  1  0  0  0  0
  5  4  2  0  0  0  0
  6  9  2  0  0  0  0
  6 13  1  0  0  0  0
  7 19  2  0  0  0  0
  7 17  1  0  0  0  0
 10 14  2  0  0  0  0
 12 21  2  0  0  0  0
 12 22  1  0  0  0  0
 14 19  1  0  0  0  0
 15 10  1  0  0  0  0
 15  2  2  0  0  0  0
 16  5  1  0  0  0  0
 16 10  1  0  0  0  0
 17  1  2  0  0  0  0
 18  6  1  0  0  0  0
 19 20  1  0  0  0  0
 20  8  2  0  0  0  0
 21 15  1  0  0  0  0
 22  3  2  0  0  0  0
 23 22  1  0  0  0  0
 23 18  2  0  0  0  0
 24 31  2  0  0  0  0
 24 28  1  0  0  0  0
 25 30  1  0  0  0  0
 27 24  1  0  0  0  0
 28 25  2  0  0  0  0
 29 26  1  0  0  0  0
 29 30  2  0  0  0  0
 30  5  1  0  0  0  0
 31 29  1  0  0  0  0
M  END
>  <MODEL>
3

>  <REMARK>
 VINA RESULT:      -9.2      1.385      1.692
  Name = 
  1 active torsions:
  status: ('A' for Active; 'I' for Inactive)
    1  A    between atoms: C_5  and  C_30
                            x       y       z     vdW  Elec       q    Type
                         _______ _______ _______ _____ _____    ______ ____

>  <TORSDO>
F 1

$$$$
=
 OpenBabel11122413183D

 31 35  0  0  0  0  0  0  0  0999 V2000
  161.2080  205.4390  145.6450 C   0  0  0  0  0  0  0  0  0  0  0  0
  161.1190  204.4260  149.2700 C   0  0  0  0  0  0  0  0  0  0  0  0
  161.1170  203.0020  149.3120 C   0  0  0  0  0  0  0  0  0  0  0  0
  161.0760  209.3900  151.0250 O   0  0  0  0  0  0  0  0  0  0  0  0
  161.0520  208.6100  152.0160 C   0  0  0  0  0  0  0  0  0  0  0  0
  161.1420  200.8040  148.2470 C   0  0  0  0  0  0  0  0  0  0  0  0
  161.1480  205.2060  148.0750 C   0  0  0  0  0  0  0  0  0  0  0  0
  161.2050  206.8280  145.7640 C   0  0  0  0  0  3  0  0  0  0  0  0
  161.1440  202.1980  148.1590 C   0  0  0  0  0  3  0  0  0  0  0  0
  161.0870  206.5150  150.5500 C   0  0  0  0  0  0  0  0  0  0  0  0
  161.2370  204.8650  144.4180 F   0  0  0  0  0  0  0  0  0  0  0  0
  161.0580  203.0870  151.7080 N   0  0  0  0  0  0  0  0  0  0  0  0
  161.1770  199.8370  146.7890 Cl  0  0  0  0  0  0  0  0  0  0  0  0
  161.1160  207.2210  149.3920 N   0  0  0  0  0  0  0  0  0  0  0  0
  161.0870  205.1140  150.5120 C   0  0  0  0  0  0  0  0  0  0  0  0
  161.0560  207.1900  151.8150 N   0  0  0  0  0  2  0  0  0  0  0  0
  161.1790  204.6390  146.7880 C   0  0  0  0  0  3  0  0  0  0  0  0
  161.1110  200.1840  149.4960 C   0  0  0  0  0  3  0  0  0  0  0  0
  161.1450  206.6200  148.1770 C   0  0  0  0  0  0  0  0  0  0  0  0
  161.1740  207.4160  147.0280 C   0  0  0  0  0  3  0  0  0  0  0  0
  161.0590  204.4170  151.6780 N   0  0  0  0  0  0  0  0  0  0  0  0
  161.0850  202.3550  150.5700 C   0  0  0  0  0  0  0  0  0  0  0  0
  161.0830  200.9580  150.6550 C   0  0  0  0  0  3  0  0  0  0  0  0
  160.9930  210.3410  155.9170 C   0  0  0  0  0  0  0  0  0  0  0  0
  161.3890  210.5120  153.5840 C   0  0  0  0  0  3  0  0  0  0  0  0
  160.2570  207.1180  154.3970 F   0  0  0  0  0  0  0  0  0  0  0  0
  160.9840  210.9750  157.2600 C   0  0  0  0  0  1  0  0  0  0  0  0
  161.3690  211.0610  154.8280 N   0  0  0  0  0  0  0  0  0  0  0  0
  160.6280  208.4180  154.5080 C   0  0  0  0  0  0  0  0  0  0  0  0
  161.0180  209.1740  153.3850 C   0  0  0  0  0  0  0  0  0  0  0  0
  160.6160  209.0060  155.7750 C   0  0  0  0  0  3  0  0  0  0  0  0
  1  8  2  0  0  0  0
  1 17  1  0  0  0  0
  2  3  2  0  0  0  0
  2 15  1  0  0  0  0
  3 22  1  0  0  0  0
  4  5  2  0  0  0  0
  5 30  1  0  0  0  0
  6 18  1  0  0  0  0
  7 19  1  0  0  0  0
  7  2  1  0  0  0  0
  8 20  1  0  0  0  0
  9  6  2  0  0  0  0
  9  3  1  0  0  0  0
 10 16  1  0  0  0  0
 11  1  1  0  0  0  0
 13  6  1  0  0  0  0
 14 10  2  0  0  0  0
 15 10  1  0  0  0  0
 15 21  2  0  0  0  0
 16  5  1  0  0  0  0
 17  7  2  0  0  0  0
 18 23  2  0  0  0  0
 19 14  1  0  0  0  0
 20 19  2  0  0  0  0
 21 12  1  0  0  0  0
 22 23  1  0  0  0  0
 22 12  2  0  0  0  0
 24 27  1  0  0  0  0
 25 28  1  0  0  0  0
 26 29  1  0  0  0  0
 28 24  2  0  0  0  0
 29 31  2  0  0  0  0
 30 25  2  0  0  0  0
 30 29  1  0  0  0  0
 31 24  1  0  0  0  0
M  END
>  <MODEL>
4

>  <REMARK>
 VINA RESULT:      -9.1      3.706      6.387
  Name = 
  1 active torsions:
  status: ('A' for Active; 'I' for Inactive)
    1  A    between atoms: C_5  and  C_30
                            x       y       z     vdW  Elec       q    Type
                         _______ _______ _______ _____ _____    ______ ____

>  <TORSDO>
F 1

$$$$
=
 OpenBabel11122413183D

 31 35  0  0  0  0  0  0  0  0999 V2000
  161.8500  210.7390  150.0030 C   0  0  0  0  0  0  0  0  0  0  0  0
  161.3290  207.2780  151.3930 C   0  0  0  0  0  0  0  0  0  0  0  0
  161.1910  207.4060  152.8060 C   0  0  0  0  0  0  0  0  0  0  0  0
  161.5910  204.9570  146.6750 O   0  0  0  0  0  0  0  0  0  0  0  0
  161.4010  204.0700  147.5530 C   0  0  0  0  0  0  0  0  0  0  0  0
  161.1100  208.7190  154.8640 C   0  0  0  0  0  0  0  0  0  0  0  0
  161.5430  208.3660  150.4940 C   0  0  0  0  0  0  0  0  0  0  0  0
  161.9670  210.4560  148.6430 C   0  0  0  0  0  3  0  0  0  0  0  0
  161.2510  208.6410  153.4770 C   0  0  0  0  0  3  0  0  0  0  0  0
  161.3760  205.7670  149.4670 C   0  0  0  0  0  0  0  0  0  0  0  0
  161.9400  212.0190  150.4390 F   0  0  0  0  0  0  0  0  0  0  0  0
  160.9180  205.0300  152.9790 N   0  0  0  0  0  0  0  0  0  0  0  0
  161.1900  210.2740  155.6630 Cl  0  0  0  0  0  0  0  0  0  0  0  0
  161.5780  206.8270  148.6440 N   0  0  0  0  0  0  0  0  0  0  0  0
  161.2490  205.9710  150.8470 C   0  0  0  0  0  0  0  0  0  0  0  0
  161.2920  204.4370  148.9350 N   0  0  0  0  0  2  0  0  0  0  0  0
  161.6410  209.7040  150.9170 C   0  0  0  0  0  3  0  0  0  0  0  0
  160.9050  207.5590  155.6110 C   0  0  0  0  0  3  0  0  0  0  0  0
  161.6650  208.0970  149.1070 C   0  0  0  0  0  0  0  0  0  0  0  0
  161.8740  209.1380  148.1970 C   0  0  0  0  0  3  0  0  0  0  0  0
  161.0460  204.9020  151.6610 N   0  0  0  0  0  0  0  0  0  0  0  0
  160.9830  206.2400  153.5810 C   0  0  0  0  0  0  0  0  0  0  0  0
  160.8420  206.3220  154.9700 C   0  0  0  0  0  3  0  0  0  0  0  0
  161.0720  200.0180  146.2570 C   0  0  0  0  0  0  0  0  0  0  0  0
  161.0440  202.3450  145.7970 C   0  0  0  0  0  3  0  0  0  0  0  0
  161.6740  201.8010  149.3700 F   0  0  0  0  0  0  0  0  0  0  0  0
  160.9510  198.6190  145.7710 C   0  0  0  0  0  1  0  0  0  0  0  0
  160.9390  201.0520  145.3870 N   0  0  0  0  0  0  0  0  0  0  0  0
  161.4320  201.5850  148.0530 C   0  0  0  0  0  0  0  0  0  0  0  0
  161.2940  202.6520  147.1420 C   0  0  0  0  0  0  0  0  0  0  0  0
  161.3200  200.2670  147.6060 C   0  0  0  0  0  3  0  0  0  0  0  0
  1 11  1  0  0  0  0
  1 17  1  0  0  0  0
  2  3  1  0  0  0  0
  3  9  2  0  0  0  0
  3 22  1  0  0  0  0
  4  5  2  0  0  0  0
  5 16  1  0  0  0  0
  6 18  2  0  0  0  0
  6 13  1  0  0  0  0
  7 17  2  0  0  0  0
  7  2  1  0  0  0  0
  8  1  2  0  0  0  0
  9  6  1  0  0  0  0
 10 15  1  0  0  0  0
 12 22  1  0  0  0  0
 14 19  1  0  0  0  0
 14 10  2  0  0  0  0
 15  2  2  0  0  0  0
 15 21  1  0  0  0  0
 16 10  1  0  0  0  0
 19  7  1  0  0  0  0
 20  8  1  0  0  0  0
 20 19  2  0  0  0  0
 21 12  2  0  0  0  0
 22 23  2  0  0  0  0
 23 18  1  0  0  0  0
 24 31  1  0  0  0  0
 25 30  2  0  0  0  0
 27 24  1  0  0  0  0
 28 25  1  0  0  0  0
 28 24  2  0  0  0  0
 29 26  1  0  0  0  0
 30  5  1  0  0  0  0
 30 29  1  0  0  0  0
 31 29  2  0  0  0  0
M  END
>  <MODEL>
5

>  <REMARK>
 VINA RESULT:      -8.4      3.513      8.015
  Name = 
  1 active torsions:
  status: ('A' for Active; 'I' for Inactive)
    1  A    between atoms: C_5  and  C_30
                            x       y       z     vdW  Elec       q    Type
                         _______ _______ _______ _____ _____    ______ ____

>  <TORSDO>
F 1

$$$$
=
 OpenBabel11122413183D

 31 35  0  0  0  0  0  0  0  0999 V2000
  161.0600  205.3560  145.1040 C   0  0  0  0  0  0  0  0  0  0  0  0
  161.0990  204.0500  148.6350 C   0  0  0  0  0  0  0  0  0  0  0  0
  161.1250  202.6270  148.5590 C   0  0  0  0  0  0  0  0  0  0  0  0
  161.0190  208.8520  150.7910 O   0  0  0  0  0  0  0  0  0  0  0  0
  161.0390  207.9940  151.7150 C   0  0  0  0  0  0  0  0  0  0  0  0
  161.1580  200.5250  147.3170 C   0  0  0  0  0  0  0  0  0  0  0  0
  161.0780  204.9250  147.5070 C   0  0  0  0  0  0  0  0  0  0  0  0
  161.0360  206.7310  145.3360 C   0  0  0  0  0  3  0  0  0  0  0  0
  161.1320  201.9210  147.3430 C   0  0  0  0  0  3  0  0  0  0  0  0
  161.0680  206.0260  150.0820 C   0  0  0  0  0  0  0  0  0  0  0  0
  161.0630  204.8850  143.8330 F   0  0  0  0  0  0  0  0  0  0  0  0
  161.1370  202.5160  150.9550 N   0  0  0  0  0  0  0  0  0  0  0  0
  161.1670  199.6810  145.7840 Cl  0  0  0  0  0  0  0  0  0  0  0  0
  161.0500  206.8250  148.9850 N   0  0  0  0  0  0  0  0  0  0  0  0
  161.0930  204.6340  149.9290 C   0  0  0  0  0  0  0  0  0  0  0  0
  161.0630  206.5950  151.3990 N   0  0  0  0  0  2  0  0  0  0  0  0
  161.0800  204.4660  146.1780 C   0  0  0  0  0  3  0  0  0  0  0  0
  161.1760  199.8040  148.5110 C   0  0  0  0  0  3  0  0  0  0  0  0
  161.0530  206.3260  147.7250 C   0  0  0  0  0  0  0  0  0  0  0  0
  161.0320  207.2130  146.6440 C   0  0  0  0  0  3  0  0  0  0  0  0
  161.1130  203.8430  151.0340 N   0  0  0  0  0  0  0  0  0  0  0  0
  161.1430  201.8790  149.7610 C   0  0  0  0  0  0  0  0  0  0  0  0
  161.1690  200.4810  149.7310 C   0  0  0  0  0  3  0  0  0  0  0  0
  161.0220  209.1760  155.8160 C   0  0  0  0  0  0  0  0  0  0  0  0
  160.9310  207.4900  154.1490 C   0  0  0  0  0  3  0  0  0  0  0  0
  161.2400  210.7820  152.5590 F   0  0  0  0  0  0  0  0  0  0  0  0
  161.0130  209.5510  157.2530 C   0  0  0  0  0  1  0  0  0  0  0  0
  160.9260  207.8700  155.4550 N   0  0  0  0  0  0  0  0  0  0  0  0
  161.1360  209.8020  153.4900 C   0  0  0  0  0  0  0  0  0  0  0  0
  161.0370  208.4440  153.1260 C   0  0  0  0  0  0  0  0  0  0  0  0
  161.1280  210.1640  154.8390 C   0  0  0  0  0  3  0  0  0  0  0  0
  1  8  2  0  0  0  0
  1 17  1  0  0  0  0
  2 15  1  0  0  0  0
  3  2  2  0  0  0  0
  3 22  1  0  0  0  0
  4  5  2  0  0  0  0
  5 30  1  0  0  0  0
  6  9  2  0  0  0  0
  6 18  1  0  0  0  0
  7 19  1  0  0  0  0
  7  2  1  0  0  0  0
  8 20  1  0  0  0  0
  9  3  1  0  0  0  0
 10 16  1  0  0  0  0
 11  1  1  0  0  0  0
 12 21  1  0  0  0  0
 13  6  1  0  0  0  0
 14 10  2  0  0  0  0
 15 10  1  0  0  0  0
 15 21  2  0  0  0  0
 16  5  1  0  0  0  0
 17  7  2  0  0  0  0
 18 23  2  0  0  0  0
 19 14  1  0  0  0  0
 20 19  2  0  0  0  0
 22 12  2  0  0  0  0
 23 22  1  0  0  0  0
 24 27  1  0  0  0  0
 25 28  2  0  0  0  0
 26 29  1  0  0  0  0
 28 24  1  0  0  0  0
 29 31  1  0  0  0  0
 30 29  2  0  0  0  0
 30 25  1  0  0  0  0
 31 24  2  0  0  0  0
M  END
>  <MODEL>
6

>  <REMARK>
 VINA RESULT:      -7.7      3.736      6.497
  Name = 
  1 active torsions:
  status: ('A' for Active; 'I' for Inactive)
    1  A    between atoms: C_5  and  C_30
                            x       y       z     vdW  Elec       q    Type
                         _______ _______ _______ _____ _____    ______ ____

>  <TORSDO>
F 1

$$$$
=
 OpenBabel11122413183D

 31 35  0  0  0  0  0  0  0  0999 V2000
  161.8370  211.5040  149.8210 C   0  0  0  0  0  0  0  0  0  0  0  0
  161.3820  208.0720  151.3020 C   0  0  0  0  0  0  0  0  0  0  0  0
  161.2680  208.2320  152.7140 C   0  0  0  0  0  0  0  0  0  0  0  0
  161.5830  205.6420  146.6360 O   0  0  0  0  0  0  0  0  0  0  0  0
  161.4200  204.7740  147.5380 C   0  0  0  0  0  0  0  0  0  0  0  0
  161.2090  209.5920  154.7420 C   0  0  0  0  0  0  0  0  0  0  0  0
  161.5670  209.1400  150.3740 C   0  0  0  0  0  0  0  0  0  0  0  0
  161.9320  211.1900  148.4660 C   0  0  0  0  0  3  0  0  0  0  0  0
  161.3260  209.4830  153.3540 C   0  0  0  0  0  3  0  0  0  0  0  0
  161.4110  206.5160  149.4110 C   0  0  0  0  0  0  0  0  0  0  0  0
  161.9210  212.7950  150.2250 F   0  0  0  0  0  0  0  0  0  0  0  0
  161.0250  205.8580  152.9480 N   0  0  0  0  0  0  0  0  0  0  0  0
  161.2860  211.1660  155.5020 Cl  0  0  0  0  0  0  0  0  0  0  0  0
  161.5850  207.5580  148.5610 N   0  0  0  0  0  0  0  0  0  0  0  0
  161.3070  206.7510  150.7880 C   0  0  0  0  0  0  0  0  0  0  0  0
  161.3320  205.1720  148.9130 N   0  0  0  0  0  2  0  0  0  0  0  0
  161.6570  210.4890  150.7630 C   0  0  0  0  0  3  0  0  0  0  0  0
  161.0320  208.4480  155.5200 C   0  0  0  0  0  3  0  0  0  0  0  0
  161.6660  208.8400  148.9920 C   0  0  0  0  0  0  0  0  0  0  0  0
  161.8460  209.8610  148.0530 C   0  0  0  0  0  3  0  0  0  0  0  0
  161.1310  205.6990  151.6320 N   0  0  0  0  0  0  0  0  0  0  0  0
  161.0880  207.0820  153.5200 C   0  0  0  0  0  0  0  0  0  0  0  0
  160.9710  207.1960  154.9090 C   0  0  0  0  0  3  0  0  0  0  0  0
  161.1520  200.6260  146.5730 C   0  0  0  0  0  0  0  0  0  0  0  0
  161.4390  202.3660  148.1600 C   0  0  0  0  0  3  0  0  0  0  0  0
  160.9900  203.8080  144.8160 F   0  0  0  0  0  0  0  0  0  0  0  0
  161.0640  199.1730  146.2730 C   0  0  0  0  0  1  0  0  0  0  0  0
  161.3530  201.0450  147.8490 N   0  0  0  0  0  0  0  0  0  0  0  0
  161.1130  202.9210  145.8350 C   0  0  0  0  0  0  0  0  0  0  0  0
  161.3210  203.3450  147.1630 C   0  0  0  0  0  0  0  0  0  0  0  0
  161.0280  201.5580  145.5440 C   0  0  0  0  0  3  0  0  0  0  0  0
  1 11  1  0  0  0  0
  1 17  1  0  0  0  0
  2  3  1  0  0  0  0
  3  9  2  0  0  0  0
  3 22  1  0  0  0  0
  4  5  2  0  0  0  0
  5 16  1  0  0  0  0
  6 13  1  0  0  0  0
  6 18  2  0  0  0  0
  7 17  2  0  0  0  0
  7  2  1  0  0  0  0
  8  1  2  0  0  0  0
  9  6  1  0  0  0  0
 10 15  1  0  0  0  0
 12 22  1  0  0  0  0
 14 19  1  0  0  0  0
 14 10  2  0  0  0  0
 15  2  2  0  0  0  0
 15 21  1  0  0  0  0
 16 10  1  0  0  0  0
 19  7  1  0  0  0  0
 20  8  1  0  0  0  0
 20 19  2  0  0  0  0
 21 12  2  0  0  0  0
 22 23  2  0  0  0  0
 23 18  1  0  0  0  0
 24 28  1  0  0  0  0
 26 29  1  0  0  0  0
 27 24  1  0  0  0  0
 28 25  2  0  0  0  0
 29 30  2  0  0  0  0
 30  5  1  0  0  0  0
 30 25  1  0  0  0  0
 31 29  1  0  0  0  0
 31 24  2  0  0  0  0
M  END
>  <MODEL>
7

>  <REMARK>
 VINA RESULT:      -7.6      3.591      7.923
  Name = 
  1 active torsions:
  status: ('A' for Active; 'I' for Inactive)
    1  A    between atoms: C_5  and  C_30
                            x       y       z     vdW  Elec       q    Type
                         _______ _______ _______ _____ _____    ______ ____

>  <TORSDO>
F 1

$$$$
