=
 OpenBabel11122414033D

 28 32  0  0  1  0  0  0  0  0999 V2000
  161.2720  209.7960  154.9620 C   0  0  0  0  0  0  0  0  0  0  0  0
  163.4600  210.6290  151.2850 O   0  0  0  0  0  0  0  0  0  0  0  0
  156.3820  212.7060  153.6020 C   0  0  0  0  0  1  0  0  0  0  0  0
  160.6070  207.3310  153.8080 C   0  0  0  0  0  3  0  0  0  0  0  0
  158.3150  213.7290  152.2060 C   0  0  1  0  0  3  0  0  0  0  0  0
  161.5420  211.0750  155.6690 C   0  0  0  0  0  2  0  0  0  0  0  0
  161.8670  208.8450  150.6850 O   0  0  0  0  0  0  0  0  0  0  0  0
  162.1040  210.3280  150.7130 S   0  0  0  0  0  0  0  0  0  0  0  0
  161.6900  212.4760  149.0600 C   0  0  1  0  0  3  0  0  0  0  0  0
  160.8590  211.1710  151.6150 C   0  0  0  0  0  0  0  0  0  0  0  0
  158.7440  212.9590  157.2610 O   0  0  0  0  0  1  0  0  0  0  0  0
  159.4950  211.8940  153.0940 C   0  0  0  0  0  0  0  0  0  0  0  0
  160.4510  212.7960  149.7710 N   0  0  0  0  0  2  0  0  0  0  0  0
  161.9760  210.9690  149.0480 C   0  0  0  0  0  2  0  0  0  0  0  0
  159.9220  212.7960  156.5310 C   0  0  2  0  0  3  0  0  0  0  0  0
  160.6890  209.7610  153.6760 C   0  0  0  0  0  0  0  0  0  0  0  0
  157.7550  213.3710  153.6250 C   0  0  2  0  0  3  0  0  0  0  0  0
  161.6080  212.9920  147.6400 C   0  0  0  0  0  1  0  0  0  0  0  0
  159.7210  213.2750  155.0960 C   0  0  0  0  0  2  0  0  0  0  0  0
  160.3530  208.5170  153.1190 C   0  0  0  0  0  3  0  0  0  0  0  0
  161.5240  208.6000  155.6450 C   0  0  0  0  0  3  0  0  0  0  0  0
  161.1990  207.3710  155.0690 C   0  0  0  0  0  3  0  0  0  0  0  0
  160.3750  211.3480  156.6070 C   0  0  0  0  0  2  0  0  0  0  0  0
  159.2910  212.6490  152.0040 C   0  0  0  0  0  0  0  0  0  0  0  0
  158.7660  212.3990  154.2850 C   0  0  2  0  0  3  0  0  0  0  0  0
  160.1870  212.2350  151.0570 C   0  0  0  0  0  0  0  0  0  0  0  0
  157.2750  213.7490  151.0910 C   0  0  0  0  0  1  0  0  0  0  0  0
  160.4540  210.9520  152.8970 N   0  0  0  0  0  0  0  0  0  0  0  0
  1 21  1  0  0  0  0
  1  6  1  0  0  0  0
  4 22  1  0  0  0  0
  5 27  1  6  0  0  0
  5 17  1  0  0  0  0
  6 23  1  0  0  0  0
  7  8  2  0  0  0  0
  8  2  2  0  0  0  0
  8 10  1  0  0  0  0
  9 18  1  6  0  0  0
  9 13  1  0  0  0  0
 10 28  1  0  0  0  0
 12 25  1  0  0  0  0
 13 26  1  0  0  0  0
 14  9  1  0  0  0  0
 14  8  1  0  0  0  0
 15 23  1  0  0  0  0
 15 11  1  1  0  0  0
 16  1  2  0  0  0  0
 17  3  1  6  0  0  0
 17 25  1  0  0  0  0
 19 15  1  0  0  0  0
 20 16  1  0  0  0  0
 20  4  2  0  0  0  0
 22 21  2  0  0  0  0
 24  5  1  0  0  0  0
 24 12  2  0  0  0  0
 25 19  1  1  0  0  0
 26 10  2  0  0  0  0
 26 24  1  0  0  0  0
 28 12  1  0  0  0  0
 28 16  1  0  0  0  0
M  END
>  <MODEL>
1

>  <REMARK>
 VINA RESULT:      -4.0      0.000      0.000
  Name = 
  0 active torsions:
  status: ('A' for Active; 'I' for Inactive)
                            x       y       z     vdW  Elec       q    Type
                         _______ _______ _______ _____ _____    ______ ____

>  <TORSDO>
F 0

$$$$
=
 OpenBabel11122414033D

 28 32  0  0  1  0  0  0  0  0999 V2000
  161.1340  208.5540  155.1870 C   0  0  0  0  0  0  0  0  0  0  0  0
  157.4840  210.9000  155.6150 O   0  0  0  0  0  0  0  0  0  0  0  0
  163.0770  211.0790  150.2800 C   0  0  0  0  0  1  0  0  0  0  0  0
  162.2850  210.3210  157.0310 C   0  0  0  0  0  3  0  0  0  0  0  0
  160.5070  211.4180  150.3690 C   0  0  1  0  0  3  0  0  0  0  0  0
  160.6420  207.5680  154.1910 C   0  0  0  0  0  2  0  0  0  0  0  0
  159.2890  212.3860  156.4000 O   0  0  0  0  0  0  0  0  0  0  0  0
  158.4440  211.9880  155.2240 S   0  0  0  0  0  0  0  0  0  0  0  0
  157.0960  213.2310  153.1860 C   0  0  1  0  0  3  0  0  0  0  0  0
  159.4200  211.4800  153.8590 C   0  0  0  0  0  0  0  0  0  0  0  0
  162.6560  206.8230  151.1420 O   0  0  0  0  0  1  0  0  0  0  0  0
  160.7880  210.5180  152.5270 C   0  0  0  0  0  0  0  0  0  0  0  0
  158.2240  212.9950  152.2830 N   0  0  0  0  0  2  0  0  0  0  0  0
  157.5490  213.4220  154.6390 C   0  0  0  0  0  2  0  0  0  0  0  0
  161.4970  207.0700  151.8780 C   0  0  2  0  0  3  0  0  0  0  0  0
  161.0630  209.9470  154.9590 C   0  0  0  0  0  0  0  0  0  0  0  0
  161.7090  210.4120  150.3750 C   0  0  2  0  0  3  0  0  0  0  0  0
  156.3260  214.4510  152.7270 C   0  0  0  0  0  1  0  0  0  0  0  0
  160.8320  208.3550  151.3930 C   0  0  0  0  0  2  0  0  0  0  0  0
  161.6550  210.8150  155.8890 C   0  0  0  0  0  3  0  0  0  0  0  0
  161.7670  208.0680  156.3380 C   0  0  0  0  0  3  0  0  0  0  0  0
  162.3350  208.9470  157.2610 C   0  0  0  0  0  3  0  0  0  0  0  0
  161.8300  207.1070  153.3600 C   0  0  0  0  0  2  0  0  0  0  0  0
  160.1450  211.4380  151.7940 C   0  0  0  0  0  0  0  0  0  0  0  0
  161.6350  209.6170  151.7040 C   0  0  2  0  0  3  0  0  0  0  0  0
  159.2290  212.0370  152.6140 C   0  0  0  0  0  0  0  0  0  0  0  0
  160.8420  212.8170  149.8650 C   0  0  0  0  0  1  0  0  0  0  0  0
  160.3800  210.5140  153.8230 N   0  0  0  0  0  0  0  0  0  0  0  0
  1 21  1  0  0  0  0
  4 22  1  0  0  0  0
  5 27  1  1  0  0  0
  5 17  1  0  0  0  0
  5 24  1  0  0  0  0
  6  1  1  0  0  0  0
  8  2  2  0  0  0  0
  8  7  2  0  0  0  0
  9 18  1  6  0  0  0
  9 14  1  0  0  0  0
 10  8  1  0  0  0  0
 12 28  1  0  0  0  0
 13 26  1  0  0  0  0
 13  9  1  0  0  0  0
 14  8  1  0  0  0  0
 15 11  1  6  0  0  0
 15 23  1  0  0  0  0
 16  1  2  0  0  0  0
 16 20  1  0  0  0  0
 17  3  1  1  0  0  0
 17 25  1  0  0  0  0
 19 15  1  0  0  0  0
 20  4  2  0  0  0  0
 21 22  2  0  0  0  0
 23  6  1  0  0  0  0
 24 12  2  0  0  0  0
 24 26  1  0  0  0  0
 25 19  1  6  0  0  0
 25 12  1  0  0  0  0
 26 10  2  0  0  0  0
 28 10  1  0  0  0  0
 28 16  1  0  0  0  0
M  END
>  <MODEL>
2

>  <REMARK>
 VINA RESULT:      -3.2      2.006      5.176
  Name = 
  0 active torsions:
  status: ('A' for Active; 'I' for Inactive)
                            x       y       z     vdW  Elec       q    Type
                         _______ _______ _______ _____ _____    ______ ____

>  <TORSDO>
F 0

$$$$
=
 OpenBabel11122414033D

 28 32  0  0  1  0  0  0  0  0999 V2000
  159.4110  213.4830  141.0110 C   0  0  0  0  0  0  0  0  0  0  0  0
  162.6270  211.2260  139.1230 O   0  0  0  0  0  0  0  0  0  0  0  0
  155.0290  209.8770  139.5900 C   0  0  0  0  0  1  0  0  0  0  0  0
  160.1820  212.2530  143.4070 C   0  0  0  0  0  3  0  0  0  0  0  0
  156.9350  209.5070  137.8690 C   0  0  1  0  0  3  0  0  0  0  0  0
  158.8990  214.1810  139.8040 C   0  0  0  0  0  2  0  0  0  0  0  0
  162.1570  210.0240  141.2230 O   0  0  0  0  0  0  0  0  0  0  0  0
  161.8590  210.0990  139.7530 S   0  0  0  0  0  0  0  0  0  0  0  0
  161.5720  208.3600  137.6540 C   0  0  1  0  0  3  0  0  0  0  0  0
  160.1440  210.2790  139.4420 C   0  0  0  0  0  0  0  0  0  0  0  0
  155.2440  214.2020  139.0640 O   0  0  0  0  0  1  0  0  0  0  0  0
  158.1050  210.9170  139.3490 C   0  0  0  0  0  0  0  0  0  0  0  0
  160.1160  208.3940  137.8130 N   0  0  0  0  0  2  0  0  0  0  0  0
  162.3030  208.5430  138.9900 C   0  0  0  0  0  2  0  0  0  0  0  0
  156.6050  214.1160  138.7720 C   0  0  2  0  0  3  0  0  0  0  0  0
  159.5230  212.0760  141.0700 C   0  0  0  0  0  0  0  0  0  0  0  0
  155.9410  210.5130  138.5460 C   0  0  2  0  0  3  0  0  0  0  0  0
  161.9810  207.0470  137.0240 C   0  0  0  0  0  1  0  0  0  0  0  0
  156.9350  212.7350  138.2120 C   0  0  0  0  0  2  0  0  0  0  0  0
  159.9010  211.4780  142.2820 C   0  0  0  0  0  3  0  0  0  0  0  0
  159.6970  214.2520  142.1460 C   0  0  0  0  0  3  0  0  0  0  0  0
  160.0880  213.6420  143.3380 C   0  0  0  0  0  3  0  0  0  0  0  0
  157.4160  214.4530  140.0120 C   0  0  0  0  0  2  0  0  0  0  0  0
  158.1870  209.8290  138.5690 C   0  0  0  0  0  0  0  0  0  0  0  0
  156.7960  211.6080  139.2340 C   0  0  2  0  0  3  0  0  0  0  0  0
  159.4950  209.4290  138.5760 C   0  0  0  0  0  0  0  0  0  0  0  0
  156.5730  208.0360  138.0350 C   0  0  0  0  0  1  0  0  0  0  0  0
  159.2960  211.2300  139.9240 N   0  0  0  0  0  0  0  0  0  0  0  0
  1 16  2  0  0  0  0
  1 21  1  0  0  0  0
  2  8  2  0  0  0  0
  5 27  1  1  0  0  0
  5 17  1  0  0  0  0
  5 24  1  0  0  0  0
  6 23  1  0  0  0  0
  6  1  1  0  0  0  0
  8  7  2  0  0  0  0
  9 18  1  1  0  0  0
  9 13  1  0  0  0  0
  9 14  1  0  0  0  0
 10  8  1  0  0  0  0
 10 28  1  0  0  0  0
 12 28  1  0  0  0  0
 13 26  1  0  0  0  0
 14  8  1  0  0  0  0
 15 11  1  1  0  0  0
 15 23  1  0  0  0  0
 16 20  1  0  0  0  0
 17 25  1  0  0  0  0
 17  3  1  1  0  0  0
 19 15  1  0  0  0  0
 20  4  2  0  0  0  0
 21 22  2  0  0  0  0
 22  4  1  0  0  0  0
 24 26  1  0  0  0  0
 24 12  2  0  0  0  0
 25 19  1  6  0  0  0
 25 12  1  0  0  0  0
 26 10  2  0  0  0  0
 28 16  1  0  0  0  0
M  END
>  <MODEL>
3

>  <REMARK>
 VINA RESULT:      -2.5     10.706     13.958
  Name = 
  0 active torsions:
  status: ('A' for Active; 'I' for Inactive)
                            x       y       z     vdW  Elec       q    Type
                         _______ _______ _______ _____ _____    ______ ____

>  <TORSDO>
F 0

$$$$
=
 OpenBabel11122414033D

 28 32  0  0  1  0  0  0  0  0999 V2000
  161.7860  211.9650  139.5430 C   0  0  0  0  0  0  0  0  0  0  0  0
  158.1960  213.3810  137.5160 O   0  0  0  0  0  0  0  0  0  0  0  0
  159.7770  212.3990  145.0200 C   0  0  0  0  0  1  0  0  0  0  0  0
  160.8750  209.3750  138.9850 C   0  0  0  0  0  3  0  0  0  0  0  0
  158.4090  214.0440  143.5530 C   0  0  1  0  0  3  0  0  0  0  0  0
  162.3610  213.2840  139.9130 C   0  0  0  0  0  2  0  0  0  0  0  0
  157.6940  211.0490  138.1390 O   0  0  0  0  0  0  0  0  0  0  0  0
  157.5710  212.4880  138.5500 S   0  0  0  0  0  0  0  0  0  0  0  0
  155.6620  214.1260  139.6400 C   0  0  1  0  0  3  0  0  0  0  0  0
  158.2850  212.7820  140.1230 C   0  0  0  0  0  0  0  0  0  0  0  0
  163.5360  213.9040  143.3970 O   0  0  0  0  0  1  0  0  0  0  0  0
  159.5760  212.9600  141.8180 C   0  0  0  0  0  0  0  0  0  0  0  0
  156.2460  213.9370  140.9700 N   0  0  0  0  0  2  0  0  0  0  0  0
  155.8390  212.8890  138.7500 C   0  0  0  0  0  2  0  0  0  0  0  0
  162.9110  214.2070  142.1870 C   0  0  2  0  0  3  0  0  0  0  0  0
  160.4750  211.5900  139.9130 C   0  0  0  0  0  0  0  0  0  0  0  0
  159.8180  213.5860  144.0640 C   0  0  2  0  0  3  0  0  0  0  0  0
  154.1900  214.4520  139.7750 C   0  0  0  0  0  1  0  0  0  0  0  0
  161.4210  214.4470  142.4120 C   0  0  0  0  0  2  0  0  0  0  0  0
  160.0410  210.2850  139.6340 C   0  0  0  0  0  3  0  0  0  0  0  0
  162.6160  211.0440  138.8900 C   0  0  0  0  0  3  0  0  0  0  0  0
  162.1610  209.7560  138.6060 C   0  0  0  0  0  3  0  0  0  0  0  0
  163.1800  213.1010  141.1810 C   0  0  0  0  0  2  0  0  0  0  0  0
  158.3970  213.4730  142.1980 C   0  0  0  0  0  0  0  0  0  0  0  0
  160.6510  213.1910  142.8170 C   0  0  2  0  0  3  0  0  0  0  0  0
  157.5660  213.4130  141.1140 C   0  0  0  0  0  0  0  0  0  0  0  0
  157.2310  213.5370  144.3760 C   0  0  0  0  0  1  0  0  0  0  0  0
  159.5530  212.5050  140.5380 N   0  0  0  0  0  0  0  0  0  0  0  0
  1  6  1  0  0  0  0
  1 16  1  0  0  0  0
  2  8  2  0  0  0  0
  4 20  1  0  0  0  0
  5 17  1  0  0  0  0
  5 27  1  1  0  0  0
  6 23  1  0  0  0  0
  7  8  2  0  0  0  0
  8 14  1  0  0  0  0
  8 10  1  0  0  0  0
  9 18  1  1  0  0  0
  9 13  1  0  0  0  0
 10 28  1  0  0  0  0
 10 26  2  0  0  0  0
 12 24  2  0  0  0  0
 12 25  1  0  0  0  0
 13 26  1  0  0  0  0
 14  9  1  0  0  0  0
 15 19  1  0  0  0  0
 15 11  1  1  0  0  0
 16 28  1  0  0  0  0
 17  3  1  1  0  0  0
 20 16  2  0  0  0  0
 21  1  2  0  0  0  0
 22 21  1  0  0  0  0
 22  4  2  0  0  0  0
 23 15  1  0  0  0  0
 24  5  1  0  0  0  0
 25 19  1  6  0  0  0
 25 17  1  0  0  0  0
 26 24  1  0  0  0  0
 28 12  1  0  0  0  0
M  END
>  <MODEL>
4

>  <REMARK>
 VINA RESULT:      -2.3      9.470     12.881
  Name = 
  0 active torsions:
  status: ('A' for Active; 'I' for Inactive)
                            x       y       z     vdW  Elec       q    Type
                         _______ _______ _______ _____ _____    ______ ____

>  <TORSDO>
F 0

$$$$
=
 OpenBabel11122414033D

 28 32  0  0  1  0  0  0  0  0999 V2000
  161.5300  205.9600  152.2540 C   0  0  0  0  0  0  0  0  0  0  0  0
  163.6820  208.0780  149.1110 O   0  0  0  0  0  0  0  0  0  0  0  0
  158.1810  210.4220  154.0120 C   0  0  0  0  0  1  0  0  0  0  0  0
  159.8650  204.9830  150.2230 C   0  0  0  0  0  3  0  0  0  0  0  0
  160.2910  211.4250  152.8830 C   0  0  1  0  0  3  0  0  0  0  0  0
  162.3310  206.4250  153.4160 C   0  0  0  0  0  2  0  0  0  0  0  0
  161.4750  207.5700  148.1360 O   0  0  0  0  0  0  0  0  0  0  0  0
  162.2940  208.5970  148.8650 S   0  0  0  0  0  0  0  0  0  0  0  0
  162.7060  211.3050  148.7580 C   0  0  1  0  0  3  0  0  0  0  0  0
  161.5450  209.0780  150.3750 C   0  0  0  0  0  0  0  0  0  0  0  0
  160.6210  207.7540  156.4530 O   0  0  0  0  0  1  0  0  0  0  0  0
  160.6670  209.1680  152.3220 C   0  0  0  0  0  0  0  0  0  0  0  0
  161.7400  211.5040  149.8400 N   0  0  0  0  0  2  0  0  0  0  0  0
  162.3550  210.0930  147.8860 C   0  0  0  0  0  2  0  0  0  0  0  0
  161.5940  207.7030  155.4540 C   0  0  2  0  0  3  0  0  0  0  0  0
  160.9200  206.8630  151.3560 C   0  0  0  0  0  0  0  0  0  0  0  0
  159.7050  210.4940  153.9980 C   0  0  2  0  0  3  0  0  0  0  0  0
  162.7700  212.5500  147.9000 C   0  0  0  0  0  1  0  0  0  0  0  0
  161.5330  208.9650  154.5970 C   0  0  0  0  0  2  0  0  0  0  0  0
  160.0810  206.3550  150.3520 C   0  0  0  0  0  3  0  0  0  0  0  0
  161.3090  204.5830  152.1150 C   0  0  0  0  0  3  0  0  0  0  0  0
  160.4850  204.0950  151.1010 C   0  0  0  0  0  3  0  0  0  0  0  0
  161.4240  206.4330  154.6380 C   0  0  0  0  0  2  0  0  0  0  0  0
  160.7330  210.4360  151.8890 C   0  0  0  0  0  0  0  0  0  0  0  0
  160.2660  209.0700  153.7490 C   0  0  2  0  0  3  0  0  0  0  0  0
  161.3350  210.4090  150.6610 C   0  0  0  0  0  0  0  0  0  0  0  0
  159.2950  212.4080  152.2770 C   0  0  0  0  0  1  0  0  0  0  0  0
  161.1490  208.2850  151.4100 N   0  0  0  0  0  0  0  0  0  0  0  0
  1  6  1  0  0  0  0
  4 20  2  0  0  0  0
  4 22  1  0  0  0  0
  5 27  1  6  0  0  0
  5 17  1  0  0  0  0
  6 23  1  0  0  0  0
  7  8  2  0  0  0  0
  8  2  2  0  0  0  0
  8 10  1  0  0  0  0
  9 18  1  6  0  0  0
  9 13  1  0  0  0  0
 10 26  2  0  0  0  0
 10 28  1  0  0  0  0
 12 25  1  0  0  0  0
 13 26  1  0  0  0  0
 14  9  1  0  0  0  0
 14  8  1  0  0  0  0
 15 11  1  1  0  0  0
 16 28  1  0  0  0  0
 16  1  2  0  0  0  0
 17  3  1  6  0  0  0
 19 15  1  0  0  0  0
 20 16  1  0  0  0  0
 21  1  1  0  0  0  0
 22 21  2  0  0  0  0
 23 15  1  0  0  0  0
 24 12  2  0  0  0  0
 24  5  1  0  0  0  0
 25 17  1  0  0  0  0
 25 19  1  1  0  0  0
 26 24  1  0  0  0  0
 28 12  1  0  0  0  0
M  END
>  <MODEL>
5

>  <REMARK>
 VINA RESULT:      -2.0      2.424      3.718
  Name = 
  0 active torsions:
  status: ('A' for Active; 'I' for Inactive)
                            x       y       z     vdW  Elec       q    Type
                         _______ _______ _______ _____ _____    ______ ____

>  <TORSDO>
F 0

$$$$
=
 OpenBabel11122414033D

 28 32  0  0  1  0  0  0  0  0999 V2000
  158.2780  213.7020  142.4380 C   0  0  0  0  0  0  0  0  0  0  0  0
  162.1360  214.4430  140.5490 O   0  0  0  0  0  0  0  0  0  0  0  0
  156.5850  209.2940  138.9840 C   0  0  0  0  0  1  0  0  0  0  0  0
  159.6870  212.2030  144.3400 C   0  0  0  0  0  3  0  0  0  0  0  0
  158.3130  210.7050  137.6610 C   0  0  1  0  0  3  0  0  0  0  0  0
  157.4220  214.4520  141.4830 C   0  0  0  0  0  2  0  0  0  0  0  0
  162.4880  212.4410  141.9440 O   0  0  0  0  0  0  0  0  0  0  0  0
  162.1460  212.9410  140.5700 S   0  0  0  0  0  0  0  0  0  0  0  0
  162.7960  212.3370  137.9760 C   0  0  1  0  0  3  0  0  0  0  0  0
  160.6090  212.3120  140.0100 C   0  0  0  0  0  0  0  0  0  0  0  0
  154.3460  212.8710  140.0880 O   0  0  0  0  0  1  0  0  0  0  0  0
  158.5570  211.7710  139.7470 C   0  0  0  0  0  0  0  0  0  0  0  0
  161.5730  211.5430  137.8440 N   0  0  0  0  0  2  0  0  0  0  0  0
  163.3500  212.3120  139.4060 C   0  0  0  0  0  2  0  0  0  0  0  0
  155.5150  213.6310  140.0620 C   0  0  2  0  0  3  0  0  0  0  0  0
  159.1540  212.6780  142.0120 C   0  0  0  0  0  0  0  0  0  0  0  0
  156.9540  210.6700  138.4390 C   0  0  2  0  0  3  0  0  0  0  0  0
  163.8430  211.8190  137.0140 C   0  0  0  0  0  1  0  0  0  0  0  0
  156.5350  212.9920  139.1240 C   0  0  0  0  0  2  0  0  0  0  0  0
  159.8430  211.9320  142.9810 C   0  0  0  0  0  3  0  0  0  0  0  0
  158.1300  213.9680  143.8050 C   0  0  0  0  0  3  0  0  0  0  0  0
  158.8360  213.2270  144.7540 C   0  0  0  0  0  3  0  0  0  0  0  0
  156.0460  213.8020  141.4750 C   0  0  0  0  0  2  0  0  0  0  0  0
  159.2010  211.3130  138.6630 C   0  0  0  0  0  0  0  0  0  0  0  0
  157.0810  211.6570  139.6280 C   0  0  2  0  0  3  0  0  0  0  0  0
  160.5100  211.6880  138.7860 C   0  0  0  0  0  0  0  0  0  0  0  0
  158.8340  209.3430  137.2160 C   0  0  0  0  0  1  0  0  0  0  0  0
  159.3930  212.3900  140.6200 N   0  0  0  0  0  0  0  0  0  0  0  0
  1 21  1  0  0  0  0
  2  8  2  0  0  0  0
  4 22  1  0  0  0  0
  5 27  1  1  0  0  0
  5 17  1  0  0  0  0
  5 24  1  0  0  0  0
  6  1  1  0  0  0  0
  8  7  2  0  0  0  0
  9 18  1  6  0  0  0
  9 14  1  0  0  0  0
 10  8  1  0  0  0  0
 10 28  1  0  0  0  0
 12 28  1  0  0  0  0
 13  9  1  0  0  0  0
 13 26  1  0  0  0  0
 14  8  1  0  0  0  0
 15 11  1  1  0  0  0
 15 23  1  0  0  0  0
 16  1  2  0  0  0  0
 16 20  1  0  0  0  0
 17  3  1  1  0  0  0
 17 25  1  0  0  0  0
 19 15  1  0  0  0  0
 20  4  2  0  0  0  0
 21 22  2  0  0  0  0
 23  6  1  0  0  0  0
 24 26  1  0  0  0  0
 24 12  2  0  0  0  0
 25 19  1  6  0  0  0
 25 12  1  0  0  0  0
 26 10  2  0  0  0  0
 28 16  1  0  0  0  0
M  END
>  <MODEL>
6

>  <REMARK>
 VINA RESULT:      -1.7      9.743     13.324
  Name = 
  0 active torsions:
  status: ('A' for Active; 'I' for Inactive)
                            x       y       z     vdW  Elec       q    Type
                         _______ _______ _______ _____ _____    ______ ____

>  <TORSDO>
F 0

$$$$
=
 OpenBabel11122414033D

 28 32  0  0  1  0  0  0  0  0999 V2000
  161.7940  207.9890  153.0280 C   0  0  0  0  0  0  0  0  0  0  0  0
  163.3990  210.5830  149.9140 O   0  0  0  0  0  0  0  0  0  0  0  0
  157.0320  211.1540  154.2630 C   0  0  0  0  0  1  0  0  0  0  0  0
  160.7220  206.4420  150.9510 C   0  0  0  0  0  3  0  0  0  0  0  0
  158.7880  212.7560  153.2220 C   0  0  1  0  0  3  0  0  0  0  0  0
  162.2950  208.7350  154.2110 C   0  0  0  0  0  2  0  0  0  0  0  0
  161.5720  209.3380  148.8220 O   0  0  0  0  0  0  0  0  0  0  0  0
  161.9440  210.6030  149.5400 S   0  0  0  0  0  0  0  0  0  0  0  0
  161.4570  213.2900  149.2910 C   0  0  1  0  0  3  0  0  0  0  0  0
  160.9520  210.8660  150.9600 C   0  0  0  0  0  0  0  0  0  0  0  0
  159.9900  209.5350  157.0310 O   0  0  0  0  0  1  0  0  0  0  0  0
  159.9280  210.7320  152.8330 C   0  0  0  0  0  0  0  0  0  0  0  0
  160.3890  213.1980  150.2880 N   0  0  0  0  0  2  0  0  0  0  0  0
  161.5980  211.9990  148.4750 C   0  0  0  0  0  2  0  0  0  0  0  0
  161.0080  209.7720  156.1070 C   0  0  2  0  0  3  0  0  0  0  0  0
  161.0030  208.6060  152.0340 C   0  0  0  0  0  0  0  0  0  0  0  0
  158.4440  211.7250  154.3500 C   0  0  2  0  0  3  0  0  0  0  0  0
  161.1840  214.4530  148.3620 C   0  0  0  0  0  1  0  0  0  0  0  0
  160.6130  210.9100  155.1710 C   0  0  0  0  0  2  0  0  0  0  0  0
  160.4660  207.8120  151.0080 C   0  0  0  0  0  3  0  0  0  0  0  0
  162.0480  206.6120  152.9610 C   0  0  0  0  0  3  0  0  0  0  0  0
  161.5190  205.8420  151.9240 C   0  0  0  0  0  3  0  0  0  0  0  0
  161.3330  208.4880  155.3630 C   0  0  0  0  0  2  0  0  0  0  0  0
  159.6130  211.9330  152.3250 C   0  0  0  0  0  0  0  0  0  0  0  0
  159.4590  210.5590  154.2310 C   0  0  2  0  0  3  0  0  0  0  0  0
  160.2950  212.0610  151.1470 C   0  0  0  0  0  0  0  0  0  0  0  0
  157.5820  213.3310  152.4880 C   0  0  0  0  0  1  0  0  0  0  0  0
  160.7490  210.0250  152.0130 N   0  0  0  0  0  0  0  0  0  0  0  0
  1  6  1  0  0  0  0
  4 20  2  0  0  0  0
  4 22  1  0  0  0  0
  5 27  1  6  0  0  0
  5 17  1  0  0  0  0
  6 23  1  0  0  0  0
  7  8  2  0  0  0  0
  8  2  2  0  0  0  0
  8 10  1  0  0  0  0
  9 18  1  6  0  0  0
  9 13  1  0  0  0  0
 10 26  2  0  0  0  0
 10 28  1  0  0  0  0
 12 25  1  0  0  0  0
 13 26  1  0  0  0  0
 14  9  1  0  0  0  0
 14  8  1  0  0  0  0
 15 11  1  1  0  0  0
 16  1  2  0  0  0  0
 17  3  1  6  0  0  0
 19 15  1  0  0  0  0
 20 16  1  0  0  0  0
 21  1  1  0  0  0  0
 22 21  2  0  0  0  0
 23 15  1  0  0  0  0
 24 12  2  0  0  0  0
 24  5  1  0  0  0  0
 25 17  1  0  0  0  0
 25 19  1  1  0  0  0
 26 24  1  0  0  0  0
 28 16  1  0  0  0  0
 28 12  1  0  0  0  0
M  END
>  <MODEL>
7

>  <REMARK>
 VINA RESULT:      -1.4      1.593      2.161
  Name = 
  0 active torsions:
  status: ('A' for Active; 'I' for Inactive)
                            x       y       z     vdW  Elec       q    Type
                         _______ _______ _______ _____ _____    ______ ____

>  <TORSDO>
F 0

$$$$
