=
 OpenBabel11122413103D

 31 35  0  0  1  0  0  0  0  0999 V2000
  160.9020  206.4110  146.6620 C   0  0  0  0  0  0  0  0  0  0  0  0
  160.2830  205.1690  150.2030 C   0  0  2  0  0  3  0  0  0  0  0  0
  160.7150  203.7150  150.2230 C   0  0  0  0  0  0  0  0  0  0  0  0
  161.2220  201.6220  149.0950 C   0  0  0  0  0  0  0  0  0  0  0  0
  160.8750  205.9420  149.0450 C   0  0  0  0  0  0  0  0  0  0  0  0
  161.9910  207.2660  146.8380 C   0  0  0  0  0  3  0  0  0  0  0  0
  160.8350  202.9650  149.0440 C   0  0  0  0  0  3  0  0  0  0  0  0
  162.0780  206.1810  151.6710 C   0  0  2  0  0  3  0  0  0  0  0  0
  160.3730  206.2120  145.3940 O   0  0  0  0  0  1  0  0  0  0  0  0
  160.7780  203.8090  152.6410 O   0  0  0  0  0  0  0  0  0  0  0  0
  161.3860  200.7040  147.6150 Cl  0  0  0  0  0  0  0  0  0  0  0  0
  162.4920  207.1710  150.5850 C   0  0  0  0  0  2  0  0  0  0  0  0
  160.5810  205.8630  151.5490 C   0  0  2  0  0  3  0  0  0  0  0  0
  160.3450  205.7540  147.7610 C   0  0  0  0  0  3  0  0  0  0  0  0
  161.4790  201.0150  150.3270 C   0  0  0  0  0  3  0  0  0  0  0  0
  161.9750  206.8110  149.2210 C   0  0  0  0  0  0  0  0  0  0  0  0
  162.5190  207.4720  148.1150 C   0  0  0  0  0  3  0  0  0  0  0  0
  160.1150  205.0270  152.6590 N   0  0  0  0  0  2  0  0  0  0  0  0
  160.9370  203.0840  151.4590 C   0  0  0  0  0  0  0  0  0  0  0  0
  161.3350  201.7460  151.5090 C   0  0  0  0  0  3  0  0  0  0  0  0
  162.3700  206.7340  152.9250 O   0  0  0  0  0  0  0  0  0  0  0  0
  160.5020  207.3660  154.0800 O   0  0  0  0  0  1  0  0  0  0  0  0
  161.4330  207.7600  153.1130 C   0  0  1  0  0  3  0  0  0  0  0  0
  159.7870  210.6920  153.4030 C   0  0  0  0  0  0  0  0  0  0  0  0
  161.5040  209.5560  154.8790 C   0  0  0  0  0  2  0  0  0  0  0  0
  162.6000  209.8600  151.3190 O   0  0  0  0  0  1  0  0  0  0  0  0
  158.4070  211.2090  153.2180 C   0  0  0  0  0  1  0  0  0  0  0  0
  160.1500  210.0620  154.6400 N   0  0  0  0  0  2  0  0  0  0  0  0
  162.0460  210.2060  152.5510 C   0  0  2  0  0  3  0  0  0  0  0  0
  162.1270  209.0540  153.5710 C   0  0  2  0  0  3  0  0  0  0  0  0
  160.6490  210.7290  152.3850 C   0  0  0  0  0  3  0  0  0  0  0  0
  1  6  2  0  0  0  0
  1 14  1  0  0  0  0
  2  5  1  6  0  0  0
  2  3  1  0  0  0  0
  2 13  1  0  0  0  0
  3 19  1  0  0  0  0
  4 15  2  0  0  0  0
  5 16  1  0  0  0  0
  6 17  1  0  0  0  0
  7  4  1  0  0  0  0
  7  3  2  0  0  0  0
  8 21  1  1  0  0  0
  9  1  1  0  0  0  0
 10 18  1  0  0  0  0
 11  4  1  0  0  0  0
 12  8  1  0  0  0  0
 13  8  1  0  0  0  0
 13 18  1  1  0  0  0
 14  5  2  0  0  0  0
 15 20  1  0  0  0  0
 16 12  1  0  0  0  0
 17 16  2  0  0  0  0
 19 20  2  0  0  0  0
 19 10  1  0  0  0  0
 21 23  1  0  0  0  0
 23 22  1  1  0  0  0
 24 28  1  0  0  0  0
 27 24  1  0  0  0  0
 28 25  1  0  0  0  0
 29 26  1  6  0  0  0
 29 30  1  0  0  0  0
 30 23  1  6  0  0  0
 30 25  1  0  0  0  0
 31 29  1  0  0  0  0
 31 24  2  0  0  0  0
M  END
>  <MODEL>
1

>  <REMARK>
 VINA RESULT:      -7.3      0.000      0.000
  Name = 
  3 active torsions:
  status: ('A' for Active; 'I' for Inactive)
    1  A    between atoms: C_5  and  O_16
    2  A    between atoms: C_5  and  C_30
    3  A    between atoms: C_10  and  O_16
                            x       y       z     vdW  Elec       q    Type
                         _______ _______ _______ _____ _____    ______ ____

>  <TORSDO>
F 3

$$$$
=
 OpenBabel11122413103D

 31 35  0  0  1  0  0  0  0  0999 V2000
  160.6260  207.6260  156.3750 C   0  0  0  0  0  0  0  0  0  0  0  0
  161.9550  208.9670  153.0740 C   0  0  2  0  0  3  0  0  0  0  0  0
  161.5520  207.9590  152.0140 C   0  0  0  0  0  0  0  0  0  0  0  0
  160.8550  205.7280  151.3450 C   0  0  0  0  0  0  0  0  0  0  0  0
  161.1340  208.8490  154.3390 C   0  0  0  0  0  0  0  0  0  0  0  0
  159.5840  208.5120  156.6530 C   0  0  0  0  0  3  0  0  0  0  0  0
  161.2070  206.6390  152.3450 C   0  0  0  0  0  3  0  0  0  0  0  0
  160.4760  210.9120  152.4120 C   0  0  2  0  0  3  0  0  0  0  0  0
  160.8930  206.5750  157.2420 O   0  0  0  0  0  1  0  0  0  0  0  0
  161.9730  209.6330  150.3180 O   0  0  0  0  0  0  0  0  0  0  0  0
  160.4100  204.0910  151.7740 Cl  0  0  0  0  0  0  0  0  0  0  0  0
  159.8430  210.9800  153.7990 C   0  0  0  0  0  2  0  0  0  0  0  0
  161.9220  210.4080  152.5200 C   0  0  2  0  0  3  0  0  0  0  0  0
  161.3990  207.7960  155.2250 C   0  0  0  0  0  3  0  0  0  0  0  0
  160.8560  206.1250  150.0050 C   0  0  0  0  0  3  0  0  0  0  0  0
  160.0810  209.7470  154.6250 C   0  0  0  0  0  0  0  0  0  0  0  0
  159.3190  209.5750  155.7850 C   0  0  0  0  0  3  0  0  0  0  0  0
  162.6110  210.4630  151.2260 N   0  0  0  0  0  2  0  0  0  0  0  0
  161.5890  208.3360  150.6610 C   0  0  0  0  0  0  0  0  0  0  0  0
  161.2240  207.4280  149.6630 C   0  0  0  0  0  3  0  0  0  0  0  0
  160.4350  212.1860  151.8310 O   0  0  0  0  0  0  0  0  0  0  0  0
  158.2010  211.8530  152.1780 O   0  0  0  0  0  1  0  0  0  0  0  0
  159.1590  212.3010  151.2620 C   0  0  1  0  0  3  0  0  0  0  0  0
  157.8100  213.1660  148.2920 C   0  0  0  0  0  0  0  0  0  0  0  0
  157.3560  213.9530  150.6560 C   0  0  0  0  0  2  0  0  0  0  0  0
  160.9700  214.1270  149.7200 O   0  0  0  0  0  1  0  0  0  0  0  0
  157.3300  212.4940  147.0570 C   0  0  0  0  0  1  0  0  0  0  0  0
  156.9360  213.2810  149.4240 N   0  0  0  0  0  2  0  0  0  0  0  0
  159.5840  214.2460  149.6150 C   0  0  2  0  0  3  0  0  0  0  0  0
  158.8600  213.7620  150.8860 C   0  0  2  0  0  3  0  0  0  0  0  0
  159.0790  213.5700  148.3740 C   0  0  0  0  0  3  0  0  0  0  0  0
  1  6  1  0  0  0  0
  1  9  1  0  0  0  0
  2  3  1  6  0  0  0
  2  5  1  0  0  0  0
  3  7  1  0  0  0  0
  4 11  1  0  0  0  0
  4  7  2  0  0  0  0
  5 16  2  0  0  0  0
  5 14  1  0  0  0  0
  8 21  1  1  0  0  0
  8 13  1  0  0  0  0
  8 12  1  0  0  0  0
 10 19  1  0  0  0  0
 10 18  1  0  0  0  0
 12 16  1  0  0  0  0
 13 18  1  6  0  0  0
 13  2  1  0  0  0  0
 14  1  2  0  0  0  0
 15  4  1  0  0  0  0
 16 17  1  0  0  0  0
 17  6  2  0  0  0  0
 19  3  2  0  0  0  0
 20 15  2  0  0  0  0
 20 19  1  0  0  0  0
 23 21  1  0  0  0  0
 23 22  1  1  0  0  0
 24 31  2  0  0  0  0
 24 28  1  0  0  0  0
 25 30  1  0  0  0  0
 27 24  1  0  0  0  0
 28 25  1  0  0  0  0
 29 26  1  1  0  0  0
 29 30  1  0  0  0  0
 30 23  1  6  0  0  0
 31 29  1  0  0  0  0
M  END
>  <MODEL>
2

>  <REMARK>
 VINA RESULT:      -7.2      3.359      6.525
  Name = 
  3 active torsions:
  status: ('A' for Active; 'I' for Inactive)
    1  A    between atoms: C_5  and  O_16
    2  A    between atoms: C_5  and  C_30
    3  A    between atoms: C_10  and  O_16
                            x       y       z     vdW  Elec       q    Type
                         _______ _______ _______ _____ _____    ______ ____

>  <TORSDO>
F 3

$$$$
=
 OpenBabel11122413103D

 31 35  0  0  1  0  0  0  0  0999 V2000
  161.7410  207.6120  151.7560 C   0  0  0  0  0  0  0  0  0  0  0  0
  159.5770  210.4070  153.1600 C   0  0  2  0  0  3  0  0  0  0  0  0
  160.1890  210.7850  154.4950 C   0  0  0  0  0  0  0  0  0  0  0  0
  161.5880  210.2890  156.4210 C   0  0  0  0  0  0  0  0  0  0  0  0
  160.5410  209.6610  152.2630 C   0  0  0  0  0  0  0  0  0  0  0  0
  162.3940  208.2490  150.7000 C   0  0  0  0  0  3  0  0  0  0  0  0
  161.0510  209.9180  155.1840 C   0  0  0  0  0  3  0  0  0  0  0  0
  160.1030  212.4940  151.8290 C   0  0  2  0  0  3  0  0  0  0  0  0
  162.0110  206.2790  152.0360 O   0  0  0  0  0  1  0  0  0  0  0  0
  158.9430  212.8590  154.4330 O   0  0  0  0  0  0  0  0  0  0  0  0
  162.6760  209.2050  157.2600 Cl  0  0  0  0  0  0  0  0  0  0  0  0
  160.8400  211.6960  150.7560 C   0  0  0  0  0  2  0  0  0  0  0  0
  158.9850  211.6390  152.4430 C   0  0  2  0  0  3  0  0  0  0  0  0
  160.8170  208.3140  152.5310 C   0  0  0  0  0  3  0  0  0  0  0  0
  161.2590  211.5250  156.9840 C   0  0  0  0  0  3  0  0  0  0  0  0
  161.2010  210.3040  151.1900 C   0  0  0  0  0  0  0  0  0  0  0  0
  162.1170  209.5880  150.4130 C   0  0  0  0  0  3  0  0  0  0  0  0
  158.1630  212.4150  153.3770 N   0  0  0  0  0  2  0  0  0  0  0  0
  159.8330  212.0090  155.0890 C   0  0  0  0  0  0  0  0  0  0  0  0
  160.3810  212.3840  156.3190 C   0  0  0  0  0  3  0  0  0  0  0  0
  159.5790  213.6570  151.2500 O   0  0  0  0  0  0  0  0  0  0  0  0
  157.8180  212.9140  149.9960 O   0  0  0  0  0  1  0  0  0  0  0  0
  159.1670  213.2870  149.9620 C   0  0  1  0  0  3  0  0  0  0  0  0
  159.6880  212.8030  146.6630 C   0  0  0  0  0  0  0  0  0  0  0  0
  158.2280  214.4410  147.9290 C   0  0  0  0  0  2  0  0  0  0  0  0
  161.7840  214.4530  149.0780 O   0  0  0  0  0  1  0  0  0  0  0  0
  159.8030  211.6640  145.7160 C   0  0  0  0  0  1  0  0  0  0  0  0
  158.3920  213.3070  147.0170 N   0  0  0  0  0  2  0  0  0  0  0  0
  160.6880  214.4320  148.2160 C   0  0  2  0  0  3  0  0  0  0  0  0
  159.3480  214.4530  148.9760 C   0  0  2  0  0  3  0  0  0  0  0  0
  160.7830  213.2860  147.2520 C   0  0  0  0  0  3  0  0  0  0  0  0
  1  9  1  0  0  0  0
  1 14  1  0  0  0  0
  2  5  1  6  0  0  0
  2  3  1  0  0  0  0
  3 19  2  0  0  0  0
  3  7  1  0  0  0  0
  4 15  1  0  0  0  0
  4 11  1  0  0  0  0
  5 14  2  0  0  0  0
  6  1  2  0  0  0  0
  7  4  2  0  0  0  0
  8 21  1  6  0  0  0
  8 13  1  0  0  0  0
 10 19  1  0  0  0  0
 12 16  1  0  0  0  0
 12  8  1  0  0  0  0
 13  2  1  0  0  0  0
 13 18  1  1  0  0  0
 16  5  1  0  0  0  0
 17  6  1  0  0  0  0
 17 16  2  0  0  0  0
 18 10  1  0  0  0  0
 19 20  1  0  0  0  0
 20 15  2  0  0  0  0
 23 22  1  1  0  0  0
 23 21  1  0  0  0  0
 24 28  1  0  0  0  0
 24 31  2  0  0  0  0
 25 30  1  0  0  0  0
 27 24  1  0  0  0  0
 28 25  1  0  0  0  0
 29 30  1  0  0  0  0
 29 26  1  1  0  0  0
 30 23  1  1  0  0  0
 31 29  1  0  0  0  0
M  END
>  <MODEL>
3

>  <REMARK>
 VINA RESULT:      -6.7      4.482      7.774
  Name = 
  3 active torsions:
  status: ('A' for Active; 'I' for Inactive)
    1  A    between atoms: C_5  and  O_16
    2  A    between atoms: C_5  and  C_30
    3  A    between atoms: C_10  and  O_16
                            x       y       z     vdW  Elec       q    Type
                         _______ _______ _______ _____ _____    ______ ____

>  <TORSDO>
F 3

$$$$
=
 OpenBabel11122413103D

 31 35  0  0  1  0  0  0  0  0999 V2000
  161.1750  208.3700  137.9530 C   0  0  0  0  0  0  0  0  0  0  0  0
  159.6730  211.8330  138.4140 C   0  0  2  0  0  3  0  0  0  0  0  0
  158.2020  211.6190  138.7180 C   0  0  0  0  0  0  0  0  0  0  0  0
  156.1880  210.2580  138.6740 C   0  0  0  0  0  0  0  0  0  0  0  0
  160.5080  210.5960  138.6580 C   0  0  0  0  0  0  0  0  0  0  0  0
  161.9550  208.2340  139.1020 C   0  0  0  0  0  3  0  0  0  0  0  0
  157.5480  210.4200  138.3950 C   0  0  0  0  0  3  0  0  0  0  0  0
  160.4640  212.6940  140.6590 C   0  0  2  0  0  3  0  0  0  0  0  0
  161.1110  207.3340  137.0300 O   0  0  0  0  0  1  0  0  0  0  0  0
  158.0880  213.8840  139.5630 O   0  0  0  0  0  0  0  0  0  0  0  0
  155.3900  208.7510  138.2820 Cl  0  0  0  0  0  0  0  0  0  0  0  0
  161.5190  211.5970  140.7740 C   0  0  0  0  0  2  0  0  0  0  0  0
  160.2350  213.0480  139.1830 C   0  0  2  0  0  3  0  0  0  0  0  0
  160.4580  209.5470  137.7310 C   0  0  0  0  0  3  0  0  0  0  0  0
  155.4670  211.2980  139.2680 C   0  0  0  0  0  3  0  0  0  0  0  0
  161.3020  210.4570  139.8200 C   0  0  0  0  0  0  0  0  0  0  0  0
  162.0250  209.2780  140.0270 C   0  0  0  0  0  3  0  0  0  0  0  0
  159.3330  214.1950  139.0360 N   0  0  0  0  0  2  0  0  0  0  0  0
  157.4590  212.6730  139.2780 C   0  0  0  0  0  0  0  0  0  0  0  0
  156.1020  212.5050  139.5680 C   0  0  0  0  0  3  0  0  0  0  0  0
  160.8940  213.8160  141.3800 O   0  0  0  0  0  0  0  0  0  0  0  0
  158.9540  213.4450  142.5310 O   0  0  0  0  0  1  0  0  0  0  0  0
  160.3270  213.6860  142.6550 C   0  0  1  0  0  3  0  0  0  0  0  0
  160.4830  213.6130  146.0260 C   0  0  0  0  0  0  0  0  0  0  0  0
  159.9420  211.8280  144.3120 C   0  0  0  0  0  2  0  0  0  0  0  0
  163.1630  213.5940  143.6250 O   0  0  0  0  0  1  0  0  0  0  0  0
  160.0510  214.4530  147.1720 C   0  0  0  0  0  1  0  0  0  0  0  0
  159.5580  212.6930  145.4300 N   0  0  0  0  0  2  0  0  0  0  0  0
  162.1480  212.9530  144.3350 C   0  0  2  0  0  3  0  0  0  0  0  0
  160.9800  212.5260  143.4260 C   0  0  2  0  0  3  0  0  0  0  0  0
  161.6950  213.7890  145.4970 C   0  0  0  0  0  3  0  0  0  0  0  0
  1  6  1  0  0  0  0
  2  5  1  1  0  0  0
  2  3  1  0  0  0  0
  2 13  1  0  0  0  0
  3 19  1  0  0  0  0
  4 15  2  0  0  0  0
  5 16  2  0  0  0  0
  6 17  2  0  0  0  0
  7  4  1  0  0  0  0
  7  3  2  0  0  0  0
  8 12  1  0  0  0  0
  8 21  1  1  0  0  0
  9  1  1  0  0  0  0
 11  4  1  0  0  0  0
 13 18  1  1  0  0  0
 13  8  1  0  0  0  0
 14  1  2  0  0  0  0
 14  5  1  0  0  0  0
 15 20  1  0  0  0  0
 16 17  1  0  0  0  0
 16 12  1  0  0  0  0
 18 10  1  0  0  0  0
 19 10  1  0  0  0  0
 19 20  2  0  0  0  0
 21 23  1  0  0  0  0
 23 22  1  6  0  0  0
 24 27  1  0  0  0  0
 25 28  1  0  0  0  0
 28 24  1  0  0  0  0
 29 26  1  6  0  0  0
 29 31  1  0  0  0  0
 30 23  1  1  0  0  0
 30 25  1  0  0  0  0
 30 29  1  0  0  0  0
 31 24  2  0  0  0  0
M  END
>  <MODEL>
4

>  <REMARK>
 VINA RESULT:      -6.2      9.501     12.156
  Name = 
  3 active torsions:
  status: ('A' for Active; 'I' for Inactive)
    1  A    between atoms: C_5  and  O_16
    2  A    between atoms: C_5  and  C_30
    3  A    between atoms: C_10  and  O_16
                            x       y       z     vdW  Elec       q    Type
                         _______ _______ _______ _____ _____    ______ ____

>  <TORSDO>
F 3

$$$$
=
 OpenBabel11122413103D

 31 35  0  0  1  0  0  0  0  0999 V2000
  161.8730  206.4410  147.3150 C   0  0  0  0  0  0  0  0  0  0  0  0
  162.4890  208.9630  150.0940 C   0  0  2  0  0  3  0  0  0  0  0  0
  161.8880  210.2720  149.6180 C   0  0  0  0  0  0  0  0  0  0  0  0
  161.0900  211.7370  147.8500 C   0  0  0  0  0  0  0  0  0  0  0  0
  161.9450  207.7630  149.3510 C   0  0  0  0  0  0  0  0  0  0  0  0
  160.9020  205.6140  147.8800 C   0  0  0  0  0  3  0  0  0  0  0  0
  161.6300  210.5150  148.2610 C   0  0  0  0  0  3  0  0  0  0  0  0
  160.8890  208.4040  151.9730 C   0  0  2  0  0  3  0  0  0  0  0  0
  162.3210  206.2030  146.0220 O   0  0  0  0  0  1  0  0  0  0  0  0
  161.9390  211.0780  151.9000 O   0  0  0  0  0  0  0  0  0  0  0  0
  160.7560  212.0200  146.1560 Cl  0  0  0  0  0  0  0  0  0  0  0  0
  160.5510  207.0460  151.3620 C   0  0  0  0  0  2  0  0  0  0  0  0
  162.3310  208.7940  151.6200 C   0  0  2  0  0  3  0  0  0  0  0  0
  162.3940  207.5090  148.0480 C   0  0  0  0  0  3  0  0  0  0  0  0
  160.8140  212.7310  148.7930 C   0  0  0  0  0  3  0  0  0  0  0  0
  160.9640  206.9210  149.9220 C   0  0  0  0  0  0  0  0  0  0  0  0
  160.4560  205.8480  149.1830 C   0  0  0  0  0  3  0  0  0  0  0  0
  162.7410  210.0230  152.3060 N   0  0  0  0  0  2  0  0  0  0  0  0
  161.6440  211.2930  150.5530 C   0  0  0  0  0  0  0  0  0  0  0  0
  161.0930  212.5100  150.1440 C   0  0  0  0  0  3  0  0  0  0  0  0
  160.7180  208.3310  153.3620 O   0  0  0  0  0  0  0  0  0  0  0  0
  159.3310  210.0750  152.8530 O   0  0  0  0  0  1  0  0  0  0  0  0
  160.2900  209.6060  153.7580 C   0  0  1  0  0  3  0  0  0  0  0  0
  162.0760  210.3400  156.5260 C   0  0  0  0  0  0  0  0  0  0  0  0
  159.7250  210.9550  155.8100 C   0  0  0  0  0  2  0  0  0  0  0  0
  160.3960  207.2820  155.6490 O   0  0  0  0  0  1  0  0  0  0  0  0
  163.4560  210.7670  156.8710 C   0  0  0  0  0  1  0  0  0  0  0  0
  161.1040  211.3230  156.1390 N   0  0  0  0  0  2  0  0  0  0  0  0
  160.3880  208.5910  156.1310 C   0  0  2  0  0  3  0  0  0  0  0  0
  159.6800  209.5620  155.1690 C   0  0  2  0  0  3  0  0  0  0  0  0
  161.7760  209.0410  156.4840 C   0  0  0  0  0  3  0  0  0  0  0  0
  1  6  2  0  0  0  0
  1 14  1  0  0  0  0
  2  5  1  6  0  0  0
  2 13  1  0  0  0  0
  3  2  1  0  0  0  0
  3 19  1  0  0  0  0
  4  7  1  0  0  0  0
  4 15  2  0  0  0  0
  5 16  1  0  0  0  0
  6 17  1  0  0  0  0
  7  3  2  0  0  0  0
  8 21  1  1  0  0  0
  9  1  1  0  0  0  0
 10 18  1  0  0  0  0
 11  4  1  0  0  0  0
 12  8  1  0  0  0  0
 13  8  1  0  0  0  0
 13 18  1  1  0  0  0
 14  5  2  0  0  0  0
 15 20  1  0  0  0  0
 16 12  1  0  0  0  0
 17 16  2  0  0  0  0
 19 10  1  0  0  0  0
 20 19  2  0  0  0  0
 21 23  1  0  0  0  0
 23 22  1  6  0  0  0
 24 27  1  0  0  0  0
 25 28  1  0  0  0  0
 28 24  1  0  0  0  0
 29 26  1  6  0  0  0
 29 31  1  0  0  0  0
 30 23  1  6  0  0  0
 30 25  1  0  0  0  0
 30 29  1  0  0  0  0
 31 24  2  0  0  0  0
M  END
>  <MODEL>
5

>  <REMARK>
 VINA RESULT:      -5.8      3.262      5.646
  Name = 
  3 active torsions:
  status: ('A' for Active; 'I' for Inactive)
    1  A    between atoms: C_5  and  O_16
    2  A    between atoms: C_5  and  C_30
    3  A    between atoms: C_10  and  O_16
                            x       y       z     vdW  Elec       q    Type
                         _______ _______ _______ _____ _____    ______ ____

>  <TORSDO>
F 3

$$$$
=
 OpenBabel11122413103D

 31 35  0  0  1  0  0  0  0  0999 V2000
  162.1430  212.3410  148.6210 C   0  0  0  0  0  0  0  0  0  0  0  0
  159.4930  213.8310  150.9060 C   0  0  2  0  0  3  0  0  0  0  0  0
  158.2190  213.9040  150.0850 C   0  0  0  0  0  0  0  0  0  0  0  0
  157.0530  213.9500  147.9530 C   0  0  0  0  0  0  0  0  0  0  0  0
  160.5040  212.8600  150.3360 C   0  0  0  0  0  0  0  0  0  0  0  0
  162.3210  211.0690  149.1700 C   0  0  0  0  0  3  0  0  0  0  0  0
  158.2420  213.8670  148.6830 C   0  0  0  0  0  3  0  0  0  0  0  0
  158.8450  212.0330  152.5650 C   0  0  2  0  0  3  0  0  0  0  0  0
  162.8630  212.7180  147.4960 O   0  0  0  0  0  1  0  0  0  0  0  0
  156.9600  214.1600  152.1370 O   0  0  0  0  0  0  0  0  0  0  0  0
  157.0940  213.8850  146.2050 Cl  0  0  0  0  0  0  0  0  0  0  0  0
  160.0450  211.1690  152.1880 C   0  0  0  0  0  2  0  0  0  0  0  0
  159.1910  213.5180  152.3870 C   0  0  2  0  0  3  0  0  0  0  0  0
  161.2410  213.2320  149.2040 C   0  0  0  0  0  3  0  0  0  0  0  0
  155.8310  214.0840  148.6190 C   0  0  0  0  0  3  0  0  0  0  0  0
  160.6890  211.5740  150.8920 C   0  0  0  0  0  0  0  0  0  0  0  0
  161.6030  210.6920  150.3070 C   0  0  0  0  0  3  0  0  0  0  0  0
  158.1130  214.3860  152.8730 N   0  0  0  0  0  2  0  0  0  0  0  0
  156.9900  214.0780  150.7440 C   0  0  0  0  0  0  0  0  0  0  0  0
  155.8000  214.1490  150.0140 C   0  0  0  0  0  3  0  0  0  0  0  0
  158.4870  211.7600  153.8920 O   0  0  0  0  0  0  0  0  0  0  0  0
  160.0760  212.7110  155.2300 O   0  0  0  0  0  1  0  0  0  0  0  0
  159.6930  211.5380  154.5710 C   0  0  1  0  0  3  0  0  0  0  0  0
  162.1930  210.6200  156.6430 C   0  0  0  0  0  0  0  0  0  0  0  0
  159.7100  210.9480  157.0200 C   0  0  0  0  0  2  0  0  0  0  0  0
  160.4720  208.6720  154.1550 O   0  0  0  0  0  1  0  0  0  0  0  0
  163.5920  211.0240  156.9370 C   0  0  0  0  0  1  0  0  0  0  0  0
  161.1050  211.3230  157.2610 N   0  0  0  0  0  2  0  0  0  0  0  0
  160.5490  209.2530  155.4210 C   0  0  2  0  0  3  0  0  0  0  0  0
  159.5390  210.4030  155.5970 C   0  0  2  0  0  3  0  0  0  0  0  0
  161.9560  209.6720  155.7350 C   0  0  0  0  0  3  0  0  0  0  0  0
  1  6  2  0  0  0  0
  1 14  1  0  0  0  0
  2  3  1  6  0  0  0
  2 13  1  0  0  0  0
  3 19  1  0  0  0  0
  4 15  2  0  0  0  0
  4  7  1  0  0  0  0
  5 16  1  0  0  0  0
  5  2  1  0  0  0  0
  6 17  1  0  0  0  0
  7  3  2  0  0  0  0
  8 21  1  1  0  0  0
  9  1  1  0  0  0  0
 10 18  1  0  0  0  0
 11  4  1  0  0  0  0
 12  8  1  0  0  0  0
 13  8  1  0  0  0  0
 13 18  1  6  0  0  0
 14  5  2  0  0  0  0
 15 20  1  0  0  0  0
 16 12  1  0  0  0  0
 17 16  2  0  0  0  0
 19 10  1  0  0  0  0
 20 19  2  0  0  0  0
 21 23  1  0  0  0  0
 23 22  1  1  0  0  0
 24 27  1  0  0  0  0
 24 28  1  0  0  0  0
 25 28  1  0  0  0  0
 29 26  1  6  0  0  0
 29 30  1  0  0  0  0
 29 31  1  0  0  0  0
 30 23  1  6  0  0  0
 30 25  1  0  0  0  0
 31 24  2  0  0  0  0
M  END
>  <MODEL>
6

>  <REMARK>
 VINA RESULT:      -5.8      5.788      8.102
  Name = 
  3 active torsions:
  status: ('A' for Active; 'I' for Inactive)
    1  A    between atoms: C_5  and  O_16
    2  A    between atoms: C_5  and  C_30
    3  A    between atoms: C_10  and  O_16
                            x       y       z     vdW  Elec       q    Type
                         _______ _______ _______ _____ _____    ______ ____

>  <TORSDO>
F 3

$$$$
=
 OpenBabel11122413103D

 31 35  0  0  1  0  0  0  0  0999 V2000
  161.5780  206.6810  151.6820 C   0  0  0  0  0  0  0  0  0  0  0  0
  159.9200  209.9060  152.8270 C   0  0  2  0  0  3  0  0  0  0  0  0
  160.4480  210.1810  154.2230 C   0  0  0  0  0  0  0  0  0  0  0  0
  161.4870  209.4490  156.2950 C   0  0  0  0  0  0  0  0  0  0  0  0
  160.7950  208.9510  152.0460 C   0  0  0  0  0  0  0  0  0  0  0  0
  162.4650  207.1380  150.7060 C   0  0  0  0  0  3  0  0  0  0  0  0
  161.0230  209.1690  155.0060 C   0  0  0  0  0  3  0  0  0  0  0  0
  161.0230  211.7990  151.5600 C   0  0  2  0  0  3  0  0  0  0  0  0
  161.5250  205.3290  151.9930 O   0  0  0  0  0  1  0  0  0  0  0  0
  159.6880  212.4700  154.0160 O   0  0  0  0  0  0  0  0  0  0  0  0
  162.2180  208.1820  157.2550 Cl  0  0  0  0  0  0  0  0  0  0  0  0
  161.6870  210.8360  150.5800 C   0  0  0  0  0  2  0  0  0  0  0  0
  159.6880  211.2170  152.0450 C   0  0  2  0  0  3  0  0  0  0  0  0
  160.7450  207.5830  152.3470 C   0  0  0  0  0  3  0  0  0  0  0  0
  161.3690  210.7420  156.8150 C   0  0  0  0  0  3  0  0  0  0  0  0
  161.6920  209.4100  151.0550 C   0  0  0  0  0  0  0  0  0  0  0  0
  162.5140  208.4970  150.3870 C   0  0  0  0  0  3  0  0  0  0  0  0
  158.9520  212.1740  152.8780 N   0  0  0  0  0  2  0  0  0  0  0  0
  160.2980  211.4670  154.7700 C   0  0  0  0  0  0  0  0  0  0  0  0
  160.7730  211.7490  156.0530 C   0  0  0  0  0  3  0  0  0  0  0  0
  160.8270  213.0320  150.9240 O   0  0  0  0  0  0  0  0  0  0  0  0
  158.9600  213.3730  149.6510 O   0  0  0  0  0  1  0  0  0  0  0  0
  160.2030  212.7340  149.7040 C   0  0  1  0  0  3  0  0  0  0  0  0
  159.0340  212.8430  146.5410 C   0  0  0  0  0  0  0  0  0  0  0  0
  160.4580  214.4530  147.8810 C   0  0  0  0  0  2  0  0  0  0  0  0
  161.7930  210.9630  147.8810 O   0  0  0  0  0  1  0  0  0  0  0  0
  157.7680  212.5580  145.8180 C   0  0  0  0  0  1  0  0  0  0  0  0
  159.2190  214.1170  147.1750 N   0  0  0  0  0  2  0  0  0  0  0  0
  161.2320  212.1490  147.4080 C   0  0  2  0  0  3  0  0  0  0  0  0
  161.0680  213.2000  148.5210 C   0  0  2  0  0  3  0  0  0  0  0  0
  159.9480  211.8820  146.6770 C   0  0  0  0  0  3  0  0  0  0  0  0
  1  9  1  0  0  0  0
  1 14  1  0  0  0  0
  2  5  1  6  0  0  0
  2  3  1  0  0  0  0
  3 19  2  0  0  0  0
  3  7  1  0  0  0  0
  4 15  1  0  0  0  0
  4 11  1  0  0  0  0
  5 14  2  0  0  0  0
  6  1  2  0  0  0  0
  7  4  2  0  0  0  0
  8 21  1  6  0  0  0
  8 13  1  0  0  0  0
 10 19  1  0  0  0  0
 12 16  1  0  0  0  0
 12  8  1  0  0  0  0
 13  2  1  0  0  0  0
 13 18  1  1  0  0  0
 16  5  1  0  0  0  0
 17  6  1  0  0  0  0
 17 16  2  0  0  0  0
 18 10  1  0  0  0  0
 19 20  1  0  0  0  0
 20 15  2  0  0  0  0
 23 22  1  1  0  0  0
 23 21  1  0  0  0  0
 24 31  2  0  0  0  0
 24 28  1  0  0  0  0
 25 30  1  0  0  0  0
 27 24  1  0  0  0  0
 28 25  1  0  0  0  0
 29 26  1  1  0  0  0
 29 30  1  0  0  0  0
 30 23  1  1  0  0  0
 31 29  1  0  0  0  0
M  END
>  <MODEL>
7

>  <REMARK>
 VINA RESULT:      -5.3      4.221      7.267
  Name = 
  3 active torsions:
  status: ('A' for Active; 'I' for Inactive)
    1  A    between atoms: C_5  and  O_16
    2  A    between atoms: C_5  and  C_30
    3  A    between atoms: C_10  and  O_16
                            x       y       z     vdW  Elec       q    Type
                         _______ _______ _______ _____ _____    ______ ____

>  <TORSDO>
F 3

$$$$
=
 OpenBabel11122413103D

 31 35  0  0  1  0  0  0  0  0999 V2000
  161.1560  204.2770  145.6040 C   0  0  0  0  0  0  0  0  0  0  0  0
  160.4630  205.9740  148.9370 C   0  0  2  0  0  3  0  0  0  0  0  0
  160.8170  204.9600  150.0090 C   0  0  0  0  0  0  0  0  0  0  0  0
  161.2130  202.6760  150.7410 C   0  0  0  0  0  0  0  0  0  0  0  0
  161.0980  205.6600  147.6000 C   0  0  0  0  0  0  0  0  0  0  0  0
  162.2880  204.9600  145.1580 C   0  0  0  0  0  3  0  0  0  0  0  0
  160.9000  203.5880  149.7290 C   0  0  0  0  0  3  0  0  0  0  0  0
  162.3080  207.6660  149.3070 C   0  0  2  0  0  3  0  0  0  0  0  0
  160.6190  203.2490  144.8410 O   0  0  0  0  0  1  0  0  0  0  0  0
  160.8800  206.7570  151.6300 O   0  0  0  0  0  0  0  0  0  0  0  0
  161.3300  200.9690  150.3730 Cl  0  0  0  0  0  0  0  0  0  0  0  0
  162.7760  207.5620  147.8580 C   0  0  0  0  0  2  0  0  0  0  0  0
  160.7970  207.4110  149.3900 C   0  0  2  0  0  3  0  0  0  0  0  0
  160.5620  204.6280  146.8180 C   0  0  0  0  0  3  0  0  0  0  0  0
  161.4360  203.1280  152.0450 C   0  0  0  0  0  3  0  0  0  0  0  0
  162.2430  206.3520  147.1440 C   0  0  0  0  0  0  0  0  0  0  0  0
  162.8240  206.0000  145.9220 C   0  0  0  0  0  3  0  0  0  0  0  0
  160.2830  207.6420  150.7450 N   0  0  0  0  0  2  0  0  0  0  0  0
  161.0030  205.3990  151.3310 C   0  0  0  0  0  0  0  0  0  0  0  0
  161.3290  204.4890  152.3400 C   0  0  0  0  0  3  0  0  0  0  0  0
  162.6260  208.9400  149.7970 O   0  0  0  0  0  0  0  0  0  0  0  0
  161.0710  209.6960  148.3030 O   0  0  0  0  0  1  0  0  0  0  0  0
  162.3970  209.8230  148.7330 C   0  0  1  0  0  3  0  0  0  0  0  0
  160.9820  212.4570  147.1680 C   0  0  0  0  0  0  0  0  0  0  0  0
  161.3480  211.9350  149.6190 C   0  0  0  0  0  2  0  0  0  0  0  0
  164.4660  211.6600  147.5780 O   0  0  0  0  0  1  0  0  0  0  0  0
  160.0430  212.7020  146.0430 C   0  0  0  0  0  1  0  0  0  0  0  0
  160.4640  212.1630  148.4740 N   0  0  0  0  0  2  0  0  0  0  0  0
  163.2580  212.1630  148.0600 C   0  0  2  0  0  3  0  0  0  0  0  0
  162.6560  211.2760  149.1650 C   0  0  2  0  0  3  0  0  0  0  0  0
  162.2950  212.4150  146.9370 C   0  0  0  0  0  3  0  0  0  0  0  0
  1 14  1  0  0  0  0
  2  5  1  6  0  0  0
  2 13  1  0  0  0  0
  2  3  1  0  0  0  0
  3 19  1  0  0  0  0
  4 15  2  0  0  0  0
  6  1  2  0  0  0  0
  6 17  1  0  0  0  0
  7  3  2  0  0  0  0
  7  4  1  0  0  0  0
  8 13  1  0  0  0  0
  8 21  1  6  0  0  0
  9  1  1  0  0  0  0
 11  4  1  0  0  0  0
 12  8  1  0  0  0  0
 13 18  1  1  0  0  0
 14  5  2  0  0  0  0
 15 20  1  0  0  0  0
 16  5  1  0  0  0  0
 16 12  1  0  0  0  0
 17 16  2  0  0  0  0
 18 10  1  0  0  0  0
 19 10  1  0  0  0  0
 19 20  2  0  0  0  0
 23 22  1  1  0  0  0
 23 21  1  0  0  0  0
 24 28  1  0  0  0  0
 27 24  1  0  0  0  0
 28 25  1  0  0  0  0
 29 26  1  6  0  0  0
 29 30  1  0  0  0  0
 30 23  1  6  0  0  0
 30 25  1  0  0  0  0
 31 24  2  0  0  0  0
 31 29  1  0  0  0  0
M  END
>  <MODEL>
8

>  <REMARK>
 VINA RESULT:      -5.0      2.980      3.932
  Name = 
  3 active torsions:
  status: ('A' for Active; 'I' for Inactive)
    1  A    between atoms: C_5  and  O_16
    2  A    between atoms: C_5  and  C_30
    3  A    between atoms: C_10  and  O_16
                            x       y       z     vdW  Elec       q    Type
                         _______ _______ _______ _____ _____    ______ ____

>  <TORSDO>
F 3

$$$$
=
 OpenBabel11122413103D

 31 35  0  0  1  0  0  0  0  0999 V2000
  161.2060  201.9300  150.5520 C   0  0  0  0  0  0  0  0  0  0  0  0
  162.2600  205.1070  148.7470 C   0  0  2  0  0  3  0  0  0  0  0  0
  161.6110  205.0500  147.3760 C   0  0  0  0  0  0  0  0  0  0  0  0
  160.5770  203.8180  145.5540 C   0  0  0  0  0  0  0  0  0  0  0  0
  161.5970  204.1880  149.7490 C   0  0  0  0  0  0  0  0  0  0  0  0
  160.3200  202.4190  151.5130 C   0  0  0  0  0  3  0  0  0  0  0  0
  161.1570  203.8420  146.8250 C   0  0  0  0  0  3  0  0  0  0  0  0
  160.9510  207.0140  149.7730 C   0  0  2  0  0  3  0  0  0  0  0  0
  161.4540  200.5660  150.4670 O   0  0  0  0  0  1  0  0  0  0  0  0
  162.0110  207.4240  147.1330 O   0  0  0  0  0  0  0  0  0  0  0  0
  159.9980  202.3080  144.8860 Cl  0  0  0  0  0  0  0  0  0  0  0  0
  160.5090  206.1540  150.9540 C   0  0  0  0  0  2  0  0  0  0  0  0
  162.3290  206.5550  149.2760 C   0  0  2  0  0  3  0  0  0  0  0  0
  161.8440  202.8110  149.6770 C   0  0  0  0  0  3  0  0  0  0  0  0
  160.4560  205.0010  144.8180 C   0  0  0  0  0  3  0  0  0  0  0  0
  160.7010  204.6810  150.7250 C   0  0  0  0  0  0  0  0  0  0  0  0
  160.0760  203.7920  151.6050 C   0  0  0  0  0  3  0  0  0  0  0  0
  162.8520  207.4450  148.2350 N   0  0  0  0  0  2  0  0  0  0  0  0
  161.5220  206.2260  146.6120 C   0  0  0  0  0  0  0  0  0  0  0  0
  160.9310  206.2030  145.3460 C   0  0  0  0  0  3  0  0  0  0  0  0
  160.9880  208.3550  150.1760 O   0  0  0  0  0  0  0  0  0  0  0  0
  162.4530  209.2770  151.6690 O   0  0  0  0  0  1  0  0  0  0  0  0
  161.4270  208.3390  151.5070 C   0  0  1  0  0  3  0  0  0  0  0  0
  161.8960  210.0600  154.3720 C   0  0  0  0  0  0  0  0  0  0  0  0
  160.1070  210.1940  152.5840 C   0  0  0  0  0  2  0  0  0  0  0  0
  160.6060  206.7340  153.9040 O   0  0  0  0  0  1  0  0  0  0  0  0
  163.0150  210.7030  155.1060 C   0  0  0  0  0  1  0  0  0  0  0  0
  161.2290  210.7770  153.3220 N   0  0  0  0  0  2  0  0  0  0  0  0
  160.4560  208.1210  153.8910 C   0  0  2  0  0  3  0  0  0  0  0  0
  160.2730  208.6750  152.4660 C   0  0  2  0  0  3  0  0  0  0  0  0
  161.5810  208.7890  154.6270 C   0  0  0  0  0  3  0  0  0  0  0  0
  1  6  1  0  0  0  0
  2  3  1  6  0  0  0
  2 13  1  0  0  0  0
  2  5  1  0  0  0  0
  4  7  2  0  0  0  0
  5 16  2  0  0  0  0
  6 17  2  0  0  0  0
  7  3  1  0  0  0  0
  8 21  1  1  0  0  0
  8 12  1  0  0  0  0
  9  1  1  0  0  0  0
 10 18  1  0  0  0  0
 11  4  1  0  0  0  0
 13 18  1  6  0  0  0
 13  8  1  0  0  0  0
 14  5  1  0  0  0  0
 14  1  2  0  0  0  0
 15 20  2  0  0  0  0
 15  4  1  0  0  0  0
 16 12  1  0  0  0  0
 16 17  1  0  0  0  0
 19 10  1  0  0  0  0
 19  3  2  0  0  0  0
 20 19  1  0  0  0  0
 21 23  1  0  0  0  0
 23 22  1  6  0  0  0
 24 31  2  0  0  0  0
 24 27  1  0  0  0  0
 25 28  1  0  0  0  0
 28 24  1  0  0  0  0
 29 26  1  6  0  0  0
 29 31  1  0  0  0  0
 30 23  1  6  0  0  0
 30 25  1  0  0  0  0
 30 29  1  0  0  0  0
M  END
>  <MODEL>
9

>  <REMARK>
 VINA RESULT:      -4.9      2.012      4.411
  Name = 
  3 active torsions:
  status: ('A' for Active; 'I' for Inactive)
    1  A    between atoms: C_5  and  O_16
    2  A    between atoms: C_5  and  C_30
    3  A    between atoms: C_10  and  O_16
                            x       y       z     vdW  Elec       q    Type
                         _______ _______ _______ _____ _____    ______ ____

>  <TORSDO>
F 3

$$$$
