=
 OpenBabel11122413293D

 31 35  0  0  1  0  0  0  0  0999 V2000
  161.5680  206.4060  152.0890 C   0  0  0  0  0  0  0  0  0  0  0  0
  160.0820  209.6080  153.6960 C   0  0  2  0  0  3  0  0  0  0  0  0
  160.7290  210.3980  154.8150 C   0  0  0  0  0  0  0  0  0  0  0  0
  162.3920  210.5870  156.5800 C   0  0  0  0  0  0  0  0  0  0  0  0
  161.0910  208.7420  152.9230 C   0  0  1  0  0  3  0  0  0  0  0  0
  162.2430  206.9310  151.0490 C   0  0  0  0  0  3  0  0  0  0  0  0
  161.8250  209.8740  155.5200 C   0  0  0  0  0  3  0  0  0  0  0  0
  160.1430  211.1960  151.6360 C   0  0  1  0  0  3  0  0  0  0  0  0
  161.5080  205.0570  152.2150 F   0  0  0  0  0  0  0  0  0  0  0  0
  159.0440  212.1810  154.5440 N   0  0  0  0  0  2  0  0  0  0  0  0
  163.4830  210.0650  157.2610 O   0  0  0  0  0  1  0  0  0  0  0  0
  161.3770  210.5420  151.3820 O   0  0  0  0  0  0  0  0  0  0  0  0
  159.2740  210.5160  152.7460 C   0  0  2  0  0  3  0  0  0  0  0  0
  160.7360  207.2590  153.0200 C   0  0  0  0  0  2  0  0  0  0  0  0
  161.8600  211.8230  156.9560 C   0  0  0  0  0  3  0  0  0  0  0  0
  161.1840  209.1540  151.4530 C   0  0  1  0  0  3  0  0  0  0  0  0
  162.3590  208.4180  150.8220 C   0  0  0  0  0  2  0  0  0  0  0  0
  158.3210  211.4340  153.5180 C   0  0  0  0  0  2  0  0  0  0  0  0
  160.1750  211.6300  155.2250 C   0  0  0  0  0  0  0  0  0  0  0  0
  160.7550  212.3420  156.2800 C   0  0  0  0  0  3  0  0  0  0  0  0
  160.4310  212.6620  151.9400 C   0  0  0  0  0  2  0  0  0  0  0  0
  158.8640  214.2020  150.9740 O   0  0  0  0  0  1  0  0  0  0  0  0
  160.0900  213.5660  150.7630 C   0  0  2  0  0  3  0  0  0  0  0  0
  160.5890  214.1040  146.7810 C   0  0  0  0  0  0  0  0  0  0  0  0
  161.4470  212.6300  148.7760 C   0  0  0  0  0  2  0  0  0  0  0  0
  157.8200  213.3070  148.8040 O   0  0  0  0  0  0  0  0  0  0  0  0
  160.8360  214.4520  145.3570 C   0  0  0  0  0  1  0  0  0  0  0  0
  161.9670  214.1550  147.9340 S   0  0  0  0  0  0  0  0  0  0  0  0
  159.0340  213.3380  148.4700 C   0  0  0  0  0  0  0  0  0  0  0  0
  160.0700  212.8090  149.4270 C   0  0  2  0  0  3  0  0  0  0  0  0
  159.3830  213.8080  147.1610 N   0  0  0  0  0  0  0  0  0  0  0  0
  1  9  1  0  0  0  0
  1 14  1  0  0  0  0
  2  3  1  1  0  0  0
  3 19  2  0  0  0  0
  3  7  1  0  0  0  0
  4 15  1  0  0  0  0
  4 11  1  0  0  0  0
  5 14  1  6  0  0  0
  5  2  1  0  0  0  0
  6  1  2  0  0  0  0
  7  4  2  0  0  0  0
  8 21  1  1  0  0  0
  8 13  1  0  0  0  0
 10 19  1  0  0  0  0
 12 16  1  0  0  0  0
 12  8  1  0  0  0  0
 13 18  1  1  0  0  0
 13  2  1  0  0  0  0
 16 17  1  1  0  0  0
 16  5  1  0  0  0  0
 17  6  1  0  0  0  0
 18 10  1  0  0  0  0
 19 20  1  0  0  0  0
 20 15  2  0  0  0  0
 23 22  1  1  0  0  0
 23 21  1  0  0  0  0
 24 31  2  0  0  0  0
 24 28  1  0  0  0  0
 25 30  1  0  0  0  0
 27 24  1  0  0  0  0
 28 25  1  0  0  0  0
 29 26  2  0  0  0  0
 29 30  1  0  0  0  0
 30 23  1  1  0  0  0
 31 29  1  0  0  0  0
M  END
>  <MODEL>
1

>  <REMARK>
 VINA RESULT:      -5.3      0.000      0.000
  Name = 
  3 active torsions:
  status: ('A' for Active; 'I' for Inactive)
    1  A    between atoms: C_5  and  C_16
    2  A    between atoms: C_5  and  C_30
    3  A    between atoms: C_10  and  C_16
                            x       y       z     vdW  Elec       q    Type
                         _______ _______ _______ _____ _____    ______ ____

>  <TORSDO>
F 3

$$$$
=
 OpenBabel11122413293D

 31 35  0  0  1  0  0  0  0  0999 V2000
  162.6320  213.6970  147.9220 C   0  0  0  0  0  0  0  0  0  0  0  0
  159.6240  214.2500  150.3080 C   0  0  2  0  0  3  0  0  0  0  0  0
  158.1680  214.2010  149.8940 C   0  0  0  0  0  0  0  0  0  0  0  0
  156.4640  214.1800  148.1580 C   0  0  0  0  0  0  0  0  0  0  0  0
  160.5440  213.5010  149.3290 C   0  0  1  0  0  3  0  0  0  0  0  0
  162.8450  212.3780  148.0810 C   0  0  0  0  0  3  0  0  0  0  0  0
  157.8090  214.1820  148.5370 C   0  0  0  0  0  3  0  0  0  0  0  0
  159.9400  212.2060  151.8860 C   0  0  1  0  0  3  0  0  0  0  0  0
  163.4880  214.4100  147.1480 F   0  0  0  0  0  0  0  0  0  0  0  0
  157.4810  214.3150  152.2620 N   0  0  0  0  0  2  0  0  0  0  0  0
  156.1220  214.1480  146.8140 O   0  0  0  0  0  1  0  0  0  0  0  0
  160.3060  211.5490  150.6820 O   0  0  0  0  0  0  0  0  0  0  0  0
  159.8250  213.7620  151.7570 C   0  0  2  0  0  3  0  0  0  0  0  0
  161.5750  214.4410  148.7080 C   0  0  0  0  0  2  0  0  0  0  0  0
  155.4640  214.2120  149.1330 C   0  0  0  0  0  3  0  0  0  0  0  0
  161.2560  212.3270  150.0040 C   0  0  1  0  0  3  0  0  0  0  0  0
  161.9520  211.5050  148.9270 C   0  0  0  0  0  2  0  0  0  0  0  0
  158.8600  214.4530  152.7250 C   0  0  0  0  0  2  0  0  0  0  0  0
  157.1510  214.2700  150.8710 C   0  0  0  0  0  0  0  0  0  0  0  0
  155.8070  214.2580  150.4850 C   0  0  0  0  0  3  0  0  0  0  0  0
  158.6560  211.5700  152.4080 C   0  0  0  0  0  2  0  0  0  0  0  0
  158.2210  211.4470  154.7650 O   0  0  0  0  0  1  0  0  0  0  0  0
  158.8840  210.8140  153.7110 C   0  0  2  0  0  3  0  0  0  0  0  0
  161.3980  208.9410  156.2730 C   0  0  0  0  0  0  0  0  0  0  0  0
  160.9560  209.2750  153.7080 C   0  0  0  0  0  2  0  0  0  0  0  0
  160.5050  212.3080  155.7590 O   0  0  0  0  0  0  0  0  0  0  0  0
  162.1890  208.1610  157.2610 C   0  0  0  0  0  1  0  0  0  0  0  0
  160.5130  208.0570  154.9830 S   0  0  0  0  0  0  0  0  0  0  0  0
  160.7150  211.1080  155.4390 C   0  0  0  0  0  0  0  0  0  0  0  0
  160.3740  210.6530  154.0440 C   0  0  2  0  0  3  0  0  0  0  0  0
  161.3380  210.2340  156.3890 N   0  0  0  0  0  0  0  0  0  0  0  0
  1  6  2  0  0  0  0
  1 14  1  0  0  0  0
  2  3  1  6  0  0  0
  2 13  1  0  0  0  0
  3 19  1  0  0  0  0
  4  7  1  0  0  0  0
  4 15  2  0  0  0  0
  5 14  1  1  0  0  0
  5 16  1  0  0  0  0
  5  2  1  0  0  0  0
  6 17  1  0  0  0  0
  7  3  2  0  0  0  0
  8 21  1  6  0  0  0
  9  1  1  0  0  0  0
 10 18  1  0  0  0  0
 11  4  1  0  0  0  0
 12  8  1  0  0  0  0
 13  8  1  0  0  0  0
 13 18  1  1  0  0  0
 15 20  1  0  0  0  0
 16 17  1  6  0  0  0
 16 12  1  0  0  0  0
 19 10  1  0  0  0  0
 20 19  2  0  0  0  0
 21 23  1  0  0  0  0
 23 22  1  1  0  0  0
 24 31  2  0  0  0  0
 24 27  1  0  0  0  0
 25 30  1  0  0  0  0
 25 28  1  0  0  0  0
 28 24  1  0  0  0  0
 29 26  2  0  0  0  0
 29 31  1  0  0  0  0
 30 23  1  1  0  0  0
 30 29  1  0  0  0  0
M  END
>  <MODEL>
2

>  <REMARK>
 VINA RESULT:      -4.5      3.450      7.564
  Name = 
  3 active torsions:
  status: ('A' for Active; 'I' for Inactive)
    1  A    between atoms: C_5  and  C_16
    2  A    between atoms: C_5  and  C_30
    3  A    between atoms: C_10  and  C_16
                            x       y       z     vdW  Elec       q    Type
                         _______ _______ _______ _____ _____    ______ ____

>  <TORSDO>
F 3

$$$$
=
 OpenBabel11122413293D

 31 35  0  0  1  0  0  0  0  0999 V2000
  160.6380  207.5520  156.2460 C   0  0  0  0  0  0  0  0  0  0  0  0
  161.8720  208.7700  152.7760 C   0  0  2  0  0  3  0  0  0  0  0  0
  161.5120  208.1270  151.4530 C   0  0  0  0  0  0  0  0  0  0  0  0
  160.5880  206.2650  150.1910 C   0  0  0  0  0  0  0  0  0  0  0  0
  160.8660  208.4340  153.8900 C   0  0  1  0  0  3  0  0  0  0  0  0
  159.5410  208.3150  156.4090 C   0  0  0  0  0  3  0  0  0  0  0  0
  160.8800  206.8740  151.4130 C   0  0  0  0  0  3  0  0  0  0  0  0
  160.7420  211.1120  152.7110 C   0  0  1  0  0  3  0  0  0  0  0  0
  161.0270  206.7410  157.2610 F   0  0  0  0  0  0  0  0  0  0  0  0
  162.5650  210.0050  150.2440 N   0  0  0  0  0  2  0  0  0  0  0  0
  159.9510  205.0320  150.1640 O   0  0  0  0  0  1  0  0  0  0  0  0
  159.6700  210.4240  153.3380 O   0  0  0  0  0  0  0  0  0  0  0  0
  162.0740  210.2930  152.6380 C   0  0  2  0  0  3  0  0  0  0  0  0
  161.5420  207.6930  155.0420 C   0  0  0  0  0  2  0  0  0  0  0  0
  160.9400  206.8950  148.9940 C   0  0  0  0  0  3  0  0  0  0  0  0
  160.1690  209.6870  154.4230 C   0  0  1  0  0  3  0  0  0  0  0  0
  159.0340  209.2520  155.3410 C   0  0  0  0  0  2  0  0  0  0  0  0
  163.0180  210.6350  151.4820 C   0  0  0  0  0  2  0  0  0  0  0  0
  161.8970  208.7390  150.2400 C   0  0  0  0  0  0  0  0  0  0  0  0
  161.5930  208.1280  149.0200 C   0  0  0  0  0  3  0  0  0  0  0  0
  160.2730  211.5810  151.3380 C   0  0  0  0  0  2  0  0  0  0  0  0
  158.1940  212.7150  151.7310 O   0  0  0  0  0  1  0  0  0  0  0  0
  159.5390  212.9140  151.4110 C   0  0  2  0  0  3  0  0  0  0  0  0
  158.4440  212.8720  147.5140 C   0  0  0  0  0  0  0  0  0  0  0  0
  158.3580  214.3900  149.6530 C   0  0  0  0  0  2  0  0  0  0  0  0
  161.5300  212.5660  149.1820 O   0  0  0  0  0  0  0  0  0  0  0  0
  157.9360  212.7320  146.1240 C   0  0  0  0  0  1  0  0  0  0  0  0
  157.2670  213.1870  148.8350 S   0  0  0  0  0  0  0  0  0  0  0  0
  160.3450  212.9580  149.0090 C   0  0  0  0  0  0  0  0  0  0  0  0
  159.6590  213.7220  150.1110 C   0  0  2  0  0  3  0  0  0  0  0  0
  159.7150  212.7290  147.7420 N   0  0  0  0  0  0  0  0  0  0  0  0
  1  6  2  0  0  0  0
  1  9  1  0  0  0  0
  2  3  1  6  0  0  0
  2  5  1  0  0  0  0
  4  7  2  0  0  0  0
  5 16  1  0  0  0  0
  5 14  1  1  0  0  0
  7  3  1  0  0  0  0
  8 21  1  6  0  0  0
  8 12  1  0  0  0  0
 10 18  1  0  0  0  0
 11  4  1  0  0  0  0
 12 16  1  0  0  0  0
 13 18  1  6  0  0  0
 13  8  1  0  0  0  0
 13  2  1  0  0  0  0
 14  1  1  0  0  0  0
 15 20  2  0  0  0  0
 15  4  1  0  0  0  0
 16 17  1  1  0  0  0
 17  6  1  0  0  0  0
 19 10  1  0  0  0  0
 19  3  2  0  0  0  0
 20 19  1  0  0  0  0
 21 23  1  0  0  0  0
 23 22  1  6  0  0  0
 24 31  2  0  0  0  0
 24 28  1  0  0  0  0
 25 30  1  0  0  0  0
 27 24  1  0  0  0  0
 28 25  1  0  0  0  0
 29 26  2  0  0  0  0
 29 30  1  0  0  0  0
 30 23  1  1  0  0  0
 31 29  1  0  0  0  0
M  END
>  <MODEL>
3

>  <REMARK>
 VINA RESULT:      -4.4      2.688      4.717
  Name = 
  3 active torsions:
  status: ('A' for Active; 'I' for Inactive)
    1  A    between atoms: C_5  and  C_16
    2  A    between atoms: C_5  and  C_30
    3  A    between atoms: C_10  and  C_16
                            x       y       z     vdW  Elec       q    Type
                         _______ _______ _______ _____ _____    ______ ____

>  <TORSDO>
F 3

$$$$
=
 OpenBabel11122413293D

 31 35  0  0  1  0  0  0  0  0999 V2000
  161.9300  206.9720  152.0120 C   0  0  0  0  0  0  0  0  0  0  0  0
  160.1070  209.6820  154.1030 C   0  0  2  0  0  3  0  0  0  0  0  0
  160.7540  210.5290  155.1800 C   0  0  0  0  0  0  0  0  0  0  0  0
  162.6100  210.9740  156.6860 C   0  0  0  0  0  0  0  0  0  0  0  0
  161.1290  209.0990  153.1140 C   0  0  1  0  0  3  0  0  0  0  0  0
  162.3030  207.6880  150.9350 C   0  0  0  0  0  3  0  0  0  0  0  0
  162.0340  210.2160  155.6630 C   0  0  0  0  0  3  0  0  0  0  0  0
  159.5000  211.3570  152.2080 C   0  0  1  0  0  3  0  0  0  0  0  0
  162.1700  205.6370  152.0240 F   0  0  0  0  0  0  0  0  0  0  0  0
  158.7180  211.9170  155.3240 N   0  0  0  0  0  2  0  0  0  0  0  0
  163.8820  210.6640  157.1470 O   0  0  0  0  0  1  0  0  0  0  0  0
  160.7830  211.0010  151.7150 O   0  0  0  0  0  0  0  0  0  0  0  0
  158.9840  210.4450  153.3700 C   0  0  2  0  0  3  0  0  0  0  0  0
  161.1070  207.5710  153.1300 C   0  0  0  0  0  2  0  0  0  0  0  0
  161.9060  212.0420  157.2460 C   0  0  0  0  0  3  0  0  0  0  0  0
  160.8930  209.6030  151.6890 C   0  0  1  0  0  3  0  0  0  0  0  0
  162.0730  209.1750  150.8270 C   0  0  0  0  0  2  0  0  0  0  0  0
  158.0040  211.0900  154.3550 C   0  0  0  0  0  2  0  0  0  0  0  0
  160.0350  211.5870  155.7760 C   0  0  0  0  0  0  0  0  0  0  0  0
  160.6220  212.3470  156.7930 C   0  0  0  0  0  3  0  0  0  0  0  0
  159.5280  212.8320  152.5960 C   0  0  0  0  0  2  0  0  0  0  0  0
  157.2060  212.6250  152.0280 O   0  0  0  0  0  1  0  0  0  0  0  0
  158.2380  213.5470  152.2130 C   0  0  2  0  0  3  0  0  0  0  0  0
  158.6420  213.3140  148.1920 C   0  0  0  0  0  0  0  0  0  0  0  0
  157.1730  214.4530  150.0440 C   0  0  0  0  0  2  0  0  0  0  0  0
  160.7810  214.3200  150.8020 O   0  0  0  0  0  0  0  0  0  0  0  0
  158.7460  213.0670  146.7300 C   0  0  0  0  0  1  0  0  0  0  0  0
  157.0890  212.9540  149.0200 S   0  0  0  0  0  0  0  0  0  0  0  0
  159.6810  214.1410  150.2160 C   0  0  0  0  0  0  0  0  0  0  0  0
  158.4010  214.4190  150.9610 C   0  0  2  0  0  3  0  0  0  0  0  0
  159.6830  213.7490  148.8370 N   0  0  0  0  0  0  0  0  0  0  0  0
  1  9  1  0  0  0  0
  1 14  1  0  0  0  0
  2  3  1  1  0  0  0
  3  7  2  0  0  0  0
  3 19  1  0  0  0  0
  4 11  1  0  0  0  0
  4 15  2  0  0  0  0
  5 14  1  6  0  0  0
  5  2  1  0  0  0  0
  6  1  2  0  0  0  0
  7  4  1  0  0  0  0
  8 21  1  1  0  0  0
  8 13  1  0  0  0  0
 10 19  1  0  0  0  0
 12  8  1  0  0  0  0
 13  2  1  0  0  0  0
 13 18  1  1  0  0  0
 16 17  1  6  0  0  0
 16 12  1  0  0  0  0
 16  5  1  0  0  0  0
 17  6  1  0  0  0  0
 18 10  1  0  0  0  0
 19 20  2  0  0  0  0
 20 15  1  0  0  0  0
 23 22  1  6  0  0  0
 23 21  1  0  0  0  0
 24 31  2  0  0  0  0
 24 28  1  0  0  0  0
 25 30  1  0  0  0  0
 27 24  1  0  0  0  0
 28 25  1  0  0  0  0
 29 26  2  0  0  0  0
 29 30  1  0  0  0  0
 30 23  1  1  0  0  0
 31 29  1  0  0  0  0
M  END
>  <MODEL>
4

>  <REMARK>
 VINA RESULT:      -4.0      1.586      1.924
  Name = 
  3 active torsions:
  status: ('A' for Active; 'I' for Inactive)
    1  A    between atoms: C_5  and  C_16
    2  A    between atoms: C_5  and  C_30
    3  A    between atoms: C_10  and  C_16
                            x       y       z     vdW  Elec       q    Type
                         _______ _______ _______ _____ _____    ______ ____

>  <TORSDO>
F 3

$$$$
=
 OpenBabel11122413293D

 31 35  0  0  1  0  0  0  0  0999 V2000
  161.9530  213.2780  147.8280 C   0  0  0  0  0  0  0  0  0  0  0  0
  161.6100  211.5920  151.3040 C   0  0  2  0  0  3  0  0  0  0  0  0
  160.3540  211.5970  152.1510 C   0  0  0  0  0  0  0  0  0  0  0  0
  158.1360  212.4690  152.6340 C   0  0  0  0  0  0  0  0  0  0  0  0
  161.3220  211.8540  149.8160 C   0  0  1  0  0  3  0  0  0  0  0  0
  161.6480  212.2510  147.0140 C   0  0  0  0  0  3  0  0  0  0  0  0
  159.2750  212.4350  151.8270 C   0  0  0  0  0  3  0  0  0  0  0  0
  161.9410  209.1050  150.6140 C   0  0  1  0  0  3  0  0  0  0  0  0
  162.3530  214.4520  147.2780 F   0  0  0  0  0  0  0  0  0  0  0  0
  161.3850  209.9810  153.7060 N   0  0  0  0  0  2  0  0  0  0  0  0
  157.0700  213.2920  152.2960 O   0  0  0  0  0  1  0  0  0  0  0  0
  161.1800  209.4950  149.4810 O   0  0  0  0  0  0  0  0  0  0  0  0
  162.4290  210.2990  151.5000 C   0  0  2  0  0  3  0  0  0  0  0  0
  162.0280  213.1190  149.3300 C   0  0  0  0  0  2  0  0  0  0  0  0
  158.0690  211.6770  153.7830 C   0  0  0  0  0  3  0  0  0  0  0  0
  161.7290  210.6680  148.9400 C   0  0  1  0  0  3  0  0  0  0  0  0
  161.2000  210.9070  147.5320 C   0  0  0  0  0  2  0  0  0  0  0  0
  162.6550  209.9940  152.9840 C   0  0  0  0  0  2  0  0  0  0  0  0
  160.2940  210.8270  153.3330 C   0  0  0  0  0  0  0  0  0  0  0  0
  159.1460  210.8590  154.1310 C   0  0  0  0  0  3  0  0  0  0  0  0
  161.1300  208.0860  151.4080 C   0  0  0  0  0  2  0  0  0  0  0  0
  162.8340  206.6540  150.5110 O   0  0  0  0  0  1  0  0  0  0  0  0
  161.5840  206.6580  151.1330 C   0  0  2  0  0  3  0  0  0  0  0  0
  161.1550  203.2150  149.0470 C   0  0  0  0  0  0  0  0  0  0  0  0
  160.0240  204.6080  150.9620 C   0  0  0  0  0  2  0  0  0  0  0  0
  161.2950  206.6140  148.1380 O   0  0  0  0  0  0  0  0  0  0  0  0
  161.1400  201.9000  148.3540 C   0  0  0  0  0  1  0  0  0  0  0  0
  161.2200  203.2440  150.8430 S   0  0  0  0  0  0  0  0  0  0  0  0
  161.0470  205.6270  148.8810 C   0  0  0  0  0  0  0  0  0  0  0  0
  160.5700  205.8720  150.2890 C   0  0  2  0  0  3  0  0  0  0  0  0
  161.1570  204.3040  148.3390 N   0  0  0  0  0  0  0  0  0  0  0  0
  1 14  1  0  0  0  0
  2 13  1  0  0  0  0
  2  3  1  1  0  0  0
  3 19  1  0  0  0  0
  4 15  2  0  0  0  0
  5 14  1  6  0  0  0
  5  2  1  0  0  0  0
  6 17  1  0  0  0  0
  6  1  2  0  0  0  0
  7  3  2  0  0  0  0
  7  4  1  0  0  0  0
  8 21  1  1  0  0  0
  8 13  1  0  0  0  0
  9  1  1  0  0  0  0
 11  4  1  0  0  0  0
 12  8  1  0  0  0  0
 13 18  1  1  0  0  0
 15 20  1  0  0  0  0
 16 17  1  6  0  0  0
 16 12  1  0  0  0  0
 16  5  1  0  0  0  0
 18 10  1  0  0  0  0
 19 10  1  0  0  0  0
 19 20  2  0  0  0  0
 23 22  1  6  0  0  0
 23 21  1  0  0  0  0
 24 28  1  0  0  0  0
 26 29  2  0  0  0  0
 27 24  1  0  0  0  0
 28 25  1  0  0  0  0
 29 30  1  0  0  0  0
 30 25  1  0  0  0  0
 30 23  1  1  0  0  0
 31 29  1  0  0  0  0
 31 24  2  0  0  0  0
M  END
>  <MODEL>
5

>  <REMARK>
 VINA RESULT:      -3.7      4.049      6.900
  Name = 
  3 active torsions:
  status: ('A' for Active; 'I' for Inactive)
    1  A    between atoms: C_5  and  C_16
    2  A    between atoms: C_5  and  C_30
    3  A    between atoms: C_10  and  C_16
                            x       y       z     vdW  Elec       q    Type
                         _______ _______ _______ _____ _____    ______ ____

>  <TORSDO>
F 3

$$$$
=
 OpenBabel11122413293D

 31 35  0  0  1  0  0  0  0  0999 V2000
  162.2550  205.8550  147.2380 C   0  0  0  0  0  0  0  0  0  0  0  0
  162.4390  209.0190  149.4740 C   0  0  2  0  0  3  0  0  0  0  0  0
  161.7790  210.3440  149.1580 C   0  0  0  0  0  0  0  0  0  0  0  0
  160.6660  211.8280  147.5840 C   0  0  0  0  0  0  0  0  0  0  0  0
  161.7910  207.8410  148.7280 C   0  0  1  0  0  3  0  0  0  0  0  0
  161.1970  205.2210  147.7780 C   0  0  0  0  0  3  0  0  0  0  0  0
  161.2360  210.5890  147.8860 C   0  0  0  0  0  3  0  0  0  0  0  0
  161.1930  208.1350  151.5790 C   0  0  1  0  0  3  0  0  0  0  0  0
  162.9510  205.2400  146.2490 F   0  0  0  0  0  0  0  0  0  0  0  0
  162.3530  211.1780  151.4090 N   0  0  0  0  0  2  0  0  0  0  0  0
  160.1210  212.0540  146.3280 O   0  0  0  0  0  1  0  0  0  0  0  0
  160.3710  207.4940  150.6150 O   0  0  0  0  0  0  0  0  0  0  0  0
  162.5030  208.7570  150.9930 C   0  0  2  0  0  3  0  0  0  0  0  0
  162.7950  207.1480  147.8080 C   0  0  0  0  0  2  0  0  0  0  0  0
  160.6460  212.8410  148.5460 C   0  0  0  0  0  3  0  0  0  0  0  0
  161.1860  206.8200  149.6930 C   0  0  1  0  0  3  0  0  0  0  0  0
  160.3670  205.8220  148.8850 C   0  0  0  0  0  2  0  0  0  0  0  0
  163.0810  209.9580  151.7490 C   0  0  0  0  0  2  0  0  0  0  0  0
  161.7870  211.3850  150.1110 C   0  0  0  0  0  0  0  0  0  0  0  0
  161.2050  212.6190  149.8060 C   0  0  0  0  0  3  0  0  0  0  0  0
  160.3460  209.1610  152.3240 C   0  0  0  0  0  2  0  0  0  0  0  0
  160.8710  207.8930  154.2930 O   0  0  0  0  0  1  0  0  0  0  0  0
  160.6630  209.1890  153.8140 C   0  0  2  0  0  3  0  0  0  0  0  0
  159.7050  212.7560  155.4720 C   0  0  0  0  0  0  0  0  0  0  0  0
  158.7510  210.9230  153.8540 C   0  0  0  0  0  2  0  0  0  0  0  0
  160.5500  209.6030  156.7920 O   0  0  0  0  0  0  0  0  0  0  0  0
  159.4790  214.1300  155.9900 C   0  0  0  0  0  1  0  0  0  0  0  0
  159.6670  212.4850  153.6960 S   0  0  0  0  0  0  0  0  0  0  0  0
  160.0730  210.4130  155.9540 C   0  0  0  0  0  0  0  0  0  0  0  0
  159.5690  209.8870  154.6340 C   0  0  2  0  0  3  0  0  0  0  0  0
  159.9580  211.7960  156.3110 N   0  0  0  0  0  0  0  0  0  0  0  0
  1  6  2  0  0  0  0
  1 14  1  0  0  0  0
  2  3  1  1  0  0  0
  2 13  1  0  0  0  0
  3 19  1  0  0  0  0
  4  7  1  0  0  0  0
  4 15  2  0  0  0  0
  5 14  1  1  0  0  0
  5  2  1  0  0  0  0
  5 16  1  0  0  0  0
  6 17  1  0  0  0  0
  7  3  2  0  0  0  0
  8 21  1  6  0  0  0
  9  1  1  0  0  0  0
 10 18  1  0  0  0  0
 11  4  1  0  0  0  0
 12  8  1  0  0  0  0
 13  8  1  0  0  0  0
 13 18  1  1  0  0  0
 15 20  1  0  0  0  0
 16 17  1  6  0  0  0
 16 12  1  0  0  0  0
 19 10  1  0  0  0  0
 20 19  2  0  0  0  0
 21 23  1  0  0  0  0
 23 22  1  1  0  0  0
 24 27  1  0  0  0  0
 24 31  2  0  0  0  0
 25 30  1  0  0  0  0
 28 25  1  0  0  0  0
 28 24  1  0  0  0  0
 29 31  1  0  0  0  0
 29 26  2  0  0  0  0
 30 23  1  6  0  0  0
 30 29  1  0  0  0  0
M  END
>  <MODEL>
6

>  <REMARK>
 VINA RESULT:      -3.7      2.837      6.622
  Name = 
  3 active torsions:
  status: ('A' for Active; 'I' for Inactive)
    1  A    between atoms: C_5  and  C_16
    2  A    between atoms: C_5  and  C_30
    3  A    between atoms: C_10  and  C_16
                            x       y       z     vdW  Elec       q    Type
                         _______ _______ _______ _____ _____    ______ ____

>  <TORSDO>
F 3

$$$$
=
 OpenBabel11122413293D

 31 35  0  0  1  0  0  0  0  0999 V2000
  162.5490  211.1000  149.1190 C   0  0  0  0  0  0  0  0  0  0  0  0
  162.2040  208.4890  151.9660 C   0  0  2  0  0  3  0  0  0  0  0  0
  161.1800  208.5510  153.0800 C   0  0  0  0  0  0  0  0  0  0  0  0
  159.5070  209.7810  154.3460 C   0  0  0  0  0  0  0  0  0  0  0  0
  161.7910  209.3150  150.7350 C   0  0  1  0  0  3  0  0  0  0  0  0
  161.7820  210.5410  148.1640 C   0  0  0  0  0  3  0  0  0  0  0  0
  160.4200  209.7130  153.2910 C   0  0  0  0  0  3  0  0  0  0  0  0
  161.5400  206.4020  150.5620 C   0  0  1  0  0  3  0  0  0  0  0  0
  163.2370  212.2320  148.8250 F   0  0  0  0  0  0  0  0  0  0  0  0
  161.8220  206.2820  153.8090 N   0  0  0  0  0  2  0  0  0  0  0  0
  158.7520  210.9300  154.5370 O   0  0  0  0  0  1  0  0  0  0  0  0
  160.7910  207.3510  149.8190 O   0  0  0  0  0  0  0  0  0  0  0  0
  162.5460  207.0350  151.5810 C   0  0  2  0  0  3  0  0  0  0  0  0
  162.8030  210.4220  150.4460 C   0  0  0  0  0  2  0  0  0  0  0  0
  159.3550  208.6950  155.2110 C   0  0  0  0  0  3  0  0  0  0  0  0
  161.6170  208.4370  149.4950 C   0  0  1  0  0  3  0  0  0  0  0  0
  160.9860  209.2810  148.3950 C   0  0  0  0  0  2  0  0  0  0  0  0
  162.8860  206.1900  152.8130 C   0  0  0  0  0  2  0  0  0  0  0  0
  161.0460  207.4720  153.9800 C   0  0  0  0  0  0  0  0  0  0  0  0
  160.1230  207.5430  155.0280 C   0  0  0  0  0  3  0  0  0  0  0  0
  160.5660  205.4390  151.2310 C   0  0  0  0  0  2  0  0  0  0  0  0
  162.2980  203.8200  150.8590 O   0  0  0  0  0  1  0  0  0  0  0  0
  160.9130  203.9840  150.9430 C   0  0  2  0  0  3  0  0  0  0  0  0
  161.2740  201.1490  148.0750 C   0  0  0  0  0  0  0  0  0  0  0  0
  159.5560  202.0970  149.8180 C   0  0  0  0  0  2  0  0  0  0  0  0
  161.5690  204.6580  148.0850 O   0  0  0  0  0  0  0  0  0  0  0  0
  161.5210  200.0360  147.1210 C   0  0  0  0  0  1  0  0  0  0  0  0
  160.7770  200.7520  149.7560 S   0  0  0  0  0  0  0  0  0  0  0  0
  161.1380  203.5350  148.4590 C   0  0  0  0  0  0  0  0  0  0  0  0
  160.2400  203.4610  149.6660 C   0  0  2  0  0  3  0  0  0  0  0  0
  161.4560  202.3740  147.6810 N   0  0  0  0  0  0  0  0  0  0  0  0
  1 14  1  0  0  0  0
  2  3  1  1  0  0  0
  3  7  2  0  0  0  0
  3 19  1  0  0  0  0
  4 11  1  0  0  0  0
  4 15  2  0  0  0  0
  5 14  1  6  0  0  0
  5  2  1  0  0  0  0
  6 17  1  0  0  0  0
  6  1  2  0  0  0  0
  7  4  1  0  0  0  0
  8 21  1  1  0  0  0
  8 13  1  0  0  0  0
  9  1  1  0  0  0  0
 10 19  1  0  0  0  0
 12  8  1  0  0  0  0
 13  2  1  0  0  0  0
 13 18  1  1  0  0  0
 16 17  1  6  0  0  0
 16 12  1  0  0  0  0
 16  5  1  0  0  0  0
 18 10  1  0  0  0  0
 19 20  2  0  0  0  0
 20 15  1  0  0  0  0
 23 22  1  6  0  0  0
 23 21  1  0  0  0  0
 24 28  1  0  0  0  0
 26 29  2  0  0  0  0
 27 24  1  0  0  0  0
 28 25  1  0  0  0  0
 29 30  1  0  0  0  0
 30 25  1  0  0  0  0
 30 23  1  1  0  0  0
 31 24  2  0  0  0  0
 31 29  1  0  0  0  0
M  END
>  <MODEL>
7

>  <REMARK>
 VINA RESULT:      -3.2      4.987      7.627
  Name = 
  3 active torsions:
  status: ('A' for Active; 'I' for Inactive)
    1  A    between atoms: C_5  and  C_16
    2  A    between atoms: C_5  and  C_30
    3  A    between atoms: C_10  and  C_16
                            x       y       z     vdW  Elec       q    Type
                         _______ _______ _______ _____ _____    ______ ____

>  <TORSDO>
F 3

$$$$
=
 OpenBabel11122413293D

 31 35  0  0  1  0  0  0  0  0999 V2000
  161.2610  205.2460  144.1750 C   0  0  0  0  0  0  0  0  0  0  0  0
  160.4360  204.3810  147.8650 C   0  0  2  0  0  3  0  0  0  0  0  0
  160.7410  203.0570  148.5350 C   0  0  0  0  0  0  0  0  0  0  0  0
  161.3800  200.7150  148.3920 C   0  0  0  0  0  0  0  0  0  0  0  0
  161.3100  204.6320  146.6240 C   0  0  1  0  0  3  0  0  0  0  0  0
  162.4660  205.8280  144.3120 C   0  0  0  0  0  3  0  0  0  0  0  0
  161.1420  201.9460  147.7760 C   0  0  0  0  0  3  0  0  0  0  0  0
  161.9670  206.1070  149.0670 C   0  0  1  0  0  3  0  0  0  0  0  0
  160.6830  205.2190  142.9480 F   0  0  0  0  0  0  0  0  0  0  0  0
  160.1010  204.0060  150.7220 N   0  0  0  0  0  2  0  0  0  0  0  0
  161.7890  199.6270  147.6330 O   0  0  0  0  0  1  0  0  0  0  0  0
  162.8670  205.7850  148.0180 O   0  0  0  0  0  0  0  0  0  0  0  0
  160.5160  205.5590  148.8580 C   0  0  2  0  0  3  0  0  0  0  0  0
  160.4560  204.7730  145.3650 C   0  0  0  0  0  2  0  0  0  0  0  0
  161.2060  200.5780  149.7710 C   0  0  0  0  0  3  0  0  0  0  0  0
  162.1920  205.8710  146.7910 C   0  0  1  0  0  3  0  0  0  0  0  0
  163.1840  205.9120  145.6360 C   0  0  0  0  0  2  0  0  0  0  0  0
  159.7060  205.2810  150.1290 C   0  0  0  0  0  2  0  0  0  0  0  0
  160.5320  202.9010  149.9220 C   0  0  0  0  0  0  0  0  0  0  0  0
  160.7830  201.6680  150.5330 C   0  0  0  0  0  3  0  0  0  0  0  0
  162.5790  205.6420  150.3840 C   0  0  0  0  0  2  0  0  0  0  0  0
  163.0810  206.2880  152.6400 O   0  0  0  0  0  1  0  0  0  0  0  0
  162.7010  206.7800  151.3900 C   0  0  2  0  0  3  0  0  0  0  0  0
  161.1080  209.9700  153.3070 C   0  0  0  0  0  0  0  0  0  0  0  0
  161.4750  208.9980  150.8980 C   0  0  0  0  0  2  0  0  0  0  0  0
  160.5150  206.5010  153.4390 O   0  0  0  0  0  0  0  0  0  0  0  0
  160.6800  211.1790  154.0590 C   0  0  0  0  0  1  0  0  0  0  0  0
  162.3370  210.1500  152.0090 S   0  0  0  0  0  0  0  0  0  0  0  0
  160.8460  207.5960  152.9120 C   0  0  0  0  0  0  0  0  0  0  0  0
  161.4060  207.5950  151.5130 C   0  0  2  0  0  3  0  0  0  0  0  0
  160.6110  208.8140  153.6320 N   0  0  0  0  0  0  0  0  0  0  0  0
  1  6  2  0  0  0  0
  1 14  1  0  0  0  0
  2  3  1  1  0  0  0
  2 13  1  0  0  0  0
  3 19  1  0  0  0  0
  4 15  2  0  0  0  0
  5 14  1  6  0  0  0
  5 16  1  0  0  0  0
  5  2  1  0  0  0  0
  6 17  1  0  0  0  0
  7  4  1  0  0  0  0
  7  3  2  0  0  0  0
  8 21  1  1  0  0  0
  9  1  1  0  0  0  0
 11  4  1  0  0  0  0
 12  8  1  0  0  0  0
 13  8  1  0  0  0  0
 13 18  1  1  0  0  0
 15 20  1  0  0  0  0
 16 17  1  6  0  0  0
 16 12  1  0  0  0  0
 18 10  1  0  0  0  0
 19 20  2  0  0  0  0
 19 10  1  0  0  0  0
 21 23  1  0  0  0  0
 23 22  1  1  0  0  0
 24 31  2  0  0  0  0
 24 27  1  0  0  0  0
 25 30  1  0  0  0  0
 25 28  1  0  0  0  0
 28 24  1  0  0  0  0
 29 26  2  0  0  0  0
 29 31  1  0  0  0  0
 30 23  1  1  0  0  0
 30 29  1  0  0  0  0
M  END
>  <MODEL>
8

>  <REMARK>
 VINA RESULT:      -3.1      5.338      8.676
  Name = 
  3 active torsions:
  status: ('A' for Active; 'I' for Inactive)
    1  A    between atoms: C_5  and  C_16
    2  A    between atoms: C_5  and  C_30
    3  A    between atoms: C_10  and  C_16
                            x       y       z     vdW  Elec       q    Type
                         _______ _______ _______ _____ _____    ______ ____

>  <TORSDO>
F 3

$$$$
=
 OpenBabel11122413293D

 31 35  0  0  1  0  0  0  0  0999 V2000
  161.1250  200.9530  148.9690 C   0  0  0  0  0  0  0  0  0  0  0  0
  162.1460  204.6240  149.6920 C   0  0  2  0  0  3  0  0  0  0  0  0
  161.7100  205.8230  148.8750 C   0  0  0  0  0  0  0  0  0  0  0  0
  160.7160  206.7600  146.8630 C   0  0  0  0  0  0  0  0  0  0  0  0
  161.2100  203.4160  149.5180 C   0  0  1  0  0  3  0  0  0  0  0  0
  160.0380  200.8310  149.7530 C   0  0  0  0  0  3  0  0  0  0  0  0
  161.0790  205.6520  147.6330 C   0  0  0  0  0  3  0  0  0  0  0  0
  161.0080  204.9430  152.0090 C   0  0  1  0  0  3  0  0  0  0  0  0
  161.5770  199.8610  148.3030 F   0  0  0  0  0  0  0  0  0  0  0  0
  162.6830  207.3390  150.5630 N   0  0  0  0  0  2  0  0  0  0  0  0
  160.0810  206.5790  145.6420 O   0  0  0  0  0  1  0  0  0  0  0  0
  159.9770  204.1650  151.4200 O   0  0  0  0  0  0  0  0  0  0  0  0
  162.3350  204.9820  151.1800 C   0  0  2  0  0  3  0  0  0  0  0  0
  161.9560  202.2160  148.9380 C   0  0  0  0  0  2  0  0  0  0  0  0
  160.9940  208.0500  147.3200 C   0  0  0  0  0  3  0  0  0  0  0  0
  160.5420  203.0210  150.8360 C   0  0  1  0  0  3  0  0  0  0  0  0
  159.4660  201.9850  150.5370 C   0  0  0  0  0  2  0  0  0  0  0  0
  163.2080  206.2290  151.3550 C   0  0  0  0  0  2  0  0  0  0  0  0
  162.0190  207.1290  149.3130 C   0  0  0  0  0  0  0  0  0  0  0  0
  161.6440  208.2330  148.5420 C   0  0  0  0  0  3  0  0  0  0  0  0
  160.4570  206.3370  152.2880 C   0  0  0  0  0  2  0  0  0  0  0  0
  161.2690  205.9550  154.5140 O   0  0  0  0  0  1  0  0  0  0  0  0
  161.0540  206.9440  153.5510 C   0  0  2  0  0  3  0  0  0  0  0  0
  161.2270  210.2120  155.9350 C   0  0  0  0  0  0  0  0  0  0  0  0
  160.4560  209.4560  153.5430 C   0  0  0  0  0  2  0  0  0  0  0  0
  159.7050  207.0510  156.2390 O   0  0  0  0  0  0  0  0  0  0  0  0
  161.4580  211.3990  156.7990 C   0  0  0  0  0  1  0  0  0  0  0  0
  161.9430  210.1910  154.2870 S   0  0  0  0  0  0  0  0  0  0  0  0
  160.1520  208.0640  155.6380 C   0  0  0  0  0  0  0  0  0  0  0  0
  160.1820  208.0670  154.1310 C   0  0  2  0  0  3  0  0  0  0  0  0
  160.5470  209.2100  156.4040 N   0  0  0  0  0  0  0  0  0  0  0  0
  1  6  2  0  0  0  0
  2  3  1  6  0  0  0
  2 13  1  0  0  0  0
  3 19  1  0  0  0  0
  4 15  2  0  0  0  0
  4  7  1  0  0  0  0
  5 14  1  1  0  0  0
  5  2  1  0  0  0  0
  5 16  1  0  0  0  0
  6 17  1  0  0  0  0
  7  3  2  0  0  0  0
  8 21  1  6  0  0  0
  9  1  1  0  0  0  0
 10 18  1  0  0  0  0
 11  4  1  0  0  0  0
 12  8  1  0  0  0  0
 13 18  1  6  0  0  0
 13  8  1  0  0  0  0
 14  1  1  0  0  0  0
 15 20  1  0  0  0  0
 16 17  1  6  0  0  0
 16 12  1  0  0  0  0
 19 10  1  0  0  0  0
 20 19  2  0  0  0  0
 21 23  1  0  0  0  0
 23 22  1  1  0  0  0
 24 31  2  0  0  0  0
 24 27  1  0  0  0  0
 25 30  1  0  0  0  0
 25 28  1  0  0  0  0
 28 24  1  0  0  0  0
 29 26  2  0  0  0  0
 29 31  1  0  0  0  0
 30 23  1  1  0  0  0
 30 29  1  0  0  0  0
M  END
>  <MODEL>
9

>  <REMARK>
 VINA RESULT:      -3.0      4.437      8.168
  Name = 
  3 active torsions:
  status: ('A' for Active; 'I' for Inactive)
    1  A    between atoms: C_5  and  C_16
    2  A    between atoms: C_5  and  C_30
    3  A    between atoms: C_10  and  C_16
                            x       y       z     vdW  Elec       q    Type
                         _______ _______ _______ _____ _____    ______ ____

>  <TORSDO>
F 3

$$$$
