=
 OpenBabel11122414023D

 28 32  0  0  1  0  0  0  0  0999 V2000
  161.5170  205.9790  152.2850 C   0  0  0  0  0  0  0  0  0  0  0  0
  163.4340  207.7280  148.7760 O   0  0  0  0  0  0  0  0  0  0  0  0
  158.1940  210.5420  153.3170 O   0  0  0  0  0  1  0  0  0  0  0  0
  160.0650  204.9880  150.1000 C   0  0  0  0  0  3  0  0  0  0  0  0
  160.3560  211.3430  152.7170 C   0  0  0  0  0  0  0  0  0  0  0  0
  162.2910  206.4470  153.4740 C   0  0  0  0  0  2  0  0  0  0  0  0
  161.1150  207.9830  147.9600 O   0  0  0  0  0  0  0  0  0  0  0  0
  162.2430  208.6400  148.7030 S   0  0  0  0  0  0  0  0  0  0  0  0
  162.3800  211.3780  148.4760 C   0  0  0  0  0  0  0  0  0  0  0  0
  161.7470  209.0930  150.2930 N   0  0  0  0  0  0  0  0  0  0  0  0
  159.8330  207.0620  156.1070 O   0  0  0  0  0  0  0  0  0  0  0  0
  161.0080  209.1670  152.3910 C   0  0  0  0  0  0  0  0  0  0  0  0
  161.8530  211.4970  149.8060 N   0  0  0  0  0  2  0  0  0  0  0  0
  162.6720  210.1030  147.8940 N   0  0  0  0  0  2  0  0  0  0  0  0
  160.6920  207.3330  155.2270 C   0  0  0  0  0  0  0  0  0  0  0  0
  161.0710  206.8660  151.2780 C   0  0  0  0  0  0  0  0  0  0  0  0
  159.5410  210.5180  153.6850 C   0  0  2  0  0  3  0  0  0  0  0  0
  162.6820  212.7310  147.6170 S   0  0  0  0  0  0  0  0  0  0  0  0
  160.8780  208.7510  154.8030 C   0  0  0  0  0  2  0  0  0  0  0  0
  160.3400  206.3540  150.1990 C   0  0  0  0  0  3  0  0  0  0  0  0
  161.2430  204.6090  152.1740 C   0  0  0  0  0  3  0  0  0  0  0  0
  160.5200  204.1150  151.0880 C   0  0  0  0  0  3  0  0  0  0  0  0
  161.4840  206.2820  154.6740 N   0  0  0  0  0  2  0  0  0  0  0  0
  161.1830  210.4320  151.9680 C   0  0  0  0  0  0  0  0  0  0  0  0
  160.0770  209.0670  153.5520 C   0  0  2  0  0  3  0  0  0  0  0  0
  161.6370  210.3800  150.6730 C   0  0  0  0  0  0  0  0  0  0  0  0
  160.0460  212.5740  152.3280 C   0  0  0  0  0  2  0  0  0  0  0  0
  161.3350  208.3210  151.3370 C   0  0  0  0  0  0  0  0  0  0  0  0
  1  6  1  0  0  0  0
  4 20  2  0  0  0  0
  4 22  1  0  0  0  0
  5 17  1  0  0  0  0
  6 23  1  0  0  0  0
  7  8  2  0  0  0  0
  8  2  2  0  0  0  0
  8 10  1  0  0  0  0
  9 13  1  0  0  0  0
 10 26  1  0  0  0  0
 10 28  1  0  0  0  0
 12 25  1  0  0  0  0
 13 26  1  0  0  0  0
 14  9  1  0  0  0  0
 14  8  1  0  0  0  0
 15 11  2  0  0  0  0
 16 28  1  0  0  0  0
 16  1  2  0  0  0  0
 17  3  1  6  0  0  0
 18  9  2  0  0  0  0
 19 15  1  0  0  0  0
 20 16  1  0  0  0  0
 21  1  1  0  0  0  0
 22 21  2  0  0  0  0
 23 15  1  0  0  0  0
 24 12  1  0  0  0  0
 24  5  1  0  0  0  0
 25 17  1  0  0  0  0
 25 19  1  1  0  0  0
 26 24  2  0  0  0  0
 27  5  2  0  0  0  0
 28 12  2  0  0  0  0
M  END
>  <MODEL>
1

>  <REMARK>
 VINA RESULT:      -5.6      0.000      0.000
  Name = 
  0 active torsions:
  status: ('A' for Active; 'I' for Inactive)
                            x       y       z     vdW  Elec       q    Type
                         _______ _______ _______ _____ _____    ______ ____

>  <TORSDO>
F 0

$$$$
=
 OpenBabel11122414023D

 28 32  0  0  1  0  0  0  0  0999 V2000
  161.9440  205.6100  150.9930 C   0  0  0  0  0  0  0  0  0  0  0  0
  162.3720  201.3060  150.4140 O   0  0  0  0  0  0  0  0  0  0  0  0
  159.2970  206.4880  145.9780 O   0  0  0  0  0  1  0  0  0  0  0  0
  159.7580  204.4800  152.3370 C   0  0  0  0  0  3  0  0  0  0  0  0
  161.0660  204.9380  145.6000 C   0  0  0  0  0  0  0  0  0  0  0  0
  163.1190  206.2510  150.3270 C   0  0  0  0  0  2  0  0  0  0  0  0
  159.9190  201.3650  150.1180 O   0  0  0  0  0  0  0  0  0  0  0  0
  161.2490  201.4280  149.4230 S   0  0  0  0  0  0  0  0  0  0  0  0
  161.3020  200.4180  146.8650 C   0  0  0  0  0  0  0  0  0  0  0  0
  161.4050  202.8960  148.5300 N   0  0  0  0  0  0  0  0  0  0  0  0
  161.8660  209.3230  148.7970 O   0  0  0  0  0  0  0  0  0  0  0  0
  161.5310  205.0100  147.8460 C   0  0  0  0  0  0  0  0  0  0  0  0
  161.3280  201.7600  146.3550 N   0  0  0  0  0  2  0  0  0  0  0  0
  161.3410  200.1460  148.2700 N   0  0  0  0  0  2  0  0  0  0  0  0
  162.3210  208.1510  148.8550 C   0  0  0  0  0  0  0  0  0  0  0  0
  161.1490  204.6360  150.3460 C   0  0  0  0  0  0  0  0  0  0  0  0
  160.6820  206.3250  146.0570 C   0  0  2  0  0  3  0  0  0  0  0  0
  161.2570  199.1700  145.8160 S   0  0  0  0  0  0  0  0  0  0  0  0
  162.3380  207.3140  147.6200 C   0  0  0  0  0  2  0  0  0  0  0  0
  160.0570  204.0890  151.0310 C   0  0  0  0  0  3  0  0  0  0  0  0
  161.6420  205.9910  152.3070 C   0  0  0  0  0  3  0  0  0  0  0  0
  160.5540  205.4300  152.9770 C   0  0  0  0  0  3  0  0  0  0  0  0
  162.8350  207.6590  150.0920 N   0  0  0  0  0  2  0  0  0  0  0  0
  161.5360  204.2200  146.7570 C   0  0  0  0  0  0  0  0  0  0  0  0
  161.1180  206.4120  147.5440 C   0  0  2  0  0  3  0  0  0  0  0  0
  161.4560  202.9180  147.1850 C   0  0  0  0  0  0  0  0  0  0  0  0
  160.6360  204.3670  144.4810 C   0  0  0  0  0  2  0  0  0  0  0  0
  161.4230  204.1880  148.9620 C   0  0  0  0  0  0  0  0  0  0  0  0
  1 21  1  0  0  0  0
  4 22  1  0  0  0  0
  5 17  1  0  0  0  0
  5 24  1  0  0  0  0
  6  1  1  0  0  0  0
  8  7  2  0  0  0  0
  8  2  2  0  0  0  0
  9 14  1  0  0  0  0
 10 28  1  0  0  0  0
 10  8  1  0  0  0  0
 11 15  2  0  0  0  0
 12 28  2  0  0  0  0
 13  9  1  0  0  0  0
 13 26  1  0  0  0  0
 14  8  1  0  0  0  0
 15 23  1  0  0  0  0
 16  1  2  0  0  0  0
 16 20  1  0  0  0  0
 17  3  1  1  0  0  0
 17 25  1  0  0  0  0
 18  9  2  0  0  0  0
 19 15  1  0  0  0  0
 20  4  2  0  0  0  0
 21 22  2  0  0  0  0
 23  6  1  0  0  0  0
 24 26  2  0  0  0  0
 24 12  1  0  0  0  0
 25 19  1  6  0  0  0
 25 12  1  0  0  0  0
 26 10  1  0  0  0  0
 27  5  2  0  0  0  0
 28 16  1  0  0  0  0
M  END
>  <MODEL>
2

>  <REMARK>
 VINA RESULT:      -4.5      4.762      7.427
  Name = 
  0 active torsions:
  status: ('A' for Active; 'I' for Inactive)
                            x       y       z     vdW  Elec       q    Type
                         _______ _______ _______ _____ _____    ______ ____

>  <TORSDO>
F 0

$$$$
=
 OpenBabel11122414023D

 28 32  0  0  1  0  0  0  0  0999 V2000
  161.2740  207.3180  149.6950 C   0  0  0  0  0  0  0  0  0  0  0  0
  160.1420  205.7960  145.7650 O   0  0  0  0  0  0  0  0  0  0  0  0
  163.0970  202.2390  151.6470 O   0  0  0  0  0  1  0  0  0  0  0  0
  163.4780  207.8600  148.0480 C   0  0  0  0  0  3  0  0  0  0  0  0
  161.0870  201.8650  150.4250 C   0  0  0  0  0  0  0  0  0  0  0  0
  160.1040  207.0890  150.5960 C   0  0  0  0  0  2  0  0  0  0  0  0
  162.4880  205.0240  145.6760 O   0  0  0  0  0  0  0  0  0  0  0  0
  161.0790  204.6570  146.0460 S   0  0  0  0  0  0  0  0  0  0  0  0
  160.4340  201.9970  145.7730 C   0  0  0  0  0  0  0  0  0  0  0  0
  160.9790  204.2050  147.7090 N   0  0  0  0  0  0  0  0  0  0  0  0
  161.4940  206.1390  153.8390 O   0  0  0  0  0  0  0  0  0  0  0  0
  161.0390  204.1050  149.9300 C   0  0  0  0  0  0  0  0  0  0  0  0
  160.5100  201.8500  147.1990 N   0  0  0  0  0  2  0  0  0  0  0  0
  160.6040  203.2680  145.1370 N   0  0  0  0  0  2  0  0  0  0  0  0
  160.8930  205.9990  152.7420 C   0  0  0  0  0  0  0  0  0  0  0  0
  161.7950  206.3010  148.8630 C   0  0  0  0  0  0  0  0  0  0  0  0
  161.7380  202.5600  151.5960 C   0  0  2  0  0  3  0  0  0  0  0  0
  160.1160  200.6860  144.8550 S   0  0  0  0  0  0  0  0  0  0  0  0
  160.5410  204.6260  152.2740 C   0  0  0  0  0  2  0  0  0  0  0  0
  162.9020  206.5880  148.0540 C   0  0  0  0  0  3  0  0  0  0  0  0
  161.8530  208.5930  149.6780 C   0  0  0  0  0  3  0  0  0  0  0  0
  162.9500  208.8650  148.8600 C   0  0  0  0  0  3  0  0  0  0  0  0
  160.5400  207.1550  151.9830 N   0  0  0  0  0  2  0  0  0  0  0  0
  160.7300  202.8800  149.4680 C   0  0  0  0  0  0  0  0  0  0  0  0
  161.5870  204.0800  151.3180 C   0  0  2  0  0  3  0  0  0  0  0  0
  160.6970  202.9480  148.0970 C   0  0  0  0  0  0  0  0  0  0  0  0
  161.2270  200.5760  150.1400 C   0  0  0  0  0  2  0  0  0  0  0  0
  161.2220  204.9370  148.8320 C   0  0  0  0  0  0  0  0  0  0  0  0
  1  6  1  0  0  0  0
  2  8  2  0  0  0  0
  4 20  2  0  0  0  0
  4 22  1  0  0  0  0
  5 17  1  0  0  0  0
  6 23  1  0  0  0  0
  7  8  2  0  0  0  0
  8 10  1  0  0  0  0
  9 13  1  0  0  0  0
 10 26  1  0  0  0  0
 10 28  1  0  0  0  0
 12 25  1  0  0  0  0
 13 26  1  0  0  0  0
 14  9  1  0  0  0  0
 14  8  1  0  0  0  0
 15 11  2  0  0  0  0
 16  1  2  0  0  0  0
 17  3  1  6  0  0  0
 18  9  2  0  0  0  0
 19 15  1  0  0  0  0
 20 16  1  0  0  0  0
 21  1  1  0  0  0  0
 22 21  2  0  0  0  0
 23 15  1  0  0  0  0
 24 12  1  0  0  0  0
 24  5  1  0  0  0  0
 25 17  1  0  0  0  0
 25 19  1  1  0  0  0
 26 24  2  0  0  0  0
 27  5  2  0  0  0  0
 28 16  1  0  0  0  0
 28 12  2  0  0  0  0
M  END
>  <MODEL>
3

>  <REMARK>
 VINA RESULT:      -3.3      4.030      6.826
  Name = 
  0 active torsions:
  status: ('A' for Active; 'I' for Inactive)
                            x       y       z     vdW  Elec       q    Type
                         _______ _______ _______ _____ _____    ______ ____

>  <TORSDO>
F 0

$$$$
