=
 OpenBabel11122414063D

 28 32  0  0  1  0  0  0  0  0999 V2000
  156.5860  212.8340  153.8600 C   0  0  0  0  0  0  0  0  0  0  0  0
  159.9230  213.9880  156.7260 O   0  0  0  0  0  0  0  0  0  0  0  0
  160.4500  212.5760  150.2010 C   0  0  0  0  0  2  0  0  0  0  0  0
  156.3500  210.5770  155.4520 C   0  0  0  0  0  3  0  0  0  0  0  0
  156.6990  213.8680  152.9330 O   0  0  0  0  0  0  0  0  0  0  0  0
  159.1230  211.6870  157.0830 O   0  0  0  0  0  0  0  0  0  0  0  0
  160.1610  212.5390  156.4100 S   0  0  0  0  0  0  0  0  0  0  0  0
  162.1630  210.7010  156.3220 C   0  0  2  0  0  3  0  0  0  0  0  0
  160.2290  212.2990  154.6930 N   0  0  1  0  0  0  0  0  0  0  0  0
  158.0840  214.3880  149.4730 C   0  0  0  0  0  1  0  0  0  0  0  0
  159.3840  211.9300  152.5190 C   0  0  2  0  0  3  0  0  0  0  0  0
  162.0820  210.7350  154.7900 C   0  0  0  0  0  2  0  0  0  0  0  0
  161.7770  212.0370  156.9710 C   0  0  0  0  0  2  0  0  0  0  0  0
  158.0410  214.4530  150.9910 C   0  0  2  0  0  3  0  0  0  0  0  0
  157.7260  212.1540  154.3200 C   0  0  0  0  0  0  0  0  0  0  0  0
  161.2130  213.0170  151.3000 O   0  0  0  0  0  0  0  0  0  0  0  0
  163.4560  210.3560  156.7110 O   0  0  0  0  0  1  0  0  0  0  0  0
  159.3190  214.3060  151.5910 O   0  0  0  0  0  0  0  0  0  0  0  0
  157.5730  211.0130  155.0490 N   0  0  0  0  0  0  0  0  0  0  0  0
  155.3230  212.4140  154.2840 C   0  0  0  0  0  3  0  0  0  0  0  0
  155.2010  211.2850  155.0930 C   0  0  0  0  0  3  0  0  0  0  0  0
  156.9500  213.5550  151.5690 C   0  0  0  0  0  2  0  0  0  0  0  0
  160.4490  210.8660  152.8420 C   0  0  1  0  0  3  0  0  0  0  0  0
  159.8160  212.9830  151.4770 C   0  0  1  0  0  0  0  0  0  0  0  0
  160.6370  210.9550  154.3500 C   0  0  2  0  0  3  0  0  0  0  0  0
  159.0820  212.6140  153.8450 C   0  0  1  0  0  3  0  0  0  0  0  0
  159.9290  209.4950  152.4470 C   0  0  0  0  0  2  0  0  0  0  0  0
  161.0450  208.6560  151.8540 C   0  0  0  0  0  1  0  0  0  0  0  0
  1 20  2  0  0  0  0
  1 15  1  0  0  0  0
  3 16  1  0  0  0  0
  3 24  1  0  0  0  0
  5  1  1  0  0  0  0
  7  2  2  0  0  0  0
  7 13  1  0  0  0  0
  7  6  2  0  0  0  0
  8 17  1  6  0  0  0
  8 13  1  0  0  0  0
  9  7  1  1  0  0  0
 10 14  1  0  0  0  0
 11 23  1  0  0  0  0
 11 26  1  0  0  0  0
 12  8  1  0  0  0  0
 14 22  1  0  0  0  0
 14 18  1  0  0  0  0
 15 19  2  0  0  0  0
 16 24  1  0  0  0  0
 19  4  1  0  0  0  0
 20 21  1  0  0  0  0
 21  4  2  0  0  0  0
 22  5  1  0  0  0  0
 23 25  1  0  0  0  0
 24 18  1  0  0  0  0
 24 11  1  0  0  0  0
 25  9  1  0  0  0  0
 25 12  1  0  0  0  0
 26 15  1  0  0  0  0
 26  9  1  0  0  0  0
 27 23  1  0  0  0  0
 28 27  1  0  0  0  0
M  END
>  <MODEL>
1

>  <REMARK>
 VINA RESULT:      -2.1      0.000      0.000
  Name = 
  1 active torsions:
  status: ('A' for Active; 'I' for Inactive)
    1  A    between atoms: C_5  and  C_24
                            x       y       z     vdW  Elec       q    Type
                         _______ _______ _______ _____ _____    ______ ____

>  <TORSDO>
F 1

$$$$
=
 OpenBabel11122414063D

 28 32  0  0  1  0  0  0  0  0999 V2000
  160.8490  207.7550  155.2780 C   0  0  0  0  0  0  0  0  0  0  0  0
  157.4580  210.3730  153.7510 O   0  0  0  0  0  0  0  0  0  0  0  0
  162.2400  207.3720  150.1490 C   0  0  0  0  0  2  0  0  0  0  0  0
  161.7180  210.0630  156.5410 C   0  0  0  0  0  3  0  0  0  0  0  0
  160.5650  206.5740  154.5940 O   0  0  0  0  0  0  0  0  0  0  0  0
  159.2240  211.6710  154.8740 O   0  0  0  0  0  0  0  0  0  0  0  0
  158.7040  211.1880  153.5500 S   0  0  0  0  0  0  0  0  0  0  0  0
  159.6830  213.1980  152.0030 C   0  0  2  0  0  3  0  0  0  0  0  0
  159.8780  210.2840  152.6480 N   0  0  1  0  0  0  0  0  0  0  0  0
  161.8480  204.6950  151.5960 C   0  0  0  0  0  1  0  0  0  0  0  0
  161.6430  208.7530  152.3090 C   0  0  2  0  0  3  0  0  0  0  0  0
  160.5740  212.1710  151.2900 C   0  0  0  0  0  2  0  0  0  0  0  0
  158.3660  212.5970  152.5110 C   0  0  0  0  0  2  0  0  0  0  0  0
  160.9190  205.5950  152.3970 C   0  0  2  0  0  3  0  0  0  0  0  0
  160.8240  208.9920  154.6130 C   0  0  0  0  0  0  0  0  0  0  0  0
  161.0680  208.1410  150.0060 O   0  0  0  0  0  0  0  0  0  0  0  0
  159.4040  214.2520  151.1340 O   0  0  0  0  0  1  0  0  0  0  0  0
  160.3680  206.6510  151.6260 O   0  0  0  0  0  0  0  0  0  0  0  0
  161.3160  210.0960  155.2420 N   0  0  0  0  0  0  0  0  0  0  0  0
  161.2350  207.7070  156.6180 C   0  0  0  0  0  3  0  0  0  0  0  0
  161.6640  208.8680  157.2610 C   0  0  0  0  0  3  0  0  0  0  0  0
  161.5430  206.0220  153.7230 C   0  0  0  0  0  2  0  0  0  0  0  0
  162.0150  210.1090  151.6820 C   0  0  1  0  0  3  0  0  0  0  0  0
  161.3340  207.6340  151.2920 C   0  0  1  0  0  0  0  0  0  0  0  0
  161.0160  211.0940  152.2770 C   0  0  2  0  0  3  0  0  0  0  0  0
  160.4140  209.0250  153.1620 C   0  0  1  0  0  3  0  0  0  0  0  0
  163.4330  210.4780  152.0800 C   0  0  0  0  0  2  0  0  0  0  0  0
  163.5220  210.7000  153.5780 C   0  0  0  0  0  1  0  0  0  0  0  0
  1 20  1  0  0  0  0
  3 24  1  0  0  0  0
  4 21  1  0  0  0  0
  5  1  1  0  0  0  0
  7  2  2  0  0  0  0
  7  6  2  0  0  0  0
  8 17  1  6  0  0  0
  8 13  1  0  0  0  0
  9 26  1  0  0  0  0
  9  7  1  1  0  0  0
 10 14  1  0  0  0  0
 11 26  1  0  0  0  0
 12  8  1  0  0  0  0
 12 25  1  0  0  0  0
 13  7  1  0  0  0  0
 14 22  1  0  0  0  0
 15 19  1  0  0  0  0
 15  1  2  0  0  0  0
 16  3  1  0  0  0  0
 16 24  1  0  0  0  0
 18 14  1  0  0  0  0
 19  4  2  0  0  0  0
 20 21  2  0  0  0  0
 22  5  1  0  0  0  0
 23 27  1  0  0  0  0
 23 25  1  0  0  0  0
 23 11  1  0  0  0  0
 24 18  1  0  0  0  0
 24 11  1  0  0  0  0
 25  9  1  0  0  0  0
 26 15  1  0  0  0  0
 27 28  1  0  0  0  0
M  END
>  <MODEL>
2

>  <REMARK>
 VINA RESULT:      -1.4      2.892      5.941
  Name = 
  1 active torsions:
  status: ('A' for Active; 'I' for Inactive)
    1  A    between atoms: C_5  and  C_24
                            x       y       z     vdW  Elec       q    Type
                         _______ _______ _______ _____ _____    ______ ____

>  <TORSDO>
F 1

$$$$
=
 OpenBabel11122414063D

 28 32  0  0  1  0  0  0  0  0999 V2000
  157.9650  213.4910  151.4170 C   0  0  0  0  0  0  0  0  0  0  0  0
  159.2890  209.2580  152.4230 O   0  0  0  0  0  0  0  0  0  0  0  0
  156.1530  213.6150  156.4260 C   0  0  0  0  0  2  0  0  0  0  0  0
  160.6770  214.0010  151.1570 C   0  0  0  0  0  3  0  0  0  0  0  0
  156.5940  213.3700  151.6360 O   0  0  0  0  0  0  0  0  0  0  0  0
  161.1760  210.8370  152.3070 O   0  0  0  0  0  0  0  0  0  0  0  0
  160.1980  210.1530  153.2190 S   0  0  0  0  0  0  0  0  0  0  0  0
  161.7190  210.1460  155.4720 C   0  0  2  0  0  3  0  0  0  0  0  0
  159.2660  211.2620  154.1730 N   0  0  1  0  0  0  0  0  0  0  0  0
  154.0840  214.3200  154.2740 C   0  0  0  0  0  1  0  0  0  0  0  0
  158.0450  213.2290  154.6370 C   0  0  2  0  0  3  0  0  0  0  0  0
  160.6870  211.0720  156.1310 C   0  0  0  0  0  2  0  0  0  0  0  0
  161.0990  209.2060  154.4310 C   0  0  0  0  0  2  0  0  0  0  0  0
  155.0200  213.4150  153.4880 C   0  0  2  0  0  3  0  0  0  0  0  0
  158.8880  212.9740  152.3430 C   0  0  0  0  0  0  0  0  0  0  0  0
  156.6120  212.2840  156.3880 O   0  0  0  0  0  0  0  0  0  0  0  0
  162.3580  209.3910  156.4530 O   0  0  0  0  0  1  0  0  0  0  0  0
  155.6460  212.4290  154.2950 O   0  0  0  0  0  0  0  0  0  0  0  0
  160.2060  213.2960  152.2200 N   0  0  0  0  0  0  0  0  0  0  0  0
  158.4330  214.1960  150.3080 C   0  0  0  0  0  3  0  0  0  0  0  0
  159.7980  214.4470  150.1680 C   0  0  0  0  0  3  0  0  0  0  0  0
  155.9650  214.2120  152.5940 C   0  0  0  0  0  2  0  0  0  0  0  0
  159.1590  213.0590  155.6860 C   0  0  1  0  0  3  0  0  0  0  0  0
  156.6160  212.9850  155.1670 C   0  0  1  0  0  0  0  0  0  0  0  0
  160.0940  212.0150  155.0890 C   0  0  2  0  0  3  0  0  0  0  0  0
  158.3650  212.2230  153.5420 C   0  0  1  0  0  3  0  0  0  0  0  0
  159.8830  214.3810  155.8730 C   0  0  0  0  0  2  0  0  0  0  0  0
  160.5060  214.4530  157.2540 C   0  0  0  0  0  1  0  0  0  0  0  0
  1  5  1  0  0  0  0
  1 15  1  0  0  0  0
  2  7  2  0  0  0  0
  4 19  1  0  0  0  0
  5 22  1  0  0  0  0
  6  7  2  0  0  0  0
  7 13  1  0  0  0  0
  8 12  1  0  0  0  0
  8 17  1  1  0  0  0
  9  7  1  6  0  0  0
  9 25  1  0  0  0  0
 11 24  1  0  0  0  0
 11 23  1  0  0  0  0
 13  8  1  0  0  0  0
 14 10  1  0  0  0  0
 14 18  1  0  0  0  0
 15 26  1  0  0  0  0
 16  3  1  0  0  0  0
 18 24  1  0  0  0  0
 19 15  2  0  0  0  0
 20  1  2  0  0  0  0
 21 20  1  0  0  0  0
 21  4  2  0  0  0  0
 22 14  1  0  0  0  0
 23 27  1  0  0  0  0
 24 16  1  0  0  0  0
 24  3  1  0  0  0  0
 25 23  1  0  0  0  0
 25 12  1  0  0  0  0
 26  9  1  0  0  0  0
 26 11  1  0  0  0  0
 27 28  1  0  0  0  0
M  END
>  <MODEL>
3

>  <REMARK>
 VINA RESULT:      -1.1      2.090      4.685
  Name = 
  1 active torsions:
  status: ('A' for Active; 'I' for Inactive)
    1  A    between atoms: C_5  and  C_24
                            x       y       z     vdW  Elec       q    Type
                         _______ _______ _______ _____ _____    ______ ____

>  <TORSDO>
F 1

$$$$
=
 OpenBabel11122414063D

 28 32  0  0  1  0  0  0  0  0999 V2000
  160.0550  209.7210  154.4920 C   0  0  0  0  0  0  0  0  0  0  0  0
  155.5330  210.0540  154.8520 O   0  0  0  0  0  0  0  0  0  0  0  0
  159.7360  214.4240  152.0100 C   0  0  0  0  0  2  0  0  0  0  0  0
  160.0270  209.8710  157.2600 C   0  0  0  0  0  3  0  0  0  0  0  0
  160.1870  209.7560  153.1050 O   0  0  0  0  0  0  0  0  0  0  0  0
  156.6850  210.4530  156.9920 O   0  0  0  0  0  0  0  0  0  0  0  0
  156.0790  211.1020  155.7810 S   0  0  0  0  0  0  0  0  0  0  0  0
  155.3920  213.4710  156.9220 C   0  0  2  0  0  3  0  0  0  0  0  0
  157.1870  212.1370  154.9370 N   0  0  1  0  0  0  0  0  0  0  0  0
  161.1950  212.2230  150.4480 C   0  0  0  0  0  1  0  0  0  0  0  0
  159.2620  212.8210  154.0430 C   0  0  2  0  0  3  0  0  0  0  0  0
  156.3910  214.1720  155.9910 C   0  0  0  0  0  2  0  0  0  0  0  0
  154.7820  212.2080  156.3020 C   0  0  0  0  0  2  0  0  0  0  0  0
  160.2550  211.3920  151.3090 C   0  0  2  0  0  3  0  0  0  0  0  0
  159.2140  210.6310  155.1560 C   0  0  0  0  0  0  0  0  0  0  0  0
  158.3630  214.1880  152.2170 O   0  0  0  0  0  0  0  0  0  0  0  0
  154.3710  214.3590  157.2590 O   0  0  0  0  0  1  0  0  0  0  0  0
  159.0430  212.0640  151.6160 O   0  0  0  0  0  0  0  0  0  0  0  0
  159.2720  210.7220  156.5140 N   0  0  0  0  0  0  0  0  0  0  0  0
  160.8180  208.8250  155.2420 C   0  0  0  0  0  3  0  0  0  0  0  0
  160.8000  208.8910  156.6350 C   0  0  0  0  0  3  0  0  0  0  0  0
  160.9730  210.7770  152.5060 C   0  0  0  0  0  2  0  0  0  0  0  0
  158.6970  213.9390  154.9380 C   0  0  1  0  0  3  0  0  0  0  0  0
  159.2380  213.1300  152.5310 C   0  0  1  0  0  0  0  0  0  0  0  0
  157.5940  213.2660  155.7440 C   0  0  2  0  0  3  0  0  0  0  0  0
  158.4040  211.5990  154.3320 C   0  0  1  0  0  3  0  0  0  0  0  0
  159.7920  214.4530  155.8560 C   0  0  0  0  0  2  0  0  0  0  0  0
  159.6540  213.8440  157.2390 C   0  0  0  0  0  1  0  0  0  0  0  0
  1 15  2  0  0  0  0
  1 20  1  0  0  0  0
  2  7  2  0  0  0  0
  3 16  1  0  0  0  0
  3 24  1  0  0  0  0
  5  1  1  0  0  0  0
  7 13  1  0  0  0  0
  7  6  2  0  0  0  0
  8 17  1  6  0  0  0
  9 25  1  0  0  0  0
  9  7  1  1  0  0  0
 10 14  1  0  0  0  0
 11 26  1  0  0  0  0
 11 23  1  0  0  0  0
 12  8  1  0  0  0  0
 13  8  1  0  0  0  0
 14 18  1  0  0  0  0
 14 22  1  0  0  0  0
 15 19  1  0  0  0  0
 16 24  1  0  0  0  0
 18 24  1  0  0  0  0
 19  4  2  0  0  0  0
 20 21  2  0  0  0  0
 21  4  1  0  0  0  0
 22  5  1  0  0  0  0
 23 25  1  0  0  0  0
 23 27  1  0  0  0  0
 24 11  1  0  0  0  0
 25 12  1  0  0  0  0
 26  9  1  0  0  0  0
 26 15  1  0  0  0  0
 27 28  1  0  0  0  0
M  END
>  <MODEL>
4

>  <REMARK>
 VINA RESULT:      -0.9      2.445      4.983
  Name = 
  1 active torsions:
  status: ('A' for Active; 'I' for Inactive)
    1  A    between atoms: C_5  and  C_24
                            x       y       z     vdW  Elec       q    Type
                         _______ _______ _______ _____ _____    ______ ____

>  <TORSDO>
F 1

$$$$
