=
 OpenBabel11122412463D

 30 35  0  0  1  0  0  0  0  0999 V2000
  161.0840  210.2100  152.6950 C   0  0  2  0  0  3  0  0  0  0  0  0
  160.0470  212.4930  151.9900 C   0  0  0  0  0  0  0  0  0  0  0  0
  162.0910  209.6380  148.7030 O   0  0  0  0  0  0  0  0  0  0  0  0
  161.2620  208.8270  152.0470 C   0  0  2  0  0  3  0  0  0  0  0  0
  159.9870  210.1360  153.5860 O   0  0  0  0  0  0  0  0  0  0  0  0
  160.1510  206.9840  154.8300 O   0  0  0  0  0  0  0  0  0  0  0  0
  160.7740  205.9410  151.5350 C   0  0  1  0  0  3  0  0  0  0  0  0
  160.6540  207.9450  154.2650 C   0  0  0  0  0  0  0  0  0  0  0  0
  160.7480  206.7620  150.2230 C   0  0  2  0  0  3  0  0  0  0  0  0
  161.9840  208.2700  148.6160 C   0  0  0  0  0  0  0  0  0  0  0  0
  160.3700  209.3600  154.7010 C   0  0  2  0  0  3  0  0  0  0  0  0
  161.6230  207.7970  153.1230 C   0  0  1  0  0  3  0  0  0  0  0  0
  159.6320  213.4080  150.9240 C   0  0  0  0  0  3  0  0  0  0  0  0
  160.4810  205.7350  149.1370 C   0  0  0  0  0  2  0  0  0  0  0  0
  160.9580  204.4820  151.1390 C   0  0  0  0  0  2  0  0  0  0  0  0
  159.7080  212.7410  153.1780 O   0  0  0  0  0  0  0  0  0  0  0  0
  162.3150  210.0620  150.0340 C   0  0  2  0  0  3  0  0  0  0  0  0
  160.1590  213.2950  149.7090 C   0  0  0  0  0  3  0  0  0  0  0  0
  160.8360  211.2790  151.6500 C   0  0  0  0  0  0  0  0  0  0  0  0
  162.2700  208.7820  150.8990 C   0  0  2  0  0  3  0  0  0  0  0  0
  161.9040  207.6720  147.5100 O   0  0  0  0  0  0  0  0  0  0  0  0
  162.0410  207.5830  149.9330 C   0  0  1  0  0  3  0  0  0  0  0  0
  161.0860  204.4440  149.6320 C   0  0  0  0  0  2  0  0  0  0  0  0
  161.9870  205.4390  153.5840 O   0  0  0  0  0  1  0  0  0  0  0  0
  161.2560  212.3110  149.4120 C   0  0  0  0  0  2  0  0  0  0  0  0
  161.3700  211.1770  150.4090 C   0  0  0  0  0  0  0  0  0  0  0  0
  161.8360  206.3770  152.5580 C   0  0  1  0  0  3  0  0  0  0  0  0
  159.3540  209.3910  155.6610 O   0  0  0  0  0  0  0  0  0  0  0  0
  161.0000  210.5290  156.9420 C   0  0  0  0  0  1  0  0  0  0  0  0
  159.5900  210.5560  156.3910 C   0  0  0  0  0  2  0  0  0  0  0  0
  1 19  1  6  0  0  0
  1  5  1  0  0  0  0
  2 16  2  0  0  0  0
  3 17  1  0  0  0  0
  4  1  1  0  0  0  0
  4 12  1  0  0  0  0
  5 11  1  0  0  0  0
  7 27  1  0  0  0  0
  8 11  1  0  0  0  0
  8  6  2  0  0  0  0
  9  7  1  0  0  0  0
 10  3  1  0  0  0  0
 10 22  1  0  0  0  0
 11 28  1  0  0  0  0
 12  8  1  0  0  0  0
 13  2  1  0  0  0  0
 14 23  1  0  0  0  0
 14  9  1  0  0  0  0
 15  7  1  0  0  0  0
 17 26  1  0  0  0  0
 17 20  1  0  0  0  0
 18 13  2  0  0  0  0
 19  2  1  0  0  0  0
 20  4  1  0  0  0  0
 21 10  2  0  0  0  0
 22  9  1  0  0  0  0
 22 20  1  0  0  0  0
 23 15  1  0  0  0  0
 25 18  1  0  0  0  0
 25 26  1  0  0  0  0
 26 19  2  0  0  0  0
 27 12  1  0  0  0  0
 27 24  1  0  0  0  0
 28 30  1  0  0  0  0
 30 29  1  0  0  0  0
M  END
>  <MODEL>
1

>  <REMARK>
 VINA RESULT:      -8.2      0.000      0.000
  Name = 
  2 active torsions:
  status: ('A' for Active; 'I' for Inactive)
    1  A    between atoms: C_11  and  O_28
    2  A    between atoms: O_28  and  C_30
                            x       y       z     vdW  Elec       q    Type
                         _______ _______ _______ _____ _____    ______ ____

>  <TORSDO>
F 2

$$$$
=
 OpenBabel11122412463D

 30 35  0  0  1  0  0  0  0  0999 V2000
  161.9290  205.7330  149.5520 C   0  0  2  0  0  3  0  0  0  0  0  0
  160.9090  203.3600  149.2170 C   0  0  0  0  0  0  0  0  0  0  0  0
  161.4060  205.1860  153.6390 O   0  0  0  0  0  0  0  0  0  0  0  0
  161.7480  206.8860  150.5530 C   0  0  2  0  0  3  0  0  0  0  0  0
  161.2160  206.0610  148.3750 O   0  0  0  0  0  0  0  0  0  0  0  0
  161.5400  209.4290  148.1330 O   0  0  0  0  0  0  0  0  0  0  0  0
  160.8650  209.5310  151.5780 C   0  0  1  0  0  3  0  0  0  0  0  0
  161.8910  208.3440  148.5740 C   0  0  0  0  0  0  0  0  0  0  0  0
  160.4470  208.3860  152.5310 C   0  0  2  0  0  3  0  0  0  0  0  0
  161.1580  206.4810  154.0310 C   0  0  0  0  0  0  0  0  0  0  0  0
  161.9010  207.1050  147.7160 C   0  0  2  0  0  3  0  0  0  0  0  0
  162.3770  208.1630  149.9870 C   0  0  1  0  0  3  0  0  0  0  0  0
  160.2240  202.1960  149.7850 C   0  0  0  0  0  3  0  0  0  0  0  0
  159.7260  209.0840  153.6700 C   0  0  0  0  0  2  0  0  0  0  0  0
  160.7720  210.8260  152.3750 C   0  0  0  0  0  2  0  0  0  0  0  0
  161.0350  203.4480  147.9670 O   0  0  0  0  0  0  0  0  0  0  0  0
  162.1220  205.1360  152.4190 C   0  0  2  0  0  3  0  0  0  0  0  0
  160.2750  201.9670  151.0930 C   0  0  0  0  0  3  0  0  0  0  0  0
  161.4190  204.4240  150.1220 C   0  0  0  0  0  0  0  0  0  0  0  0
  162.2770  206.6020  151.9580 C   0  0  2  0  0  3  0  0  0  0  0  0
  160.6420  206.7570  155.1460 O   0  0  0  0  0  0  0  0  0  0  0  0
  161.6190  207.4980  153.0490 C   0  0  1  0  0  3  0  0  0  0  0  0
  160.3550  210.4520  153.7810 C   0  0  0  0  0  2  0  0  0  0  0  0
  162.6770  210.5520  150.3140 O   0  0  0  0  0  1  0  0  0  0  0  0
  161.1070  202.8180  152.0120 C   0  0  0  0  0  2  0  0  0  0  0  0
  161.4690  204.1780  151.4520 C   0  0  0  0  0  0  0  0  0  0  0  0
  162.2530  209.3740  150.9360 C   0  0  1  0  0  3  0  0  0  0  0  0
  161.2970  207.3510  146.4790 O   0  0  0  0  0  0  0  0  0  0  0  0
  160.8920  205.6680  144.8500 C   0  0  0  0  0  1  0  0  0  0  0  0
  160.5400  206.2080  146.2200 C   0  0  0  0  0  2  0  0  0  0  0  0
  1  5  1  6  0  0  0
  1 19  1  0  0  0  0
  1  4  1  0  0  0  0
  2 13  1  0  0  0  0
  2 19  1  0  0  0  0
  3 10  1  0  0  0  0
  4 20  1  0  0  0  0
  6  8  2  0  0  0  0
  7 15  1  0  0  0  0
  7  9  1  0  0  0  0
  8 12  1  0  0  0  0
  9 22  1  0  0  0  0
  9 14  1  0  0  0  0
 10 21  2  0  0  0  0
 11  5  1  0  0  0  0
 11  8  1  0  0  0  0
 12  4  1  0  0  0  0
 12 27  1  0  0  0  0
 13 18  2  0  0  0  0
 14 23  1  0  0  0  0
 15 23  1  0  0  0  0
 16  2  2  0  0  0  0
 17  3  1  0  0  0  0
 18 25  1  0  0  0  0
 19 26  2  0  0  0  0
 20 17  1  0  0  0  0
 20 22  1  0  0  0  0
 22 10  1  0  0  0  0
 24 27  1  0  0  0  0
 26 25  1  0  0  0  0
 26 17  1  0  0  0  0
 27  7  1  0  0  0  0
 28 11  1  0  0  0  0
 29 30  1  0  0  0  0
 30 28  1  0  0  0  0
M  END
>  <MODEL>
2

>  <REMARK>
 VINA RESULT:      -8.1      2.037      7.450
  Name = 
  2 active torsions:
  status: ('A' for Active; 'I' for Inactive)
    1  A    between atoms: C_11  and  O_28
    2  A    between atoms: O_28  and  C_30
                            x       y       z     vdW  Elec       q    Type
                         _______ _______ _______ _____ _____    ______ ____

>  <TORSDO>
F 2

$$$$
=
 OpenBabel11122412463D

 30 35  0  0  1  0  0  0  0  0999 V2000
  160.2520  211.6400  152.7990 C   0  0  2  0  0  3  0  0  0  0  0  0
  159.0850  213.3340  151.2000 C   0  0  0  0  0  0  0  0  0  0  0  0
  162.1150  210.0350  149.4490 O   0  0  0  0  0  0  0  0  0  0  0  0
  160.7400  210.1860  152.7070 C   0  0  2  0  0  3  0  0  0  0  0  0
  159.0170  211.6440  153.4890 O   0  0  0  0  0  0  0  0  0  0  0  0
  159.3420  209.1470  155.7630 O   0  0  0  0  0  0  0  0  0  0  0  0
  160.7530  207.2500  153.1660 C   0  0  1  0  0  3  0  0  0  0  0  0
  159.8170  209.9550  154.9780 C   0  0  0  0  0  0  0  0  0  0  0  0
  160.8850  207.5890  151.6620 C   0  0  2  0  0  3  0  0  0  0  0  0
  162.2100  208.7160  149.8290 C   0  0  0  0  0  0  0  0  0  0  0  0
  159.2650  211.3530  154.8480 C   0  0  2  0  0  3  0  0  0  0  0  0
  161.0090  209.6430  154.1140 C   0  0  1  0  0  3  0  0  0  0  0  0
  158.7780  213.7630  149.8340 C   0  0  0  0  0  3  0  0  0  0  0  0
  160.9830  206.2380  150.9750 C   0  0  0  0  0  2  0  0  0  0  0  0
  161.2070  205.8050  153.3340 C   0  0  0  0  0  2  0  0  0  0  0  0
  158.4830  213.8770  152.1640 O   0  0  0  0  0  0  0  0  0  0  0  0
  162.0060  210.8950  150.5660 C   0  0  2  0  0  3  0  0  0  0  0  0
  159.5500  213.3740  148.8250 C   0  0  0  0  0  3  0  0  0  0  0  0
  160.0810  212.2520  151.4220 C   0  0  0  0  0  0  0  0  0  0  0  0
  161.9570  209.9740  151.8070 C   0  0  2  0  0  3  0  0  0  0  0  0
  162.4370  207.7940  149.0010 O   0  0  0  0  0  0  0  0  0  0  0  0
  162.0900  208.5090  151.2960 C   0  0  1  0  0  3  0  0  0  0  0  0
  161.6420  205.3150  151.9710 C   0  0  0  0  0  2  0  0  0  0  0  0
  161.5810  207.6710  155.4150 O   0  0  0  0  0  1  0  0  0  0  0  0
  160.8050  212.5790  149.0520 C   0  0  0  0  0  2  0  0  0  0  0  0
  160.8640  211.8660  150.3870 C   0  0  0  0  0  0  0  0  0  0  0  0
  161.5180  208.1860  154.1170 C   0  0  1  0  0  3  0  0  0  0  0  0
  158.0810  211.4900  155.5780 O   0  0  0  0  0  0  0  0  0  0  0  0
  155.8590  210.8200  155.0670 C   0  0  0  0  0  1  0  0  0  0  0  0
  157.0790  211.5930  154.6130 C   0  0  0  0  0  2  0  0  0  0  0  0
  1 19  1  6  0  0  0
  1  5  1  0  0  0  0
  2 19  1  0  0  0  0
  2 16  2  0  0  0  0
  3 10  1  0  0  0  0
  3 17  1  0  0  0  0
  4  1  1  0  0  0  0
  4 12  1  0  0  0  0
  5 11  1  0  0  0  0
  7 15  1  0  0  0  0
  7 27  1  0  0  0  0
  8  6  2  0  0  0  0
  9  7  1  0  0  0  0
 10 22  1  0  0  0  0
 11  8  1  0  0  0  0
 11 28  1  0  0  0  0
 12 27  1  0  0  0  0
 12  8  1  0  0  0  0
 13  2  1  0  0  0  0
 14  9  1  0  0  0  0
 14 23  1  0  0  0  0
 17 20  1  0  0  0  0
 18 25  1  0  0  0  0
 18 13  2  0  0  0  0
 20  4  1  0  0  0  0
 21 10  2  0  0  0  0
 22  9  1  0  0  0  0
 22 20  1  0  0  0  0
 23 15  1  0  0  0  0
 25 26  1  0  0  0  0
 26 17  1  0  0  0  0
 26 19  2  0  0  0  0
 27 24  1  0  0  0  0
 30 29  1  0  0  0  0
 30 28  1  0  0  0  0
M  END
>  <MODEL>
3

>  <REMARK>
 VINA RESULT:      -7.3      1.481      2.146
  Name = 
  2 active torsions:
  status: ('A' for Active; 'I' for Inactive)
    1  A    between atoms: C_11  and  O_28
    2  A    between atoms: O_28  and  C_30
                            x       y       z     vdW  Elec       q    Type
                         _______ _______ _______ _____ _____    ______ ____

>  <TORSDO>
F 2

$$$$
=
 OpenBabel11122412463D

 30 35  0  0  1  0  0  0  0  0999 V2000
  161.7270  209.6210  151.8970 C   0  0  2  0  0  3  0  0  0  0  0  0
  161.5990  207.1590  152.7370 C   0  0  0  0  0  0  0  0  0  0  0  0
  159.4950  210.6890  155.2370 O   0  0  0  0  0  0  0  0  0  0  0  0
  160.8210  210.8610  151.9590 C   0  0  2  0  0  3  0  0  0  0  0  0
  161.5960  209.0490  150.6090 O   0  0  0  0  0  0  0  0  0  0  0  0
  161.1610  211.7210  148.5660 O   0  0  0  0  0  0  0  0  0  0  0  0
  158.9430  212.9530  150.9950 C   0  0  1  0  0  3  0  0  0  0  0  0
  161.5160  211.2240  149.6250 C   0  0  0  0  0  0  0  0  0  0  0  0
  158.4210  212.2720  152.2830 C   0  0  2  0  0  3  0  0  0  0  0  0
  158.7840  211.7510  154.7280 C   0  0  0  0  0  0  0  0  0  0  0  0
  162.2320  209.8980  149.6780 C   0  0  2  0  0  3  0  0  0  0  0  0
  161.3080  211.9060  150.9500 C   0  0  1  0  0  3  0  0  0  0  0  0
  161.0360  206.1770  153.6670 C   0  0  0  0  0  3  0  0  0  0  0  0
  157.1030  212.9690  152.5720 C   0  0  0  0  0  2  0  0  0  0  0  0
  158.1730  214.2580  150.8410 C   0  0  0  0  0  2  0  0  0  0  0  0
  162.2730  206.7550  151.7530 O   0  0  0  0  0  0  0  0  0  0  0  0
  160.6880  210.4610  154.5100 C   0  0  2  0  0  3  0  0  0  0  0  0
  160.5200  206.5780  154.8250 C   0  0  0  0  0  3  0  0  0  0  0  0
  161.3470  208.6070  152.9580 C   0  0  0  0  0  0  0  0  0  0  0  0
  160.6780  211.4800  153.3490 C   0  0  2  0  0  3  0  0  0  0  0  0
  157.7540  212.2020  155.2960 O   0  0  0  0  0  0  0  0  0  0  0  0
  159.3880  212.3390  153.5040 C   0  0  1  0  0  3  0  0  0  0  0  0
  157.2500  214.3710  152.0340 C   0  0  0  0  0  2  0  0  0  0  0  0
  160.8250  214.0460  149.9050 O   0  0  0  0  0  1  0  0  0  0  0  0
  160.5850  208.0140  155.2640 C   0  0  0  0  0  2  0  0  0  0  0  0
  160.8230  209.0030  154.1430 C   0  0  0  0  0  0  0  0  0  0  0  0
  160.4610  213.1960  150.9540 C   0  0  1  0  0  3  0  0  0  0  0  0
  162.2410  209.2870  148.4210 O   0  0  0  0  0  0  0  0  0  0  0  0
  162.3300  206.9730  147.8870 C   0  0  0  0  0  1  0  0  0  0  0  0
  161.5820  208.0720  148.6120 C   0  0  0  0  0  2  0  0  0  0  0  0
  1  5  1  6  0  0  0
  1  4  1  0  0  0  0
  1 19  1  0  0  0  0
  2 19  1  0  0  0  0
  2 13  1  0  0  0  0
  4 20  1  0  0  0  0
  6  8  2  0  0  0  0
  7  9  1  0  0  0  0
  8 11  1  0  0  0  0
  8 12  1  0  0  0  0
  9 14  1  0  0  0  0
  9 22  1  0  0  0  0
 10  3  1  0  0  0  0
 10 21  2  0  0  0  0
 11  5  1  0  0  0  0
 12 27  1  0  0  0  0
 12  4  1  0  0  0  0
 13 18  2  0  0  0  0
 15  7  1  0  0  0  0
 15 23  1  0  0  0  0
 16  2  2  0  0  0  0
 17  3  1  0  0  0  0
 18 25  1  0  0  0  0
 19 26  2  0  0  0  0
 20 22  1  0  0  0  0
 20 17  1  0  0  0  0
 22 10  1  0  0  0  0
 23 14  1  0  0  0  0
 24 27  1  0  0  0  0
 26 17  1  0  0  0  0
 26 25  1  0  0  0  0
 27  7  1  0  0  0  0
 28 30  1  0  0  0  0
 28 11  1  0  0  0  0
 29 30  1  0  0  0  0
M  END
>  <MODEL>
4

>  <REMARK>
 VINA RESULT:      -5.7      1.811      7.079
  Name = 
  2 active torsions:
  status: ('A' for Active; 'I' for Inactive)
    1  A    between atoms: C_11  and  O_28
    2  A    between atoms: O_28  and  C_30
                            x       y       z     vdW  Elec       q    Type
                         _______ _______ _______ _____ _____    ______ ____

>  <TORSDO>
F 2

$$$$
=
 OpenBabel11122412463D

 30 35  0  0  1  0  0  0  0  0999 V2000
  161.6580  209.8960  151.6780 C   0  0  2  0  0  3  0  0  0  0  0  0
  162.0560  207.3330  151.4380 C   0  0  0  0  0  0  0  0  0  0  0  0
  159.8460  209.0920  155.3310 O   0  0  0  0  0  0  0  0  0  0  0  0
  160.5900  210.7960  152.3190 C   0  0  2  0  0  3  0  0  0  0  0  0
  161.4160  209.8550  150.2850 O   0  0  0  0  0  0  0  0  0  0  0  0
  160.2460  212.9570  149.5650 O   0  0  0  0  0  0  0  0  0  0  0  0
  158.2770  212.6560  152.4570 C   0  0  1  0  0  3  0  0  0  0  0  0
  160.8390  212.1730  150.2930 C   0  0  0  0  0  0  0  0  0  0  0  0
  158.0790  211.4360  153.3880 C   0  0  2  0  0  3  0  0  0  0  0  0
  158.9040  210.0940  155.3640 C   0  0  0  0  0  0  0  0  0  0  0  0
  161.7540  211.1120  149.7370 C   0  0  2  0  0  3  0  0  0  0  0  0
  160.7390  212.2270  151.7940 C   0  0  1  0  0  3  0  0  0  0  0  0
  161.8090  205.9730  151.9230 C   0  0  0  0  0  3  0  0  0  0  0  0
  156.7310  211.6740  154.0450 C   0  0  0  0  0  2  0  0  0  0  0  0
  157.2960  213.7270  152.9180 C   0  0  0  0  0  2  0  0  0  0  0  0
  162.6200  207.4930  150.3230 O   0  0  0  0  0  0  0  0  0  0  0  0
  160.9280  209.4180  154.4810 C   0  0  2  0  0  3  0  0  0  0  0  0
  161.4270  205.7750  153.1810 C   0  0  0  0  0  3  0  0  0  0  0  0
  161.6160  208.4950  152.2550 C   0  0  0  0  0  0  0  0  0  0  0  0
  160.5730  210.7820  153.8470 C   0  0  2  0  0  3  0  0  0  0  0  0
  157.9190  210.0640  156.1490 O   0  0  0  0  0  0  0  0  0  0  0  0
  159.2050  211.2240  154.4460 C   0  0  1  0  0  3  0  0  0  0  0  0
  156.5680  213.1720  154.1220 C   0  0  0  0  0  2  0  0  0  0  0  0
  159.7640  214.4530  151.7650 O   0  0  0  0  0  1  0  0  0  0  0  0
  161.3350  206.9070  154.1660 C   0  0  0  0  0  2  0  0  0  0  0  0
  161.2320  208.2810  153.5360 C   0  0  0  0  0  0  0  0  0  0  0  0
  159.7110  213.2070  152.3970 C   0  0  1  0  0  3  0  0  0  0  0  0
  161.6600  211.0530  148.3430 O   0  0  0  0  0  0  0  0  0  0  0  0
  162.2840  212.8460  146.9140 C   0  0  0  0  0  1  0  0  0  0  0  0
  162.7560  211.7810  147.8820 C   0  0  0  0  0  2  0  0  0  0  0  0
  1  5  1  6  0  0  0
  1 19  1  0  0  0  0
  1  4  1  0  0  0  0
  2 13  1  0  0  0  0
  2 19  1  0  0  0  0
  3 10  1  0  0  0  0
  4 20  1  0  0  0  0
  6  8  2  0  0  0  0
  7 15  1  0  0  0  0
  7  9  1  0  0  0  0
  8 12  1  0  0  0  0
  9 14  1  0  0  0  0
  9 22  1  0  0  0  0
 10 21  2  0  0  0  0
 11  5  1  0  0  0  0
 11  8  1  0  0  0  0
 12  4  1  0  0  0  0
 12 27  1  0  0  0  0
 13 18  2  0  0  0  0
 14 23  1  0  0  0  0
 15 23  1  0  0  0  0
 16  2  2  0  0  0  0
 17  3  1  0  0  0  0
 18 25  1  0  0  0  0
 19 26  2  0  0  0  0
 20 22  1  0  0  0  0
 20 17  1  0  0  0  0
 22 10  1  0  0  0  0
 24 27  1  0  0  0  0
 26 25  1  0  0  0  0
 26 17  1  0  0  0  0
 27  7  1  0  0  0  0
 28 11  1  0  0  0  0
 29 30  1  0  0  0  0
 30 28  1  0  0  0  0
M  END
>  <MODEL>
5

>  <REMARK>
 VINA RESULT:      -5.3      1.986      7.102
  Name = 
  2 active torsions:
  status: ('A' for Active; 'I' for Inactive)
    1  A    between atoms: C_11  and  O_28
    2  A    between atoms: O_28  and  C_30
                            x       y       z     vdW  Elec       q    Type
                         _______ _______ _______ _____ _____    ______ ____

>  <TORSDO>
F 2

$$$$
