=
 OpenBabel11122414023D

 28 32  0  0  1  0  0  0  0  0999 V2000
  161.7790  212.8750  142.8830 C   0  0  0  0  0  0  0  0  0  0  0  0
  157.6140  213.8470  140.9540 O   0  0  0  0  0  0  0  0  0  0  0  0
  162.6950  210.7460  137.0110 O   0  0  0  0  0  0  0  0  0  0  0  0
  159.4920  212.4400  144.4770 C   0  0  0  0  0  3  0  0  0  0  0  0
  161.0780  209.5170  138.3210 C   0  0  2  0  0  3  0  0  0  0  0  0
  163.0730  213.0650  142.1510 C   0  0  0  0  0  2  0  0  0  0  0  0
  158.8790  213.8110  138.8270 O   0  0  0  0  0  0  0  0  0  0  0  0
  158.1170  212.9840  139.8280 S   0  0  0  0  0  0  0  0  0  0  0  0
  156.8090  210.7360  138.9250 C   0  0  0  0  0  0  0  0  0  0  0  0
  159.0950  211.7040  140.4540 N   0  0  1  0  0  0  0  0  0  0  0  0
  163.1150  214.4200  138.7640 O   0  0  0  0  0  0  0  0  0  0  0  0
  161.3840  210.9660  140.3060 C   0  0  1  0  0  3  0  0  0  0  0  0
  157.9420  210.0360  139.1140 C   0  0  0  0  0  2  0  0  0  0  0  0
  156.7880  212.1720  139.0590 N   0  0  0  0  0  0  0  0  0  0  0  0
  163.1910  213.5950  139.7180 C   0  0  0  0  0  0  0  0  0  0  0  0
  160.5900  212.3870  142.2770 C   0  0  0  0  0  0  0  0  0  0  0  0
  162.0720  210.5810  138.0980 C   0  0  0  0  0  0  0  0  0  0  0  0
  155.5520  210.0140  138.6000 C   0  0  0  0  0  1  0  0  0  0  0  0
  163.4990  212.1640  139.4310 C   0  0  0  0  0  2  0  0  0  0  0  0
  159.4590  212.1660  143.1090 C   0  0  0  0  0  3  0  0  0  0  0  0
  161.8040  213.1240  144.2590 C   0  0  0  0  0  3  0  0  0  0  0  0
  160.6630  212.9250  145.0520 C   0  0  0  0  0  3  0  0  0  0  0  0
  162.9200  214.0170  141.0600 N   0  0  0  0  0  2  0  0  0  0  0  0
  160.4460  209.9310  139.6560 C   0  0  1  0  0  3  0  0  0  0  0  0
  162.2560  211.4200  139.2210 N   0  0  0  0  0  0  0  0  0  0  0  0
  159.2280  210.7650  139.3660 C   0  0  2  0  0  3  0  0  0  0  0  0
  161.7650  208.2430  138.4890 N   0  0  0  0  0  1  0  0  0  0  0  0
  160.4630  212.1170  140.7800 C   0  0  2  0  0  3  0  0  0  0  0  0
  1 21  1  0  0  0  0
  3 17  2  0  0  0  0
  4 22  1  0  0  0  0
  5 27  1  1  0  0  0
  5 24  1  0  0  0  0
  6  1  1  0  0  0  0
  7  8  2  0  0  0  0
  8  2  2  0  0  0  0
  9 14  2  0  0  0  0
  9 13  1  0  0  0  0
 10  8  1  6  0  0  0
 10 28  1  0  0  0  0
 11 15  2  0  0  0  0
 12 25  1  6  0  0  0
 12 28  1  0  0  0  0
 13 26  1  0  0  0  0
 14  8  1  0  0  0  0
 15 23  1  0  0  0  0
 16  1  2  0  0  0  0
 16 20  1  0  0  0  0
 17  5  1  0  0  0  0
 17 25  1  0  0  0  0
 18  9  1  0  0  0  0
 19 15  1  0  0  0  0
 20  4  2  0  0  0  0
 21 22  2  0  0  0  0
 23  6  1  0  0  0  0
 24 12  1  0  0  0  0
 25 19  1  0  0  0  0
 26 24  1  0  0  0  0
 26 10  1  0  0  0  0
 28 16  1  0  0  0  0
M  END
>  <MODEL>
1

>  <REMARK>
 VINA RESULT:      -5.2      0.000      0.000
  Name = 
  0 active torsions:
  status: ('A' for Active; 'I' for Inactive)
                            x       y       z     vdW  Elec       q    Type
                         _______ _______ _______ _____ _____    ______ ____

>  <TORSDO>
F 0

$$$$
=
 OpenBabel11122414023D

 28 32  0  0  1  0  0  0  0  0999 V2000
  158.9340  212.6600  154.6020 C   0  0  0  0  0  0  0  0  0  0  0  0
  161.7550  211.3610  151.0850 O   0  0  0  0  0  0  0  0  0  0  0  0
  161.9340  207.7830  157.2610 O   0  0  0  0  0  0  0  0  0  0  0  0
  157.8570  212.7350  151.9960 C   0  0  0  0  0  3  0  0  0  0  0  0
  160.4600  207.2210  155.4290 C   0  0  2  0  0  3  0  0  0  0  0  0
  159.3800  212.6730  156.0330 C   0  0  0  0  0  2  0  0  0  0  0  0
  163.1310  210.3780  152.8930 O   0  0  0  0  0  0  0  0  0  0  0  0
  161.9900  210.1430  151.9390 S   0  0  0  0  0  0  0  0  0  0  0  0
  161.5180  207.5680  151.0890 C   0  0  0  0  0  0  0  0  0  0  0  0
  160.5430  209.7280  152.7870 N   0  0  1  0  0  0  0  0  0  0  0  0
  162.7990  211.7680  156.9280 O   0  0  0  0  0  0  0  0  0  0  0  0
  159.7890  209.5790  155.0710 C   0  0  1  0  0  3  0  0  0  0  0  0
  160.7380  207.3860  152.1690 C   0  0  0  0  0  2  0  0  0  0  0  0
  162.3110  208.7630  150.9350 N   0  0  0  0  0  0  0  0  0  0  0  0
  161.5460  211.6970  156.7890 C   0  0  0  0  0  0  0  0  0  0  0  0
  159.3080  211.6590  153.6650 C   0  0  0  0  0  0  0  0  0  0  0  0
  161.1130  208.1460  156.3720 C   0  0  0  0  0  0  0  0  0  0  0  0
  161.5440  206.5330  150.0250 C   0  0  0  0  0  1  0  0  0  0  0  0
  160.8220  210.4800  157.2600 C   0  0  0  0  0  2  0  0  0  0  0  0
  158.7370  211.7160  152.3640 C   0  0  0  0  0  3  0  0  0  0  0  0
  158.0340  213.6610  154.2250 C   0  0  0  0  0  3  0  0  0  0  0  0
  157.5090  213.7110  152.9240 C   0  0  0  0  0  3  0  0  0  0  0  0
  160.8310  212.7460  156.1270 N   0  0  0  0  0  2  0  0  0  0  0  0
  159.8100  208.1810  154.4230 C   0  0  1  0  0  3  0  0  0  0  0  0
  160.7430  209.4970  156.1780 N   0  0  0  0  0  0  0  0  0  0  0  0
  160.7670  208.3900  153.2810 C   0  0  2  0  0  3  0  0  0  0  0  0
  159.4180  206.4790  156.1260 N   0  0  0  0  0  1  0  0  0  0  0  0
  160.3060  210.5470  153.9800 C   0  0  2  0  0  3  0  0  0  0  0  0
  1  6  1  0  0  0  0
  2  8  2  0  0  0  0
  4 20  2  0  0  0  0
  4 22  1  0  0  0  0
  5 27  1  1  0  0  0
  5 17  1  0  0  0  0
  6 23  1  0  0  0  0
  8  7  2  0  0  0  0
  9 13  1  0  0  0  0
 10  8  1  1  0  0  0
 10 26  1  0  0  0  0
 10 28  1  0  0  0  0
 12 25  1  1  0  0  0
 13 26  1  0  0  0  0
 14  9  2  0  0  0  0
 14  8  1  0  0  0  0
 15 11  2  0  0  0  0
 15 19  1  0  0  0  0
 16 28  1  0  0  0  0
 16  1  2  0  0  0  0
 17  3  2  0  0  0  0
 18  9  1  0  0  0  0
 20 16  1  0  0  0  0
 21  1  1  0  0  0  0
 22 21  2  0  0  0  0
 23 15  1  0  0  0  0
 24 12  1  0  0  0  0
 24  5  1  0  0  0  0
 25 17  1  0  0  0  0
 25 19  1  0  0  0  0
 26 24  1  0  0  0  0
 28 12  1  0  0  0  0
M  END
>  <MODEL>
2

>  <REMARK>
 VINA RESULT:      -3.5     11.805     14.534
  Name = 
  0 active torsions:
  status: ('A' for Active; 'I' for Inactive)
                            x       y       z     vdW  Elec       q    Type
                         _______ _______ _______ _____ _____    ______ ____

>  <TORSDO>
F 0

$$$$
=
 OpenBabel11122414023D

 28 32  0  0  1  0  0  0  0  0999 V2000
  163.4730  213.9510  139.7480 C   0  0  0  0  0  0  0  0  0  0  0  0
  162.3060  209.5780  138.5120 O   0  0  0  0  0  0  0  0  0  0  0  0
  158.2460  213.1280  143.1910 O   0  0  0  0  0  0  0  0  0  0  0  0
  163.8110  213.2480  137.0370 C   0  0  0  0  0  3  0  0  0  0  0  0
  157.9120  213.2050  140.7990 C   0  0  2  0  0  3  0  0  0  0  0  0
  163.3480  214.4530  141.1550 C   0  0  0  0  0  2  0  0  0  0  0  0
  161.1090  209.5590  140.6790 O   0  0  0  0  0  0  0  0  0  0  0  0
  161.0130  209.8980  139.2160 S   0  0  0  0  0  0  0  0  0  0  0  0
  158.5420  209.7540  138.0110 C   0  0  0  0  0  0  0  0  0  0  0  0
  160.6100  211.5630  138.9850 N   0  0  1  0  0  0  0  0  0  0  0  0
  162.1920  212.2530  143.8250 O   0  0  0  0  0  0  0  0  0  0  0  0
  160.3230  213.5360  140.3370 C   0  0  1  0  0  3  0  0  0  0  0  0
  158.3180  211.0260  138.3860 C   0  0  0  0  0  3  0  0  0  0  0  0
  159.7010  209.0320  138.4760 N   0  0  0  0  0  2  0  0  0  0  0  0
  162.2000  213.1720  142.9580 C   0  0  0  0  0  0  0  0  0  0  0  0
  162.5300  213.0850  139.1300 C   0  0  0  0  0  0  0  0  0  0  0  0
  158.7220  213.2520  142.0280 C   0  0  0  0  0  0  0  0  0  0  0  0
  157.5940  209.0900  137.0800 C   0  0  0  0  0  1  0  0  0  0  0  0
  160.9910  214.0290  142.7840 C   0  0  0  0  0  2  0  0  0  0  0  0
  162.7210  212.7610  137.7590 C   0  0  0  0  0  3  0  0  0  0  0  0
  164.5480  214.4490  139.0060 C   0  0  0  0  0  3  0  0  0  0  0  0
  164.7290  214.0870  137.6610 C   0  0  0  0  0  3  0  0  0  0  0  0
  163.3350  213.3500  142.1040 N   0  0  0  0  0  2  0  0  0  0  0  0
  158.9810  213.1250  139.7010 C   0  0  1  0  0  3  0  0  0  0  0  0
  160.1020  213.4380  141.7820 N   0  0  0  0  0  0  0  0  0  0  0  0
  159.2280  211.6740  139.3850 C   0  0  2  0  0  3  0  0  0  0  0  0
  157.1740  214.4530  140.6590 N   0  0  0  0  0  1  0  0  0  0  0  0
  161.3450  212.4720  139.8710 C   0  0  2  0  0  3  0  0  0  0  0  0
  1  6  1  0  0  0  0
  2  8  2  0  0  0  0
  4 22  2  0  0  0  0
  4 20  1  0  0  0  0
  5 27  1  6  0  0  0
  5 17  1  0  0  0  0
  6 23  1  0  0  0  0
  8  7  2  0  0  0  0
  9 13  2  0  0  0  0
  9 14  1  0  0  0  0
 10  8  1  1  0  0  0
 10 26  1  0  0  0  0
 10 28  1  0  0  0  0
 12 25  1  1  0  0  0
 13 26  1  0  0  0  0
 14  8  1  0  0  0  0
 15 11  2  0  0  0  0
 16  1  1  0  0  0  0
 16 28  1  0  0  0  0
 17  3  2  0  0  0  0
 18  9  1  0  0  0  0
 19 15  1  0  0  0  0
 20 16  2  0  0  0  0
 21  1  2  0  0  0  0
 22 21  1  0  0  0  0
 23 15  1  0  0  0  0
 24 12  1  0  0  0  0
 24  5  1  0  0  0  0
 25 17  1  0  0  0  0
 25 19  1  0  0  0  0
 26 24  1  0  0  0  0
 28 12  1  0  0  0  0
M  END
>  <MODEL>
3

>  <REMARK>
 VINA RESULT:      -3.0      2.351      4.919
  Name = 
  0 active torsions:
  status: ('A' for Active; 'I' for Inactive)
                            x       y       z     vdW  Elec       q    Type
                         _______ _______ _______ _____ _____    ______ ____

>  <TORSDO>
F 0

$$$$
=
 OpenBabel11122414023D

 28 32  0  0  1  0  0  0  0  0999 V2000
  156.9460  212.1360  138.9630 C   0  0  0  0  0  0  0  0  0  0  0  0
  159.3630  208.6090  137.0320 O   0  0  0  0  0  0  0  0  0  0  0  0
  162.8470  213.8310  140.4320 O   0  0  0  0  0  0  0  0  0  0  0  0
  155.8480  209.5480  139.1950 C   0  0  0  0  0  3  0  0  0  0  0  0
  162.0400  211.8300  141.5200 C   0  0  2  0  0  3  0  0  0  0  0  0
  157.4110  213.5590  138.9080 C   0  0  0  0  0  2  0  0  0  0  0  0
  161.2270  210.2370  137.0110 O   0  0  0  0  0  0  0  0  0  0  0  0
  160.5140  209.1840  137.8150 S   0  0  0  0  0  0  0  0  0  0  0  0
  161.9710  207.7530  139.6610 C   0  0  0  0  0  0  0  0  0  0  0  0
  159.9460  209.8220  139.3170 N   0  0  1  0  0  0  0  0  0  0  0  0
  160.4820  214.4500  137.1510 O   0  0  0  0  0  0  0  0  0  0  0  0
  159.8250  211.9620  140.4190 C   0  0  1  0  0  3  0  0  0  0  0  0
  161.7100  208.7120  140.5670 C   0  0  0  0  0  2  0  0  0  0  0  0
  161.6140  207.9200  138.2740 N   0  0  0  0  0  0  0  0  0  0  0  0
  159.6730  214.2190  138.0940 C   0  0  0  0  0  0  0  0  0  0  0  0
  157.8130  211.0260  139.1510 C   0  0  0  0  0  0  0  0  0  0  0  0
  161.9200  212.9940  140.6270 C   0  0  0  0  0  0  0  0  0  0  0  0
  162.6130  206.4890  140.1020 C   0  0  0  0  0  1  0  0  0  0  0  0
  160.1300  214.3590  139.5070 C   0  0  0  0  0  2  0  0  0  0  0  0
  157.2280  209.7360  139.2780 C   0  0  0  0  0  3  0  0  0  0  0  0
  155.5640  211.9340  138.9040 C   0  0  0  0  0  3  0  0  0  0  0  0
  155.0150  210.6450  139.0020 C   0  0  0  0  0  3  0  0  0  0  0  0
  158.3460  213.7610  137.8100 N   0  0  0  0  0  2  0  0  0  0  0  0
  160.7800  211.0220  141.1800 C   0  0  1  0  0  3  0  0  0  0  0  0
  160.6630  213.0830  139.9870 N   0  0  0  0  0  0  0  0  0  0  0  0
  161.1330  210.0200  140.1140 C   0  0  2  0  0  3  0  0  0  0  0  0
  161.9660  212.2740  142.9060 N   0  0  0  0  0  1  0  0  0  0  0  0
  159.3340  211.1490  139.1970 C   0  0  2  0  0  3  0  0  0  0  0  0
  1 16  1  0  0  0  0
  2  8  2  0  0  0  0
  3 17  2  0  0  0  0
  4 20  1  0  0  0  0
  5 27  1  1  0  0  0
  6  1  1  0  0  0  0
  7  8  2  0  0  0  0
  8 14  1  0  0  0  0
  9 18  1  0  0  0  0
  9 13  1  0  0  0  0
 10  8  1  6  0  0  0
 10 26  1  0  0  0  0
 11 15  2  0  0  0  0
 12 25  1  6  0  0  0
 12 24  1  0  0  0  0
 14  9  2  0  0  0  0
 15 19  1  0  0  0  0
 16 28  1  0  0  0  0
 16 20  2  0  0  0  0
 17  5  1  0  0  0  0
 19 25  1  0  0  0  0
 21  1  2  0  0  0  0
 21 22  1  0  0  0  0
 22  4  2  0  0  0  0
 23 15  1  0  0  0  0
 23  6  1  0  0  0  0
 24  5  1  0  0  0  0
 25 17  1  0  0  0  0
 26 13  1  0  0  0  0
 26 24  1  0  0  0  0
 28 10  1  0  0  0  0
 28 12  1  0  0  0  0
M  END
>  <MODEL>
4

>  <REMARK>
 VINA RESULT:      -2.9      2.384      5.203
  Name = 
  0 active torsions:
  status: ('A' for Active; 'I' for Inactive)
                            x       y       z     vdW  Elec       q    Type
                         _______ _______ _______ _____ _____    ______ ____

>  <TORSDO>
F 0

$$$$
=
 OpenBabel11122414023D

 28 32  0  0  1  0  0  0  0  0999 V2000
  161.4320  210.3520  151.1210 C   0  0  0  0  0  0  0  0  0  0  0  0
  157.4680  212.0370  152.9800 O   0  0  0  0  0  0  0  0  0  0  0  0
  161.8740  208.1250  157.0120 O   0  0  0  0  0  0  0  0  0  0  0  0
  160.6750  212.9660  150.3790 C   0  0  0  0  0  3  0  0  0  0  0  0
  162.0340  210.5270  156.7950 C   0  0  2  0  0  3  0  0  0  0  0  0
  161.9460  208.9770  151.4250 C   0  0  0  0  0  2  0  0  0  0  0  0
  157.7300  210.1720  154.5860 O   0  0  0  0  0  0  0  0  0  0  0  0
  158.0860  211.6030  154.2830 S   0  0  0  0  0  0  0  0  0  0  0  0
  158.5390  213.3040  156.3990 C   0  0  0  0  0  0  0  0  0  0  0  0
  159.7990  211.8230  154.2270 N   0  0  1  0  0  0  0  0  0  0  0  0
  160.0800  206.7300  153.6100 O   0  0  0  0  0  0  0  0  0  0  0  0
  161.7810  210.4560  154.3320 C   0  0  1  0  0  3  0  0  0  0  0  0
  159.8270  212.9160  156.3970 C   0  0  0  0  0  2  0  0  0  0  0  0
  157.5610  212.6460  155.5690 N   0  0  0  0  0  0  0  0  0  0  0  0
  160.9720  207.5250  153.2020 C   0  0  0  0  0  0  0  0  0  0  0  0
  160.8190  211.1990  152.0830 C   0  0  0  0  0  0  0  0  0  0  0  0
  161.8840  209.1550  156.2800 C   0  0  0  0  0  0  0  0  0  0  0  0
  158.1240  214.4460  157.2520 C   0  0  0  0  0  1  0  0  0  0  0  0
  162.0940  207.9020  154.1110 C   0  0  0  0  0  2  0  0  0  0  0  0
  160.4610  212.5150  151.6820 C   0  0  0  0  0  3  0  0  0  0  0  0
  161.6600  210.8250  149.8260 C   0  0  0  0  0  3  0  0  0  0  0  0
  161.2690  212.1200  149.4480 C   0  0  0  0  0  3  0  0  0  0  0  0
  160.8760  208.1120  151.8990 N   0  0  0  0  0  2  0  0  0  0  0  0
  161.7030  211.3800  155.5630 C   0  0  1  0  0  3  0  0  0  0  0  0
  161.7340  209.0970  154.8750 N   0  0  0  0  0  0  0  0  0  0  0  0
  160.2370  211.7150  155.5980 C   0  0  2  0  0  3  0  0  0  0  0  0
  163.4230  210.7510  157.1740 N   0  0  0  0  0  1  0  0  0  0  0  0
  160.5040  210.7560  153.5100 C   0  0  2  0  0  3  0  0  0  0  0  0
  1  6  1  0  0  0  0
  1 16  1  0  0  0  0
  2  8  2  0  0  0  0
  4 20  1  0  0  0  0
  5 27  1  6  0  0  0
  6 23  1  0  0  0  0
  8  7  2  0  0  0  0
  8 14  1  0  0  0  0
  9 18  1  0  0  0  0
 10  8  1  1  0  0  0
 10 26  1  0  0  0  0
 12 25  1  1  0  0  0
 12 24  1  0  0  0  0
 13  9  1  0  0  0  0
 14  9  2  0  0  0  0
 15 11  2  0  0  0  0
 15 19  1  0  0  0  0
 16 28  1  0  0  0  0
 17  5  1  0  0  0  0
 17  3  2  0  0  0  0
 19 25  1  0  0  0  0
 20 16  2  0  0  0  0
 21  1  2  0  0  0  0
 22 21  1  0  0  0  0
 22  4  2  0  0  0  0
 23 15  1  0  0  0  0
 24 26  1  0  0  0  0
 24  5  1  0  0  0  0
 25 17  1  0  0  0  0
 26 13  1  0  0  0  0
 28 10  1  0  0  0  0
 28 12  1  0  0  0  0
M  END
>  <MODEL>
5

>  <REMARK>
 VINA RESULT:      -2.3     11.530     14.649
  Name = 
  0 active torsions:
  status: ('A' for Active; 'I' for Inactive)
                            x       y       z     vdW  Elec       q    Type
                         _______ _______ _______ _____ _____    ______ ____

>  <TORSDO>
F 0

$$$$
