=
 OpenBabel11122414173D

 34 41  0  0  1  0  0  0  0  0999 V2000
  160.7660  207.4090  154.1630 C   0  0  0  0  0  0  0  0  0  0  0  0
  161.2390  205.1490  153.0590 C   0  0  0  0  0  3  0  0  0  0  0  0
  158.5840  213.3160  153.1900 C   0  0  2  0  0  3  0  0  0  0  0  0
  160.1790  209.6180  154.8850 C   0  0  0  0  0  0  0  0  0  0  0  0
  159.9280  211.3110  153.0600 C   0  0  1  0  0  3  0  0  0  0  0  0
  159.7440  213.3430  151.4090 C   0  0  0  0  0  2  0  0  0  0  0  0
  158.5170  214.1070  151.9030 C   0  0  0  0  0  2  0  0  0  0  0  0
  159.2300  213.0930  155.6070 C   0  0  0  0  0  2  0  0  0  0  0  0
  161.5190  207.0540  151.8190 C   0  0  0  0  0  0  0  0  0  0  0  0
  161.8750  206.8360  148.7050 C   0  0  0  0  0  2  0  0  0  0  0  0
  161.0440  210.6680  152.3620 N   0  0  0  0  0  2  0  0  0  0  0  0
  158.9360  211.6780  155.3330 N   0  0  0  0  0  2  0  0  0  0  0  0
  161.3640  208.3620  151.5120 C   0  0  0  0  0  0  0  0  0  0  0  0
  161.6000  204.7400  151.8450 C   0  0  0  0  0  3  0  0  0  0  0  0
  160.0620  211.0870  154.5930 C   0  0  1  0  0  3  0  0  0  0  0  0
  158.6630  214.0390  154.5220 C   0  0  0  0  0  2  0  0  0  0  0  0
  161.1170  205.9240  149.6480 C   0  0  2  0  0  3  0  0  0  0  0  0
  160.6560  208.7670  153.8890 C   0  0  0  0  0  0  0  0  0  0  0  0
  159.9470  212.8050  152.8140 C   0  0  1  0  0  3  0  0  0  0  0  0
  160.9730  209.2730  152.5710 N   0  0  0  0  0  0  0  0  0  0  0  0
  160.0160  207.7770  156.3690 C   0  0  0  0  0  3  0  0  0  0  0  0
  161.6480  208.2940  148.9630 C   0  0  0  0  0  3  0  0  0  0  0  0
  159.8890  209.1100  156.1140 N   0  0  0  0  0  0  0  0  0  0  0  0
  161.4640  208.9140  150.1360 C   0  0  0  0  0  3  0  0  0  0  0  0
  161.9100  205.9140  150.9440 C   0  0  1  0  0  3  0  0  0  0  0  0
  160.4480  206.9300  155.3950 N   0  0  0  0  0  0  0  0  0  0  0  0
  161.2210  206.5630  153.1120 N   0  0  0  0  0  0  0  0  0  0  0  0
  161.0800  204.6420  149.0900 O   0  0  0  0  0  0  0  0  0  0  0  0
  161.3280  204.8400  147.7290 C   0  0  0  0  0  2  0  0  0  0  0  0
  160.5160  201.5440  146.8250 C   0  0  0  0  0  2  0  0  0  0  0  0
  161.2820  203.4110  145.6920 C   0  0  0  0  0  2  0  0  0  0  0  0
  161.8190  203.5490  147.1000 C   0  0  2  0  0  3  0  0  0  0  0  0
  160.9020  202.0200  145.5050 N   0  0  0  0  0  2  0  0  0  0  0  0
  161.2640  202.3660  147.8530 C   0  0  0  0  0  2  0  0  0  0  0  0
  1 26  1  0  0  0  0
  2 27  1  0  0  0  0
  3  7  1  6  0  0  0
  3 16  1  0  0  0  0
  4 23  2  0  0  0  0
  5 11  1  6  0  0  0
  5 15  1  0  0  0  0
  6  7  1  0  0  0  0
  9 27  1  0  0  0  0
 10 22  1  0  0  0  0
 10 17  1  0  0  0  0
 11 20  1  0  0  0  0
 12  8  1  0  0  0  0
 13  9  2  0  0  0  0
 13 20  1  0  0  0  0
 14  2  2  0  0  0  0
 15  4  1  6  0  0  0
 15 12  1  0  0  0  0
 16  8  1  0  0  0  0
 17 28  1  6  0  0  0
 17 25  1  0  0  0  0
 18  1  2  0  0  0  0
 18  4  1  0  0  0  0
 19  6  1  6  0  0  0
 19  5  1  0  0  0  0
 19  3  1  0  0  0  0
 20 18  1  0  0  0  0
 22 24  2  0  0  0  0
 23 21  1  0  0  0  0
 24 13  1  0  0  0  0
 25  9  1  0  0  0  0
 25 14  1  1  0  0  0
 26 21  2  0  0  0  0
 27  1  1  0  0  0  0
 29 28  1  0  0  0  0
 30 34  1  0  0  0  0
 31 32  1  0  0  0  0
 32 29  1  1  0  0  0
 32 34  1  0  0  0  0
 33 31  1  0  0  0  0
 33 30  1  0  0  0  0
M  END
>  <MODEL>
1

>  <REMARK>
 VINA RESULT:      -9.7      0.000      0.000
  Name = 
  3 active torsions:
  status: ('A' for Active; 'I' for Inactive)
    1  A    between atoms: C_17  and  O_28
    2  A    between atoms: O_28  and  C_29
    3  A    between atoms: C_29  and  C_32
                            x       y       z     vdW  Elec       q    Type
                         _______ _______ _______ _____ _____    ______ ____

>  <TORSDO>
F 3

$$$$
=
 OpenBabel11122414173D

 34 41  0  0  1  0  0  0  0  0999 V2000
  161.5900  209.7660  151.1450 C   0  0  0  0  0  0  0  0  0  0  0  0
  160.9700  211.4910  152.9330 C   0  0  0  0  0  3  0  0  0  0  0  0
  160.6950  203.7760  149.1690 C   0  0  2  0  0  3  0  0  0  0  0  0
  161.9320  207.9410  149.6300 C   0  0  0  0  0  0  0  0  0  0  0  0
  161.3180  205.6830  150.5170 C   0  0  1  0  0  3  0  0  0  0  0  0
  160.9210  203.1800  151.1960 C   0  0  0  0  0  2  0  0  0  0  0  0
  160.2600  202.5650  149.9640 C   0  0  0  0  0  2  0  0  0  0  0  0
  162.2630  204.9160  147.5730 C   0  0  0  0  0  2  0  0  0  0  0  0
  161.1250  209.2880  153.5420 C   0  0  0  0  0  0  0  0  0  0  0  0
  160.0100  208.3730  156.3330 C   0  0  0  0  0  2  0  0  0  0  0  0
  161.8210  206.1020  151.8270 N   0  0  0  0  0  2  0  0  0  0  0  0
  161.5480  206.1070  148.0570 N   0  0  0  0  0  2  0  0  0  0  0  0
  161.1700  207.9520  153.3420 C   0  0  0  0  0  0  0  0  0  0  0  0
  160.6500  211.4500  154.2240 C   0  0  0  0  0  3  0  0  0  0  0  0
  162.0550  206.4630  149.3910 C   0  0  1  0  0  3  0  0  0  0  0  0
  161.5220  203.6000  147.9100 C   0  0  0  0  0  2  0  0  0  0  0  0
  159.5490  209.5120  155.4460 C   0  0  2  0  0  3  0  0  0  0  0  0
  161.7010  208.3980  150.9270 C   0  0  0  0  0  0  0  0  0  0  0  0
  161.5860  204.2080  150.3010 C   0  0  1  0  0  3  0  0  0  0  0  0
  161.5170  207.4680  152.0190 N   0  0  0  0  0  0  0  0  0  0  0  0
  162.0010  210.1820  148.8610 C   0  0  0  0  0  3  0  0  0  0  0  0
  160.2780  207.0990  155.5920 C   0  0  0  0  0  3  0  0  0  0  0  0
  162.0980  208.8430  148.6250 N   0  0  0  0  0  0  0  0  0  0  0  0
  160.7840  206.9420  154.3620 C   0  0  0  0  0  3  0  0  0  0  0  0
  160.8040  210.0520  154.7800 C   0  0  1  0  0  3  0  0  0  0  0  0
  161.7420  210.6400  150.1160 N   0  0  0  0  0  0  0  0  0  0  0  0
  161.3180  210.1970  152.4750 N   0  0  0  0  0  0  0  0  0  0  0  0
  158.9640  210.4920  156.2520 O   0  0  0  0  0  0  0  0  0  0  0  0
  157.6890  210.6820  155.7120 C   0  0  0  0  0  2  0  0  0  0  0  0
  155.6840  213.1680  154.2500 C   0  0  0  0  0  2  0  0  0  0  0  0
  156.1070  212.4690  156.4150 C   0  0  0  0  0  2  0  0  0  0  0  0
  157.3720  212.1640  155.6420 C   0  0  2  0  0  3  0  0  0  0  0  0
  155.3440  213.4340  155.6400 N   0  0  0  0  0  2  0  0  0  0  0  0
  157.0700  212.5590  154.2180 C   0  0  0  0  0  2  0  0  0  0  0  0
  1 27  1  0  0  0  0
  2 14  2  0  0  0  0
  3 16  1  6  0  0  0
  3  7  1  0  0  0  0
  3 19  1  0  0  0  0
  4 18  2  0  0  0  0
  5 11  1  1  0  0  0
  7  6  1  0  0  0  0
  8 16  1  0  0  0  0
  8 12  1  0  0  0  0
  9 25  1  0  0  0  0
 11 20  1  0  0  0  0
 13  9  2  0  0  0  0
 13 24  1  0  0  0  0
 15 12  1  6  0  0  0
 15  4  1  0  0  0  0
 15  5  1  0  0  0  0
 17 28  1  1  0  0  0
 17 10  1  0  0  0  0
 18  1  1  0  0  0  0
 18 20  1  0  0  0  0
 19  5  1  0  0  0  0
 19  6  1  1  0  0  0
 20 13  1  0  0  0  0
 21 26  1  0  0  0  0
 22 10  1  0  0  0  0
 23 21  2  0  0  0  0
 23  4  1  0  0  0  0
 24 22  2  0  0  0  0
 25 14  1  6  0  0  0
 25 17  1  0  0  0  0
 26  1  2  0  0  0  0
 27  2  1  0  0  0  0
 27  9  1  0  0  0  0
 29 28  1  0  0  0  0
 30 33  1  0  0  0  0
 32 29  1  6  0  0  0
 32 31  1  0  0  0  0
 33 31  1  0  0  0  0
 34 30  1  0  0  0  0
 34 32  1  0  0  0  0
M  END
>  <MODEL>
2

>  <REMARK>
 VINA RESULT:      -9.6      2.590      8.982
  Name = 
  3 active torsions:
  status: ('A' for Active; 'I' for Inactive)
    1  A    between atoms: C_17  and  O_28
    2  A    between atoms: O_28  and  C_29
    3  A    between atoms: C_29  and  C_32
                            x       y       z     vdW  Elec       q    Type
                         _______ _______ _______ _____ _____    ______ ____

>  <TORSDO>
F 3

$$$$
=
 OpenBabel11122414173D

 34 41  0  0  1  0  0  0  0  0999 V2000
  160.8140  207.5510  154.4040 C   0  0  0  0  0  0  0  0  0  0  0  0
  161.5970  205.6180  152.9200 C   0  0  0  0  0  3  0  0  0  0  0  0
  157.9800  213.2570  154.4420 C   0  0  2  0  0  3  0  0  0  0  0  0
  159.9380  209.4970  155.4960 C   0  0  0  0  0  0  0  0  0  0  0  0
  159.5580  211.4780  154.0150 C   0  0  1  0  0  3  0  0  0  0  0  0
  159.1970  213.7610  152.7740 C   0  0  0  0  0  2  0  0  0  0  0  0
  157.8690  214.2740  153.3270 C   0  0  0  0  0  2  0  0  0  0  0  0
  158.5520  212.6360  156.8070 C   0  0  0  0  0  2  0  0  0  0  0  0
  161.6960  207.7490  152.0860 C   0  0  0  0  0  0  0  0  0  0  0  0
  162.1970  208.1890  149.0160 C   0  0  0  0  0  2  0  0  0  0  0  0
  160.7690  211.1110  153.2780 N   0  0  0  0  0  2  0  0  0  0  0  0
  158.4400  211.2790  156.2500 N   0  0  0  0  0  2  0  0  0  0  0  0
  161.3970  209.0670  152.0250 C   0  0  0  0  0  0  0  0  0  0  0  0
  162.0530  205.4980  151.6750 C   0  0  0  0  0  3  0  0  0  0  0  0
  159.6570  210.9720  155.4830 C   0  0  1  0  0  3  0  0  0  0  0  0
  157.9180  213.7080  155.8890 C   0  0  0  0  0  2  0  0  0  0  0  0
  161.5180  207.0300  149.7180 C   0  0  2  0  0  3  0  0  0  0  0  0
  160.5530  208.9160  154.3870 C   0  0  0  0  0  0  0  0  0  0  0  0
  159.4080  212.9840  154.0600 C   0  0  1  0  0  3  0  0  0  0  0  0
  160.8580  209.7030  153.2130 N   0  0  0  0  0  0  0  0  0  0  0  0
  159.9390  207.3930  156.5880 C   0  0  0  0  0  3  0  0  0  0  0  0
  161.7870  209.5330  149.5330 C   0  0  0  0  0  3  0  0  0  0  0  0
  159.6620  208.7280  156.5850 N   0  0  0  0  0  0  0  0  0  0  0  0
  161.4850  209.8860  150.7890 C   0  0  0  0  0  3  0  0  0  0  0  0
  162.2550  206.8540  151.0350 C   0  0  1  0  0  3  0  0  0  0  0  0
  160.5070  206.8070  155.4990 N   0  0  0  0  0  0  0  0  0  0  0  0
  161.4080  206.9840  153.2410 N   0  0  0  0  0  0  0  0  0  0  0  0
  161.6570  205.8880  148.9250 O   0  0  0  0  0  0  0  0  0  0  0  0
  160.8570  206.1320  147.8050 C   0  0  0  0  0  2  0  0  0  0  0  0
  161.3230  203.6210  145.3940 C   0  0  0  0  0  2  0  0  0  0  0  0
  160.6860  205.8450  145.3400 C   0  0  0  0  0  2  0  0  0  0  0  0
  161.5930  205.7180  146.5440 C   0  0  2  0  0  3  0  0  0  0  0  0
  160.9250  204.6890  144.4900 N   0  0  0  0  0  2  0  0  0  0  0  0
  161.9530  204.2560  146.6170 C   0  0  0  0  0  2  0  0  0  0  0  0
  1 26  1  0  0  0  0
  2 27  1  0  0  0  0
  3  7  1  6  0  0  0
  3 16  1  0  0  0  0
  4 23  2  0  0  0  0
  5 11  1  6  0  0  0
  5 19  1  0  0  0  0
  5 15  1  0  0  0  0
  6  7  1  0  0  0  0
  9 27  1  0  0  0  0
 10 22  1  0  0  0  0
 10 17  1  0  0  0  0
 12  8  1  0  0  0  0
 13  9  2  0  0  0  0
 13 20  1  0  0  0  0
 14  2  2  0  0  0  0
 15  4  1  6  0  0  0
 15 12  1  0  0  0  0
 16  8  1  0  0  0  0
 17 28  1  6  0  0  0
 17 25  1  0  0  0  0
 18  1  2  0  0  0  0
 18  4  1  0  0  0  0
 19  6  1  6  0  0  0
 19  3  1  0  0  0  0
 20 11  1  0  0  0  0
 20 18  1  0  0  0  0
 22 24  2  0  0  0  0
 23 21  1  0  0  0  0
 24 13  1  0  0  0  0
 25 14  1  1  0  0  0
 25  9  1  0  0  0  0
 26 21  2  0  0  0  0
 27  1  1  0  0  0  0
 29 28  1  0  0  0  0
 30 34  1  0  0  0  0
 31 32  1  0  0  0  0
 32 34  1  0  0  0  0
 32 29  1  1  0  0  0
 33 31  1  0  0  0  0
 33 30  1  0  0  0  0
M  END
>  <MODEL>
3

>  <REMARK>
 VINA RESULT:      -9.0      1.188      1.395
  Name = 
  3 active torsions:
  status: ('A' for Active; 'I' for Inactive)
    1  A    between atoms: C_17  and  O_28
    2  A    between atoms: O_28  and  C_29
    3  A    between atoms: C_29  and  C_32
                            x       y       z     vdW  Elec       q    Type
                         _______ _______ _______ _____ _____    ______ ____

>  <TORSDO>
F 3

$$$$
=
 OpenBabel11122414173D

 34 41  0  0  1  0  0  0  0  0999 V2000
  161.7330  208.3490  149.8770 C   0  0  0  0  0  0  0  0  0  0  0  0
  161.4600  210.3690  151.4270 C   0  0  0  0  0  3  0  0  0  0  0  0
  160.1780  202.2360  148.9800 C   0  0  2  0  0  3  0  0  0  0  0  0
  161.7560  206.2960  148.6400 C   0  0  0  0  0  0  0  0  0  0  0  0
  161.0960  204.2590  149.9340 C   0  0  1  0  0  3  0  0  0  0  0  0
  160.6070  201.9290  151.0390 C   0  0  0  0  0  2  0  0  0  0  0  0
  159.7590  201.2000  149.9990 C   0  0  0  0  0  2  0  0  0  0  0  0
  161.6170  202.9820  147.0620 C   0  0  0  0  0  2  0  0  0  0  0  0
  161.5310  208.2760  152.3550 C   0  0  0  0  0  0  0  0  0  0  0  0
  160.7030  207.8870  155.3610 C   0  0  0  0  0  2  0  0  0  0  0  0
  161.7840  204.8210  151.0980 N   0  0  0  0  0  2  0  0  0  0  0  0
  161.0530  204.2910  147.4270 N   0  0  0  0  0  2  0  0  0  0  0  0
  161.4560  206.9250  152.3650 C   0  0  0  0  0  0  0  0  0  0  0  0
  161.2990  210.5480  152.7360 C   0  0  0  0  0  3  0  0  0  0  0  0
  161.7430  204.7950  148.6250 C   0  0  1  0  0  3  0  0  0  0  0  0
  160.8310  201.8020  147.6810 C   0  0  0  0  0  2  0  0  0  0  0  0
  160.2200  208.9180  154.3610 C   0  0  2  0  0  3  0  0  0  0  0  0
  161.7190  206.9600  149.8660 C   0  0  0  0  0  0  0  0  0  0  0  0
  161.2290  202.7500  149.9250 C   0  0  1  0  0  3  0  0  0  0  0  0
  161.6040  206.2220  151.1050 N   0  0  0  0  0  0  0  0  0  0  0  0
  161.8900  208.3830  147.5240 C   0  0  0  0  0  3  0  0  0  0  0  0
  160.7870  206.4990  154.8050 C   0  0  0  0  0  3  0  0  0  0  0  0
  161.8620  207.0210  147.4930 N   0  0  0  0  0  0  0  0  0  0  0  0
  161.1270  206.1170  153.5670 C   0  0  0  0  0  3  0  0  0  0  0  0
  161.4190  209.2400  153.4850 C   0  0  1  0  0  3  0  0  0  0  0  0
  161.8200  209.0440  148.7120 N   0  0  0  0  0  0  0  0  0  0  0  0
  161.6570  208.9960  151.1440 N   0  0  0  0  0  0  0  0  0  0  0  0
  159.8090  210.0560  155.0610 O   0  0  0  0  0  0  0  0  0  0  0  0
  160.2810  209.8630  156.3630 C   0  0  0  0  0  2  0  0  0  0  0  0
  159.8240  213.3280  156.7080 C   0  0  0  0  0  2  0  0  0  0  0  0
  158.4390  211.4760  156.8050 C   0  0  0  0  0  2  0  0  0  0  0  0
  159.7960  210.9850  157.2610 C   0  0  2  0  0  3  0  0  0  0  0  0
  158.4400  212.9260  156.9150 N   0  0  0  0  0  2  0  0  0  0  0  0
  160.7110  212.1770  157.1330 C   0  0  0  0  0  2  0  0  0  0  0  0
  1 27  1  0  0  0  0
  2 14  2  0  0  0  0
  3 16  1  6  0  0  0
  3 19  1  0  0  0  0
  3  7  1  0  0  0  0
  4 18  2  0  0  0  0
  5 11  1  1  0  0  0
  7  6  1  0  0  0  0
  8 12  1  0  0  0  0
  8 16  1  0  0  0  0
  9 13  2  0  0  0  0
  9 25  1  0  0  0  0
 11 20  1  0  0  0  0
 13 24  1  0  0  0  0
 15 12  1  6  0  0  0
 15  4  1  0  0  0  0
 15  5  1  0  0  0  0
 17 28  1  1  0  0  0
 17 10  1  0  0  0  0
 18  1  1  0  0  0  0
 18 20  1  0  0  0  0
 19  5  1  0  0  0  0
 19  6  1  1  0  0  0
 20 13  1  0  0  0  0
 21 26  1  0  0  0  0
 22 10  1  0  0  0  0
 23 21  2  0  0  0  0
 23  4  1  0  0  0  0
 24 22  2  0  0  0  0
 25 14  1  6  0  0  0
 25 17  1  0  0  0  0
 26  1  2  0  0  0  0
 27  2  1  0  0  0  0
 27  9  1  0  0  0  0
 28 29  1  0  0  0  0
 30 33  1  0  0  0  0
 30 34  1  0  0  0  0
 31 33  1  0  0  0  0
 31 32  1  0  0  0  0
 32 29  1  6  0  0  0
 34 32  1  0  0  0  0
M  END
>  <MODEL>
4

>  <REMARK>
 VINA RESULT:      -8.1      2.537      9.381
  Name = 
  3 active torsions:
  status: ('A' for Active; 'I' for Inactive)
    1  A    between atoms: C_17  and  O_28
    2  A    between atoms: O_28  and  C_29
    3  A    between atoms: C_29  and  C_32
                            x       y       z     vdW  Elec       q    Type
                         _______ _______ _______ _____ _____    ______ ____

>  <TORSDO>
F 3

$$$$
=
 OpenBabel11122414173D

 34 41  0  0  1  0  0  0  0  0999 V2000
  161.7080  208.6050  149.5540 C   0  0  0  0  0  0  0  0  0  0  0  0
  162.0090  207.0910  147.5110 C   0  0  0  0  0  3  0  0  0  0  0  0
  161.7900  208.8230  155.9210 C   0  0  2  0  0  3  0  0  0  0  0  0
  161.5290  209.7410  151.6570 C   0  0  0  0  0  0  0  0  0  0  0  0
  161.1900  208.2630  153.6470 C   0  0  1  0  0  3  0  0  0  0  0  0
  160.6760  207.0140  155.8970 C   0  0  0  0  0  2  0  0  0  0  0  0
  161.5810  207.7040  156.9150 C   0  0  0  0  0  2  0  0  0  0  0  0
  161.2700  211.1220  155.0510 C   0  0  0  0  0  2  0  0  0  0  0  0
  161.1010  206.1960  149.4150 C   0  0  0  0  0  0  0  0  0  0  0  0
  160.8190  203.0780  149.6780 C   0  0  0  0  0  2  0  0  0  0  0  0
  160.3490  207.4000  152.8160 N   0  0  0  0  0  2  0  0  0  0  0  0
  162.0180  210.6170  153.8890 N   0  0  0  0  0  2  0  0  0  0  0  0
  160.8100  206.1360  150.7350 C   0  0  0  0  0  0  0  0  0  0  0  0
  161.7960  205.8040  147.2410 C   0  0  0  0  0  3  0  0  0  0  0  0
  161.1480  209.7220  153.1090 C   0  0  1  0  0  3  0  0  0  0  0  0
  161.4830  210.2560  156.3160 C   0  0  0  0  0  2  0  0  0  0  0  0
  161.8440  203.8840  148.9060 C   0  0  2  0  0  3  0  0  0  0  0  0
  161.3570  208.5830  150.8980 C   0  0  0  0  0  0  0  0  0  0  0  0
  160.6730  208.2860  155.0700 C   0  0  1  0  0  3  0  0  0  0  0  0
  160.8820  207.3610  151.5080 N   0  0  0  0  0  0  0  0  0  0  0  0
  162.3060  210.8790  149.7290 C   0  0  0  0  0  3  0  0  0  0  0  0
  160.5490  203.6040  151.0540 C   0  0  0  0  0  3  0  0  0  0  0  0
  161.9800  210.8730  151.0520 N   0  0  0  0  0  0  0  0  0  0  0  0
  160.5230  204.8770  151.4690 C   0  0  0  0  0  3  0  0  0  0  0  0
  161.1070  205.1110  148.3950 C   0  0  1  0  0  3  0  0  0  0  0  0
  162.1750  209.7470  148.9850 N   0  0  0  0  0  0  0  0  0  0  0  0
  161.5540  207.3960  148.8170 N   0  0  0  0  0  0  0  0  0  0  0  0
  162.3020  203.1100  147.8360 O   0  0  0  0  0  0  0  0  0  0  0  0
  161.2060  202.3250  147.4700 C   0  0  0  0  0  2  0  0  0  0  0  0
  159.3380  201.3280  144.6670 C   0  0  0  0  0  2  0  0  0  0  0  0
  160.5080  203.2340  145.2610 C   0  0  0  0  0  2  0  0  0  0  0  0
  161.2110  202.0970  145.9700 C   0  0  2  0  0  3  0  0  0  0  0  0
  159.7050  202.6550  144.1960 N   0  0  0  0  0  2  0  0  0  0  0  0
  160.4070  200.8650  145.6350 C   0  0  0  0  0  2  0  0  0  0  0  0
  1 18  1  0  0  0  0
  2 27  1  0  0  0  0
  3 16  1  1  0  0  0
  3  7  1  0  0  0  0
  5 11  1  6  0  0  0
  5 19  1  0  0  0  0
  6  7  1  0  0  0  0
  8 16  1  0  0  0  0
  9 13  2  0  0  0  0
 10 22  1  0  0  0  0
 12  8  1  0  0  0  0
 13 24  1  0  0  0  0
 13 20  1  0  0  0  0
 14  2  2  0  0  0  0
 15  4  1  6  0  0  0
 15  5  1  0  0  0  0
 15 12  1  0  0  0  0
 17 28  1  6  0  0  0
 17 10  1  0  0  0  0
 18 20  1  0  0  0  0
 18  4  2  0  0  0  0
 19  6  1  1  0  0  0
 19  3  1  0  0  0  0
 20 11  1  0  0  0  0
 21 23  2  0  0  0  0
 22 24  2  0  0  0  0
 23  4  1  0  0  0  0
 25 14  1  6  0  0  0
 25 17  1  0  0  0  0
 25  9  1  0  0  0  0
 26  1  2  0  0  0  0
 26 21  1  0  0  0  0
 27  9  1  0  0  0  0
 27  1  1  0  0  0  0
 29 28  1  0  0  0  0
 30 34  1  0  0  0  0
 31 32  1  0  0  0  0
 32 29  1  1  0  0  0
 33 30  1  0  0  0  0
 33 31  1  0  0  0  0
 34 32  1  0  0  0  0
M  END
>  <MODEL>
5

>  <REMARK>
 VINA RESULT:      -7.7      2.212      4.433
  Name = 
  3 active torsions:
  status: ('A' for Active; 'I' for Inactive)
    1  A    between atoms: C_17  and  O_28
    2  A    between atoms: O_28  and  C_29
    3  A    between atoms: C_29  and  C_32
                            x       y       z     vdW  Elec       q    Type
                         _______ _______ _______ _____ _____    ______ ____

>  <TORSDO>
F 3

$$$$
=
 OpenBabel11122414173D

 34 41  0  0  1  0  0  0  0  0999 V2000
  160.9000  204.7990  151.8680 C   0  0  0  0  0  0  0  0  0  0  0  0
  161.2070  206.3370  153.8910 C   0  0  0  0  0  3  0  0  0  0  0  0
  162.2070  204.0240  145.6800 C   0  0  2  0  0  3  0  0  0  0  0  0
  160.8300  203.5830  149.8030 C   0  0  0  0  0  0  0  0  0  0  0  0
  161.3480  204.9210  147.7530 C   0  0  1  0  0  3  0  0  0  0  0  0
  161.6890  206.0680  145.4180 C   0  0  0  0  0  2  0  0  0  0  0  0
  162.5410  205.0690  144.6390 C   0  0  0  0  0  2  0  0  0  0  0  0
  160.8760  202.0450  146.4680 C   0  0  0  0  0  2  0  0  0  0  0  0
  161.0070  207.2830  151.8150 C   0  0  0  0  0  0  0  0  0  0  0  0
  161.7040  210.3220  151.4250 C   0  0  0  0  0  2  0  0  0  0  0  0
  160.6440  206.0530  148.3610 N   0  0  0  0  0  2  0  0  0  0  0  0
  161.4850  202.4180  147.7540 N   0  0  0  0  0  2  0  0  0  0  0  0
  161.0200  207.3100  150.4630 C   0  0  0  0  0  0  0  0  0  0  0  0
  161.3280  207.6490  154.0790 C   0  0  0  0  0  3  0  0  0  0  0  0
  160.7750  203.5840  148.3030 C   0  0  1  0  0  3  0  0  0  0  0  0
  161.5840  202.7060  145.2610 C   0  0  0  0  0  2  0  0  0  0  0  0
  162.2710  209.3300  152.4220 C   0  0  2  0  0  3  0  0  0  0  0  0
  160.8520  204.8030  150.4790 C   0  0  0  0  0  0  0  0  0  0  0  0
  161.1470  204.9230  146.2530 C   0  0  1  0  0  3  0  0  0  0  0  0
  160.8870  206.0520  149.7520 N   0  0  0  0  0  0  0  0  0  0  0  0
  160.8320  202.4410  151.8800 C   0  0  0  0  0  3  0  0  0  0  0  0
  161.5780  209.7780  150.0360 C   0  0  0  0  0  3  0  0  0  0  0  0
  160.7990  202.4250  150.5180 N   0  0  0  0  0  0  0  0  0  0  0  0
  161.2680  208.5320  149.6540 C   0  0  0  0  0  3  0  0  0  0  0  0
  161.1210  208.4060  152.7870 C   0  0  1  0  0  3  0  0  0  0  0  0
  160.8890  203.6240  152.5510 N   0  0  0  0  0  0  0  0  0  0  0  0
  160.9590  206.0610  152.5250 N   0  0  0  0  0  0  0  0  0  0  0  0
  162.7070  210.0340  153.5480 O   0  0  0  0  0  0  0  0  0  0  0  0
  161.6460  210.8840  153.8690 C   0  0  0  0  0  2  0  0  0  0  0  0
  160.7450  209.4840  156.9620 C   0  0  0  0  0  2  0  0  0  0  0  0
  162.6990  210.3280  156.0540 C   0  0  0  0  0  2  0  0  0  0  0  0
  161.5810  211.0860  155.3720 C   0  0  2  0  0  3  0  0  0  0  0  0
  162.1480  209.7300  157.2590 N   0  0  0  0  0  2  0  0  0  0  0  0
  160.3080  210.4880  155.9160 C   0  0  0  0  0  2  0  0  0  0  0  0
  1 27  1  0  0  0  0
  1 26  1  0  0  0  0
  2 14  2  0  0  0  0
  3  7  1  6  0  0  0
  3 19  1  0  0  0  0
  4 18  1  0  0  0  0
  4 23  2  0  0  0  0
  5 15  1  0  0  0  0
  5 11  1  1  0  0  0
  7  6  1  0  0  0  0
  8 12  1  0  0  0  0
  9 27  1  0  0  0  0
  9 25  1  0  0  0  0
 10 17  1  0  0  0  0
 11 20  1  0  0  0  0
 13  9  2  0  0  0  0
 15 12  1  6  0  0  0
 15  4  1  0  0  0  0
 16  3  1  0  0  0  0
 16  8  1  0  0  0  0
 17 25  1  0  0  0  0
 17 28  1  1  0  0  0
 18  1  2  0  0  0  0
 19  6  1  6  0  0  0
 19  5  1  0  0  0  0
 20 13  1  0  0  0  0
 20 18  1  0  0  0  0
 21 26  2  0  0  0  0
 22 10  1  0  0  0  0
 23 21  1  0  0  0  0
 24 22  2  0  0  0  0
 24 13  1  0  0  0  0
 25 14  1  1  0  0  0
 27  2  1  0  0  0  0
 28 29  1  0  0  0  0
 30 33  1  0  0  0  0
 31 33  1  0  0  0  0
 32 29  1  6  0  0  0
 32 34  1  0  0  0  0
 32 31  1  0  0  0  0
 34 30  1  0  0  0  0
M  END
>  <MODEL>
6

>  <REMARK>
 VINA RESULT:      -7.5      2.666      8.636
  Name = 
  3 active torsions:
  status: ('A' for Active; 'I' for Inactive)
    1  A    between atoms: C_17  and  O_28
    2  A    between atoms: O_28  and  C_29
    3  A    between atoms: C_29  and  C_32
                            x       y       z     vdW  Elec       q    Type
                         _______ _______ _______ _____ _____    ______ ____

>  <TORSDO>
F 3

$$$$
=
 OpenBabel11122414173D

 34 41  0  0  1  0  0  0  0  0999 V2000
  160.9970  206.5020  153.5500 C   0  0  0  0  0  0  0  0  0  0  0  0
  161.3940  204.5320  151.9640 C   0  0  0  0  0  3  0  0  0  0  0  0
  158.8110  212.4710  153.9800 C   0  0  2  0  0  3  0  0  0  0  0  0
  160.4660  208.5030  154.7580 C   0  0  0  0  0  0  0  0  0  0  0  0
  160.1320  210.5460  153.3530 C   0  0  1  0  0  3  0  0  0  0  0  0
  159.8750  212.8830  152.1870 C   0  0  0  0  0  2  0  0  0  0  0  0
  158.6820  213.5190  152.8970 C   0  0  0  0  0  2  0  0  0  0  0  0
  159.5820  211.7390  156.2550 C   0  0  0  0  0  2  0  0  0  0  0  0
  161.6230  206.6600  151.1470 C   0  0  0  0  0  0  0  0  0  0  0  0
  161.8120  207.1150  148.0450 C   0  0  0  0  0  2  0  0  0  0  0  0
  161.2040  210.0720  152.4750 N   0  0  0  0  0  2  0  0  0  0  0  0
  159.2630  210.4140  155.7010 N   0  0  0  0  0  2  0  0  0  0  0  0
  161.4610  208.0030  151.1360 C   0  0  0  0  0  0  0  0  0  0  0  0
  161.6880  204.3940  150.6730 C   0  0  0  0  0  3  0  0  0  0  0  0
  160.3440  209.9990  154.7940 C   0  0  1  0  0  3  0  0  0  0  0  0
  158.9650  212.8930  155.4300 C   0  0  0  0  0  2  0  0  0  0  0  0
  161.0980  206.0190  148.8090 C   0  0  2  0  0  3  0  0  0  0  0  0
  160.8830  207.8870  153.5790 C   0  0  0  0  0  0  0  0  0  0  0  0
  160.1490  212.0580  153.4310 C   0  0  1  0  0  3  0  0  0  0  0  0
  161.1330  208.6640  152.3850 N   0  0  0  0  0  0  0  0  0  0  0  0
  160.3680  206.3860  155.8200 C   0  0  0  0  0  3  0  0  0  0  0  0
  161.6100  208.4830  148.6200 C   0  0  0  0  0  3  0  0  0  0  0  0
  160.2360  207.7420  155.8630 N   0  0  0  0  0  0  0  0  0  0  0  0
  161.4930  208.8370  149.9070 C   0  0  0  0  0  3  0  0  0  0  0  0
  161.9590  205.7360  150.0290 C   0  0  1  0  0  3  0  0  0  0  0  0
  160.7410  205.7690  154.6660 N   0  0  0  0  0  0  0  0  0  0  0  0
  161.3900  205.9030  152.3190 N   0  0  0  0  0  0  0  0  0  0  0  0
  161.0230  204.8870  147.9930 O   0  0  0  0  0  0  0  0  0  0  0  0
  162.2580  204.8340  147.3420 C   0  0  0  0  0  2  0  0  0  0  0  0
  160.2170  203.0500  145.1080 C   0  0  0  0  0  2  0  0  0  0  0  0
  161.0420  205.2100  145.2040 C   0  0  0  0  0  2  0  0  0  0  0  0
  162.0710  204.3570  145.9140 C   0  0  2  0  0  3  0  0  0  0  0  0
  160.2190  204.3210  144.4000 N   0  0  0  0  0  2  0  0  0  0  0  0
  161.4990  202.9610  145.9090 C   0  0  0  0  0  2  0  0  0  0  0  0
  1 18  2  0  0  0  0
  1 26  1  0  0  0  0
  2 27  1  0  0  0  0
  3  7  1  6  0  0  0
  3 16  1  0  0  0  0
  4 23  2  0  0  0  0
  5 11  1  6  0  0  0
  5 19  1  0  0  0  0
  5 15  1  0  0  0  0
  6  7  1  0  0  0  0
  9 27  1  0  0  0  0
 10 22  1  0  0  0  0
 10 17  1  0  0  0  0
 12  8  1  0  0  0  0
 13  9  2  0  0  0  0
 13 20  1  0  0  0  0
 14  2  2  0  0  0  0
 15  4  1  6  0  0  0
 15 12  1  0  0  0  0
 16  8  1  0  0  0  0
 17 28  1  6  0  0  0
 17 25  1  0  0  0  0
 18  4  1  0  0  0  0
 19  6  1  6  0  0  0
 19  3  1  0  0  0  0
 20 11  1  0  0  0  0
 20 18  1  0  0  0  0
 21 23  1  0  0  0  0
 22 24  2  0  0  0  0
 24 13  1  0  0  0  0
 25 14  1  1  0  0  0
 25  9  1  0  0  0  0
 26 21  2  0  0  0  0
 27  1  1  0  0  0  0
 29 28  1  0  0  0  0
 30 34  1  0  0  0  0
 31 32  1  0  0  0  0
 32 29  1  1  0  0  0
 33 30  1  0  0  0  0
 33 31  1  0  0  0  0
 34 32  1  0  0  0  0
M  END
>  <MODEL>
7

>  <REMARK>
 VINA RESULT:      -7.3      1.111      1.278
  Name = 
  3 active torsions:
  status: ('A' for Active; 'I' for Inactive)
    1  A    between atoms: C_17  and  O_28
    2  A    between atoms: O_28  and  C_29
    3  A    between atoms: C_29  and  C_32
                            x       y       z     vdW  Elec       q    Type
                         _______ _______ _______ _____ _____    ______ ____

>  <TORSDO>
F 3

$$$$
