=
 OpenBabel11122413353D

 37 43  0  0  1  0  0  0  0  0999 V2000
  157.9360  212.9450  151.1040 O   0  0  0  0  0  0  0  0  0  0  0  0
  161.7690  213.7940  147.8960 C   0  0  0  0  0  0  0  0  0  0  0  0
  160.9890  210.9580  150.9900 C   0  0  1  0  0  3  0  0  0  0  0  0
  156.9130  213.7010  150.5040 C   0  0  2  0  0  3  0  0  0  0  0  0
  159.0870  212.0510  154.0860 O   0  0  0  0  0  0  0  0  0  0  0  0
  162.3130  211.4760  148.8450 C   0  0  1  0  0  3  0  0  0  0  0  0
  160.5520  211.8320  152.1730 C   0  0  2  0  0  3  0  0  0  0  0  0
  156.1130  213.8810  152.9260 C   0  0  0  0  0  0  0  0  0  0  0  0
  161.7420  211.9640  150.1780 C   0  0  1  0  0  3  0  0  0  0  0  0
  159.3910  211.2340  152.9910 C   0  0  1  0  0  3  0  0  0  0  0  0
  162.1980  209.9560  148.7140 C   0  0  0  0  0  2  0  0  0  0  0  0
  156.0410  214.4530  151.5330 C   0  0  0  0  0  2  0  0  0  0  0  0
  160.7400  213.0570  150.0760 C   0  0  2  0  0  3  0  0  0  0  0  0
  160.8230  214.4440  146.9060 C   0  0  0  0  0  1  0  0  0  0  0  0
  161.1530  208.5260  151.8500 C   0  0  0  0  0  2  0  0  0  0  0  0
  162.6660  209.2860  150.0220 C   0  0  0  0  0  2  0  0  0  0  0  0
  161.3530  214.2280  149.3270 C   0  0  0  0  0  2  0  0  0  0  0  0
  157.4240  213.7610  153.6700 C   0  0  1  0  0  3  0  0  0  0  0  0
  157.7130  212.2890  153.9750 C   0  0  0  0  0  2  0  0  0  0  0  0
  161.8870  209.7460  151.2820 C   0  0  1  0  0  3  0  0  0  0  0  0
  160.3210  213.2470  151.5250 C   0  0  1  0  0  3  0  0  0  0  0  0
  161.7400  212.2590  147.6550 C   0  0  0  0  0  2  0  0  0  0  0  0
  159.6420  209.8020  153.4900 C   0  0  1  0  0  3  0  0  0  0  0  0
  163.1670  214.3130  147.6250 C   0  0  0  0  0  1  0  0  0  0  0  0
  158.5870  214.4530  152.9360 C   0  0  0  0  0  2  0  0  0  0  0  0
  155.0790  213.5340  153.4740 O   0  0  0  0  0  0  0  0  0  0  0  0
  158.9120  213.8530  151.5570 C   0  0  2  0  0  3  0  0  0  0  0  0
  159.7360  208.7620  152.3750 C   0  0  0  0  0  2  0  0  0  0  0  0
  160.4730  208.5870  155.5140 C   0  0  0  0  0  3  0  0  0  0  0  0
  160.6350  209.6440  154.6110 C   0  0  0  0  0  0  0  0  0  0  0  0
  161.7240  210.5160  154.7570 C   0  0  0  0  0  3  0  0  0  0  0  0
  163.6840  211.1820  155.9360 F   0  0  0  0  0  0  0  0  0  0  0  0
  162.4670  209.2810  156.7010 C   0  0  0  0  0  3  0  0  0  0  0  0
  162.6360  210.3360  155.8000 C   0  0  0  0  0  0  0  0  0  0  0  0
  161.3860  208.4060  156.5580 C   0  0  0  0  0  3  0  0  0  0  0  0
  156.6730  212.5760  148.2930 C   0  0  0  0  0  1  0  0  0  0  0  0
  156.0490  212.7810  149.6600 C   0  0  0  0  0  2  0  0  0  0  0  0
  1 27  1  0  0  0  0
  2 17  1  0  0  0  0
  3 20  1  0  0  0  0
  3  7  1  0  0  0  0
  4  1  1  0  0  0  0
  4 12  1  0  0  0  0
  6  9  1  0  0  0  0
  7 10  1  0  0  0  0
  8 26  2  0  0  0  0
  8 18  1  0  0  0  0
  9  3  1  0  0  0  0
 10 23  1  0  0  0  0
 10  5  1  0  0  0  0
 11  6  1  0  0  0  0
 11 16  1  0  0  0  0
 12  8  1  0  0  0  0
 13  9  1  0  0  0  0
 13 21  1  0  0  0  0
 14  2  1  0  0  0  0
 15 28  1  0  0  0  0
 16 20  1  0  0  0  0
 17 13  1  0  0  0  0
 18 19  1  0  0  0  0
 19  5  1  0  0  0  0
 20 15  1  0  0  0  0
 21 27  1  0  0  0  0
 21  7  1  0  0  0  0
 22  2  1  0  0  0  0
 22  6  1  0  0  0  0
 23 30  1  0  0  0  0
 24  2  1  0  0  0  0
 25 18  1  0  0  0  0
 27 25  1  0  0  0  0
 28 23  1  0  0  0  0
 29 35  1  0  0  0  0
 30 31  1  0  0  0  0
 30 29  2  0  0  0  0
 31 34  2  0  0  0  0
 34 32  1  0  0  0  0
 34 33  1  0  0  0  0
 35 33  2  0  0  0  0
 36 37  1  0  0  0  0
 37  4  1  0  0  0  0
M  END
>  <MODEL>
1

>  <REMARK>
 VINA RESULT:      -1.9      0.000      0.000
  Name = 
  2 active torsions:
  status: ('A' for Active; 'I' for Inactive)
    1  A    between atoms: C_4  and  C_37
    2  A    between atoms: C_23  and  C_30
                            x       y       z     vdW  Elec       q    Type
                         _______ _______ _______ _____ _____    ______ ____

>  <TORSDO>
F 2

$$$$
=
 OpenBabel11122413353D

 37 43  0  0  1  0  0  0  0  0999 V2000
  161.3050  210.8940  154.5250 O   0  0  0  0  0  0  0  0  0  0  0  0
  161.8550  206.5980  151.8900 C   0  0  0  0  0  0  0  0  0  0  0  0
  160.9580  210.6540  150.9050 C   0  0  1  0  0  3  0  0  0  0  0  0
  161.8890  210.5310  155.7520 C   0  0  2  0  0  3  0  0  0  0  0  0
  158.8340  212.7220  153.2730 O   0  0  0  0  0  0  0  0  0  0  0  0
  161.8750  208.3990  150.0670 C   0  0  1  0  0  3  0  0  0  0  0  0
  159.8260  211.0140  151.8750 C   0  0  2  0  0  3  0  0  0  0  0  0
  160.2280  212.2570  156.6460 C   0  0  0  0  0  0  0  0  0  0  0  0
  160.8470  209.1620  150.9060 C   0  0  1  0  0  3  0  0  0  0  0  0
  159.9290  212.4410  152.4470 C   0  0  1  0  0  3  0  0  0  0  0  0
  162.6860  209.3500  149.1850 C   0  0  0  0  0  2  0  0  0  0  0  0
  161.1170  211.0830  156.9700 C   0  0  0  0  0  2  0  0  0  0  0  0
  160.8810  208.8730  152.3640 C   0  0  2  0  0  3  0  0  0  0  0  0
  162.7620  206.0320  152.9640 C   0  0  0  0  0  1  0  0  0  0  0  0
  161.2600  212.6540  149.2970 C   0  0  0  0  0  2  0  0  0  0  0  0
  161.7380  210.3470  148.4880 C   0  0  0  0  0  2  0  0  0  0  0  0
  160.7070  207.3800  152.5810 C   0  0  0  0  0  2  0  0  0  0  0  0
  159.1310  212.1620  155.6090 C   0  0  1  0  0  3  0  0  0  0  0  0
  159.4040  213.1530  154.4760 C   0  0  0  0  0  2  0  0  0  0  0  0
  160.8690  211.1810  149.4650 C   0  0  1  0  0  3  0  0  0  0  0  0
  159.8250  209.8240  152.9050 C   0  0  1  0  0  3  0  0  0  0  0  0
  162.7240  207.4500  150.9240 C   0  0  0  0  0  2  0  0  0  0  0  0
  160.0460  213.5420  151.3810 C   0  0  1  0  0  3  0  0  0  0  0  0
  161.2500  205.4390  151.1220 C   0  0  0  0  0  1  0  0  0  0  0  0
  158.9190  210.7240  155.1010 C   0  0  0  0  0  2  0  0  0  0  0  0
  160.3820  213.2990  157.2610 O   0  0  0  0  0  0  0  0  0  0  0  0
  160.1370  210.1220  154.3780 C   0  0  2  0  0  3  0  0  0  0  0  0
  161.3430  213.4910  150.5740 C   0  0  0  0  0  2  0  0  0  0  0  0
  158.9240  214.1670  149.2330 C   0  0  0  0  0  3  0  0  0  0  0  0
  158.8020  213.8490  150.5910 C   0  0  0  0  0  0  0  0  0  0  0  0
  157.5290  213.8060  151.1770 C   0  0  0  0  0  3  0  0  0  0  0  0
  155.1650  214.0410  150.9880 F   0  0  0  0  0  0  0  0  0  0  0  0
  156.5200  214.4040  149.0610 C   0  0  0  0  0  3  0  0  0  0  0  0
  156.3910  214.0840  150.4150 C   0  0  0  0  0  0  0  0  0  0  0  0
  157.7860  214.4450  148.4700 C   0  0  0  0  0  3  0  0  0  0  0  0
  163.8410  211.0770  157.2030 C   0  0  0  0  0  1  0  0  0  0  0  0
  163.3260  211.0210  155.7780 C   0  0  0  0  0  2  0  0  0  0  0  0
  1  4  1  0  0  0  0
  2 17  1  0  0  0  0
  2 14  1  0  0  0  0
  3  9  1  0  0  0  0
  3  7  1  0  0  0  0
  4 37  1  0  0  0  0
  4 12  1  0  0  0  0
  5 19  1  0  0  0  0
  6  9  1  0  0  0  0
  6 22  1  0  0  0  0
  7 10  1  0  0  0  0
  7 21  1  0  0  0  0
  8 12  1  0  0  0  0
  8 26  2  0  0  0  0
  9 13  1  0  0  0  0
 10  5  1  0  0  0  0
 11  6  1  0  0  0  0
 13 17  1  0  0  0  0
 13 21  1  0  0  0  0
 15 20  1  0  0  0  0
 15 28  1  0  0  0  0
 16 11  1  0  0  0  0
 16 20  1  0  0  0  0
 18  8  1  0  0  0  0
 19 18  1  0  0  0  0
 20  3  1  0  0  0  0
 21 27  1  0  0  0  0
 22  2  1  0  0  0  0
 23 10  1  0  0  0  0
 24  2  1  0  0  0  0
 25 18  1  0  0  0  0
 27  1  1  0  0  0  0
 27 25  1  0  0  0  0
 28 23  1  0  0  0  0
 29 30  1  0  0  0  0
 30 31  2  0  0  0  0
 30 23  1  0  0  0  0
 33 34  2  0  0  0  0
 34 32  1  0  0  0  0
 34 31  1  0  0  0  0
 35 33  1  0  0  0  0
 35 29  2  0  0  0  0
 37 36  1  0  0  0  0
M  END
>  <MODEL>
2

>  <REMARK>
 VINA RESULT:      -1.4      2.406      6.570
  Name = 
  2 active torsions:
  status: ('A' for Active; 'I' for Inactive)
    1  A    between atoms: C_4  and  C_37
    2  A    between atoms: C_23  and  C_30
                            x       y       z     vdW  Elec       q    Type
                         _______ _______ _______ _____ _____    ______ ____

>  <TORSDO>
F 2

$$$$
