=
 OpenBabel11122414263D

 34 41  0  0  1  0  0  0  0  0999 V2000
  160.7500  207.4210  154.1940 C   0  0  0  0  0  0  0  0  0  0  0  0
  161.2340  205.0990  153.2040 C   0  0  0  0  0  2  0  0  0  0  0  0
  158.4830  213.3220  153.0050 C   0  0  2  0  0  3  0  0  0  0  0  0
  160.2020  209.6860  154.8930 C   0  0  0  0  0  0  0  0  0  0  0  0
  159.8620  211.3130  153.0170 C   0  0  1  0  0  3  0  0  0  0  0  0
  159.6260  213.1520  151.2150 C   0  0  0  0  0  2  0  0  0  0  0  0
  158.3470  213.8790  151.6060 C   0  0  0  0  0  2  0  0  0  0  0  0
  159.3030  213.5960  155.6590 S   0  0  0  0  0  0  0  0  0  0  0  0
  161.3400  207.0050  151.8150 C   0  0  0  0  0  0  0  0  0  0  0  0
  161.6940  206.8540  148.5860 C   0  0  0  0  0  2  0  0  0  0  0  0
  160.9450  210.6370  152.3040 N   0  0  0  0  0  2  0  0  0  0  0  0
  158.9310  211.8200  155.3500 C   0  0  0  0  0  2  0  0  0  0  0  0
  161.2160  208.3190  151.5050 C   0  0  0  0  0  0  0  0  0  0  0  0
  161.4170  204.6350  151.7540 C   0  0  0  0  0  2  0  0  0  0  0  0
  160.0590  211.1470  154.5440 C   0  0  1  0  0  3  0  0  0  0  0  0
  158.5790  214.3330  154.1290 C   0  0  0  0  0  2  0  0  0  0  0  0
  160.9840  205.9290  149.5820 C   0  0  2  0  0  3  0  0  0  0  0  0
  160.6100  208.7820  153.8980 C   0  0  0  0  0  0  0  0  0  0  0  0
  159.8540  212.7910  152.6720 C   0  0  1  0  0  3  0  0  0  0  0  0
  160.8570  209.2510  152.5520 N   0  0  0  0  0  0  0  0  0  0  0  0
  160.1730  207.8630  156.5020 C   0  0  0  0  0  3  0  0  0  0  0  0
  162.3020  208.1080  149.2180 C   0  0  0  0  0  2  0  0  0  0  0  0
  160.0120  209.2200  156.2040 C   0  0  0  0  0  3  0  0  0  0  0  0
  161.2880  208.8360  150.0870 C   0  0  0  0  0  2  0  0  0  0  0  0
  161.7370  205.8830  150.9160 C   0  0  1  0  0  3  0  0  0  0  0  0
  160.5340  206.9600  155.4980 C   0  0  0  0  0  3  0  0  0  0  0  0
  161.1160  206.5400  153.1310 N   0  0  0  0  0  0  0  0  0  0  0  0
  160.8840  204.6550  149.0170 O   0  0  0  0  0  0  0  0  0  0  0  0
  161.1930  204.8380  147.6670 C   0  0  0  0  0  2  0  0  0  0  0  0
  160.3670  201.7460  147.0830 O   0  0  0  0  0  0  0  0  0  0  0  0
  161.4030  203.3540  145.7010 C   0  0  0  0  0  2  0  0  0  0  0  0
  161.8560  203.5890  147.1130 C   0  0  2  0  0  3  0  0  0  0  0  0
  160.7320  202.0030  145.7540 C   0  0  0  0  0  2  0  0  0  0  0  0
  161.3490  202.3770  147.8610 C   0  0  0  0  0  2  0  0  0  0  0  0
  1 26  1  0  0  0  0
  3  7  1  6  0  0  0
  3 16  1  0  0  0  0
  4 23  2  0  0  0  0
  5 11  1  6  0  0  0
  5 15  1  0  0  0  0
  6  7  1  0  0  0  0
  9 27  1  0  0  0  0
 10 22  1  0  0  0  0
 10 17  1  0  0  0  0
 11 20  1  0  0  0  0
 12  8  1  0  0  0  0
 13  9  2  0  0  0  0
 13 20  1  0  0  0  0
 14  2  1  0  0  0  0
 15  4  1  0  0  0  0
 15 12  1  1  0  0  0
 16  8  1  0  0  0  0
 17 28  1  6  0  0  0
 17 25  1  0  0  0  0
 18  1  2  0  0  0  0
 18  4  1  0  0  0  0
 19  6  1  6  0  0  0
 19  3  1  0  0  0  0
 19  5  1  0  0  0  0
 20 18  1  0  0  0  0
 22 24  1  0  0  0  0
 23 21  1  0  0  0  0
 24 13  1  0  0  0  0
 25 14  1  1  0  0  0
 25  9  1  0  0  0  0
 26 21  2  0  0  0  0
 27  2  1  0  0  0  0
 27  1  1  0  0  0  0
 29 28  1  0  0  0  0
 30 34  1  0  0  0  0
 31 33  1  0  0  0  0
 31 32  1  0  0  0  0
 32 29  1  1  0  0  0
 32 34  1  0  0  0  0
 33 30  1  0  0  0  0
M  END
>  <MODEL>
1

>  <REMARK>
 VINA RESULT:      -9.9      0.000      0.000
  Name = 
  3 active torsions:
  status: ('A' for Active; 'I' for Inactive)
    1  A    between atoms: C_17  and  O_28
    2  A    between atoms: O_28  and  C_29
    3  A    between atoms: C_29  and  C_32
                            x       y       z     vdW  Elec       q    Type
                         _______ _______ _______ _____ _____    ______ ____

>  <TORSDO>
F 3

$$$$
=
 OpenBabel11122414263D

 34 41  0  0  1  0  0  0  0  0999 V2000
  160.7940  207.6580  154.7200 C   0  0  0  0  0  0  0  0  0  0  0  0
  161.5780  205.6420  153.3310 C   0  0  0  0  0  2  0  0  0  0  0  0
  157.7910  213.3440  154.5800 C   0  0  2  0  0  3  0  0  0  0  0  0
  159.9550  209.6650  155.8100 C   0  0  0  0  0  0  0  0  0  0  0  0
  159.4170  211.5590  154.2590 C   0  0  1  0  0  3  0  0  0  0  0  0
  158.9540  213.6580  152.8220 C   0  0  0  0  0  2  0  0  0  0  0  0
  157.5910  214.1320  153.3040 C   0  0  0  0  0  2  0  0  0  0  0  0
  158.5560  213.2170  157.2610 S   0  0  0  0  0  0  0  0  0  0  0  0
  161.4430  207.7730  152.3230 C   0  0  0  0  0  0  0  0  0  0  0  0
  161.8300  208.2750  149.1340 C   0  0  0  0  0  2  0  0  0  0  0  0
  160.5820  211.1700  153.4640 N   0  0  0  0  0  2  0  0  0  0  0  0
  158.4170  211.4980  156.6170 C   0  0  0  0  0  2  0  0  0  0  0  0
  161.1530  209.0950  152.2590 C   0  0  0  0  0  0  0  0  0  0  0  0
  161.8260  205.4850  151.8260 C   0  0  0  0  0  2  0  0  0  0  0  0
  159.6260  211.1350  155.7340 C   0  0  1  0  0  3  0  0  0  0  0  0
  157.7500  214.1310  155.8740 C   0  0  0  0  0  2  0  0  0  0  0  0
  161.2410  207.0980  149.9200 C   0  0  2  0  0  3  0  0  0  0  0  0
  160.4810  209.0220  154.6770 C   0  0  0  0  0  0  0  0  0  0  0  0
  159.2200  213.0620  154.1930 C   0  0  1  0  0  3  0  0  0  0  0  0
  160.6720  209.7620  153.4490 N   0  0  0  0  0  0  0  0  0  0  0  0
  160.1530  207.5830  157.0530 C   0  0  0  0  0  3  0  0  0  0  0  0
  162.2680  209.4550  150.0040 C   0  0  0  0  0  2  0  0  0  0  0  0
  159.8200  208.9420  157.0060 C   0  0  0  0  0  3  0  0  0  0  0  0
  161.1650  209.8740  150.9640 C   0  0  0  0  0  2  0  0  0  0  0  0
  161.9870  206.8980  151.2430 C   0  0  1  0  0  3  0  0  0  0  0  0
  160.6320  206.9380  155.9090 C   0  0  0  0  0  3  0  0  0  0  0  0
  161.2750  207.0450  153.5230 N   0  0  0  0  0  0  0  0  0  0  0  0
  161.3080  205.9500  149.1260 O   0  0  0  0  0  0  0  0  0  0  0  0
  160.5680  206.2630  147.9830 C   0  0  0  0  0  2  0  0  0  0  0  0
  162.5400  205.8790  145.4240 O   0  0  0  0  0  0  0  0  0  0  0  0
  162.0510  204.4360  147.2260 C   0  0  0  0  0  2  0  0  0  0  0  0
  160.8120  205.2210  146.9060 C   0  0  2  0  0  3  0  0  0  0  0  0
  162.9620  204.6990  146.0520 C   0  0  0  0  0  2  0  0  0  0  0  0
  161.1490  205.9120  145.6040 C   0  0  0  0  0  2  0  0  0  0  0  0
  1 26  1  0  0  0  0
  2 27  1  0  0  0  0
  3  7  1  6  0  0  0
  3 16  1  0  0  0  0
  4 23  2  0  0  0  0
  5 11  1  6  0  0  0
  5 15  1  0  0  0  0
  6  7  1  0  0  0  0
  9 27  1  0  0  0  0
 10 17  1  0  0  0  0
 10 22  1  0  0  0  0
 12  8  1  0  0  0  0
 13  9  2  0  0  0  0
 13 20  1  0  0  0  0
 14  2  1  0  0  0  0
 15  4  1  0  0  0  0
 15 12  1  1  0  0  0
 16  8  1  0  0  0  0
 17 28  1  6  0  0  0
 17 25  1  0  0  0  0
 18  1  2  0  0  0  0
 18  4  1  0  0  0  0
 19  6  1  6  0  0  0
 19  5  1  0  0  0  0
 19  3  1  0  0  0  0
 20 11  1  0  0  0  0
 20 18  1  0  0  0  0
 22 24  1  0  0  0  0
 23 21  1  0  0  0  0
 24 13  1  0  0  0  0
 25 14  1  1  0  0  0
 25  9  1  0  0  0  0
 26 21  2  0  0  0  0
 27  1  1  0  0  0  0
 29 28  1  0  0  0  0
 30 34  1  0  0  0  0
 30 33  1  0  0  0  0
 32 31  1  0  0  0  0
 32 29  1  1  0  0  0
 33 31  1  0  0  0  0
 34 32  1  0  0  0  0
M  END
>  <MODEL>
2

>  <REMARK>
 VINA RESULT:      -8.9      1.493      1.806
  Name = 
  3 active torsions:
  status: ('A' for Active; 'I' for Inactive)
    1  A    between atoms: C_17  and  O_28
    2  A    between atoms: O_28  and  C_29
    3  A    between atoms: C_29  and  C_32
                            x       y       z     vdW  Elec       q    Type
                         _______ _______ _______ _____ _____    ______ ____

>  <TORSDO>
F 3

$$$$
=
 OpenBabel11122414263D

 34 41  0  0  1  0  0  0  0  0999 V2000
  161.4990  209.8030  150.9900 C   0  0  0  0  0  0  0  0  0  0  0  0
  160.9300  211.6210  152.7160 C   0  0  0  0  0  2  0  0  0  0  0  0
  160.6060  203.6740  149.2590 C   0  0  2  0  0  3  0  0  0  0  0  0
  161.8840  207.9210  149.4980 C   0  0  0  0  0  0  0  0  0  0  0  0
  161.2960  205.6810  150.4550 C   0  0  1  0  0  3  0  0  0  0  0  0
  160.8830  203.2850  151.3360 C   0  0  0  0  0  2  0  0  0  0  0  0
  160.0960  202.6190  150.2170 C   0  0  0  0  0  2  0  0  0  0  0  0
  162.4230  204.5120  147.3140 S   0  0  0  0  0  0  0  0  0  0  0  0
  160.9960  209.3570  153.3840 C   0  0  0  0  0  0  0  0  0  0  0  0
  160.0300  208.3220  156.3110 C   0  0  0  0  0  2  0  0  0  0  0  0
  161.8000  206.1570  151.7420 N   0  0  0  0  0  2  0  0  0  0  0  0
  161.5030  205.9870  147.9190 C   0  0  0  0  0  2  0  0  0  0  0  0
  161.1170  208.0190  153.2090 C   0  0  0  0  0  0  0  0  0  0  0  0
  160.4120  211.5230  154.1560 C   0  0  0  0  0  2  0  0  0  0  0  0
  162.0120  206.4300  149.3040 C   0  0  1  0  0  3  0  0  0  0  0  0
  161.3910  203.1770  148.0620 C   0  0  0  0  0  2  0  0  0  0  0  0
  159.5390  209.4670  155.4170 C   0  0  2  0  0  3  0  0  0  0  0  0
  161.6240  208.4240  150.7830 C   0  0  0  0  0  0  0  0  0  0  0  0
  161.5490  204.1910  150.3150 C   0  0  1  0  0  3  0  0  0  0  0  0
  161.4490  207.5150  151.8940 N   0  0  0  0  0  0  0  0  0  0  0  0
  161.9920  210.2000  148.6540 C   0  0  0  0  0  3  0  0  0  0  0  0
  161.1440  207.4750  155.6910 C   0  0  0  0  0  2  0  0  0  0  0  0
  162.0960  208.8210  148.4410 C   0  0  0  0  0  3  0  0  0  0  0  0
  160.7740  207.0180  154.2880 C   0  0  0  0  0  2  0  0  0  0  0  0
  160.7050  210.0960  154.6470 C   0  0  1  0  0  3  0  0  0  0  0  0
  161.6860  210.6930  149.9260 C   0  0  0  0  0  3  0  0  0  0  0  0
  161.1800  210.2550  152.3080 N   0  0  0  0  0  0  0  0  0  0  0  0
  158.8950  210.4150  156.2170 O   0  0  0  0  0  0  0  0  0  0  0  0
  157.6190  210.5410  155.6620 C   0  0  0  0  0  2  0  0  0  0  0  0
  158.2110  213.7390  155.7270 O   0  0  0  0  0  0  0  0  0  0  0  0
  156.2900  212.5390  155.0660 C   0  0  0  0  0  2  0  0  0  0  0  0
  156.9430  211.7930  156.1940 C   0  0  2  0  0  3  0  0  0  0  0  0
  156.9820  213.8810  155.0690 C   0  0  0  0  0  2  0  0  0  0  0  0
  157.9940  212.7540  156.7020 C   0  0  0  0  0  2  0  0  0  0  0  0
  1 27  1  0  0  0  0
  2 14  1  0  0  0  0
  3 16  1  6  0  0  0
  3  7  1  0  0  0  0
  3 19  1  0  0  0  0
  4 18  2  0  0  0  0
  5 11  1  1  0  0  0
  7  6  1  0  0  0  0
  8 12  1  0  0  0  0
  8 16  1  0  0  0  0
  9 25  1  0  0  0  0
 11 20  1  0  0  0  0
 13  9  2  0  0  0  0
 13 24  1  0  0  0  0
 15 12  1  6  0  0  0
 15  4  1  0  0  0  0
 15  5  1  0  0  0  0
 17 28  1  1  0  0  0
 17 10  1  0  0  0  0
 18  1  1  0  0  0  0
 18 20  1  0  0  0  0
 19  5  1  0  0  0  0
 19  6  1  1  0  0  0
 20 13  1  0  0  0  0
 21 26  1  0  0  0  0
 22 10  1  0  0  0  0
 23 21  2  0  0  0  0
 23  4  1  0  0  0  0
 24 22  1  0  0  0  0
 25 14  1  6  0  0  0
 25 17  1  0  0  0  0
 26  1  2  0  0  0  0
 27  2  1  0  0  0  0
 27  9  1  0  0  0  0
 29 28  1  0  0  0  0
 30 34  1  0  0  0  0
 31 33  1  0  0  0  0
 31 32  1  0  0  0  0
 32 29  1  6  0  0  0
 32 34  1  0  0  0  0
 33 30  1  0  0  0  0
M  END
>  <MODEL>
3

>  <REMARK>
 VINA RESULT:      -8.4      3.783      9.043
  Name = 
  3 active torsions:
  status: ('A' for Active; 'I' for Inactive)
    1  A    between atoms: C_17  and  O_28
    2  A    between atoms: O_28  and  C_29
    3  A    between atoms: C_29  and  C_32
                            x       y       z     vdW  Elec       q    Type
                         _______ _______ _______ _____ _____    ______ ____

>  <TORSDO>
F 3

$$$$
=
 OpenBabel11122414263D

 34 41  0  0  1  0  0  0  0  0999 V2000
  161.4950  209.3060  150.7640 C   0  0  0  0  0  0  0  0  0  0  0  0
  160.9660  211.1420  152.4850 C   0  0  0  0  0  2  0  0  0  0  0  0
  160.5310  203.1700  149.0950 C   0  0  2  0  0  3  0  0  0  0  0  0
  161.8440  207.4100  149.2810 C   0  0  0  0  0  0  0  0  0  0  0  0
  161.2540  205.1810  150.2640 C   0  0  1  0  0  3  0  0  0  0  0  0
  160.8370  202.7960  151.1700 C   0  0  0  0  0  2  0  0  0  0  0  0
  160.0280  202.1270  150.0690 C   0  0  0  0  0  2  0  0  0  0  0  0
  162.3240  203.9800  147.1160 S   0  0  0  0  0  0  0  0  0  0  0  0
  161.0260  208.8820  153.1700 C   0  0  0  0  0  0  0  0  0  0  0  0
  160.0970  207.8770  156.1190 C   0  0  0  0  0  2  0  0  0  0  0  0
  161.7810  205.6630  151.5400 N   0  0  0  0  0  2  0  0  0  0  0  0
  161.4240  205.4660  147.7240 C   0  0  0  0  0  2  0  0  0  0  0  0
  161.1340  207.5420  153.0030 C   0  0  0  0  0  0  0  0  0  0  0  0
  160.4690  211.0580  153.9330 C   0  0  0  0  0  2  0  0  0  0  0  0
  161.9580  205.9170  149.0970 C   0  0  1  0  0  3  0  0  0  0  0  0
  161.2930  202.6580  147.8900 C   0  0  0  0  0  2  0  0  0  0  0  0
  159.6010  209.0190  155.2240 C   0  0  2  0  0  3  0  0  0  0  0  0
  161.6060  207.9250  150.5670 C   0  0  0  0  0  0  0  0  0  0  0  0
  161.4930  203.6880  150.1320 C   0  0  1  0  0  3  0  0  0  0  0  0
  161.4420  207.0250  151.6870 N   0  0  0  0  0  0  0  0  0  0  0  0
  161.9550  209.6810  148.4190 C   0  0  0  0  0  3  0  0  0  0  0  0
  161.1950  207.0170  155.4880 C   0  0  0  0  0  2  0  0  0  0  0  0
  162.0460  208.3000  148.2140 C   0  0  0  0  0  3  0  0  0  0  0  0
  160.8010  206.5510  154.0950 C   0  0  0  0  0  2  0  0  0  0  0  0
  160.7590  209.6330  154.4310 C   0  0  1  0  0  3  0  0  0  0  0  0
  161.6720  210.1860  149.6910 C   0  0  0  0  0  3  0  0  0  0  0  0
  161.2000  209.7700  152.0830 N   0  0  0  0  0  0  0  0  0  0  0  0
  158.9750  209.9770  156.0250 O   0  0  0  0  0  0  0  0  0  0  0  0
  160.0240  210.6770  156.6290 C   0  0  0  0  0  2  0  0  0  0  0  0
  159.7160  213.8060  155.7930 O   0  0  0  0  0  0  0  0  0  0  0  0
  158.1490  212.2860  156.6910 C   0  0  0  0  0  2  0  0  0  0  0  0
  159.5000  211.9560  157.2570 C   0  0  2  0  0  3  0  0  0  0  0  0
  158.3470  213.6350  156.0430 C   0  0  0  0  0  2  0  0  0  0  0  0
  160.3660  213.1190  156.8290 C   0  0  0  0  0  2  0  0  0  0  0  0
  1 27  1  0  0  0  0
  2 14  1  0  0  0  0
  3 16  1  6  0  0  0
  3  7  1  0  0  0  0
  3 19  1  0  0  0  0
  4 18  2  0  0  0  0
  5 11  1  1  0  0  0
  7  6  1  0  0  0  0
  8 12  1  0  0  0  0
  8 16  1  0  0  0  0
  9 25  1  0  0  0  0
 11 20  1  0  0  0  0
 13  9  2  0  0  0  0
 13 24  1  0  0  0  0
 15 12  1  6  0  0  0
 15  4  1  0  0  0  0
 15  5  1  0  0  0  0
 17 28  1  1  0  0  0
 17 10  1  0  0  0  0
 18  1  1  0  0  0  0
 18 20  1  0  0  0  0
 19  5  1  0  0  0  0
 19  6  1  1  0  0  0
 20 13  1  0  0  0  0
 21 26  1  0  0  0  0
 22 10  1  0  0  0  0
 23 21  2  0  0  0  0
 23  4  1  0  0  0  0
 24 22  1  0  0  0  0
 25 14  1  6  0  0  0
 25 17  1  0  0  0  0
 26  1  2  0  0  0  0
 27  2  1  0  0  0  0
 27  9  1  0  0  0  0
 28 29  1  0  0  0  0
 30 33  1  0  0  0  0
 30 34  1  0  0  0  0
 31 32  1  0  0  0  0
 32 29  1  6  0  0  0
 33 31  1  0  0  0  0
 34 32  1  0  0  0  0
M  END
>  <MODEL>
4

>  <REMARK>
 VINA RESULT:      -7.5      3.771      9.191
  Name = 
  3 active torsions:
  status: ('A' for Active; 'I' for Inactive)
    1  A    between atoms: C_17  and  O_28
    2  A    between atoms: O_28  and  C_29
    3  A    between atoms: C_29  and  C_32
                            x       y       z     vdW  Elec       q    Type
                         _______ _______ _______ _____ _____    ______ ____

>  <TORSDO>
F 3

$$$$
=
 OpenBabel11122414263D

 34 41  0  0  1  0  0  0  0  0999 V2000
  160.7590  207.9130  154.2530 C   0  0  0  0  0  0  0  0  0  0  0  0
  161.5660  205.5350  153.7030 C   0  0  0  0  0  2  0  0  0  0  0  0
  158.0380  213.2570  151.9270 C   0  0  2  0  0  3  0  0  0  0  0  0
  159.9220  210.1820  154.5210 C   0  0  0  0  0  0  0  0  0  0  0  0
  159.6040  211.4460  152.3810 C   0  0  1  0  0  3  0  0  0  0  0  0
  159.3590  212.9400  150.2850 C   0  0  0  0  0  2  0  0  0  0  0  0
  157.9820  213.5690  150.4480 C   0  0  0  0  0  2  0  0  0  0  0  0
  158.5670  214.0350  154.5550 S   0  0  0  0  0  0  0  0  0  0  0  0
  161.6130  207.2000  152.0290 C   0  0  0  0  0  0  0  0  0  0  0  0
  162.2900  206.5870  148.9090 C   0  0  0  0  0  2  0  0  0  0  0  0
  160.8120  210.7940  151.8770 N   0  0  0  0  0  2  0  0  0  0  0  0
  158.4060  212.2010  154.5160 C   0  0  0  0  0  2  0  0  0  0  0  0
  161.3890  208.4270  151.4980 C   0  0  0  0  0  0  0  0  0  0  0  0
  161.9330  204.8740  152.3690 C   0  0  0  0  0  2  0  0  0  0  0  0
  159.6680  211.5440  153.9250 C   0  0  1  0  0  3  0  0  0  0  0  0
  157.9240  214.4360  152.8710 C   0  0  0  0  0  2  0  0  0  0  0  0
  161.5840  205.7540  149.9850 C   0  0  2  0  0  3  0  0  0  0  0  0
  160.5130  209.1860  153.7250 C   0  0  0  0  0  0  0  0  0  0  0  0
  159.4800  212.8410  151.7950 C   0  0  1  0  0  3  0  0  0  0  0  0
  160.8390  209.4640  152.3440 N   0  0  0  0  0  0  0  0  0  0  0  0
  159.9210  208.6420  156.4030 C   0  0  0  0  0  3  0  0  0  0  0  0
  162.7060  207.9860  149.3700 C   0  0  0  0  0  2  0  0  0  0  0  0
  159.6550  209.9080  155.8720 C   0  0  0  0  0  3  0  0  0  0  0  0
  161.5450  208.7210  150.0240 C   0  0  0  0  0  2  0  0  0  0  0  0
  162.2060  206.0040  151.3630 C   0  0  1  0  0  3  0  0  0  0  0  0
  160.4650  207.6400  155.5940 C   0  0  0  0  0  3  0  0  0  0  0  0
  161.3120  206.9240  153.3830 N   0  0  0  0  0  0  0  0  0  0  0  0
  161.6660  204.4040  149.6330 O   0  0  0  0  0  0  0  0  0  0  0  0
  160.7170  204.2420  148.6210 C   0  0  0  0  0  2  0  0  0  0  0  0
  161.5690  201.1370  148.1490 O   0  0  0  0  0  0  0  0  0  0  0  0
  160.5320  202.1910  149.9880 C   0  0  0  0  0  2  0  0  0  0  0  0
  160.0670  202.8740  148.7350 C   0  0  2  0  0  3  0  0  0  0  0  0
  161.2120  200.9390  149.4900 C   0  0  0  0  0  2  0  0  0  0  0  0
  160.5770  201.9810  147.6260 C   0  0  0  0  0  2  0  0  0  0  0  0
  1 26  1  0  0  0  0
  3  7  1  6  0  0  0
  3 16  1  0  0  0  0
  4 23  2  0  0  0  0
  5 11  1  6  0  0  0
  5 15  1  0  0  0  0
  6  7  1  0  0  0  0
  9 27  1  0  0  0  0
 10 22  1  0  0  0  0
 10 17  1  0  0  0  0
 11 20  1  0  0  0  0
 12  8  1  0  0  0  0
 13  9  2  0  0  0  0
 13 20  1  0  0  0  0
 14  2  1  0  0  0  0
 15 12  1  1  0  0  0
 15  4  1  0  0  0  0
 16  8  1  0  0  0  0
 17 28  1  6  0  0  0
 17 25  1  0  0  0  0
 18  1  2  0  0  0  0
 18  4  1  0  0  0  0
 19  6  1  6  0  0  0
 19  3  1  0  0  0  0
 19  5  1  0  0  0  0
 20 18  1  0  0  0  0
 22 24  1  0  0  0  0
 23 21  1  0  0  0  0
 24 13  1  0  0  0  0
 25  9  1  0  0  0  0
 25 14  1  1  0  0  0
 26 21  2  0  0  0  0
 27  2  1  0  0  0  0
 27  1  1  0  0  0  0
 29 28  1  0  0  0  0
 30 33  1  0  0  0  0
 32 29  1  6  0  0  0
 32 31  1  0  0  0  0
 33 31  1  0  0  0  0
 34 30  1  0  0  0  0
 34 32  1  0  0  0  0
M  END
>  <MODEL>
5

>  <REMARK>
 VINA RESULT:      -7.4      1.029      1.395
  Name = 
  3 active torsions:
  status: ('A' for Active; 'I' for Inactive)
    1  A    between atoms: C_17  and  O_28
    2  A    between atoms: O_28  and  C_29
    3  A    between atoms: C_29  and  C_32
                            x       y       z     vdW  Elec       q    Type
                         _______ _______ _______ _____ _____    ______ ____

>  <TORSDO>
F 3

$$$$
