=
 OpenBabel11122413533D

 37 43  0  0  1  0  0  0  0  0999 V2000
  160.2380  210.9020  153.7120 C   0  0  1  0  0  0  0  0  0  0  0  0
  161.7190  207.5010  152.6610 C   0  0  1  0  0  3  0  0  0  0  0  0
  162.7600  206.9900  149.5470 O   0  0  0  0  0  0  0  0  0  0  0  0
  161.5090  209.2130  154.6170 C   0  0  2  0  0  3  0  0  0  0  0  0
  161.3300  207.8970  151.2370 C   0  0  2  0  0  3  0  0  0  0  0  0
  162.1620  208.8350  153.2740 C   0  0  2  0  0  3  0  0  0  0  0  0
  161.5210  206.8090  150.1770 C   0  0  2  0  0  3  0  0  0  0  0  0
  161.4970  207.9900  155.5180 C   0  0  0  0  0  2  0  0  0  0  0  0
  161.9890  209.8800  152.1710 C   0  0  2  0  0  3  0  0  0  0  0  0
  161.1230  211.8200  154.2620 F   0  0  0  0  0  0  0  0  0  0  0  0
  160.3590  205.3770  152.9620 C   0  0  0  0  0  2  0  0  0  0  0  0
  160.6940  206.8260  154.9240 C   0  0  0  0  0  2  0  0  0  0  0  0
  160.6160  210.5860  152.2720 C   0  0  0  0  0  2  0  0  0  0  0  0
  161.2590  208.1680  147.8450 C   0  0  0  0  0  2  0  0  0  0  0  0
  162.6230  207.6400  148.2870 C   0  0  1  0  0  3  0  0  0  0  0  0
  160.5380  206.8330  153.3930 C   0  0  1  0  0  3  0  0  0  0  0  0
  162.1120  209.0980  150.9290 N   0  0  2  0  0  0  0  0  0  0  0  0
  160.1970  209.7080  154.4630 O   0  0  0  0  0  0  0  0  0  0  0  0
  161.3430  205.3680  150.6700 C   0  0  1  0  0  3  0  0  0  0  0  0
  158.8550  211.5190  153.7120 C   0  0  0  0  0  1  0  0  0  0  0  0
  162.2760  209.1400  148.4170 C   0  0  2  0  0  3  0  0  0  0  0  0
  161.6340  209.7440  149.6880 C   0  0  2  0  0  3  0  0  0  0  0  0
  160.0600  205.2130  151.4790 C   0  0  0  0  0  2  0  0  0  0  0  0
  161.0270  203.0640  149.7550 C   0  0  0  0  0  3  0  0  0  0  0  0
  161.3530  204.4050  149.5220 C   0  0  0  0  0  0  0  0  0  0  0  0
  161.6920  204.8220  148.2260 C   0  0  0  0  0  3  0  0  0  0  0  0
  162.0650  204.3460  145.8020 C   0  0  0  0  0  1  0  0  0  0  0  0
  161.3760  202.5640  147.4110 C   0  0  0  0  0  3  0  0  0  0  0  0
  161.7030  203.9020  147.1730 C   0  0  0  0  0  0  0  0  0  0  0  0
  161.0380  202.1450  148.7010 C   0  0  0  0  0  3  0  0  0  0  0  0
  161.9530  211.2410  149.6610 C   0  0  0  0  0  2  0  0  0  0  0  0
  161.7490  211.7810  148.3220 N   0  0  0  0  0  0  0  0  0  0  0  0
  163.9830  212.4610  148.1120 O   0  0  0  0  0  0  0  0  0  0  0  0
  162.8440  212.3390  147.5870 C   0  0  0  0  0  3  0  0  0  0  0  0
  160.5080  211.6030  147.6930 N   0  0  0  0  0  2  0  0  0  0  0  0
  160.3690  212.6360  146.6760 C   0  0  0  0  0  2  0  0  0  0  0  0
  159.8480  212.0800  145.5090 O   0  0  0  0  0  1  0  0  0  0  0  0
  1 20  1  1  0  0  0
  1 10  1  0  0  0  0
  1 18  1  0  0  0  0
  2  6  1  0  0  0  0
  2 16  1  0  0  0  0
  3  7  1  0  0  0  0
  4  8  1  0  0  0  0
  5  2  1  0  0  0  0
  6  4  1  0  0  0  0
  7 19  1  0  0  0  0
  7  5  1  0  0  0  0
  9 13  1  0  0  0  0
  9  6  1  0  0  0  0
 11 16  1  0  0  0  0
 12  8  1  0  0  0  0
 13  1  1  0  0  0  0
 14 15  1  0  0  0  0
 14 21  1  0  0  0  0
 15 21  1  0  0  0  0
 15  3  1  0  0  0  0
 16 12  1  0  0  0  0
 17  5  1  0  0  0  0
 17  9  1  0  0  0  0
 18  4  1  0  0  0  0
 19 23  1  0  0  0  0
 21 22  1  0  0  0  0
 22 17  1  0  0  0  0
 23 11  1  0  0  0  0
 25 24  1  0  0  0  0
 25 19  1  0  0  0  0
 26 25  2  0  0  0  0
 27 29  1  0  0  0  0
 28 30  1  0  0  0  0
 29 28  2  0  0  0  0
 29 26  1  0  0  0  0
 30 24  2  0  0  0  0
 31 22  1  0  0  0  0
 32 31  1  0  0  0  0
 34 33  2  0  0  0  0
 34 32  1  0  0  0  0
 35 32  1  0  0  0  0
 36 35  1  0  0  0  0
 37 36  1  0  0  0  0
M  END
>  <MODEL>
1

>  <REMARK>
 VINA RESULT:      -7.5      0.000      0.000
  Name = 
  5 active torsions:
  status: ('A' for Active; 'I' for Inactive)
    1  A    between atoms: C_1  and  N_4
    2  A    between atoms: C_1  and  C_27
    3  A    between atoms: N_4  and  N_12
    4  A    between atoms: C_8  and  N_12
    5  A    between atoms: C_23  and  C_30
                            x       y       z     vdW  Elec       q    Type
                         _______ _______ _______ _____ _____    ______ ____

>  <TORSDO>
F 5

$$$$
=
 OpenBabel11122413533D

 37 43  0  0  1  0  0  0  0  0999 V2000
  160.2360  210.9690  153.8050 C   0  0  1  0  0  0  0  0  0  0  0  0
  161.7140  207.5620  152.7660 C   0  0  1  0  0  3  0  0  0  0  0  0
  162.7710  207.0440  149.6580 O   0  0  0  0  0  0  0  0  0  0  0  0
  161.4980  209.2780  154.7180 C   0  0  2  0  0  3  0  0  0  0  0  0
  161.3340  207.9580  151.3400 C   0  0  2  0  0  3  0  0  0  0  0  0
  162.1580  208.8960  153.3800 C   0  0  2  0  0  3  0  0  0  0  0  0
  161.5270  206.8670  150.2820 C   0  0  2  0  0  3  0  0  0  0  0  0
  161.4780  208.0550  155.6210 C   0  0  0  0  0  2  0  0  0  0  0  0
  161.9930  209.9400  152.2750 C   0  0  2  0  0  3  0  0  0  0  0  0
  161.1210  211.8850  154.3590 F   0  0  0  0  0  0  0  0  0  0  0  0
  160.3460  205.4420  153.0630 C   0  0  0  0  0  2  0  0  0  0  0  0
  160.6750  206.8930  155.0240 C   0  0  0  0  0  2  0  0  0  0  0  0
  160.6220  210.6500  152.3680 C   0  0  0  0  0  2  0  0  0  0  0  0
  161.2810  208.2240  147.9470 C   0  0  0  0  0  2  0  0  0  0  0  0
  162.6420  207.6930  148.3970 C   0  0  1  0  0  3  0  0  0  0  0  0
  160.5280  206.8980  153.4930 C   0  0  1  0  0  3  0  0  0  0  0  0
  162.1200  209.1560  151.0350 N   0  0  2  0  0  0  0  0  0  0  0  0
  160.1880  209.7760  154.5570 O   0  0  0  0  0  0  0  0  0  0  0  0
  161.3430  205.4280  150.7760 C   0  0  1  0  0  3  0  0  0  0  0  0
  158.8550  211.5890  153.7970 C   0  0  0  0  0  1  0  0  0  0  0  0
  162.2980  209.1950  148.5220 C   0  0  2  0  0  3  0  0  0  0  0  0
  161.6500  209.8010  149.7900 C   0  0  2  0  0  3  0  0  0  0  0  0
  160.0550  205.2780  151.5790 C   0  0  0  0  0  2  0  0  0  0  0  0
  161.0160  203.1260  149.8600 C   0  0  0  0  0  3  0  0  0  0  0  0
  161.3560  204.4630  149.6290 C   0  0  0  0  0  0  0  0  0  0  0  0
  161.7130  204.8750  148.3360 C   0  0  0  0  0  3  0  0  0  0  0  0
  162.1070  204.3940  145.9170 C   0  0  0  0  0  1  0  0  0  0  0  0
  161.3850  202.6190  147.5200 C   0  0  0  0  0  3  0  0  0  0  0  0
  161.7270  203.9540  147.2850 C   0  0  0  0  0  0  0  0  0  0  0  0
  161.0300  202.2050  148.8080 C   0  0  0  0  0  3  0  0  0  0  0  0
  161.9740  211.2980  149.7630 C   0  0  0  0  0  2  0  0  0  0  0  0
  161.0830  211.9950  148.8420 N   0  0  0  0  0  0  0  0  0  0  0  0
  160.2380  213.4040  150.5150 O   0  0  0  0  0  0  0  0  0  0  0  0
  160.2730  213.0840  149.2960 C   0  0  0  0  0  3  0  0  0  0  0  0
  161.1470  211.7000  147.4720 N   0  0  0  0  0  2  0  0  0  0  0  0
  161.3070  212.9540  146.7510 C   0  0  0  0  0  2  0  0  0  0  0  0
  162.6530  213.1550  146.4490 O   0  0  0  0  0  1  0  0  0  0  0  0
  1 20  1  6  0  0  0
  1 10  1  0  0  0  0
  1 18  1  0  0  0  0
  2  6  1  0  0  0  0
  2 16  1  0  0  0  0
  3  7  1  0  0  0  0
  4  8  1  0  0  0  0
  5  2  1  0  0  0  0
  6  4  1  0  0  0  0
  7 19  1  0  0  0  0
  7  5  1  0  0  0  0
  9 13  1  0  0  0  0
  9  6  1  0  0  0  0
 11 16  1  0  0  0  0
 12  8  1  0  0  0  0
 13  1  1  0  0  0  0
 14 15  1  0  0  0  0
 14 21  1  0  0  0  0
 15 21  1  0  0  0  0
 15  3  1  0  0  0  0
 16 12  1  0  0  0  0
 17  5  1  0  0  0  0
 17  9  1  0  0  0  0
 18  4  1  0  0  0  0
 19 23  1  0  0  0  0
 21 22  1  0  0  0  0
 22 17  1  0  0  0  0
 23 11  1  0  0  0  0
 25 24  1  0  0  0  0
 25 19  1  0  0  0  0
 26 25  2  0  0  0  0
 27 29  1  0  0  0  0
 28 30  1  0  0  0  0
 29 28  2  0  0  0  0
 29 26  1  0  0  0  0
 30 24  2  0  0  0  0
 31 22  1  0  0  0  0
 32 34  1  0  0  0  0
 32 31  1  0  0  0  0
 34 33  2  0  0  0  0
 35 32  1  0  0  0  0
 36 35  1  0  0  0  0
 37 36  1  0  0  0  0
M  END
>  <MODEL>
2

>  <REMARK>
 VINA RESULT:      -7.3      0.969      1.082
  Name = 
  5 active torsions:
  status: ('A' for Active; 'I' for Inactive)
    1  A    between atoms: C_1  and  N_4
    2  A    between atoms: C_1  and  C_27
    3  A    between atoms: N_4  and  N_12
    4  A    between atoms: C_8  and  N_12
    5  A    between atoms: C_23  and  C_30
                            x       y       z     vdW  Elec       q    Type
                         _______ _______ _______ _____ _____    ______ ____

>  <TORSDO>
F 5

$$$$
=
 OpenBabel11122413533D

 37 43  0  0  1  0  0  0  0  0999 V2000
  160.2580  210.7100  153.7620 C   0  0  1  0  0  0  0  0  0  0  0  0
  161.6890  207.3250  152.5960 C   0  0  1  0  0  3  0  0  0  0  0  0
  162.8330  206.9390  149.4990 O   0  0  0  0  0  0  0  0  0  0  0  0
  161.4510  208.9440  154.6260 C   0  0  2  0  0  3  0  0  0  0  0  0
  161.3640  207.8010  151.1810 C   0  0  2  0  0  3  0  0  0  0  0  0
  162.1440  208.6140  153.2900 C   0  0  2  0  0  3  0  0  0  0  0  0
  161.5670  206.7610  150.0750 C   0  0  2  0  0  3  0  0  0  0  0  0
  161.3740  207.6790  155.4640 C   0  0  0  0  0  2  0  0  0  0  0  0
  162.0380  209.7170  152.2360 C   0  0  2  0  0  3  0  0  0  0  0  0
  161.1450  211.5750  154.3890 F   0  0  0  0  0  0  0  0  0  0  0  0
  160.2650  205.2270  152.7410 C   0  0  0  0  0  2  0  0  0  0  0  0
  160.5640  206.5680  154.7840 C   0  0  0  0  0  2  0  0  0  0  0  0
  160.6810  210.4540  152.3220 C   0  0  0  0  0  2  0  0  0  0  0  0
  161.4260  208.2400  147.8060 C   0  0  0  0  0  2  0  0  0  0  0  0
  162.7590  207.6540  148.2700 C   0  0  1  0  0  3  0  0  0  0  0  0
  160.4660  206.6540  153.2510 C   0  0  1  0  0  3  0  0  0  0  0  0
  162.1870  208.9930  150.9610 N   0  0  2  0  0  0  0  0  0  0  0  0
  160.1580  209.4820  154.4500 O   0  0  0  0  0  0  0  0  0  0  0  0
  161.3330  205.3040  150.4880 C   0  0  1  0  0  3  0  0  0  0  0  0
  158.8920  211.3630  153.7430 C   0  0  0  0  0  1  0  0  0  0  0  0
  162.4460  209.1550  148.4610 C   0  0  2  0  0  3  0  0  0  0  0  0
  161.7720  209.7120  149.7380 C   0  0  2  0  0  3  0  0  0  0  0  0
  160.0170  205.1440  151.2420 C   0  0  0  0  0  2  0  0  0  0  0  0
  161.4490  204.9600  148.0160 C   0  0  0  0  0  3  0  0  0  0  0  0
  161.3610  204.3980  149.2950 C   0  0  0  0  0  0  0  0  0  0  0  0
  161.2910  203.0040  149.4370 C   0  0  0  0  0  3  0  0  0  0  0  0
  161.2330  200.7060  148.4620 C   0  0  0  0  0  1  0  0  0  0  0  0
  161.3980  202.7470  147.0320 C   0  0  0  0  0  3  0  0  0  0  0  0
  161.3100  202.1820  148.3070 C   0  0  0  0  0  0  0  0  0  0  0  0
  161.4680  204.1360  146.8860 C   0  0  0  0  0  3  0  0  0  0  0  0
  162.1300  211.2000  149.7970 C   0  0  0  0  0  2  0  0  0  0  0  0
  161.8640  211.8400  148.5140 N   0  0  0  0  0  0  0  0  0  0  0  0
  164.1390  212.1520  148.0440 O   0  0  0  0  0  0  0  0  0  0  0  0
  162.9410  212.2490  147.6650 C   0  0  0  0  0  3  0  0  0  0  0  0
  160.5440  211.9050  148.0430 N   0  0  0  0  0  2  0  0  0  0  0  0
  160.5900  212.2460  146.6280 C   0  0  0  0  0  2  0  0  0  0  0  0
  159.7510  213.3300  146.3780 O   0  0  0  0  0  1  0  0  0  0  0  0
  1 20  1  6  0  0  0
  1 10  1  0  0  0  0
  1 18  1  0  0  0  0
  2 16  1  0  0  0  0
  2  6  1  0  0  0  0
  3  7  1  0  0  0  0
  4  8  1  0  0  0  0
  5  2  1  0  0  0  0
  6  4  1  0  0  0  0
  7 19  1  0  0  0  0
  7  5  1  0  0  0  0
  9 13  1  0  0  0  0
  9  6  1  0  0  0  0
 11 16  1  0  0  0  0
 12  8  1  0  0  0  0
 13  1  1  0  0  0  0
 14 15  1  0  0  0  0
 14 21  1  0  0  0  0
 15 21  1  0  0  0  0
 15  3  1  0  0  0  0
 16 12  1  0  0  0  0
 17  5  1  0  0  0  0
 17  9  1  0  0  0  0
 18  4  1  0  0  0  0
 19 23  1  0  0  0  0
 21 22  1  0  0  0  0
 22 31  1  0  0  0  0
 22 17  1  0  0  0  0
 23 11  1  0  0  0  0
 24 25  1  0  0  0  0
 25 26  2  0  0  0  0
 25 19  1  0  0  0  0
 28 29  2  0  0  0  0
 29 27  1  0  0  0  0
 29 26  1  0  0  0  0
 30 28  1  0  0  0  0
 30 24  2  0  0  0  0
 32 31  1  0  0  0  0
 34 33  2  0  0  0  0
 34 32  1  0  0  0  0
 35 32  1  0  0  0  0
 36 35  1  0  0  0  0
 37 36  1  0  0  0  0
M  END
>  <MODEL>
3

>  <REMARK>
 VINA RESULT:      -7.1      0.439      1.149
  Name = 
  5 active torsions:
  status: ('A' for Active; 'I' for Inactive)
    1  A    between atoms: C_1  and  N_4
    2  A    between atoms: C_1  and  C_27
    3  A    between atoms: N_4  and  N_12
    4  A    between atoms: C_8  and  N_12
    5  A    between atoms: C_23  and  C_30
                            x       y       z     vdW  Elec       q    Type
                         _______ _______ _______ _____ _____    ______ ____

>  <TORSDO>
F 5

$$$$
=
 OpenBabel11122413533D

 37 43  0  0  1  0  0  0  0  0999 V2000
  161.8050  208.2750  148.3150 C   0  0  1  0  0  0  0  0  0  0  0  0
  161.5730  210.8280  151.1950 C   0  0  1  0  0  3  0  0  0  0  0  0
  161.3240  209.8140  154.3500 O   0  0  0  0  0  0  0  0  0  0  0  0
  162.6130  210.3600  148.8490 C   0  0  2  0  0  3  0  0  0  0  0  0
  160.9210  209.7010  151.9940 C   0  0  2  0  0  3  0  0  0  0  0  0
  162.6290  210.0880  150.3650 C   0  0  2  0  0  3  0  0  0  0  0  0
  160.3690  210.1010  153.3650 C   0  0  2  0  0  3  0  0  0  0  0  0
  162.4540  211.8540  148.6220 C   0  0  0  0  0  2  0  0  0  0  0  0
  162.4970  208.6110  150.7420 C   0  0  2  0  0  3  0  0  0  0  0  0
  163.0820  207.9200  147.9020 F   0  0  0  0  0  0  0  0  0  0  0  0
  159.7200  212.5650  151.2050 C   0  0  0  0  0  2  0  0  0  0  0  0
  161.1480  212.4060  149.2060 C   0  0  0  0  0  2  0  0  0  0  0  0
  161.5710  207.8570  149.7600 C   0  0  0  0  0  2  0  0  0  0  0  0
  159.8810  207.7130  154.5540 C   0  0  0  0  0  2  0  0  0  0  0  0
  161.0350  208.5960  155.0280 C   0  0  1  0  0  3  0  0  0  0  0  0
  160.5290  211.5870  150.3520 C   0  0  1  0  0  3  0  0  0  0  0  0
  161.9360  208.6500  152.1030 N   0  0  2  0  0  0  0  0  0  0  0  0
  161.5840  209.6620  148.1820 O   0  0  0  0  0  0  0  0  0  0  0  0
  159.8580  211.5430  153.4760 C   0  0  1  0  0  3  0  0  0  0  0  0
  160.8050  207.5420  147.4450 C   0  0  0  0  0  1  0  0  0  0  0  0
  161.3010  207.3440  154.1620 C   0  0  2  0  0  3  0  0  0  0  0  0
  161.3510  207.3920  152.6160 C   0  0  2  0  0  3  0  0  0  0  0  0
  158.9300  211.8930  152.3180 C   0  0  0  0  0  2  0  0  0  0  0  0
  159.8970  212.2570  155.8700 C   0  0  0  0  0  3  0  0  0  0  0  0
  159.1640  211.7640  154.7850 C   0  0  0  0  0  0  0  0  0  0  0  0
  157.7990  211.4770  154.9420 C   0  0  0  0  0  3  0  0  0  0  0  0
  155.7320  211.3760  156.3390 C   0  0  0  0  0  1  0  0  0  0  0  0
  157.9120  212.1770  157.2570 C   0  0  0  0  0  3  0  0  0  0  0  0
  157.1760  211.6840  156.1760 C   0  0  0  0  0  0  0  0  0  0  0  0
  159.2720  212.4640  157.1040 C   0  0  0  0  0  3  0  0  0  0  0  0
  162.1530  206.1650  152.1740 C   0  0  0  0  0  2  0  0  0  0  0  0
  161.2740  205.1750  151.5620 N   0  0  0  0  0  0  0  0  0  0  0  0
  160.9700  204.0040  153.5700 O   0  0  0  0  0  0  0  0  0  0  0  0
  160.6780  204.1410  152.3520 C   0  0  0  0  0  3  0  0  0  0  0  0
  160.8860  205.3390  150.2240 N   0  0  0  0  0  2  0  0  0  0  0  0
  160.9960  204.0460  149.5640 C   0  0  0  0  0  2  0  0  0  0  0  0
  161.5410  204.2130  148.2910 O   0  0  0  0  0  1  0  0  0  0  0  0
  1 20  1  6  0  0  0
  1 13  1  0  0  0  0
  2  5  1  0  0  0  0
  3 15  1  0  0  0  0
  4  6  1  0  0  0  0
  5 17  1  0  0  0  0
  5  7  1  0  0  0  0
  6  9  1  0  0  0  0
  6  2  1  0  0  0  0
  7 19  1  0  0  0  0
  7  3  1  0  0  0  0
  8  4  1  0  0  0  0
  8 12  1  0  0  0  0
  9 17  1  0  0  0  0
 10  1  1  0  0  0  0
 11 23  1  0  0  0  0
 12 16  1  0  0  0  0
 13  9  1  0  0  0  0
 14 15  1  0  0  0  0
 16  2  1  0  0  0  0
 16 11  1  0  0  0  0
 17 22  1  0  0  0  0
 18  1  1  0  0  0  0
 18  4  1  0  0  0  0
 19 25  1  0  0  0  0
 21 14  1  0  0  0  0
 21 15  1  0  0  0  0
 22 21  1  0  0  0  0
 23 19  1  0  0  0  0
 24 30  1  0  0  0  0
 25 26  1  0  0  0  0
 25 24  2  0  0  0  0
 26 29  2  0  0  0  0
 29 27  1  0  0  0  0
 29 28  1  0  0  0  0
 30 28  2  0  0  0  0
 31 22  1  0  0  0  0
 32 31  1  0  0  0  0
 32 34  1  0  0  0  0
 34 33  2  0  0  0  0
 35 32  1  0  0  0  0
 36 35  1  0  0  0  0
 37 36  1  0  0  0  0
M  END
>  <MODEL>
4

>  <REMARK>
 VINA RESULT:      -5.6      2.555      7.961
  Name = 
  5 active torsions:
  status: ('A' for Active; 'I' for Inactive)
    1  A    between atoms: C_1  and  N_4
    2  A    between atoms: C_1  and  C_27
    3  A    between atoms: N_4  and  N_12
    4  A    between atoms: C_8  and  N_12
    5  A    between atoms: C_23  and  C_30
                            x       y       z     vdW  Elec       q    Type
                         _______ _______ _______ _____ _____    ______ ____

>  <TORSDO>
F 5

$$$$
=
 OpenBabel11122413533D

 37 43  0  0  1  0  0  0  0  0999 V2000
  159.6570  210.8070  154.2430 C   0  0  1  0  0  0  0  0  0  0  0  0
  161.7090  208.2160  152.2570 C   0  0  1  0  0  3  0  0  0  0  0  0
  162.7560  208.8780  149.1730 O   0  0  0  0  0  0  0  0  0  0  0  0
  161.2350  209.1800  154.6330 C   0  0  2  0  0  3  0  0  0  0  0  0
  161.2220  208.9510  151.0090 C   0  0  2  0  0  3  0  0  0  0  0  0
  161.9160  209.3550  153.2620 C   0  0  2  0  0  3  0  0  0  0  0  0
  161.5840  208.2930  149.6740 C   0  0  2  0  0  3  0  0  0  0  0  0
  161.4660  207.7590  155.1170 C   0  0  0  0  0  2  0  0  0  0  0  0
  161.5300  210.6380  152.5250 C   0  0  2  0  0  3  0  0  0  0  0  0
  160.3720  211.6560  155.0770 F   0  0  0  0  0  0  0  0  0  0  0  0
  160.7650  205.8930  151.8490 C   0  0  0  0  0  2  0  0  0  0  0  0
  160.8760  206.7080  154.1690 C   0  0  0  0  0  2  0  0  0  0  0  0
  160.0540  211.0200  152.7890 C   0  0  0  0  0  2  0  0  0  0  0  0
  161.0260  210.2290  147.8600 C   0  0  0  0  0  2  0  0  0  0  0  0
  162.4740  209.8470  148.1680 C   0  0  1  0  0  3  0  0  0  0  0  0
  160.6860  207.1540  152.7090 C   0  0  1  0  0  3  0  0  0  0  0  0
  161.7650  210.3090  151.1090 N   0  0  2  0  0  0  0  0  0  0  0  0
  159.8510  209.4540  154.5920 O   0  0  0  0  0  0  0  0  0  0  0  0
  161.6830  206.7630  149.6990 C   0  0  1  0  0  3  0  0  0  0  0  0
  158.1860  211.1340  154.3820 C   0  0  0  0  0  1  0  0  0  0  0  0
  161.8620  211.1470  148.7360 C   0  0  2  0  0  3  0  0  0  0  0  0
  161.1500  211.2060  150.1080 C   0  0  2  0  0  3  0  0  0  0  0  0
  160.4680  206.1390  150.3770 C   0  0  0  0  0  2  0  0  0  0  0  0
  162.9540  205.4200  148.0180 C   0  0  0  0  0  3  0  0  0  0  0  0
  161.8420  206.2160  148.3130 C   0  0  0  0  0  0  0  0  0  0  0  0
  160.9040  206.4960  147.3080 C   0  0  0  0  0  3  0  0  0  0  0  0
  160.0860  206.2820  144.9580 C   0  0  0  0  0  1  0  0  0  0  0  0
  162.1920  205.1860  145.7310 C   0  0  0  0  0  3  0  0  0  0  0  0
  161.0800  205.9810  146.0200 C   0  0  0  0  0  0  0  0  0  0  0  0
  163.1300  204.9050  146.7300 C   0  0  0  0  0  3  0  0  0  0  0  0
  161.1900  212.6720  150.5490 C   0  0  0  0  0  2  0  0  0  0  0  0
  160.1840  213.4480  149.8340 N   0  0  0  0  0  0  0  0  0  0  0  0
  161.7410  214.3070  148.3050 O   0  0  0  0  0  0  0  0  0  0  0  0
  160.5400  214.2120  148.6760 C   0  0  0  0  0  3  0  0  0  0  0  0
  158.8340  213.3110  150.1880 N   0  0  0  0  0  2  0  0  0  0  0  0
  158.0470  213.3100  148.9630 C   0  0  0  0  0  2  0  0  0  0  0  0
  156.8770  214.0430  149.1550 O   0  0  0  0  0  1  0  0  0  0  0  0
  1 20  1  1  0  0  0
  1 18  1  0  0  0  0
  1 10  1  0  0  0  0
  2 16  1  0  0  0  0
  2  6  1  0  0  0  0
  3  7  1  0  0  0  0
  4  8  1  0  0  0  0
  5 17  1  0  0  0  0
  5  2  1  0  0  0  0
  6  4  1  0  0  0  0
  7 19  1  0  0  0  0
  7  5  1  0  0  0  0
  9 13  1  0  0  0  0
  9  6  1  0  0  0  0
 11 16  1  0  0  0  0
 12  8  1  0  0  0  0
 13  1  1  0  0  0  0
 14 15  1  0  0  0  0
 14 21  1  0  0  0  0
 15 21  1  0  0  0  0
 15  3  1  0  0  0  0
 16 12  1  0  0  0  0
 17  9  1  0  0  0  0
 18  4  1  0  0  0  0
 19 23  1  0  0  0  0
 21 22  1  0  0  0  0
 22 31  1  0  0  0  0
 22 17  1  0  0  0  0
 23 11  1  0  0  0  0
 24 25  1  0  0  0  0
 25 19  1  0  0  0  0
 26 25  2  0  0  0  0
 27 29  1  0  0  0  0
 28 29  2  0  0  0  0
 28 30  1  0  0  0  0
 29 26  1  0  0  0  0
 30 24  2  0  0  0  0
 32 35  1  0  0  0  0
 32 31  1  0  0  0  0
 33 34  2  0  0  0  0
 34 32  1  0  0  0  0
 36 37  1  0  0  0  0
 36 35  1  0  0  0  0
M  END
>  <MODEL>
5

>  <REMARK>
 VINA RESULT:      -5.0      1.822      2.205
  Name = 
  5 active torsions:
  status: ('A' for Active; 'I' for Inactive)
    1  A    between atoms: C_1  and  N_4
    2  A    between atoms: C_1  and  C_27
    3  A    between atoms: N_4  and  N_12
    4  A    between atoms: C_8  and  N_12
    5  A    between atoms: C_23  and  C_30
                            x       y       z     vdW  Elec       q    Type
                         _______ _______ _______ _____ _____    ______ ____

>  <TORSDO>
F 5

$$$$
=
 OpenBabel11122413533D

 37 43  0  0  1  0  0  0  0  0999 V2000
  159.9460  211.0540  155.1570 C   0  0  1  0  0  0  0  0  0  0  0  0
  161.6090  207.8110  153.8990 C   0  0  1  0  0  3  0  0  0  0  0  0
  162.6000  207.5230  150.7390 O   0  0  0  0  0  0  0  0  0  0  0  0
  161.3440  209.4070  155.9440 C   0  0  2  0  0  3  0  0  0  0  0  0
  161.1600  208.2520  152.5060 C   0  0  2  0  0  3  0  0  0  0  0  0
  161.9840  209.1380  154.5690 C   0  0  2  0  0  3  0  0  0  0  0  0
  161.3910  207.2320  151.3870 C   0  0  2  0  0  3  0  0  0  0  0  0
  161.4310  208.1410  156.7810 C   0  0  0  0  0  2  0  0  0  0  0  0
  161.7170  210.2240  153.5260 C   0  0  2  0  0  3  0  0  0  0  0  0
  160.7850  211.9980  155.7330 F   0  0  0  0  0  0  0  0  0  0  0  0
  160.3930  205.5920  154.1210 C   0  0  0  0  0  2  0  0  0  0  0  0
  160.6880  206.9600  156.1460 C   0  0  0  0  0  2  0  0  0  0  0  0
  160.3060  210.8350  153.6940 C   0  0  0  0  0  2  0  0  0  0  0  0
  160.9830  208.6860  149.1350 C   0  0  0  0  0  2  0  0  0  0  0  0
  162.3900  208.2260  149.5180 C   0  0  1  0  0  3  0  0  0  0  0  0
  160.4920  207.0330  154.6220 C   0  0  1  0  0  3  0  0  0  0  0  0
  161.8560  209.5140  152.2430 N   0  0  2  0  0  0  0  0  0  0  0  0
  159.9990  209.8240  155.8460 O   0  0  0  0  0  0  0  0  0  0  0  0
  161.3160  205.7600  151.8090 C   0  0  1  0  0  3  0  0  0  0  0  0
  158.5280  211.5800  155.2190 C   0  0  0  0  0  1  0  0  0  0  0  0
  161.9520  209.6920  149.7320 C   0  0  2  0  0  3  0  0  0  0  0  0
  161.3070  210.1890  151.0480 C   0  0  2  0  0  3  0  0  0  0  0  0
  160.0670  205.4840  152.6390 C   0  0  0  0  0  2  0  0  0  0  0  0
  161.5870  205.4130  149.3500 C   0  0  0  0  0  3  0  0  0  0  0  0
  161.3570  204.8590  150.6140 C   0  0  0  0  0  0  0  0  0  0  0  0
  161.1580  203.4750  150.7390 C   0  0  0  0  0  3  0  0  0  0  0  0
  160.9780  201.1920  149.7420 C   0  0  0  0  0  1  0  0  0  0  0  0
  161.4220  203.2150  148.3460 C   0  0  0  0  0  3  0  0  0  0  0  0
  161.1910  202.6560  149.6060 C   0  0  0  0  0  0  0  0  0  0  0  0
  161.6200  204.5930  148.2170 C   0  0  0  0  0  3  0  0  0  0  0  0
  161.5310  211.7030  151.0900 C   0  0  0  0  0  2  0  0  0  0  0  0
  160.4390  212.3990  150.4190 N   0  0  0  0  0  0  0  0  0  0  0  0
  161.7060  212.8090  148.4900 O   0  0  0  0  0  0  0  0  0  0  0  0
  160.5960  212.8860  149.0820 C   0  0  0  0  0  3  0  0  0  0  0  0
  159.1770  212.4450  151.0320 N   0  0  0  0  0  2  0  0  0  0  0  0
  158.4950  213.6420  150.5620 C   0  0  0  0  0  2  0  0  0  0  0  0
  157.3380  213.8490  151.3120 O   0  0  0  0  0  1  0  0  0  0  0  0
  1 20  1  1  0  0  0
  1 10  1  0  0  0  0
  1 18  1  0  0  0  0
  2  6  1  0  0  0  0
  2 16  1  0  0  0  0
  3  7  1  0  0  0  0
  4  8  1  0  0  0  0
  5  2  1  0  0  0  0
  6  4  1  0  0  0  0
  7 19  1  0  0  0  0
  7  5  1  0  0  0  0
  9 13  1  0  0  0  0
  9  6  1  0  0  0  0
 11 16  1  0  0  0  0
 12  8  1  0  0  0  0
 13  1  1  0  0  0  0
 14 15  1  0  0  0  0
 14 21  1  0  0  0  0
 15 21  1  0  0  0  0
 15  3  1  0  0  0  0
 16 12  1  0  0  0  0
 17  5  1  0  0  0  0
 17  9  1  0  0  0  0
 18  4  1  0  0  0  0
 19 23  1  0  0  0  0
 21 22  1  0  0  0  0
 22 31  1  0  0  0  0
 22 17  1  0  0  0  0
 23 11  1  0  0  0  0
 24 25  1  0  0  0  0
 25 26  2  0  0  0  0
 25 19  1  0  0  0  0
 28 29  2  0  0  0  0
 29 27  1  0  0  0  0
 29 26  1  0  0  0  0
 30 28  1  0  0  0  0
 30 24  2  0  0  0  0
 32 35  1  0  0  0  0
 32 31  1  0  0  0  0
 33 34  2  0  0  0  0
 34 32  1  0  0  0  0
 36 35  1  0  0  0  0
 36 37  1  0  0  0  0
M  END
>  <MODEL>
6

>  <REMARK>
 VINA RESULT:      -5.0      1.804      2.319
  Name = 
  5 active torsions:
  status: ('A' for Active; 'I' for Inactive)
    1  A    between atoms: C_1  and  N_4
    2  A    between atoms: C_1  and  C_27
    3  A    between atoms: N_4  and  N_12
    4  A    between atoms: C_8  and  N_12
    5  A    between atoms: C_23  and  C_30
                            x       y       z     vdW  Elec       q    Type
                         _______ _______ _______ _____ _____    ______ ____

>  <TORSDO>
F 5

$$$$
