=
 OpenBabel11122413443D

 37 43  0  0  1  0  0  0  0  0999 V2000
  161.8830  210.9750  154.3030 C   0  0  0  0  0  2  0  0  0  0  0  0
  161.2120  206.7730  150.6430 S   0  0  0  0  0  0  0  0  0  0  0  0
  161.1910  211.0750  150.7720 C   0  0  0  0  0  0  0  0  0  0  0  0
  162.5770  210.4140  155.5510 C   0  0  2  0  0  3  0  0  0  0  0  0
  159.2950  213.1470  153.1360 N   0  0  0  0  0  0  0  0  0  0  0  0
  162.2330  209.1470  149.7660 C   0  0  0  0  0  0  0  0  0  0  0  0
  160.3570  211.4210  151.8690 N   0  0  0  0  0  0  0  0  0  0  0  0
  160.6840  211.5370  156.8190 C   0  0  0  0  0  0  0  0  0  0  0  0
  161.5500  209.7610  150.8180 C   0  0  0  0  0  0  0  0  0  0  0  0
  159.5500  212.6090  151.9780 C   0  0  0  0  0  0  0  0  0  0  0  0
  162.6450  209.9460  148.6880 C   0  0  0  0  0  3  0  0  0  0  0  0
  161.7710  210.5090  156.8540 C   0  0  0  0  0  2  0  0  0  0  0  0
  161.0080  209.0980  152.0290 C   0  0  2  0  0  3  0  0  0  0  0  0
  161.8320  205.7500  151.5520 O   0  0  0  0  0  0  0  0  0  0  0  0
  161.2810  213.3540  149.7040 C   0  0  0  0  0  2  0  0  0  0  0  0
  162.3340  211.3210  148.6670 C   0  0  0  0  0  3  0  0  0  0  0  0
  160.1910  207.8840  151.6140 C   0  0  0  0  0  2  0  0  0  0  0  0
  159.3810  211.1930  156.1580 C   0  0  0  0  0  2  0  0  0  0  0  0
  159.6770  212.6280  154.3590 O   0  0  0  0  0  0  0  0  0  0  0  0
  161.5900  211.8960  149.7130 C   0  0  0  0  0  0  0  0  0  0  0  0
  160.1240  210.2020  152.6520 C   0  0  1  0  0  3  0  0  0  0  0  0
  162.5180  207.6760  149.7990 C   0  0  0  0  0  2  0  0  0  0  0  0
  159.0080  213.2700  150.7610 C   0  0  0  0  0  0  0  0  0  0  0  0
  160.3520  206.0790  149.6270 O   0  0  0  0  0  0  0  0  0  0  0  0
  159.4350  211.3080  154.6960 N   0  0  1  0  0  0  0  0  0  0  0  0
  160.8770  212.6570  157.2590 O   0  0  0  0  0  0  0  0  0  0  0  0
  160.4570  210.4240  154.1190 C   0  0  2  0  0  3  0  0  0  0  0  0
  159.8050  213.5890  149.7310 C   0  0  0  0  0  3  0  0  0  0  0  0
  156.9080  213.6930  149.4370 C   0  0  0  0  0  3  0  0  0  0  0  0
  157.5580  213.5940  150.6810 C   0  0  0  0  0  0  0  0  0  0  0  0
  156.8060  213.7880  151.8510 C   0  0  0  0  0  3  0  0  0  0  0  0
  154.7120  214.2680  152.9480 O   0  0  0  0  0  1  0  0  0  0  0  0
  154.8090  214.1780  150.5410 C   0  0  0  0  0  3  0  0  0  0  0  0
  155.4410  214.0790  151.7820 C   0  0  0  0  0  0  0  0  0  0  0  0
  155.5430  213.9840  149.3670 C   0  0  0  0  0  3  0  0  0  0  0  0
  164.2210  211.2780  157.2160 C   0  0  0  0  0  1  0  0  0  0  0  0
  163.9260  211.0860  155.7410 C   0  0  0  0  0  2  0  0  0  0  0  0
  1  4  1  0  0  0  0
  2 14  2  0  0  0  0
  2 17  1  0  0  0  0
  3  9  1  0  0  0  0
  3  7  1  0  0  0  0
  4 37  1  1  0  0  0
  4 12  1  0  0  0  0
  5 19  1  0  0  0  0
  6 22  1  0  0  0  0
  6  9  2  0  0  0  0
  7 10  1  0  0  0  0
  8 12  1  0  0  0  0
  8 26  2  0  0  0  0
  9 13  1  0  0  0  0
 10  5  2  0  0  0  0
 11  6  1  0  0  0  0
 13 17  1  6  0  0  0
 13 21  1  0  0  0  0
 15 20  1  0  0  0  0
 15 28  1  0  0  0  0
 16 11  2  0  0  0  0
 16 20  1  0  0  0  0
 18  8  1  0  0  0  0
 19 25  1  0  0  0  0
 20  3  2  0  0  0  0
 21  7  1  6  0  0  0
 21 27  1  0  0  0  0
 22  2  1  0  0  0  0
 23 10  1  0  0  0  0
 24  2  2  0  0  0  0
 25 18  1  1  0  0  0
 27  1  1  6  0  0  0
 27 25  1  0  0  0  0
 28 23  2  0  0  0  0
 29 30  1  0  0  0  0
 30 23  1  0  0  0  0
 30 31  2  0  0  0  0
 33 34  2  0  0  0  0
 34 31  1  0  0  0  0
 34 32  1  0  0  0  0
 35 29  2  0  0  0  0
 35 33  1  0  0  0  0
 37 36  1  0  0  0  0
M  END
>  <MODEL>
1

>  <REMARK>
 VINA RESULT:      -4.3      0.000      0.000
  Name = 
  2 active torsions:
  status: ('A' for Active; 'I' for Inactive)
    1  A    between atoms: C_4  and  C_37
    2  A    between atoms: C_23  and  C_30
                            x       y       z     vdW  Elec       q    Type
                         _______ _______ _______ _____ _____    ______ ____

>  <TORSDO>
F 2

$$$$
