=
 OpenBabel11122413363D

 37 42  0  0  1  0  0  0  0  0999 V2000
  160.6030  208.2410  156.1260 C   0  0  0  0  0  0  0  0  0  0  0  0
  159.9110  210.8070  152.9360 C   0  0  0  0  0  0  0  0  0  0  0  0
  162.6790  211.1620  151.9060 F   0  0  0  0  0  0  0  0  0  0  0  0
  159.7850  210.5170  155.2990 C   0  0  0  0  0  0  0  0  0  0  0  0
  160.5370  210.0700  151.7910 C   0  0  1  0  0  3  0  0  0  0  0  0
  160.0790  210.0580  154.0340 C   0  0  0  0  0  0  0  0  0  0  0  0
  161.5900  210.9350  151.0820 C   0  0  1  0  0  3  0  0  0  0  0  0
  159.2590  211.7720  155.4220 N   0  0  0  0  0  0  0  0  0  0  0  0
  160.7750  208.8840  153.7450 N   0  0  0  0  0  0  0  0  0  0  0  0
  159.3370  207.4100  155.9910 C   0  0  0  0  0  1  0  0  0  0  0  0
  159.3500  213.0300  151.8460 C   0  0  0  0  0  2  0  0  0  0  0  0
  159.0500  212.5640  154.3190 C   0  0  0  0  0  3  0  0  0  0  0  0
  161.4260  208.1380  154.8200 C   0  0  0  0  0  2  0  0  0  0  0  0
  159.3860  212.1010  153.0290 C   0  0  0  0  0  0  0  0  0  0  0  0
  161.1510  208.8440  152.3840 N   0  0  1  0  0  0  0  0  0  0  0  0
  160.2230  209.7010  156.4870 C   0  0  0  0  0  2  0  0  0  0  0  0
  161.0430  212.2850  150.5720 C   0  0  2  0  0  3  0  0  0  0  0  0
  161.4260  207.6660  157.2580 C   0  0  0  0  0  1  0  0  0  0  0  0
  159.6390  212.3590  150.6450 O   0  0  0  0  0  0  0  0  0  0  0  0
  160.9750  207.3040  150.3600 C   0  0  0  0  0  2  0  0  0  0  0  0
  160.4870  205.9180  149.9460 C   0  0  2  0  0  3  0  0  0  0  0  0
  162.2920  205.1240  151.6750 C   0  0  2  0  0  3  0  0  0  0  0  0
  161.3320  204.7700  150.5250 C   0  0  0  0  0  2  0  0  0  0  0  0
  161.6410  205.5800  152.9250 N   0  0  0  0  0  0  0  0  0  0  0  0
  162.5410  206.1750  153.7450 O   0  0  0  0  0  1  0  0  0  0  0  0
  160.4610  206.4490  152.7970 C   0  0  0  0  0  2  0  0  0  0  0  0
  163.4880  205.9600  151.2240 C   0  0  0  0  0  1  0  0  0  0  0  0
  160.5690  207.6230  151.8080 C   0  0  1  0  0  3  0  0  0  0  0  0
  161.3270  204.7180  148.0010 N   0  0  0  0  0  1  0  0  0  0  0  0
  160.4600  205.8010  148.4330 C   0  0  0  0  0  2  0  0  0  0  0  0
  162.7290  212.0260  148.7170 C   0  0  0  0  0  3  0  0  0  0  0  0
  161.5130  212.5500  149.1800 C   0  0  0  0  0  0  0  0  0  0  0  0
  160.7400  213.3550  148.3360 C   0  0  0  0  0  3  0  0  0  0  0  0
  160.4200  214.4060  146.2200 F   0  0  0  0  0  0  0  0  0  0  0  0
  162.3830  213.1000  146.5750 C   0  0  0  0  0  3  0  0  0  0  0  0
  161.1730  213.6280  147.0350 C   0  0  0  0  0  0  0  0  0  0  0  0
  163.1610  212.3000  147.4160 C   0  0  0  0  0  3  0  0  0  0  0  0
  1 16  1  0  0  0  0
  1 18  1  0  0  0  0
  2 14  2  0  0  0  0
  2  6  1  0  0  0  0
  4  8  1  0  0  0  0
  4 16  1  0  0  0  0
  5 15  1  0  0  0  0
  5  2  1  1  0  0  0
  6  4  2  0  0  0  0
  7  5  1  0  0  0  0
  7  3  1  1  0  0  0
  9  6  1  0  0  0  0
  9 13  1  0  0  0  0
 10  1  1  0  0  0  0
 11 14  1  0  0  0  0
 12  8  2  0  0  0  0
 13  1  1  0  0  0  0
 14 12  1  0  0  0  0
 15  9  1  1  0  0  0
 17 32  1  6  0  0  0
 17 19  1  0  0  0  0
 17  7  1  0  0  0  0
 19 11  1  0  0  0  0
 21 30  1  6  0  0  0
 21 20  1  0  0  0  0
 21 23  1  0  0  0  0
 22 27  1  6  0  0  0
 22 24  1  0  0  0  0
 23 22  1  0  0  0  0
 24 25  1  0  0  0  0
 26 24  1  0  0  0  0
 28 20  1  6  0  0  0
 28 15  1  0  0  0  0
 28 26  1  0  0  0  0
 29 30  1  0  0  0  0
 31 32  1  0  0  0  0
 33 32  2  0  0  0  0
 34 36  1  0  0  0  0
 35 36  2  0  0  0  0
 35 37  1  0  0  0  0
 36 33  1  0  0  0  0
 37 31  2  0  0  0  0
M  END
>  <MODEL>
1

>  <REMARK>
 VINA RESULT:      -4.2      0.000      0.000
  Name = 
  3 active torsions:
  status: ('A' for Active; 'I' for Inactive)
    1  A    between atoms: C_4  and  C_37
    2  A    between atoms: N_21  and  C_27
    3  A    between atoms: C_23  and  C_30
                            x       y       z     vdW  Elec       q    Type
                         _______ _______ _______ _____ _____    ______ ____

>  <TORSDO>
F 3

$$$$
=
 OpenBabel11122413363D

 37 42  0  0  1  0  0  0  0  0999 V2000
  159.6400  210.7310  154.4360 C   0  0  0  0  0  0  0  0  0  0  0  0
  161.5680  207.8090  152.2050 C   0  0  0  0  0  0  0  0  0  0  0  0
  159.5380  207.3050  150.0880 F   0  0  0  0  0  0  0  0  0  0  0  0
  160.6390  208.3810  154.3240 C   0  0  0  0  0  0  0  0  0  0  0  0
  161.5530  208.3960  150.8260 C   0  0  1  0  0  3  0  0  0  0  0  0
  160.9610  208.6810  153.0190 C   0  0  0  0  0  0  0  0  0  0  0  0
  160.8900  207.4420  149.8210 C   0  0  1  0  0  3  0  0  0  0  0  0
  160.9980  207.1550  154.8090 N   0  0  0  0  0  0  0  0  0  0  0  0
  160.5210  209.8060  152.3200 N   0  0  0  0  0  0  0  0  0  0  0  0
  160.8680  211.5520  154.7920 C   0  0  0  0  0  1  0  0  0  0  0  0
  162.4570  205.4770  151.7370 C   0  0  0  0  0  2  0  0  0  0  0  0
  161.6410  206.2380  154.0130 C   0  0  0  0  0  3  0  0  0  0  0  0
  159.4920  210.6680  152.8970 C   0  0  0  0  0  2  0  0  0  0  0  0
  161.9380  206.5400  152.6660 C   0  0  0  0  0  0  0  0  0  0  0  0
  160.7940  209.6780  150.9390 N   0  0  1  0  0  0  0  0  0  0  0  0
  159.7530  209.3280  155.0890 C   0  0  0  0  0  2  0  0  0  0  0  0
  161.5460  206.0470  149.7650 C   0  0  2  0  0  3  0  0  0  0  0  0
  158.4250  211.4290  155.0060 C   0  0  0  0  0  1  0  0  0  0  0  0
  162.7650  205.9960  150.4680 O   0  0  0  0  0  0  0  0  0  0  0  0
  162.0030  210.9140  149.0660 C   0  0  0  0  0  2  0  0  0  0  0  0
  162.6790  212.2450  148.7480 C   0  0  2  0  0  3  0  0  0  0  0  0
  160.2820  213.2010  149.2160 C   0  0  2  0  0  3  0  0  0  0  0  0
  161.6970  213.4260  148.6540 C   0  0  0  0  0  2  0  0  0  0  0  0
  160.2110  212.9610  150.6750 N   0  0  0  0  0  0  0  0  0  0  0  0
  159.0030  212.4510  151.0190 O   0  0  0  0  0  1  0  0  0  0  0  0
  161.2690  212.1370  151.2800 C   0  0  0  0  0  2  0  0  0  0  0  0
  159.4400  212.2550  148.3610 C   0  0  0  0  0  1  0  0  0  0  0  0
  161.6260  210.8270  150.5530 C   0  0  1  0  0  3  0  0  0  0  0  0
  162.8080  212.9300  146.4140 N   0  0  0  0  0  1  0  0  0  0  0  0
  163.4570  212.1430  147.4490 C   0  0  0  0  0  2  0  0  0  0  0  0
  162.1710  206.5160  147.3690 C   0  0  0  0  0  3  0  0  0  0  0  0
  161.7360  205.6120  148.3490 C   0  0  0  0  0  0  0  0  0  0  0  0
  161.4500  204.2890  147.9940 C   0  0  0  0  0  3  0  0  0  0  0  0
  161.3310  202.5860  146.3300 F   0  0  0  0  0  0  0  0  0  0  0  0
  162.0450  204.7700  145.6960 C   0  0  0  0  0  3  0  0  0  0  0  0
  161.6060  203.8680  146.6700 C   0  0  0  0  0  0  0  0  0  0  0  0
  162.3260  206.0940  146.0460 C   0  0  0  0  0  3  0  0  0  0  0  0
  1 10  1  0  0  0  0
  1 18  1  0  0  0  0
  1 16  1  0  0  0  0
  2 14  2  0  0  0  0
  2  6  1  0  0  0  0
  4  8  1  0  0  0  0
  4 16  1  0  0  0  0
  5 15  1  0  0  0  0
  5  2  1  1  0  0  0
  6  4  2  0  0  0  0
  7  3  1  1  0  0  0
  7  5  1  0  0  0  0
  9 13  1  0  0  0  0
  9  6  1  0  0  0  0
 11 14  1  0  0  0  0
 12  8  2  0  0  0  0
 13  1  1  0  0  0  0
 14 12  1  0  0  0  0
 15  9  1  1  0  0  0
 17 32  1  6  0  0  0
 17  7  1  0  0  0  0
 17 19  1  0  0  0  0
 19 11  1  0  0  0  0
 21 30  1  6  0  0  0
 21 20  1  0  0  0  0
 22 27  1  6  0  0  0
 22 24  1  0  0  0  0
 23 21  1  0  0  0  0
 23 22  1  0  0  0  0
 24 25  1  0  0  0  0
 24 26  1  0  0  0  0
 28 20  1  6  0  0  0
 28 15  1  0  0  0  0
 28 26  1  0  0  0  0
 29 30  1  0  0  0  0
 31 32  1  0  0  0  0
 33 32  2  0  0  0  0
 34 36  1  0  0  0  0
 35 37  1  0  0  0  0
 35 36  2  0  0  0  0
 36 33  1  0  0  0  0
 37 31  2  0  0  0  0
M  END
>  <MODEL>
2

>  <REMARK>
 VINA RESULT:      -4.2      2.831      6.367
  Name = 
  3 active torsions:
  status: ('A' for Active; 'I' for Inactive)
    1  A    between atoms: C_4  and  C_37
    2  A    between atoms: N_21  and  C_27
    3  A    between atoms: C_23  and  C_30
                            x       y       z     vdW  Elec       q    Type
                         _______ _______ _______ _____ _____    ______ ____

>  <TORSDO>
F 3

$$$$
=
 OpenBabel11122413363D

 37 42  0  0  1  0  0  0  0  0999 V2000
  162.0070  207.3290  150.0220 C   0  0  0  0  0  0  0  0  0  0  0  0
  160.8430  211.0510  151.4460 C   0  0  0  0  0  0  0  0  0  0  0  0
  158.0190  210.4930  152.2000 F   0  0  0  0  0  0  0  0  0  0  0  0
  161.6070  209.8100  149.5600 C   0  0  0  0  0  0  0  0  0  0  0  0
  160.3340  210.7250  152.8180 C   0  0  1  0  0  3  0  0  0  0  0  0
  161.2500  209.9050  150.8870 C   0  0  0  0  0  0  0  0  0  0  0  0
  158.8880  211.2090  153.0050 C   0  0  1  0  0  3  0  0  0  0  0  0
  161.5830  210.9490  148.8050 N   0  0  0  0  0  0  0  0  0  0  0  0
  161.0530  208.8230  151.7450 N   0  0  0  0  0  0  0  0  0  0  0  0
  163.4360  207.3560  150.5400 C   0  0  0  0  0  1  0  0  0  0  0  0
  160.1780  213.4930  151.2410 C   0  0  0  0  0  2  0  0  0  0  0  0
  161.1930  212.1510  149.3460 C   0  0  0  0  0  3  0  0  0  0  0  0
  161.0270  207.4630  151.2130 C   0  0  0  0  0  2  0  0  0  0  0  0
  160.7950  212.2330  150.6980 C   0  0  0  0  0  0  0  0  0  0  0  0
  160.4290  209.2390  152.9430 N   0  0  1  0  0  0  0  0  0  0  0  0
  161.8230  208.4460  148.9610 C   0  0  0  0  0  2  0  0  0  0  0  0
  158.7010  212.7180  152.7460 C   0  0  2  0  0  3  0  0  0  0  0  0
  161.7720  205.9910  149.3560 C   0  0  0  0  0  1  0  0  0  0  0  0
  159.9270  213.4000  152.6210 O   0  0  0  0  0  0  0  0  0  0  0  0
  161.7910  209.9950  154.9610 C   0  0  0  0  0  2  0  0  0  0  0  0
  162.5210  209.4540  156.1870 C   0  0  2  0  0  3  0  0  0  0  0  0
  160.1250  208.6080  156.8350 C   0  0  2  0  0  3  0  0  0  0  0  0
  161.5790  208.8790  157.2600 C   0  0  0  0  0  2  0  0  0  0  0  0
  159.9520  207.5640  155.7990 N   0  0  0  0  0  0  0  0  0  0  0  0
  158.7120  207.6270  155.2570 O   0  0  0  0  0  1  0  0  0  0  0  0
  160.9460  207.5140  154.7150 C   0  0  0  0  0  2  0  0  0  0  0  0
  159.3150  209.8840  156.6130 C   0  0  0  0  0  1  0  0  0  0  0  0
  161.3150  208.8520  154.0510 C   0  0  1  0  0  3  0  0  0  0  0  0
  162.5530  211.6730  157.1890 N   0  0  0  0  0  1  0  0  0  0  0  0
  163.3790  210.5390  156.8110 C   0  0  0  0  0  2  0  0  0  0  0  0
  158.4310  213.7460  155.0310 C   0  0  0  0  0  3  0  0  0  0  0  0
  157.8630  213.3350  153.8170 C   0  0  0  0  0  0  0  0  0  0  0  0
  156.4860  213.4800  153.6120 C   0  0  0  0  0  3  0  0  0  0  0  0
  154.3500  214.1810  154.4070 F   0  0  0  0  0  0  0  0  0  0  0  0
  156.2530  214.4530  155.8170 C   0  0  0  0  0  3  0  0  0  0  0  0
  155.6830  214.0390  154.6100 C   0  0  0  0  0  0  0  0  0  0  0  0
  157.6270  214.3060  156.0280 C   0  0  0  0  0  3  0  0  0  0  0  0
  1 10  1  0  0  0  0
  1 13  1  0  0  0  0
  4  6  2  0  0  0  0
  5  2  1  6  0  0  0
  5 15  1  0  0  0  0
  5  7  1  0  0  0  0
  6  2  1  0  0  0  0
  6  9  1  0  0  0  0
  7  3  1  6  0  0  0
  8 12  2  0  0  0  0
  8  4  1  0  0  0  0
 11 19  1  0  0  0  0
 12 14  1  0  0  0  0
 13  9  1  0  0  0  0
 14 11  1  0  0  0  0
 14  2  2  0  0  0  0
 15  9  1  6  0  0  0
 15 28  1  0  0  0  0
 16  4  1  0  0  0  0
 16  1  1  0  0  0  0
 17  7  1  0  0  0  0
 17 32  1  1  0  0  0
 18  1  1  0  0  0  0
 19 17  1  0  0  0  0
 20 21  1  0  0  0  0
 21 30  1  1  0  0  0
 21 23  1  0  0  0  0
 22 27  1  6  0  0  0
 22 23  1  0  0  0  0
 24 22  1  0  0  0  0
 25 24  1  0  0  0  0
 26 24  1  0  0  0  0
 28 26  1  1  0  0  0
 28 20  1  0  0  0  0
 30 29  1  0  0  0  0
 31 37  1  0  0  0  0
 32 31  2  0  0  0  0
 33 32  1  0  0  0  0
 33 36  2  0  0  0  0
 34 36  1  0  0  0  0
 35 37  2  0  0  0  0
 36 35  1  0  0  0  0
M  END
>  <MODEL>
3

>  <REMARK>
 VINA RESULT:      -3.8      2.660      6.416
  Name = 
  3 active torsions:
  status: ('A' for Active; 'I' for Inactive)
    1  A    between atoms: C_4  and  C_37
    2  A    between atoms: N_21  and  C_27
    3  A    between atoms: C_23  and  C_30
                            x       y       z     vdW  Elec       q    Type
                         _______ _______ _______ _____ _____    ______ ____

>  <TORSDO>
F 3

$$$$
=
 OpenBabel11122413363D

 37 42  0  0  1  0  0  0  0  0999 V2000
  158.4460  213.2950  156.1250 C   0  0  0  0  0  0  0  0  0  0  0  0
  160.8680  210.4100  154.3790 C   0  0  0  0  0  0  0  0  0  0  0  0
  158.8540  208.8670  152.8270 F   0  0  0  0  0  0  0  0  0  0  0  0
  160.0350  211.3150  156.4210 C   0  0  0  0  0  0  0  0  0  0  0  0
  160.5550  210.5670  152.9220 C   0  0  1  0  0  3  0  0  0  0  0  0
  160.1300  211.3060  155.0470 C   0  0  0  0  0  0  0  0  0  0  0  0
  160.0820  209.2400  152.3080 C   0  0  1  0  0  3  0  0  0  0  0  0
  160.7630  210.3960  157.1220 N   0  0  0  0  0  0  0  0  0  0  0  0
  159.3300  212.0510  154.1800 N   0  0  0  0  0  0  0  0  0  0  0  0
  159.4300  214.4500  156.0550 C   0  0  0  0  0  1  0  0  0  0  0  0
  162.3120  208.3220  154.3510 C   0  0  0  0  0  2  0  0  0  0  0  0
  161.5510  209.4730  156.4760 C   0  0  0  0  0  3  0  0  0  0  0  0
  158.1670  212.7700  154.6960 C   0  0  0  0  0  2  0  0  0  0  0  0
  161.6160  209.4480  155.0670 C   0  0  0  0  0  0  0  0  0  0  0  0
  159.4880  211.6110  152.8470 N   0  0  1  0  0  0  0  0  0  0  0  0
  159.0040  212.2000  157.0710 C   0  0  0  0  0  2  0  0  0  0  0  0
  161.0870  208.0840  152.4840 C   0  0  2  0  0  3  0  0  0  0  0  0
  157.1490  213.8150  156.7050 C   0  0  0  0  0  1  0  0  0  0  0  0
  162.3370  208.5220  152.9600 O   0  0  0  0  0  0  0  0  0  0  0  0
  160.3640  212.4720  150.6130 C   0  0  0  0  0  2  0  0  0  0  0  0
  160.5940  213.7630  149.8310 C   0  0  2  0  0  3  0  0  0  0  0  0
  157.9900  213.9780  150.0550 C   0  0  2  0  0  3  0  0  0  0  0  0
  159.2930  214.4530  149.3870 C   0  0  0  0  0  2  0  0  0  0  0  0
  157.8960  214.2320  151.5120 N   0  0  0  0  0  0  0  0  0  0  0  0
  156.8970  213.5020  152.0630 O   0  0  0  0  0  1  0  0  0  0  0  0
  159.1180  214.0530  152.3110 C   0  0  0  0  0  2  0  0  0  0  0  0
  157.5610  212.5810  149.6110 C   0  0  0  0  0  1  0  0  0  0  0  0
  159.9300  212.7700  152.0560 C   0  0  1  0  0  3  0  0  0  0  0  0
  161.9850  212.1410  148.6640 N   0  0  0  0  0  1  0  0  0  0  0  0
  161.4530  213.4920  148.6100 C   0  0  0  0  0  2  0  0  0  0  0  0
  160.8160  205.9970  151.0970 C   0  0  0  0  0  3  0  0  0  0  0  0
  161.2460  207.3270  151.2060 C   0  0  0  0  0  0  0  0  0  0  0  0
  161.8580  207.9500  150.1120 C   0  0  0  0  0  3  0  0  0  0  0  0
  162.6210  207.8590  147.8550 F   0  0  0  0  0  0  0  0  0  0  0  0
  161.5960  205.9270  148.8060 C   0  0  0  0  0  3  0  0  0  0  0  0
  162.0310  207.2520  148.9130 C   0  0  0  0  0  0  0  0  0  0  0  0
  160.9890  205.3000  149.8970 C   0  0  0  0  0  3  0  0  0  0  0  0
  1 18  1  0  0  0  0
  1 16  1  0  0  0  0
  2  6  2  0  0  0  0
  2 14  1  0  0  0  0
  4 16  1  0  0  0  0
  4  8  2  0  0  0  0
  5  2  1  1  0  0  0
  6  4  1  0  0  0  0
  7 17  1  0  0  0  0
  7  3  1  1  0  0  0
  7  5  1  0  0  0  0
  9 13  1  0  0  0  0
  9  6  1  0  0  0  0
 10  1  1  0  0  0  0
 11 14  1  0  0  0  0
 12  8  1  0  0  0  0
 13  1  1  0  0  0  0
 14 12  2  0  0  0  0
 15  5  1  0  0  0  0
 15  9  1  1  0  0  0
 17 32  1  6  0  0  0
 17 19  1  0  0  0  0
 19 11  1  0  0  0  0
 21 30  1  6  0  0  0
 21 20  1  0  0  0  0
 22 27  1  1  0  0  0
 22 24  1  0  0  0  0
 23 21  1  0  0  0  0
 23 22  1  0  0  0  0
 24 25  1  0  0  0  0
 24 26  1  0  0  0  0
 28 20  1  6  0  0  0
 28 26  1  0  0  0  0
 28 15  1  0  0  0  0
 30 29  1  0  0  0  0
 31 32  1  0  0  0  0
 33 32  2  0  0  0  0
 34 36  1  0  0  0  0
 35 36  2  0  0  0  0
 35 37  1  0  0  0  0
 36 33  1  0  0  0  0
 37 31  2  0  0  0  0
M  END
>  <MODEL>
4

>  <REMARK>
 VINA RESULT:      -3.5      2.721      6.238
  Name = 
  3 active torsions:
  status: ('A' for Active; 'I' for Inactive)
    1  A    between atoms: C_4  and  C_37
    2  A    between atoms: N_21  and  C_27
    3  A    between atoms: C_23  and  C_30
                            x       y       z     vdW  Elec       q    Type
                         _______ _______ _______ _____ _____    ______ ____

>  <TORSDO>
F 3

$$$$
=
 OpenBabel11122413363D

 37 42  0  0  1  0  0  0  0  0999 V2000
  162.3160  213.4570  147.7630 C   0  0  0  0  0  0  0  0  0  0  0  0
  161.1500  210.4300  150.3540 C   0  0  0  0  0  0  0  0  0  0  0  0
  162.8280  211.0620  152.7280 F   0  0  0  0  0  0  0  0  0  0  0  0
  162.1810  210.9550  148.2700 C   0  0  0  0  0  0  0  0  0  0  0  0
  160.7230  211.1960  151.5700 C   0  0  1  0  0  3  0  0  0  0  0  0
  161.5530  211.3210  149.4400 C   0  0  0  0  0  0  0  0  0  0  0  0
  161.4870  210.7300  152.8190 C   0  0  1  0  0  3  0  0  0  0  0  0
  162.3540  209.6230  148.0230 N   0  0  0  0  0  0  0  0  0  0  0  0
  161.4520  212.6260  149.9250 N   0  0  0  0  0  0  0  0  0  0  0  0
  160.9630  213.6960  147.1140 C   0  0  0  0  0  1  0  0  0  0  0  0
  161.0480  208.0430  151.2140 C   0  0  0  0  0  2  0  0  0  0  0  0
  161.9360  208.6740  148.9250 C   0  0  0  0  0  3  0  0  0  0  0  0
  162.2060  213.7020  149.2870 C   0  0  0  0  0  2  0  0  0  0  0  0
  161.3240  209.0580  150.1380 C   0  0  0  0  0  0  0  0  0  0  0  0
  161.0040  212.6310  151.2640 N   0  0  1  0  0  0  0  0  0  0  0  0
  162.8070  212.0260  147.4160 C   0  0  0  0  0  2  0  0  0  0  0  0
  161.3500  209.2210  153.1020 C   0  0  2  0  0  3  0  0  0  0  0  0
  163.2980  214.4530  147.1860 C   0  0  0  0  0  1  0  0  0  0  0  0
  160.3650  208.6090  152.3040 O   0  0  0  0  0  0  0  0  0  0  0  0
  158.5300  212.7990  150.6690 C   0  0  0  0  0  2  0  0  0  0  0  0
  157.2800  213.6240  150.9610 C   0  0  2  0  0  3  0  0  0  0  0  0
  157.6820  212.7690  153.4070 C   0  0  2  0  0  3  0  0  0  0  0  0
  156.7420  213.4420  152.3910 C   0  0  0  0  0  2  0  0  0  0  0  0
  158.9180  213.5220  153.7220 N   0  0  0  0  0  0  0  0  0  0  0  0
  159.8200  212.7260  154.3450 O   0  0  0  0  0  1  0  0  0  0  0  0
  159.5840  214.2260  152.6160 C   0  0  0  0  0  2  0  0  0  0  0  0
  157.8810  211.2770  153.1460 C   0  0  0  0  0  1  0  0  0  0  0  0
  159.7740  213.4370  151.3080 C   0  0  1  0  0  3  0  0  0  0  0  0
  155.0920  214.2360  150.0840 N   0  0  0  0  0  1  0  0  0  0  0  0
  156.1810  213.2810  149.9710 C   0  0  0  0  0  2  0  0  0  0  0  0
  161.6490  209.7990  155.5370 C   0  0  0  0  0  3  0  0  0  0  0  0
  161.0780  208.9810  154.5510 C   0  0  0  0  0  0  0  0  0  0  0  0
  160.2620  207.9080  154.9270 C   0  0  0  0  0  3  0  0  0  0  0  0
  159.2160  206.6210  156.6400 F   0  0  0  0  0  0  0  0  0  0  0  0
  160.5760  208.4790  157.2600 C   0  0  0  0  0  3  0  0  0  0  0  0
  160.0100  207.6590  156.2800 C   0  0  0  0  0  0  0  0  0  0  0  0
  161.3960  209.5480  156.8890 C   0  0  0  0  0  3  0  0  0  0  0  0
  1 13  1  0  0  0  0
  4  6  1  0  0  0  0
  5  2  1  6  0  0  0
  5  7  1  0  0  0  0
  6  9  1  0  0  0  0
  6  2  2  0  0  0  0
  7  3  1  6  0  0  0
  7 17  1  0  0  0  0
  8  4  2  0  0  0  0
  8 12  1  0  0  0  0
 10  1  1  0  0  0  0
 11 19  1  0  0  0  0
 12 14  2  0  0  0  0
 13  9  1  0  0  0  0
 14  2  1  0  0  0  0
 14 11  1  0  0  0  0
 15  9  1  6  0  0  0
 15 28  1  0  0  0  0
 15  5  1  0  0  0  0
 16  1  1  0  0  0  0
 16  4  1  0  0  0  0
 17 32  1  1  0  0  0
 18  1  1  0  0  0  0
 19 17  1  0  0  0  0
 20 21  1  0  0  0  0
 21 30  1  6  0  0  0
 21 23  1  0  0  0  0
 22 27  1  6  0  0  0
 22 24  1  0  0  0  0
 23 22  1  0  0  0  0
 24 25  1  0  0  0  0
 26 24  1  0  0  0  0
 28 20  1  1  0  0  0
 28 26  1  0  0  0  0
 30 29  1  0  0  0  0
 31 37  1  0  0  0  0
 32 33  1  0  0  0  0
 32 31  2  0  0  0  0
 33 36  2  0  0  0  0
 36 34  1  0  0  0  0
 36 35  1  0  0  0  0
 37 35  2  0  0  0  0
M  END
>  <MODEL>
5

>  <REMARK>
 VINA RESULT:      -1.8      2.764      7.973
  Name = 
  3 active torsions:
  status: ('A' for Active; 'I' for Inactive)
    1  A    between atoms: C_4  and  C_37
    2  A    between atoms: N_21  and  C_27
    3  A    between atoms: C_23  and  C_30
                            x       y       z     vdW  Elec       q    Type
                         _______ _______ _______ _____ _____    ______ ____

>  <TORSDO>
F 3

$$$$
