=
 OpenBabel11122414123D

 28 32  0  0  1  0  0  0  0  0999 V2000
  161.4660  209.6890  155.3340 C   0  0  0  0  0  0  0  0  0  0  0  0
  163.2090  210.2190  152.5660 O   0  0  0  0  0  0  0  0  0  0  0  0
  156.0620  212.9710  153.8810 C   0  0  0  0  0  1  0  0  0  0  0  0
  160.5240  207.0800  154.9250 C   0  0  0  0  0  3  0  0  0  0  0  0
  158.1000  213.2050  152.5620 N   0  0  0  0  0  0  0  0  0  0  0  0
  161.9320  211.0800  155.6450 C   0  0  0  0  0  2  0  0  0  0  0  0
  161.9150  208.6560  151.1660 O   0  0  0  0  0  0  0  0  0  0  0  0
  162.1040  210.0950  151.5560 S   0  0  0  0  0  0  0  0  0  0  0  0
  161.2110  211.5540  149.4510 C   0  0  2  0  0  3  0  0  0  0  0  0
  160.6310  210.7370  152.1910 N   0  0  0  0  0  0  0  0  0  0  0  0
  158.9770  210.9020  157.2610 O   0  0  0  0  0  0  0  0  0  0  0  0
  158.9080  211.2640  153.5010 C   0  0  0  0  0  0  0  0  0  0  0  0
  160.4000  212.4620  150.3800 C   0  0  0  0  0  2  0  0  0  0  0  0
  162.4990  211.0690  150.1160 C   0  0  0  0  0  2  0  0  0  0  0  0
  159.7380  211.6730  156.6180 C   0  0  0  0  0  0  0  0  0  0  0  0
  160.5130  209.4330  154.3230 C   0  0  0  0  0  0  0  0  0  0  0  0
  157.5660  213.1720  153.9270 C   0  0  2  0  0  3  0  0  0  0  0  0
  161.5580  212.3130  148.1880 C   0  0  0  0  0  1  0  0  0  0  0  0
  159.2290  212.4720  155.5560 N   0  0  0  0  0  2  0  0  0  0  0  0
  160.0570  208.1240  154.1240 C   0  0  0  0  0  3  0  0  0  0  0  0
  161.9280  208.6350  156.1330 C   0  0  0  0  0  3  0  0  0  0  0  0
  161.4610  207.3350  155.9270 C   0  0  0  0  0  3  0  0  0  0  0  0
  161.2070  211.6450  156.8670 C   0  0  0  0  0  2  0  0  0  0  0  0
  158.8420  212.0150  152.3880 C   0  0  0  0  0  0  0  0  0  0  0  0
  158.2280  211.9590  154.6380 C   0  0  2  0  0  3  0  0  0  0  0  0
  159.9190  211.7100  151.5840 C   0  0  0  0  0  0  0  0  0  0  0  0
  158.4160  214.4530  151.8870 C   0  0  0  0  0  1  0  0  0  0  0  0
  160.0470  210.4720  153.3850 C   0  0  0  0  0  0  0  0  0  0  0  0
  1  6  1  0  0  0  0
  1 21  1  0  0  0  0
  4 22  1  0  0  0  0
  5 17  1  0  0  0  0
  6 23  1  0  0  0  0
  7  8  2  0  0  0  0
  8 10  1  0  0  0  0
  8  2  2  0  0  0  0
  9 18  1  6  0  0  0
  9 14  1  0  0  0  0
  9 13  1  0  0  0  0
 10 28  1  0  0  0  0
 13 26  1  0  0  0  0
 14  8  1  0  0  0  0
 15 23  1  0  0  0  0
 15 11  2  0  0  0  0
 16  1  2  0  0  0  0
 17  3  1  6  0  0  0
 17 25  1  0  0  0  0
 19 15  1  0  0  0  0
 20 16  1  0  0  0  0
 20  4  2  0  0  0  0
 22 21  2  0  0  0  0
 24  5  1  0  0  0  0
 24 12  1  0  0  0  0
 25 12  1  6  0  0  0
 25 19  1  0  0  0  0
 26 10  1  0  0  0  0
 26 24  2  0  0  0  0
 27  5  1  0  0  0  0
 28 12  2  0  0  0  0
 28 16  1  0  0  0  0
M  END
>  <MODEL>
1

>  <REMARK>
 VINA RESULT:      -3.5      0.000      0.000
  Name = 
  0 active torsions:
  status: ('A' for Active; 'I' for Inactive)
                            x       y       z     vdW  Elec       q    Type
                         _______ _______ _______ _____ _____    ______ ____

>  <TORSDO>
F 0

$$$$
=
 OpenBabel11122414123D

 28 32  0  0  1  0  0  0  0  0999 V2000
  160.5920  209.7380  154.7400 C   0  0  0  0  0  0  0  0  0  0  0  0
  157.5500  210.3020  155.9290 O   0  0  0  0  0  0  0  0  0  0  0  0
  160.8380  214.2950  150.1290 C   0  0  0  0  0  1  0  0  0  0  0  0
  162.2000  210.9760  156.6740 C   0  0  0  0  0  3  0  0  0  0  0  0
  158.7450  213.6920  151.2270 N   0  0  0  0  0  0  0  0  0  0  0  0
  159.8140  209.0410  153.6630 C   0  0  0  0  0  2  0  0  0  0  0  0
  158.1490  212.3590  157.1490 O   0  0  0  0  0  0  0  0  0  0  0  0
  157.5480  211.8040  155.8880 S   0  0  0  0  0  0  0  0  0  0  0  0
  155.8820  213.7300  154.9530 C   0  0  2  0  0  3  0  0  0  0  0  0
  158.4270  212.3710  154.5120 N   0  0  0  0  0  0  0  0  0  0  0  0
  162.5690  210.1020  152.0310 O   0  0  0  0  0  0  0  0  0  0  0  0
  159.9440  212.6730  152.9090 C   0  0  0  0  0  0  0  0  0  0  0  0
  156.4550  213.5890  153.5410 C   0  0  0  0  0  2  0  0  0  0  0  0
  155.8780  212.3940  155.6980 C   0  0  0  0  0  2  0  0  0  0  0  0
  161.3300  209.9050  151.9120 C   0  0  0  0  0  0  0  0  0  0  0  0
  160.5760  211.1450  154.8760 C   0  0  0  0  0  0  0  0  0  0  0  0
  159.9490  213.1530  150.5860 C   0  0  2  0  0  3  0  0  0  0  0  0
  154.4660  214.2570  154.8680 C   0  0  0  0  0  1  0  0  0  0  0  0
  160.4880  210.9130  151.3630 N   0  0  0  0  0  2  0  0  0  0  0  0
  161.3780  211.7490  155.8500 C   0  0  0  0  0  3  0  0  0  0  0  0
  161.4200  208.9710  155.5690 C   0  0  0  0  0  3  0  0  0  0  0  0
  162.2180  209.5880  156.5350 C   0  0  0  0  0  3  0  0  0  0  0  0
  160.7140  208.6750  152.4820 C   0  0  0  0  0  2  0  0  0  0  0  0
  158.8540  213.3990  152.6050 C   0  0  0  0  0  0  0  0  0  0  0  0
  160.6950  212.3180  151.6640 C   0  0  2  0  0  3  0  0  0  0  0  0
  157.9020  213.1970  153.5820 C   0  0  0  0  0  0  0  0  0  0  0  0
  157.4760  213.7900  150.5250 C   0  0  0  0  0  1  0  0  0  0  0  0
  159.6670  212.0100  154.1010 C   0  0  0  0  0  0  0  0  0  0  0  0
  1 16  2  0  0  0  0
  1 21  1  0  0  0  0
  5 24  1  0  0  0  0
  6  1  1  0  0  0  0
  8  2  2  0  0  0  0
  8  7  2  0  0  0  0
  9 18  1  6  0  0  0
  9 14  1  0  0  0  0
 10  8  1  0  0  0  0
 12 28  2  0  0  0  0
 13 26  1  0  0  0  0
 13  9  1  0  0  0  0
 14  8  1  0  0  0  0
 15 11  2  0  0  0  0
 15 23  1  0  0  0  0
 16 20  1  0  0  0  0
 17  3  1  1  0  0  0
 17  5  1  0  0  0  0
 17 25  1  0  0  0  0
 19 15  1  0  0  0  0
 20  4  2  0  0  0  0
 21 22  2  0  0  0  0
 22  4  1  0  0  0  0
 23  6  1  0  0  0  0
 24 12  1  0  0  0  0
 24 26  2  0  0  0  0
 25 19  1  6  0  0  0
 25 12  1  0  0  0  0
 26 10  1  0  0  0  0
 27  5  1  0  0  0  0
 28 10  1  0  0  0  0
 28 16  1  0  0  0  0
M  END
>  <MODEL>
2

>  <REMARK>
 VINA RESULT:      -3.4      1.904      5.014
  Name = 
  0 active torsions:
  status: ('A' for Active; 'I' for Inactive)
                            x       y       z     vdW  Elec       q    Type
                         _______ _______ _______ _____ _____    ______ ____

>  <TORSDO>
F 0

$$$$
=
 OpenBabel11122414123D

 28 32  0  0  1  0  0  0  0  0999 V2000
  161.6380  210.0880  137.9470 C   0  0  0  0  0  0  0  0  0  0  0  0
  158.5710  210.9250  137.0110 O   0  0  0  0  0  0  0  0  0  0  0  0
  161.6940  212.6060  143.9250 C   0  0  0  0  0  1  0  0  0  0  0  0
  161.3150  207.3830  138.6080 C   0  0  0  0  0  3  0  0  0  0  0  0
  159.9460  213.1570  142.3160 N   0  0  0  0  0  0  0  0  0  0  0  0
  161.9080  211.5230  137.6060 C   0  0  0  0  0  2  0  0  0  0  0  0
  157.4300  209.2280  138.3880 O   0  0  0  0  0  0  0  0  0  0  0  0
  157.8450  210.6700  138.3010 S   0  0  0  0  0  0  0  0  0  0  0  0
  156.0980  212.0380  139.8620 C   0  0  2  0  0  3  0  0  0  0  0  0
  158.8470  211.0810  139.6490 N   0  0  0  0  0  0  0  0  0  0  0  0
  164.1650  210.8900  140.0320 O   0  0  0  0  0  0  0  0  0  0  0  0
  160.5550  211.3280  141.0570 C   0  0  0  0  0  0  0  0  0  0  0  0
  157.2430  212.7990  140.5360 C   0  0  0  0  0  2  0  0  0  0  0  0
  156.4110  211.7240  138.3990 C   0  0  0  0  0  2  0  0  0  0  0  0
  163.4050  211.7760  139.5570 C   0  0  0  0  0  0  0  0  0  0  0  0
  160.8680  209.7230  139.0740 C   0  0  0  0  0  0  0  0  0  0  0  0
  161.3940  213.0170  142.4950 C   0  0  2  0  0  3  0  0  0  0  0  0
  154.8340  212.8670  139.9340 C   0  0  0  0  0  1  0  0  0  0  0  0
  162.5410  212.5200  140.4090 N   0  0  0  0  0  2  0  0  0  0  0  0
  160.7080  208.3690  139.3880 C   0  0  0  0  0  3  0  0  0  0  0  0
  162.2430  209.0910  137.1700 C   0  0  0  0  0  3  0  0  0  0  0  0
  162.0800  207.7430  137.4980 C   0  0  0  0  0  3  0  0  0  0  0  0
  163.2970  211.9510  138.0820 C   0  0  0  0  0  2  0  0  0  0  0  0
  159.5340  212.0890  141.4890 C   0  0  0  0  0  0  0  0  0  0  0  0
  161.8580  211.8930  141.5270 C   0  0  2  0  0  3  0  0  0  0  0  0
  158.4820  211.9580  140.6080 C   0  0  0  0  0  0  0  0  0  0  0  0
  159.2880  214.4530  142.3400 C   0  0  0  0  0  1  0  0  0  0  0  0
  160.1280  210.7090  139.8860 C   0  0  0  0  0  0  0  0  0  0  0  0
  1 16  1  0  0  0  0
  2  8  2  0  0  0  0
  4 20  1  0  0  0  0
  5 27  1  0  0  0  0
  5 17  1  0  0  0  0
  6  1  1  0  0  0  0
  6 23  1  0  0  0  0
  8  7  2  0  0  0  0
  8 14  1  0  0  0  0
  8 10  1  0  0  0  0
  9 18  1  6  0  0  0
  9 13  1  0  0  0  0
 10 28  1  0  0  0  0
 10 26  1  0  0  0  0
 12 24  1  0  0  0  0
 12 25  1  0  0  0  0
 13 26  1  0  0  0  0
 14  9  1  0  0  0  0
 15 11  2  0  0  0  0
 15 19  1  0  0  0  0
 16 20  2  0  0  0  0
 16 28  1  0  0  0  0
 17  3  1  1  0  0  0
 21 22  1  0  0  0  0
 21  1  2  0  0  0  0
 22  4  2  0  0  0  0
 23 15  1  0  0  0  0
 24  5  1  0  0  0  0
 25 19  1  6  0  0  0
 25 17  1  0  0  0  0
 26 24  2  0  0  0  0
 28 12  2  0  0  0  0
M  END
>  <MODEL>
3

>  <REMARK>
 VINA RESULT:      -3.2     11.143     14.431
  Name = 
  0 active torsions:
  status: ('A' for Active; 'I' for Inactive)
                            x       y       z     vdW  Elec       q    Type
                         _______ _______ _______ _____ _____    ______ ____

>  <TORSDO>
F 0

$$$$
=
 OpenBabel11122414123D

 28 32  0  0  1  0  0  0  0  0999 V2000
  156.0680  211.9560  156.3280 C   0  0  0  0  0  0  0  0  0  0  0  0
  159.1160  210.7380  156.7870 O   0  0  0  0  0  0  0  0  0  0  0  0
  156.6180  214.0320  150.2070 C   0  0  0  0  0  1  0  0  0  0  0  0
  154.5830  209.6220  155.8740 C   0  0  0  0  0  3  0  0  0  0  0  0
  158.5680  213.3880  151.5240 N   0  0  0  0  0  0  0  0  0  0  0  0
  156.7770  213.2540  156.5720 C   0  0  0  0  0  2  0  0  0  0  0  0
  158.7680  208.7090  155.4310 O   0  0  0  0  0  0  0  0  0  0  0  0
  159.3290  210.1040  155.4420 S   0  0  0  0  0  0  0  0  0  0  0  0
  161.2790  210.1320  153.5570 C   0  0  2  0  0  3  0  0  0  0  0  0
  158.5860  211.0520  154.2030 N   0  0  0  0  0  0  0  0  0  0  0  0
  154.2540  214.1510  154.5190 O   0  0  0  0  0  0  0  0  0  0  0  0
  157.1820  212.3010  153.0080 C   0  0  0  0  0  0  0  0  0  0  0  0
  160.7400  211.4390  152.9700 C   0  0  0  0  0  2  0  0  0  0  0  0
  161.0710  210.0630  155.0700 C   0  0  0  0  0  2  0  0  0  0  0  0
  155.4570  214.3850  154.8130 C   0  0  0  0  0  0  0  0  0  0  0  0
  156.2750  211.2060  155.1490 C   0  0  0  0  0  0  0  0  0  0  0  0
  157.3230  214.1630  151.5450 C   0  0  2  0  0  3  0  0  0  0  0  0
  162.7560  210.0180  153.2510 C   0  0  0  0  0  1  0  0  0  0  0  0
  156.4500  214.4530  153.7960 N   0  0  0  0  0  2  0  0  0  0  0  0
  155.5320  210.0390  154.9380 C   0  0  0  0  0  3  0  0  0  0  0  0
  155.1130  211.5300  157.2610 C   0  0  0  0  0  3  0  0  0  0  0  0
  154.3760  210.3660  157.0360 C   0  0  0  0  0  3  0  0  0  0  0  0
  155.8760  214.4460  156.2410 C   0  0  0  0  0  2  0  0  0  0  0  0
  158.3720  212.2840  152.3840 C   0  0  0  0  0  0  0  0  0  0  0  0
  156.4310  213.5480  152.6600 C   0  0  2  0  0  3  0  0  0  0  0  0
  159.2520  211.5310  153.1310 C   0  0  0  0  0  0  0  0  0  0  0  0
  159.8610  214.0120  151.3020 C   0  0  0  0  0  1  0  0  0  0  0  0
  157.3220  211.5410  154.1650 C   0  0  0  0  0  0  0  0  0  0  0  0
  1  6  1  0  0  0  0
  1 21  1  0  0  0  0
  4 22  1  0  0  0  0
  5 17  1  0  0  0  0
  5 24  1  0  0  0  0
  7  8  2  0  0  0  0
  8  2  2  0  0  0  0
  9 18  1  1  0  0  0
  9 14  1  0  0  0  0
 10  8  1  0  0  0  0
 11 15  2  0  0  0  0
 12 28  2  0  0  0  0
 13 26  1  0  0  0  0
 13  9  1  0  0  0  0
 14  8  1  0  0  0  0
 15 23  1  0  0  0  0
 16  1  2  0  0  0  0
 17  3  1  6  0  0  0
 17 25  1  0  0  0  0
 19 15  1  0  0  0  0
 20 16  1  0  0  0  0
 20  4  2  0  0  0  0
 22 21  2  0  0  0  0
 23  6  1  0  0  0  0
 24 12  1  0  0  0  0
 24 26  2  0  0  0  0
 25 12  1  1  0  0  0
 25 19  1  0  0  0  0
 26 10  1  0  0  0  0
 27  5  1  0  0  0  0
 28 10  1  0  0  0  0
 28 16  1  0  0  0  0
M  END
>  <MODEL>
4

>  <REMARK>
 VINA RESULT:      -2.8      2.673      4.731
  Name = 
  0 active torsions:
  status: ('A' for Active; 'I' for Inactive)
                            x       y       z     vdW  Elec       q    Type
                         _______ _______ _______ _____ _____    ______ ____

>  <TORSDO>
F 0

$$$$
=
 OpenBabel11122414123D

 28 32  0  0  1  0  0  0  0  0999 V2000
  161.2960  208.5260  155.9070 C   0  0  0  0  0  0  0  0  0  0  0  0
  162.9000  207.0490  153.4100 O   0  0  0  0  0  0  0  0  0  0  0  0
  158.3120  213.2740  152.6460 C   0  0  0  0  0  1  0  0  0  0  0  0
  159.1150  206.8050  156.2810 C   0  0  0  0  0  3  0  0  0  0  0  0
  160.0960  211.9500  151.6390 N   0  0  0  0  0  0  0  0  0  0  0  0
  162.4340  209.4950  155.7880 C   0  0  0  0  0  2  0  0  0  0  0  0
  160.9040  205.9610  152.4560 O   0  0  0  0  0  0  0  0  0  0  0  0
  161.8360  207.1360  152.3530 S   0  0  0  0  0  0  0  0  0  0  0  0
  161.7120  207.9540  149.7700 C   0  0  2  0  0  3  0  0  0  0  0  0
  160.9500  208.6110  152.5090 N   0  0  0  0  0  0  0  0  0  0  0  0
  159.9140  211.4320  156.9170 O   0  0  0  0  0  0  0  0  0  0  0  0
  159.8290  210.3700  153.2930 C   0  0  0  0  0  0  0  0  0  0  0  0
  161.5460  209.4120  150.2040 C   0  0  0  0  0  2  0  0  0  0  0  0
  162.5960  207.1710  150.7420 C   0  0  0  0  0  2  0  0  0  0  0  0
  160.9280  211.4180  156.1680 C   0  0  0  0  0  0  0  0  0  0  0  0
  160.2930  208.4320  154.9160 C   0  0  0  0  0  0  0  0  0  0  0  0
  159.7010  212.6940  152.8400 C   0  0  2  0  0  3  0  0  0  0  0  0
  162.3300  207.9090  148.3890 C   0  0  0  0  0  1  0  0  0  0  0  0
  160.8480  211.9090  154.8350 N   0  0  0  0  0  2  0  0  0  0  0  0
  159.2130  207.5640  155.1120 C   0  0  0  0  0  3  0  0  0  0  0  0
  161.1880  207.7620  157.0760 C   0  0  0  0  0  3  0  0  0  0  0  0
  160.1030  206.9020  157.2610 C   0  0  0  0  0  3  0  0  0  0  0  0
  162.1790  210.7510  156.6230 C   0  0  0  0  0  2  0  0  0  0  0  0
  160.1000  210.5830  151.9930 C   0  0  0  0  0  0  0  0  0  0  0  0
  159.6760  211.6730  154.0110 C   0  0  2  0  0  3  0  0  0  0  0  0
  160.8140  209.5080  151.5090 C   0  0  0  0  0  0  0  0  0  0  0  0
  160.9750  212.5210  150.6330 C   0  0  0  0  0  1  0  0  0  0  0  0
  160.3820  209.1360  153.6220 C   0  0  0  0  0  0  0  0  0  0  0  0
  1 21  1  0  0  0  0
  4 22  1  0  0  0  0
  5 24  1  0  0  0  0
  5 17  1  0  0  0  0
  6  1  1  0  0  0  0
  6 23  1  0  0  0  0
  8  7  2  0  0  0  0
  8 10  1  0  0  0  0
  8  2  2  0  0  0  0
  9 18  1  6  0  0  0
  9 13  1  0  0  0  0
  9 14  1  0  0  0  0
 10 28  1  0  0  0  0
 12 28  2  0  0  0  0
 13 26  1  0  0  0  0
 14  8  1  0  0  0  0
 15 23  1  0  0  0  0
 15 11  2  0  0  0  0
 16 20  1  0  0  0  0
 16  1  2  0  0  0  0
 17  3  1  6  0  0  0
 17 25  1  0  0  0  0
 19 15  1  0  0  0  0
 20  4  2  0  0  0  0
 21 22  2  0  0  0  0
 24 12  1  0  0  0  0
 25 12  1  6  0  0  0
 25 19  1  0  0  0  0
 26 24  2  0  0  0  0
 26 10  1  0  0  0  0
 27  5  1  0  0  0  0
 28 16  1  0  0  0  0
M  END
>  <MODEL>
5

>  <REMARK>
 VINA RESULT:      -2.5      1.978      2.444
  Name = 
  0 active torsions:
  status: ('A' for Active; 'I' for Inactive)
                            x       y       z     vdW  Elec       q    Type
                         _______ _______ _______ _____ _____    ______ ____

>  <TORSDO>
F 0

$$$$
=
 OpenBabel11122414123D

 28 32  0  0  1  0  0  0  0  0999 V2000
  162.2310  205.3790  146.1980 C   0  0  0  0  0  0  0  0  0  0  0  0
  163.1570  207.7710  148.2980 O   0  0  0  0  0  0  0  0  0  0  0  0
  159.1940  201.4010  150.3250 C   0  0  0  0  0  1  0  0  0  0  0  0
  159.9930  206.5350  144.9680 C   0  0  0  0  0  3  0  0  0  0  0  0
  160.5990  203.2340  151.1090 N   0  0  0  0  0  0  0  0  0  0  0  0
  163.4210  204.6860  146.7920 C   0  0  0  0  0  2  0  0  0  0  0  0
  160.9110  208.7570  148.5400 O   0  0  0  0  0  0  0  0  0  0  0  0
  161.9240  207.8320  149.1540 S   0  0  0  0  0  0  0  0  0  0  0  0
  161.3920  207.8120  151.8140 C   0  0  2  0  0  3  0  0  0  0  0  0
  161.2460  206.2550  149.3500 N   0  0  0  0  0  0  0  0  0  0  0  0
  161.3860  202.1210  145.9810 O   0  0  0  0  0  0  0  0  0  0  0  0
  160.4910  204.1860  149.0150 C   0  0  0  0  0  0  0  0  0  0  0  0
  161.4680  206.2830  151.8520 C   0  0  0  0  0  2  0  0  0  0  0  0
  162.3590  208.4010  150.7860 C   0  0  0  0  0  2  0  0  0  0  0  0
  162.2290  202.5210  146.8280 C   0  0  0  0  0  0  0  0  0  0  0  0
  161.0510  205.6010  146.9440 C   0  0  0  0  0  0  0  0  0  0  0  0
  160.5250  202.1130  150.1660 C   0  0  2  0  0  3  0  0  0  0  0  0
  161.7230  208.3640  153.1830 C   0  0  0  0  0  1  0  0  0  0  0  0
  161.9460  202.4430  148.2210 N   0  0  0  0  0  2  0  0  0  0  0  0
  159.9430  206.1860  146.3190 C   0  0  0  0  0  3  0  0  0  0  0  0
  162.2700  205.7320  144.8430 C   0  0  0  0  0  3  0  0  0  0  0  0
  161.1560  206.3110  144.2310 C   0  0  0  0  0  3  0  0  0  0  0  0
  163.4660  203.2150  146.3760 C   0  0  0  0  0  2  0  0  0  0  0  0
  160.5260  204.4160  150.3390 C   0  0  0  0  0  0  0  0  0  0  0  0
  160.6180  202.7210  148.7390 C   0  0  2  0  0  3  0  0  0  0  0  0
  161.0150  205.6870  150.5530 C   0  0  0  0  0  0  0  0  0  0  0  0
  161.3230  203.1380  152.3650 C   0  0  0  0  0  1  0  0  0  0  0  0
  160.9630  205.3380  148.3930 C   0  0  0  0  0  0  0  0  0  0  0  0
  1  6  1  0  0  0  0
  1 16  1  0  0  0  0
  2  8  2  0  0  0  0
  4 20  1  0  0  0  0
  5 27  1  0  0  0  0
  7  8  2  0  0  0  0
  8 10  1  0  0  0  0
  8 14  1  0  0  0  0
  9 13  1  0  0  0  0
  9 18  1  1  0  0  0
 10 26  1  0  0  0  0
 11 15  2  0  0  0  0
 12 24  1  0  0  0  0
 14  9  1  0  0  0  0
 15 19  1  0  0  0  0
 16 28  1  0  0  0  0
 17  3  1  6  0  0  0
 17  5  1  0  0  0  0
 20 16  2  0  0  0  0
 21  1  2  0  0  0  0
 22 21  1  0  0  0  0
 22  4  2  0  0  0  0
 23  6  1  0  0  0  0
 23 15  1  0  0  0  0
 24 26  2  0  0  0  0
 24  5  1  0  0  0  0
 25 19  1  1  0  0  0
 25 12  1  0  0  0  0
 25 17  1  0  0  0  0
 26 13  1  0  0  0  0
 28 12  2  0  0  0  0
 28 10  1  0  0  0  0
M  END
>  <MODEL>
6

>  <REMARK>
 VINA RESULT:      -1.2      6.287      9.556
  Name = 
  0 active torsions:
  status: ('A' for Active; 'I' for Inactive)
                            x       y       z     vdW  Elec       q    Type
                         _______ _______ _______ _____ _____    ______ ____

>  <TORSDO>
F 0

$$$$
