=
 OpenBabel11122414143D

 28 32  0  0  1  0  0  0  0  0999 V2000
  163.1260  212.0430  139.1830 C   0  0  0  0  0  0  0  0  0  0  0  0
  161.5060  211.6590  142.0830 O   0  0  0  0  0  1  0  0  0  0  0  0
  157.5730  213.2300  137.1290 C   0  0  0  0  0  2  0  0  0  0  0  0
  164.5630  214.4530  139.1690 C   0  0  0  0  0  3  0  0  0  0  0  0
  157.6670  212.9810  139.5850 C   0  0  2  0  0  3  0  0  0  0  0  0
  162.4140  210.7400  139.0490 C   0  0  0  0  0  2  0  0  0  0  0  0
  162.8840  213.5220  142.5770 C   0  0  0  0  0  1  0  0  0  0  0  0
  161.4630  213.0160  142.4180 C   0  0  1  0  0  0  0  0  0  0  0  0
  159.3240  212.7490  143.6950 C   0  0  1  0  0  3  0  0  0  0  0  0
  160.7310  213.8530  141.3210 C   0  0  2  0  0  3  0  0  0  0  0  0
  160.4760  208.7780  137.2170 O   0  0  0  0  0  0  0  0  0  0  0  0
  160.0220  212.2500  139.6230 C   0  0  1  0  0  3  0  0  0  0  0  0
  158.5900  213.7100  142.7780 C   0  0  0  0  0  2  0  0  0  0  0  0
  160.7840  213.1650  143.7760 C   0  0  0  0  0  2  0  0  0  0  0  0
  160.6360  209.9930  137.5020 C   0  0  0  0  0  0  0  0  0  0  0  0
  162.4620  213.2610  139.4880 C   0  0  0  0  0  0  0  0  0  0  0  0
  158.1890  212.7650  138.2140 C   0  0  0  0  0  0  0  0  0  0  0  0
  158.7320  212.8000  145.0180 N   0  0  0  0  0  1  0  0  0  0  0  0
  159.4900  210.8180  137.7330 N   0  0  0  0  0  2  0  0  0  0  0  0
  163.1990  214.4530  139.4650 C   0  0  0  0  0  3  0  0  0  0  0  0
  164.4960  212.0580  138.8860 C   0  0  0  0  0  3  0  0  0  0  0  0
  165.2130  213.2530  138.8850 C   0  0  0  0  0  3  0  0  0  0  0  0
  162.0180  210.5440  137.5950 C   0  0  0  0  0  2  0  0  0  0  0  0
  158.8030  212.5560  140.5030 C   0  0  1  0  0  3  0  0  0  0  0  0
  159.5620  212.2070  138.1710 C   0  0  2  0  0  3  0  0  0  0  0  0
  159.2040  213.7370  141.3770 C   0  0  2  0  0  3  0  0  0  0  0  0
  156.5590  212.1620  139.8050 O   0  0  0  0  0  1  0  0  0  0  0  0
  161.0020  213.3920  139.8850 C   0  0  2  0  0  3  0  0  0  0  0  0
  1 16  1  0  0  0  0
  2  8  1  0  0  0  0
  3 17  2  0  0  0  0
  4 20  1  0  0  0  0
  5 27  1  1  0  0  0
  5 24  1  0  0  0  0
  6  1  1  0  0  0  0
  8  7  1  1  0  0  0
  8 14  1  0  0  0  0
  9 14  1  0  0  0  0
  9 18  1  1  0  0  0
 10 26  1  0  0  0  0
 10  8  1  0  0  0  0
 11 15  2  0  0  0  0
 12 28  1  0  0  0  0
 12 24  1  0  0  0  0
 13  9  1  0  0  0  0
 15 23  1  0  0  0  0
 15 19  1  0  0  0  0
 16 28  1  0  0  0  0
 17  5  1  0  0  0  0
 19 25  1  0  0  0  0
 20 16  2  0  0  0  0
 21  1  2  0  0  0  0
 22 21  1  0  0  0  0
 22  4  2  0  0  0  0
 23  6  1  0  0  0  0
 24 26  1  0  0  0  0
 25 17  1  0  0  0  0
 25 12  1  0  0  0  0
 26 13  1  0  0  0  0
 28 10  1  0  0  0  0
M  END
>  <MODEL>
1

>  <REMARK>
 VINA RESULT:      -5.2      0.000      0.000
  Name = 
  0 active torsions:
  status: ('A' for Active; 'I' for Inactive)
                            x       y       z     vdW  Elec       q    Type
                         _______ _______ _______ _____ _____    ______ ____

>  <TORSDO>
F 0

$$$$
=
 OpenBabel11122414143D

 28 32  0  0  1  0  0  0  0  0999 V2000
  159.0520  213.2300  141.6920 C   0  0  0  0  0  0  0  0  0  0  0  0
  161.7410  214.3260  140.0340 O   0  0  0  0  0  1  0  0  0  0  0  0
  160.2410  208.1280  138.6900 C   0  0  0  0  0  2  0  0  0  0  0  0
  159.6730  212.7840  144.3910 C   0  0  0  0  0  3  0  0  0  0  0  0
  161.9780  209.8580  138.3910 C   0  0  2  0  0  3  0  0  0  0  0  0
  158.5810  213.4200  140.2900 C   0  0  0  0  0  2  0  0  0  0  0  0
  162.5070  214.4530  142.2720 C   0  0  0  0  0  1  0  0  0  0  0  0
  162.6920  213.8010  140.9160 C   0  0  1  0  0  0  0  0  0  0  0  0
  164.3890  213.5160  139.0940 C   0  0  1  0  0  3  0  0  0  0  0  0
  162.5480  212.2520  141.0560 C   0  0  2  0  0  3  0  0  0  0  0  0
  156.9520  212.1820  137.6870 O   0  0  0  0  0  0  0  0  0  0  0  0
  160.7170  211.6170  139.5720 C   0  0  1  0  0  3  0  0  0  0  0  0
  164.4470  212.0140  139.3050 C   0  0  0  0  0  2  0  0  0  0  0  0
  164.0840  214.1880  140.4230 C   0  0  0  0  0  2  0  0  0  0  0  0
  157.7140  211.8160  138.6190 C   0  0  0  0  0  0  0  0  0  0  0  0
  160.1540  212.4030  142.0330 C   0  0  0  0  0  0  0  0  0  0  0  0
  160.6050  209.4080  138.7240 C   0  0  0  0  0  0  0  0  0  0  0  0
  165.6710  213.9830  138.6000 N   0  0  0  0  0  1  0  0  0  0  0  0
  158.7540  210.8720  138.3490 N   0  0  0  0  0  2  0  0  0  0  0  0
  160.4400  212.1880  143.3890 C   0  0  0  0  0  3  0  0  0  0  0  0
  158.2900  213.8230  142.7080 C   0  0  0  0  0  3  0  0  0  0  0  0
  158.6010  213.6080  144.0500 C   0  0  0  0  0  3  0  0  0  0  0  0
  157.5160  212.3800  139.9850 C   0  0  0  0  0  2  0  0  0  0  0  0
  162.0300  211.3100  138.8390 C   0  0  1  0  0  3  0  0  0  0  0  0
  159.7550  210.4610  139.3280 C   0  0  2  0  0  3  0  0  0  0  0  0
  163.1350  211.4720  139.8750 C   0  0  2  0  0  3  0  0  0  0  0  0
  162.1790  209.7890  137.0110 O   0  0  0  0  0  1  0  0  0  0  0  0
  161.1020  211.7460  141.0450 C   0  0  2  0  0  3  0  0  0  0  0  0
  1 16  2  0  0  0  0
  1 21  1  0  0  0  0
  2  8  1  0  0  0  0
  3 17  2  0  0  0  0
  5 27  1  6  0  0  0
  5 17  1  0  0  0  0
  5 24  1  0  0  0  0
  6  1  1  0  0  0  0
  8 10  1  0  0  0  0
  8  7  1  1  0  0  0
  9 18  1  1  0  0  0
  9 13  1  0  0  0  0
  9 14  1  0  0  0  0
 11 15  2  0  0  0  0
 12 28  1  0  0  0  0
 13 26  1  0  0  0  0
 14  8  1  0  0  0  0
 15 23  1  0  0  0  0
 16 20  1  0  0  0  0
 17 25  1  0  0  0  0
 19 15  1  0  0  0  0
 19 25  1  0  0  0  0
 20  4  2  0  0  0  0
 21 22  2  0  0  0  0
 22  4  1  0  0  0  0
 23  6  1  0  0  0  0
 24 12  1  0  0  0  0
 24 26  1  0  0  0  0
 25 12  1  0  0  0  0
 26 10  1  0  0  0  0
 28 10  1  0  0  0  0
 28 16  1  0  0  0  0
M  END
>  <MODEL>
2

>  <REMARK>
 VINA RESULT:      -4.8      1.938      5.157
  Name = 
  0 active torsions:
  status: ('A' for Active; 'I' for Inactive)
                            x       y       z     vdW  Elec       q    Type
                         _______ _______ _______ _____ _____    ______ ____

>  <TORSDO>
F 0

$$$$
=
 OpenBabel11122414143D

 28 32  0  0  1  0  0  0  0  0999 V2000
  159.0620  212.9960  140.7740 C   0  0  0  0  0  0  0  0  0  0  0  0
  160.0190  209.9430  139.7980 O   0  0  0  0  0  1  0  0  0  0  0  0
  164.6680  214.4530  139.0650 C   0  0  0  0  0  2  0  0  0  0  0  0
  157.2940  214.1170  138.9070 C   0  0  0  0  0  3  0  0  0  0  0  0
  164.0580  212.1240  138.5110 C   0  0  2  0  0  3  0  0  0  0  0  0
  159.9890  212.5280  141.8450 C   0  0  0  0  0  2  0  0  0  0  0  0
  158.2800  210.3890  138.2520 C   0  0  0  0  0  1  0  0  0  0  0  0
  159.7630  210.1290  138.4350 C   0  0  1  0  0  0  0  0  0  0  0  0
  161.5690  208.5280  137.7620 C   0  0  1  0  0  3  0  0  0  0  0  0
  160.5790  211.3290  137.8580 C   0  0  2  0  0  3  0  0  0  0  0  0
  162.5860  213.1860  143.7900 O   0  0  0  0  0  0  0  0  0  0  0  0
  161.9080  212.1860  139.7170 C   0  0  1  0  0  3  0  0  0  0  0  0
  162.3250  209.6080  137.0120 C   0  0  0  0  0  2  0  0  0  0  0  0
  160.0810  208.8330  137.6950 C   0  0  0  0  0  2  0  0  0  0  0  0
  162.1700  213.3960  142.6210 C   0  0  0  0  0  0  0  0  0  0  0  0
  159.4320  213.0610  139.4050 C   0  0  0  0  0  0  0  0  0  0  0  0
  163.9050  213.3830  139.2800 C   0  0  0  0  0  0  0  0  0  0  0  0
  161.8270  207.2410  137.1440 N   0  0  0  0  0  1  0  0  0  0  0  0
  163.0830  213.3090  141.5230 N   0  0  0  0  0  2  0  0  0  0  0  0
  158.5350  213.6340  138.4920 C   0  0  0  0  0  3  0  0  0  0  0  0
  157.8130  213.4860  141.1780 C   0  0  0  0  0  3  0  0  0  0  0  0
  156.9300  214.0370  140.2510 C   0  0  0  0  0  3  0  0  0  0  0  0
  160.7320  213.7280  142.4080 C   0  0  0  0  0  2  0  0  0  0  0  0
  162.8280  211.3020  138.8640 C   0  0  1  0  0  3  0  0  0  0  0  0
  162.6870  213.4300  140.1240 C   0  0  2  0  0  3  0  0  0  0  0  0
  162.0510  210.9970  137.5900 C   0  0  2  0  0  3  0  0  0  0  0  0
  165.2050  211.4490  138.9300 O   0  0  0  0  0  1  0  0  0  0  0  0
  160.7210  212.5180  138.8140 C   0  0  2  0  0  3  0  0  0  0  0  0
  1 21  1  0  0  0  0
  1  6  1  0  0  0  0
  3 17  2  0  0  0  0
  4 22  1  0  0  0  0
  5 24  1  0  0  0  0
  5 27  1  1  0  0  0
  5 17  1  0  0  0  0
  6 23  1  0  0  0  0
  8  7  1  6  0  0  0
  8  2  1  0  0  0  0
  9 18  1  6  0  0  0
 10  8  1  0  0  0  0
 10 28  1  0  0  0  0
 12 25  1  0  0  0  0
 13 26  1  0  0  0  0
 13  9  1  0  0  0  0
 14  9  1  0  0  0  0
 14  8  1  0  0  0  0
 15 11  2  0  0  0  0
 16  1  2  0  0  0  0
 17 25  1  0  0  0  0
 19 15  1  0  0  0  0
 20  4  2  0  0  0  0
 20 16  1  0  0  0  0
 22 21  2  0  0  0  0
 23 15  1  0  0  0  0
 24 12  1  0  0  0  0
 25 19  1  0  0  0  0
 26 10  1  0  0  0  0
 26 24  1  0  0  0  0
 28 16  1  0  0  0  0
 28 12  1  0  0  0  0
M  END
>  <MODEL>
3

>  <REMARK>
 VINA RESULT:      -4.6      2.079      6.231
  Name = 
  0 active torsions:
  status: ('A' for Active; 'I' for Inactive)
                            x       y       z     vdW  Elec       q    Type
                         _______ _______ _______ _____ _____    ______ ____

>  <TORSDO>
F 0

$$$$
=
 OpenBabel11122414143D

 28 32  0  0  1  0  0  0  0  0999 V2000
  160.4830  210.3010  138.5290 C   0  0  0  0  0  0  0  0  0  0  0  0
  160.5410  211.0180  141.7960 O   0  0  0  0  0  1  0  0  0  0  0  0
  156.0940  214.4490  138.4890 C   0  0  0  0  0  2  0  0  0  0  0  0
  162.7090  211.4170  137.2370 C   0  0  0  0  0  3  0  0  0  0  0  0
  157.2330  214.2620  140.6730 C   0  0  2  0  0  3  0  0  0  0  0  0
  159.2570  209.6570  139.0810 C   0  0  0  0  0  2  0  0  0  0  0  0
  162.6990  211.7390  141.1350 C   0  0  0  0  0  1  0  0  0  0  0  0
  161.3510  212.1540  141.6910 C   0  0  1  0  0  0  0  0  0  0  0  0
  160.3050  213.2230  143.7010 C   0  0  1  0  0  3  0  0  0  0  0  0
  160.7100  213.2290  140.7560 C   0  0  2  0  0  3  0  0  0  0  0  0
  155.9970  209.1440  138.8160 O   0  0  0  0  0  0  0  0  0  0  0  0
  158.5750  212.2950  140.0320 C   0  0  1  0  0  3  0  0  0  0  0  0
  159.8130  214.4050  142.8870 C   0  0  0  0  0  2  0  0  0  0  0  0
  161.5990  212.7100  143.0900 C   0  0  0  0  0  2  0  0  0  0  0  0
  156.8560  210.0450  138.6340 C   0  0  0  0  0  0  0  0  0  0  0  0
  160.7630  211.6860  138.6780 C   0  0  0  0  0  0  0  0  0  0  0  0
  156.8320  213.7420  139.3430 C   0  0  0  0  0  0  0  0  0  0  0  0
  160.5510  213.6480  145.0670 N   0  0  0  0  0  1  0  0  0  0  0  0
  156.5590  211.3890  139.0210 N   0  0  0  0  0  2  0  0  0  0  0  0
  161.8750  212.2220  138.0150 C   0  0  0  0  0  3  0  0  0  0  0  0
  161.3280  209.5050  137.7450 C   0  0  0  0  0  3  0  0  0  0  0  0
  162.4380  210.0560  137.1070 C   0  0  0  0  0  3  0  0  0  0  0  0
  158.1670  209.6880  138.0220 C   0  0  0  0  0  2  0  0  0  0  0  0
  158.2820  213.2800  141.1720 C   0  0  1  0  0  3  0  0  0  0  0  0
  157.5170  212.4870  138.9530 C   0  0  2  0  0  3  0  0  0  0  0  0
  159.5840  214.0280  141.4230 C   0  0  2  0  0  3  0  0  0  0  0  0
  156.1370  214.2510  141.5370 O   0  0  0  0  0  1  0  0  0  0  0  0
  159.9750  212.6560  139.5410 C   0  0  2  0  0  3  0  0  0  0  0  0
  1 16  1  0  0  0  0
  1  6  1  0  0  0  0
  3 17  2  0  0  0  0
  4 20  1  0  0  0  0
  5 24  1  0  0  0  0
  5 27  1  1  0  0  0
  8  7  1  6  0  0  0
  8  2  1  0  0  0  0
  8 14  1  0  0  0  0
  9 18  1  1  0  0  0
 10 26  1  0  0  0  0
 10  8  1  0  0  0  0
 12 24  1  0  0  0  0
 13  9  1  0  0  0  0
 14  9  1  0  0  0  0
 15 11  2  0  0  0  0
 15 19  1  0  0  0  0
 16 28  1  0  0  0  0
 17  5  1  0  0  0  0
 20 16  2  0  0  0  0
 21  1  2  0  0  0  0
 22  4  2  0  0  0  0
 22 21  1  0  0  0  0
 23 15  1  0  0  0  0
 23  6  1  0  0  0  0
 24 26  1  0  0  0  0
 25 19  1  0  0  0  0
 25 17  1  0  0  0  0
 25 12  1  0  0  0  0
 26 13  1  0  0  0  0
 28 12  1  0  0  0  0
 28 10  1  0  0  0  0
M  END
>  <MODEL>
4

>  <REMARK>
 VINA RESULT:      -4.5      2.030      2.700
  Name = 
  0 active torsions:
  status: ('A' for Active; 'I' for Inactive)
                            x       y       z     vdW  Elec       q    Type
                         _______ _______ _______ _____ _____    ______ ____

>  <TORSDO>
F 0

$$$$
=
 OpenBabel11122414143D

 28 32  0  0  1  0  0  0  0  0999 V2000
  162.0290  210.1180  137.8100 C   0  0  0  0  0  0  0  0  0  0  0  0
  159.2840  211.9520  137.2760 O   0  0  0  0  0  1  0  0  0  0  0  0
  161.6410  212.5520  143.3230 C   0  0  0  0  0  2  0  0  0  0  0  0
  161.3680  207.4010  138.0400 C   0  0  0  0  0  3  0  0  0  0  0  0
  159.7030  213.0850  141.8880 C   0  0  2  0  0  3  0  0  0  0  0  0
  162.5240  211.5210  137.7130 C   0  0  0  0  0  2  0  0  0  0  0  0
  158.4230  209.7610  137.0120 C   0  0  0  0  0  1  0  0  0  0  0  0
  158.3780  211.0390  137.8260 C   0  0  1  0  0  0  0  0  0  0  0  0
  156.8050  212.8560  138.5350 C   0  0  1  0  0  3  0  0  0  0  0  0
  158.7200  210.7210  139.3170 C   0  0  2  0  0  3  0  0  0  0  0  0
  164.4010  213.9280  138.9930 O   0  0  0  0  0  0  0  0  0  0  0  0
  160.6740  212.0800  139.8560 C   0  0  1  0  0  3  0  0  0  0  0  0
  156.9380  212.4780  139.9990 C   0  0  0  0  0  2  0  0  0  0  0  0
  156.9670  211.6040  137.6880 C   0  0  0  0  0  2  0  0  0  0  0  0
  163.6590  212.9790  139.3550 C   0  0  0  0  0  0  0  0  0  0  0  0
  161.0330  209.7110  138.7380 C   0  0  0  0  0  0  0  0  0  0  0  0
  161.1090  212.6710  142.1080 C   0  0  0  0  0  0  0  0  0  0  0  0
  155.4920  213.4300  138.3030 N   0  0  0  0  0  1  0  0  0  0  0  0
  162.7640  213.1650  140.4550 N   0  0  0  0  0  2  0  0  0  0  0  0
  160.7270  208.3470  138.8410 C   0  0  0  0  0  3  0  0  0  0  0  0
  162.6660  209.1570  137.0130 C   0  0  0  0  0  3  0  0  0  0  0  0
  162.3340  207.8070  137.1210 C   0  0  0  0  0  3  0  0  0  0  0  0
  163.7280  211.6810  138.6250 C   0  0  0  0  0  2  0  0  0  0  0  0
  159.4420  212.8050  140.4150 C   0  0  1  0  0  3  0  0  0  0  0  0
  161.7900  212.1700  140.8890 C   0  0  2  0  0  3  0  0  0  0  0  0
  158.2870  211.8200  140.2930 C   0  0  2  0  0  3  0  0  0  0  0  0
  159.5670  214.4520  142.1320 O   0  0  0  0  0  1  0  0  0  0  0  0
  160.2190  210.6420  139.6200 C   0  0  2  0  0  3  0  0  0  0  0  0
  1 16  1  0  0  0  0
  2  8  1  0  0  0  0
  4 20  1  0  0  0  0
  5 17  1  0  0  0  0
  5 27  1  6  0  0  0
  6  1  1  0  0  0  0
  6 23  1  0  0  0  0
  8  7  1  6  0  0  0
  8 10  1  0  0  0  0
  9 18  1  1  0  0  0
  9 13  1  0  0  0  0
 10 28  1  0  0  0  0
 10 26  1  0  0  0  0
 11 15  2  0  0  0  0
 12 24  1  0  0  0  0
 12 25  1  0  0  0  0
 13 26  1  0  0  0  0
 14  8  1  0  0  0  0
 14  9  1  0  0  0  0
 15 19  1  0  0  0  0
 16 20  2  0  0  0  0
 16 28  1  0  0  0  0
 17  3  2  0  0  0  0
 19 25  1  0  0  0  0
 21 22  1  0  0  0  0
 21  1  2  0  0  0  0
 22  4  2  0  0  0  0
 23 15  1  0  0  0  0
 24  5  1  0  0  0  0
 25 17  1  0  0  0  0
 26 24  1  0  0  0  0
 28 12  1  0  0  0  0
M  END
>  <MODEL>
5

>  <REMARK>
 VINA RESULT:      -4.4      2.305      5.061
  Name = 
  0 active torsions:
  status: ('A' for Active; 'I' for Inactive)
                            x       y       z     vdW  Elec       q    Type
                         _______ _______ _______ _____ _____    ______ ____

>  <TORSDO>
F 0

$$$$
=
 OpenBabel11122414143D

 28 32  0  0  1  0  0  0  0  0999 V2000
  161.2050  209.2340  155.3400 C   0  0  0  0  0  0  0  0  0  0  0  0
  158.0930  210.4590  155.3320 O   0  0  0  0  0  1  0  0  0  0  0  0
  161.5930  212.2970  150.1500 C   0  0  0  0  0  2  0  0  0  0  0  0
  162.7860  210.5760  157.2300 C   0  0  0  0  0  3  0  0  0  0  0  0
  159.4800  212.7060  151.3630 C   0  0  2  0  0  3  0  0  0  0  0  0
  160.4880  208.4410  154.3010 C   0  0  0  0  0  2  0  0  0  0  0  0
  158.9870  211.5060  157.2610 C   0  0  0  0  0  1  0  0  0  0  0  0
  158.4170  211.7090  155.8700 C   0  0  1  0  0  0  0  0  0  0  0  0
  156.5280  212.8390  154.6730 C   0  0  1  0  0  3  0  0  0  0  0  0
  159.4600  212.4610  154.9830 C   0  0  2  0  0  3  0  0  0  0  0  0
  160.4700  207.2140  151.2260 O   0  0  0  0  0  0  0  0  0  0  0  0
  159.9010  210.9920  153.0850 C   0  0  1  0  0  3  0  0  0  0  0  0
  157.4770  213.7440  153.9110 C   0  0  0  0  0  2  0  0  0  0  0  0
  157.1340  212.5210  156.0300 C   0  0  0  0  0  2  0  0  0  0  0  0
  160.8380  208.2360  151.8620 C   0  0  0  0  0  0  0  0  0  0  0  0
  161.2830  210.6520  155.3140 C   0  0  0  0  0  0  0  0  0  0  0  0
  160.6900  211.9080  151.0490 C   0  0  0  0  0  0  0  0  0  0  0  0
  155.2590  213.5180  154.8580 N   0  0  0  0  0  1  0  0  0  0  0  0
  160.6390  209.5300  151.2890 N   0  0  0  0  0  2  0  0  0  0  0  0
  162.0870  211.2990  156.2630 C   0  0  0  0  0  3  0  0  0  0  0  0
  161.9130  208.5200  156.3160 C   0  0  0  0  0  3  0  0  0  0  0  0
  162.6940  209.1850  157.2610 C   0  0  0  0  0  3  0  0  0  0  0  0
  161.4700  208.0710  153.2020 C   0  0  0  0  0  2  0  0  0  0  0  0
  158.9060  212.0610  152.6160 C   0  0  1  0  0  3  0  0  0  0  0  0
  160.9300  210.7810  151.9810 C   0  0  2  0  0  3  0  0  0  0  0  0
  158.8520  213.0990  153.7290 C   0  0  2  0  0  3  0  0  0  0  0  0
  158.5580  212.6010  150.3210 O   0  0  0  0  0  1  0  0  0  0  0  0
  160.5280  211.5580  154.3580 C   0  0  2  0  0  3  0  0  0  0  0  0
  1 21  1  0  0  0  0
  2  8  1  0  0  0  0
  3 17  2  0  0  0  0
  4 22  1  0  0  0  0
  5 27  1  6  0  0  0
  5 24  1  0  0  0  0
  6  1  1  0  0  0  0
  8 14  1  0  0  0  0
  8  7  1  1  0  0  0
  9 18  1  1  0  0  0
  9 14  1  0  0  0  0
 10  8  1  0  0  0  0
 11 15  2  0  0  0  0
 12 28  1  0  0  0  0
 13  9  1  0  0  0  0
 15 23  1  0  0  0  0
 16  1  2  0  0  0  0
 16 20  1  0  0  0  0
 17  5  1  0  0  0  0
 17 25  1  0  0  0  0
 19 15  1  0  0  0  0
 19 25  1  0  0  0  0
 20  4  2  0  0  0  0
 21 22  2  0  0  0  0
 23  6  1  0  0  0  0
 24 12  1  0  0  0  0
 24 26  1  0  0  0  0
 25 12  1  0  0  0  0
 26 13  1  0  0  0  0
 26 10  1  0  0  0  0
 28 10  1  0  0  0  0
 28 16  1  0  0  0  0
M  END
>  <MODEL>
6

>  <REMARK>
 VINA RESULT:      -3.5     10.966     14.364
  Name = 
  0 active torsions:
  status: ('A' for Active; 'I' for Inactive)
                            x       y       z     vdW  Elec       q    Type
                         _______ _______ _______ _____ _____    ______ ____

>  <TORSDO>
F 0

$$$$
=
 OpenBabel11122414143D

 28 32  0  0  1  0  0  0  0  0999 V2000
  160.9610  209.0590  153.5890 C   0  0  0  0  0  0  0  0  0  0  0  0
  158.2760  210.8680  152.7520 O   0  0  0  0  0  1  0  0  0  0  0  0
  163.3590  211.8270  148.7870 C   0  0  0  0  0  2  0  0  0  0  0  0
  162.1910  210.1230  155.8750 C   0  0  0  0  0  3  0  0  0  0  0  0
  161.1170  212.6770  149.3790 C   0  0  2  0  0  3  0  0  0  0  0  0
  160.4180  208.3900  152.3720 C   0  0  0  0  0  2  0  0  0  0  0  0
  158.7900  211.7780  154.8780 C   0  0  0  0  0  1  0  0  0  0  0  0
  158.6770  212.0460  153.3900 C   0  0  1  0  0  0  0  0  0  0  0  0
  157.4520  213.4860  151.7460 C   0  0  1  0  0  3  0  0  0  0  0  0
  160.0510  212.5520  152.8440 C   0  0  2  0  0  3  0  0  0  0  0  0
  161.0080  207.0960  149.3830 O   0  0  0  0  0  0  0  0  0  0  0  0
  160.7020  210.9670  151.1060 C   0  0  1  0  0  3  0  0  0  0  0  0
  158.7340  214.1650  151.2980 C   0  0  0  0  0  2  0  0  0  0  0  0
  157.5860  213.0980  153.2090 C   0  0  0  0  0  2  0  0  0  0  0  0
  161.3790  208.0450  150.1210 C   0  0  0  0  0  0  0  0  0  0  0  0
  161.3210  210.4330  153.6210 C   0  0  0  0  0  0  0  0  0  0  0  0
  162.1860  211.6490  149.3910 C   0  0  0  0  0  0  0  0  0  0  0  0
  156.3400  214.4060  151.5900 N   0  0  0  0  0  1  0  0  0  0  0  0
  161.6040  209.3360  149.5470 N   0  0  0  0  0  2  0  0  0  0  0  0
  161.9420  210.9390  154.7710 C   0  0  0  0  0  3  0  0  0  0  0  0
  161.2180  208.2500  154.7040 C   0  0  0  0  0  3  0  0  0  0  0  0
  161.8230  208.7790  155.8440 C   0  0  0  0  0  3  0  0  0  0  0  0
  161.5720  207.8010  151.5780 C   0  0  0  0  0  2  0  0  0  0  0  0
  160.1040  212.1960  150.4070 C   0  0  1  0  0  3  0  0  0  0  0  0
  161.9330  210.5260  150.3240 C   0  0  2  0  0  3  0  0  0  0  0  0
  159.9500  213.2580  151.4880 C   0  0  2  0  0  3  0  0  0  0  0  0
  160.5160  212.7230  148.1200 O   0  0  0  0  0  1  0  0  0  0  0  0
  161.0510  211.4390  152.5160 C   0  0  2  0  0  3  0  0  0  0  0  0
  1 16  2  0  0  0  0
  1 21  1  0  0  0  0
  2  8  1  0  0  0  0
  3 17  2  0  0  0  0
  5 27  1  6  0  0  0
  5 17  1  0  0  0  0
  5 24  1  0  0  0  0
  6  1  1  0  0  0  0
  8  7  1  1  0  0  0
  9 18  1  1  0  0  0
  9 14  1  0  0  0  0
 10  8  1  0  0  0  0
 11 15  2  0  0  0  0
 12 28  1  0  0  0  0
 13 26  1  0  0  0  0
 13  9  1  0  0  0  0
 14  8  1  0  0  0  0
 15 23  1  0  0  0  0
 16 20  1  0  0  0  0
 17 25  1  0  0  0  0
 19 15  1  0  0  0  0
 19 25  1  0  0  0  0
 20  4  2  0  0  0  0
 21 22  2  0  0  0  0
 22  4  1  0  0  0  0
 23  6  1  0  0  0  0
 24 12  1  0  0  0  0
 24 26  1  0  0  0  0
 25 12  1  0  0  0  0
 26 10  1  0  0  0  0
 28 10  1  0  0  0  0
 28 16  1  0  0  0  0
M  END
>  <MODEL>
7

>  <REMARK>
 VINA RESULT:      -3.3      9.500     12.597
  Name = 
  0 active torsions:
  status: ('A' for Active; 'I' for Inactive)
                            x       y       z     vdW  Elec       q    Type
                         _______ _______ _______ _____ _____    ______ ____

>  <TORSDO>
F 0

$$$$
=
 OpenBabel11122414143D

 28 32  0  0  1  0  0  0  0  0999 V2000
  160.9570  209.8810  156.2170 C   0  0  0  0  0  0  0  0  0  0  0  0
  162.5000  210.4750  153.3100 O   0  0  0  0  0  1  0  0  0  0  0  0
  156.9360  213.7990  153.9920 C   0  0  0  0  0  2  0  0  0  0  0  0
  159.7610  207.3430  156.1960 C   0  0  0  0  0  3  0  0  0  0  0  0
  158.6910  213.1820  152.3680 C   0  0  2  0  0  3  0  0  0  0  0  0
  161.5360  211.2470  156.3670 C   0  0  0  0  0  2  0  0  0  0  0  0
  161.9860  208.1730  153.0880 C   0  0  0  0  0  1  0  0  0  0  0  0
  161.7510  209.5710  152.5490 C   0  0  1  0  0  0  0  0  0  0  0  0
  162.0110  210.9360  150.4650 C   0  0  1  0  0  3  0  0  0  0  0  0
  160.2260  209.9030  152.6050 C   0  0  2  0  0  3  0  0  0  0  0  0
  161.0840  214.4020  157.2610 O   0  0  0  0  0  0  0  0  0  0  0  0
  160.0290  211.8990  153.9940 C   0  0  1  0  0  3  0  0  0  0  0  0
  160.5120  211.1410  150.3440 C   0  0  0  0  0  2  0  0  0  0  0  0
  162.2720  209.5870  151.1150 C   0  0  0  0  0  2  0  0  0  0  0  0
  160.4720  213.4530  156.7070 C   0  0  0  0  0  0  0  0  0  0  0  0
  160.0740  209.5270  155.1620 C   0  0  0  0  0  0  0  0  0  0  0  0
  158.1550  213.3260  153.7430 C   0  0  0  0  0  0  0  0  0  0  0  0
  162.6090  210.9590  149.1420 N   0  0  0  0  0  1  0  0  0  0  0  0
  159.6530  213.7150  155.5650 N   0  0  0  0  0  2  0  0  0  0  0  0
  159.4810  208.2570  155.1790 C   0  0  0  0  0  3  0  0  0  0  0  0
  161.2280  208.9550  157.2330 C   0  0  0  0  0  3  0  0  0  0  0  0
  160.6400  207.6910  157.2210 C   0  0  0  0  0  3  0  0  0  0  0  0
  160.6200  212.0740  157.2540 C   0  0  0  0  0  2  0  0  0  0  0  0
  159.9550  212.3510  152.5300 C   0  0  1  0  0  3  0  0  0  0  0  0
  158.9860  212.6780  154.7860 C   0  0  2  0  0  3  0  0  0  0  0  0
  159.8210  211.0760  151.7060 C   0  0  2  0  0  3  0  0  0  0  0  0
  159.0210  214.4360  151.8530 O   0  0  0  0  0  1  0  0  0  0  0  0
  159.7340  210.4010  153.9670 C   0  0  2  0  0  3  0  0  0  0  0  0
  1  6  1  0  0  0  0
  1 21  1  0  0  0  0
  4 22  1  0  0  0  0
  5 27  1  1  0  0  0
  5 24  1  0  0  0  0
  5 17  1  0  0  0  0
  6 23  1  0  0  0  0
  8 10  1  0  0  0  0
  8  7  1  1  0  0  0
  8  2  1  0  0  0  0
  9 18  1  6  0  0  0
  9 14  1  0  0  0  0
 10 28  1  0  0  0  0
 12 25  1  0  0  0  0
 13  9  1  0  0  0  0
 13 26  1  0  0  0  0
 14  8  1  0  0  0  0
 15 23  1  0  0  0  0
 15 11  2  0  0  0  0
 16 20  1  0  0  0  0
 16  1  2  0  0  0  0
 17  3  2  0  0  0  0
 17 25  1  0  0  0  0
 19 15  1  0  0  0  0
 20  4  2  0  0  0  0
 22 21  2  0  0  0  0
 24 12  1  0  0  0  0
 25 19  1  0  0  0  0
 26 24  1  0  0  0  0
 26 10  1  0  0  0  0
 28 12  1  0  0  0  0
 28 16  1  0  0  0  0
M  END
>  <MODEL>
8

>  <REMARK>
 VINA RESULT:      -2.2     11.067     15.070
  Name = 
  0 active torsions:
  status: ('A' for Active; 'I' for Inactive)
                            x       y       z     vdW  Elec       q    Type
                         _______ _______ _______ _____ _____    ______ ____

>  <TORSDO>
F 0

$$$$
