=
 OpenBabel11122413263D

 31 35  0  0  1  0  0  0  0  0999 V2000
  162.2070  207.1180  137.9460 C   0  0  0  0  0  0  0  0  0  0  0  0
  161.6220  210.8730  137.9350 C   0  0  2  0  0  3  0  0  0  0  0  0
  160.1620  211.2710  137.8290 C   0  0  0  0  0  0  0  0  0  0  0  0
  157.8510  210.7490  137.3480 C   0  0  0  0  0  0  0  0  0  0  0  0
  161.8270  209.4640  138.4120 C   0  0  0  0  0  0  0  0  0  0  0  0
  162.2140  206.8470  139.3180 C   0  0  0  0  0  3  0  0  0  0  0  0
  159.1780  210.3370  137.4820 C   0  0  0  0  0  3  0  0  0  0  0  0
  162.2570  211.6250  140.3640 C   0  0  1  0  0  3  0  0  0  0  0  0
  162.3940  206.0630  137.0120 N   0  0  0  0  0  1  0  0  0  0  0  0
  160.7760  213.6090  138.3190 N   0  0  0  0  0  2  0  0  0  0  0  0
  156.8440  209.8020  137.0110 N   0  0  0  0  0  1  0  0  0  0  0  0
  161.5880  210.2960  140.7640 C   0  0  0  0  0  2  0  0  0  0  0  0
  162.4170  211.8480  138.8270 C   0  0  2  0  0  3  0  0  0  0  0  0
  162.0110  208.4260  137.4920 C   0  0  0  0  0  3  0  0  0  0  0  0
  157.5190  212.0540  137.5380 N   0  0  0  0  0  0  0  0  0  0  0  0
  161.8480  209.1930  139.7880 C   0  0  0  0  0  0  0  0  0  0  0  0
  162.0300  207.8830  140.2400 C   0  0  0  0  0  3  0  0  0  0  0  0
  162.2030  213.2910  138.3570 C   0  0  0  0  0  2  0  0  0  0  0  0
  159.7950  212.6210  137.9850 C   0  0  0  0  0  0  0  0  0  0  0  0
  158.4560  212.9890  137.8500 C   0  0  0  0  0  3  0  0  0  0  0  0
  162.6920  212.5780  143.0410 O   0  0  0  0  0  0  0  0  0  0  0  0
  161.7970  213.1400  142.3530 C   0  0  0  0  0  0  0  0  0  0  0  0
  161.5520  212.7270  141.0060 N   0  0  0  0  0  2  0  0  0  0  0  0
  158.9580  213.1390  144.7480 C   0  0  0  0  0  0  0  0  0  0  0  0
  161.1620  214.2820  144.4860 C   0  0  0  0  0  2  0  0  0  0  0  0
  159.1170  214.4370  141.4780 O   0  0  0  0  0  0  0  0  0  0  0  0
  157.9370  212.5800  145.6710 C   0  0  0  0  0  1  0  0  0  0  0  0
  160.3990  213.1510  145.1750 C   0  0  0  0  0  2  0  0  0  0  0  0
  159.5240  214.0870  142.6170 C   0  0  0  0  0  0  0  0  0  0  0  0
  160.9780  214.2330  142.9660 C   0  0  2  0  0  3  0  0  0  0  0  0
  158.5970  213.5400  143.5640 N   0  0  0  0  0  0  0  0  0  0  0  0
  1  6  1  0  0  0  0
  2  3  1  1  0  0  0
  2  5  1  0  0  0  0
  2 13  1  0  0  0  0
  3 19  1  0  0  0  0
  4  7  1  0  0  0  0
  4 15  2  0  0  0  0
  5 16  2  0  0  0  0
  6 17  2  0  0  0  0
  7  3  2  0  0  0  0
  8 12  1  0  0  0  0
  8 23  1  6  0  0  0
  9  1  1  0  0  0  0
 10 18  1  0  0  0  0
 11  4  1  0  0  0  0
 13 18  1  1  0  0  0
 13  8  1  0  0  0  0
 14  1  2  0  0  0  0
 14  5  1  0  0  0  0
 15 20  1  0  0  0  0
 16 17  1  0  0  0  0
 16 12  1  0  0  0  0
 19 10  1  0  0  0  0
 20 19  2  0  0  0  0
 22 21  2  0  0  0  0
 23 22  1  0  0  0  0
 24 28  1  0  0  0  0
 24 27  1  0  0  0  0
 25 28  1  0  0  0  0
 26 29  2  0  0  0  0
 29 30  1  0  0  0  0
 29 31  1  0  0  0  0
 30 22  1  1  0  0  0
 30 25  1  0  0  0  0
 31 24  2  0  0  0  0
M  END
>  <MODEL>
1

>  <REMARK>
 VINA RESULT:      -5.3      0.000      0.000
  Name = 
  2 active torsions:
  status: ('A' for Active; 'I' for Inactive)
    1  A    between atoms: C_5  and  C_30
    2  A    between atoms: C_10  and  N_16
                            x       y       z     vdW  Elec       q    Type
                         _______ _______ _______ _____ _____    ______ ____

>  <TORSDO>
F 2

$$$$
=
 OpenBabel11122413263D

 31 35  0  0  1  0  0  0  0  0999 V2000
  161.1770  201.2350  148.6560 C   0  0  0  0  0  0  0  0  0  0  0  0
  162.2680  204.7150  149.7250 C   0  0  2  0  0  3  0  0  0  0  0  0
  161.7400  205.8280  148.8400 C   0  0  0  0  0  0  0  0  0  0  0  0
  160.7190  206.6040  146.7900 C   0  0  0  0  0  0  0  0  0  0  0  0
  161.4860  203.4370  149.6150 C   0  0  0  0  0  0  0  0  0  0  0  0
  160.0230  201.0620  149.4270 C   0  0  0  0  0  3  0  0  0  0  0  0
  161.1520  205.5520  147.5990 C   0  0  0  0  0  3  0  0  0  0  0  0
  161.0000  205.1150  151.9840 C   0  0  1  0  0  3  0  0  0  0  0  0
  161.6060  200.2040  147.7760 N   0  0  0  0  0  1  0  0  0  0  0  0
  162.5420  207.4920  150.4730 N   0  0  0  0  0  2  0  0  0  0  0  0
  160.1080  206.3290  145.5350 N   0  0  0  0  0  1  0  0  0  0  0  0
  159.8550  204.3700  151.2740 C   0  0  0  0  0  2  0  0  0  0  0  0
  162.3510  205.1500  151.2020 C   0  0  2  0  0  3  0  0  0  0  0  0
  161.9090  202.4240  148.7480 C   0  0  0  0  0  3  0  0  0  0  0  0
  160.8830  207.8900  147.1990 N   0  0  0  0  0  0  0  0  0  0  0  0
  160.3360  203.2580  150.3970 C   0  0  0  0  0  0  0  0  0  0  0  0
  159.5980  202.0750  150.2930 C   0  0  0  0  0  3  0  0  0  0  0  0
  163.1350  206.4620  151.3250 C   0  0  0  0  0  2  0  0  0  0  0  0
  161.9270  207.1700  149.2220 C   0  0  0  0  0  0  0  0  0  0  0  0
  161.4720  208.1910  148.3860 C   0  0  0  0  0  3  0  0  0  0  0  0
  161.6180  206.4970  154.4280 O   0  0  0  0  0  0  0  0  0  0  0  0
  160.8680  207.0760  153.5970 C   0  0  0  0  0  0  0  0  0  0  0  0
  160.5460  206.4500  152.3520 N   0  0  0  0  0  2  0  0  0  0  0  0
  162.2730  210.0670  155.2930 C   0  0  0  0  0  0  0  0  0  0  0  0
  161.0380  209.5370  153.1890 C   0  0  0  0  0  2  0  0  0  0  0  0
  159.4590  208.1320  156.1520 O   0  0  0  0  0  0  0  0  0  0  0  0
  163.2860  210.9140  155.9740 C   0  0  0  0  0  1  0  0  0  0  0  0
  162.4040  209.8170  153.8170 C   0  0  0  0  0  2  0  0  0  0  0  0
  160.3250  208.6690  155.4140 C   0  0  0  0  0  0  0  0  0  0  0  0
  160.3010  208.4190  153.9320 C   0  0  2  0  0  3  0  0  0  0  0  0
  161.3370  209.5020  155.9970 N   0  0  0  0  0  0  0  0  0  0  0  0
  1 14  2  0  0  0  0
  1  6  1  0  0  0  0
  2  3  1  6  0  0  0
  2 13  1  0  0  0  0
  3 19  1  0  0  0  0
  4 15  2  0  0  0  0
  4  7  1  0  0  0  0
  5  2  1  0  0  0  0
  5 16  2  0  0  0  0
  6 17  2  0  0  0  0
  7  3  2  0  0  0  0
  8 23  1  6  0  0  0
  9  1  1  0  0  0  0
 10 18  1  0  0  0  0
 11  4  1  0  0  0  0
 12  8  1  0  0  0  0
 13 18  1  6  0  0  0
 13  8  1  0  0  0  0
 14  5  1  0  0  0  0
 15 20  1  0  0  0  0
 16 12  1  0  0  0  0
 17 16  1  0  0  0  0
 19 10  1  0  0  0  0
 20 19  2  0  0  0  0
 22 21  2  0  0  0  0
 23 22  1  0  0  0  0
 24 27  1  0  0  0  0
 24 31  2  0  0  0  0
 25 28  1  0  0  0  0
 25 30  1  0  0  0  0
 28 24  1  0  0  0  0
 29 31  1  0  0  0  0
 29 26  2  0  0  0  0
 30 22  1  1  0  0  0
 30 29  1  0  0  0  0
M  END
>  <MODEL>
2

>  <REMARK>
 VINA RESULT:      -3.8     10.207     12.472
  Name = 
  2 active torsions:
  status: ('A' for Active; 'I' for Inactive)
    1  A    between atoms: C_5  and  C_30
    2  A    between atoms: C_10  and  N_16
                            x       y       z     vdW  Elec       q    Type
                         _______ _______ _______ _____ _____    ______ ____

>  <TORSDO>
F 2

$$$$
=
 OpenBabel11122413263D

 31 35  0  0  1  0  0  0  0  0999 V2000
  162.6850  213.5980  147.1920 C   0  0  0  0  0  0  0  0  0  0  0  0
  160.0370  214.1480  149.8610 C   0  0  2  0  0  3  0  0  0  0  0  0
  158.6290  213.8020  149.4160 C   0  0  0  0  0  0  0  0  0  0  0  0
  157.0120  213.3090  147.6870 C   0  0  0  0  0  0  0  0  0  0  0  0
  161.1060  213.5050  149.0260 C   0  0  0  0  0  0  0  0  0  0  0  0
  163.1010  212.2950  147.4840 C   0  0  0  0  0  3  0  0  0  0  0  0
  158.3280  213.5800  148.0660 C   0  0  0  0  0  3  0  0  0  0  0  0
  160.5500  212.3090  151.6570 C   0  0  1  0  0  3  0  0  0  0  0  0
  163.2750  214.3070  146.1100 N   0  0  0  0  0  1  0  0  0  0  0  0
  157.8470  214.0400  151.7430 N   0  0  0  0  0  2  0  0  0  0  0  0
  156.7020  213.0670  146.3200 N   0  0  0  0  0  1  0  0  0  0  0  0
  160.8660  211.4400  150.4260 C   0  0  0  0  0  2  0  0  0  0  0  0
  160.2650  213.8130  151.3490 C   0  0  2  0  0  3  0  0  0  0  0  0
  161.6860  214.2030  147.9610 C   0  0  0  0  0  3  0  0  0  0  0  0
  156.0250  213.2770  148.6230 N   0  0  0  0  0  0  0  0  0  0  0  0
  161.5330  212.2040  149.3260 C   0  0  0  0  0  0  0  0  0  0  0  0
  162.5220  211.5950  148.5480 C   0  0  0  0  0  3  0  0  0  0  0  0
  159.1690  214.4530  152.2100 C   0  0  0  0  0  2  0  0  0  0  0  0
  157.5820  213.7970  150.3570 C   0  0  0  0  0  0  0  0  0  0  0  0
  156.2820  213.5140  149.9370 C   0  0  0  0  0  3  0  0  0  0  0  0
  160.4400  212.0140  154.5150 O   0  0  0  0  0  0  0  0  0  0  0  0
  159.4820  211.5520  153.8370 C   0  0  0  0  0  0  0  0  0  0  0  0
  159.4690  211.6910  152.4140 N   0  0  0  0  0  2  0  0  0  0  0  0
  156.9540  212.6300  156.3360 C   0  0  0  0  0  0  0  0  0  0  0  0
  157.0050  211.4220  154.1510 C   0  0  0  0  0  2  0  0  0  0  0  0
  159.3740  210.0820  156.5680 O   0  0  0  0  0  0  0  0  0  0  0  0
  156.2220  213.5500  157.2430 C   0  0  0  0  0  1  0  0  0  0  0  0
  156.7560  212.7580  154.8510 C   0  0  0  0  0  2  0  0  0  0  0  0
  158.5500  210.8630  156.0250 C   0  0  0  0  0  0  0  0  0  0  0  0
  158.3680  210.8370  154.5340 C   0  0  2  0  0  3  0  0  0  0  0  0
  157.8040  211.7810  156.8360 N   0  0  0  0  0  0  0  0  0  0  0  0
  1  6  2  0  0  0  0
  1 14  1  0  0  0  0
  2  5  1  6  0  0  0
  2 13  1  0  0  0  0
  3  2  1  0  0  0  0
  3 19  1  0  0  0  0
  4  7  1  0  0  0  0
  4 15  2  0  0  0  0
  5 16  1  0  0  0  0
  6 17  1  0  0  0  0
  7  3  2  0  0  0  0
  8 23  1  6  0  0  0
  9  1  1  0  0  0  0
 10 18  1  0  0  0  0
 11  4  1  0  0  0  0
 12  8  1  0  0  0  0
 13  8  1  0  0  0  0
 13 18  1  1  0  0  0
 14  5  2  0  0  0  0
 15 20  1  0  0  0  0
 16 12  1  0  0  0  0
 17 16  2  0  0  0  0
 19 10  1  0  0  0  0
 20 19  2  0  0  0  0
 22 21  2  0  0  0  0
 23 22  1  0  0  0  0
 24 31  2  0  0  0  0
 24 27  1  0  0  0  0
 25 30  1  0  0  0  0
 25 28  1  0  0  0  0
 28 24  1  0  0  0  0
 29 26  2  0  0  0  0
 29 31  1  0  0  0  0
 30 22  1  6  0  0  0
 30 29  1  0  0  0  0
M  END
>  <MODEL>
3

>  <REMARK>
 VINA RESULT:      -3.0      8.623     11.873
  Name = 
  2 active torsions:
  status: ('A' for Active; 'I' for Inactive)
    1  A    between atoms: C_5  and  C_30
    2  A    between atoms: C_10  and  N_16
                            x       y       z     vdW  Elec       q    Type
                         _______ _______ _______ _____ _____    ______ ____

>  <TORSDO>
F 2

$$$$
=
 OpenBabel11122413263D

 31 35  0  0  1  0  0  0  0  0999 V2000
  162.0710  205.9550  146.5050 C   0  0  0  0  0  0  0  0  0  0  0  0
  162.6080  208.1620  149.5510 C   0  0  2  0  0  3  0  0  0  0  0  0
  162.0190  209.5530  149.4180 C   0  0  0  0  0  0  0  0  0  0  0  0
  161.0870  211.3440  148.0870 C   0  0  0  0  0  0  0  0  0  0  0  0
  162.0110  207.1630  148.6030 C   0  0  0  0  0  0  0  0  0  0  0  0
  160.8870  205.2950  146.8500 C   0  0  0  0  0  3  0  0  0  0  0  0
  161.5810  210.0420  148.1810 C   0  0  0  0  0  3  0  0  0  0  0  0
  161.1120  207.0680  151.4030 C   0  0  1  0  0  3  0  0  0  0  0  0
  162.7030  205.6760  145.2620 N   0  0  0  0  0  1  0  0  0  0  0  0
  162.4570  209.9550  151.8120 N   0  0  0  0  0  2  0  0  0  0  0  0
  160.6260  211.8400  146.8360 N   0  0  0  0  0  1  0  0  0  0  0  0
  160.1370  206.8350  150.2340 C   0  0  0  0  0  2  0  0  0  0  0  0
  162.5080  207.6340  150.9970 C   0  0  2  0  0  3  0  0  0  0  0  0
  162.6330  206.8900  147.3800 C   0  0  0  0  0  3  0  0  0  0  0  0
  161.0470  212.1390  149.1900 N   0  0  0  0  0  0  0  0  0  0  0  0
  160.8300  206.4930  148.9540 C   0  0  0  0  0  0  0  0  0  0  0  0
  160.2630  205.5670  148.0730 C   0  0  0  0  0  3  0  0  0  0  0  0
  163.1040  208.6540  151.9750 C   0  0  0  0  0  2  0  0  0  0  0  0
  161.9980  210.4100  150.5350 C   0  0  0  0  0  0  0  0  0  0  0  0
  161.4890  211.7030  150.3990 C   0  0  0  0  0  3  0  0  0  0  0  0
  161.3710  206.7790  154.2520 O   0  0  0  0  0  0  0  0  0  0  0  0
  160.6090  207.6850  153.8190 C   0  0  0  0  0  0  0  0  0  0  0  0
  160.4590  207.8940  152.4120 N   0  0  0  0  0  2  0  0  0  0  0  0
  161.6520  210.1090  156.4320 C   0  0  0  0  0  0  0  0  0  0  0  0
  160.0550  210.0220  154.5160 C   0  0  0  0  0  2  0  0  0  0  0  0
  159.7430  207.1670  156.7530 O   0  0  0  0  0  0  0  0  0  0  0  0
  162.5750  210.9280  157.2600 C   0  0  0  0  0  1  0  0  0  0  0  0
  161.4290  210.4890  154.9960 C   0  0  0  0  0  2  0  0  0  0  0  0
  160.2150  208.1990  156.2090 C   0  0  0  0  0  0  0  0  0  0  0  0
  159.8460  208.5290  154.7900 C   0  0  2  0  0  3  0  0  0  0  0  0
  161.1130  209.0420  156.9440 N   0  0  0  0  0  0  0  0  0  0  0  0
  1  6  2  0  0  0  0
  1 14  1  0  0  0  0
  2  5  1  6  0  0  0
  2 13  1  0  0  0  0
  3  2  1  0  0  0  0
  3 19  1  0  0  0  0
  4  7  1  0  0  0  0
  4 15  2  0  0  0  0
  5 16  1  0  0  0  0
  6 17  1  0  0  0  0
  7  3  2  0  0  0  0
  8 23  1  1  0  0  0
  9  1  1  0  0  0  0
 10 18  1  0  0  0  0
 11  4  1  0  0  0  0
 12  8  1  0  0  0  0
 13  8  1  0  0  0  0
 13 18  1  1  0  0  0
 14  5  2  0  0  0  0
 15 20  1  0  0  0  0
 16 12  1  0  0  0  0
 17 16  2  0  0  0  0
 19 10  1  0  0  0  0
 20 19  2  0  0  0  0
 22 21  2  0  0  0  0
 23 22  1  0  0  0  0
 24 31  2  0  0  0  0
 24 27  1  0  0  0  0
 25 30  1  0  0  0  0
 25 28  1  0  0  0  0
 28 24  1  0  0  0  0
 29 26  2  0  0  0  0
 29 31  1  0  0  0  0
 30 22  1  6  0  0  0
 30 29  1  0  0  0  0
M  END
>  <MODEL>
4

>  <REMARK>
 VINA RESULT:      -2.9      9.011     11.947
  Name = 
  2 active torsions:
  status: ('A' for Active; 'I' for Inactive)
    1  A    between atoms: C_5  and  C_30
    2  A    between atoms: C_10  and  N_16
                            x       y       z     vdW  Elec       q    Type
                         _______ _______ _______ _____ _____    ______ ____

>  <TORSDO>
F 2

$$$$
