=
 OpenBabel11122413323D

 37 44  0  0  1  0  0  0  0  0999 V2000
  161.2840  203.2070  149.5020 C   0  0  0  0  0  2  0  0  0  0  0  0
  161.0510  206.2830  145.9540 C   0  0  0  0  0  0  0  0  0  0  0  0
  161.6950  207.8470  149.8280 C   0  0  0  0  0  0  0  0  0  0  0  0
  160.5410  201.8790  149.5260 C   0  0  2  0  0  3  0  0  0  0  0  0
  161.8750  205.6210  152.8930 C   0  0  0  0  0  2  0  0  0  0  0  0
  161.5150  208.2410  147.4400 C   0  0  0  0  0  0  0  0  0  0  0  0
  161.3960  206.8210  150.6190 C   0  0  1  0  0  3  0  0  0  0  0  0
  161.1720  201.8900  152.0210 C   0  0  2  0  0  3  0  0  0  0  0  0
  161.4670  207.4480  148.4820 C   0  0  0  0  0  0  0  0  0  0  0  0
  161.4260  206.8600  152.1230 C   0  0  0  0  0  0  0  0  0  0  0  0
  161.8910  209.6550  147.6640 C   0  0  0  0  0  3  0  0  0  0  0  0
  160.1880  201.4270  150.9440 C   0  0  0  0  0  2  0  0  0  0  0  0
  161.0110  206.1080  148.4550 C   0  0  0  0  0  0  0  0  0  0  0  0
  162.4150  205.7250  145.5920 C   0  0  0  0  0  1  0  0  0  0  0  0
  161.0180  209.8190  151.0780 C   0  0  0  0  0  3  0  0  0  0  0  0
  162.1490  210.1150  148.9130 C   0  0  0  0  0  3  0  0  0  0  0  0
  160.5000  205.5030  147.1830 C   0  0  0  0  0  2  0  0  0  0  0  0
  160.9050  203.2960  152.5940 C   0  0  1  0  0  3  0  0  0  0  0  0
  161.7580  204.3540  152.0750 C   0  0  1  0  0  3  0  0  0  0  0  0
  162.0600  209.2540  150.1750 C   0  0  0  0  0  0  0  0  0  0  0  0
  160.9550  205.6850  149.7210 C   0  0  0  0  0  0  0  0  0  0  0  0
  161.1720  207.7090  146.1860 O   0  0  0  0  0  0  0  0  0  0  0  0
  161.0890  207.9780  152.8300 C   0  0  0  0  0  0  0  0  0  0  0  0
  160.1200  206.0560  144.7820 C   0  0  0  0  0  1  0  0  0  0  0  0
  160.3480  204.2890  151.6310 N   0  0  1  0  0  0  0  0  0  0  0  0
  162.5100  201.6720  151.6770 O   0  0  0  0  0  1  0  0  0  0  0  0
  160.4630  204.3210  150.1570 C   0  0  2  0  0  3  0  0  0  0  0  0
  160.6330  209.2610  152.2280 C   0  0  0  0  0  3  0  0  0  0  0  0
  160.2210  206.9910  154.9530 C   0  0  0  0  0  3  0  0  0  0  0  0
  161.0130  207.9550  154.3100 C   0  0  0  0  0  0  0  0  0  0  0  0
  161.7700  208.8460  155.0880 C   0  0  0  0  0  3  0  0  0  0  0  0
  162.4790  209.7040  157.2610 N   0  0  0  0  0  1  0  0  0  0  0  0
  160.9130  207.8370  157.1140 C   0  0  0  0  0  3  0  0  0  0  0  0
  161.7140  208.7920  156.4830 C   0  0  0  0  0  0  0  0  0  0  0  0
  160.1670  206.9360  156.3480 C   0  0  0  0  0  3  0  0  0  0  0  0
  161.1150  200.8170  147.4650 O   0  0  0  0  0  1  0  0  0  0  0  0
  161.3690  200.8070  148.8380 C   0  0  0  0  0  2  0  0  0  0  0  0
  1  4  1  0  0  0  0
  1 27  1  0  0  0  0
  2 22  1  0  0  0  0
  2 17  1  0  0  0  0
  3 20  1  0  0  0  0
  3  7  1  0  0  0  0
  4 37  1  1  0  0  0
  4 12  1  0  0  0  0
  6 11  2  0  0  0  0
  6  9  1  0  0  0  0
  7 21  1  1  0  0  0
  7 10  1  0  0  0  0
  8 26  1  6  0  0  0
  8 18  1  0  0  0  0
  9  3  2  0  0  0  0
 10 23  2  0  0  0  0
 10  5  1  0  0  0  0
 11 16  1  0  0  0  0
 12  8  1  0  0  0  0
 13  9  1  0  0  0  0
 13 21  2  0  0  0  0
 14  2  1  0  0  0  0
 15 28  2  0  0  0  0
 16 20  2  0  0  0  0
 17 13  1  0  0  0  0
 19 18  1  0  0  0  0
 19  5  1  0  0  0  0
 20 15  1  0  0  0  0
 21 27  1  0  0  0  0
 22  6  1  0  0  0  0
 23 30  1  0  0  0  0
 24  2  1  0  0  0  0
 25 19  1  0  0  0  0
 25 18  1  0  0  0  0
 27 25  1  0  0  0  0
 28 23  1  0  0  0  0
 29 35  1  0  0  0  0
 30 29  2  0  0  0  0
 30 31  1  0  0  0  0
 31 34  2  0  0  0  0
 34 33  1  0  0  0  0
 34 32  1  0  0  0  0
 35 33  2  0  0  0  0
 36 37  1  0  0  0  0
M  END
>  <MODEL>
1

>  <REMARK>
 VINA RESULT:      -6.2      0.000      0.000
  Name = 
  2 active torsions:
  status: ('A' for Active; 'I' for Inactive)
    1  A    between atoms: C_4  and  C_37
    2  A    between atoms: C_23  and  C_30
                            x       y       z     vdW  Elec       q    Type
                         _______ _______ _______ _____ _____    ______ ____

>  <TORSDO>
F 2

$$$$
=
 OpenBabel11122413323D

 37 44  0  0  1  0  0  0  0  0999 V2000
  161.0880  204.1570  147.2820 C   0  0  0  0  0  2  0  0  0  0  0  0
  161.3320  202.8620  151.7960 C   0  0  0  0  0  0  0  0  0  0  0  0
  161.0870  207.0030  150.9830 C   0  0  0  0  0  0  0  0  0  0  0  0
  161.7180  203.3750  146.1380 C   0  0  2  0  0  3  0  0  0  0  0  0
  160.9340  208.3560  147.4440 C   0  0  0  0  0  2  0  0  0  0  0  0
  161.1350  205.2140  152.6230 C   0  0  0  0  0  0  0  0  0  0  0  0
  161.3540  207.0700  149.6830 C   0  0  0  0  0  0  0  0  0  0  0  0
  161.2640  205.5210  144.7920 C   0  0  2  0  0  3  0  0  0  0  0  0
  161.1890  205.6440  151.3860 C   0  0  0  0  0  0  0  0  0  0  0  0
  161.4300  208.3450  148.8870 C   0  0  0  0  0  0  0  0  0  0  0  0
  160.8940  206.2120  153.6900 C   0  0  0  0  0  3  0  0  0  0  0  0
  162.1300  204.2710  144.9690 C   0  0  0  0  0  2  0  0  0  0  0  0
  161.5280  204.8420  150.2690 C   0  0  0  0  0  0  0  0  0  0  0  0
  159.9040  202.3980  151.5720 C   0  0  0  0  0  1  0  0  0  0  0  0
  162.0100  209.0500  151.9170 C   0  0  0  0  0  3  0  0  0  0  0  0
  160.7620  207.5280  153.3930 C   0  0  0  0  0  3  0  0  0  0  0  0
  161.8990  203.4020  150.4500 C   0  0  0  0  0  2  0  0  0  0  0  0
  161.6850  206.7370  145.6400 C   0  0  1  0  0  3  0  0  0  0  0  0
  160.8900  206.9710  146.8350 C   0  0  1  0  0  3  0  0  0  0  0  0
  160.8650  208.0980  151.9760 C   0  0  2  0  0  3  0  0  0  0  0  0
  161.6370  205.6580  149.2180 C   0  0  0  0  0  0  0  0  0  0  0  0
  161.3460  203.8460  152.8600 O   0  0  0  0  0  0  0  0  0  0  0  0
  161.9080  209.5090  149.4190 C   0  0  0  0  0  0  0  0  0  0  0  0
  162.1570  201.6680  152.2230 C   0  0  0  0  0  1  0  0  0  0  0  0
  162.2560  206.4210  146.9810 N   0  0  1  0  0  0  0  0  0  0  0  0
  159.8910  205.2530  144.8420 O   0  0  0  0  0  1  0  0  0  0  0  0
  162.0430  205.2250  147.8240 C   0  0  2  0  0  3  0  0  0  0  0  0
  162.4260  209.6620  150.8060 C   0  0  0  0  0  3  0  0  0  0  0  0
  163.3700  211.2350  148.3630 C   0  0  0  0  0  3  0  0  0  0  0  0
  162.0830  210.7190  148.5810 C   0  0  0  0  0  0  0  0  0  0  0  0
  160.9870  211.3270  147.9490 C   0  0  0  0  0  3  0  0  0  0  0  0
  160.0520  213.0600  146.5050 N   0  0  0  0  0  1  0  0  0  0  0  0
  162.4540  212.9620  146.9330 C   0  0  0  0  0  3  0  0  0  0  0  0
  161.1700  212.4470  147.1340 C   0  0  0  0  0  0  0  0  0  0  0  0
  163.5540  212.3540  147.5460 C   0  0  0  0  0  3  0  0  0  0  0  0
  160.8130  201.1950  146.4970 O   0  0  0  0  0  1  0  0  0  0  0  0
  160.7590  202.3030  145.6510 C   0  0  0  0  0  2  0  0  0  0  0  0
  1 27  1  0  0  0  0
  2 24  1  0  0  0  0
  2 22  1  0  0  0  0
  3  9  1  0  0  0  0
  3 20  1  0  0  0  0
  4 37  1  6  0  0  0
  4  1  1  0  0  0  0
  5 10  1  0  0  0  0
  6 22  1  0  0  0  0
  6 11  1  0  0  0  0
  7  3  2  0  0  0  0
  8 26  1  1  0  0  0
  8 12  1  0  0  0  0
  8 18  1  0  0  0  0
  9  6  2  0  0  0  0
 10 23  2  0  0  0  0
 10  7  1  0  0  0  0
 12  4  1  0  0  0  0
 13 17  1  0  0  0  0
 13  9  1  0  0  0  0
 14  2  1  0  0  0  0
 15 20  1  0  0  0  0
 16 11  2  0  0  0  0
 17  2  1  0  0  0  0
 18 19  1  0  0  0  0
 18 25  1  0  0  0  0
 19 25  1  0  0  0  0
 19  5  1  0  0  0  0
 20 16  1  0  0  0  0
 21  7  1  0  0  0  0
 21 13  2  0  0  0  0
 23 28  1  0  0  0  0
 25 27  1  0  0  0  0
 27 21  1  0  0  0  0
 28 15  2  0  0  0  0
 29 30  1  0  0  0  0
 30 23  1  0  0  0  0
 31 30  2  0  0  0  0
 32 34  1  0  0  0  0
 33 34  2  0  0  0  0
 33 35  1  0  0  0  0
 34 31  1  0  0  0  0
 35 29  2  0  0  0  0
 37 36  1  0  0  0  0
M  END
>  <MODEL>
2

>  <REMARK>
 VINA RESULT:      -5.1      2.598      6.308
  Name = 
  2 active torsions:
  status: ('A' for Active; 'I' for Inactive)
    1  A    between atoms: C_4  and  C_37
    2  A    between atoms: C_23  and  C_30
                            x       y       z     vdW  Elec       q    Type
                         _______ _______ _______ _____ _____    ______ ____

>  <TORSDO>
F 2

$$$$
=
 OpenBabel11122413323D

 37 44  0  0  1  0  0  0  0  0999 V2000
  161.2150  207.3740  153.9150 C   0  0  0  0  0  2  0  0  0  0  0  0
  160.7690  203.4490  151.3640 C   0  0  0  0  0  0  0  0  0  0  0  0
  161.9890  206.9480  149.3310 C   0  0  0  0  0  0  0  0  0  0  0  0
  160.3890  207.6800  155.1560 C   0  0  2  0  0  3  0  0  0  0  0  0
  162.3840  210.2760  151.1060 C   0  0  0  0  0  2  0  0  0  0  0  0
  161.5470  204.5630  149.2640 C   0  0  0  0  0  0  0  0  0  0  0  0
  161.7170  207.9130  150.2040 C   0  0  1  0  0  3  0  0  0  0  0  0
  161.3180  210.0590  154.8470 C   0  0  2  0  0  3  0  0  0  0  0  0
  161.5710  205.7110  149.8940 C   0  0  0  0  0  0  0  0  0  0  0  0
  161.9330  209.3810  149.9550 C   0  0  0  0  0  0  0  0  0  0  0  0
  162.0480  204.5280  147.8710 C   0  0  0  0  0  3  0  0  0  0  0  0
  160.1790  209.1790  155.3700 C   0  0  0  0  0  2  0  0  0  0  0  0
  161.0220  205.9370  151.1790 C   0  0  0  0  0  0  0  0  0  0  0  0
  162.0360  203.0280  152.0860 C   0  0  0  0  0  1  0  0  0  0  0  0
  161.6110  207.9530  147.1500 C   0  0  0  0  0  3  0  0  0  0  0  0
  162.4870  205.6570  147.2630 C   0  0  0  0  0  3  0  0  0  0  0  0
  160.3180  204.8350  151.9110 C   0  0  0  0  0  2  0  0  0  0  0  0
  161.2230  210.4390  153.3570 C   0  0  1  0  0  3  0  0  0  0  0  0
  162.0780  209.6750  152.4610 C   0  0  1  0  0  3  0  0  0  0  0  0
  162.4920  207.0370  147.9260 C   0  0  0  0  0  0  0  0  0  0  0  0
  161.0910  207.2510  151.4120 C   0  0  0  0  0  0  0  0  0  0  0  0
  161.0170  203.4490  149.9360 O   0  0  0  0  0  0  0  0  0  0  0  0
  161.7640  209.9450  148.7220 C   0  0  0  0  0  0  0  0  0  0  0  0
  159.6890  202.4350  151.6730 C   0  0  0  0  0  1  0  0  0  0  0  0
  160.6240  209.4050  152.4650 N   0  0  1  0  0  0  0  0  0  0  0  0
  162.5850  209.6060  155.2290 O   0  0  0  0  0  1  0  0  0  0  0  0
  160.5600  207.9390  152.6520 C   0  0  2  0  0  3  0  0  0  0  0  0
  161.3300  209.2100  147.5020 C   0  0  0  0  0  3  0  0  0  0  0  0
  163.0880  211.9770  148.1320 C   0  0  0  0  0  3  0  0  0  0  0  0
  161.8670  211.4110  148.5290 C   0  0  0  0  0  0  0  0  0  0  0  0
  160.7440  212.2410  148.6770 C   0  0  0  0  0  3  0  0  0  0  0  0
  159.7070  214.4500  148.6190 N   0  0  0  0  0  1  0  0  0  0  0  0
  162.0710  214.1740  148.0760 C   0  0  0  0  0  3  0  0  0  0  0  0
  160.8480  213.6170  148.4590 C   0  0  0  0  0  0  0  0  0  0  0  0
  163.1910  213.3530  147.9110 C   0  0  0  0  0  3  0  0  0  0  0  0
  160.0750  206.5910  157.2590 O   0  0  0  0  0  1  0  0  0  0  0  0
  161.0480  207.0740  156.3830 C   0  0  0  0  0  2  0  0  0  0  0  0
  1  4  1  0  0  0  0
  2 24  1  0  0  0  0
  2 17  1  0  0  0  0
  2 14  1  0  0  0  0
  3  9  2  0  0  0  0
  4 12  1  0  0  0  0
  4 37  1  1  0  0  0
  5 19  1  0  0  0  0
  6  9  1  0  0  0  0
  6 22  1  0  0  0  0
  7  3  1  6  0  0  0
  7 21  1  0  0  0  0
  8 26  1  6  0  0  0
  8 12  1  0  0  0  0
  9 13  1  0  0  0  0
 10  7  1  0  0  0  0
 10  5  1  0  0  0  0
 11  6  2  0  0  0  0
 13 21  2  0  0  0  0
 13 17  1  0  0  0  0
 15 28  2  0  0  0  0
 15 20  1  0  0  0  0
 16 11  1  0  0  0  0
 16 20  2  0  0  0  0
 18  8  1  0  0  0  0
 19 25  1  0  0  0  0
 19 18  1  0  0  0  0
 20  3  1  0  0  0  0
 21 27  1  0  0  0  0
 22  2  1  0  0  0  0
 23 10  2  0  0  0  0
 25 27  1  0  0  0  0
 25 18  1  0  0  0  0
 27  1  1  0  0  0  0
 28 23  1  0  0  0  0
 29 30  1  0  0  0  0
 30 31  2  0  0  0  0
 30 23  1  0  0  0  0
 33 34  2  0  0  0  0
 34 32  1  0  0  0  0
 34 31  1  0  0  0  0
 35 33  1  0  0  0  0
 35 29  2  0  0  0  0
 37 36  1  0  0  0  0
M  END
>  <MODEL>
3

>  <REMARK>
 VINA RESULT:      -5.1      3.162      6.782
  Name = 
  2 active torsions:
  status: ('A' for Active; 'I' for Inactive)
    1  A    between atoms: C_4  and  C_37
    2  A    between atoms: C_23  and  C_30
                            x       y       z     vdW  Elec       q    Type
                         _______ _______ _______ _____ _____    ______ ____

>  <TORSDO>
F 2

$$$$
=
 OpenBabel11122413323D

 37 44  0  0  1  0  0  0  0  0999 V2000
  161.3310  207.8190  151.7940 C   0  0  0  0  0  2  0  0  0  0  0  0
  160.0900  210.6000  155.3760 C   0  0  0  0  0  0  0  0  0  0  0  0
  160.0410  212.2970  151.5050 C   0  0  0  0  0  0  0  0  0  0  0  0
  162.3210  206.6690  151.9140 C   0  0  2  0  0  3  0  0  0  0  0  0
  161.0420  210.3200  148.4270 C   0  0  0  0  0  2  0  0  0  0  0  0
  159.5800  212.5350  153.8760 C   0  0  0  0  0  0  0  0  0  0  0  0
  160.7220  211.4140  150.7820 C   0  0  0  0  0  0  0  0  0  0  0  0
  162.2940  206.7460  149.3410 C   0  0  2  0  0  3  0  0  0  0  0  0
  160.0320  211.8500  152.8550 C   0  0  0  0  0  0  0  0  0  0  0  0
  161.0310  211.5610  149.3170 C   0  0  0  0  0  0  0  0  0  0  0  0
  158.9770  213.8600  153.6060 C   0  0  0  0  0  3  0  0  0  0  0  0
  163.0780  206.4060  150.6110 C   0  0  0  0  0  2  0  0  0  0  0  0
  160.7400  210.6280  152.9540 C   0  0  0  0  0  0  0  0  0  0  0  0
  158.8280  209.7570  155.3830 C   0  0  0  0  0  1  0  0  0  0  0  0
  160.5580  214.4530  150.5080 C   0  0  0  0  0  3  0  0  0  0  0  0
  158.9230  214.3540  152.3450 C   0  0  0  0  0  3  0  0  0  0  0  0
  161.0600  210.0410  154.2950 C   0  0  0  0  0  2  0  0  0  0  0  0
  162.3830  208.2160  148.8880 C   0  0  1  0  0  3  0  0  0  0  0  0
  161.2320  209.0430  149.2150 C   0  0  1  0  0  3  0  0  0  0  0  0
  159.4780  213.6260  151.1180 C   0  0  2  0  0  3  0  0  0  0  0  0
  161.1740  210.3230  151.7290 C   0  0  0  0  0  0  0  0  0  0  0  0
  159.7290  211.9870  155.1600 O   0  0  0  0  0  0  0  0  0  0  0  0
  161.2800  212.7740  148.7410 C   0  0  0  0  0  0  0  0  0  0  0  0
  160.7520  210.4730  156.7310 C   0  0  0  0  0  1  0  0  0  0  0  0
  162.4830  209.2240  149.9840 N   0  0  1  0  0  0  0  0  0  0  0  0
  160.9890  206.2420  149.3480 O   0  0  0  0  0  1  0  0  0  0  0  0
  162.0280  209.1200  151.3870 C   0  0  2  0  0  3  0  0  0  0  0  0
  161.3050  214.0730  149.4700 C   0  0  0  0  0  3  0  0  0  0  0  0
  163.0630  212.8970  146.9980 C   0  0  0  0  0  3  0  0  0  0  0  0
  161.6980  212.8800  147.3230 C   0  0  0  0  0  0  0  0  0  0  0  0
  160.7480  212.9020  146.2890 C   0  0  0  0  0  3  0  0  0  0  0  0
  160.1870  212.9970  143.9150 N   0  0  0  0  0  1  0  0  0  0  0  0
  162.5180  212.9980  144.6410 C   0  0  0  0  0  3  0  0  0  0  0  0
  161.1570  212.9670  144.9540 C   0  0  0  0  0  0  0  0  0  0  0  0
  163.4710  212.9610  145.6630 C   0  0  0  0  0  3  0  0  0  0  0  0
  161.2080  205.5210  153.6870 O   0  0  0  0  0  1  0  0  0  0  0  0
  161.6020  205.4060  152.3530 C   0  0  0  0  0  2  0  0  0  0  0  0
  1  4  1  0  0  0  0
  2 14  1  0  0  0  0
  2 24  1  0  0  0  0
  3  9  1  0  0  0  0
  4 37  1  6  0  0  0
  5 19  1  0  0  0  0
  5 10  1  0  0  0  0
  6 22  1  0  0  0  0
  7  3  2  0  0  0  0
  7 21  1  0  0  0  0
  8 26  1  1  0  0  0
  8 12  1  0  0  0  0
  9 13  1  0  0  0  0
  9  6  2  0  0  0  0
 10  7  1  0  0  0  0
 11  6  1  0  0  0  0
 12  4  1  0  0  0  0
 13 17  1  0  0  0  0
 15 20  1  0  0  0  0
 16 11  2  0  0  0  0
 17  2  1  0  0  0  0
 18 19  1  0  0  0  0
 18  8  1  0  0  0  0
 18 25  1  0  0  0  0
 19 25  1  0  0  0  0
 20  3  1  0  0  0  0
 20 16  1  0  0  0  0
 21 13  2  0  0  0  0
 22  2  1  0  0  0  0
 23 10  2  0  0  0  0
 23 28  1  0  0  0  0
 25 27  1  0  0  0  0
 27 21  1  0  0  0  0
 27  1  1  0  0  0  0
 28 15  2  0  0  0  0
 29 30  1  0  0  0  0
 30 23  1  0  0  0  0
 31 30  2  0  0  0  0
 32 34  1  0  0  0  0
 33 34  2  0  0  0  0
 33 35  1  0  0  0  0
 34 31  1  0  0  0  0
 35 29  2  0  0  0  0
 37 36  1  0  0  0  0
M  END
>  <MODEL>
4

>  <REMARK>
 VINA RESULT:      -3.4      3.970      8.090
  Name = 
  2 active torsions:
  status: ('A' for Active; 'I' for Inactive)
    1  A    between atoms: C_4  and  C_37
    2  A    between atoms: C_23  and  C_30
                            x       y       z     vdW  Elec       q    Type
                         _______ _______ _______ _____ _____    ______ ____

>  <TORSDO>
F 2

$$$$
