=
 OpenBabel11122414303D

 34 40  0  0  0  0  0  0  0  0999 V2000
  160.9650  204.7630  150.8090 C   0  0  0  0  0  0  0  0  0  0  0  0
  160.7330  206.3220  152.7560 C   0  0  0  0  0  3  0  0  0  0  0  0
  159.4040  204.0990  145.1290 C   0  0  0  0  0  2  0  0  0  0  0  0
  161.2610  203.4600  148.7590 C   0  0  0  0  0  0  0  0  0  0  0  0
  161.9860  204.5540  146.7090 C   0  0  0  0  0  0  0  0  0  0  0  0
  161.4870  205.3310  144.3810 C   0  0  0  0  0  2  0  0  0  0  0  0
  160.2310  204.5780  143.9360 C   0  0  0  0  0  2  0  0  0  0  0  0
  160.8820  202.0330  145.3050 C   0  0  0  0  0  2  0  0  0  0  0  0
  161.3700  207.1340  150.7830 C   0  0  0  0  0  0  0  0  0  0  0  0
  161.9810  210.1010  150.3480 C   0  0  0  0  0  3  0  0  0  0  0  0
  162.0100  205.7800  147.3770 C   0  0  0  0  0  3  0  0  0  0  0  0
  161.5340  202.0400  146.6910 C   0  0  0  0  0  2  0  0  0  0  0  0
  161.7230  207.1150  149.3840 N   0  0  0  0  0  0  0  0  0  0  0  0
  160.9160  207.6520  152.9080 N   0  0  0  0  0  2  0  0  0  0  0  0
  161.5880  203.3830  147.3880 C   0  0  0  0  0  0  0  0  0  0  0  0
  159.4540  202.5780  145.2810 C   0  0  0  0  0  2  0  0  0  0  0  0
  161.5750  209.5140  151.5360 C   0  0  0  0  0  0  0  0  0  0  0  0
  161.3040  204.7070  149.4350 C   0  0  0  0  0  0  0  0  0  0  0  0
  162.2720  204.5250  145.3090 N   0  0  0  0  0  2  0  0  0  0  0  0
  161.6820  205.8920  148.7390 C   0  0  0  0  0  0  0  0  0  0  0  0
  160.5490  202.3780  150.8240 C   0  0  0  0  0  3  0  0  0  0  0  0
  162.2020  209.5330  149.1020 C   0  0  0  0  0  3  0  0  0  0  0  0
  160.8800  202.3090  149.4690 C   0  0  0  0  0  3  0  0  0  0  0  0
  162.0890  208.2170  148.6730 C   0  0  0  0  0  3  0  0  0  0  0  0
  161.3060  208.1570  151.7110 C   0  0  0  0  0  0  0  0  0  0  0  0
  160.5920  203.6010  151.4930 C   0  0  0  0  0  3  0  0  0  0  0  0
  161.0120  205.9940  151.4460 C   0  0  0  0  0  0  0  0  0  0  0  0
  161.4450  210.4330  152.7080 C   0  0  0  0  0  2  0  0  0  0  0  0
  160.2930  211.3990  152.4920 C   0  0  0  0  0  2  0  0  0  0  0  0
  158.4810  210.8320  155.3120 C   0  0  0  0  0  2  0  0  0  0  0  0
  160.7260  211.3820  154.7950 C   0  0  0  0  0  2  0  0  0  0  0  0
  159.9130  212.0050  153.7580 N   0  0  0  0  0  0  0  0  0  0  0  0
  159.8170  211.0650  155.9550 C   0  0  0  0  0  2  0  0  0  0  0  0
  158.5310  211.6160  154.0180 C   0  0  0  0  0  2  0  0  0  0  0  0
  1 27  1  0  0  0  0
  1 26  1  0  0  0  0
  2 14  1  0  0  0  0
  3 16  1  0  0  0  0
  4 18  1  0  0  0  0
  4 23  2  0  0  0  0
  5 11  1  0  0  0  0
  5 15  2  0  0  0  0
  6 19  1  0  0  0  0
  7  6  1  0  0  0  0
  7  3  1  0  0  0  0
  8 12  1  0  0  0  0
  9 27  1  0  0  0  0
  9 25  2  0  0  0  0
 10 17  2  0  0  0  0
 11 20  2  0  0  0  0
 12 15  1  0  0  0  0
 13  9  1  0  0  0  0
 15  4  1  0  0  0  0
 16  8  1  0  0  0  0
 17 25  1  0  0  0  0
 17 28  1  0  0  0  0
 18  1  2  0  0  0  0
 19  5  1  0  0  0  0
 20 13  1  0  0  0  0
 20 18  1  0  0  0  0
 21 26  2  0  0  0  0
 22 10  1  0  0  0  0
 23 21  1  0  0  0  0
 24 22  2  0  0  0  0
 24 13  1  0  0  0  0
 25 14  1  0  0  0  0
 27  2  2  0  0  0  0
 29 28  1  0  0  0  0
 29 32  1  0  0  0  0
 30 33  1  0  0  0  0
 31 33  1  0  0  0  0
 32 34  1  0  0  0  0
 32 31  1  0  0  0  0
 34 30  1  0  0  0  0
M  END
>  <MODEL>
1

>  <REMARK>
 VINA RESULT:      -8.9      0.000      0.000
  Name = 
  3 active torsions:
  status: ('A' for Active; 'I' for Inactive)
    1  A    between atoms: C_17  and  C_28
    2  A    between atoms: C_28  and  C_29
    3  A    between atoms: C_29  and  N_32
                            x       y       z     vdW  Elec       q    Type
                         _______ _______ _______ _____ _____    ______ ____

>  <TORSDO>
F 3

$$$$
=
 OpenBabel11122414303D

 34 40  0  0  1  0  0  0  0  0999 V2000
  161.4800  207.7340  150.1220 C   0  0  0  0  0  0  0  0  0  0  0  0
  161.0830  206.1210  148.2480 C   0  0  0  0  0  3  0  0  0  0  0  0
  159.1990  209.5820  155.2720 C   0  0  0  0  0  2  0  0  0  0  0  0
  161.8240  209.0990  152.1240 C   0  0  0  0  0  0  0  0  0  0  0  0
  161.6970  208.0840  154.3330 C   0  0  0  0  0  0  0  0  0  0  0  0
  160.5140  207.8160  156.5240 C   0  0  0  0  0  2  0  0  0  0  0  0
  159.5530  209.0010  156.6410 C   0  0  0  0  0  2  0  0  0  0  0  0
  161.3260  210.9820  155.3360 C   0  0  0  0  0  2  0  0  0  0  0  0
  160.9930  205.3890  150.3480 C   0  0  0  0  0  0  0  0  0  0  0  0
  160.3990  202.4690  151.0460 C   0  0  0  0  0  3  0  0  0  0  0  0
  161.4070  206.8510  153.7450 C   0  0  0  0  0  3  0  0  0  0  0  0
  162.1860  210.5830  154.1330 C   0  0  0  0  0  2  0  0  0  0  0  0
  161.0520  205.4580  151.7880 N   0  0  0  0  0  0  0  0  0  0  0  0
  160.8010  204.8000  148.2020 N   0  0  0  0  0  0  0  0  0  0  0  0
  161.8870  209.2270  153.5280 C   0  0  0  0  0  0  0  0  0  0  0  0
  159.8220  210.9640  155.0650 C   0  0  0  0  0  2  0  0  0  0  0  0
  160.4690  203.0090  149.7720 C   0  0  0  0  0  0  0  0  0  0  0  0
  161.5460  207.8390  151.5330 C   0  0  1  0  0  3  0  0  0  0  0  0
  161.6990  208.1840  155.7590 N   0  0  0  0  0  2  0  0  0  0  0  0
  161.3300  206.6910  152.3510 C   0  0  0  0  0  0  0  0  0  0  0  0
  161.9620  210.0960  149.9050 C   0  0  0  0  0  3  0  0  0  0  0  0
  160.5650  203.0760  152.2820 C   0  0  0  0  0  3  0  0  0  0  0  0
  162.0270  210.2140  151.2940 C   0  0  0  0  0  3  0  0  0  0  0  0
  160.8530  204.3930  152.6130 C   0  0  0  0  0  3  0  0  0  0  0  0
  160.7450  204.3440  149.4780 C   0  0  0  0  0  0  0  0  0  0  0  0
  161.6890  208.8600  149.3190 C   0  0  0  0  0  3  0  0  0  0  0  0
  161.2030  206.4920  149.5700 C   0  0  0  0  0  0  0  0  0  0  0  0
  160.2450  202.0530  148.6440 C   0  0  0  0  0  2  0  0  0  0  0  0
  161.4770  201.1870  148.4390 C   0  0  0  0  0  2  0  0  0  0  0  0
  160.4160  199.7290  145.5560 C   0  0  0  0  0  2  0  0  0  0  0  0
  160.8250  201.9340  146.3160 C   0  0  0  0  0  2  0  0  0  0  0  0
  161.7790  201.0870  147.0200 N   0  0  0  0  0  0  0  0  0  0  0  0
  160.3260  201.1620  145.1200 C   0  0  0  0  0  2  0  0  0  0  0  0
  161.4930  199.7130  146.6190 C   0  0  0  0  0  2  0  0  0  0  0  0
  2 27  1  0  0  0  0
  3  7  1  0  0  0  0
  4 15  1  0  0  0  0
  5 19  1  0  0  0  0
  6  7  1  0  0  0  0
  9 13  1  0  0  0  0
 10 22  1  0  0  0  0
 11  5  1  0  0  0  0
 12  8  1  0  0  0  0
 13 20  1  0  0  0  0
 13 24  1  0  0  0  0
 14  2  2  0  0  0  0
 14 25  1  0  0  0  0
 15 12  1  0  0  0  0
 15  5  2  0  0  0  0
 16  3  1  0  0  0  0
 16  8  1  0  0  0  0
 17 10  2  0  0  0  0
 18  1  1  1  0  0  0
 18  4  1  0  0  0  0
 18 20  1  0  0  0  0
 19  6  1  0  0  0  0
 20 11  2  0  0  0  0
 21 23  1  0  0  0  0
 22 24  2  0  0  0  0
 23  4  2  0  0  0  0
 25 17  1  0  0  0  0
 25  9  2  0  0  0  0
 26 21  2  0  0  0  0
 26  1  1  0  0  0  0
 27  1  2  0  0  0  0
 27  9  1  0  0  0  0
 28 17  1  0  0  0  0
 29 28  1  0  0  0  0
 30 34  1  0  0  0  0
 31 32  1  0  0  0  0
 32 29  1  0  0  0  0
 33 30  1  0  0  0  0
 33 31  1  0  0  0  0
 34 32  1  0  0  0  0
M  END
>  <MODEL>
2

>  <REMARK>
 VINA RESULT:      -8.2      1.910      9.331
  Name = 
  3 active torsions:
  status: ('A' for Active; 'I' for Inactive)
    1  A    between atoms: C_17  and  C_28
    2  A    between atoms: C_28  and  C_29
    3  A    between atoms: C_29  and  N_32
                            x       y       z     vdW  Elec       q    Type
                         _______ _______ _______ _____ _____    ______ ____

>  <TORSDO>
F 3

$$$$
=
 OpenBabel11122414303D

 34 40  0  0  0  0  0  0  0  0999 V2000
  160.9290  204.7940  151.0700 C   0  0  0  0  0  0  0  0  0  0  0  0
  160.5600  206.1060  153.1710 C   0  0  0  0  0  3  0  0  0  0  0  0
  159.7130  204.8050  145.2680 C   0  0  0  0  0  2  0  0  0  0  0  0
  161.3640  203.7490  148.9000 C   0  0  0  0  0  0  0  0  0  0  0  0
  162.1910  205.0870  147.0430 C   0  0  0  0  0  0  0  0  0  0  0  0
  161.8170  206.1330  144.7980 C   0  0  0  0  0  2  0  0  0  0  0  0
  160.6010  205.4290  144.1930 C   0  0  0  0  0  2  0  0  0  0  0  0
  161.2090  202.7440  145.2850 C   0  0  0  0  0  2  0  0  0  0  0  0
  161.3000  207.1540  151.3520 C   0  0  0  0  0  0  0  0  0  0  0  0
  161.8900  210.1570  151.3110 C   0  0  0  0  0  3  0  0  0  0  0  0
  162.1570  206.2240  147.8520 C   0  0  0  0  0  3  0  0  0  0  0  0
  161.7790  202.5890  146.6980 C   0  0  0  0  0  2  0  0  0  0  0  0
  161.7340  207.3060  149.9840 N   0  0  0  0  0  0  0  0  0  0  0  0
  160.7140  207.4100  153.4920 N   0  0  0  0  0  2  0  0  0  0  0  0
  161.7720  203.8400  147.5530 C   0  0  0  0  0  0  0  0  0  0  0  0
  159.7770  203.2760  145.2410 C   0  0  0  0  0  2  0  0  0  0  0  0
  161.4240  209.4280  152.3940 C   0  0  0  0  0  0  0  0  0  0  0  0
  161.3490  204.9060  149.7220 C   0  0  0  0  0  0  0  0  0  0  0  0
  162.5590  205.2290  145.6690 N   0  0  0  0  0  2  0  0  0  0  0  0
  161.7490  206.1690  149.1960 C   0  0  0  0  0  0  0  0  0  0  0  0
  160.5490  202.4210  150.7750 C   0  0  0  0  0  3  0  0  0  0  0  0
  162.1920  209.7440  150.0220 C   0  0  0  0  0  3  0  0  0  0  0  0
  160.9600  202.5180  149.4440 C   0  0  0  0  0  3  0  0  0  0  0  0
  162.1240  208.4890  149.4330 C   0  0  0  0  0  3  0  0  0  0  0  0
  161.1660  208.0580  152.3890 C   0  0  0  0  0  0  0  0  0  0  0  0
  160.5340  203.5560  151.5870 C   0  0  0  0  0  3  0  0  0  0  0  0
  160.9200  205.9400  151.8520 C   0  0  0  0  0  0  0  0  0  0  0  0
  161.2120  210.1990  153.6580 C   0  0  0  0  0  2  0  0  0  0  0  0
  160.6390  211.5700  153.3450 C   0  0  0  0  0  2  0  0  0  0  0  0
  157.6670  213.1200  153.9190 C   0  0  0  0  0  2  0  0  0  0  0  0
  158.8970  212.4120  152.0230 C   0  0  0  0  0  2  0  0  0  0  0  0
  159.2130  211.4610  153.0810 N   0  0  0  0  0  0  0  0  0  0  0  0
  157.6300  213.1280  152.4190 C   0  0  0  0  0  2  0  0  0  0  0  0
  158.5210  211.9230  154.2800 C   0  0  0  0  0  2  0  0  0  0  0  0
  1 26  1  0  0  0  0
  1 27  1  0  0  0  0
  2 14  1  0  0  0  0
  4 23  2  0  0  0  0
  4 18  1  0  0  0  0
  5 15  2  0  0  0  0
  5 11  1  0  0  0  0
  6 19  1  0  0  0  0
  7  6  1  0  0  0  0
  7  3  1  0  0  0  0
  8 12  1  0  0  0  0
  9 27  1  0  0  0  0
  9 25  2  0  0  0  0
 10 17  2  0  0  0  0
 11 20  2  0  0  0  0
 12 15  1  0  0  0  0
 13  9  1  0  0  0  0
 15  4  1  0  0  0  0
 16  3  1  0  0  0  0
 16  8  1  0  0  0  0
 17 28  1  0  0  0  0
 18  1  2  0  0  0  0
 19  5  1  0  0  0  0
 20 18  1  0  0  0  0
 20 13  1  0  0  0  0
 21 26  2  0  0  0  0
 22 10  1  0  0  0  0
 23 21  1  0  0  0  0
 24 13  1  0  0  0  0
 24 22  2  0  0  0  0
 25 17  1  0  0  0  0
 25 14  1  0  0  0  0
 27  2  2  0  0  0  0
 29 28  1  0  0  0  0
 30 34  1  0  0  0  0
 31 33  1  0  0  0  0
 31 32  1  0  0  0  0
 32 29  1  0  0  0  0
 32 34  1  0  0  0  0
 33 30  1  0  0  0  0
M  END
>  <MODEL>
3

>  <REMARK>
 VINA RESULT:      -8.1      0.874      1.291
  Name = 
  3 active torsions:
  status: ('A' for Active; 'I' for Inactive)
    1  A    between atoms: C_17  and  C_28
    2  A    between atoms: C_28  and  C_29
    3  A    between atoms: C_29  and  N_32
                            x       y       z     vdW  Elec       q    Type
                         _______ _______ _______ _____ _____    ______ ____

>  <TORSDO>
F 3

$$$$
=
 OpenBabel11122414303D

 34 40  0  0  1  0  0  0  0  0999 V2000
  160.7330  210.9520  151.5270 C   0  0  0  0  0  0  0  0  0  0  0  0
  161.7650  209.0960  150.1980 C   0  0  0  0  0  3  0  0  0  0  0  0
  156.0180  212.2520  154.8760 C   0  0  0  0  0  2  0  0  0  0  0  0
  159.6930  212.5820  153.0270 C   0  0  0  0  0  0  0  0  0  0  0  0
  159.0350  211.9260  155.2780 C   0  0  0  0  0  0  0  0  0  0  0  0
  157.2320  211.4530  156.9500 C   0  0  0  0  0  2  0  0  0  0  0  0
  155.9540  212.0830  156.3940 C   0  0  0  0  0  2  0  0  0  0  0  0
  157.2600  214.4530  155.1920 C   0  0  0  0  0  2  0  0  0  0  0  0
  161.0800  208.6930  152.2780 C   0  0  0  0  0  0  0  0  0  0  0  0
  161.3500  205.9420  153.5920 C   0  0  0  0  0  3  0  0  0  0  0  0
  159.4830  210.6280  155.0260 C   0  0  0  0  0  3  0  0  0  0  0  0
  158.6230  214.3260  154.5040 C   0  0  0  0  0  2  0  0  0  0  0  0
  160.5050  208.9740  153.5710 N   0  0  0  0  0  0  0  0  0  0  0  0
  162.0260  207.7970  150.4640 N   0  0  0  0  0  0  0  0  0  0  0  0
  159.1150  212.9120  154.2710 C   0  0  0  0  0  0  0  0  0  0  0  0
  156.1240  213.7250  154.4740 C   0  0  0  0  0  2  0  0  0  0  0  0
  161.7440  206.2780  152.3060 C   0  0  0  0  0  0  0  0  0  0  0  0
  160.1620  211.2640  152.7850 C   0  0  1  0  0  3  0  0  0  0  0  0
  158.4070  212.2090  156.5300 N   0  0  0  0  0  2  0  0  0  0  0  0
  160.0570  210.2640  153.7960 C   0  0  0  0  0  0  0  0  0  0  0  0
  160.3710  213.2240  150.7760 C   0  0  0  0  0  3  0  0  0  0  0  0
  160.7550  206.7190  154.5740 C   0  0  0  0  0  3  0  0  0  0  0  0
  159.8050  213.5450  152.0110 C   0  0  0  0  0  3  0  0  0  0  0  0
  160.3810  208.0560  154.5690 C   0  0  0  0  0  3  0  0  0  0  0  0
  161.6130  207.5410  151.7300 C   0  0  0  0  0  0  0  0  0  0  0  0
  160.8350  211.9310  150.5340 C   0  0  0  0  0  3  0  0  0  0  0  0
  161.1810  209.6560  151.3140 C   0  0  0  0  0  0  0  0  0  0  0  0
  162.3720  205.1810  151.5080 C   0  0  0  0  0  2  0  0  0  0  0  0
  161.5810  203.8940  151.6700 C   0  0  0  0  0  2  0  0  0  0  0  0
  161.3390  203.3640  148.3200 C   0  0  0  0  0  2  0  0  0  0  0  0
  160.4890  202.3510  150.2850 C   0  0  0  0  0  2  0  0  0  0  0  0
  160.6140  203.7710  150.5910 N   0  0  0  0  0  0  0  0  0  0  0  0
  160.5050  202.2060  148.7840 C   0  0  0  0  0  2  0  0  0  0  0  0
  161.2060  204.4020  149.4150 C   0  0  0  0  0  2  0  0  0  0  0  0
  2 14  2  0  0  0  0
  2 27  1  0  0  0  0
  3  7  1  0  0  0  0
  4 15  1  0  0  0  0
  5 19  1  0  0  0  0
  7  6  1  0  0  0  0
  9 13  1  0  0  0  0
 10 22  1  0  0  0  0
 11  5  1  0  0  0  0
 12  8  1  0  0  0  0
 13 20  1  0  0  0  0
 13 24  1  0  0  0  0
 14 25  1  0  0  0  0
 15 12  1  0  0  0  0
 15  5  2  0  0  0  0
 16  3  1  0  0  0  0
 16  8  1  0  0  0  0
 17 10  2  0  0  0  0
 18  1  1  6  0  0  0
 18  4  1  0  0  0  0
 18 20  1  0  0  0  0
 19  6  1  0  0  0  0
 20 11  2  0  0  0  0
 21 23  1  0  0  0  0
 23  4  2  0  0  0  0
 24 22  2  0  0  0  0
 25  9  2  0  0  0  0
 25 17  1  0  0  0  0
 26 21  2  0  0  0  0
 26  1  1  0  0  0  0
 27  1  2  0  0  0  0
 27  9  1  0  0  0  0
 28 29  1  0  0  0  0
 28 17  1  0  0  0  0
 30 33  1  0  0  0  0
 30 34  1  0  0  0  0
 31 32  1  0  0  0  0
 32 29  1  0  0  0  0
 33 31  1  0  0  0  0
 34 32  1  0  0  0  0
M  END
>  <MODEL>
4

>  <REMARK>
 VINA RESULT:      -7.9      2.221      9.749
  Name = 
  3 active torsions:
  status: ('A' for Active; 'I' for Inactive)
    1  A    between atoms: C_17  and  C_28
    2  A    between atoms: C_28  and  C_29
    3  A    between atoms: C_29  and  N_32
                            x       y       z     vdW  Elec       q    Type
                         _______ _______ _______ _____ _____    ______ ____

>  <TORSDO>
F 3

$$$$
=
 OpenBabel11122414303D

 34 40  0  0  1  0  0  0  0  0999 V2000
  161.8630  209.1640  150.6050 C   0  0  0  0  0  0  0  0  0  0  0  0
  162.5440  210.2100  148.4340 C   0  0  0  0  0  3  0  0  0  0  0  0
  161.9570  210.0540  156.4650 C   0  0  0  0  0  2  0  0  0  0  0  0
  161.0880  208.3850  152.7920 C   0  0  0  0  0  0  0  0  0  0  0  0
  159.8470  209.8830  154.2550 C   0  0  0  0  0  0  0  0  0  0  0  0
  159.7270  211.2480  156.3510 C   0  0  0  0  0  2  0  0  0  0  0  0
  160.8460  210.7380  157.2610 C   0  0  0  0  0  2  0  0  0  0  0  0
  160.6160  207.8890  156.4850 C   0  0  0  0  0  2  0  0  0  0  0  0
  161.4130  211.4240  149.9180 C   0  0  0  0  0  0  0  0  0  0  0  0
  160.6480  214.3440  149.4100 C   0  0  0  0  0  3  0  0  0  0  0  0
  159.9660  210.9000  153.3060 C   0  0  0  0  0  3  0  0  0  0  0  0
  160.3340  207.4990  155.0310 C   0  0  0  0  0  2  0  0  0  0  0  0
  160.7200  211.7200  151.1480 N   0  0  0  0  0  0  0  0  0  0  0  0
  162.3760  211.4410  147.9020 N   0  0  0  0  0  0  0  0  0  0  0  0
  160.4280  208.6200  154.0170 C   0  0  0  0  0  0  0  0  0  0  0  0
  161.9800  208.5430  156.7060 C   0  0  0  0  0  2  0  0  0  0  0  0
  161.3530  213.5190  148.5470 C   0  0  0  0  0  0  0  0  0  0  0  0
  161.1900  209.4180  151.8250 C   0  0  1  0  0  3  0  0  0  0  0  0
  159.2180  210.1750  155.5040 N   0  0  0  0  0  2  0  0  0  0  0  0
  160.6230  210.7010  152.0790 C   0  0  0  0  0  0  0  0  0  0  0  0
  162.3200  206.8930  151.3090 C   0  0  0  0  0  3  0  0  0  0  0  0
  160.1330  214.0830  150.6700 C   0  0  0  0  0  3  0  0  0  0  0  0
  161.6610  207.1310  152.5160 C   0  0  0  0  0  3  0  0  0  0  0  0
  160.1620  212.9280  151.4400 C   0  0  0  0  0  3  0  0  0  0  0  0
  161.6870  212.1890  148.7990 C   0  0  0  0  0  0  0  0  0  0  0  0
  162.4210  207.9060  150.3550 C   0  0  0  0  0  3  0  0  0  0  0  0
  161.9510  210.1920  149.6780 C   0  0  0  0  0  0  0  0  0  0  0  0
  161.7540  214.1300  147.2420 C   0  0  0  0  0  2  0  0  0  0  0  0
  160.5740  214.1430  146.2840 C   0  0  0  0  0  2  0  0  0  0  0  0
  163.1450  213.3080  144.2220 C   0  0  0  0  0  2  0  0  0  0  0  0
  160.7930  213.0320  144.2330 C   0  0  0  0  0  2  0  0  0  0  0  0
  161.0490  214.2920  144.9180 N   0  0  0  0  0  0  0  0  0  0  0  0
  162.0270  212.6880  143.4370 C   0  0  0  0  0  2  0  0  0  0  0  0
  162.5000  214.4450  144.9860 C   0  0  0  0  0  2  0  0  0  0  0  0
  2 27  1  0  0  0  0
  3 16  1  0  0  0  0
  3  7  1  0  0  0  0
  4 15  1  0  0  0  0
  5 19  1  0  0  0  0
  6  7  1  0  0  0  0
  8 16  1  0  0  0  0
  9 13  1  0  0  0  0
 10 22  1  0  0  0  0
 11  5  1  0  0  0  0
 12  8  1  0  0  0  0
 13 24  1  0  0  0  0
 13 20  1  0  0  0  0
 14  2  2  0  0  0  0
 14 25  1  0  0  0  0
 15  5  2  0  0  0  0
 15 12  1  0  0  0  0
 17 25  1  0  0  0  0
 17 10  2  0  0  0  0
 18  1  1  1  0  0  0
 18 20  1  0  0  0  0
 18  4  1  0  0  0  0
 19  6  1  0  0  0  0
 20 11  2  0  0  0  0
 21 23  1  0  0  0  0
 22 24  2  0  0  0  0
 23  4  2  0  0  0  0
 25  9  2  0  0  0  0
 26  1  1  0  0  0  0
 26 21  2  0  0  0  0
 27  9  1  0  0  0  0
 27  1  2  0  0  0  0
 28 17  1  0  0  0  0
 29 28  1  0  0  0  0
 30 34  1  0  0  0  0
 31 32  1  0  0  0  0
 32 34  1  0  0  0  0
 32 29  1  0  0  0  0
 33 30  1  0  0  0  0
 33 31  1  0  0  0  0
M  END
>  <MODEL>
5

>  <REMARK>
 VINA RESULT:      -7.1      4.248      8.683
  Name = 
  3 active torsions:
  status: ('A' for Active; 'I' for Inactive)
    1  A    between atoms: C_17  and  C_28
    2  A    between atoms: C_28  and  C_29
    3  A    between atoms: C_29  and  N_32
                            x       y       z     vdW  Elec       q    Type
                         _______ _______ _______ _____ _____    ______ ____

>  <TORSDO>
F 3

$$$$
=
 OpenBabel11122414303D

 34 40  0  0  0  0  0  0  0  0999 V2000
  160.2710  208.5490  154.4820 C   0  0  0  0  0  0  0  0  0  0  0  0
  159.1440  210.3500  155.8090 C   0  0  0  0  0  3  0  0  0  0  0  0
  160.1020  205.7960  149.2350 C   0  0  0  0  0  2  0  0  0  0  0  0
  161.3830  206.9700  152.9790 C   0  0  0  0  0  0  0  0  0  0  0  0
  162.0140  207.6590  150.7310 C   0  0  0  0  0  0  0  0  0  0  0  0
  161.6920  207.5040  148.2530 C   0  0  0  0  0  2  0  0  0  0  0  0
  160.8980  206.2210  148.0020 C   0  0  0  0  0  2  0  0  0  0  0  0
  162.1730  204.6300  150.1490 C   0  0  0  0  0  2  0  0  0  0  0  0
  159.7840  210.7790  153.7200 C   0  0  0  0  0  0  0  0  0  0  0  0
  159.3410  213.5000  152.3920 C   0  0  0  0  0  3  0  0  0  0  0  0
  161.4710  208.9230  150.9710 C   0  0  0  0  0  3  0  0  0  0  0  0
  162.5190  205.2750  151.4950 C   0  0  0  0  0  2  0  0  0  0  0  0
  160.3640  210.5230  152.4240 N   0  0  0  0  0  0  0  0  0  0  0  0
  158.8010  211.6290  155.5370 N   0  0  0  0  0  2  0  0  0  0  0  0
  161.9550  206.6610  151.7260 C   0  0  0  0  0  0  0  0  0  0  0  0
  160.6740  204.5270  149.8700 C   0  0  0  0  0  2  0  0  0  0  0  0
  158.9720  213.1470  153.6800 C   0  0  0  0  0  0  0  0  0  0  0  0
  160.8480  208.2620  153.2210 C   0  0  0  0  0  0  0  0  0  0  0  0
  162.5370  207.3680  149.4330 N   0  0  0  0  0  2  0  0  0  0  0  0
  160.8870  209.2610  152.2040 C   0  0  0  0  0  0  0  0  0  0  0  0
  160.7560  206.3010  155.2370 C   0  0  0  0  0  3  0  0  0  0  0  0
  159.9730  212.7530  151.4090 C   0  0  0  0  0  3  0  0  0  0  0  0
  161.3260  206.0050  153.9980 C   0  0  0  0  0  3  0  0  0  0  0  0
  160.4250  211.4400  151.4190 C   0  0  0  0  0  3  0  0  0  0  0  0
  159.1870  211.9000  154.2660 C   0  0  0  0  0  0  0  0  0  0  0  0
  160.2310  207.5700  155.4800 C   0  0  0  0  0  3  0  0  0  0  0  0
  159.7530  209.8190  154.6920 C   0  0  0  0  0  0  0  0  0  0  0  0
  158.3090  214.2180  154.4860 C   0  0  0  0  0  2  0  0  0  0  0  0
  156.8930  214.4490  153.9870 C   0  0  0  0  0  2  0  0  0  0  0  0
  155.5870  212.3270  156.3010 C   0  0  0  0  0  2  0  0  0  0  0  0
  156.7540  214.3880  156.3260 C   0  0  0  0  0  2  0  0  0  0  0  0
  155.9610  214.3940  155.1030 N   0  0  0  0  0  0  0  0  0  0  0  0
  156.1710  213.3410  157.2410 C   0  0  0  0  0  2  0  0  0  0  0  0
  155.2900  213.0990  155.0330 C   0  0  0  0  0  2  0  0  0  0  0  0
  1 27  1  0  0  0  0
  1 26  1  0  0  0  0
  3 16  1  0  0  0  0
  4 18  1  0  0  0  0
  4 23  2  0  0  0  0
  5 11  1  0  0  0  0
  5 15  2  0  0  0  0
  6 19  1  0  0  0  0
  7  6  1  0  0  0  0
  7  3  1  0  0  0  0
  8 12  1  0  0  0  0
  9 25  2  0  0  0  0
  9 27  1  0  0  0  0
 10 17  2  0  0  0  0
 11 20  2  0  0  0  0
 12 15  1  0  0  0  0
 13  9  1  0  0  0  0
 14  2  1  0  0  0  0
 15  4  1  0  0  0  0
 16  8  1  0  0  0  0
 17 25  1  0  0  0  0
 17 28  1  0  0  0  0
 18  1  2  0  0  0  0
 19  5  1  0  0  0  0
 20 13  1  0  0  0  0
 20 18  1  0  0  0  0
 21 26  2  0  0  0  0
 22 24  2  0  0  0  0
 22 10  1  0  0  0  0
 23 21  1  0  0  0  0
 24 13  1  0  0  0  0
 25 14  1  0  0  0  0
 27  2  2  0  0  0  0
 29 28  1  0  0  0  0
 29 32  1  0  0  0  0
 30 33  1  0  0  0  0
 31 33  1  0  0  0  0
 32 31  1  0  0  0  0
 34 32  1  0  0  0  0
 34 30  1  0  0  0  0
M  END
>  <MODEL>
6

>  <REMARK>
 VINA RESULT:      -6.8      2.474      5.017
  Name = 
  3 active torsions:
  status: ('A' for Active; 'I' for Inactive)
    1  A    between atoms: C_17  and  C_28
    2  A    between atoms: C_28  and  C_29
    3  A    between atoms: C_29  and  N_32
                            x       y       z     vdW  Elec       q    Type
                         _______ _______ _______ _____ _____    ______ ____

>  <TORSDO>
F 3

$$$$
