=
 OpenBabel11122413253D

 31 35  0  0  1  0  0  0  0  0999 V2000
  160.7690  207.3310  156.3930 C   0  0  0  0  0  0  0  0  0  0  0  0
  161.7760  208.4600  152.9020 C   0  0  2  0  0  3  0  0  0  0  0  0
  161.1600  207.4450  151.9070 C   0  0  2  0  0  3  0  0  0  0  0  0
  160.6620  205.0260  151.4830 C   0  0  2  0  0  3  0  0  0  0  0  0
  161.0910  208.4310  154.2510 C   0  0  0  0  0  0  0  0  0  0  0  0
  159.7860  208.2630  156.7310 C   0  0  0  0  0  3  0  0  0  0  0  0
  161.2890  206.0170  152.4530 C   0  0  0  0  0  2  0  0  0  0  0  0
  160.3350  210.4460  152.3140 C   0  0  2  0  0  3  0  0  0  0  0  0
  161.0880  206.3400  157.2600 F   0  0  0  0  0  0  0  0  0  0  0  0
  161.6690  208.8640  150.0390 C   0  0  0  0  0  2  0  0  0  0  0  0
  160.8820  203.6150  151.9870 C   0  0  0  0  0  1  0  0  0  0  0  0
  159.8160  210.5790  153.7450 C   0  0  0  0  0  2  0  0  0  0  0  0
  161.7650  209.8850  152.3170 C   0  0  2  0  0  3  0  0  0  0  0  0
  161.4190  207.4160  155.1610 C   0  0  0  0  0  3  0  0  0  0  0  0
  161.2920  205.1800  150.1070 C   0  0  0  0  0  2  0  0  0  0  0  0
  160.1010  209.3790  154.5990 C   0  0  0  0  0  0  0  0  0  0  0  0
  159.4620  209.2890  155.8400 C   0  0  0  0  0  3  0  0  0  0  0  0
  162.3790  209.8850  150.9180 C   0  0  0  0  0  2  0  0  0  0  0  0
  161.8320  207.5240  150.5930 N   0  0  2  0  0  0  0  0  0  0  0  0
  161.1540  206.6290  149.6550 C   0  0  0  0  0  2  0  0  0  0  0  0
  157.9980  212.0350  151.9290 O   0  0  0  0  0  0  0  0  0  0  0  0
  159.0950  212.5010  151.5140 C   0  0  0  0  0  0  0  0  0  0  0  0
  160.3010  211.7520  151.6680 N   0  0  0  0  0  2  0  0  0  0  0  0
  157.7840  213.8500  148.2260 C   0  0  1  0  0  3  0  0  0  0  0  0
  157.7560  214.4530  150.6630 C   0  0  0  0  0  2  0  0  0  0  0  0
  161.1690  213.2170  149.6660 O   0  0  0  0  0  1  0  0  0  0  0  0
  157.0680  213.2220  147.2080 O   0  0  0  0  0  1  0  0  0  0  0  0
  156.9870  213.7790  149.5260 C   0  0  0  0  0  2  0  0  0  0  0  0
  159.9270  213.8360  149.5140 C   0  0  2  0  0  3  0  0  0  0  0  0
  159.1510  213.8420  150.8430 C   0  0  2  0  0  3  0  0  0  0  0  0
  159.1340  213.1620  148.3980 C   0  0  0  0  0  2  0  0  0  0  0  0
  1  6  1  0  0  0  0
  1  9  1  0  0  0  0
  2  5  1  1  0  0  0
  3  7  1  1  0  0  0
  3  2  1  0  0  0  0
  4 11  1  1  0  0  0
  4  7  1  0  0  0  0
  5 16  2  0  0  0  0
  5 14  1  0  0  0  0
  8 23  1  1  0  0  0
  8 13  1  0  0  0  0
  8 12  1  0  0  0  0
 10 19  1  0  0  0  0
 10 18  1  0  0  0  0
 12 16  1  0  0  0  0
 13 18  1  6  0  0  0
 13  2  1  0  0  0  0
 14  1  2  0  0  0  0
 15  4  1  0  0  0  0
 16 17  1  0  0  0  0
 17  6  2  0  0  0  0
 19 20  1  6  0  0  0
 19  3  1  0  0  0  0
 20 15  1  0  0  0  0
 22 23  1  0  0  0  0
 22 21  2  0  0  0  0
 24 27  1  6  0  0  0
 24 31  1  0  0  0  0
 24 28  1  0  0  0  0
 25 30  1  0  0  0  0
 28 25  1  0  0  0  0
 29 26  1  1  0  0  0
 29 30  1  0  0  0  0
 30 22  1  6  0  0  0
 31 29  1  0  0  0  0
M  END
>  <MODEL>
1

>  <REMARK>
 VINA RESULT:      -7.4      0.000      0.000
  Name = 
  2 active torsions:
  status: ('A' for Active; 'I' for Inactive)
    1  A    between atoms: C_5  and  C_30
    2  A    between atoms: C_10  and  N_16
                            x       y       z     vdW  Elec       q    Type
                         _______ _______ _______ _____ _____    ______ ____

>  <TORSDO>
F 2

$$$$
=
 OpenBabel11122413253D

 31 35  0  0  1  0  0  0  0  0999 V2000
  160.9600  206.5770  146.6320 C   0  0  0  0  0  0  0  0  0  0  0  0
  160.4290  205.0360  150.0700 C   0  0  2  0  0  3  0  0  0  0  0  0
  161.1140  203.6470  150.0500 C   0  0  2  0  0  3  0  0  0  0  0  0
  161.5510  201.5910  148.6850 C   0  0  2  0  0  3  0  0  0  0  0  0
  160.9450  205.9480  148.9780 C   0  0  0  0  0  0  0  0  0  0  0  0
  161.9350  207.5420  146.8910 C   0  0  0  0  0  3  0  0  0  0  0  0
  160.8580  202.9450  148.7100 C   0  0  0  0  0  2  0  0  0  0  0  0
  162.0160  206.1870  151.6580 C   0  0  2  0  0  3  0  0  0  0  0  0
  160.4950  206.4060  145.3710 F   0  0  0  0  0  0  0  0  0  0  0  0
  160.8970  203.4290  152.4300 C   0  0  0  0  0  2  0  0  0  0  0  0
  161.2110  200.8700  147.3980 C   0  0  0  0  0  1  0  0  0  0  0  0
  162.3650  207.2660  150.6350 C   0  0  0  0  0  2  0  0  0  0  0  0
  160.5730  205.7040  151.4510 C   0  0  2  0  0  3  0  0  0  0  0  0
  160.4660  205.7870  147.6710 C   0  0  0  0  0  3  0  0  0  0  0  0
  161.0990  200.7560  149.8740 C   0  0  0  0  0  2  0  0  0  0  0  0
  161.9270  206.9320  149.2390 C   0  0  0  0  0  0  0  0  0  0  0  0
  162.4080  207.7250  148.1920 C   0  0  0  0  0  3  0  0  0  0  0  0
  160.1320  204.7400  152.5510 C   0  0  0  0  0  2  0  0  0  0  0  0
  160.6080  202.7960  151.1480 N   0  0  2  0  0  0  0  0  0  0  0  0
  161.3540  201.5370  151.1570 C   0  0  0  0  0  2  0  0  0  0  0  0
  160.6040  208.4220  152.7280 O   0  0  0  0  0  0  0  0  0  0  0  0
  161.4380  207.8460  153.4790 C   0  0  0  0  0  0  0  0  0  0  0  0
  162.1860  206.7260  153.0010 N   0  0  0  0  0  2  0  0  0  0  0  0
  159.3900  209.8880  155.9240 C   0  0  1  0  0  3  0  0  0  0  0  0
  160.6690  207.7290  155.8710 C   0  0  0  0  0  2  0  0  0  0  0  0
  162.5750  210.4170  154.0520 O   0  0  0  0  0  1  0  0  0  0  0  0
  158.1240  210.4570  155.7960 O   0  0  0  0  0  1  0  0  0  0  0  0
  159.2890  208.3760  155.7440 C   0  0  0  0  0  2  0  0  0  0  0  0
  161.7140  209.8660  155.0020 C   0  0  2  0  0  3  0  0  0  0  0  0
  161.6700  208.3320  154.8800 C   0  0  2  0  0  3  0  0  0  0  0  0
  160.3240  210.4840  154.8760 C   0  0  0  0  0  2  0  0  0  0  0  0
  1  6  2  0  0  0  0
  1 14  1  0  0  0  0
  2  5  1  6  0  0  0
  2 13  1  0  0  0  0
  3  7  1  6  0  0  0
  3  2  1  0  0  0  0
  3 19  1  0  0  0  0
  4 11  1  6  0  0  0
  4  7  1  0  0  0  0
  4 15  1  0  0  0  0
  5 16  1  0  0  0  0
  6 17  1  0  0  0  0
  8 23  1  1  0  0  0
  9  1  1  0  0  0  0
 10 18  1  0  0  0  0
 12  8  1  0  0  0  0
 13  8  1  0  0  0  0
 13 18  1  1  0  0  0
 14  5  2  0  0  0  0
 15 20  1  0  0  0  0
 16 12  1  0  0  0  0
 17 16  2  0  0  0  0
 19 20  1  1  0  0  0
 19 10  1  0  0  0  0
 21 22  2  0  0  0  0
 23 22  1  0  0  0  0
 24 27  1  6  0  0  0
 28 25  1  0  0  0  0
 28 24  1  0  0  0  0
 29 26  1  6  0  0  0
 30 22  1  6  0  0  0
 30 29  1  0  0  0  0
 30 25  1  0  0  0  0
 31 29  1  0  0  0  0
 31 24  1  0  0  0  0
M  END
>  <MODEL>
2

>  <REMARK>
 VINA RESULT:      -7.4      4.411      6.818
  Name = 
  2 active torsions:
  status: ('A' for Active; 'I' for Inactive)
    1  A    between atoms: C_5  and  C_30
    2  A    between atoms: C_10  and  N_16
                            x       y       z     vdW  Elec       q    Type
                         _______ _______ _______ _____ _____    ______ ____

>  <TORSDO>
F 2

$$$$
=
 OpenBabel11122413253D

 31 35  0  0  1  0  0  0  0  0999 V2000
  161.1990  203.9320  145.7520 C   0  0  0  0  0  0  0  0  0  0  0  0
  160.6570  205.8190  149.0120 C   0  0  2  0  0  3  0  0  0  0  0  0
  161.2530  204.9430  150.1420 C   0  0  2  0  0  3  0  0  0  0  0  0
  161.5280  202.6050  151.0020 C   0  0  2  0  0  3  0  0  0  0  0  0
  161.2020  205.4490  147.6490 C   0  0  0  0  0  0  0  0  0  0  0  0
  162.2380  204.6550  145.1640 C   0  0  0  0  0  3  0  0  0  0  0  0
  160.9210  203.4640  149.9020 C   0  0  0  0  0  2  0  0  0  0  0  0
  162.3510  207.6870  149.0840 C   0  0  2  0  0  3  0  0  0  0  0  0
  160.6930  202.8420  145.1260 F   0  0  0  0  0  0  0  0  0  0  0  0
  161.0800  206.7420  151.7210 C   0  0  0  0  0  2  0  0  0  0  0  0
  161.1130  201.1620  150.8070 C   0  0  0  0  0  1  0  0  0  0  0  0
  162.7420  207.4810  147.6220 C   0  0  0  0  0  2  0  0  0  0  0  0
  160.8760  207.3160  149.2980 C   0  0  2  0  0  3  0  0  0  0  0  0
  160.6830  204.3290  146.9870 C   0  0  0  0  0  3  0  0  0  0  0  0
  161.0540  203.0940  152.3620 C   0  0  0  0  0  2  0  0  0  0  0  0
  162.2500  206.1850  147.0480 C   0  0  0  0  0  0  0  0  0  0  0  0
  162.7540  205.7830  145.8060 C   0  0  0  0  0  3  0  0  0  0  0  0
  160.4020  207.6570  150.7110 C   0  0  0  0  0  2  0  0  0  0  0  0
  160.7220  205.3520  151.4590 N   0  0  2  0  0  0  0  0  0  0  0  0
  161.3890  204.5740  152.5040 C   0  0  0  0  0  2  0  0  0  0  0  0
  161.2900  209.9570  147.7210 O   0  0  0  0  0  0  0  0  0  0  0  0
  162.0160  210.1700  148.7310 C   0  0  0  0  0  0  0  0  0  0  0  0
  162.5860  209.0770  149.4530 N   0  0  0  0  0  2  0  0  0  0  0  0
  160.9290  213.5940  147.5320 C   0  0  1  0  0  3  0  0  0  0  0  0
  161.0400  212.2880  149.6730 C   0  0  0  0  0  2  0  0  0  0  0  0
  164.1620  211.7330  147.6450 O   0  0  0  0  0  1  0  0  0  0  0  0
  160.1000  213.9660  146.4750 O   0  0  0  0  0  1  0  0  0  0  0  0
  160.1480  212.7180  148.5070 C   0  0  0  0  0  2  0  0  0  0  0  0
  163.0510  212.4170  148.1380 C   0  0  2  0  0  3  0  0  0  0  0  0
  162.3040  211.5710  149.1840 C   0  0  2  0  0  3  0  0  0  0  0  0
  162.1350  212.8350  146.9890 C   0  0  0  0  0  2  0  0  0  0  0  0
  1 14  1  0  0  0  0
  2  5  1  6  0  0  0
  2 13  1  0  0  0  0
  2  3  1  0  0  0  0
  3  7  1  6  0  0  0
  3 19  1  0  0  0  0
  4 11  1  6  0  0  0
  4 15  1  0  0  0  0
  6  1  2  0  0  0  0
  6 17  1  0  0  0  0
  7  4  1  0  0  0  0
  8 13  1  0  0  0  0
  8 23  1  6  0  0  0
  9  1  1  0  0  0  0
 12  8  1  0  0  0  0
 13 18  1  1  0  0  0
 14  5  2  0  0  0  0
 15 20  1  0  0  0  0
 16 12  1  0  0  0  0
 16  5  1  0  0  0  0
 17 16  2  0  0  0  0
 18 10  1  0  0  0  0
 19 10  1  1  0  0  0
 19 20  1  0  0  0  0
 21 22  2  0  0  0  0
 22 23  1  0  0  0  0
 24 27  1  6  0  0  0
 24 28  1  0  0  0  0
 28 25  1  0  0  0  0
 29 26  1  6  0  0  0
 29 30  1  0  0  0  0
 30 22  1  6  0  0  0
 30 25  1  0  0  0  0
 31 24  1  0  0  0  0
 31 29  1  0  0  0  0
M  END
>  <MODEL>
3

>  <REMARK>
 VINA RESULT:      -6.8      3.840      6.067
  Name = 
  2 active torsions:
  status: ('A' for Active; 'I' for Inactive)
    1  A    between atoms: C_5  and  C_30
    2  A    between atoms: C_10  and  N_16
                            x       y       z     vdW  Elec       q    Type
                         _______ _______ _______ _____ _____    ______ ____

>  <TORSDO>
F 2

$$$$
=
 OpenBabel11122413253D

 31 35  0  0  1  0  0  0  0  0999 V2000
  161.0260  204.6570  145.0500 C   0  0  0  0  0  0  0  0  0  0  0  0
  160.6040  205.1060  148.8050 C   0  0  2  0  0  3  0  0  0  0  0  0
  161.2470  203.8690  149.4800 C   0  0  2  0  0  3  0  0  0  0  0  0
  161.5630  201.3860  149.3440 C   0  0  2  0  0  3  0  0  0  0  0  0
  161.0980  205.3100  147.3890 C   0  0  0  0  0  0  0  0  0  0  0  0
  162.0400  205.5710  144.7570 C   0  0  0  0  0  3  0  0  0  0  0  0
  160.9110  202.5960  148.6910 C   0  0  0  0  0  2  0  0  0  0  0  0
  162.2930  206.8270  149.5460 C   0  0  2  0  0  3  0  0  0  0  0  0
  160.5010  203.8900  144.0640 F   0  0  0  0  0  0  0  0  0  0  0  0
  161.1290  204.9020  151.6430 C   0  0  0  0  0  2  0  0  0  0  0  0
  161.1440  200.1280  148.6130 C   0  0  0  0  0  1  0  0  0  0  0  0
  162.6280  207.2180  148.1080 C   0  0  0  0  0  2  0  0  0  0  0  0
  160.8290  206.3750  149.6480 C   0  0  2  0  0  3  0  0  0  0  0  0
  160.5570  204.5290  146.3580 C   0  0  0  0  0  3  0  0  0  0  0  0
  161.1390  201.2940  150.8030 C   0  0  0  0  0  2  0  0  0  0  0  0
  162.1190  206.2410  147.0880 C   0  0  0  0  0  0  0  0  0  0  0  0
  162.5760  206.3670  145.7720 C   0  0  0  0  0  3  0  0  0  0  0  0
  160.4090  206.1270  151.0960 C   0  0  0  0  0  2  0  0  0  0  0  0
  160.7660  203.7190  150.8690 N   0  0  2  0  0  0  0  0  0  0  0  0
  161.4740  202.6070  151.5020 C   0  0  0  0  0  2  0  0  0  0  0  0
  161.5130  209.5180  149.0110 O   0  0  0  0  0  0  0  0  0  0  0  0
  162.1120  209.2900  150.0980 C   0  0  0  0  0  0  0  0  0  0  0  0
  162.5380  207.9650  150.4220 N   0  0  0  0  0  2  0  0  0  0  0  0
  160.0130  211.1990  152.6080 C   0  0  1  0  0  3  0  0  0  0  0  0
  162.2000  209.9700  152.5180 C   0  0  0  0  0  2  0  0  0  0  0  0
  161.7480  212.0520  149.4150 O   0  0  0  0  0  1  0  0  0  0  0  0
  158.6640  211.0840  152.9370 O   0  0  0  0  0  1  0  0  0  0  0  0
  160.7180  209.8730  152.8810 C   0  0  0  0  0  2  0  0  0  0  0  0
  161.6210  211.6970  150.7580 C   0  0  2  0  0  3  0  0  0  0  0  0
  162.3990  210.4040  151.0610 C   0  0  2  0  0  3  0  0  0  0  0  0
  160.1470  211.5730  151.1350 C   0  0  0  0  0  2  0  0  0  0  0  0
  1 14  1  0  0  0  0
  2  5  1  6  0  0  0
  2  3  1  0  0  0  0
  2 13  1  0  0  0  0
  3  7  1  6  0  0  0
  3 19  1  0  0  0  0
  4 11  1  6  0  0  0
  4 15  1  0  0  0  0
  6  1  2  0  0  0  0
  6 17  1  0  0  0  0
  7  4  1  0  0  0  0
  8 13  1  0  0  0  0
  8 23  1  1  0  0  0
  9  1  1  0  0  0  0
 12  8  1  0  0  0  0
 13 18  1  1  0  0  0
 14  5  2  0  0  0  0
 15 20  1  0  0  0  0
 16  5  1  0  0  0  0
 16 12  1  0  0  0  0
 17 16  2  0  0  0  0
 18 10  1  0  0  0  0
 19 20  1  1  0  0  0
 19 10  1  0  0  0  0
 21 22  2  0  0  0  0
 22 23  1  0  0  0  0
 24 28  1  0  0  0  0
 24 27  1  6  0  0  0
 25 28  1  0  0  0  0
 29 26  1  6  0  0  0
 29 30  1  0  0  0  0
 29 31  1  0  0  0  0
 30 22  1  6  0  0  0
 30 25  1  0  0  0  0
 31 24  1  0  0  0  0
M  END
>  <MODEL>
4

>  <REMARK>
 VINA RESULT:      -6.3      3.567      6.657
  Name = 
  2 active torsions:
  status: ('A' for Active; 'I' for Inactive)
    1  A    between atoms: C_5  and  C_30
    2  A    between atoms: C_10  and  N_16
                            x       y       z     vdW  Elec       q    Type
                         _______ _______ _______ _____ _____    ______ ____

>  <TORSDO>
F 2

$$$$
=
 OpenBabel11122413253D

 31 35  0  0  1  0  0  0  0  0999 V2000
  160.8240  208.3860  154.6740 C   0  0  0  0  0  0  0  0  0  0  0  0
  162.0150  209.1960  151.1520 C   0  0  2  0  0  3  0  0  0  0  0  0
  161.2880  208.2170  150.1960 C   0  0  2  0  0  3  0  0  0  0  0  0
  160.4890  205.8620  149.8840 C   0  0  2  0  0  3  0  0  0  0  0  0
  161.3140  209.3240  152.4870 C   0  0  0  0  0  0  0  0  0  0  0  0
  159.9640  209.4520  154.9450 C   0  0  0  0  0  3  0  0  0  0  0  0
  161.2240  206.8150  150.8150 C   0  0  0  0  0  2  0  0  0  0  0  0
  160.8490  211.3160  150.4380 C   0  0  2  0  0  3  0  0  0  0  0  0
  161.0020  207.4090  155.5960 F   0  0  0  0  0  0  0  0  0  0  0  0
  161.9990  209.4610  148.2710 C   0  0  0  0  0  2  0  0  0  0  0  0
  160.5190  204.4630  150.4610 C   0  0  0  0  0  1  0  0  0  0  0  0
  160.3320  211.5880  151.8490 C   0  0  0  0  0  2  0  0  0  0  0  0
  162.1950  210.5780  150.4970 C   0  0  2  0  0  3  0  0  0  0  0  0
  161.4960  208.3240  153.4520 C   0  0  0  0  0  3  0  0  0  0  0  0
  161.1520  205.8640  148.5140 C   0  0  0  0  0  2  0  0  0  0  0  0
  160.4490  210.4070  152.7680 C   0  0  0  0  0  0  0  0  0  0  0  0
  159.7870  210.4630  153.9990 C   0  0  0  0  0  3  0  0  0  0  0  0
  162.8230  210.4270  149.1120 C   0  0  0  0  0  2  0  0  0  0  0  0
  161.9820  208.1420  148.8940 N   0  0  2  0  0  0  0  0  0  0  0  0
  161.2070  207.2930  147.9880 C   0  0  0  0  0  2  0  0  0  0  0  0
  159.9190  211.8330  147.7910 O   0  0  0  0  0  0  0  0  0  0  0  0
  160.4940  212.7760  148.4020 C   0  0  0  0  0  0  0  0  0  0  0  0
  160.9910  212.5800  149.7270 N   0  0  0  0  0  2  0  0  0  0  0  0
  160.9570  213.9020  144.8150 C   0  0  1  0  0  3  0  0  0  0  0  0
  159.5200  214.4520  146.7990 C   0  0  0  0  0  2  0  0  0  0  0  0
  163.0820  213.9010  147.8840 O   0  0  0  0  0  1  0  0  0  0  0  0
  161.0200  213.1660  143.6340 O   0  0  0  0  0  1  0  0  0  0  0  0
  159.6110  213.6610  145.4930 C   0  0  0  0  0  2  0  0  0  0  0  0
  162.0350  214.2750  147.0410 C   0  0  2  0  0  3  0  0  0  0  0  0
  160.6770  214.1140  147.7460 C   0  0  2  0  0  3  0  0  0  0  0  0
  162.0950  213.4800  145.7390 C   0  0  0  0  0  2  0  0  0  0  0  0
  1  6  1  0  0  0  0
  1  9  1  0  0  0  0
  2  5  1  1  0  0  0
  3  7  1  1  0  0  0
  3  2  1  0  0  0  0
  4 11  1  1  0  0  0
  4  7  1  0  0  0  0
  5 16  2  0  0  0  0
  5 14  1  0  0  0  0
  8 23  1  1  0  0  0
  8 13  1  0  0  0  0
  8 12  1  0  0  0  0
 10 19  1  0  0  0  0
 10 18  1  0  0  0  0
 12 16  1  0  0  0  0
 13 18  1  6  0  0  0
 13  2  1  0  0  0  0
 14  1  2  0  0  0  0
 15  4  1  0  0  0  0
 16 17  1  0  0  0  0
 17  6  2  0  0  0  0
 19 20  1  6  0  0  0
 19  3  1  0  0  0  0
 20 15  1  0  0  0  0
 21 22  2  0  0  0  0
 22 23  1  0  0  0  0
 24 27  1  6  0  0  0
 24 28  1  0  0  0  0
 24 31  1  0  0  0  0
 25 30  1  0  0  0  0
 28 25  1  0  0  0  0
 29 30  1  0  0  0  0
 29 26  1  1  0  0  0
 30 22  1  6  0  0  0
 31 29  1  0  0  0  0
M  END
>  <MODEL>
5

>  <REMARK>
 VINA RESULT:      -6.1      2.148      2.850
  Name = 
  2 active torsions:
  status: ('A' for Active; 'I' for Inactive)
    1  A    between atoms: C_5  and  C_30
    2  A    between atoms: C_10  and  N_16
                            x       y       z     vdW  Elec       q    Type
                         _______ _______ _______ _____ _____    ______ ____

>  <TORSDO>
F 2

$$$$
=
 OpenBabel11122413253D

 31 35  0  0  1  0  0  0  0  0999 V2000
  160.8590  201.4440  149.0350 C   0  0  0  0  0  0  0  0  0  0  0  0
  162.1710  204.9130  149.8880 C   0  0  2  0  0  3  0  0  0  0  0  0
  161.3980  205.9170  148.9970 C   0  0  2  0  0  3  0  0  0  0  0  0
  160.4480  206.3310  146.7150 C   0  0  2  0  0  3  0  0  0  0  0  0
  161.4540  203.5860  150.0160 C   0  0  0  0  0  0  0  0  0  0  0  0
  160.0690  201.1490  150.1470 C   0  0  0  0  0  3  0  0  0  0  0  0
  161.2280  205.3520  147.5810 C   0  0  0  0  0  2  0  0  0  0  0  0
  161.1660  205.5670  152.1080 C   0  0  2  0  0  3  0  0  0  0  0  0
  160.9520  200.5570  148.0150 F   0  0  0  0  0  0  0  0  0  0  0  0
  162.2300  207.7820  150.2590 C   0  0  0  0  0  2  0  0  0  0  0  0
  160.3720  205.8060  145.2970 C   0  0  0  0  0  1  0  0  0  0  0  0
  160.6410  204.1560  152.3630 C   0  0  0  0  0  2  0  0  0  0  0  0
  162.4570  205.5130  151.2780 C   0  0  2  0  0  3  0  0  0  0  0  0
  161.5490  202.6560  148.9710 C   0  0  0  0  0  3  0  0  0  0  0  0
  161.1370  207.6880  146.7210 C   0  0  0  0  0  2  0  0  0  0  0  0
  160.6600  203.2800  151.1450 C   0  0  0  0  0  0  0  0  0  0  0  0
  159.9790  202.0590  151.2020 C   0  0  0  0  0  3  0  0  0  0  0  0
  163.1010  206.8910  151.1340 C   0  0  0  0  0  2  0  0  0  0  0  0
  162.1120  207.2090  148.9220 N   0  0  2  0  0  0  0  0  0  0  0  0
  161.2990  208.1590  148.1610 C   0  0  0  0  0  2  0  0  0  0  0  0
  160.3860  208.2320  152.7590 O   0  0  0  0  0  0  0  0  0  0  0  0
  160.9820  207.5650  153.6490 C   0  0  0  0  0  0  0  0  0  0  0  0
  161.4080  206.2280  153.3840 N   0  0  0  0  0  2  0  0  0  0  0  0
  159.1370  210.0120  155.8750 C   0  0  1  0  0  3  0  0  0  0  0  0
  160.2220  207.7550  156.0400 C   0  0  0  0  0  2  0  0  0  0  0  0
  162.3420  210.0710  153.9640 O   0  0  0  0  0  1  0  0  0  0  0  0
  157.9240  210.6730  155.6880 O   0  0  0  0  0  1  0  0  0  0  0  0
  158.9030  208.5040  155.8460 C   0  0  0  0  0  2  0  0  0  0  0  0
  161.4430  209.6950  154.9630 C   0  0  2  0  0  3  0  0  0  0  0  0
  161.2660  208.1670  154.9950 C   0  0  2  0  0  3  0  0  0  0  0  0
  160.1110  210.4160  154.7740 C   0  0  0  0  0  2  0  0  0  0  0  0
  1  6  1  0  0  0  0
  2  5  1  1  0  0  0
  2 13  1  0  0  0  0
  3  7  1  6  0  0  0
  3  2  1  0  0  0  0
  4 11  1  6  0  0  0
  4 15  1  0  0  0  0
  4  7  1  0  0  0  0
  5 16  2  0  0  0  0
  6 17  2  0  0  0  0
  8 12  1  0  0  0  0
  8 23  1  1  0  0  0
  9  1  1  0  0  0  0
 10 18  1  0  0  0  0
 13 18  1  6  0  0  0
 13  8  1  0  0  0  0
 14  1  2  0  0  0  0
 14  5  1  0  0  0  0
 15 20  1  0  0  0  0
 16 17  1  0  0  0  0
 16 12  1  0  0  0  0
 19 20  1  6  0  0  0
 19  3  1  0  0  0  0
 19 10  1  0  0  0  0
 21 22  2  0  0  0  0
 23 22  1  0  0  0  0
 24 27  1  6  0  0  0
 28 24  1  0  0  0  0
 28 25  1  0  0  0  0
 29 26  1  6  0  0  0
 29 30  1  0  0  0  0
 30 22  1  6  0  0  0
 30 25  1  0  0  0  0
 31 29  1  0  0  0  0
 31 24  1  0  0  0  0
M  END
>  <MODEL>
6

>  <REMARK>
 VINA RESULT:      -5.9      4.181      6.623
  Name = 
  2 active torsions:
  status: ('A' for Active; 'I' for Inactive)
    1  A    between atoms: C_5  and  C_30
    2  A    between atoms: C_10  and  N_16
                            x       y       z     vdW  Elec       q    Type
                         _______ _______ _______ _____ _____    ______ ____

>  <TORSDO>
F 2

$$$$
=
 OpenBabel11122413253D

 31 35  0  0  1  0  0  0  0  0999 V2000
  161.5870  202.6120  151.6360 C   0  0  0  0  0  0  0  0  0  0  0  0
  162.2610  206.0510  150.1540 C   0  0  2  0  0  3  0  0  0  0  0  0
  161.5020  206.1150  148.8050 C   0  0  2  0  0  3  0  0  0  0  0  0
  160.8660  204.8410  146.7430 C   0  0  2  0  0  3  0  0  0  0  0  0
  161.7230  204.9690  151.0660 C   0  0  0  0  0  0  0  0  0  0  0  0
  160.6840  202.9050  152.6590 C   0  0  0  0  0  3  0  0  0  0  0  0
  161.6310  204.7820  148.0570 C   0  0  0  0  0  2  0  0  0  0  0  0
  160.8460  207.7050  151.4310 C   0  0  2  0  0  3  0  0  0  0  0  0
  161.9570  201.3290  151.4070 F   0  0  0  0  0  0  0  0  0  0  0  0
  161.8650  208.4820  148.6360 C   0  0  0  0  0  2  0  0  0  0  0  0
  161.0800  203.5560  145.9720 C   0  0  0  0  0  1  0  0  0  0  0  0
  160.4890  206.6760  152.5020 C   0  0  0  0  0  2  0  0  0  0  0  0
  162.2440  207.4180  150.8640 C   0  0  2  0  0  3  0  0  0  0  0  0
  162.1050  203.6390  150.8450 C   0  0  0  0  0  3  0  0  0  0  0  0
  161.3500  206.0220  145.9150 C   0  0  0  0  0  2  0  0  0  0  0  0
  160.8140  205.2650  152.1090 C   0  0  0  0  0  0  0  0  0  0  0  0
  160.3080  204.2280  152.9000 C   0  0  0  0  0  3  0  0  0  0  0  0
  162.7060  208.5150  149.9050 C   0  0  0  0  0  2  0  0  0  0  0  0
  162.0330  207.2020  147.9550 N   0  0  2  0  0  0  0  0  0  0  0  0
  161.2230  207.2960  146.7410 C   0  0  0  0  0  2  0  0  0  0  0  0
  161.2060  208.3150  154.1940 O   0  0  0  0  0  0  0  0  0  0  0  0
  160.9940  209.2790  153.4070 C   0  0  0  0  0  0  0  0  0  0  0  0
  160.7960  209.0400  152.0130 N   0  0  0  0  0  2  0  0  0  0  0  0
  158.1890  211.5060  154.6410 C   0  0  1  0  0  3  0  0  0  0  0  0
  160.4640  210.7460  155.3800 C   0  0  0  0  0  2  0  0  0  0  0  0
  160.4840  211.5260  151.6970 O   0  0  0  0  0  1  0  0  0  0  0  0
  156.8210  211.2630  154.7580 O   0  0  0  0  0  1  0  0  0  0  0  0
  158.9590  210.5070  155.5000 C   0  0  0  0  0  2  0  0  0  0  0  0
  160.1020  211.6330  153.0350 C   0  0  2  0  0  3  0  0  0  0  0  0
  160.9320  210.6870  153.9210 C   0  0  2  0  0  3  0  0  0  0  0  0
  158.6040  211.3740  153.1790 C   0  0  0  0  0  2  0  0  0  0  0  0
  1  6  1  0  0  0  0
  2 13  1  0  0  0  0
  2  5  1  1  0  0  0
  3  7  1  6  0  0  0
  3  2  1  0  0  0  0
  4 11  1  6  0  0  0
  4  7  1  0  0  0  0
  5 16  2  0  0  0  0
  6 17  2  0  0  0  0
  8 23  1  1  0  0  0
  8 12  1  0  0  0  0
  9  1  1  0  0  0  0
 10 18  1  0  0  0  0
 13 18  1  6  0  0  0
 13  8  1  0  0  0  0
 14  5  1  0  0  0  0
 14  1  2  0  0  0  0
 15 20  1  0  0  0  0
 15  4  1  0  0  0  0
 16 12  1  0  0  0  0
 16 17  1  0  0  0  0
 19 20  1  6  0  0  0
 19 10  1  0  0  0  0
 19  3  1  0  0  0  0
 22 21  2  0  0  0  0
 23 22  1  0  0  0  0
 24 27  1  6  0  0  0
 24 28  1  0  0  0  0
 25 28  1  0  0  0  0
 29 26  1  6  0  0  0
 29 31  1  0  0  0  0
 29 30  1  0  0  0  0
 30 22  1  6  0  0  0
 30 25  1  0  0  0  0
 31 24  1  0  0  0  0
M  END
>  <MODEL>
7

>  <REMARK>
 VINA RESULT:      -5.2      3.094      4.998
  Name = 
  2 active torsions:
  status: ('A' for Active; 'I' for Inactive)
    1  A    between atoms: C_5  and  C_30
    2  A    between atoms: C_10  and  N_16
                            x       y       z     vdW  Elec       q    Type
                         _______ _______ _______ _____ _____    ______ ____

>  <TORSDO>
F 2

$$$$
=
 OpenBabel11122413253D

 31 35  0  0  1  0  0  0  0  0999 V2000
  162.1120  213.3850  147.3880 C   0  0  0  0  0  0  0  0  0  0  0  0
  159.6130  214.0440  150.1810 C   0  0  2  0  0  3  0  0  0  0  0  0
  158.2100  213.7130  149.6150 C   0  0  2  0  0  3  0  0  0  0  0  0
  156.7130  213.8680  147.6100 C   0  0  2  0  0  3  0  0  0  0  0  0
  160.7240  213.3970  149.3810 C   0  0  0  0  0  0  0  0  0  0  0  0
  162.7090  212.1930  147.8030 C   0  0  0  0  0  3  0  0  0  0  0  0
  158.0850  214.2150  148.1700 C   0  0  0  0  0  2  0  0  0  0  0  0
  159.7940  212.1290  151.8130 C   0  0  2  0  0  3  0  0  0  0  0  0
  162.4870  213.9580  146.2190 F   0  0  0  0  0  0  0  0  0  0  0  0
  157.2270  213.8220  151.8010 C   0  0  0  0  0  2  0  0  0  0  0  0
  156.5690  214.4530  146.2210 C   0  0  0  0  0  1  0  0  0  0  0  0
  161.0670  211.6000  151.1550 C   0  0  0  0  0  2  0  0  0  0  0  0
  159.7160  213.6560  151.6670 C   0  0  2  0  0  3  0  0  0  0  0  0
  161.1270  213.9840  148.1740 C   0  0  0  0  0  3  0  0  0  0  0  0
  155.6270  214.4290  148.5160 C   0  0  0  0  0  2  0  0  0  0  0  0
  161.3350  212.1940  149.8040 C   0  0  0  0  0  0  0  0  0  0  0  0
  162.3280  211.6070  149.0120 C   0  0  0  0  0  3  0  0  0  0  0  0
  158.5400  214.2430  152.4480 C   0  0  0  0  0  2  0  0  0  0  0  0
  157.1510  214.3350  150.4380 N   0  0  2  0  0  0  0  0  0  0  0  0
  155.8450  213.9110  149.9330 C   0  0  0  0  0  2  0  0  0  0  0  0
  160.1700  209.4830  152.8090 O   0  0  0  0  0  0  0  0  0  0  0  0
  159.9910  210.4040  153.6530 C   0  0  0  0  0  0  0  0  0  0  0  0
  159.7870  211.7490  153.2200 N   0  0  0  0  0  2  0  0  0  0  0  0
  159.3640  212.4820  156.7570 C   0  0  1  0  0  3  0  0  0  0  0  0
  158.5900  210.3220  155.7410 C   0  0  0  0  0  2  0  0  0  0  0  0
  162.3110  210.7020  155.3150 O   0  0  0  0  0  1  0  0  0  0  0  0
  159.0670  213.8360  156.8990 O   0  0  0  0  0  1  0  0  0  0  0  0
  158.2810  211.8090  155.9190 C   0  0  0  0  0  2  0  0  0  0  0  0
  161.0610  210.8480  155.9180 C   0  0  2  0  0  3  0  0  0  0  0  0
  159.9750  210.1010  155.1230 C   0  0  2  0  0  3  0  0  0  0  0  0
  160.7240  212.3270  156.0850 C   0  0  0  0  0  2  0  0  0  0  0  0
  1  6  2  0  0  0  0
  1 14  1  0  0  0  0
  2  5  1  6  0  0  0
  2 13  1  0  0  0  0
  3  7  1  6  0  0  0
  3  2  1  0  0  0  0
  3 19  1  0  0  0  0
  4 11  1  6  0  0  0
  4  7  1  0  0  0  0
  4 15  1  0  0  0  0
  5 16  1  0  0  0  0
  6 17  1  0  0  0  0
  8 23  1  1  0  0  0
  9  1  1  0  0  0  0
 10 18  1  0  0  0  0
 12  8  1  0  0  0  0
 13  8  1  0  0  0  0
 13 18  1  1  0  0  0
 14  5  2  0  0  0  0
 15 20  1  0  0  0  0
 16 12  1  0  0  0  0
 17 16  2  0  0  0  0
 19 20  1  6  0  0  0
 19 10  1  0  0  0  0
 21 22  2  0  0  0  0
 23 22  1  0  0  0  0
 24 27  1  6  0  0  0
 25 28  1  0  0  0  0
 28 24  1  0  0  0  0
 29 26  1  6  0  0  0
 29 31  1  0  0  0  0
 30 22  1  6  0  0  0
 30 25  1  0  0  0  0
 30 29  1  0  0  0  0
 31 24  1  0  0  0  0
M  END
>  <MODEL>
8

>  <REMARK>
 VINA RESULT:      -5.2      4.253      7.971
  Name = 
  2 active torsions:
  status: ('A' for Active; 'I' for Inactive)
    1  A    between atoms: C_5  and  C_30
    2  A    between atoms: C_10  and  N_16
                            x       y       z     vdW  Elec       q    Type
                         _______ _______ _______ _____ _____    ______ ____

>  <TORSDO>
F 2

$$$$
=
 OpenBabel11122413253D

 31 35  0  0  1  0  0  0  0  0999 V2000
  161.3720  202.3870  151.3810 C   0  0  0  0  0  0  0  0  0  0  0  0
  162.2700  205.7420  149.8250 C   0  0  2  0  0  3  0  0  0  0  0  0
  161.5200  205.8240  148.4720 C   0  0  2  0  0  3  0  0  0  0  0  0
  160.8070  204.5460  146.4370 C   0  0  2  0  0  3  0  0  0  0  0  0
  161.6610  204.7180  150.7590 C   0  0  0  0  0  0  0  0  0  0  0  0
  160.4880  202.7620  152.3950 C   0  0  0  0  0  3  0  0  0  0  0  0
  161.5640  204.4680  147.7540 C   0  0  0  0  0  2  0  0  0  0  0  0
  160.9620  207.5120  151.0590 C   0  0  2  0  0  3  0  0  0  0  0  0
  161.6600  201.0780  151.1830 F   0  0  0  0  0  0  0  0  0  0  0  0
  162.0350  208.1570  148.2500 C   0  0  0  0  0  2  0  0  0  0  0  0
  160.9410  203.2330  145.6960 C   0  0  0  0  0  1  0  0  0  0  0  0
  160.5360  206.5330  152.1510 C   0  0  0  0  0  2  0  0  0  0  0  0
  162.3400  207.1230  150.5030 C   0  0  2  0  0  3  0  0  0  0  0  0
  161.9570  203.3610  150.5700 C   0  0  0  0  0  3  0  0  0  0  0  0
  161.3690  205.6740  145.5830 C   0  0  0  0  0  2  0  0  0  0  0  0
  160.7710  205.0950  151.7910 C   0  0  0  0  0  0  0  0  0  0  0  0
  160.1980  204.1110  152.6040 C   0  0  0  0  0  3  0  0  0  0  0  0
  162.8730  208.1650  149.5210 C   0  0  0  0  0  2  0  0  0  0  0  0
  162.1210  206.8540  147.6000 N   0  0  2  0  0  0  0  0  0  0  0  0
  161.3220  206.9720  146.3800 C   0  0  0  0  0  2  0  0  0  0  0  0
  161.6080  208.1750  153.7560 O   0  0  0  0  0  0  0  0  0  0  0  0
  161.3370  209.1250  152.9710 C   0  0  0  0  0  0  0  0  0  0  0  0
  160.9960  208.8600  151.6100 N   0  0  0  0  0  2  0  0  0  0  0  0
  160.1420  210.8420  156.1290 C   0  0  1  0  0  3  0  0  0  0  0  0
  162.2110  210.7130  154.7150 C   0  0  0  0  0  2  0  0  0  0  0  0
  159.1530  210.9340  152.5310 O   0  0  0  0  0  1  0  0  0  0  0  0
  159.5100  210.3260  157.2600 O   0  0  0  0  0  1  0  0  0  0  0  0
  161.5020  210.1710  155.9560 C   0  0  0  0  0  2  0  0  0  0  0  0
  159.9530  211.1480  153.6540 C   0  0  2  0  0  3  0  0  0  0  0  0
  161.3550  210.5460  153.4540 C   0  0  2  0  0  3  0  0  0  0  0  0
  159.2710  210.5930  154.9020 C   0  0  0  0  0  2  0  0  0  0  0  0
  1  6  1  0  0  0  0
  2 13  1  0  0  0  0
  2  5  1  1  0  0  0
  3  7  1  6  0  0  0
  3  2  1  0  0  0  0
  4 11  1  6  0  0  0
  4  7  1  0  0  0  0
  5 16  2  0  0  0  0
  6 17  2  0  0  0  0
  8 23  1  1  0  0  0
  8 12  1  0  0  0  0
  9  1  1  0  0  0  0
 10 18  1  0  0  0  0
 13 18  1  6  0  0  0
 13  8  1  0  0  0  0
 14  5  1  0  0  0  0
 14  1  2  0  0  0  0
 15 20  1  0  0  0  0
 15  4  1  0  0  0  0
 16 12  1  0  0  0  0
 16 17  1  0  0  0  0
 19 20  1  6  0  0  0
 19 10  1  0  0  0  0
 19  3  1  0  0  0  0
 22 21  2  0  0  0  0
 23 22  1  0  0  0  0
 24 27  1  1  0  0  0
 25 28  1  0  0  0  0
 28 24  1  0  0  0  0
 29 26  1  6  0  0  0
 29 31  1  0  0  0  0
 30 22  1  1  0  0  0
 30 29  1  0  0  0  0
 30 25  1  0  0  0  0
 31 24  1  0  0  0  0
M  END
>  <MODEL>
9

>  <REMARK>
 VINA RESULT:      -5.1      3.420      5.667
  Name = 
  2 active torsions:
  status: ('A' for Active; 'I' for Inactive)
    1  A    between atoms: C_5  and  C_30
    2  A    between atoms: C_10  and  N_16
                            x       y       z     vdW  Elec       q    Type
                         _______ _______ _______ _____ _____    ______ ____

>  <TORSDO>
F 2

$$$$
