=
 OpenBabel11122414073D

 28 32  0  0  1  0  0  0  0  0999 V2000
  157.9550  211.2040  156.4740 C   0  0  0  0  0  0  0  0  0  0  0  0
  161.7830  208.2430  155.6520 F   0  0  0  0  0  0  0  0  0  0  0  0
  158.7860  212.4510  151.7630 C   0  0  0  0  0  1  0  0  0  0  0  0
  155.8380  210.2170  154.9240 C   0  0  0  0  0  3  0  0  0  0  0  0
  160.7910  211.0600  152.0540 C   0  0  0  0  0  0  0  0  0  0  0  0
  159.0760  211.8180  157.2610 C   0  0  0  0  0  2  0  0  0  0  0  0
  160.0410  206.8960  156.1700 O   0  0  0  0  0  1  0  0  0  0  0  0
  160.7050  207.5440  155.1290 C   0  0  1  0  0  0  0  0  0  0  0  0
  161.7790  207.2150  152.9300 C   0  0  1  0  0  3  0  0  0  0  0  0
  159.7180  208.4910  154.4140 C   0  0  2  0  0  3  0  0  0  0  0  0
  158.4180  214.4530  155.1200 O   0  0  0  0  0  0  0  0  0  0  0  0
  160.5190  210.8320  154.3630 C   0  0  1  0  0  3  0  0  0  0  0  0
  160.7240  207.8270  152.2280 O   0  0  0  0  0  0  0  0  0  0  0  0
  161.2360  206.5000  154.1590 C   0  0  0  0  0  2  0  0  0  0  0  0
  159.2590  213.7030  155.5870 C   0  0  0  0  0  0  0  0  0  0  0  0
  158.2170  210.2880  155.4310 C   0  0  0  0  0  0  0  0  0  0  0  0
  160.0870  212.2710  152.5260 C   0  0  2  0  0  3  0  0  0  0  0  0
  162.4670  206.2130  152.0300 C   0  0  0  0  0  1  0  0  0  0  0  0
  160.3280  213.1500  154.7010 C   0  0  0  0  0  2  0  0  0  0  0  0
  157.1470  209.8170  154.6520 C   0  0  0  0  0  3  0  0  0  0  0  0
  156.6360  211.5920  156.7450 C   0  0  0  0  0  3  0  0  0  0  0  0
  155.5810  211.0980  155.9750 C   0  0  0  0  0  3  0  0  0  0  0  0
  159.1920  213.3310  157.0390 C   0  0  0  0  0  2  0  0  0  0  0  0
  161.0540  210.1030  153.1370 C   0  0  1  0  0  3  0  0  0  0  0  0
  159.7860  212.0360  153.9380 N   0  0  2  0  0  0  0  0  0  0  0  0
  160.1690  208.8770  153.0010 C   0  0  2  0  0  3  0  0  0  0  0  0
  161.1650  210.8980  150.9030 O   0  0  0  0  0  0  0  0  0  0  0  0
  159.6360  209.8320  155.1460 C   0  0  1  0  0  3  0  0  0  0  0  0
  1 21  1  0  0  0  0
  1  6  1  0  0  0  0
  3 17  1  0  0  0  0
  4 22  1  0  0  0  0
  5 17  1  0  0  0  0
  5 24  1  0  0  0  0
  8  2  1  1  0  0  0
  8  7  1  0  0  0  0
  9 18  1  6  0  0  0
  9 14  1  0  0  0  0
 10  8  1  0  0  0  0
 10 28  1  0  0  0  0
 11 15  2  0  0  0  0
 12 28  1  0  0  0  0
 13  9  1  0  0  0  0
 13 26  1  0  0  0  0
 14  8  1  0  0  0  0
 15 23  1  0  0  0  0
 16  1  2  0  0  0  0
 17 25  1  0  0  0  0
 19 15  1  0  0  0  0
 20  4  2  0  0  0  0
 20 16  1  0  0  0  0
 22 21  2  0  0  0  0
 23  6  1  0  0  0  0
 24 12  1  0  0  0  0
 25 12  1  0  0  0  0
 25 19  1  0  0  0  0
 26 24  1  0  0  0  0
 26 10  1  0  0  0  0
 27  5  2  0  0  0  0
 28 16  1  0  0  0  0
M  END
>  <MODEL>
1

>  <REMARK>
 VINA RESULT:      -2.0      0.000      0.000
  Name = 
  0 active torsions:
  status: ('A' for Active; 'I' for Inactive)
                            x       y       z     vdW  Elec       q    Type
                         _______ _______ _______ _____ _____    ______ ____

>  <TORSDO>
F 0

$$$$
=
 OpenBabel11122414073D

 28 32  0  0  1  0  0  0  0  0999 V2000
  156.4720  211.4930  156.5050 C   0  0  0  0  0  0  0  0  0  0  0  0
  161.2340  211.2060  155.3520 F   0  0  0  0  0  0  0  0  0  0  0  0
  156.1370  213.0360  151.8200 C   0  0  0  0  0  1  0  0  0  0  0  0
  155.1720  209.5010  155.0220 C   0  0  0  0  0  3  0  0  0  0  0  0
  158.5910  213.0100  151.9430 C   0  0  0  0  0  0  0  0  0  0  0  0
  157.1070  212.6250  157.2610 C   0  0  0  0  0  2  0  0  0  0  0  0
  160.5880  209.1080  155.8970 O   0  0  0  0  0  1  0  0  0  0  0  0
  160.7020  210.0260  154.8530 C   0  0  1  0  0  0  0  0  0  0  0  0
  161.6210  210.3790  152.5900 C   0  0  1  0  0  3  0  0  0  0  0  0
  159.3070  210.2610  154.2350 C   0  0  2  0  0  3  0  0  0  0  0  0
  154.9400  214.4530  155.2800 O   0  0  0  0  0  0  0  0  0  0  0  0
  158.6530  212.6480  154.2500 C   0  0  1  0  0  3  0  0  0  0  0  0
  160.3600  210.2970  151.9720 O   0  0  0  0  0  0  0  0  0  0  0  0
  161.6580  209.4710  153.8100 C   0  0  0  0  0  2  0  0  0  0  0  0
  156.0870  214.3010  155.6680 C   0  0  0  0  0  0  0  0  0  0  0  0
  157.1310  210.8930  155.4090 C   0  0  0  0  0  0  0  0  0  0  0  0
  157.3640  213.6110  152.5060 C   0  0  2  0  0  3  0  0  0  0  0  0
  162.6900  209.9450  151.6100 C   0  0  0  0  0  1  0  0  0  0  0  0
  157.2180  214.4530  154.7040 C   0  0  0  0  0  2  0  0  0  0  0  0
  156.4580  209.9090  154.6650 C   0  0  0  0  0  3  0  0  0  0  0  0
  155.1850  211.0700  156.8610 C   0  0  0  0  0  3  0  0  0  0  0  0
  154.5380  210.0750  156.1250 C   0  0  0  0  0  3  0  0  0  0  0  0
  156.3390  213.9420  157.1030 C   0  0  0  0  0  2  0  0  0  0  0  0
  159.4190  212.3560  152.9660 C   0  0  1  0  0  3  0  0  0  0  0  0
  157.3440  213.2340  153.9190 N   0  0  2  0  0  0  0  0  0  0  0  0
  159.3670  210.8460  152.8200 C   0  0  2  0  0  3  0  0  0  0  0  0
  158.9120  213.0970  150.7680 O   0  0  0  0  0  0  0  0  0  0  0  0
  158.5380  211.3170  155.0310 C   0  0  1  0  0  3  0  0  0  0  0  0
  1 21  1  0  0  0  0
  1  6  1  0  0  0  0
  3 17  1  0  0  0  0
  4 22  1  0  0  0  0
  5 17  1  0  0  0  0
  5 24  1  0  0  0  0
  8  2  1  1  0  0  0
  8  7  1  0  0  0  0
  9 18  1  6  0  0  0
  9 14  1  0  0  0  0
 10  8  1  0  0  0  0
 10 28  1  0  0  0  0
 11 15  2  0  0  0  0
 12 28  1  0  0  0  0
 13  9  1  0  0  0  0
 13 26  1  0  0  0  0
 14  8  1  0  0  0  0
 15 23  1  0  0  0  0
 16  1  2  0  0  0  0
 17 25  1  0  0  0  0
 19 15  1  0  0  0  0
 20  4  2  0  0  0  0
 20 16  1  0  0  0  0
 22 21  2  0  0  0  0
 23  6  1  0  0  0  0
 24 12  1  0  0  0  0
 25 12  1  0  0  0  0
 25 19  1  0  0  0  0
 26 24  1  0  0  0  0
 26 10  1  0  0  0  0
 27  5  2  0  0  0  0
 28 16  1  0  0  0  0
M  END
>  <MODEL>
2

>  <REMARK>
 VINA RESULT:      -1.8      1.990      2.575
  Name = 
  0 active torsions:
  status: ('A' for Active; 'I' for Inactive)
                            x       y       z     vdW  Elec       q    Type
                         _______ _______ _______ _____ _____    ______ ____

>  <TORSDO>
F 0

$$$$
=
 OpenBabel11122414073D

 28 32  0  0  1  0  0  0  0  0999 V2000
  160.7190  209.3310  156.1670 C   0  0  0  0  0  0  0  0  0  0  0  0
  157.1720  211.5120  153.5680 F   0  0  0  0  0  0  0  0  0  0  0  0
  163.0880  209.5620  151.8340 C   0  0  0  0  0  1  0  0  0  0  0  0
  162.7950  211.2000  156.4060 C   0  0  0  0  0  3  0  0  0  0  0  0
  160.9010  210.3200  151.0100 C   0  0  0  0  0  0  0  0  0  0  0  0
  159.6720  208.2680  156.0010 C   0  0  0  0  0  2  0  0  0  0  0  0
  157.7150  212.9500  155.2270 O   0  0  0  0  0  1  0  0  0  0  0  0
  158.0130  212.5570  153.9220 C   0  0  1  0  0  0  0  0  0  0  0  0
  158.2630  213.3570  151.6010 C   0  0  1  0  0  3  0  0  0  0  0  0
  159.4950  212.1310  153.8500 C   0  0  2  0  0  3  0  0  0  0  0  0
  162.2960  206.6910  154.3910 O   0  0  0  0  0  0  0  0  0  0  0  0
  159.7780  209.8250  152.9980 C   0  0  1  0  0  3  0  0  0  0  0  0
  159.6660  213.2500  151.6250 O   0  0  0  0  0  0  0  0  0  0  0  0
  157.7490  213.7240  152.9850 C   0  0  0  0  0  2  0  0  0  0  0  0
  161.1300  207.0480  154.3350 C   0  0  0  0  0  0  0  0  0  0  0  0
  160.7450  210.4620  155.3210 C   0  0  0  0  0  0  0  0  0  0  0  0
  161.6250  209.2000  151.6470 C   0  0  2  0  0  3  0  0  0  0  0  0
  157.8580  214.4300  150.6130 C   0  0  0  0  0  1  0  0  0  0  0  0
  160.5950  207.6220  153.0640 C   0  0  0  0  0  2  0  0  0  0  0  0
  161.8020  211.3800  155.4410 C   0  0  0  0  0  3  0  0  0  0  0  0
  161.7150  209.1650  157.1380 C   0  0  0  0  0  3  0  0  0  0  0  0
  162.7470  210.0980  157.2600 C   0  0  0  0  0  3  0  0  0  0  0  0
  160.2620  206.9260  155.5530 C   0  0  0  0  0  2  0  0  0  0  0  0
  159.7650  210.7870  151.8170 C   0  0  1  0  0  3  0  0  0  0  0  0
  161.0060  209.0140  152.9580 N   0  0  2  0  0  0  0  0  0  0  0  0
  160.0560  212.1480  152.4240 C   0  0  2  0  0  3  0  0  0  0  0  0
  161.1780  210.7700  149.9090 O   0  0  0  0  0  0  0  0  0  0  0  0
  159.6560  210.6740  154.2860 C   0  0  1  0  0  3  0  0  0  0  0  0
  1 21  1  0  0  0  0
  4 22  1  0  0  0  0
  5 17  1  0  0  0  0
  5 24  1  0  0  0  0
  6  1  1  0  0  0  0
  8  2  1  6  0  0  0
  8  7  1  0  0  0  0
  9 18  1  6  0  0  0
  9 13  1  0  0  0  0
  9 14  1  0  0  0  0
 10  8  1  0  0  0  0
 10 28  1  0  0  0  0
 12 28  1  0  0  0  0
 13 26  1  0  0  0  0
 14  8  1  0  0  0  0
 15 11  2  0  0  0  0
 15 23  1  0  0  0  0
 16 20  1  0  0  0  0
 16  1  2  0  0  0  0
 17  3  1  0  0  0  0
 17 25  1  0  0  0  0
 19 15  1  0  0  0  0
 20  4  2  0  0  0  0
 21 22  2  0  0  0  0
 23  6  1  0  0  0  0
 24 26  1  0  0  0  0
 24 12  1  0  0  0  0
 25 12  1  0  0  0  0
 25 19  1  0  0  0  0
 26 10  1  0  0  0  0
 27  5  2  0  0  0  0
 28 16  1  0  0  0  0
M  END
>  <MODEL>
3

>  <REMARK>
 VINA RESULT:      -1.6      2.453      5.466
  Name = 
  0 active torsions:
  status: ('A' for Active; 'I' for Inactive)
                            x       y       z     vdW  Elec       q    Type
                         _______ _______ _______ _____ _____    ______ ____

>  <TORSDO>
F 0

$$$$
=
 OpenBabel11122414073D

 28 32  0  0  1  0  0  0  0  0999 V2000
  161.8200  209.9180  154.0290 C   0  0  0  0  0  0  0  0  0  0  0  0
  160.9210  213.8230  151.1940 F   0  0  0  0  0  0  0  0  0  0  0  0
  157.0550  210.5300  155.1970 C   0  0  0  0  0  1  0  0  0  0  0  0
  160.3710  207.7850  152.9280 C   0  0  0  0  0  3  0  0  0  0  0  0
  157.3010  212.5960  153.8890 C   0  0  0  0  0  0  0  0  0  0  0  0
  162.5510  211.0430  154.7020 C   0  0  0  0  0  2  0  0  0  0  0  0
  161.5320  212.1540  149.7960 O   0  0  0  0  0  1  0  0  0  0  0  0
  160.4530  212.7550  150.4430 C   0  0  1  0  0  0  0  0  0  0  0  0
  158.2240  213.7600  150.1040 C   0  0  1  0  0  3  0  0  0  0  0  0
  159.7550  211.7070  151.3370 C   0  0  2  0  0  3  0  0  0  0  0  0
  160.3800  210.2080  157.2610 O   0  0  0  0  0  0  0  0  0  0  0  0
  159.6240  212.4170  153.7040 C   0  0  1  0  0  3  0  0  0  0  0  0
  157.5480  212.6570  150.6600 O   0  0  0  0  0  0  0  0  0  0  0  0
  159.4870  213.2890  149.3980 C   0  0  0  0  0  2  0  0  0  0  0  0
  160.8310  211.0930  156.5530 C   0  0  0  0  0  0  0  0  0  0  0  0
  160.7880  210.1770  153.0990 C   0  0  0  0  0  0  0  0  0  0  0  0
  157.7730  211.8640  155.0830 C   0  0  2  0  0  3  0  0  0  0  0  0
  157.3200  214.4530  149.1080 C   0  0  0  0  0  1  0  0  0  0  0  0
  159.9180  212.1490  156.0200 C   0  0  0  0  0  2  0  0  0  0  0  0
  160.0590  209.0980  152.5710 C   0  0  0  0  0  3  0  0  0  0  0  0
  162.1310  208.5960  154.3730 C   0  0  0  0  0  3  0  0  0  0  0  0
  161.4120  207.5330  153.8230 C   0  0  0  0  0  3  0  0  0  0  0  0
  162.2920  211.0930  156.2120 C   0  0  0  0  0  2  0  0  0  0  0  0
  158.3950  212.9340  152.9670 C   0  0  1  0  0  3  0  0  0  0  0  0
  159.2000  211.6230  154.8690 N   0  0  2  0  0  0  0  0  0  0  0  0
  158.3190  212.0920  151.7060 C   0  0  2  0  0  3  0  0  0  0  0  0
  156.1410  212.9330  153.7140 O   0  0  0  0  0  0  0  0  0  0  0  0
  160.4600  211.6010  152.6900 C   0  0  1  0  0  3  0  0  0  0  0  0
  1 21  1  0  0  0  0
  1  6  1  0  0  0  0
  4 22  1  0  0  0  0
  5 17  1  0  0  0  0
  6 23  1  0  0  0  0
  8  7  1  6  0  0  0
  8  2  1  0  0  0  0
  8 10  1  0  0  0  0
  9 18  1  6  0  0  0
  9 13  1  0  0  0  0
 10 26  1  0  0  0  0
 10 28  1  0  0  0  0
 12 25  1  0  0  0  0
 13 26  1  0  0  0  0
 14  9  1  0  0  0  0
 14  8  1  0  0  0  0
 15 11  2  0  0  0  0
 16  1  2  0  0  0  0
 17  3  1  0  0  0  0
 19 15  1  0  0  0  0
 20  4  2  0  0  0  0
 20 16  1  0  0  0  0
 22 21  2  0  0  0  0
 23 15  1  0  0  0  0
 24 12  1  0  0  0  0
 24  5  1  0  0  0  0
 25 17  1  0  0  0  0
 25 19  1  0  0  0  0
 26 24  1  0  0  0  0
 27  5  2  0  0  0  0
 28 16  1  0  0  0  0
 28 12  1  0  0  0  0
M  END
>  <MODEL>
4

>  <REMARK>
 VINA RESULT:      -0.6      2.425      5.494
  Name = 
  0 active torsions:
  status: ('A' for Active; 'I' for Inactive)
                            x       y       z     vdW  Elec       q    Type
                         _______ _______ _______ _____ _____    ______ ____

>  <TORSDO>
F 0

$$$$
=
 OpenBabel11122414073D

 28 32  0  0  1  0  0  0  0  0999 V2000
  157.9290  212.4100  155.6490 C   0  0  0  0  0  0  0  0  0  0  0  0
  157.4280  212.2970  150.7680 F   0  0  0  0  0  0  0  0  0  0  0  0
  162.4550  210.7620  154.5340 C   0  0  0  0  0  1  0  0  0  0  0  0
  159.7640  214.4520  156.2140 C   0  0  0  0  0  3  0  0  0  0  0  0
  161.5210  210.6030  152.2670 C   0  0  0  0  0  0  0  0  0  0  0  0
  157.0030  211.2550  155.3970 C   0  0  0  0  0  2  0  0  0  0  0  0
  157.1340  214.4530  151.3840 O   0  0  0  0  0  1  0  0  0  0  0  0
  158.0780  213.4990  151.0060 C   0  0  1  0  0  0  0  0  0  0  0  0
  159.9050  213.0110  149.4190 C   0  0  1  0  0  3  0  0  0  0  0  0
  159.1260  213.3540  152.1300 C   0  0  2  0  0  3  0  0  0  0  0  0
  159.5900  209.5420  156.9250 O   0  0  0  0  0  0  0  0  0  0  0  0
  159.3260  211.0260  152.9460 C   0  0  1  0  0  3  0  0  0  0  0  0
  160.9080  213.1710  150.3920 O   0  0  0  0  0  0  0  0  0  0  0  0
  158.7430  213.9490  149.7150 C   0  0  0  0  0  2  0  0  0  0  0  0
  158.8420  209.6160  155.9640 C   0  0  0  0  0  0  0  0  0  0  0  0
  158.7440  212.9250  154.6170 C   0  0  0  0  0  0  0  0  0  0  0  0
  161.3980  210.1150  153.6570 C   0  0  2  0  0  3  0  0  0  0  0  0
  160.4730  213.3330  148.0530 C   0  0  0  0  0  1  0  0  0  0  0  0
  159.3730  209.3500  154.5930 C   0  0  0  0  0  2  0  0  0  0  0  0
  159.6710  213.9360  154.9210 C   0  0  0  0  0  3  0  0  0  0  0  0
  158.0240  212.9400  156.9420 C   0  0  0  0  0  3  0  0  0  0  0  0
  158.9350  213.9610  157.2230 C   0  0  0  0  0  3  0  0  0  0  0  0
  157.4050  209.9970  156.1740 C   0  0  0  0  0  2  0  0  0  0  0  0
  160.2810  211.2210  151.7760 C   0  0  1  0  0  3  0  0  0  0  0  0
  160.0730  210.5320  154.1140 N   0  0  2  0  0  0  0  0  0  0  0  0
  160.4390  212.7250  151.6520 C   0  0  2  0  0  3  0  0  0  0  0  0
  162.5210  210.4580  151.5820 O   0  0  0  0  0  0  0  0  0  0  0  0
  158.6300  212.3840  153.2040 C   0  0  1  0  0  3  0  0  0  0  0  0
  1 21  1  0  0  0  0
  4 22  1  0  0  0  0
  5 17  1  0  0  0  0
  6  1  1  0  0  0  0
  6 23  1  0  0  0  0
  8  2  1  6  0  0  0
  8  7  1  0  0  0  0
  8 10  1  0  0  0  0
  9 18  1  6  0  0  0
  9 14  1  0  0  0  0
  9 13  1  0  0  0  0
 10 28  1  0  0  0  0
 12 28  1  0  0  0  0
 12 25  1  0  0  0  0
 13 26  1  0  0  0  0
 14  8  1  0  0  0  0
 15 23  1  0  0  0  0
 15 11  2  0  0  0  0
 16 20  1  0  0  0  0
 16  1  2  0  0  0  0
 17 25  1  0  0  0  0
 17  3  1  0  0  0  0
 19 15  1  0  0  0  0
 20  4  2  0  0  0  0
 21 22  2  0  0  0  0
 24  5  1  0  0  0  0
 24 12  1  0  0  0  0
 25 19  1  0  0  0  0
 26 24  1  0  0  0  0
 26 10  1  0  0  0  0
 27  5  2  0  0  0  0
 28 16  1  0  0  0  0
M  END
>  <MODEL>
5

>  <REMARK>
 VINA RESULT:      -0.2      2.465      5.069
  Name = 
  0 active torsions:
  status: ('A' for Active; 'I' for Inactive)
                            x       y       z     vdW  Elec       q    Type
                         _______ _______ _______ _____ _____    ______ ____

>  <TORSDO>
F 0

$$$$
=
 OpenBabel11122414073D

 28 32  0  0  1  0  0  0  0  0999 V2000
  161.2850  207.5780  156.1790 C   0  0  0  0  0  0  0  0  0  0  0  0
  163.5650  206.8970  151.8860 F   0  0  0  0  0  0  0  0  0  0  0  0
  159.2870  211.3800  153.7310 C   0  0  0  0  0  1  0  0  0  0  0  0
  158.5760  207.0060  155.7420 C   0  0  0  0  0  3  0  0  0  0  0  0
  160.9240  210.7530  152.0090 C   0  0  0  0  0  0  0  0  0  0  0  0
  162.7090  207.9710  156.4470 C   0  0  0  0  0  2  0  0  0  0  0  0
  162.3450  205.0290  152.2580 O   0  0  0  0  0  1  0  0  0  0  0  0
  162.3240  206.3070  151.6990 C   0  0  1  0  0  0  0  0  0  0  0  0
  161.8490  207.5820  149.6390 C   0  0  1  0  0  3  0  0  0  0  0  0
  161.2060  207.1320  152.3710 C   0  0  2  0  0  3  0  0  0  0  0  0
  161.1790  210.9920  157.1490 O   0  0  0  0  0  0  0  0  0  0  0  0
  162.0510  209.2300  153.3760 C   0  0  1  0  0  3  0  0  0  0  0  0
  160.6510  208.1180  150.1460 O   0  0  0  0  0  0  0  0  0  0  0  0
  162.0700  206.1860  150.2050 C   0  0  0  0  0  2  0  0  0  0  0  0
  162.0530  210.4110  156.5280 C   0  0  0  0  0  0  0  0  0  0  0  0
  160.7870  207.5150  154.8590 C   0  0  0  0  0  0  0  0  0  0  0  0
  160.7610  211.2220  153.4010 C   0  0  2  0  0  3  0  0  0  0  0  0
  161.7670  207.5040  148.1300 C   0  0  0  0  0  1  0  0  0  0  0  0
  162.3290  210.7920  155.1100 C   0  0  0  0  0  2  0  0  0  0  0  0
  159.4220  207.2460  154.6580 C   0  0  0  0  0  3  0  0  0  0  0  0
  160.4300  207.3280  157.2600 C   0  0  0  0  0  3  0  0  0  0  0  0
  159.0810  207.0390  157.0420 C   0  0  0  0  0  3  0  0  0  0  0  0
  162.8210  209.3060  157.1920 C   0  0  0  0  0  2  0  0  0  0  0  0
  161.6800  209.4960  151.9220 C   0  0  1  0  0  3  0  0  0  0  0  0
  161.3330  210.1750  154.2470 N   0  0  2  0  0  0  0  0  0  0  0  0
  160.7700  208.3430  151.5390 C   0  0  2  0  0  3  0  0  0  0  0  0
  160.5260  211.3700  151.0330 O   0  0  0  0  0  0  0  0  0  0  0  0
  161.7070  207.7520  153.6760 C   0  0  1  0  0  3  0  0  0  0  0  0
  1  6  1  0  0  0  0
  1 21  1  0  0  0  0
  4 22  1  0  0  0  0
  5 17  1  0  0  0  0
  6 23  1  0  0  0  0
  8  2  1  1  0  0  0
  8  7  1  0  0  0  0
  8 10  1  0  0  0  0
  9 18  1  6  0  0  0
  9 13  1  0  0  0  0
  9 14  1  0  0  0  0
 10 28  1  0  0  0  0
 12 28  1  0  0  0  0
 12 25  1  0  0  0  0
 13 26  1  0  0  0  0
 14  8  1  0  0  0  0
 15 11  2  0  0  0  0
 15 23  1  0  0  0  0
 16  1  2  0  0  0  0
 17  3  1  0  0  0  0
 17 25  1  0  0  0  0
 19 15  1  0  0  0  0
 20 16  1  0  0  0  0
 20  4  2  0  0  0  0
 22 21  2  0  0  0  0
 24  5  1  0  0  0  0
 24 12  1  0  0  0  0
 25 19  1  0  0  0  0
 26 24  1  0  0  0  0
 26 10  1  0  0  0  0
 27  5  2  0  0  0  0
 28 16  1  0  0  0  0
M  END
>  <MODEL>
6

>  <REMARK>
 VINA RESULT:       0.3      2.719      3.759
  Name = 
  0 active torsions:
  status: ('A' for Active; 'I' for Inactive)
                            x       y       z     vdW  Elec       q    Type
                         _______ _______ _______ _____ _____    ______ ____

>  <TORSDO>
F 0

$$$$
