=
 OpenBabel11122414043D

 28 32  0  0  1  0  0  0  0  0999 V2000
  161.5190  213.5840  142.4830 C   0  0  0  0  0  0  0  0  0  0  0  0
  156.9660  213.8200  140.4290 O   0  0  0  0  0  0  0  0  0  0  0  0
  162.7050  210.4950  137.0110 O   0  0  0  0  0  0  0  0  0  0  0  0
  159.1490  213.7220  143.9730 C   0  0  0  0  0  3  0  0  0  0  0  0
  161.1490  209.6780  138.5700 N   0  0  0  0  0  0  0  0  0  0  0  0
  162.8440  213.5030  141.8060 C   0  0  0  0  0  2  0  0  0  0  0  0
  158.1960  213.7060  138.2890 O   0  0  0  0  0  0  0  0  0  0  0  0
  157.6230  212.9130  139.4290 S   0  0  0  0  0  0  0  0  0  0  0  0
  156.7950  210.3250  138.9160 C   0  0  0  0  0  0  0  0  0  0  0  0
  158.8630  211.9220  140.2010 C   0  0  1  0  0  3  0  0  0  0  0  0
  163.7370  214.3010  138.2920 O   0  0  0  0  0  1  0  0  0  0  0  0
  161.2390  211.4670  140.1460 C   0  0  1  0  0  3  0  0  0  0  0  0
  158.0040  209.8960  139.1650 N   0  0  0  0  0  0  0  0  0  0  0  0
  156.4930  211.7340  138.8410 N   0  0  0  0  0  2  0  0  0  0  0  0
  163.8120  213.6420  139.5200 C   0  0  2  0  0  3  0  0  0  0  0  0
  160.3120  213.0910  141.9120 C   0  0  0  0  0  0  0  0  0  0  0  0
  162.0550  210.6420  138.0800 C   0  0  0  0  0  0  0  0  0  0  0  0
  155.6940  209.3400  138.7510 C   0  0  0  0  0  1  0  0  0  0  0  0
  163.5460  212.1450  139.3300 C   0  0  0  0  0  2  0  0  0  0  0  0
  159.1360  213.1900  142.6850 C   0  0  0  0  0  3  0  0  0  0  0  0
  161.5190  214.1120  143.7790 C   0  0  0  0  0  3  0  0  0  0  0  0
  160.3410  214.1830  144.5220 C   0  0  0  0  0  3  0  0  0  0  0  0
  162.8510  214.2890  140.5080 C   0  0  0  0  0  2  0  0  0  0  0  0
  160.4340  210.2150  139.7110 C   0  0  1  0  0  3  0  0  0  0  0  0
  162.1050  211.8580  138.9220 C   0  0  2  0  0  3  0  0  0  0  0  0
  159.1340  210.8160  139.2430 C   0  0  2  0  0  3  0  0  0  0  0  0
  160.7820  208.4570  137.8720 C   0  0  0  0  0  1  0  0  0  0  0  0
  160.2150  212.5780  140.4710 C   0  0  2  0  0  3  0  0  0  0  0  0
  1 21  1  0  0  0  0
  3 17  2  0  0  0  0
  4 22  1  0  0  0  0
  5 24  1  0  0  0  0
  6  1  1  0  0  0  0
  7  8  2  0  0  0  0
  8  2  2  0  0  0  0
  9 13  2  0  0  0  0
 10  8  1  6  0  0  0
 10 28  1  0  0  0  0
 11 15  1  0  0  0  0
 12 28  1  0  0  0  0
 13 26  1  0  0  0  0
 14  9  1  0  0  0  0
 14  8  1  0  0  0  0
 15 23  1  0  0  0  0
 16  1  2  0  0  0  0
 16 20  1  0  0  0  0
 17  5  1  0  0  0  0
 17 25  1  0  0  0  0
 18  9  1  0  0  0  0
 19 15  1  0  0  0  0
 20  4  2  0  0  0  0
 21 22  2  0  0  0  0
 23  6  1  0  0  0  0
 24 12  1  0  0  0  0
 25 19  1  0  0  0  0
 25 12  1  0  0  0  0
 26 24  1  0  0  0  0
 26 10  1  0  0  0  0
 27  5  1  0  0  0  0
 28 16  1  0  0  0  0
M  END
>  <MODEL>
1

>  <REMARK>
 VINA RESULT:      -5.2      0.000      0.000
  Name = 
  0 active torsions:
  status: ('A' for Active; 'I' for Inactive)
                            x       y       z     vdW  Elec       q    Type
                         _______ _______ _______ _____ _____    ______ ____

>  <TORSDO>
F 0

$$$$
=
 OpenBabel11122414043D

 28 32  0  0  1  0  0  0  0  0999 V2000
  161.8970  209.6080  150.3370 C   0  0  0  0  0  0  0  0  0  0  0  0
  158.2210  212.6060  151.9200 O   0  0  0  0  0  0  0  0  0  0  0  0
  161.2470  207.3710  156.2930 O   0  0  0  0  0  0  0  0  0  0  0  0
  161.4710  212.1970  149.3500 C   0  0  0  0  0  3  0  0  0  0  0  0
  161.8780  209.5960  155.8780 N   0  0  0  0  0  0  0  0  0  0  0  0
  162.2280  208.2250  150.7820 C   0  0  0  0  0  2  0  0  0  0  0  0
  157.6690  210.7240  153.4230 O   0  0  0  0  0  0  0  0  0  0  0  0
  158.5430  211.9300  153.2220 S   0  0  0  0  0  0  0  0  0  0  0  0
  159.4490  213.2600  155.4690 C   0  0  0  0  0  0  0  0  0  0  0  0
  160.2520  211.4960  153.2960 C   0  0  1  0  0  3  0  0  0  0  0  0
  160.1260  205.7860  152.6290 O   0  0  0  0  0  1  0  0  0  0  0  0
  161.7200  209.5820  153.4980 C   0  0  1  0  0  3  0  0  0  0  0  0
  160.4830  212.4620  155.5160 N   0  0  0  0  0  0  0  0  0  0  0  0
  158.3640  213.0380  154.5450 N   0  0  0  0  0  2  0  0  0  0  0  0
  161.2980  206.4280  152.2270 C   0  0  2  0  0  3  0  0  0  0  0  0
  161.2570  210.5700  151.1680 C   0  0  0  0  0  0  0  0  0  0  0  0
  161.4480  208.3130  155.4800 C   0  0  0  0  0  0  0  0  0  0  0  0
  159.4120  214.4530  156.3560 C   0  0  0  0  0  1  0  0  0  0  0  0
  161.9940  207.0590  153.4380 C   0  0  0  0  0  2  0  0  0  0  0  0
  161.0470  211.8580  150.6340 C   0  0  0  0  0  3  0  0  0  0  0  0
  162.3230  209.9630  149.0520 C   0  0  0  0  0  3  0  0  0  0  0  0
  162.1110  211.2490  148.5580 C   0  0  0  0  0  3  0  0  0  0  0  0
  160.9780  207.4430  151.1380 C   0  0  0  0  0  2  0  0  0  0  0  0
  161.8430  210.4980  154.7440 C   0  0  1  0  0  3  0  0  0  0  0  0
  161.2000  208.2210  154.0240 C   0  0  2  0  0  3  0  0  0  0  0  0
  160.5260  211.2310  154.7350 C   0  0  2  0  0  3  0  0  0  0  0  0
  162.0520  210.0200  157.2580 C   0  0  0  0  0  1  0  0  0  0  0  0
  160.6870  210.2360  152.5520 C   0  0  2  0  0  3  0  0  0  0  0  0
  1  6  1  0  0  0  0
  1 16  1  0  0  0  0
  2  8  2  0  0  0  0
  4 20  1  0  0  0  0
  5 27  1  0  0  0  0
  6 23  1  0  0  0  0
  8  7  2  0  0  0  0
  8 14  1  0  0  0  0
  9 13  2  0  0  0  0
  9 18  1  0  0  0  0
 10  8  1  1  0  0  0
 10 26  1  0  0  0  0
 12 25  1  0  0  0  0
 12 24  1  0  0  0  0
 14  9  1  0  0  0  0
 15 11  1  0  0  0  0
 15 19  1  0  0  0  0
 16 28  1  0  0  0  0
 17  5  1  0  0  0  0
 17  3  2  0  0  0  0
 19 25  1  0  0  0  0
 20 16  2  0  0  0  0
 21  1  2  0  0  0  0
 22 21  1  0  0  0  0
 22  4  2  0  0  0  0
 23 15  1  0  0  0  0
 24  5  1  0  0  0  0
 25 17  1  0  0  0  0
 26 24  1  0  0  0  0
 26 13  1  0  0  0  0
 28 10  1  0  0  0  0
 28 12  1  0  0  0  0
M  END
>  <MODEL>
2

>  <REMARK>
 VINA RESULT:      -4.6     11.603     14.254
  Name = 
  0 active torsions:
  status: ('A' for Active; 'I' for Inactive)
                            x       y       z     vdW  Elec       q    Type
                         _______ _______ _______ _____ _____    ______ ____

>  <TORSDO>
F 0

$$$$
=
 OpenBabel11122414043D

 28 32  0  0  1  0  0  0  0  0999 V2000
  158.9060  212.4770  154.2970 C   0  0  0  0  0  0  0  0  0  0  0  0
  161.5840  211.4190  150.2090 O   0  0  0  0  0  0  0  0  0  0  0  0
  162.2160  207.4730  156.5110 O   0  0  0  0  0  0  0  0  0  0  0  0
  158.0400  213.0270  151.6890 C   0  0  0  0  0  3  0  0  0  0  0  0
  160.7400  207.2630  154.6950 N   0  0  0  0  0  0  0  0  0  0  0  0
  159.2500  212.2320  155.7260 C   0  0  0  0  0  2  0  0  0  0  0  0
  163.2260  210.5150  151.8200 O   0  0  0  0  0  0  0  0  0  0  0  0
  161.9680  210.2340  151.0480 S   0  0  0  0  0  0  0  0  0  0  0  0
  161.4380  207.6120  150.3490 C   0  0  0  0  0  0  0  0  0  0  0  0
  160.6470  209.7770  152.1280 C   0  0  1  0  0  3  0  0  0  0  0  0
  162.5600  211.5370  157.2570 O   0  0  0  0  0  1  0  0  0  0  0  0
  160.1050  209.5520  154.4750 C   0  0  1  0  0  3  0  0  0  0  0  0
  160.8300  207.4370  151.4930 N   0  0  0  0  0  0  0  0  0  0  0  0
  162.1650  208.8230  150.0570 N   0  0  0  0  0  2  0  0  0  0  0  0
  161.1740  211.4710  157.1050 C   0  0  2  0  0  3  0  0  0  0  0  0
  159.3980  211.6850  153.2220 C   0  0  0  0  0  0  0  0  0  0  0  0
  161.4410  208.0030  155.6710 C   0  0  0  0  0  0  0  0  0  0  0  0
  161.3390  206.5580  149.3060 C   0  0  0  0  0  1  0  0  0  0  0  0
  160.7380  210.0180  156.8900 C   0  0  0  0  0  2  0  0  0  0  0  0
  158.9520  211.9990  151.9220 C   0  0  0  0  0  3  0  0  0  0  0  0
  157.9860  213.5030  154.0500 C   0  0  0  0  0  3  0  0  0  0  0  0
  157.5550  213.7790  152.7530 C   0  0  0  0  0  3  0  0  0  0  0  0
  160.7390  212.3900  155.9720 C   0  0  0  0  0  2  0  0  0  0  0  0
  160.0810  208.1690  153.7750 C   0  0  1  0  0  3  0  0  0  0  0  0
  161.2140  209.4600  155.5530 C   0  0  2  0  0  3  0  0  0  0  0  0
  160.9720  208.3970  152.5820 C   0  0  2  0  0  3  0  0  0  0  0  0
  160.8890  205.8340  154.4740 C   0  0  0  0  0  1  0  0  0  0  0  0
  160.4680  210.6010  153.4010 C   0  0  2  0  0  3  0  0  0  0  0  0
  1  6  1  0  0  0  0
  2  8  2  0  0  0  0
  4 20  2  0  0  0  0
  4 22  1  0  0  0  0
  5 17  1  0  0  0  0
  6 23  1  0  0  0  0
  8  7  2  0  0  0  0
  9 13  2  0  0  0  0
 10  8  1  6  0  0  0
 10 26  1  0  0  0  0
 10 28  1  0  0  0  0
 12 25  1  0  0  0  0
 13 26  1  0  0  0  0
 14  9  1  0  0  0  0
 14  8  1  0  0  0  0
 15 11  1  0  0  0  0
 16 28  1  0  0  0  0
 16  1  2  0  0  0  0
 17  3  2  0  0  0  0
 18  9  1  0  0  0  0
 19 15  1  0  0  0  0
 20 16  1  0  0  0  0
 21  1  1  0  0  0  0
 22 21  2  0  0  0  0
 23 15  1  0  0  0  0
 24 12  1  0  0  0  0
 24  5  1  0  0  0  0
 25 17  1  0  0  0  0
 25 19  1  0  0  0  0
 26 24  1  0  0  0  0
 27  5  1  0  0  0  0
 28 12  1  0  0  0  0
M  END
>  <MODEL>
3

>  <REMARK>
 VINA RESULT:      -4.4     11.787     14.256
  Name = 
  0 active torsions:
  status: ('A' for Active; 'I' for Inactive)
                            x       y       z     vdW  Elec       q    Type
                         _______ _______ _______ _____ _____    ______ ____

>  <TORSDO>
F 0

$$$$
=
 OpenBabel11122414043D

 28 32  0  0  1  0  0  0  0  0999 V2000
  159.8740  209.3970  138.3440 C   0  0  0  0  0  0  0  0  0  0  0  0
  163.7880  212.4790  138.7720 O   0  0  0  0  0  0  0  0  0  0  0  0
  156.9160  214.4530  140.9090 O   0  0  0  0  0  0  0  0  0  0  0  0
  162.5130  208.5160  138.6810 C   0  0  0  0  0  3  0  0  0  0  0  0
  158.6270  213.3200  142.0530 N   0  0  0  0  0  0  0  0  0  0  0  0
  158.4340  209.7370  138.1660 C   0  0  0  0  0  2  0  0  0  0  0  0
  162.0900  214.2630  138.5690 O   0  0  0  0  0  0  0  0  0  0  0  0
  162.7660  213.3010  139.5050 S   0  0  0  0  0  0  0  0  0  0  0  0
  162.9840  214.0210  142.1650 C   0  0  0  0  0  0  0  0  0  0  0  0
  161.5880  212.2630  140.3110 C   0  0  1  0  0  3  0  0  0  0  0  0
  156.8960  212.9280  137.0530 O   0  0  0  0  0  1  0  0  0  0  0  0
  159.2230  211.7520  140.3570 C   0  0  1  0  0  3  0  0  0  0  0  0
  161.8110  213.4930  142.3970 N   0  0  0  0  0  0  0  0  0  0  0  0
  163.5020  214.1530  140.8250 N   0  0  0  0  0  2  0  0  0  0  0  0
  156.9970  211.7240  137.7510 C   0  0  2  0  0  3  0  0  0  0  0  0
  160.8080  210.2440  139.0030 C   0  0  0  0  0  0  0  0  0  0  0  0
  157.8140  213.5700  140.9280 C   0  0  0  0  0  0  0  0  0  0  0  0
  163.8260  214.4530  143.3120 C   0  0  0  0  0  1  0  0  0  0  0  0
  156.9450  211.9850  139.2610 C   0  0  0  0  0  2  0  0  0  0  0  0
  162.1300  209.7740  139.1430 C   0  0  0  0  0  3  0  0  0  0  0  0
  160.2700  208.1330  137.8900 C   0  0  0  0  0  3  0  0  0  0  0  0
  161.5820  207.6930  138.0550 C   0  0  0  0  0  3  0  0  0  0  0  0
  158.2600  210.9890  137.3260 C   0  0  0  0  0  2  0  0  0  0  0  0
  159.6720  212.3780  141.7030 C   0  0  1  0  0  3  0  0  0  0  0  0
  158.1760  212.7290  139.7650 C   0  0  2  0  0  3  0  0  0  0  0  0
  160.9100  213.1390  141.3060 C   0  0  2  0  0  3  0  0  0  0  0  0
  158.6000  214.0960  143.2820 C   0  0  0  0  0  1  0  0  0  0  0  0
  160.4730  211.6710  139.4520 C   0  0  2  0  0  3  0  0  0  0  0  0
  1 16  1  0  0  0  0
  2  8  2  0  0  0  0
  3 17  2  0  0  0  0
  4 20  1  0  0  0  0
  5 27  1  0  0  0  0
  6  1  1  0  0  0  0
  7  8  2  0  0  0  0
  8 14  1  0  0  0  0
  9 13  2  0  0  0  0
  9 18  1  0  0  0  0
 10  8  1  6  0  0  0
 10 26  1  0  0  0  0
 11 15  1  0  0  0  0
 12 24  1  0  0  0  0
 14  9  1  0  0  0  0
 15 19  1  0  0  0  0
 16 20  2  0  0  0  0
 16 28  1  0  0  0  0
 17  5  1  0  0  0  0
 19 25  1  0  0  0  0
 21 22  1  0  0  0  0
 21  1  2  0  0  0  0
 22  4  2  0  0  0  0
 23 15  1  0  0  0  0
 23  6  1  0  0  0  0
 24  5  1  0  0  0  0
 25 12  1  0  0  0  0
 25 17  1  0  0  0  0
 26 24  1  0  0  0  0
 26 13  1  0  0  0  0
 28 10  1  0  0  0  0
 28 12  1  0  0  0  0
M  END
>  <MODEL>
4

>  <REMARK>
 VINA RESULT:      -4.3      2.392      6.443
  Name = 
  0 active torsions:
  status: ('A' for Active; 'I' for Inactive)
                            x       y       z     vdW  Elec       q    Type
                         _______ _______ _______ _____ _____    ______ ____

>  <TORSDO>
F 0

$$$$
=
 OpenBabel11122414043D

 28 32  0  0  1  0  0  0  0  0999 V2000
  161.3750  207.7820  150.8030 C   0  0  0  0  0  0  0  0  0  0  0  0
  162.0220  208.8240  155.6510 O   0  0  0  0  0  0  0  0  0  0  0  0
  160.1540  214.0580  150.6700 O   0  0  0  0  0  0  0  0  0  0  0  0
  160.9470  205.9270  152.8600 C   0  0  0  0  0  3  0  0  0  0  0  0
  158.8330  212.5760  151.9270 N   0  0  0  0  0  0  0  0  0  0  0  0
  161.5630  208.6740  149.6240 C   0  0  0  0  0  2  0  0  0  0  0  0
  162.6200  211.0780  154.8310 O   0  0  0  0  0  0  0  0  0  0  0  0
  161.4920  210.1550  155.1980 S   0  0  0  0  0  0  0  0  0  0  0  0
  159.1500  211.2840  156.1370 C   0  0  0  0  0  0  0  0  0  0  0  0
  160.3690  209.9560  153.8500 C   0  0  1  0  0  3  0  0  0  0  0  0
  163.4310  211.8720  149.3760 O   0  0  0  0  0  1  0  0  0  0  0  0
  160.0590  210.5690  151.5290 C   0  0  1  0  0  3  0  0  0  0  0  0
  158.7200  211.3970  154.9080 N   0  0  0  0  0  0  0  0  0  0  0  0
  160.5000  210.8670  156.4300 N   0  0  0  0  0  2  0  0  0  0  0  0
  162.4340  210.9400  149.0870 C   0  0  2  0  0  3  0  0  0  0  0  0
  161.0260  208.2530  152.0990 C   0  0  0  0  0  0  0  0  0  0  0  0
  159.9390  212.8980  151.1130 C   0  0  0  0  0  0  0  0  0  0  0  0
  158.2130  211.5460  157.2610 C   0  0  0  0  0  1  0  0  0  0  0  0
  161.0550  211.5310  149.4010 C   0  0  0  0  0  2  0  0  0  0  0  0
  160.8320  207.2930  153.1140 C   0  0  0  0  0  3  0  0  0  0  0  0
  161.4820  206.4070  150.5610 C   0  0  0  0  0  3  0  0  0  0  0  0
  161.2710  205.4830  151.5830 C   0  0  0  0  0  3  0  0  0  0  0  0
  162.7060  209.6470  149.8430 C   0  0  0  0  0  2  0  0  0  0  0  0
  158.9650  211.2180  152.4150 C   0  0  1  0  0  3  0  0  0  0  0  0
  160.8420  211.7460  150.8950 C   0  0  2  0  0  3  0  0  0  0  0  0
  159.6210  211.2410  153.7710 C   0  0  2  0  0  3  0  0  0  0  0  0
  157.8670  213.5390  152.4290 C   0  0  0  0  0  1  0  0  0  0  0  0
  160.9720  209.7420  152.4640 C   0  0  2  0  0  3  0  0  0  0  0  0
  1 16  1  0  0  0  0
  3 17  2  0  0  0  0
  4 20  1  0  0  0  0
  5 24  1  0  0  0  0
  5 27  1  0  0  0  0
  6 23  1  0  0  0  0
  6  1  1  0  0  0  0
  7  8  2  0  0  0  0
  8  2  2  0  0  0  0
  8 14  1  0  0  0  0
  9 14  1  0  0  0  0
  9 18  1  0  0  0  0
 10  8  1  1  0  0  0
 12 24  1  0  0  0  0
 12 28  1  0  0  0  0
 13  9  2  0  0  0  0
 15 11  1  0  0  0  0
 15 19  1  0  0  0  0
 15 23  1  0  0  0  0
 16 28  1  0  0  0  0
 16 20  2  0  0  0  0
 17  5  1  0  0  0  0
 19 25  1  0  0  0  0
 21  1  2  0  0  0  0
 21 22  1  0  0  0  0
 22  4  2  0  0  0  0
 24 26  1  0  0  0  0
 25 17  1  0  0  0  0
 25 12  1  0  0  0  0
 26 10  1  0  0  0  0
 26 13  1  0  0  0  0
 28 10  1  0  0  0  0
M  END
>  <MODEL>
5

>  <REMARK>
 VINA RESULT:      -2.6     11.186     13.618
  Name = 
  0 active torsions:
  status: ('A' for Active; 'I' for Inactive)
                            x       y       z     vdW  Elec       q    Type
                         _______ _______ _______ _____ _____    ______ ____

>  <TORSDO>
F 0

$$$$
=
 OpenBabel11122414043D

 28 32  0  0  1  0  0  0  0  0999 V2000
  160.5720  211.5510  156.1130 C   0  0  0  0  0  0  0  0  0  0  0  0
  162.3130  208.6290  152.4470 O   0  0  0  0  0  0  0  0  0  0  0  0
  156.5390  213.2500  151.4510 O   0  0  0  0  0  0  0  0  0  0  0  0
  163.2360  210.6980  155.9410 C   0  0  0  0  0  3  0  0  0  0  0  0
  158.8540  213.6030  151.2610 N   0  0  0  0  0  0  0  0  0  0  0  0
  159.1900  212.0720  156.3130 C   0  0  0  0  0  2  0  0  0  0  0  0
  159.9970  208.7440  151.5920 O   0  0  0  0  0  0  0  0  0  0  0  0
  161.3290  209.4370  151.6500 S   0  0  0  0  0  0  0  0  0  0  0  0
  162.0310  211.0710  149.5330 C   0  0  0  0  0  0  0  0  0  0  0  0
  161.1710  211.0650  152.3150 C   0  0  1  0  0  3  0  0  0  0  0  0
  156.0000  210.8980  154.8230 O   0  0  0  0  0  1  0  0  0  0  0  0
  159.5480  212.5680  153.2950 C   0  0  1  0  0  3  0  0  0  0  0  0
  161.4310  212.0740  150.1170 N   0  0  0  0  0  0  0  0  0  0  0  0
  161.9340  209.7270  150.0500 N   0  0  0  0  0  2  0  0  0  0  0  0
  156.9120  211.8120  155.3520 C   0  0  2  0  0  3  0  0  0  0  0  0
  161.1170  211.2340  154.8370 C   0  0  0  0  0  0  0  0  0  0  0  0
  157.7040  213.1000  151.9060 C   0  0  0  0  0  0  0  0  0  0  0  0
  162.8700  211.3250  148.3330 C   0  0  0  0  0  1  0  0  0  0  0  0
  157.2420  212.8870  154.3110 C   0  0  0  0  0  2  0  0  0  0  0  0
  162.4560  210.7950  154.7900 C   0  0  0  0  0  3  0  0  0  0  0  0
  161.3680  211.4540  157.2610 C   0  0  0  0  0  3  0  0  0  0  0  0
  162.6930  211.0280  157.1780 C   0  0  0  0  0  3  0  0  0  0  0  0
  158.1480  211.0730  155.8460 C   0  0  0  0  0  2  0  0  0  0  0  0
  160.0430  213.1150  151.9320 C   0  0  1  0  0  3  0  0  0  0  0  0
  158.0260  212.3300  153.1280 C   0  0  2  0  0  3  0  0  0  0  0  0
  160.5230  211.8660  151.2400 C   0  0  2  0  0  3  0  0  0  0  0  0
  158.8540  214.2650  149.9670 C   0  0  0  0  0  1  0  0  0  0  0  0
  160.2870  211.2350  153.5480 C   0  0  2  0  0  3  0  0  0  0  0  0
  1  6  1  0  0  0  0
  1 21  1  0  0  0  0
  3 17  2  0  0  0  0
  4 22  1  0  0  0  0
  5 17  1  0  0  0  0
  5 24  1  0  0  0  0
  7  8  2  0  0  0  0
  8  2  2  0  0  0  0
  9 14  1  0  0  0  0
  9 13  2  0  0  0  0
 10  8  1  6  0  0  0
 10 28  1  0  0  0  0
 11 15  1  0  0  0  0
 12 28  1  0  0  0  0
 13 26  1  0  0  0  0
 14  8  1  0  0  0  0
 15 23  1  0  0  0  0
 16  1  2  0  0  0  0
 17 25  1  0  0  0  0
 18  9  1  0  0  0  0
 19 15  1  0  0  0  0
 20 16  1  0  0  0  0
 20  4  2  0  0  0  0
 22 21  2  0  0  0  0
 23  6  1  0  0  0  0
 24 12  1  0  0  0  0
 25 12  1  0  0  0  0
 25 19  1  0  0  0  0
 26 24  1  0  0  0  0
 26 10  1  0  0  0  0
 27  5  1  0  0  0  0
 28 16  1  0  0  0  0
M  END
>  <MODEL>
6

>  <REMARK>
 VINA RESULT:      -2.2     10.857     14.001
  Name = 
  0 active torsions:
  status: ('A' for Active; 'I' for Inactive)
                            x       y       z     vdW  Elec       q    Type
                         _______ _______ _______ _____ _____    ______ ____

>  <TORSDO>
F 0

$$$$
