=
 OpenBabel11122413493D

 37 42  0  0  1  0  0  0  0  0999 V2000
  161.4950  206.7410  148.6960 C   0  0  0  0  0  0  0  0  0  0  0  0
  161.3840  207.6830  152.7320 C   0  0  0  0  0  0  0  0  0  0  0  0
  159.7860  210.4750  153.6480 C   0  0  0  0  0  2  0  0  0  0  0  0
  161.3740  205.9050  151.1010 C   0  0  0  0  0  0  0  0  0  0  0  0
  161.6280  209.0470  152.6780 C   0  0  0  0  0  0  0  0  0  0  0  0
  161.6070  207.2060  151.4830 C   0  0  0  0  0  0  0  0  0  0  0  0
  161.2470  210.0360  153.7510 C   0  0  2  0  0  3  0  0  0  0  0  0
  160.9250  205.0130  152.0930 C   0  0  0  0  0  3  0  0  0  0  0  0
  161.9340  208.2400  150.6740 C   0  0  0  0  0  0  0  0  0  0  0  0
  160.0190  207.0160  148.4580 C   0  0  0  0  0  1  0  0  0  0  0  0
  160.6470  207.3580  155.1190 C   0  0  0  0  0  2  0  0  0  0  0  0
  160.6950  205.4840  153.4140 C   0  0  0  0  0  3  0  0  0  0  0  0
  162.1790  208.0410  149.2060 C   0  0  0  0  0  2  0  0  0  0  0  0
  160.1150  212.0040  151.6140 C   0  0  1  0  0  3  0  0  0  0  0  0
  159.3750  210.8010  152.2080 C   0  0  0  0  0  2  0  0  0  0  0  0
  160.9200  206.8410  153.7450 C   0  0  0  0  0  0  0  0  0  0  0  0
  161.9360  209.3910  151.3870 N   0  0  0  0  0  0  0  0  0  0  0  0
  161.6400  205.5310  149.6660 C   0  0  0  0  0  2  0  0  0  0  0  0
  161.6470  209.7030  155.2020 C   0  0  1  0  0  3  0  0  0  0  0  0
  162.1200  206.3640  147.3700 C   0  0  0  0  0  1  0  0  0  0  0  0
  161.6480  211.8880  151.6170 C   0  0  0  0  0  2  0  0  0  0  0  0
  162.2140  210.7130  150.8100 C   0  0  0  0  0  2  0  0  0  0  0  0
  161.8090  208.2240  155.5860 C   0  0  0  0  0  2  0  0  0  0  0  0
  158.9630  213.0010  147.4970 O   0  0  0  0  0  0  0  0  0  0  0  0
  160.1700  212.8930  147.8380 C   0  0  0  0  0  0  0  0  0  0  0  0
  159.5920  212.3420  150.2540 C   0  0  0  0  0  0  0  0  0  0  0  0
  160.5220  212.5700  149.1910 N   0  0  0  0  0  2  0  0  0  0  0  0
  158.3480  212.4050  150.0520 O   0  0  0  0  0  0  0  0  0  0  0  0
  162.6010  212.9860  147.1880 C   0  0  0  0  0  1  0  0  0  0  0  0
  161.1900  213.0960  146.8620 N   0  0  0  0  0  2  0  0  0  0  0  0
  162.9420  211.0070  156.8920 C   0  0  0  0  0  3  0  0  0  0  0  0
  162.8580  210.4820  155.6010 C   0  0  0  0  0  0  0  0  0  0  0  0
  163.9050  210.7030  154.6960 C   0  0  0  0  0  3  0  0  0  0  0  0
  166.1330  211.6870  154.1530 C   0  0  0  0  0  1  0  0  0  0  0  0
  165.0760  211.9440  156.3650 N   0  0  0  0  0  0  0  0  0  0  0  0
  165.0160  211.4440  155.1020 C   0  0  0  0  0  0  0  0  0  0  0  0
  164.0710  211.7430  157.2610 C   0  0  0  0  0  3  0  0  0  0  0  0
  1 13  1  0  0  0  0
  1 18  1  0  0  0  0
  2 16  1  0  0  0  0
  4  6  1  0  0  0  0
  4  8  2  0  0  0  0
  5  2  2  0  0  0  0
  5  7  1  0  0  0  0
  6  2  1  0  0  0  0
  7  3  1  1  0  0  0
  7 19  1  0  0  0  0
  8 12  1  0  0  0  0
  9 17  1  0  0  0  0
  9  6  2  0  0  0  0
 10  1  1  0  0  0  0
 11 23  1  0  0  0  0
 12 16  2  0  0  0  0
 13  9  1  0  0  0  0
 14 26  1  6  0  0  0
 14 21  1  0  0  0  0
 14 15  1  0  0  0  0
 15  3  1  0  0  0  0
 16 11  1  0  0  0  0
 17  5  1  0  0  0  0
 18  4  1  0  0  0  0
 19 23  1  0  0  0  0
 19 32  1  6  0  0  0
 20  1  1  0  0  0  0
 22 17  1  0  0  0  0
 22 21  1  0  0  0  0
 24 25  2  0  0  0  0
 25 27  1  0  0  0  0
 27 26  1  0  0  0  0
 28 26  2  0  0  0  0
 30 29  1  0  0  0  0
 30 25  1  0  0  0  0
 31 37  1  0  0  0  0
 32 31  2  0  0  0  0
 33 36  2  0  0  0  0
 33 32  1  0  0  0  0
 34 36  1  0  0  0  0
 35 37  2  0  0  0  0
 36 35  1  0  0  0  0
M  END
>  <MODEL>
1

>  <REMARK>
 VINA RESULT:      -1.0      0.000      0.000
  Name = 
  2 active torsions:
  status: ('A' for Active; 'I' for Inactive)
    1  A    between atoms: C_8  and  C_18
    2  A    between atoms: C_23  and  C_30
                            x       y       z     vdW  Elec       q    Type
                         _______ _______ _______ _____ _____    ______ ____

>  <TORSDO>
F 2

$$$$
=
 OpenBabel11122413493D

 37 42  0  0  1  0  0  0  0  0999 V2000
  161.6170  207.3260  149.2240 C   0  0  0  0  0  0  0  0  0  0  0  0
  160.9730  208.1030  153.2450 C   0  0  0  0  0  0  0  0  0  0  0  0
  158.8470  210.5570  154.0480 C   0  0  0  0  0  2  0  0  0  0  0  0
  161.4160  206.4030  151.5920 C   0  0  0  0  0  0  0  0  0  0  0  0
  160.9870  209.4890  153.2390 C   0  0  0  0  0  0  0  0  0  0  0  0
  161.3890  207.7110  152.0170 C   0  0  0  0  0  0  0  0  0  0  0  0
  160.3450  210.3650  154.2850 C   0  0  2  0  0  3  0  0  0  0  0  0
  161.0340  205.4160  152.5210 C   0  0  0  0  0  3  0  0  0  0  0  0
  161.6090  208.8110  151.2600 C   0  0  0  0  0  0  0  0  0  0  0  0
  160.1440  207.3580  148.8480 C   0  0  0  0  0  1  0  0  0  0  0  0
  160.0830  207.5810  155.5440 C   0  0  0  0  0  2  0  0  0  0  0  0
  160.6060  205.7990  153.8200 C   0  0  0  0  0  3  0  0  0  0  0  0
  162.0210  208.7040  149.8200 C   0  0  0  0  0  2  0  0  0  0  0  0
  159.1000  212.1860  152.0810 C   0  0  1  0  0  3  0  0  0  0  0  0
  158.5220  210.8580  152.5800 C   0  0  0  0  0  2  0  0  0  0  0  0
  160.5660  207.1630  154.1940 C   0  0  0  0  0  0  0  0  0  0  0  0
  161.3500  209.9230  151.9890 N   0  0  0  0  0  0  0  0  0  0  0  0
  161.8740  206.1260  150.1840 C   0  0  0  0  0  2  0  0  0  0  0  0
  160.6600  210.0560  155.7630 C   0  0  1  0  0  3  0  0  0  0  0  0
  162.4170  207.1020  147.9590 C   0  0  0  0  0  1  0  0  0  0  0  0
  160.6240  212.3270  152.2320 C   0  0  0  0  0  2  0  0  0  0  0  0
  161.4530  211.2900  151.4640 C   0  0  0  0  0  2  0  0  0  0  0  0
  161.0340  208.6130  156.1360 C   0  0  0  0  0  2  0  0  0  0  0  0
  157.4620  213.1970  148.1360 O   0  0  0  0  0  0  0  0  0  0  0  0
  156.8190  213.4190  149.1960 C   0  0  0  0  0  0  0  0  0  0  0  0
  158.6560  212.4760  150.6830 C   0  0  0  0  0  0  0  0  0  0  0  0
  157.3740  213.0760  150.4740 N   0  0  0  0  0  2  0  0  0  0  0  0
  159.4140  212.2100  149.7110 O   0  0  0  0  0  0  0  0  0  0  0  0
  154.7330  214.3010  150.2960 C   0  0  0  0  0  1  0  0  0  0  0  0
  155.5270  214.0170  149.1130 N   0  0  0  0  0  2  0  0  0  0  0  0
  161.2670  212.2570  156.7740 C   0  0  0  0  0  3  0  0  0  0  0  0
  161.6790  211.0130  156.2900 C   0  0  0  0  0  0  0  0  0  0  0  0
  163.0410  210.6860  156.2960 C   0  0  0  0  0  3  0  0  0  0  0  0
  165.4130  211.2780  156.7990 C   0  0  0  0  0  1  0  0  0  0  0  0
  163.5400  212.8150  157.2560 N   0  0  0  0  0  0  0  0  0  0  0  0
  163.9650  211.6110  156.7870 C   0  0  0  0  0  0  0  0  0  0  0  0
  162.2220  213.1540  157.2590 C   0  0  0  0  0  3  0  0  0  0  0  0
  1 13  1  0  0  0  0
  1 18  1  0  0  0  0
  2 16  1  0  0  0  0
  4  6  1  0  0  0  0
  4  8  2  0  0  0  0
  5  2  2  0  0  0  0
  5  7  1  0  0  0  0
  6  2  1  0  0  0  0
  7  3  1  1  0  0  0
  7 19  1  0  0  0  0
  8 12  1  0  0  0  0
  9 17  1  0  0  0  0
  9  6  2  0  0  0  0
 10  1  1  0  0  0  0
 11 23  1  0  0  0  0
 12 16  2  0  0  0  0
 13  9  1  0  0  0  0
 14 26  1  6  0  0  0
 14 21  1  0  0  0  0
 14 15  1  0  0  0  0
 15  3  1  0  0  0  0
 16 11  1  0  0  0  0
 17  5  1  0  0  0  0
 18  4  1  0  0  0  0
 19 23  1  0  0  0  0
 19 32  1  6  0  0  0
 20  1  1  0  0  0  0
 22 17  1  0  0  0  0
 22 21  1  0  0  0  0
 24 25  2  0  0  0  0
 25 27  1  0  0  0  0
 27 26  1  0  0  0  0
 28 26  2  0  0  0  0
 30 25  1  0  0  0  0
 30 29  1  0  0  0  0
 31 37  1  0  0  0  0
 32 33  1  0  0  0  0
 32 31  2  0  0  0  0
 33 36  2  0  0  0  0
 35 37  2  0  0  0  0
 36 34  1  0  0  0  0
 36 35  1  0  0  0  0
M  END
>  <MODEL>
2

>  <REMARK>
 VINA RESULT:       0.4      1.774      2.275
  Name = 
  2 active torsions:
  status: ('A' for Active; 'I' for Inactive)
    1  A    between atoms: C_8  and  C_18
    2  A    between atoms: C_23  and  C_30
                            x       y       z     vdW  Elec       q    Type
                         _______ _______ _______ _____ _____    ______ ____

>  <TORSDO>
F 2

$$$$
=
 OpenBabel11122413493D

 37 42  0  0  1  0  0  0  0  0999 V2000
  161.0530  205.0240  151.6420 C   0  0  0  0  0  0  0  0  0  0  0  0
  161.6070  208.5640  149.5560 C   0  0  0  0  0  0  0  0  0  0  0  0
  162.8950  211.1720  151.2070 C   0  0  0  0  0  2  0  0  0  0  0  0
  161.6400  206.1550  149.4340 C   0  0  0  0  0  0  0  0  0  0  0  0
  161.1610  209.4810  150.4960 C   0  0  0  0  0  0  0  0  0  0  0  0
  161.2780  207.3390  150.0330 C   0  0  0  0  0  0  0  0  0  0  0  0
  161.5440  210.9390  150.5300 C   0  0  2  0  0  3  0  0  0  0  0  0
  162.3540  206.2380  148.2230 C   0  0  0  0  0  3  0  0  0  0  0  0
  160.6910  207.4850  151.2430 C   0  0  0  0  0  0  0  0  0  0  0  0
  162.4240  205.0450  152.2990 C   0  0  0  0  0  1  0  0  0  0  0  0
  162.7200  210.0400  147.8450 C   0  0  0  0  0  2  0  0  0  0  0  0
  162.7000  207.5110  147.6940 C   0  0  0  0  0  3  0  0  0  0  0  0
  160.2680  206.2980  152.0600 C   0  0  0  0  0  2  0  0  0  0  0  0
  162.0570  210.7910  153.6030 C   0  0  1  0  0  3  0  0  0  0  0  0
  163.0430  210.3720  152.5070 C   0  0  0  0  0  2  0  0  0  0  0  0
  162.3300  208.6970  148.3690 C   0  0  0  0  0  0  0  0  0  0  0  0
  160.6240  208.8010  151.5590 N   0  0  0  0  0  0  0  0  0  0  0  0
  161.2280  204.8690  150.1010 C   0  0  0  0  0  2  0  0  0  0  0  0
  161.4110  211.7420  149.2210 C   0  0  1  0  0  3  0  0  0  0  0  0
  160.3050  203.8140  152.1590 C   0  0  0  0  0  1  0  0  0  0  0  0
  160.5740  210.7140  153.2040 C   0  0  0  0  0  2  0  0  0  0  0  0
  160.0750  209.3150  152.8200 C   0  0  0  0  0  2  0  0  0  0  0  0
  161.5230  210.9800  147.8910 C   0  0  0  0  0  2  0  0  0  0  0  0
  162.5170  208.4090  157.2610 O   0  0  0  0  0  0  0  0  0  0  0  0
  161.5620  208.2180  156.4630 C   0  0  0  0  0  0  0  0  0  0  0  0
  162.3240  210.0570  154.8780 C   0  0  0  0  0  0  0  0  0  0  0  0
  161.4310  209.0130  155.2750 N   0  0  0  0  0  2  0  0  0  0  0  0
  163.3320  210.3490  155.5770 O   0  0  0  0  0  0  0  0  0  0  0  0
  159.4820  206.9260  155.8750 C   0  0  0  0  0  1  0  0  0  0  0  0
  160.6070  207.2000  156.7530 N   0  0  0  0  0  2  0  0  0  0  0  0
  159.5930  212.9790  148.0380 C   0  0  0  0  0  3  0  0  0  0  0  0
  160.1690  212.5730  149.2430 C   0  0  0  0  0  0  0  0  0  0  0  0
  159.5820  212.9610  150.4550 C   0  0  0  0  0  3  0  0  0  0  0  0
  157.7940  214.1640  151.7130 C   0  0  0  0  0  1  0  0  0  0  0  0
  157.8830  214.1270  149.2500 N   0  0  0  0  0  0  0  0  0  0  0  0
  158.4280  213.7460  150.4360 C   0  0  0  0  0  0  0  0  0  0  0  0
  158.4370  213.7640  148.0610 C   0  0  0  0  0  3  0  0  0  0  0  0
  1 13  1  0  0  0  0
  1 20  1  0  0  0  0
  1 10  1  0  0  0  0
  2  6  1  0  0  0  0
  2  5  2  0  0  0  0
  3 15  1  0  0  0  0
  4  6  1  0  0  0  0
  4 18  1  0  0  0  0
  5  7  1  0  0  0  0
  5 17  1  0  0  0  0
  6  9  2  0  0  0  0
  7  3  1  6  0  0  0
  8  4  2  0  0  0  0
  9 17  1  0  0  0  0
  9 13  1  0  0  0  0
 11 23  1  0  0  0  0
 11 16  1  0  0  0  0
 12  8  1  0  0  0  0
 12 16  2  0  0  0  0
 14 26  1  1  0  0  0
 15 14  1  0  0  0  0
 16  2  1  0  0  0  0
 17 22  1  0  0  0  0
 18  1  1  0  0  0  0
 19 32  1  1  0  0  0
 19  7  1  0  0  0  0
 21 14  1  0  0  0  0
 22 21  1  0  0  0  0
 23 19  1  0  0  0  0
 25 30  1  0  0  0  0
 25 24  2  0  0  0  0
 26 27  1  0  0  0  0
 26 28  2  0  0  0  0
 27 25  1  0  0  0  0
 29 30  1  0  0  0  0
 31 37  2  0  0  0  0
 31 32  1  0  0  0  0
 32 33  2  0  0  0  0
 35 36  2  0  0  0  0
 36 33  1  0  0  0  0
 36 34  1  0  0  0  0
 37 35  1  0  0  0  0
M  END
>  <MODEL>
3

>  <REMARK>
 VINA RESULT:       1.0      2.797      6.647
  Name = 
  2 active torsions:
  status: ('A' for Active; 'I' for Inactive)
    1  A    between atoms: C_8  and  C_18
    2  A    between atoms: C_23  and  C_30
                            x       y       z     vdW  Elec       q    Type
                         _______ _______ _______ _____ _____    ______ ____

>  <TORSDO>
F 2

$$$$
=
 OpenBabel11122413493D

 37 42  0  0  1  0  0  0  0  0999 V2000
  157.9120  213.2350  153.4250 C   0  0  0  0  0  0  0  0  0  0  0  0
  160.1980  209.8760  154.2500 C   0  0  0  0  0  0  0  0  0  0  0  0
  163.0010  209.4130  152.4840 C   0  0  0  0  0  2  0  0  0  0  0  0
  158.7610  211.5800  155.1690 C   0  0  0  0  0  0  0  0  0  0  0  0
  160.5230  209.4710  152.9640 C   0  0  0  0  0  0  0  0  0  0  0  0
  159.2660  210.8510  154.1190 C   0  0  0  0  0  0  0  0  0  0  0  0
  161.7060  208.6090  152.6020 C   0  0  2  0  0  3  0  0  0  0  0  0
  159.2110  211.2480  156.4610 C   0  0  0  0  0  3  0  0  0  0  0  0
  159.0530  211.0760  152.8020 C   0  0  0  0  0  0  0  0  0  0  0  0
  159.0930  214.1920  153.4010 C   0  0  0  0  0  1  0  0  0  0  0  0
  161.7340  208.4670  155.6650 C   0  0  0  0  0  2  0  0  0  0  0  0
  160.1790  210.2200  156.6280 C   0  0  0  0  0  3  0  0  0  0  0  0
  158.1150  212.1490  152.3300 C   0  0  0  0  0  2  0  0  0  0  0  0
  162.4310  210.4980  150.2300 C   0  0  1  0  0  3  0  0  0  0  0  0
  162.8100  210.7160  151.6980 C   0  0  0  0  0  2  0  0  0  0  0  0
  160.6900  209.5230  155.5080 C   0  0  0  0  0  0  0  0  0  0  0  0
  159.8320  210.2470  152.0680 N   0  0  0  0  0  0  0  0  0  0  0  0
  157.7510  212.6560  154.8630 C   0  0  0  0  0  2  0  0  0  0  0  0
  161.9090  207.3060  153.4010 C   0  0  1  0  0  3  0  0  0  0  0  0
  156.6650  214.0220  153.0870 C   0  0  0  0  0  1  0  0  0  0  0  0
  161.1630  209.6590  150.0050 C   0  0  0  0  0  2  0  0  0  0  0  0
  159.8770  210.2480  150.6000 C   0  0  0  0  0  2  0  0  0  0  0  0
  161.3620  207.2450  154.8360 C   0  0  0  0  0  2  0  0  0  0  0  0
  161.8720  214.3460  148.1920 O   0  0  0  0  0  0  0  0  0  0  0  0
  160.9430  213.8010  148.8440 C   0  0  0  0  0  0  0  0  0  0  0  0
  162.3700  211.7960  149.4900 C   0  0  0  0  0  0  0  0  0  0  0  0
  161.1480  212.5410  149.4990 N   0  0  0  0  0  2  0  0  0  0  0  0
  163.3890  212.2290  148.8850 O   0  0  0  0  0  0  0  0  0  0  0  0
  158.5630  213.8810  149.6630 C   0  0  0  0  0  1  0  0  0  0  0  0
  159.6770  214.4530  148.9270 N   0  0  0  0  0  2  0  0  0  0  0  0
  161.1190  204.9410  153.2710 C   0  0  0  0  0  3  0  0  0  0  0  0
  161.4330  206.1300  152.6110 C   0  0  0  0  0  0  0  0  0  0  0  0
  161.3080  206.2010  151.2170 C   0  0  0  0  0  3  0  0  0  0  0  0
  160.7330  205.1380  149.0340 C   0  0  0  0  0  1  0  0  0  0  0  0
  160.5680  203.9310  151.1770 N   0  0  0  0  0  0  0  0  0  0  0  0
  160.8700  205.0780  150.5120 C   0  0  0  0  0  0  0  0  0  0  0  0
  160.6830  203.8390  152.5300 C   0  0  0  0  0  3  0  0  0  0  0  0
  1 18  1  0  0  0  0
  2 16  1  0  0  0  0
  4  8  2  0  0  0  0
  5  2  2  0  0  0  0
  6  2  1  0  0  0  0
  6  4  1  0  0  0  0
  7  3  1  1  0  0  0
  7  5  1  0  0  0  0
  7 19  1  0  0  0  0
  8 12  1  0  0  0  0
  9  6  2  0  0  0  0
 10  1  1  0  0  0  0
 13  9  1  0  0  0  0
 13  1  1  0  0  0  0
 14 26  1  1  0  0  0
 14 15  1  0  0  0  0
 15  3  1  0  0  0  0
 16 11  1  0  0  0  0
 16 12  2  0  0  0  0
 17  9  1  0  0  0  0
 17  5  1  0  0  0  0
 18  4  1  0  0  0  0
 19 32  1  6  0  0  0
 19 23  1  0  0  0  0
 20  1  1  0  0  0  0
 21 14  1  0  0  0  0
 21 22  1  0  0  0  0
 22 17  1  0  0  0  0
 23 11  1  0  0  0  0
 24 25  2  0  0  0  0
 25 30  1  0  0  0  0
 25 27  1  0  0  0  0
 26 27  1  0  0  0  0
 28 26  2  0  0  0  0
 30 29  1  0  0  0  0
 32 31  1  0  0  0  0
 33 32  2  0  0  0  0
 34 36  1  0  0  0  0
 35 37  1  0  0  0  0
 36 35  2  0  0  0  0
 36 33  1  0  0  0  0
 37 31  2  0  0  0  0
M  END
>  <MODEL>
4

>  <REMARK>
 VINA RESULT:       1.6      2.414      5.896
  Name = 
  2 active torsions:
  status: ('A' for Active; 'I' for Inactive)
    1  A    between atoms: C_8  and  C_18
    2  A    between atoms: C_23  and  C_30
                            x       y       z     vdW  Elec       q    Type
                         _______ _______ _______ _____ _____    ______ ____

>  <TORSDO>
F 2

$$$$
