=
 OpenBabel11122413243D

 31 35  0  0  1  0  0  0  0  0999 V2000
  161.1830  204.2460  145.5000 C   0  0  0  0  0  0  0  0  0  0  0  0
  160.5250  205.8370  148.8980 C   0  0  2  0  0  3  0  0  0  0  0  0
  160.8360  204.7940  149.9580 C   0  0  0  0  0  0  0  0  0  0  0  0
  161.1160  202.3810  150.6570 C   0  0  0  0  0  0  0  0  0  0  0  0
  161.1510  205.5360  147.5570 C   0  0  0  0  0  0  0  0  0  0  0  0
  162.2960  204.9680  145.0610 C   0  0  0  0  0  3  0  0  0  0  0  0
  160.6730  203.3340  149.5870 C   0  0  0  0  0  2  0  0  0  0  0  0
  162.3420  207.5940  149.1930 C   0  0  2  0  0  3  0  0  0  0  0  0
  160.6600  203.2680  144.7230 F   0  0  0  0  0  0  0  0  0  0  0  0
  161.1360  206.6040  151.6460 C   0  0  0  0  0  2  0  0  0  0  0  0
  161.2440  201.1580  150.3900 O   0  0  0  0  0  0  0  0  0  0  0  0
  162.7780  207.3270  147.8610 O   0  0  0  0  0  0  0  0  0  0  0  0
  160.8460  207.2730  149.3560 C   0  0  2  0  0  3  0  0  0  0  0  0
  160.6100  204.5330  146.7420 C   0  0  0  0  0  3  0  0  0  0  0  0
  161.3510  202.8550  152.0220 C   0  0  0  0  0  3  0  0  0  0  0  0
  162.2630  206.2730  147.1020 C   0  0  0  0  0  0  0  0  0  0  0  0
  162.8310  205.9830  145.8580 C   0  0  0  0  0  3  0  0  0  0  0  0
  160.3920  207.4770  150.7350 N   0  0  0  0  0  2  0  0  0  0  0  0
  161.0380  205.1590  151.2460 C   0  0  0  0  0  0  0  0  0  0  0  0
  161.3050  204.1570  152.2950 C   0  0  0  0  0  3  0  0  0  0  0  0
  161.3200  209.8280  147.7510 O   0  0  0  0  0  0  0  0  0  0  0  0
  162.0430  210.0640  148.7570 C   0  0  0  0  0  0  0  0  0  0  0  0
  162.5940  208.9890  149.5200 N   0  0  0  0  0  2  0  0  0  0  0  0
  160.9720  213.6970  147.9910 C   0  0  1  0  0  3  0  0  0  0  0  0
  161.0620  212.1830  149.6360 C   0  0  0  0  0  2  0  0  0  0  0  0
  164.1580  212.0140  147.7590 O   0  0  0  0  0  0  0  0  0  0  0  0
  160.0530  214.4510  147.0520 C   0  0  0  0  0  1  0  0  0  0  0  0
  160.2920  212.5980  148.5360 O   0  0  0  0  0  0  0  0  0  0  0  0
  162.9930  212.2360  148.0410 C   0  0  0  0  0  0  0  0  0  0  0  0
  162.3380  211.4730  149.1660 C   0  0  2  0  0  3  0  0  0  0  0  0
  162.2140  213.2340  147.2280 C   0  0  0  0  0  2  0  0  0  0  0  0
  1 14  1  0  0  0  0
  2  5  1  6  0  0  0
  2 13  1  0  0  0  0
  2  3  1  0  0  0  0
  3 19  2  0  0  0  0
  4 15  1  0  0  0  0
  6  1  2  0  0  0  0
  6 17  1  0  0  0  0
  7  3  1  0  0  0  0
  7  4  1  0  0  0  0
  8 13  1  0  0  0  0
  8 23  1  6  0  0  0
  9  1  1  0  0  0  0
 11  4  2  0  0  0  0
 12  8  1  0  0  0  0
 13 18  1  1  0  0  0
 14  5  2  0  0  0  0
 15 20  2  0  0  0  0
 16  5  1  0  0  0  0
 16 12  1  0  0  0  0
 17 16  2  0  0  0  0
 18 10  1  0  0  0  0
 19 10  1  0  0  0  0
 19 20  1  0  0  0  0
 21 22  2  0  0  0  0
 22 23  1  0  0  0  0
 24 27  1  6  0  0  0
 24 28  1  0  0  0  0
 26 29  2  0  0  0  0
 28 25  1  0  0  0  0
 29 30  1  0  0  0  0
 30 22  1  6  0  0  0
 30 25  1  0  0  0  0
 31 24  1  0  0  0  0
 31 29  1  0  0  0  0
M  END
>  <MODEL>
1

>  <REMARK>
 VINA RESULT:      -8.3      0.000      0.000
  Name = 
  2 active torsions:
  status: ('A' for Active; 'I' for Inactive)
    1  A    between atoms: C_5  and  C_30
    2  A    between atoms: C_10  and  N_16
                            x       y       z     vdW  Elec       q    Type
                         _______ _______ _______ _____ _____    ______ ____

>  <TORSDO>
F 2

$$$$
=
 OpenBabel11122413243D

 31 35  0  0  1  0  0  0  0  0999 V2000
  161.0700  204.6380  145.0450 C   0  0  0  0  0  0  0  0  0  0  0  0
  160.5020  205.1070  148.7820 C   0  0  2  0  0  3  0  0  0  0  0  0
  160.8790  203.8030  149.4670 C   0  0  0  0  0  0  0  0  0  0  0  0
  161.2460  201.3040  149.3960 C   0  0  0  0  0  0  0  0  0  0  0  0
  161.0840  205.2450  147.3950 C   0  0  0  0  0  0  0  0  0  0  0  0
  162.1470  205.4970  144.8120 C   0  0  0  0  0  3  0  0  0  0  0  0
  160.7390  202.5180  148.6770 C   0  0  0  0  0  2  0  0  0  0  0  0
  162.2850  206.7550  149.5420 C   0  0  2  0  0  3  0  0  0  0  0  0
  160.5430  203.9220  144.0230 F   0  0  0  0  0  0  0  0  0  0  0  0
  161.1980  205.0300  151.6140 C   0  0  0  0  0  2  0  0  0  0  0  0
  161.3940  200.2240  148.7680 O   0  0  0  0  0  0  0  0  0  0  0  0
  162.6770  206.9180  148.1800 O   0  0  0  0  0  0  0  0  0  0  0  0
  160.8050  206.3480  149.6430 C   0  0  2  0  0  3  0  0  0  0  0  0
  160.5380  204.5160  146.3310 C   0  0  0  0  0  3  0  0  0  0  0  0
  161.5210  201.3520  150.8330 C   0  0  0  0  0  3  0  0  0  0  0  0
  162.1590  206.1240  147.1520 C   0  0  0  0  0  0  0  0  0  0  0  0
  162.6870  206.2430  145.8630 C   0  0  0  0  0  3  0  0  0  0  0  0
  160.3990  206.1100  151.0320 N   0  0  0  0  0  2  0  0  0  0  0  0
  161.1210  203.7700  150.8000 C   0  0  0  0  0  0  0  0  0  0  0  0
  161.4520  202.5090  151.4880 C   0  0  0  0  0  3  0  0  0  0  0  0
  161.5300  209.3500  148.6400 O   0  0  0  0  0  0  0  0  0  0  0  0
  162.1030  209.2650  149.7610 C   0  0  0  0  0  0  0  0  0  0  0  0
  162.5140  207.9950  150.2680 N   0  0  0  0  0  2  0  0  0  0  0  0
  160.3200  211.6980  152.1780 C   0  0  1  0  0  3  0  0  0  0  0  0
  162.0240  210.2530  152.0510 C   0  0  0  0  0  2  0  0  0  0  0  0
  161.9600  212.2110  149.0010 O   0  0  0  0  0  0  0  0  0  0  0  0
  158.9420  211.9390  152.7570 C   0  0  0  0  0  1  0  0  0  0  0  0
  160.6370  210.3340  152.2600 O   0  0  0  0  0  0  0  0  0  0  0  0
  161.5940  211.6740  150.0330 C   0  0  0  0  0  0  0  0  0  0  0  0
  162.3630  210.4940  150.5740 C   0  0  2  0  0  3  0  0  0  0  0  0
  160.3510  212.1680  150.7220 C   0  0  0  0  0  2  0  0  0  0  0  0
  1 14  1  0  0  0  0
  2  5  1  6  0  0  0
  2  3  1  0  0  0  0
  2 13  1  0  0  0  0
  3 19  2  0  0  0  0
  4 15  1  0  0  0  0
  6  1  2  0  0  0  0
  6 17  1  0  0  0  0
  7  4  1  0  0  0  0
  7  3  1  0  0  0  0
  8 13  1  0  0  0  0
  8 23  1  1  0  0  0
  9  1  1  0  0  0  0
 11  4  2  0  0  0  0
 12  8  1  0  0  0  0
 13 18  1  1  0  0  0
 14  5  2  0  0  0  0
 15 20  2  0  0  0  0
 16  5  1  0  0  0  0
 16 12  1  0  0  0  0
 17 16  2  0  0  0  0
 18 10  1  0  0  0  0
 19 20  1  0  0  0  0
 19 10  1  0  0  0  0
 21 22  2  0  0  0  0
 22 23  1  0  0  0  0
 24 28  1  0  0  0  0
 24 27  1  6  0  0  0
 25 28  1  0  0  0  0
 26 29  2  0  0  0  0
 29 30  1  0  0  0  0
 29 31  1  0  0  0  0
 30 22  1  6  0  0  0
 30 25  1  0  0  0  0
 31 24  1  0  0  0  0
M  END
>  <MODEL>
2

>  <REMARK>
 VINA RESULT:      -7.4      1.623      2.241
  Name = 
  2 active torsions:
  status: ('A' for Active; 'I' for Inactive)
    1  A    between atoms: C_5  and  C_30
    2  A    between atoms: C_10  and  N_16
                            x       y       z     vdW  Elec       q    Type
                         _______ _______ _______ _____ _____    ______ ____

>  <TORSDO>
F 2

$$$$
=
 OpenBabel11122413243D

 31 35  0  0  1  0  0  0  0  0999 V2000
  160.9430  206.6060  146.6920 C   0  0  0  0  0  0  0  0  0  0  0  0
  160.2820  204.9940  150.0790 C   0  0  2  0  0  3  0  0  0  0  0  0
  160.7070  203.5390  149.9810 C   0  0  0  0  0  0  0  0  0  0  0  0
  161.1940  201.4740  148.6070 C   0  0  0  0  0  0  0  0  0  0  0  0
  160.8830  205.8680  149.0040 C   0  0  0  0  0  0  0  0  0  0  0  0
  161.9820  207.4890  146.9960 C   0  0  0  0  0  3  0  0  0  0  0  0
  160.6430  202.8690  148.6240 C   0  0  0  0  0  2  0  0  0  0  0  0
  161.9700  206.0370  151.6720 C   0  0  2  0  0  3  0  0  0  0  0  0
  160.4690  206.5290  145.4250 F   0  0  0  0  0  0  0  0  0  0  0  0
  160.9270  203.4410  152.4630 C   0  0  0  0  0  2  0  0  0  0  0  0
  161.4050  200.8990  147.5080 O   0  0  0  0  0  0  0  0  0  0  0  0
  162.3790  206.9120  150.6230 O   0  0  0  0  0  0  0  0  0  0  0  0
  160.5090  205.5940  151.4800 C   0  0  2  0  0  3  0  0  0  0  0  0
  160.3930  205.8020  147.6940 C   0  0  0  0  0  3  0  0  0  0  0  0
  161.4380  200.7570  149.8610 C   0  0  0  0  0  3  0  0  0  0  0  0
  161.9200  206.7730  149.3100 C   0  0  0  0  0  0  0  0  0  0  0  0
  162.4650  207.5760  148.3050 C   0  0  0  0  0  3  0  0  0  0  0  0
  160.0880  204.6410  152.5120 N   0  0  0  0  0  2  0  0  0  0  0  0
  160.9250  202.8080  151.1010 C   0  0  0  0  0  0  0  0  0  0  0  0
  161.3020  201.3840  151.0260 C   0  0  0  0  0  3  0  0  0  0  0  0
  160.5820  208.3910  152.4770 O   0  0  0  0  0  0  0  0  0  0  0  0
  161.3920  207.8810  153.2990 C   0  0  0  0  0  0  0  0  0  0  0  0
  162.1260  206.7050  152.9560 N   0  0  0  0  0  2  0  0  0  0  0  0
  159.5780  210.1020  155.8900 C   0  0  1  0  0  3  0  0  0  0  0  0
  160.4920  208.0780  155.6170 C   0  0  0  0  0  2  0  0  0  0  0  0
  162.6740  210.5310  154.0810 O   0  0  0  0  0  0  0  0  0  0  0  0
  158.2770  210.8630  156.0420 C   0  0  0  0  0  1  0  0  0  0  0  0
  159.3200  208.8180  155.3880 O   0  0  0  0  0  0  0  0  0  0  0  0
  161.6740  210.0060  154.5390 C   0  0  0  0  0  0  0  0  0  0  0  0
  161.5990  208.5030  154.6440 C   0  0  2  0  0  3  0  0  0  0  0  0
  160.5100  210.8670  154.9480 C   0  0  0  0  0  2  0  0  0  0  0  0
  1  6  2  0  0  0  0
  1 14  1  0  0  0  0
  2  5  1  6  0  0  0
  2 13  1  0  0  0  0
  3  2  1  0  0  0  0
  3 19  2  0  0  0  0
  4  7  1  0  0  0  0
  4 15  1  0  0  0  0
  5 16  1  0  0  0  0
  6 17  1  0  0  0  0
  7  3  1  0  0  0  0
  8 23  1  1  0  0  0
  9  1  1  0  0  0  0
 10 18  1  0  0  0  0
 11  4  2  0  0  0  0
 12  8  1  0  0  0  0
 13  8  1  0  0  0  0
 13 18  1  1  0  0  0
 14  5  2  0  0  0  0
 15 20  2  0  0  0  0
 16 12  1  0  0  0  0
 17 16  2  0  0  0  0
 19 10  1  0  0  0  0
 20 19  1  0  0  0  0
 21 22  2  0  0  0  0
 23 22  1  0  0  0  0
 24 27  1  6  0  0  0
 26 29  2  0  0  0  0
 28 25  1  0  0  0  0
 28 24  1  0  0  0  0
 29 30  1  0  0  0  0
 29 31  1  0  0  0  0
 30 22  1  6  0  0  0
 30 25  1  0  0  0  0
 31 24  1  0  0  0  0
M  END
>  <MODEL>
3

>  <REMARK>
 VINA RESULT:      -7.3      3.436      4.730
  Name = 
  2 active torsions:
  status: ('A' for Active; 'I' for Inactive)
    1  A    between atoms: C_5  and  C_30
    2  A    between atoms: C_10  and  N_16
                            x       y       z     vdW  Elec       q    Type
                         _______ _______ _______ _____ _____    ______ ____

>  <TORSDO>
F 2

$$$$
=
 OpenBabel11122413243D

 31 35  0  0  1  0  0  0  0  0999 V2000
  160.7730  207.4710  156.2770 C   0  0  0  0  0  0  0  0  0  0  0  0
  161.9130  208.2760  152.7330 C   0  0  2  0  0  3  0  0  0  0  0  0
  161.4970  207.1140  151.8460 C   0  0  0  0  0  0  0  0  0  0  0  0
  160.8530  204.6880  151.5530 C   0  0  0  0  0  0  0  0  0  0  0  0
  161.1590  208.3320  154.0410 C   0  0  0  0  0  0  0  0  0  0  0  0
  159.7740  208.4270  156.4780 C   0  0  0  0  0  3  0  0  0  0  0  0
  161.3830  205.7420  152.4790 C   0  0  0  0  0  2  0  0  0  0  0  0
  160.4460  210.2090  151.9670 C   0  0  2  0  0  3  0  0  0  0  0  0
  161.0690  206.5860  157.2590 F   0  0  0  0  0  0  0  0  0  0  0  0
  161.6220  208.6020  149.8490 C   0  0  0  0  0  2  0  0  0  0  0  0
  160.5010  203.5720  152.0140 O   0  0  0  0  0  0  0  0  0  0  0  0
  159.8860  210.2680  153.2770 O   0  0  0  0  0  0  0  0  0  0  0  0
  161.8730  209.6330  152.0050 C   0  0  2  0  0  3  0  0  0  0  0  0
  161.4660  207.4270  155.0650 C   0  0  0  0  0  3  0  0  0  0  0  0
  160.7930  204.9290  150.1100 C   0  0  0  0  0  3  0  0  0  0  0  0
  160.1630  209.3070  154.2530 C   0  0  0  0  0  0  0  0  0  0  0  0
  159.4740  209.3470  155.4690 C   0  0  0  0  0  3  0  0  0  0  0  0
  162.4440  209.5010  150.6610 N   0  0  0  0  0  2  0  0  0  0  0  0
  161.4450  207.2600  150.5000 C   0  0  0  0  0  0  0  0  0  0  0  0
  161.0790  206.1340  149.6210 C   0  0  0  0  0  3  0  0  0  0  0  0
  158.3110  212.0890  152.1140 O   0  0  0  0  0  0  0  0  0  0  0  0
  159.3550  212.4380  151.4980 C   0  0  0  0  0  0  0  0  0  0  0  0
  160.4590  211.5410  151.3800 N   0  0  0  0  0  2  0  0  0  0  0  0
  158.0500  214.4520  148.4680 C   0  0  1  0  0  3  0  0  0  0  0  0
  158.0580  214.4170  150.7060 C   0  0  0  0  0  2  0  0  0  0  0  0
  161.3870  213.5840  149.5410 O   0  0  0  0  0  0  0  0  0  0  0  0
  157.2020  214.2470  147.2300 C   0  0  0  0  0  1  0  0  0  0  0  0
  157.4110  213.8800  149.5790 O   0  0  0  0  0  0  0  0  0  0  0  0
  160.1780  213.7380  149.5570 C   0  0  0  0  0  0  0  0  0  0  0  0
  159.4500  213.7970  150.8770 C   0  0  2  0  0  3  0  0  0  0  0  0
  159.4260  213.8190  148.2560 C   0  0  0  0  0  2  0  0  0  0  0  0
  1  6  1  0  0  0  0
  1  9  1  0  0  0  0
  2  3  1  6  0  0  0
  2  5  1  0  0  0  0
  3  7  1  0  0  0  0
  4 11  2  0  0  0  0
  4  7  1  0  0  0  0
  5 16  2  0  0  0  0
  5 14  1  0  0  0  0
  8 23  1  1  0  0  0
  8 13  1  0  0  0  0
  8 12  1  0  0  0  0
 10 19  1  0  0  0  0
 10 18  1  0  0  0  0
 12 16  1  0  0  0  0
 13 18  1  6  0  0  0
 13  2  1  0  0  0  0
 14  1  2  0  0  0  0
 15  4  1  0  0  0  0
 16 17  1  0  0  0  0
 17  6  2  0  0  0  0
 19  3  2  0  0  0  0
 20 15  2  0  0  0  0
 20 19  1  0  0  0  0
 22 21  2  0  0  0  0
 23 22  1  0  0  0  0
 24 27  1  6  0  0  0
 24 28  1  0  0  0  0
 25 30  1  0  0  0  0
 26 29  2  0  0  0  0
 28 25  1  0  0  0  0
 29 30  1  0  0  0  0
 30 22  1  6  0  0  0
 31 24  1  0  0  0  0
 31 29  1  0  0  0  0
M  END
>  <MODEL>
4

>  <REMARK>
 VINA RESULT:      -6.9      3.783      5.944
  Name = 
  2 active torsions:
  status: ('A' for Active; 'I' for Inactive)
    1  A    between atoms: C_5  and  C_30
    2  A    between atoms: C_10  and  N_16
                            x       y       z     vdW  Elec       q    Type
                         _______ _______ _______ _____ _____    ______ ____

>  <TORSDO>
F 2

$$$$
=
 OpenBabel11122413243D

 31 35  0  0  1  0  0  0  0  0999 V2000
  161.0290  201.4650  150.0660 C   0  0  0  0  0  0  0  0  0  0  0  0
  162.0760  204.6510  148.2600 C   0  0  2  0  0  3  0  0  0  0  0  0
  161.3950  204.6490  146.9010 C   0  0  0  0  0  0  0  0  0  0  0  0
  160.2910  203.4130  144.9930 C   0  0  0  0  0  0  0  0  0  0  0  0
  161.4280  203.7180  149.2560 C   0  0  0  0  0  0  0  0  0  0  0  0
  160.2420  201.9730  151.1020 C   0  0  0  0  0  3  0  0  0  0  0  0
  161.0660  203.3110  146.2730 C   0  0  0  0  0  2  0  0  0  0  0  0
  160.9520  206.5530  149.5240 C   0  0  2  0  0  3  0  0  0  0  0  0
  161.2140  200.1280  149.9490 F   0  0  0  0  0  0  0  0  0  0  0  0
  161.6710  207.1240  146.7650 C   0  0  0  0  0  2  0  0  0  0  0  0
  159.7650  202.3840  144.4970 O   0  0  0  0  0  0  0  0  0  0  0  0
  160.4960  205.6060  150.4880 O   0  0  0  0  0  0  0  0  0  0  0  0
  162.2450  206.0660  148.8460 C   0  0  2  0  0  3  0  0  0  0  0  0
  161.6240  202.3360  149.1490 C   0  0  0  0  0  3  0  0  0  0  0  0
  160.1870  204.6940  144.2890 C   0  0  0  0  0  3  0  0  0  0  0  0
  160.6480  204.2280  150.3140 C   0  0  0  0  0  0  0  0  0  0  0  0
  160.0560  203.3520  151.2290 C   0  0  0  0  0  3  0  0  0  0  0  0
  162.6960  206.9930  147.8030 N   0  0  0  0  0  2  0  0  0  0  0  0
  161.2870  205.7930  146.1840 C   0  0  0  0  0  0  0  0  0  0  0  0
  160.6620  205.8040  144.8480 C   0  0  0  0  0  3  0  0  0  0  0  0
  162.6630  206.9900  151.7600 O   0  0  0  0  0  0  0  0  0  0  0  0
  162.0570  207.9890  151.2840 C   0  0  0  0  0  0  0  0  0  0  0  0
  161.1780  207.8380  150.1690 N   0  0  0  0  0  2  0  0  0  0  0  0
  160.0270  210.9230  152.7700 C   0  0  1  0  0  3  0  0  0  0  0  0
  161.6070  209.4220  153.2760 C   0  0  0  0  0  2  0  0  0  0  0  0
  162.2920  210.7230  149.9640 O   0  0  0  0  0  0  0  0  0  0  0  0
  158.5850  211.3260  152.9950 C   0  0  0  0  0  1  0  0  0  0  0  0
  160.2160  209.5930  153.1750 O   0  0  0  0  0  0  0  0  0  0  0  0
  161.6910  210.4190  150.9800 C   0  0  0  0  0  0  0  0  0  0  0  0
  162.2460  209.3470  151.8840 C   0  0  2  0  0  3  0  0  0  0  0  0
  160.3790  211.0880  151.2900 C   0  0  0  0  0  2  0  0  0  0  0  0
  1  6  1  0  0  0  0
  2  3  1  6  0  0  0
  2 13  1  0  0  0  0
  2  5  1  0  0  0  0
  4  7  1  0  0  0  0
  5 16  2  0  0  0  0
  6 17  2  0  0  0  0
  7  3  1  0  0  0  0
  8 23  1  1  0  0  0
  8 12  1  0  0  0  0
  9  1  1  0  0  0  0
 10 18  1  0  0  0  0
 11  4  2  0  0  0  0
 13 18  1  6  0  0  0
 13  8  1  0  0  0  0
 14  5  1  0  0  0  0
 14  1  2  0  0  0  0
 15 20  2  0  0  0  0
 15  4  1  0  0  0  0
 16 12  1  0  0  0  0
 16 17  1  0  0  0  0
 19 10  1  0  0  0  0
 19  3  2  0  0  0  0
 20 19  1  0  0  0  0
 22 21  2  0  0  0  0
 23 22  1  0  0  0  0
 24 27  1  6  0  0  0
 24 28  1  0  0  0  0
 26 29  2  0  0  0  0
 28 25  1  0  0  0  0
 29 31  1  0  0  0  0
 29 30  1  0  0  0  0
 30 22  1  6  0  0  0
 30 25  1  0  0  0  0
 31 24  1  0  0  0  0
M  END
>  <MODEL>
5

>  <REMARK>
 VINA RESULT:      -6.6      2.782      4.859
  Name = 
  2 active torsions:
  status: ('A' for Active; 'I' for Inactive)
    1  A    between atoms: C_5  and  C_30
    2  A    between atoms: C_10  and  N_16
                            x       y       z     vdW  Elec       q    Type
                         _______ _______ _______ _____ _____    ______ ____

>  <TORSDO>
F 2

$$$$
=
 OpenBabel11122413243D

 31 35  0  0  1  0  0  0  0  0999 V2000
  161.4400  207.9480  138.0280 C   0  0  0  0  0  0  0  0  0  0  0  0
  159.5860  211.2050  138.7050 C   0  0  2  0  0  3  0  0  0  0  0  0
  158.1000  210.8880  138.7240 C   0  0  0  0  0  0  0  0  0  0  0  0
  156.1550  209.4110  138.0730 C   0  0  0  0  0  0  0  0  0  0  0  0
  160.4610  209.9900  138.9020 C   0  0  0  0  0  0  0  0  0  0  0  0
  162.0880  207.7320  139.2470 C   0  0  0  0  0  3  0  0  0  0  0  0
  157.6130  209.7160  137.8970 C   0  0  0  0  0  2  0  0  0  0  0  0
  160.1300  211.8120  141.1160 C   0  0  2  0  0  3  0  0  0  0  0  0
  161.5930  207.0620  137.0150 F   0  0  0  0  0  0  0  0  0  0  0  0
  157.6800  212.9580  140.0500 C   0  0  0  0  0  2  0  0  0  0  0  0
  155.6840  208.3350  137.6230 O   0  0  0  0  0  0  0  0  0  0  0  0
  161.0360  210.7110  141.1600 O   0  0  0  0  0  0  0  0  0  0  0  0
  159.9710  212.3360  139.6790 C   0  0  2  0  0  3  0  0  0  0  0  0
  160.6330  209.0750  137.8560 C   0  0  0  0  0  3  0  0  0  0  0  0
  155.2670  210.3800  138.7190 C   0  0  0  0  0  3  0  0  0  0  0  0
  161.1310  209.7780  140.1240 C   0  0  0  0  0  0  0  0  0  0  0  0
  161.9390  208.6490  140.2910 C   0  0  0  0  0  3  0  0  0  0  0  0
  158.9930  213.4250  139.6000 N   0  0  0  0  0  2  0  0  0  0  0  0
  157.2180  211.7520  139.2820 C   0  0  0  0  0  0  0  0  0  0  0  0
  155.7690  211.4790  139.2760 C   0  0  0  0  0  3  0  0  0  0  0  0
  159.8250  211.8760  143.9480 O   0  0  0  0  0  0  0  0  0  0  0  0
  160.4280  212.8410  143.4040 C   0  0  0  0  0  0  0  0  0  0  0  0
  160.6080  212.8750  141.9880 N   0  0  0  0  0  2  0  0  0  0  0  0
  162.4530  213.4950  146.6300 C   0  0  1  0  0  3  0  0  0  0  0  0
  162.4780  213.8370  144.4190 C   0  0  0  0  0  2  0  0  0  0  0  0
  159.1180  214.4530  145.6300 O   0  0  0  0  0  0  0  0  0  0  0  0
  163.0820  212.7210  147.7700 C   0  0  0  0  0  1  0  0  0  0  0  0
  162.7770  212.8850  145.4080 O   0  0  0  0  0  0  0  0  0  0  0  0
  160.2600  214.0330  145.5680 C   0  0  0  0  0  0  0  0  0  0  0  0
  160.9610  213.9670  144.2340 C   0  0  2  0  0  3  0  0  0  0  0  0
  160.9360  213.5410  146.8200 C   0  0  0  0  0  2  0  0  0  0  0  0
  1  6  1  0  0  0  0
  2  3  1  1  0  0  0
  2  5  1  0  0  0  0
  2 13  1  0  0  0  0
  3 19  2  0  0  0  0
  4 15  1  0  0  0  0
  5 16  2  0  0  0  0
  6 17  2  0  0  0  0
  7  4  1  0  0  0  0
  7  3  1  0  0  0  0
  8 12  1  0  0  0  0
  8 23  1  1  0  0  0
  9  1  1  0  0  0  0
 11  4  2  0  0  0  0
 13 18  1  1  0  0  0
 13  8  1  0  0  0  0
 14  1  2  0  0  0  0
 14  5  1  0  0  0  0
 15 20  2  0  0  0  0
 16 17  1  0  0  0  0
 16 12  1  0  0  0  0
 18 10  1  0  0  0  0
 19 10  1  0  0  0  0
 20 19  1  0  0  0  0
 22 21  2  0  0  0  0
 23 22  1  0  0  0  0
 24 31  1  0  0  0  0
 24 27  1  1  0  0  0
 25 28  1  0  0  0  0
 28 24  1  0  0  0  0
 29 26  2  0  0  0  0
 29 31  1  0  0  0  0
 30 22  1  1  0  0  0
 30 25  1  0  0  0  0
 30 29  1  0  0  0  0
M  END
>  <MODEL>
6

>  <REMARK>
 VINA RESULT:      -6.3      7.329      9.966
  Name = 
  2 active torsions:
  status: ('A' for Active; 'I' for Inactive)
    1  A    between atoms: C_5  and  C_30
    2  A    between atoms: C_10  and  N_16
                            x       y       z     vdW  Elec       q    Type
                         _______ _______ _______ _____ _____    ______ ____

>  <TORSDO>
F 2

$$$$
=
 OpenBabel11122413243D

 31 35  0  0  1  0  0  0  0  0999 V2000
  161.1550  202.0160  150.6520 C   0  0  0  0  0  0  0  0  0  0  0  0
  162.1980  205.1400  148.7380 C   0  0  2  0  0  3  0  0  0  0  0  0
  161.5980  205.0420  147.3450 C   0  0  0  0  0  0  0  0  0  0  0  0
  160.6480  203.6690  145.4480 C   0  0  0  0  0  0  0  0  0  0  0  0
  161.5250  204.2370  149.7460 C   0  0  0  0  0  0  0  0  0  0  0  0
  160.2920  202.5480  151.6140 C   0  0  0  0  0  3  0  0  0  0  0  0
  161.3500  203.6620  146.7730 C   0  0  0  0  0  2  0  0  0  0  0  0
  160.9410  207.0630  149.8320 C   0  0  2  0  0  3  0  0  0  0  0  0
  161.3910  200.6830  150.6190 F   0  0  0  0  0  0  0  0  0  0  0  0
  161.7990  207.5150  147.0910 C   0  0  0  0  0  2  0  0  0  0  0  0
  160.1860  202.5970  144.9800 O   0  0  0  0  0  0  0  0  0  0  0  0
  160.4610  206.1510  150.8190 O   0  0  0  0  0  0  0  0  0  0  0  0
  162.2860  206.5890  149.2550 C   0  0  2  0  0  3  0  0  0  0  0  0
  161.7730  202.8590  149.7240 C   0  0  0  0  0  3  0  0  0  0  0  0
  160.5420  204.9060  144.6710 C   0  0  0  0  0  3  0  0  0  0  0  0
  160.6680  204.7720  150.7280 C   0  0  0  0  0  0  0  0  0  0  0  0
  160.0540  203.9250  151.6550 C   0  0  0  0  0  3  0  0  0  0  0  0
  162.7660  207.4760  148.1900 N   0  0  0  0  0  2  0  0  0  0  0  0
  161.4930  206.1420  146.5620 C   0  0  0  0  0  0  0  0  0  0  0  0
  160.9470  206.0610  145.1940 C   0  0  0  0  0  3  0  0  0  0  0  0
  160.6940  207.6670  152.6050 O   0  0  0  0  0  0  0  0  0  0  0  0
  160.9560  208.6200  151.8210 C   0  0  0  0  0  0  0  0  0  0  0  0
  161.0860  208.3870  150.4180 N   0  0  0  0  0  2  0  0  0  0  0  0
  161.1380  210.5630  155.1560 C   0  0  1  0  0  3  0  0  0  0  0  0
  162.3180  210.0780  153.3180 C   0  0  0  0  0  2  0  0  0  0  0  0
  158.9130  210.8220  152.3230 O   0  0  0  0  0  0  0  0  0  0  0  0
  161.0030  210.3100  156.6440 C   0  0  0  0  0  1  0  0  0  0  0  0
  161.9560  209.5790  154.5810 O   0  0  0  0  0  0  0  0  0  0  0  0
  159.8690  210.5000  153.0100 C   0  0  0  0  0  0  0  0  0  0  0  0
  161.1320  210.0090  152.3480 C   0  0  2  0  0  3  0  0  0  0  0  0
  159.7520  210.5540  154.5090 C   0  0  0  0  0  2  0  0  0  0  0  0
  1  6  1  0  0  0  0
  2  3  1  6  0  0  0
  2 13  1  0  0  0  0
  2  5  1  0  0  0  0
  4  7  1  0  0  0  0
  5 16  2  0  0  0  0
  6 17  2  0  0  0  0
  7  3  1  0  0  0  0
  8 23  1  1  0  0  0
  8 12  1  0  0  0  0
  9  1  1  0  0  0  0
 10 18  1  0  0  0  0
 11  4  2  0  0  0  0
 13 18  1  6  0  0  0
 13  8  1  0  0  0  0
 14  5  1  0  0  0  0
 14  1  2  0  0  0  0
 15 20  2  0  0  0  0
 15  4  1  0  0  0  0
 16 12  1  0  0  0  0
 16 17  1  0  0  0  0
 19 10  1  0  0  0  0
 19  3  2  0  0  0  0
 20 19  1  0  0  0  0
 22 21  2  0  0  0  0
 23 22  1  0  0  0  0
 24 27  1  1  0  0  0
 25 28  1  0  0  0  0
 26 29  2  0  0  0  0
 28 24  1  0  0  0  0
 29 31  1  0  0  0  0
 30 22  1  1  0  0  0
 30 29  1  0  0  0  0
 30 25  1  0  0  0  0
 31 24  1  0  0  0  0
M  END
>  <MODEL>
7

>  <REMARK>
 VINA RESULT:      -5.8      3.489      5.484
  Name = 
  2 active torsions:
  status: ('A' for Active; 'I' for Inactive)
    1  A    between atoms: C_5  and  C_30
    2  A    between atoms: C_10  and  N_16
                            x       y       z     vdW  Elec       q    Type
                         _______ _______ _______ _____ _____    ______ ____

>  <TORSDO>
F 2

$$$$
=
 OpenBabel11122413243D

 31 35  0  0  1  0  0  0  0  0999 V2000
  161.9080  213.0980  147.8570 C   0  0  0  0  0  0  0  0  0  0  0  0
  159.6630  214.1000  150.7670 C   0  0  2  0  0  3  0  0  0  0  0  0
  158.2360  214.1390  150.2480 C   0  0  0  0  0  0  0  0  0  0  0  0
  156.5910  214.3480  148.3400 C   0  0  0  0  0  0  0  0  0  0  0  0
  160.5980  213.2990  149.8910 C   0  0  0  0  0  0  0  0  0  0  0  0
  162.3400  211.8310  148.2560 C   0  0  0  0  0  3  0  0  0  0  0  0
  158.0210  214.4490  148.7810 C   0  0  0  0  0  2  0  0  0  0  0  0
  159.6970  212.1210  152.3670 C   0  0  2  0  0  3  0  0  0  0  0  0
  162.3270  213.6150  146.6770 F   0  0  0  0  0  0  0  0  0  0  0  0
  157.3870  213.8740  152.5780 C   0  0  0  0  0  2  0  0  0  0  0  0
  156.3130  214.3590  147.1130 O   0  0  0  0  0  0  0  0  0  0  0  0
  160.6790  211.5020  151.5390 O   0  0  0  0  0  0  0  0  0  0  0  0
  159.7560  213.6530  152.2390 C   0  0  2  0  0  3  0  0  0  0  0  0
  161.0440  213.8310  148.6740 C   0  0  0  0  0  3  0  0  0  0  0  0
  155.5120  214.2900  149.3290 C   0  0  0  0  0  3  0  0  0  0  0  0
  161.0500  212.0270  150.2970 C   0  0  0  0  0  0  0  0  0  0  0  0
  161.9160  211.2990  149.4770 C   0  0  0  0  0  3  0  0  0  0  0  0
  158.7100  214.3080  153.0310 N   0  0  0  0  0  2  0  0  0  0  0  0
  157.1890  214.1140  151.1080 C   0  0  0  0  0  0  0  0  0  0  0  0
  155.7980  214.1890  150.6250 C   0  0  0  0  0  3  0  0  0  0  0  0
  157.7070  211.0040  154.0730 O   0  0  0  0  0  0  0  0  0  0  0  0
  158.8640  211.1640  154.5510 C   0  0  0  0  0  0  0  0  0  0  0  0
  159.9050  211.7260  153.7520 N   0  0  0  0  0  2  0  0  0  0  0  0
  161.8250  210.8070  157.0080 C   0  0  1  0  0  3  0  0  0  0  0  0
  159.8950  211.8970  156.7010 C   0  0  0  0  0  2  0  0  0  0  0  0
  159.4060  208.4280  155.7740 O   0  0  0  0  0  0  0  0  0  0  0  0
  163.3340  210.9400  157.0170 C   0  0  0  0  0  1  0  0  0  0  0  0
  161.2570  211.9110  156.3540 O   0  0  0  0  0  0  0  0  0  0  0  0
  159.9560  209.4900  156.0130 C   0  0  0  0  0  0  0  0  0  0  0  0
  159.1610  210.7710  155.9640 C   0  0  2  0  0  3  0  0  0  0  0  0
  161.4310  209.5070  156.3060 C   0  0  0  0  0  2  0  0  0  0  0  0
  1  6  2  0  0  0  0
  1 14  1  0  0  0  0
  2  5  1  6  0  0  0
  2 13  1  0  0  0  0
  3  2  1  0  0  0  0
  3 19  2  0  0  0  0
  4  7  1  0  0  0  0
  4 15  1  0  0  0  0
  5 16  1  0  0  0  0
  6 17  1  0  0  0  0
  7  3  1  0  0  0  0
  8 23  1  1  0  0  0
  9  1  1  0  0  0  0
 10 18  1  0  0  0  0
 11  4  2  0  0  0  0
 12  8  1  0  0  0  0
 13  8  1  0  0  0  0
 13 18  1  1  0  0  0
 14  5  2  0  0  0  0
 15 20  2  0  0  0  0
 16 12  1  0  0  0  0
 17 16  2  0  0  0  0
 19 10  1  0  0  0  0
 20 19  1  0  0  0  0
 21 22  2  0  0  0  0
 23 22  1  0  0  0  0
 24 27  1  6  0  0  0
 26 29  2  0  0  0  0
 28 25  1  0  0  0  0
 28 24  1  0  0  0  0
 29 31  1  0  0  0  0
 30 22  1  6  0  0  0
 30 29  1  0  0  0  0
 30 25  1  0  0  0  0
 31 24  1  0  0  0  0
M  END
>  <MODEL>
8

>  <REMARK>
 VINA RESULT:      -5.4      5.880      9.183
  Name = 
  2 active torsions:
  status: ('A' for Active; 'I' for Inactive)
    1  A    between atoms: C_5  and  C_30
    2  A    between atoms: C_10  and  N_16
                            x       y       z     vdW  Elec       q    Type
                         _______ _______ _______ _____ _____    ______ ____

>  <TORSDO>
F 2

$$$$
