=
 OpenBabel11122413283D

 31 35  0  0  1  0  0  0  0  0999 V2000
  160.8100  207.6140  156.3300 C   0  0  0  0  0  0  0  0  0  0  0  0
  161.8740  208.8690  152.9010 C   0  0  2  0  0  3  0  0  0  0  0  0
  161.5010  207.7800  151.9050 C   0  0  0  0  0  0  0  0  0  0  0  0
  160.8960  205.4790  151.4030 C   0  0  0  0  0  0  0  0  0  0  0  0
  161.1240  208.7550  154.2080 C   0  0  0  0  0  0  0  0  0  0  0  0
  159.7060  208.4230  156.6050 C   0  0  0  0  0  3  0  0  0  0  0  0
  161.2060  206.4750  152.3300 C   0  0  0  0  0  3  0  0  0  0  0  0
  160.2380  210.6570  152.2110 C   0  0  2  0  0  3  0  0  0  0  0  0
  161.2120  206.6170  157.2610 N   0  0  0  0  0  1  0  0  0  0  0  0
  161.8570  209.3360  150.0610 O   0  0  0  0  0  0  0  0  0  0  0  0
  160.5720  204.1050  151.8700 C   0  0  0  0  0  1  0  0  0  0  0  0
  159.6300  210.7320  153.6120 C   0  0  0  0  0  2  0  0  0  0  0  0
  161.7230  210.2800  152.2990 C   0  0  2  0  0  3  0  0  0  0  0  0
  161.5170  207.7810  155.1360 C   0  0  0  0  0  3  0  0  0  0  0  0
  160.8910  205.7710  150.0380 C   0  0  0  0  0  3  0  0  0  0  0  0
  160.0080  209.5750  154.4930 C   0  0  0  0  0  0  0  0  0  0  0  0
  159.3130  209.4060  155.6940 C   0  0  0  0  0  3  0  0  0  0  0  0
  162.4030  210.3270  150.9290 C   0  0  0  0  0  2  0  0  0  0  0  0
  161.5290  208.0570  150.5220 C   0  0  0  0  0  0  0  0  0  0  0  0
  161.2080  207.0580  149.5980 C   0  0  0  0  0  3  0  0  0  0  0  0
  157.9030  212.2930  152.3270 O   0  0  0  0  0  0  0  0  0  0  0  0
  158.8830  212.7190  151.6550 C   0  0  0  0  0  0  0  0  0  0  0  0
  160.0780  211.9450  151.5480 N   0  0  0  0  0  2  0  0  0  0  0  0
  157.5530  214.2220  148.2490 C   0  0  1  0  0  3  0  0  0  0  0  0
  157.3500  214.4530  150.7130 C   0  0  0  0  0  2  0  0  0  0  0  0
  160.8760  214.0380  149.7570 O   0  0  0  0  0  0  0  0  0  0  0  0
  157.0800  213.5600  147.1180 O   0  0  0  0  0  1  0  0  0  0  0  0
  156.7730  213.7710  149.4760 C   0  0  0  0  0  2  0  0  0  0  0  0
  159.6200  214.0360  149.6910 C   0  0  0  0  0  0  0  0  0  0  0  0
  158.8060  214.0410  150.9580 C   0  0  2  0  0  3  0  0  0  0  0  0
  158.9780  213.9550  148.4140 N   0  0  0  0  0  2  0  0  0  0  0  0
  1  6  1  0  0  0  0
  1  9  1  0  0  0  0
  2  3  1  6  0  0  0
  2  5  1  0  0  0  0
  3  7  1  0  0  0  0
  4 11  1  0  0  0  0
  4  7  2  0  0  0  0
  5 16  2  0  0  0  0
  5 14  1  0  0  0  0
  8 23  1  1  0  0  0
  8 13  1  0  0  0  0
  8 12  1  0  0  0  0
 10 19  1  0  0  0  0
 10 18  1  0  0  0  0
 12 16  1  0  0  0  0
 13 18  1  6  0  0  0
 13  2  1  0  0  0  0
 14  1  2  0  0  0  0
 15  4  1  0  0  0  0
 16 17  1  0  0  0  0
 17  6  2  0  0  0  0
 19  3  2  0  0  0  0
 20 15  2  0  0  0  0
 20 19  1  0  0  0  0
 22 21  2  0  0  0  0
 23 22  1  0  0  0  0
 24 27  1  6  0  0  0
 24 31  1  0  0  0  0
 24 28  1  0  0  0  0
 25 30  1  0  0  0  0
 28 25  1  0  0  0  0
 29 26  2  0  0  0  0
 29 30  1  0  0  0  0
 30 22  1  6  0  0  0
 31 29  1  0  0  0  0
M  END
>  <MODEL>
1

>  <REMARK>
 VINA RESULT:      -7.1      0.000      0.000
  Name = 
  2 active torsions:
  status: ('A' for Active; 'I' for Inactive)
    1  A    between atoms: C_5  and  C_30
    2  A    between atoms: C_10  and  N_16
                            x       y       z     vdW  Elec       q    Type
                         _______ _______ _______ _____ _____    ______ ____

>  <TORSDO>
F 2

$$$$
=
 OpenBabel11122413283D

 31 35  0  0  1  0  0  0  0  0999 V2000
  160.8900  206.2340  146.4140 C   0  0  0  0  0  0  0  0  0  0  0  0
  160.2370  205.0170  149.9580 C   0  0  2  0  0  3  0  0  0  0  0  0
  160.7020  203.5690  150.0130 C   0  0  0  0  0  0  0  0  0  0  0  0
  161.3240  201.4950  148.9040 C   0  0  0  0  0  0  0  0  0  0  0  0
  160.8340  205.7850  148.8020 C   0  0  0  0  0  0  0  0  0  0  0  0
  161.9690  207.1000  146.5990 C   0  0  0  0  0  3  0  0  0  0  0  0
  160.9270  202.8320  148.8390 C   0  0  0  0  0  3  0  0  0  0  0  0
  161.9680  206.0780  151.4510 C   0  0  2  0  0  3  0  0  0  0  0  0
  160.3700  206.0120  145.1100 N   0  0  0  0  0  1  0  0  0  0  0  0
  160.5800  203.6150  152.4480 O   0  0  0  0  0  0  0  0  0  0  0  0
  161.5720  200.7330  147.6530 C   0  0  0  0  0  1  0  0  0  0  0  0
  162.4170  207.0440  150.3530 C   0  0  0  0  0  2  0  0  0  0  0  0
  160.4770  205.7520  151.2920 C   0  0  2  0  0  3  0  0  0  0  0  0
  160.3240  205.5800  147.5120 C   0  0  0  0  0  3  0  0  0  0  0  0
  161.4860  200.8730  150.1440 C   0  0  0  0  0  3  0  0  0  0  0  0
  161.9240  206.6670  148.9850 C   0  0  0  0  0  0  0  0  0  0  0  0
  162.4770  207.3230  147.8810 C   0  0  0  0  0  3  0  0  0  0  0  0
  159.9560  204.8970  152.4480 C   0  0  0  0  0  2  0  0  0  0  0  0
  160.8350  202.9230  151.2600 C   0  0  0  0  0  0  0  0  0  0  0  0
  161.2410  201.5860  151.3200 C   0  0  0  0  0  3  0  0  0  0  0  0
  160.6290  208.3690  152.5000 O   0  0  0  0  0  0  0  0  0  0  0  0
  161.5090  207.8230  153.2230 C   0  0  0  0  0  0  0  0  0  0  0  0
  162.2230  206.6800  152.7540 N   0  0  0  0  0  2  0  0  0  0  0  0
  159.6890  209.7740  156.1400 C   0  0  1  0  0  3  0  0  0  0  0  0
  160.9570  207.6950  155.6570 C   0  0  0  0  0  2  0  0  0  0  0  0
  162.5570  210.5750  154.0240 O   0  0  0  0  0  0  0  0  0  0  0  0
  158.4300  210.3710  156.1510 O   0  0  0  0  0  1  0  0  0  0  0  0
  159.5650  208.3130  155.7300 C   0  0  0  0  0  2  0  0  0  0  0  0
  161.6950  209.8680  154.6080 C   0  0  0  0  0  0  0  0  0  0  0  0
  161.8180  208.3680  154.5820 C   0  0  2  0  0  3  0  0  0  0  0  0
  160.5670  210.4960  155.2260 N   0  0  0  0  0  2  0  0  0  0  0  0
  1  6  2  0  0  0  0
  1 14  1  0  0  0  0
  2  5  1  6  0  0  0
  2  3  1  0  0  0  0
  2 13  1  0  0  0  0
  3 19  1  0  0  0  0
  4 15  2  0  0  0  0
  5 16  1  0  0  0  0
  6 17  1  0  0  0  0
  7  4  1  0  0  0  0
  7  3  2  0  0  0  0
  8 23  1  1  0  0  0
  9  1  1  0  0  0  0
 10 18  1  0  0  0  0
 11  4  1  0  0  0  0
 12  8  1  0  0  0  0
 13  8  1  0  0  0  0
 13 18  1  1  0  0  0
 14  5  2  0  0  0  0
 15 20  1  0  0  0  0
 16 12  1  0  0  0  0
 17 16  2  0  0  0  0
 19 20  2  0  0  0  0
 19 10  1  0  0  0  0
 21 22  2  0  0  0  0
 23 22  1  0  0  0  0
 24 27  1  6  0  0  0
 25 28  1  0  0  0  0
 26 29  2  0  0  0  0
 28 24  1  0  0  0  0
 29 31  1  0  0  0  0
 30 22  1  6  0  0  0
 30 29  1  0  0  0  0
 30 25  1  0  0  0  0
 31 24  1  0  0  0  0
M  END
>  <MODEL>
2

>  <REMARK>
 VINA RESULT:      -7.0      4.305      7.114
  Name = 
  2 active torsions:
  status: ('A' for Active; 'I' for Inactive)
    1  A    between atoms: C_5  and  C_30
    2  A    between atoms: C_10  and  N_16
                            x       y       z     vdW  Elec       q    Type
                         _______ _______ _______ _____ _____    ______ ____

>  <TORSDO>
F 2

$$$$
=
 OpenBabel11122413283D

 31 35  0  0  1  0  0  0  0  0999 V2000
  161.0920  203.7970  145.6260 C   0  0  0  0  0  0  0  0  0  0  0  0
  160.4690  205.6640  148.8800 C   0  0  2  0  0  3  0  0  0  0  0  0
  160.8090  204.6990  150.0070 C   0  0  0  0  0  0  0  0  0  0  0  0
  161.2070  202.4420  150.8210 C   0  0  0  0  0  0  0  0  0  0  0  0
  161.0860  205.2690  147.5580 C   0  0  0  0  0  0  0  0  0  0  0  0
  162.2480  204.4190  145.1500 C   0  0  0  0  0  3  0  0  0  0  0  0
  160.9250  203.3190  149.7730 C   0  0  0  0  0  3  0  0  0  0  0  0
  162.3400  207.3280  149.1640 C   0  0  2  0  0  3  0  0  0  0  0  0
  160.5060  202.7270  144.8940 N   0  0  0  0  0  1  0  0  0  0  0  0
  160.7830  206.5420  151.6030 O   0  0  0  0  0  0  0  0  0  0  0  0
  161.3410  200.9860  150.5550 C   0  0  0  0  0  1  0  0  0  0  0  0
  162.8290  207.1220  147.7300 C   0  0  0  0  0  2  0  0  0  0  0  0
  160.8220  207.1210  149.2410 C   0  0  2  0  0  3  0  0  0  0  0  0
  160.5130  204.2220  146.8240 C   0  0  0  0  0  3  0  0  0  0  0  0
  161.3610  202.9310  152.1200 C   0  0  0  0  0  3  0  0  0  0  0  0
  162.2540  205.8990  147.0710 C   0  0  0  0  0  0  0  0  0  0  0  0
  162.8200  205.4720  145.8660 C   0  0  0  0  0  3  0  0  0  0  0  0
  160.2720  207.4520  150.6300 C   0  0  0  0  0  2  0  0  0  0  0  0
  160.9320  205.1800  151.3280 C   0  0  0  0  0  0  0  0  0  0  0  0
  161.2230  204.2980  152.3730 C   0  0  0  0  0  3  0  0  0  0  0  0
  161.3520  209.7510  148.0250 O   0  0  0  0  0  0  0  0  0  0  0  0
  162.1550  209.8450  148.9950 C   0  0  0  0  0  0  0  0  0  0  0  0
  162.6940  208.6720  149.6040 N   0  0  0  0  0  2  0  0  0  0  0  0
  160.6550  213.4870  149.3260 C   0  0  1  0  0  3  0  0  0  0  0  0
  161.6340  211.6350  150.6590 C   0  0  0  0  0  2  0  0  0  0  0  0
  163.5660  212.1470  147.5720 O   0  0  0  0  0  0  0  0  0  0  0  0
  159.4850  214.0120  148.7820 O   0  0  0  0  0  1  0  0  0  0  0  0
  160.3350  212.2340  150.1290 C   0  0  0  0  0  2  0  0  0  0  0  0
  162.6300  212.2050  148.4110 C   0  0  0  0  0  0  0  0  0  0  0  0
  162.5560  211.1890  149.5190 C   0  0  2  0  0  3  0  0  0  0  0  0
  161.6030  213.1910  148.2580 N   0  0  0  0  0  2  0  0  0  0  0  0
  1 14  1  0  0  0  0
  2  5  1  6  0  0  0
  2 13  1  0  0  0  0
  2  3  1  0  0  0  0
  3 19  1  0  0  0  0
  4 15  2  0  0  0  0
  6  1  2  0  0  0  0
  6 17  1  0  0  0  0
  7  3  2  0  0  0  0
  7  4  1  0  0  0  0
  8 13  1  0  0  0  0
  8 23  1  6  0  0  0
  9  1  1  0  0  0  0
 11  4  1  0  0  0  0
 12  8  1  0  0  0  0
 13 18  1  1  0  0  0
 14  5  2  0  0  0  0
 15 20  1  0  0  0  0
 16  5  1  0  0  0  0
 16 12  1  0  0  0  0
 17 16  2  0  0  0  0
 18 10  1  0  0  0  0
 19 10  1  0  0  0  0
 19 20  2  0  0  0  0
 21 22  2  0  0  0  0
 22 23  1  0  0  0  0
 24 27  1  6  0  0  0
 24 28  1  0  0  0  0
 26 29  2  0  0  0  0
 28 25  1  0  0  0  0
 29 30  1  0  0  0  0
 30 22  1  6  0  0  0
 30 25  1  0  0  0  0
 31 29  1  0  0  0  0
 31 24  1  0  0  0  0
M  END
>  <MODEL>
3

>  <REMARK>
 VINA RESULT:      -6.5      3.449      6.326
  Name = 
  2 active torsions:
  status: ('A' for Active; 'I' for Inactive)
    1  A    between atoms: C_5  and  C_30
    2  A    between atoms: C_10  and  N_16
                            x       y       z     vdW  Elec       q    Type
                         _______ _______ _______ _____ _____    ______ ____

>  <TORSDO>
F 2

$$$$
=
 OpenBabel11122413283D

 31 35  0  0  1  0  0  0  0  0999 V2000
  161.6430  206.1850  152.2510 C   0  0  0  0  0  0  0  0  0  0  0  0
  160.0780  209.6000  152.8430 C   0  0  2  0  0  3  0  0  0  0  0  0
  160.6210  210.1020  154.1740 C   0  0  0  0  0  0  0  0  0  0  0  0
  161.7030  209.6960  156.3140 C   0  0  0  0  0  0  0  0  0  0  0  0
  160.9250  208.5050  152.2360 C   0  0  0  0  0  0  0  0  0  0  0  0
  162.5480  206.4540  151.2230 C   0  0  0  0  0  3  0  0  0  0  0  0
  161.2380  209.2280  155.0840 C   0  0  0  0  0  3  0  0  0  0  0  0
  161.2050  211.2270  151.2830 C   0  0  2  0  0  3  0  0  0  0  0  0
  161.5480  204.8720  152.7910 N   0  0  0  0  0  1  0  0  0  0  0  0
  159.7870  212.3390  153.6790 O   0  0  0  0  0  0  0  0  0  0  0  0
  162.3670  208.7620  157.2610 C   0  0  0  0  0  1  0  0  0  0  0  0
  161.8770  210.1030  150.4930 C   0  0  0  0  0  2  0  0  0  0  0  0
  159.8570  210.7490  151.8390 C   0  0  2  0  0  3  0  0  0  0  0  0
  160.8340  207.2070  152.7550 C   0  0  0  0  0  3  0  0  0  0  0  0
  161.5430  211.0400  156.6570 C   0  0  0  0  0  3  0  0  0  0  0  0
  161.8390  208.7730  151.1920 C   0  0  0  0  0  0  0  0  0  0  0  0
  162.6380  207.7410  150.6890 C   0  0  0  0  0  3  0  0  0  0  0  0
  159.0900  211.8830  152.5200 C   0  0  0  0  0  2  0  0  0  0  0  0
  160.4320  211.4500  154.5440 C   0  0  0  0  0  0  0  0  0  0  0  0
  160.9090  211.9160  155.7730 C   0  0  0  0  0  3  0  0  0  0  0  0
  161.8680  211.3260  148.5090 O   0  0  0  0  0  0  0  0  0  0  0  0
  161.3620  212.3600  149.0270 C   0  0  0  0  0  0  0  0  0  0  0  0
  161.0180  212.3800  150.4120 N   0  0  0  0  0  2  0  0  0  0  0  0
  161.0890  213.3730  145.2160 C   0  0  1  0  0  3  0  0  0  0  0  0
  159.8430  213.4390  147.3630 C   0  0  0  0  0  2  0  0  0  0  0  0
  163.3590  214.3730  147.8980 O   0  0  0  0  0  0  0  0  0  0  0  0
  161.3740  212.6180  144.0800 O   0  0  0  0  0  1  0  0  0  0  0  0
  160.0890  212.6310  146.0930 C   0  0  0  0  0  2  0  0  0  0  0  0
  162.3220  213.9140  147.3540 C   0  0  0  0  0  0  0  0  0  0  0  0
  161.1200  213.5820  148.1980 C   0  0  2  0  0  3  0  0  0  0  0  0
  162.3220  213.6420  145.9480 N   0  0  0  0  0  2  0  0  0  0  0  0
  1 14  1  0  0  0  0
  1  9  1  0  0  0  0
  2  5  1  6  0  0  0
  2  3  1  0  0  0  0
  3 19  2  0  0  0  0
  3  7  1  0  0  0  0
  4 15  1  0  0  0  0
  4 11  1  0  0  0  0
  5 14  2  0  0  0  0
  6  1  2  0  0  0  0
  7  4  2  0  0  0  0
  8 23  1  6  0  0  0
  8 13  1  0  0  0  0
 10 19  1  0  0  0  0
 12 16  1  0  0  0  0
 12  8  1  0  0  0  0
 13 18  1  1  0  0  0
 13  2  1  0  0  0  0
 16  5  1  0  0  0  0
 17 16  2  0  0  0  0
 17  6  1  0  0  0  0
 18 10  1  0  0  0  0
 19 20  1  0  0  0  0
 20 15  2  0  0  0  0
 21 22  2  0  0  0  0
 22 23  1  0  0  0  0
 24 27  1  6  0  0  0
 24 31  1  0  0  0  0
 24 28  1  0  0  0  0
 25 30  1  0  0  0  0
 28 25  1  0  0  0  0
 29 26  2  0  0  0  0
 29 30  1  0  0  0  0
 30 22  1  6  0  0  0
 31 29  1  0  0  0  0
M  END
>  <MODEL>
4

>  <REMARK>
 VINA RESULT:      -6.4      2.551      4.730
  Name = 
  2 active torsions:
  status: ('A' for Active; 'I' for Inactive)
    1  A    between atoms: C_5  and  C_30
    2  A    between atoms: C_10  and  N_16
                            x       y       z     vdW  Elec       q    Type
                         _______ _______ _______ _____ _____    ______ ____

>  <TORSDO>
F 2

$$$$
=
 OpenBabel11122413283D

 31 35  0  0  1  0  0  0  0  0999 V2000
  160.8680  209.4720  154.6390 C   0  0  0  0  0  0  0  0  0  0  0  0
  162.1940  210.1170  151.1330 C   0  0  2  0  0  3  0  0  0  0  0  0
  161.8320  208.8950  150.3000 C   0  0  0  0  0  0  0  0  0  0  0  0
  161.1540  206.5660  150.1320 C   0  0  0  0  0  0  0  0  0  0  0  0
  161.3620  210.2430  152.3890 C   0  0  0  0  0  0  0  0  0  0  0  0
  159.7870  210.3530  154.7080 C   0  0  0  0  0  3  0  0  0  0  0  0
  161.4530  207.6870  150.9070 C   0  0  0  0  0  3  0  0  0  0  0  0
  160.6860  211.8270  150.0590 C   0  0  2  0  0  3  0  0  0  0  0  0
  161.1680  208.6250  155.7410 N   0  0  0  0  0  1  0  0  0  0  0  0
  162.3700  210.1180  148.2600 O   0  0  0  0  0  0  0  0  0  0  0  0
  160.7390  205.2980  150.7880 C   0  0  0  0  0  1  0  0  0  0  0  0
  159.9990  212.1490  151.3870 C   0  0  0  0  0  2  0  0  0  0  0  0
  162.1440  211.4160  150.3050 C   0  0  2  0  0  3  0  0  0  0  0  0
  161.6530  209.4180  153.4840 C   0  0  0  0  0  3  0  0  0  0  0  0
  161.2450  206.6330  148.7400 C   0  0  0  0  0  3  0  0  0  0  0  0
  160.2700  211.1370  152.4640 C   0  0  0  0  0  0  0  0  0  0  0  0
  159.4960  211.1890  153.6270 C   0  0  0  0  0  3  0  0  0  0  0  0
  162.9070  211.2170  148.9940 C   0  0  0  0  0  2  0  0  0  0  0  0
  161.9560  208.9440  148.8950 C   0  0  0  0  0  0  0  0  0  0  0  0
  161.6460  207.8200  148.1230 C   0  0  0  0  0  3  0  0  0  0  0  0
  159.9810  211.7920  147.2950 O   0  0  0  0  0  0  0  0  0  0  0  0
  160.2550  212.9100  147.8150 C   0  0  0  0  0  0  0  0  0  0  0  0
  160.6250  212.9950  149.1910 N   0  0  0  0  0  2  0  0  0  0  0  0
  159.3090  214.0320  144.1440 C   0  0  1  0  0  3  0  0  0  0  0  0
  158.7670  214.4530  146.5310 C   0  0  0  0  0  2  0  0  0  0  0  0
  162.4070  214.1960  146.0740 O   0  0  0  0  0  0  0  0  0  0  0  0
  159.0280  213.2480  143.0270 O   0  0  0  0  0  1  0  0  0  0  0  0
  158.3990  213.6340  145.2980 C   0  0  0  0  0  2  0  0  0  0  0  0
  161.1720  214.1050  145.8490 C   0  0  0  0  0  0  0  0  0  0  0  0
  160.1980  214.1610  146.9960 C   0  0  2  0  0  3  0  0  0  0  0  0
  160.7120  213.8760  144.5130 N   0  0  0  0  0  2  0  0  0  0  0  0
  1  6  1  0  0  0  0
  1  9  1  0  0  0  0
  2  3  1  6  0  0  0
  2  5  1  0  0  0  0
  3  7  1  0  0  0  0
  4 11  1  0  0  0  0
  4  7  2  0  0  0  0
  5 16  2  0  0  0  0
  5 14  1  0  0  0  0
  8 23  1  6  0  0  0
  8 13  1  0  0  0  0
  8 12  1  0  0  0  0
 10 19  1  0  0  0  0
 10 18  1  0  0  0  0
 12 16  1  0  0  0  0
 13 18  1  6  0  0  0
 13  2  1  0  0  0  0
 14  1  2  0  0  0  0
 15  4  1  0  0  0  0
 16 17  1  0  0  0  0
 17  6  2  0  0  0  0
 19  3  2  0  0  0  0
 20 15  2  0  0  0  0
 20 19  1  0  0  0  0
 21 22  2  0  0  0  0
 22 23  1  0  0  0  0
 24 27  1  6  0  0  0
 24 31  1  0  0  0  0
 24 28  1  0  0  0  0
 25 30  1  0  0  0  0
 28 25  1  0  0  0  0
 29 26  2  0  0  0  0
 29 30  1  0  0  0  0
 30 22  1  6  0  0  0
 31 29  1  0  0  0  0
M  END
>  <MODEL>
5

>  <REMARK>
 VINA RESULT:      -6.4      2.354      3.123
  Name = 
  2 active torsions:
  status: ('A' for Active; 'I' for Inactive)
    1  A    between atoms: C_5  and  C_30
    2  A    between atoms: C_10  and  N_16
                            x       y       z     vdW  Elec       q    Type
                         _______ _______ _______ _____ _____    ______ ____

>  <TORSDO>
F 2

$$$$
=
 OpenBabel11122413283D

 31 35  0  0  1  0  0  0  0  0999 V2000
  160.9900  204.5130  145.0710 C   0  0  0  0  0  0  0  0  0  0  0  0
  160.3920  205.3100  148.7410 C   0  0  2  0  0  3  0  0  0  0  0  0
  160.8120  204.0760  149.5280 C   0  0  0  0  0  0  0  0  0  0  0  0
  161.3360  201.7040  149.6350 C   0  0  0  0  0  0  0  0  0  0  0  0
  160.9820  205.3530  147.3510 C   0  0  0  0  0  0  0  0  0  0  0  0
  162.1000  205.3070  144.7780 C   0  0  0  0  0  3  0  0  0  0  0  0
  160.9810  202.8340  148.8960 C   0  0  0  0  0  3  0  0  0  0  0  0
  162.1950  206.9130  149.4680 C   0  0  2  0  0  3  0  0  0  0  0  0
  160.4280  203.6760  144.0680 N   0  0  0  0  0  1  0  0  0  0  0  0
  160.7560  205.3670  151.5960 O   0  0  0  0  0  0  0  0  0  0  0  0
  161.5270  200.3990  148.9490 C   0  0  0  0  0  1  0  0  0  0  0  0
  162.6450  207.1620  148.0280 C   0  0  0  0  0  2  0  0  0  0  0  0
  160.6910  206.6140  149.5080 C   0  0  2  0  0  3  0  0  0  0  0  0
  160.4320  204.5370  146.3520 C   0  0  0  0  0  3  0  0  0  0  0  0
  161.5110  201.7980  151.0170 C   0  0  0  0  0  3  0  0  0  0  0  0
  162.1040  206.1580  147.0490 C   0  0  0  0  0  0  0  0  0  0  0  0
  162.6480  206.1330  145.7620 C   0  0  0  0  0  3  0  0  0  0  0  0
  160.1730  206.4930  150.9430 C   0  0  0  0  0  2  0  0  0  0  0  0
  160.9560  204.1550  150.9290 C   0  0  0  0  0  0  0  0  0  0  0  0
  161.3210  203.0220  151.6630 C   0  0  0  0  0  3  0  0  0  0  0  0
  161.4170  209.5900  148.8580 O   0  0  0  0  0  0  0  0  0  0  0  0
  162.0740  209.3990  149.9190 C   0  0  0  0  0  0  0  0  0  0  0  0
  162.5030  208.0860  150.2770 N   0  0  0  0  0  2  0  0  0  0  0  0
  160.4630  211.4500  152.8890 C   0  0  1  0  0  3  0  0  0  0  0  0
  162.4630  210.1100  152.2830 C   0  0  0  0  0  2  0  0  0  0  0  0
  161.5690  212.3840  149.5350 O   0  0  0  0  0  0  0  0  0  0  0  0
  159.1620  211.4050  153.3880 O   0  0  0  0  0  1  0  0  0  0  0  0
  161.0670  210.0530  152.8960 C   0  0  0  0  0  2  0  0  0  0  0  0
  161.4840  211.7080  150.5920 C   0  0  0  0  0  0  0  0  0  0  0  0
  162.4170  210.5480  150.8140 C   0  0  2  0  0  3  0  0  0  0  0  0
  160.4510  212.0030  151.5390 N   0  0  0  0  0  2  0  0  0  0  0  0
  1 14  1  0  0  0  0
  2  5  1  6  0  0  0
  2 13  1  0  0  0  0
  2  3  1  0  0  0  0
  3 19  1  0  0  0  0
  4 15  2  0  0  0  0
  6  1  2  0  0  0  0
  6 17  1  0  0  0  0
  7  3  2  0  0  0  0
  7  4  1  0  0  0  0
  8 13  1  0  0  0  0
  8 23  1  1  0  0  0
  9  1  1  0  0  0  0
 11  4  1  0  0  0  0
 12  8  1  0  0  0  0
 13 18  1  1  0  0  0
 14  5  2  0  0  0  0
 15 20  1  0  0  0  0
 16  5  1  0  0  0  0
 16 12  1  0  0  0  0
 17 16  2  0  0  0  0
 18 10  1  0  0  0  0
 19 10  1  0  0  0  0
 19 20  2  0  0  0  0
 21 22  2  0  0  0  0
 22 23  1  0  0  0  0
 24 28  1  0  0  0  0
 24 27  1  6  0  0  0
 25 28  1  0  0  0  0
 26 29  2  0  0  0  0
 29 30  1  0  0  0  0
 29 31  1  0  0  0  0
 30 22  1  6  0  0  0
 30 25  1  0  0  0  0
 31 24  1  0  0  0  0
M  END
>  <MODEL>
6

>  <REMARK>
 VINA RESULT:      -6.1      3.367      6.804
  Name = 
  2 active torsions:
  status: ('A' for Active; 'I' for Inactive)
    1  A    between atoms: C_5  and  C_30
    2  A    between atoms: C_10  and  N_16
                            x       y       z     vdW  Elec       q    Type
                         _______ _______ _______ _____ _____    ______ ____

>  <TORSDO>
F 2

$$$$
=
 OpenBabel11122413283D

 31 35  0  0  1  0  0  0  0  0999 V2000
  162.0830  213.7090  147.3850 C   0  0  0  0  0  0  0  0  0  0  0  0
  159.6870  214.3640  150.2640 C   0  0  2  0  0  3  0  0  0  0  0  0
  158.2820  214.3080  149.6810 C   0  0  0  0  0  0  0  0  0  0  0  0
  156.7690  214.3720  147.7780 C   0  0  0  0  0  0  0  0  0  0  0  0
  160.7150  213.6820  149.3920 C   0  0  0  0  0  0  0  0  0  0  0  0
  162.5420  212.4230  147.6750 C   0  0  0  0  0  3  0  0  0  0  0  0
  158.0640  214.3940  148.2970 C   0  0  0  0  0  3  0  0  0  0  0  0
  159.6390  212.2880  151.6920 C   0  0  2  0  0  3  0  0  0  0  0  0
  162.5360  214.3800  146.2150 N   0  0  0  0  0  1  0  0  0  0  0  0
  157.3450  214.2050  151.9300 O   0  0  0  0  0  0  0  0  0  0  0  0
  156.5560  214.4490  146.3090 C   0  0  0  0  0  1  0  0  0  0  0  0
  160.8500  211.6890  150.9760 C   0  0  0  0  0  2  0  0  0  0  0  0
  159.7370  213.8200  151.7060 C   0  0  2  0  0  3  0  0  0  0  0  0
  161.1740  214.3360  148.2400 C   0  0  0  0  0  3  0  0  0  0  0  0
  155.6720  214.2800  148.6380 C   0  0  0  0  0  3  0  0  0  0  0  0
  161.1860  212.3810  149.6850 C   0  0  0  0  0  0  0  0  0  0  0  0
  162.1030  211.7670  148.8270 C   0  0  0  0  0  3  0  0  0  0  0  0
  158.6150  214.4530  152.5310 C   0  0  0  0  0  2  0  0  0  0  0  0
  157.1670  214.2510  150.5450 C   0  0  0  0  0  0  0  0  0  0  0  0
  155.8720  214.2200  150.0200 C   0  0  0  0  0  3  0  0  0  0  0  0
  160.1230  209.5790  152.4470 O   0  0  0  0  0  0  0  0  0  0  0  0
  159.8430  210.4010  153.3640 C   0  0  0  0  0  0  0  0  0  0  0  0
  159.5800  211.7690  153.0530 N   0  0  0  0  0  2  0  0  0  0  0  0
  162.1370  210.3630  156.5830 C   0  0  1  0  0  3  0  0  0  0  0  0
  159.9300  211.1390  155.7500 C   0  0  0  0  0  2  0  0  0  0  0  0
  160.5990  207.7120  154.5940 O   0  0  0  0  0  0  0  0  0  0  0  0
  163.4890  210.6760  156.7070 O   0  0  0  0  0  1  0  0  0  0  0  0
  161.3940  211.5260  155.9400 C   0  0  0  0  0  2  0  0  0  0  0  0
  160.7840  208.8650  155.0640 C   0  0  0  0  0  0  0  0  0  0  0  0
  159.7800  209.9530  154.7910 C   0  0  2  0  0  3  0  0  0  0  0  0
  161.9850  209.1480  155.7900 N   0  0  0  0  0  2  0  0  0  0  0  0
  1  6  2  0  0  0  0
  1 14  1  0  0  0  0
  2  5  1  6  0  0  0
  2 13  1  0  0  0  0
  3  2  1  0  0  0  0
  3 19  1  0  0  0  0
  4  7  1  0  0  0  0
  4 15  2  0  0  0  0
  5 16  1  0  0  0  0
  6 17  1  0  0  0  0
  7  3  2  0  0  0  0
  8 13  1  0  0  0  0
  8 23  1  1  0  0  0
  9  1  1  0  0  0  0
 10 18  1  0  0  0  0
 11  4  1  0  0  0  0
 12  8  1  0  0  0  0
 13 18  1  1  0  0  0
 14  5  2  0  0  0  0
 15 20  1  0  0  0  0
 16 12  1  0  0  0  0
 17 16  2  0  0  0  0
 19 10  1  0  0  0  0
 20 19  2  0  0  0  0
 21 22  2  0  0  0  0
 23 22  1  0  0  0  0
 24 27  1  6  0  0  0
 25 28  1  0  0  0  0
 26 29  2  0  0  0  0
 28 24  1  0  0  0  0
 29 31  1  0  0  0  0
 30 22  1  6  0  0  0
 30 29  1  0  0  0  0
 30 25  1  0  0  0  0
 31 24  1  0  0  0  0
M  END
>  <MODEL>
7

>  <REMARK>
 VINA RESULT:      -5.5      2.944      8.154
  Name = 
  2 active torsions:
  status: ('A' for Active; 'I' for Inactive)
    1  A    between atoms: C_5  and  C_30
    2  A    between atoms: C_10  and  N_16
                            x       y       z     vdW  Elec       q    Type
                         _______ _______ _______ _____ _____    ______ ____

>  <TORSDO>
F 2

$$$$
=
 OpenBabel11122413283D

 31 35  0  0  1  0  0  0  0  0999 V2000
  160.7640  201.5560  148.7660 C   0  0  0  0  0  0  0  0  0  0  0  0
  162.3060  204.8300  149.9360 C   0  0  2  0  0  3  0  0  0  0  0  0
  161.8030  205.9100  148.9890 C   0  0  0  0  0  0  0  0  0  0  0  0
  160.8000  206.5830  146.8780 C   0  0  0  0  0  0  0  0  0  0  0  0
  161.4530  203.5830  149.9150 C   0  0  0  0  0  0  0  0  0  0  0  0
  159.8210  201.3050  149.7650 C   0  0  0  0  0  3  0  0  0  0  0  0
  161.2290  205.5820  147.7510 C   0  0  0  0  0  3  0  0  0  0  0  0
  161.1060  205.5180  152.0430 C   0  0  2  0  0  3  0  0  0  0  0  0
  160.8940  200.6610  147.6680 N   0  0  0  0  0  1  0  0  0  0  0  0
  162.5920  207.6330  150.5240 O   0  0  0  0  0  0  0  0  0  0  0  0
  160.1810  206.2190  145.5770 C   0  0  0  0  0  1  0  0  0  0  0  0
  160.4210  204.1570  152.1740 C   0  0  0  0  0  2  0  0  0  0  0  0
  162.4780  205.3570  151.3750 C   0  0  2  0  0  3  0  0  0  0  0  0
  161.5770  202.6900  148.8420 C   0  0  0  0  0  3  0  0  0  0  0  0
  160.9550  207.9270  147.2260 C   0  0  0  0  0  3  0  0  0  0  0  0
  160.5000  203.3230  150.9270 C   0  0  0  0  0  0  0  0  0  0  0  0
  159.6980  202.1810  150.8460 C   0  0  0  0  0  3  0  0  0  0  0  0
  163.2540  206.6750  151.3470 C   0  0  0  0  0  2  0  0  0  0  0  0
  161.9870  207.2700  149.3170 C   0  0  0  0  0  0  0  0  0  0  0  0
  161.5480  208.2700  148.4430 C   0  0  0  0  0  3  0  0  0  0  0  0
  160.5340  208.2360  152.6990 O   0  0  0  0  0  0  0  0  0  0  0  0
  160.9360  207.4810  153.6290 C   0  0  0  0  0  0  0  0  0  0  0  0
  161.2490  206.1140  153.3650 N   0  0  0  0  0  2  0  0  0  0  0  0
  159.1170  209.9800  156.0930 C   0  0  1  0  0  3  0  0  0  0  0  0
  159.8940  207.6300  155.8950 C   0  0  0  0  0  2  0  0  0  0  0  0
  162.4590  209.9340  154.6180 O   0  0  0  0  0  0  0  0  0  0  0  0
  158.0720  210.8660  155.8380 O   0  0  0  0  0  1  0  0  0  0  0  0
  158.7150  208.5730  155.6730 C   0  0  0  0  0  2  0  0  0  0  0  0
  161.3480  209.4940  155.0120 C   0  0  0  0  0  0  0  0  0  0  0  0
  161.0930  208.0100  155.0200 C   0  0  2  0  0  3  0  0  0  0  0  0
  160.3130  210.4130  155.3780 N   0  0  0  0  0  2  0  0  0  0  0  0
  1 14  2  0  0  0  0
  1  6  1  0  0  0  0
  2  3  1  6  0  0  0
  2 13  1  0  0  0  0
  3 19  1  0  0  0  0
  4 15  2  0  0  0  0
  4  7  1  0  0  0  0
  5  2  1  0  0  0  0
  5 16  2  0  0  0  0
  6 17  2  0  0  0  0
  7  3  2  0  0  0  0
  8 12  1  0  0  0  0
  8 23  1  1  0  0  0
  9  1  1  0  0  0  0
 10 18  1  0  0  0  0
 11  4  1  0  0  0  0
 13 18  1  6  0  0  0
 13  8  1  0  0  0  0
 14  5  1  0  0  0  0
 15 20  1  0  0  0  0
 16 12  1  0  0  0  0
 17 16  1  0  0  0  0
 19 10  1  0  0  0  0
 20 19  2  0  0  0  0
 21 22  2  0  0  0  0
 23 22  1  0  0  0  0
 24 27  1  6  0  0  0
 26 29  2  0  0  0  0
 28 25  1  0  0  0  0
 28 24  1  0  0  0  0
 29 30  1  0  0  0  0
 29 31  1  0  0  0  0
 30 22  1  6  0  0  0
 30 25  1  0  0  0  0
 31 24  1  0  0  0  0
M  END
>  <MODEL>
8

>  <REMARK>
 VINA RESULT:      -5.4      4.209      6.830
  Name = 
  2 active torsions:
  status: ('A' for Active; 'I' for Inactive)
    1  A    between atoms: C_5  and  C_30
    2  A    between atoms: C_10  and  N_16
                            x       y       z     vdW  Elec       q    Type
                         _______ _______ _______ _____ _____    ______ ____

>  <TORSDO>
F 2

$$$$
=
 OpenBabel11122413283D

 31 35  0  0  1  0  0  0  0  0999 V2000
  160.9840  201.5080  149.8550 C   0  0  0  0  0  0  0  0  0  0  0  0
  162.2130  204.7310  148.2520 C   0  0  2  0  0  3  0  0  0  0  0  0
  161.4830  204.8600  146.9220 C   0  0  0  0  0  0  0  0  0  0  0  0
  160.1930  203.8860  145.1050 C   0  0  0  0  0  0  0  0  0  0  0  0
  161.5260  203.7870  149.2130 C   0  0  0  0  0  0  0  0  0  0  0  0
  160.1880  201.9860  150.8960 C   0  0  0  0  0  3  0  0  0  0  0  0
  160.8310  203.7610  146.3400 C   0  0  0  0  0  3  0  0  0  0  0  0
  161.1570  206.6460  149.5050 C   0  0  2  0  0  3  0  0  0  0  0  0
  161.1130  200.1070  149.6420 N   0  0  0  0  0  1  0  0  0  0  0  0
  162.2010  207.1840  146.7470 O   0  0  0  0  0  0  0  0  0  0  0  0
  159.4940  202.7180  144.5090 C   0  0  0  0  0  1  0  0  0  0  0  0
  160.6660  205.7270  150.6250 C   0  0  0  0  0  2  0  0  0  0  0  0
  162.4630  206.1020  148.9100 C   0  0  2  0  0  3  0  0  0  0  0  0
  161.6510  202.4050  149.0170 C   0  0  0  0  0  3  0  0  0  0  0  0
  160.2110  205.1080  144.4290 C   0  0  0  0  0  3  0  0  0  0  0  0
  160.7220  204.2680  150.2710 C   0  0  0  0  0  0  0  0  0  0  0  0
  160.0660  203.3610  151.1090 C   0  0  0  0  0  3  0  0  0  0  0  0
  163.0600  207.0620  147.8800 C   0  0  0  0  0  2  0  0  0  0  0  0
  161.5270  206.0810  146.2160 C   0  0  0  0  0  0  0  0  0  0  0  0
  160.8780  206.2030  144.9830 C   0  0  0  0  0  3  0  0  0  0  0  0
  162.7060  207.2890  151.8140 O   0  0  0  0  0  0  0  0  0  0  0  0
  162.1560  208.2420  151.1940 C   0  0  0  0  0  0  0  0  0  0  0  0
  161.3590  207.9870  150.0380 N   0  0  0  0  0  2  0  0  0  0  0  0
  159.9620  211.1850  152.6610 C   0  0  1  0  0  3  0  0  0  0  0  0
  161.9580  209.7890  153.1470 C   0  0  0  0  0  2  0  0  0  0  0  0
  161.9700  210.8540  149.6270 O   0  0  0  0  0  0  0  0  0  0  0  0
  158.5770  211.2810  152.7740 O   0  0  0  0  0  1  0  0  0  0  0  0
  160.4490  209.9120  153.3400 C   0  0  0  0  0  2  0  0  0  0  0  0
  161.5650  210.6140  150.7940 C   0  0  0  0  0  0  0  0  0  0  0  0
  162.3280  209.6520  151.6660 C   0  0  2  0  0  3  0  0  0  0  0  0
  160.3420  211.2000  151.2530 N   0  0  0  0  0  2  0  0  0  0  0  0
  1  6  1  0  0  0  0
  2  3  1  6  0  0  0
  2 13  1  0  0  0  0
  2  5  1  0  0  0  0
  4  7  2  0  0  0  0
  5 16  2  0  0  0  0
  6 17  2  0  0  0  0
  7  3  1  0  0  0  0
  8 23  1  1  0  0  0
  8 12  1  0  0  0  0
  9  1  1  0  0  0  0
 10 18  1  0  0  0  0
 11  4  1  0  0  0  0
 13 18  1  6  0  0  0
 13  8  1  0  0  0  0
 14  5  1  0  0  0  0
 14  1  2  0  0  0  0
 15 20  2  0  0  0  0
 15  4  1  0  0  0  0
 16 12  1  0  0  0  0
 16 17  1  0  0  0  0
 19 10  1  0  0  0  0
 19  3  2  0  0  0  0
 20 19  1  0  0  0  0
 22 21  2  0  0  0  0
 23 22  1  0  0  0  0
 24 27  1  6  0  0  0
 24 28  1  0  0  0  0
 25 28  1  0  0  0  0
 26 29  2  0  0  0  0
 29 31  1  0  0  0  0
 29 30  1  0  0  0  0
 30 22  1  6  0  0  0
 30 25  1  0  0  0  0
 31 24  1  0  0  0  0
M  END
>  <MODEL>
9

>  <REMARK>
 VINA RESULT:      -4.6      3.467      6.312
  Name = 
  2 active torsions:
  status: ('A' for Active; 'I' for Inactive)
    1  A    between atoms: C_5  and  C_30
    2  A    between atoms: C_10  and  N_16
                            x       y       z     vdW  Elec       q    Type
                         _______ _______ _______ _____ _____    ______ ____

>  <TORSDO>
F 2

$$$$
