=
 OpenBabel11122412453D

 30 35  0  0  1  0  0  0  0  0999 V2000
  161.0270  210.5560  152.5210 C   0  0  2  0  0  3  0  0  0  0  0  0
  160.1100  212.7360  151.5610 C   0  0  0  0  0  0  0  0  0  0  0  0
  162.1520  209.5360  148.6160 O   0  0  0  0  0  0  0  0  0  0  0  0
  161.2460  209.1180  152.0190 C   0  0  2  0  0  3  0  0  0  0  0  0
  159.8930  210.5500  153.3660 O   0  0  0  0  0  0  0  0  0  0  0  0
  160.0740  207.5440  154.9470 O   0  0  0  0  0  0  0  0  0  0  0  0
  160.8200  206.1700  151.8300 C   0  0  1  0  0  3  0  0  0  0  0  0
  160.5700  208.4560  154.3010 C   0  0  0  0  0  0  0  0  0  0  0  0
  160.8010  206.8430  150.4390 C   0  0  2  0  0  3  0  0  0  0  0  0
  162.0570  208.1660  148.6900 C   0  0  0  0  0  0  0  0  0  0  0  0
  160.2420  209.9060  154.5730 C   0  0  2  0  0  3  0  0  0  0  0  0
  161.5840  208.2140  153.2120 C   0  0  1  0  0  3  0  0  0  0  0  0
  159.9420  213.6270  150.4990 C   0  0  0  0  0  3  0  0  0  0  0  0
  160.5600  205.7000  149.4690 C   0  0  0  0  0  2  0  0  0  0  0  0
  161.0560  204.6830  151.5970 C   0  0  0  0  0  2  0  0  0  0  0  0
  159.5760  213.0790  152.7980 O   0  0  0  0  0  1  0  0  0  0  0  0
  162.3540  210.1160  149.8900 C   0  0  2  0  0  3  0  0  0  0  0  0
  160.5040  213.3540  149.2550 C   0  0  0  0  0  3  0  0  0  0  0  0
  160.8200  211.5240  151.3740 C   0  0  0  0  0  0  0  0  0  0  0  0
  162.2840  208.9520  150.9050 C   0  0  2  0  0  3  0  0  0  0  0  0
  162.0060  207.4410  147.6620 O   0  0  0  0  0  0  0  0  0  0  0  0
  162.0910  207.6430  150.0810 C   0  0  1  0  0  3  0  0  0  0  0  0
  161.1860  204.4810  150.1040 C   0  0  0  0  0  2  0  0  0  0  0  0
  162.0010  205.9340  153.9440 O   0  0  0  0  0  1  0  0  0  0  0  0
  161.2520  212.1940  149.0730 C   0  0  0  0  0  3  0  0  0  0  0  0
  161.4170  211.2740  150.1170 C   0  0  0  0  0  0  0  0  0  0  0  0
  161.8470  206.7470  152.8160 C   0  0  1  0  0  3  0  0  0  0  0  0
  159.1320  210.0580  155.5630 C   0  0  0  0  0  3  0  0  0  0  0  0
  157.2950  211.2350  156.4370 O   0  0  0  0  0  1  0  0  0  0  0  0
  158.3220  211.1050  155.5110 C   0  0  0  0  0  3  0  0  0  0  0  0
  1 19  1  6  0  0  0
  1  5  1  0  0  0  0
  2 16  1  0  0  0  0
  3 10  1  0  0  0  0
  3 17  1  0  0  0  0
  4  1  1  0  0  0  0
  4 12  1  0  0  0  0
  5 11  1  0  0  0  0
  7 27  1  0  0  0  0
  8 11  1  0  0  0  0
  8  6  2  0  0  0  0
  9  7  1  0  0  0  0
 10 22  1  0  0  0  0
 11 28  1  0  0  0  0
 12  8  1  0  0  0  0
 13  2  2  0  0  0  0
 14 23  1  0  0  0  0
 14  9  1  0  0  0  0
 15  7  1  0  0  0  0
 17 26  1  0  0  0  0
 17 20  1  0  0  0  0
 18 13  1  0  0  0  0
 19  2  1  0  0  0  0
 20  4  1  0  0  0  0
 21 10  2  0  0  0  0
 22  9  1  0  0  0  0
 22 20  1  0  0  0  0
 23 15  1  0  0  0  0
 25 18  2  0  0  0  0
 25 26  1  0  0  0  0
 26 19  2  0  0  0  0
 27 12  1  0  0  0  0
 27 24  1  0  0  0  0
 30 28  2  0  0  0  0
 30 29  1  0  0  0  0
M  END
>  <MODEL>
1

>  <REMARK>
 VINA RESULT:      -8.3      0.000      0.000
  Name = 
  1 active torsions:
  status: ('A' for Active; 'I' for Inactive)
    1  A    between atoms: C_11  and  C_28
                            x       y       z     vdW  Elec       q    Type
                         _______ _______ _______ _____ _____    ______ ____

>  <TORSDO>
F 1

$$$$
=
 OpenBabel11122412453D

 30 35  0  0  1  0  0  0  0  0999 V2000
  161.8500  206.0520  150.0810 C   0  0  2  0  0  3  0  0  0  0  0  0
  160.9400  203.6680  150.0400 C   0  0  0  0  0  0  0  0  0  0  0  0
  161.1020  206.0610  154.2030 O   0  0  0  0  0  0  0  0  0  0  0  0
  161.6340  207.3170  150.9290 C   0  0  2  0  0  3  0  0  0  0  0  0
  161.1780  206.2390  148.8490 O   0  0  0  0  0  0  0  0  0  0  0  0
  161.5660  209.5570  148.2090 O   0  0  0  0  0  0  0  0  0  0  0  0
  160.7510  210.0990  151.5560 C   0  0  1  0  0  3  0  0  0  0  0  0
  161.8750  208.5250  148.7880 C   0  0  0  0  0  0  0  0  0  0  0  0
  160.2560  209.0870  152.6140 C   0  0  2  0  0  3  0  0  0  0  0  0
  160.8510  207.3990  154.3970 C   0  0  0  0  0  0  0  0  0  0  0  0
  161.8990  207.1850  148.0900 C   0  0  2  0  0  3  0  0  0  0  0  0
  162.3020  208.5110  150.2340 C   0  0  1  0  0  3  0  0  0  0  0  0
  160.4760  202.5270  150.6980 C   0  0  0  0  0  3  0  0  0  0  0  0
  159.4750  209.9310  153.6070 C   0  0  0  0  0  2  0  0  0  0  0  0
  160.6560  211.4810  152.1880 C   0  0  0  0  0  2  0  0  0  0  0  0
  161.0200  203.6400  148.6520 O   0  0  0  0  0  1  0  0  0  0  0  0
  161.8930  205.8390  153.0520 C   0  0  2  0  0  3  0  0  0  0  0  0
  160.4290  202.4860  152.0890 C   0  0  0  0  0  3  0  0  0  0  0  0
  161.3280  204.8130  150.7790 C   0  0  0  0  0  0  0  0  0  0  0  0
  162.0830  207.2230  152.3910 C   0  0  2  0  0  3  0  0  0  0  0  0
  160.2770  207.8300  155.4310 O   0  0  0  0  0  0  0  0  0  0  0  0
  161.3820  208.2660  153.3130 C   0  0  1  0  0  3  0  0  0  0  0  0
  160.1260  211.2930  153.5930 C   0  0  0  0  0  2  0  0  0  0  0  0
  162.6540  210.9150  150.2770 O   0  0  0  0  0  1  0  0  0  0  0  0
  160.8600  203.5840  152.8280 C   0  0  0  0  0  3  0  0  0  0  0  0
  161.3090  204.7480  152.1910 C   0  0  0  0  0  0  0  0  0  0  0  0
  162.1660  209.8330  151.0160 C   0  0  1  0  0  3  0  0  0  0  0  0
  161.3320  207.2580  146.7090 C   0  0  0  0  0  3  0  0  0  0  0  0
  160.2520  206.2730  144.8680 O   0  0  0  0  0  1  0  0  0  0  0  0
  160.7750  206.1920  146.1520 C   0  0  0  0  0  3  0  0  0  0  0  0
  1  5  1  6  0  0  0
  1 19  1  0  0  0  0
  1  4  1  0  0  0  0
  2 13  2  0  0  0  0
  2 19  1  0  0  0  0
  3 10  1  0  0  0  0
  4 20  1  0  0  0  0
  6  8  2  0  0  0  0
  7 15  1  0  0  0  0
  7  9  1  0  0  0  0
  8 12  1  0  0  0  0
  9 22  1  0  0  0  0
  9 14  1  0  0  0  0
 10 21  2  0  0  0  0
 11  8  1  0  0  0  0
 11  5  1  0  0  0  0
 12  4  1  0  0  0  0
 12 27  1  0  0  0  0
 13 18  1  0  0  0  0
 15 23  1  0  0  0  0
 16  2  1  0  0  0  0
 17  3  1  0  0  0  0
 18 25  2  0  0  0  0
 19 26  2  0  0  0  0
 20 17  1  0  0  0  0
 20 22  1  0  0  0  0
 22 10  1  0  0  0  0
 23 14  1  0  0  0  0
 24 27  1  0  0  0  0
 26 25  1  0  0  0  0
 26 17  1  0  0  0  0
 27  7  1  0  0  0  0
 28 11  1  0  0  0  0
 29 30  1  0  0  0  0
 30 28  2  0  0  0  0
M  END
>  <MODEL>
2

>  <REMARK>
 VINA RESULT:      -8.3      2.013      7.360
  Name = 
  1 active torsions:
  status: ('A' for Active; 'I' for Inactive)
    1  A    between atoms: C_11  and  C_28
                            x       y       z     vdW  Elec       q    Type
                         _______ _______ _______ _____ _____    ______ ____

>  <TORSDO>
F 1

$$$$
=
 OpenBabel11122412453D

 30 35  0  0  1  0  0  0  0  0999 V2000
  160.5010  211.8410  152.1430 C   0  0  2  0  0  3  0  0  0  0  0  0
  159.5120  213.5720  150.5490 C   0  0  0  0  0  0  0  0  0  0  0  0
  162.1940  209.9990  148.7830 O   0  0  0  0  0  0  0  0  0  0  0  0
  160.9130  210.3600  152.0700 C   0  0  2  0  0  3  0  0  0  0  0  0
  159.2750  211.9130  152.8470 O   0  0  0  0  0  0  0  0  0  0  0  0
  159.5370  209.4600  155.1880 O   0  0  0  0  0  0  0  0  0  0  0  0
  160.7900  207.4330  152.6410 C   0  0  1  0  0  3  0  0  0  0  0  0
  160.0220  210.2290  154.3700 C   0  0  0  0  0  0  0  0  0  0  0  0
  160.8820  207.7200  151.1250 C   0  0  2  0  0  3  0  0  0  0  0  0
  162.2180  208.6930  149.2130 C   0  0  0  0  0  0  0  0  0  0  0  0
  159.5290  211.6490  154.2090 C   0  0  2  0  0  3  0  0  0  0  0  0
  161.1820  209.8420  153.4890 C   0  0  1  0  0  3  0  0  0  0  0  0
  159.3950  214.1330  149.2760 C   0  0  0  0  0  3  0  0  0  0  0  0
  160.8720  206.3450  150.4800 C   0  0  0  0  0  2  0  0  0  0  0  0
  161.1910  205.9770  152.8410 C   0  0  0  0  0  2  0  0  0  0  0  0
  158.7980  214.1530  151.5920 O   0  0  0  0  0  1  0  0  0  0  0  0
  162.1800  210.9060  149.8680 C   0  0  2  0  0  3  0  0  0  0  0  0
  160.1310  213.6210  148.2110 C   0  0  0  0  0  3  0  0  0  0  0  0
  160.3490  212.4500  150.7640 C   0  0  0  0  0  0  0  0  0  0  0  0
  162.0930  210.0430  151.1460 C   0  0  2  0  0  3  0  0  0  0  0  0
  162.3630  207.7280  148.4180 O   0  0  0  0  0  0  0  0  0  0  0  0
  162.1260  208.5530  150.6900 C   0  0  1  0  0  3  0  0  0  0  0  0
  161.5240  205.4160  151.4760 C   0  0  0  0  0  2  0  0  0  0  0  0
  161.7150  207.8960  154.8440 O   0  0  0  0  0  1  0  0  0  0  0  0
  161.0000  212.5530  148.4200 C   0  0  0  0  0  3  0  0  0  0  0  0
  161.1180  211.9600  149.6830 C   0  0  0  0  0  0  0  0  0  0  0  0
  161.6280  208.3660  153.5300 C   0  0  1  0  0  3  0  0  0  0  0  0
  158.2950  211.9130  155.0110 C   0  0  0  0  0  3  0  0  0  0  0  0
  155.9700  212.2100  155.1810 O   0  0  0  0  0  1  0  0  0  0  0  0
  157.1090  211.9640  154.4240 C   0  0  0  0  0  3  0  0  0  0  0  0
  1 19  1  6  0  0  0
  1  5  1  0  0  0  0
  2 19  1  0  0  0  0
  2 16  1  0  0  0  0
  3 10  1  0  0  0  0
  3 17  1  0  0  0  0
  4  1  1  0  0  0  0
  4 12  1  0  0  0  0
  5 11  1  0  0  0  0
  7 15  1  0  0  0  0
  7 27  1  0  0  0  0
  8  6  2  0  0  0  0
  9  7  1  0  0  0  0
 10 22  1  0  0  0  0
 11  8  1  0  0  0  0
 11 28  1  0  0  0  0
 12 27  1  0  0  0  0
 12  8  1  0  0  0  0
 13  2  2  0  0  0  0
 14  9  1  0  0  0  0
 14 23  1  0  0  0  0
 17 20  1  0  0  0  0
 18 25  2  0  0  0  0
 18 13  1  0  0  0  0
 20  4  1  0  0  0  0
 21 10  2  0  0  0  0
 22  9  1  0  0  0  0
 22 20  1  0  0  0  0
 23 15  1  0  0  0  0
 25 26  1  0  0  0  0
 26 17  1  0  0  0  0
 26 19  2  0  0  0  0
 27 24  1  0  0  0  0
 30 28  2  0  0  0  0
 30 29  1  0  0  0  0
M  END
>  <MODEL>
3

>  <REMARK>
 VINA RESULT:      -7.6      1.157      1.502
  Name = 
  1 active torsions:
  status: ('A' for Active; 'I' for Inactive)
    1  A    between atoms: C_11  and  C_28
                            x       y       z     vdW  Elec       q    Type
                         _______ _______ _______ _____ _____    ______ ____

>  <TORSDO>
F 1

$$$$
=
 OpenBabel11122412453D

 30 35  0  0  1  0  0  0  0  0999 V2000
  161.8680  208.0980  151.9370 C   0  0  2  0  0  3  0  0  0  0  0  0
  161.1870  210.5460  151.6920 C   0  0  0  0  0  0  0  0  0  0  0  0
  162.3720  208.0230  147.7780 O   0  0  0  0  0  0  0  0  0  0  0  0
  161.8080  206.8280  151.0690 C   0  0  2  0  0  3  0  0  0  0  0  0
  160.8490  208.0000  152.9150 O   0  0  0  0  0  0  0  0  0  0  0  0
  160.7540  204.6840  153.6610 O   0  0  0  0  0  0  0  0  0  0  0  0
  160.9220  204.1060  150.2260 C   0  0  1  0  0  3  0  0  0  0  0  0
  161.3040  205.6700  153.1920 C   0  0  0  0  0  0  0  0  0  0  0  0
  160.8460  205.1210  149.0620 C   0  0  2  0  0  3  0  0  0  0  0  0
  162.0800  206.7030  147.5260 C   0  0  0  0  0  0  0  0  0  0  0  0
  161.2330  207.0250  153.8590 C   0  0  2  0  0  3  0  0  0  0  0  0
  162.1390  205.6080  151.9390 C   0  0  1  0  0  3  0  0  0  0  0  0
  161.0350  211.6990  150.9190 C   0  0  0  0  0  3  0  0  0  0  0  0
  160.3260  204.3100  147.8880 C   0  0  0  0  0  2  0  0  0  0  0  0
  160.9020  202.7160  149.6010 C   0  0  0  0  0  2  0  0  0  0  0  0
  160.8560  210.6090  153.0410 O   0  0  0  0  0  1  0  0  0  0  0  0
  162.8030  208.2170  149.1110 C   0  0  2  0  0  3  0  0  0  0  0  0
  161.4040  211.7010  149.5770 C   0  0  0  0  0  3  0  0  0  0  0  0
  161.6800  209.3520  151.1080 C   0  0  0  0  0  0  0  0  0  0  0  0
  162.6750  206.8430  149.8060 C   0  0  2  0  0  3  0  0  0  0  0  0
  161.8020  206.2870  146.3710 O   0  0  0  0  0  0  0  0  0  0  0  0
  162.1920  205.8300  148.7240 C   0  0  1  0  0  3  0  0  0  0  0  0
  160.8280  202.9030  148.1020 C   0  0  0  0  0  2  0  0  0  0  0  0
  162.2870  203.1830  152.0160 O   0  0  0  0  0  1  0  0  0  0  0  0
  161.9420  210.5510  149.0050 C   0  0  0  0  0  3  0  0  0  0  0  0
  162.0840  209.3750  149.7530 C   0  0  0  0  0  0  0  0  0  0  0  0
  162.1300  204.2770  151.1590 C   0  0  1  0  0  3  0  0  0  0  0  0
  160.2790  207.0380  155.0100 C   0  0  0  0  0  3  0  0  0  0  0  0
  159.7560  207.5240  157.2490 O   0  0  0  0  0  1  0  0  0  0  0  0
  160.6520  207.5180  156.1880 C   0  0  0  0  0  3  0  0  0  0  0  0
  1 19  1  6  0  0  0
  1  5  1  0  0  0  0
  2 16  1  0  0  0  0
  3 17  1  0  0  0  0
  4  1  1  0  0  0  0
  4 12  1  0  0  0  0
  5 11  1  0  0  0  0
  7 27  1  0  0  0  0
  8  6  2  0  0  0  0
  8 11  1  0  0  0  0
  9  7  1  0  0  0  0
 10  3  1  0  0  0  0
 10 22  1  0  0  0  0
 11 28  1  0  0  0  0
 12  8  1  0  0  0  0
 13  2  2  0  0  0  0
 14 23  1  0  0  0  0
 14  9  1  0  0  0  0
 15  7  1  0  0  0  0
 17 26  1  0  0  0  0
 17 20  1  0  0  0  0
 18 13  1  0  0  0  0
 19  2  1  0  0  0  0
 20  4  1  0  0  0  0
 21 10  2  0  0  0  0
 22  9  1  0  0  0  0
 22 20  1  0  0  0  0
 23 15  1  0  0  0  0
 25 18  2  0  0  0  0
 25 26  1  0  0  0  0
 26 19  2  0  0  0  0
 27 12  1  0  0  0  0
 27 24  1  0  0  0  0
 28 30  2  0  0  0  0
 30 29  1  0  0  0  0
M  END
>  <MODEL>
4

>  <REMARK>
 VINA RESULT:      -6.2      1.880      2.713
  Name = 
  1 active torsions:
  status: ('A' for Active; 'I' for Inactive)
    1  A    between atoms: C_11  and  C_28
                            x       y       z     vdW  Elec       q    Type
                         _______ _______ _______ _____ _____    ______ ____

>  <TORSDO>
F 1

$$$$
=
 OpenBabel11122412453D

 30 35  0  0  1  0  0  0  0  0999 V2000
  161.7990  208.9520  151.7320 C   0  0  2  0  0  3  0  0  0  0  0  0
  161.3310  206.8170  153.0510 C   0  0  0  0  0  0  0  0  0  0  0  0
  159.9180  211.0490  154.8330 O   0  0  0  0  0  0  0  0  0  0  0  0
  161.1510  210.3400  151.5840 C   0  0  2  0  0  3  0  0  0  0  0  0
  161.4840  208.2040  150.5720 O   0  0  0  0  0  0  0  0  0  0  0  0
  161.5020  210.5200  148.0820 O   0  0  0  0  0  0  0  0  0  0  0  0
  159.6940  212.5740  150.2440 C   0  0  1  0  0  3  0  0  0  0  0  0
  161.7940  210.1420  149.2080 C   0  0  0  0  0  0  0  0  0  0  0  0
  159.0870  212.2390  151.6250 C   0  0  2  0  0  3  0  0  0  0  0  0
  159.4130  212.1160  154.1280 C   0  0  0  0  0  0  0  0  0  0  0  0
  162.2300  208.7230  149.4930 C   0  0  2  0  0  3  0  0  0  0  0  0
  161.7890  211.0700  150.3950 C   0  0  1  0  0  3  0  0  0  0  0  0
  160.8870  206.1680  154.2040 C   0  0  0  0  0  3  0  0  0  0  0  0
  157.9320  213.2130  151.7760 C   0  0  0  0  0  2  0  0  0  0  0  0
  159.2030  213.9670  149.8710 C   0  0  0  0  0  2  0  0  0  0  0  0
  161.8050  206.0410  151.9990 O   0  0  0  0  0  1  0  0  0  0  0  0
  161.0290  210.4680  154.1770 C   0  0  2  0  0  3  0  0  0  0  0  0
  160.4540  206.9030  155.3040 C   0  0  0  0  0  3  0  0  0  0  0  0
  161.3050  208.2310  152.9690 C   0  0  0  0  0  0  0  0  0  0  0  0
  161.1760  211.2220  152.8370 C   0  0  2  0  0  3  0  0  0  0  0  0
  158.5070  212.8570  154.5910 O   0  0  0  0  0  0  0  0  0  0  0  0
  160.0840  212.3340  152.8200 C   0  0  1  0  0  3  0  0  0  0  0  0
  158.3340  214.4510  151.0100 C   0  0  0  0  0  2  0  0  0  0  0  0
  161.7260  213.0540  148.9940 O   0  0  0  0  0  1  0  0  0  0  0  0
  160.4760  208.2940  155.2590 C   0  0  0  0  0  3  0  0  0  0  0  0
  160.8950  208.9690  154.1040 C   0  0  0  0  0  0  0  0  0  0  0  0
  161.2270  212.4880  150.1710 C   0  0  1  0  0  3  0  0  0  0  0  0
  162.0750  207.8340  148.3010 C   0  0  0  0  0  3  0  0  0  0  0  0
  160.9780  206.1060  147.1460 O   0  0  0  0  0  1  0  0  0  0  0  0
  161.1110  206.9260  148.2590 C   0  0  0  0  0  3  0  0  0  0  0  0
  1  5  1  6  0  0  0
  1 19  1  0  0  0  0
  2 13  1  0  0  0  0
  4  1  1  0  0  0  0
  4 20  1  0  0  0  0
  6  8  2  0  0  0  0
  7  9  1  0  0  0  0
  8 11  1  0  0  0  0
  8 12  1  0  0  0  0
  9 14  1  0  0  0  0
  9 22  1  0  0  0  0
 10 21  2  0  0  0  0
 10  3  1  0  0  0  0
 11  5  1  0  0  0  0
 12  4  1  0  0  0  0
 13 18  2  0  0  0  0
 15  7  1  0  0  0  0
 15 23  1  0  0  0  0
 16  2  1  0  0  0  0
 17  3  1  0  0  0  0
 19  2  2  0  0  0  0
 19 26  1  0  0  0  0
 20 17  1  0  0  0  0
 22 20  1  0  0  0  0
 22 10  1  0  0  0  0
 23 14  1  0  0  0  0
 24 27  1  0  0  0  0
 25 18  1  0  0  0  0
 26 17  1  0  0  0  0
 26 25  2  0  0  0  0
 27  7  1  0  0  0  0
 27 12  1  0  0  0  0
 28 11  1  0  0  0  0
 29 30  1  0  0  0  0
 30 28  2  0  0  0  0
M  END
>  <MODEL>
5

>  <REMARK>
 VINA RESULT:      -6.0      1.682      7.009
  Name = 
  1 active torsions:
  status: ('A' for Active; 'I' for Inactive)
    1  A    between atoms: C_11  and  C_28
                            x       y       z     vdW  Elec       q    Type
                         _______ _______ _______ _____ _____    ______ ____

>  <TORSDO>
F 1

$$$$
=
 OpenBabel11122412453D

 30 35  0  0  1  0  0  0  0  0999 V2000
  162.1150  207.6640  149.3740 C   0  0  2  0  0  3  0  0  0  0  0  0
  161.3010  206.0890  147.5380 C   0  0  0  0  0  0  0  0  0  0  0  0
  161.5870  204.4930  152.0610 O   0  0  0  0  0  0  0  0  0  0  0  0
  161.8940  207.8260  150.8880 C   0  0  2  0  0  3  0  0  0  0  0  0
  161.3720  208.6750  148.7190 O   0  0  0  0  0  0  0  0  0  0  0  0
  161.5920  211.3370  150.8240 O   0  0  0  0  0  0  0  0  0  0  0  0
  160.9340  209.0950  153.4140 C   0  0  1  0  0  3  0  0  0  0  0  0
  161.9720  210.2490  150.4160 C   0  0  0  0  0  0  0  0  0  0  0  0
  160.5370  207.6040  153.3330 C   0  0  2  0  0  3  0  0  0  0  0  0
  161.2930  205.1960  153.2050 C   0  0  0  0  0  0  0  0  0  0  0  0
  162.0130  209.9120  148.9430 C   0  0  2  0  0  3  0  0  0  0  0  0
  162.4750  209.1720  151.3420 C   0  0  1  0  0  3  0  0  0  0  0  0
  160.9190  204.8190  147.1000 C   0  0  0  0  0  3  0  0  0  0  0  0
  159.7760  207.3460  154.6220 C   0  0  0  0  0  2  0  0  0  0  0  0
  160.8170  209.5050  154.8760 C   0  0  0  0  0  2  0  0  0  0  0  0
  161.3090  207.1290  146.6160 O   0  0  0  0  0  1  0  0  0  0  0  0
  162.3240  205.2750  151.1410 C   0  0  2  0  0  3  0  0  0  0  0  0
  160.9470  203.7350  147.9720 C   0  0  0  0  0  3  0  0  0  0  0  0
  161.6810  206.2970  148.8870 C   0  0  0  0  0  0  0  0  0  0  0  0
  162.4230  206.6860  151.7640 C   0  0  2  0  0  3  0  0  0  0  0  0
  160.7570  204.6530  154.2070 O   0  0  0  0  0  0  0  0  0  0  0  0
  161.7300  206.6160  153.1580 C   0  0  1  0  0  3  0  0  0  0  0  0
  160.3700  208.2820  155.6470 C   0  0  0  0  0  2  0  0  0  0  0  0
  162.7320  210.7200  153.1960 O   0  0  0  0  0  1  0  0  0  0  0  0
  161.3720  203.9140  149.2850 C   0  0  0  0  0  3  0  0  0  0  0  0
  161.7390  205.1820  149.7550 C   0  0  0  0  0  0  0  0  0  0  0  0
  162.3280  209.4260  152.8550 C   0  0  1  0  0  3  0  0  0  0  0  0
  161.3720  210.9690  148.1030 C   0  0  0  0  0  3  0  0  0  0  0  0
  161.4490  213.0140  146.9480 O   0  0  0  0  0  1  0  0  0  0  0  0
  162.0570  212.0390  147.7280 C   0  0  0  0  0  3  0  0  0  0  0  0
  1  5  1  6  0  0  0
  1  4  1  0  0  0  0
  2 19  1  0  0  0  0
  3 10  1  0  0  0  0
  4 12  1  0  0  0  0
  4 20  1  0  0  0  0
  5 11  1  0  0  0  0
  7 15  1  0  0  0  0
  8  6  2  0  0  0  0
  8 12  1  0  0  0  0
  9  7  1  0  0  0  0
  9 14  1  0  0  0  0
 10 21  2  0  0  0  0
 11  8  1  0  0  0  0
 12 27  1  0  0  0  0
 13  2  2  0  0  0  0
 13 18  1  0  0  0  0
 14 23  1  0  0  0  0
 15 23  1  0  0  0  0
 16  2  1  0  0  0  0
 17 20  1  0  0  0  0
 17  3  1  0  0  0  0
 18 25  2  0  0  0  0
 19  1  1  0  0  0  0
 19 26  2  0  0  0  0
 20 22  1  0  0  0  0
 22 10  1  0  0  0  0
 22  9  1  0  0  0  0
 25 26  1  0  0  0  0
 26 17  1  0  0  0  0
 27 24  1  0  0  0  0
 27  7  1  0  0  0  0
 28 11  1  0  0  0  0
 29 30  1  0  0  0  0
 30 28  2  0  0  0  0
M  END
>  <MODEL>
6

>  <REMARK>
 VINA RESULT:      -5.5      2.220      6.264
  Name = 
  1 active torsions:
  status: ('A' for Active; 'I' for Inactive)
    1  A    between atoms: C_11  and  C_28
                            x       y       z     vdW  Elec       q    Type
                         _______ _______ _______ _____ _____    ______ ____

>  <TORSDO>
F 1

$$$$
