=
 OpenBabel11122413283D

 31 35  0  0  1  0  0  0  0  0999 V2000
  160.7950  204.9030  145.0060 C   0  0  1  0  0  3  0  0  0  0  0  0
  160.3960  205.2120  148.7510 C   0  0  2  0  0  3  0  0  0  0  0  0
  160.8560  203.8670  149.3340 C   0  0  0  0  0  0  0  0  0  0  0  0
  161.3300  201.4920  149.0550 C   0  0  0  0  0  0  0  0  0  0  0  0
  160.8750  205.5290  147.3890 N   0  0  2  0  0  0  0  0  0  0  0  0
  162.3130  204.8630  144.9660 C   0  0  0  0  0  2  0  0  0  0  0  0
  160.9970  202.7340  148.5160 C   0  0  0  0  0  3  0  0  0  0  0  0
  162.2730  206.6270  149.6740 C   0  0  2  0  0  3  0  0  0  0  0  0
  160.2820  203.9610  144.1160 O   0  0  0  0  0  1  0  0  0  0  0  0
  160.9200  204.8680  151.6880 C   0  0  0  0  0  2  0  0  0  0  0  0
  161.4870  200.3130  148.1640 C   0  0  0  0  0  1  0  0  0  0  0  0
  162.8080  206.7590  148.2470 C   0  0  0  0  0  2  0  0  0  0  0  0
  160.7540  206.3820  149.6780 C   0  0  2  0  0  3  0  0  0  0  0  0
  160.3300  204.5730  146.4170 C   0  0  0  0  0  2  0  0  0  0  0  0
  161.5100  201.3550  150.4310 C   0  0  0  0  0  3  0  0  0  0  0  0
  162.3500  205.5980  147.3650 C   0  0  2  0  0  3  0  0  0  0  0  0
  162.8640  205.8780  145.9530 C   0  0  0  0  0  2  0  0  0  0  0  0
  160.2300  206.0890  151.0830 C   0  0  0  0  0  2  0  0  0  0  0  0
  161.0090  203.7100  150.7350 C   0  0  0  0  0  0  0  0  0  0  0  0
  161.3520  202.4620  151.2660 C   0  0  0  0  0  3  0  0  0  0  0  0
  161.5310  209.2770  148.9300 O   0  0  0  0  0  0  0  0  0  0  0  0
  162.1770  209.1320  150.0040 C   0  0  0  0  0  0  0  0  0  0  0  0
  162.5860  207.8310  150.4300 N   0  0  0  0  0  2  0  0  0  0  0  0
  160.3490  211.2970  152.3730 C   0  0  1  0  0  3  0  0  0  0  0  0
  162.2460  210.0610  152.3290 C   0  0  0  0  0  2  0  0  0  0  0  0
  161.9380  211.8890  148.9230 C   0  0  0  0  0  1  0  0  0  0  0  0
  158.9170  211.3530  152.8640 C   0  0  0  0  0  1  0  0  0  0  0  0
  160.8570  209.9980  152.5580 O   0  0  0  0  0  0  0  0  0  0  0  0
  161.8410  211.6250  150.4170 C   0  0  2  0  0  3  0  0  0  0  0  0
  162.5400  210.3230  150.8460 C   0  0  2  0  0  3  0  0  0  0  0  0
  160.3900  211.6690  150.8900 C   0  0  0  0  0  2  0  0  0  0  0  0
  1  9  1  6  0  0  0
  1 14  1  0  0  0  0
  2  3  1  1  0  0  0
  2 13  1  0  0  0  0
  3 19  1  0  0  0  0
  4 15  2  0  0  0  0
  5 14  1  6  0  0  0
  5  2  1  0  0  0  0
  6  1  1  0  0  0  0
  6 17  1  0  0  0  0
  7  4  1  0  0  0  0
  7  3  2  0  0  0  0
  8 13  1  0  0  0  0
  8 23  1  1  0  0  0
 11  4  1  0  0  0  0
 12  8  1  0  0  0  0
 13 18  1  1  0  0  0
 15 20  1  0  0  0  0
 16 17  1  6  0  0  0
 16  5  1  0  0  0  0
 16 12  1  0  0  0  0
 18 10  1  0  0  0  0
 19 20  2  0  0  0  0
 19 10  1  0  0  0  0
 21 22  2  0  0  0  0
 22 23  1  0  0  0  0
 24 28  1  0  0  0  0
 24 27  1  6  0  0  0
 25 28  1  0  0  0  0
 29 26  1  6  0  0  0
 29 30  1  0  0  0  0
 29 31  1  0  0  0  0
 30 22  1  6  0  0  0
 30 25  1  0  0  0  0
 31 24  1  0  0  0  0
M  END
>  <MODEL>
1

>  <REMARK>
 VINA RESULT:      -6.6      0.000      0.000
  Name = 
  2 active torsions:
  status: ('A' for Active; 'I' for Inactive)
    1  A    between atoms: C_5  and  C_30
    2  A    between atoms: C_10  and  N_16
                            x       y       z     vdW  Elec       q    Type
                         _______ _______ _______ _____ _____    ______ ____

>  <TORSDO>
F 2

$$$$
=
 OpenBabel11122413283D

 31 35  0  0  1  0  0  0  0  0999 V2000
  160.7590  204.5970  145.2080 C   0  0  1  0  0  3  0  0  0  0  0  0
  160.4120  205.9680  148.7110 C   0  0  2  0  0  3  0  0  0  0  0  0
  160.8760  204.8440  149.6490 C   0  0  0  0  0  0  0  0  0  0  0  0
  161.3400  202.4860  150.0570 C   0  0  0  0  0  0  0  0  0  0  0  0
  160.8740  205.8790  147.3100 N   0  0  2  0  0  0  0  0  0  0  0  0
  162.2760  204.5370  145.1610 C   0  0  0  0  0  2  0  0  0  0  0  0
  161.0020  203.5230  149.1890 C   0  0  0  0  0  3  0  0  0  0  0  0
  162.3050  207.5760  149.1660 C   0  0  2  0  0  3  0  0  0  0  0  0
  160.2320  203.4420  144.6310 O   0  0  0  0  0  1  0  0  0  0  0  0
  160.9750  206.4770  151.6170 C   0  0  0  0  0  2  0  0  0  0  0  0
  161.4810  201.1000  149.5400 C   0  0  0  0  0  1  0  0  0  0  0  0
  162.8210  207.2910  147.7550 C   0  0  0  0  0  2  0  0  0  0  0  0
  160.7860  207.3530  149.2600 C   0  0  2  0  0  3  0  0  0  0  0  0
  160.3120  204.6870  146.6590 C   0  0  0  0  0  2  0  0  0  0  0  0
  161.5380  202.7480  151.4130 C   0  0  0  0  0  3  0  0  0  0  0  0
  162.3490  205.9280  147.2480 C   0  0  2  0  0  3  0  0  0  0  0  0
  162.8440  205.7890  145.8090 C   0  0  0  0  0  2  0  0  0  0  0  0
  160.2800  207.4780  150.6960 C   0  0  0  0  0  2  0  0  0  0  0  0
  161.0480  205.0940  151.0350 C   0  0  0  0  0  0  0  0  0  0  0  0
  161.3940  204.0480  151.8970 C   0  0  0  0  0  3  0  0  0  0  0  0
  161.3020  209.9180  147.8880 O   0  0  0  0  0  0  0  0  0  0  0  0
  162.0880  210.0770  148.8620 C   0  0  0  0  0  0  0  0  0  0  0  0
  162.6330  208.9440  149.5420 N   0  0  0  0  0  2  0  0  0  0  0  0
  160.9150  213.4940  148.0950 C   0  0  1  0  0  3  0  0  0  0  0  0
  161.2730  212.1980  149.9170 C   0  0  0  0  0  2  0  0  0  0  0  0
  164.2010  211.6090  147.4420 C   0  0  0  0  0  1  0  0  0  0  0  0
  159.8610  214.0660  147.1690 C   0  0  0  0  0  1  0  0  0  0  0  0
  160.3320  212.5120  148.9170 O   0  0  0  0  0  0  0  0  0  0  0  0
  163.1000  212.3240  148.2090 C   0  0  2  0  0  3  0  0  0  0  0  0
  162.4750  211.4560  149.3160 C   0  0  2  0  0  3  0  0  0  0  0  0
  162.0400  212.8790  147.2620 C   0  0  0  0  0  2  0  0  0  0  0  0
  1  9  1  1  0  0  0
  1 14  1  0  0  0  0
  2 13  1  0  0  0  0
  2  3  1  1  0  0  0
  3 19  1  0  0  0  0
  4 15  2  0  0  0  0
  5 14  1  1  0  0  0
  5  2  1  0  0  0  0
  6  1  1  0  0  0  0
  6 17  1  0  0  0  0
  7  3  2  0  0  0  0
  7  4  1  0  0  0  0
  8 13  1  0  0  0  0
  8 23  1  6  0  0  0
 11  4  1  0  0  0  0
 12  8  1  0  0  0  0
 13 18  1  1  0  0  0
 15 20  1  0  0  0  0
 16 17  1  6  0  0  0
 16  5  1  0  0  0  0
 16 12  1  0  0  0  0
 18 10  1  0  0  0  0
 19 10  1  0  0  0  0
 19 20  2  0  0  0  0
 21 22  2  0  0  0  0
 22 23  1  0  0  0  0
 24 27  1  6  0  0  0
 24 28  1  0  0  0  0
 28 25  1  0  0  0  0
 29 26  1  6  0  0  0
 29 30  1  0  0  0  0
 30 22  1  6  0  0  0
 30 25  1  0  0  0  0
 31 24  1  0  0  0  0
 31 29  1  0  0  0  0
M  END
>  <MODEL>
2

>  <REMARK>
 VINA RESULT:      -6.2      1.600      2.273
  Name = 
  2 active torsions:
  status: ('A' for Active; 'I' for Inactive)
    1  A    between atoms: C_5  and  C_30
    2  A    between atoms: C_10  and  N_16
                            x       y       z     vdW  Elec       q    Type
                         _______ _______ _______ _____ _____    ______ ____

>  <TORSDO>
F 2

$$$$
=
 OpenBabel11122413283D

 31 35  0  0  1  0  0  0  0  0999 V2000
  160.5790  206.6240  146.5400 C   0  0  1  0  0  3  0  0  0  0  0  0
  160.1790  205.0870  149.9680 C   0  0  2  0  0  3  0  0  0  0  0  0
  160.6940  203.6450  149.8440 C   0  0  0  0  0  0  0  0  0  0  0  0
  161.2610  201.7130  148.4700 C   0  0  0  0  0  0  0  0  0  0  0  0
  160.6410  206.0350  148.9330 N   0  0  2  0  0  0  0  0  0  0  0  0
  162.0970  206.6640  146.5100 C   0  0  0  0  0  2  0  0  0  0  0  0
  160.8770  203.0480  148.5860 C   0  0  0  0  0  3  0  0  0  0  0  0
  162.0010  205.9540  151.4870 C   0  0  2  0  0  3  0  0  0  0  0  0
  160.1010  206.2060  145.2990 O   0  0  0  0  0  1  0  0  0  0  0  0
  160.7250  203.3970  152.3910 C   0  0  0  0  0  2  0  0  0  0  0  0
  161.4620  201.1110  147.1260 C   0  0  0  0  0  1  0  0  0  0  0  0
  162.5260  206.7730  150.3070 C   0  0  0  0  0  2  0  0  0  0  0  0
  160.4930  205.6820  151.3480 C   0  0  2  0  0  3  0  0  0  0  0  0
  160.1310  205.6420  147.6120 C   0  0  0  0  0  2  0  0  0  0  0  0
  161.4500  200.9400  149.6150 C   0  0  0  0  0  3  0  0  0  0  0  0
  162.1120  206.1610  148.9690 C   0  0  2  0  0  3  0  0  0  0  0  0
  162.6110  207.1020  147.8720 C   0  0  0  0  0  2  0  0  0  0  0  0
  159.9850  204.7330  152.4330 C   0  0  0  0  0  2  0  0  0  0  0  0
  160.8570  202.8410  151.0010 C   0  0  0  0  0  0  0  0  0  0  0  0
  161.2510  201.5050  150.8750 C   0  0  0  0  0  3  0  0  0  0  0  0
  160.4720  208.1330  152.5060 O   0  0  0  0  0  0  0  0  0  0  0  0
  161.4560  207.7420  153.1900 C   0  0  0  0  0  0  0  0  0  0  0  0
  162.2690  206.6590  152.7320 N   0  0  0  0  0  2  0  0  0  0  0  0
  159.6340  209.9080  155.5620 C   0  0  1  0  0  3  0  0  0  0  0  0
  160.8340  207.9880  155.6040 C   0  0  0  0  0  2  0  0  0  0  0  0
  162.6370  210.4680  153.2290 C   0  0  0  0  0  1  0  0  0  0  0  0
  158.2390  210.4980  155.5970 C   0  0  0  0  0  1  0  0  0  0  0  0
  159.5480  208.5160  155.3750 O   0  0  0  0  0  0  0  0  0  0  0  0
  161.8300  209.9500  154.4080 C   0  0  2  0  0  3  0  0  0  0  0  0
  161.8010  208.4130  154.4900 C   0  0  2  0  0  3  0  0  0  0  0  0
  160.4240  210.5420  154.4170 C   0  0  0  0  0  2  0  0  0  0  0  0
  1  9  1  6  0  0  0
  1 14  1  0  0  0  0
  2  3  1  6  0  0  0
  2 13  1  0  0  0  0
  3 19  1  0  0  0  0
  4  7  1  0  0  0  0
  4 15  2  0  0  0  0
  5 14  1  6  0  0  0
  5 16  1  0  0  0  0
  5  2  1  0  0  0  0
  6  1  1  0  0  0  0
  6 17  1  0  0  0  0
  7  3  2  0  0  0  0
  8 23  1  1  0  0  0
 10 18  1  0  0  0  0
 11  4  1  0  0  0  0
 12  8  1  0  0  0  0
 13  8  1  0  0  0  0
 13 18  1  1  0  0  0
 15 20  1  0  0  0  0
 16 17  1  6  0  0  0
 16 12  1  0  0  0  0
 19 10  1  0  0  0  0
 20 19  2  0  0  0  0
 21 22  2  0  0  0  0
 23 22  1  0  0  0  0
 24 27  1  6  0  0  0
 28 24  1  0  0  0  0
 28 25  1  0  0  0  0
 29 26  1  6  0  0  0
 29 31  1  0  0  0  0
 29 30  1  0  0  0  0
 30 22  1  6  0  0  0
 30 25  1  0  0  0  0
 31 24  1  0  0  0  0
M  END
>  <MODEL>
3

>  <REMARK>
 VINA RESULT:      -6.1      2.027      2.612
  Name = 
  2 active torsions:
  status: ('A' for Active; 'I' for Inactive)
    1  A    between atoms: C_5  and  C_30
    2  A    between atoms: C_10  and  N_16
                            x       y       z     vdW  Elec       q    Type
                         _______ _______ _______ _____ _____    ______ ____

>  <TORSDO>
F 2

$$$$
=
 OpenBabel11122413283D

 31 35  0  0  1  0  0  0  0  0999 V2000
  161.1450  206.7220  152.2330 C   0  0  1  0  0  3  0  0  0  0  0  0
  159.6480  210.0510  153.2070 C   0  0  2  0  0  3  0  0  0  0  0  0
  160.3720  210.4750  154.4940 C   0  0  0  0  0  0  0  0  0  0  0  0
  161.7070  209.9110  156.4550 C   0  0  0  0  0  0  0  0  0  0  0  0
  160.3410  209.0480  152.3720 N   0  0  2  0  0  0  0  0  0  0  0  0
  162.5290  207.2230  151.8560 C   0  0  0  0  0  2  0  0  0  0  0  0
  161.1200  209.5510  155.2410 C   0  0  0  0  0  3  0  0  0  0  0  0
  160.5770  211.8530  151.7020 C   0  0  2  0  0  3  0  0  0  0  0  0
  161.2630  205.5350  152.9550 O   0  0  0  0  0  1  0  0  0  0  0  0
  159.4280  212.8450  154.2870 C   0  0  0  0  0  2  0  0  0  0  0  0
  162.5070  208.9170  157.2170 C   0  0  0  0  0  1  0  0  0  0  0  0
  161.4020  210.7740  151.0010 C   0  0  0  0  0  2  0  0  0  0  0  0
  159.3020  211.2610  152.3290 C   0  0  2  0  0  3  0  0  0  0  0  0
  160.4570  207.7720  153.0910 C   0  0  0  0  0  2  0  0  0  0  0  0
  161.5360  211.2010  156.9560 C   0  0  0  0  0  3  0  0  0  0  0  0
  161.6430  209.5700  151.9120 C   0  0  2  0  0  3  0  0  0  0  0  0
  162.3940  208.5260  151.0850 C   0  0  0  0  0  2  0  0  0  0  0  0
  158.5490  212.2930  153.1660 C   0  0  0  0  0  2  0  0  0  0  0  0
  160.1780  211.7750  155.0290 C   0  0  0  0  0  0  0  0  0  0  0  0
  160.7760  212.1290  156.2430 C   0  0  0  0  0  3  0  0  0  0  0  0
  161.5750  212.0590  149.0400 O   0  0  0  0  0  0  0  0  0  0  0  0
  160.7580  212.9400  149.4260 C   0  0  0  0  0  0  0  0  0  0  0  0
  160.2260  212.8990  150.7510 N   0  0  0  0  0  2  0  0  0  0  0  0
  159.7510  213.1430  145.8780 C   0  0  1  0  0  3  0  0  0  0  0  0
  158.9570  213.7800  147.9010 C   0  0  0  0  0  2  0  0  0  0  0  0
  162.7760  214.4530  147.8550 C   0  0  0  0  0  1  0  0  0  0  0  0
  159.6190  212.1320  144.7580 C   0  0  0  0  0  1  0  0  0  0  0  0
  159.0130  212.7030  146.9930 O   0  0  0  0  0  0  0  0  0  0  0  0
  161.3410  214.3290  147.3690 C   0  0  2  0  0  3  0  0  0  0  0  0
  160.3410  214.0530  148.5060 C   0  0  2  0  0  3  0  0  0  0  0  0
  161.2250  213.2950  146.2520 C   0  0  0  0  0  2  0  0  0  0  0  0
  1  9  1  1  0  0  0
  1 14  1  0  0  0  0
  2  3  1  1  0  0  0
  3 19  2  0  0  0  0
  3  7  1  0  0  0  0
  4 15  1  0  0  0  0
  4 11  1  0  0  0  0
  5 14  1  1  0  0  0
  5  2  1  0  0  0  0
  6  1  1  0  0  0  0
  7  4  2  0  0  0  0
  8 23  1  6  0  0  0
  8 13  1  0  0  0  0
 10 19  1  0  0  0  0
 12  8  1  0  0  0  0
 13 18  1  1  0  0  0
 13  2  1  0  0  0  0
 16 12  1  6  0  0  0
 16  5  1  0  0  0  0
 17  6  1  0  0  0  0
 17 16  1  0  0  0  0
 18 10  1  0  0  0  0
 19 20  1  0  0  0  0
 20 15  2  0  0  0  0
 21 22  2  0  0  0  0
 22 23  1  0  0  0  0
 24 27  1  6  0  0  0
 24 31  1  0  0  0  0
 24 28  1  0  0  0  0
 25 30  1  0  0  0  0
 28 25  1  0  0  0  0
 29 26  1  1  0  0  0
 29 30  1  0  0  0  0
 30 22  1  6  0  0  0
 31 29  1  0  0  0  0
M  END
>  <MODEL>
4

>  <REMARK>
 VINA RESULT:      -5.5      4.442      7.458
  Name = 
  2 active torsions:
  status: ('A' for Active; 'I' for Inactive)
    1  A    between atoms: C_5  and  C_30
    2  A    between atoms: C_10  and  N_16
                            x       y       z     vdW  Elec       q    Type
                         _______ _______ _______ _____ _____    ______ ____

>  <TORSDO>
F 2

$$$$
=
 OpenBabel11122413283D

 31 35  0  0  1  0  0  0  0  0999 V2000
  162.4670  213.7790  147.8550 C   0  0  1  0  0  3  0  0  0  0  0  0
  159.8110  214.3270  150.4870 C   0  0  2  0  0  3  0  0  0  0  0  0
  158.4650  214.1750  149.7620 C   0  0  0  0  0  0  0  0  0  0  0  0
  157.1620  214.1610  147.7020 C   0  0  0  0  0  0  0  0  0  0  0  0
  160.9810  213.7170  149.8210 N   0  0  2  0  0  0  0  0  0  0  0  0
  162.2190  212.2990  147.6210 C   0  0  0  0  0  2  0  0  0  0  0  0
  158.3900  214.2130  148.3600 C   0  0  0  0  0  3  0  0  0  0  0  0
  159.6370  212.2660  151.9350 C   0  0  2  0  0  3  0  0  0  0  0  0
  162.6730  214.4140  146.6320 O   0  0  0  0  0  1  0  0  0  0  0  0
  157.2320  214.0530  152.0010 C   0  0  0  0  0  2  0  0  0  0  0  0
  157.1130  214.1870  146.2170 C   0  0  0  0  0  1  0  0  0  0  0  0
  160.7360  211.6330  151.0810 C   0  0  0  0  0  2  0  0  0  0  0  0
  159.7400  213.8010  151.9270 C   0  0  2  0  0  3  0  0  0  0  0  0
  161.2490  214.3820  148.5390 C   0  0  0  0  0  2  0  0  0  0  0  0
  155.9790  214.0930  148.4380 C   0  0  0  0  0  3  0  0  0  0  0  0
  160.7940  212.2580  149.6870 C   0  0  2  0  0  3  0  0  0  0  0  0
  161.9750  211.6170  148.9570 C   0  0  0  0  0  2  0  0  0  0  0  0
  158.5590  214.4530  152.6440 C   0  0  0  0  0  2  0  0  0  0  0  0
  157.2550  214.1380  150.5010 C   0  0  0  0  0  0  0  0  0  0  0  0
  156.0280  214.0790  149.8320 C   0  0  0  0  0  3  0  0  0  0  0  0
  160.1530  209.5600  152.6670 O   0  0  0  0  0  0  0  0  0  0  0  0
  159.9960  210.3960  153.5980 C   0  0  0  0  0  0  0  0  0  0  0  0
  159.7270  211.7670  153.3000 N   0  0  0  0  0  2  0  0  0  0  0  0
  159.3340  212.0270  156.8460 C   0  0  1  0  0  3  0  0  0  0  0  0
  158.7260  210.1450  155.7430 C   0  0  0  0  0  2  0  0  0  0  0  0
  162.5160  210.7030  155.1420 C   0  0  0  0  0  1  0  0  0  0  0  0
  158.8970  213.4160  157.2610 C   0  0  0  0  0  1  0  0  0  0  0  0
  158.4260  211.5130  155.9020 O   0  0  0  0  0  0  0  0  0  0  0  0
  161.1680  210.6880  155.8440 C   0  0  2  0  0  3  0  0  0  0  0  0
  160.0760  209.9640  155.0360 C   0  0  2  0  0  3  0  0  0  0  0  0
  160.7360  212.0970  156.2390 C   0  0  0  0  0  2  0  0  0  0  0  0
  1  9  1  6  0  0  0
  1 14  1  0  0  0  0
  2  3  1  6  0  0  0
  2 13  1  0  0  0  0
  3 19  1  0  0  0  0
  4  7  1  0  0  0  0
  4 15  2  0  0  0  0
  5 14  1  6  0  0  0
  5  2  1  0  0  0  0
  6  1  1  0  0  0  0
  6 17  1  0  0  0  0
  7  3  2  0  0  0  0
  8 23  1  1  0  0  0
 10 18  1  0  0  0  0
 11  4  1  0  0  0  0
 12  8  1  0  0  0  0
 13  8  1  0  0  0  0
 13 18  1  6  0  0  0
 15 20  1  0  0  0  0
 16 17  1  6  0  0  0
 16  5  1  0  0  0  0
 16 12  1  0  0  0  0
 19 10  1  0  0  0  0
 20 19  2  0  0  0  0
 21 22  2  0  0  0  0
 23 22  1  0  0  0  0
 24 27  1  6  0  0  0
 25 28  1  0  0  0  0
 28 24  1  0  0  0  0
 29 26  1  6  0  0  0
 29 31  1  0  0  0  0
 30 22  1  6  0  0  0
 30 25  1  0  0  0  0
 30 29  1  0  0  0  0
 31 24  1  0  0  0  0
M  END
>  <MODEL>
5

>  <REMARK>
 VINA RESULT:      -5.0      6.446      8.714
  Name = 
  2 active torsions:
  status: ('A' for Active; 'I' for Inactive)
    1  A    between atoms: C_5  and  C_30
    2  A    between atoms: C_10  and  N_16
                            x       y       z     vdW  Elec       q    Type
                         _______ _______ _______ _____ _____    ______ ____

>  <TORSDO>
F 2

$$$$
=
 OpenBabel11122413283D

 31 35  0  0  1  0  0  0  0  0999 V2000
  162.6800  213.4320  147.6040 C   0  0  1  0  0  3  0  0  0  0  0  0
  159.9810  214.1170  150.1580 C   0  0  2  0  0  3  0  0  0  0  0  0
  158.6580  213.7200  149.4860 C   0  0  0  0  0  0  0  0  0  0  0  0
  157.3630  213.2540  147.4730 C   0  0  0  0  0  0  0  0  0  0  0  0
  161.2070  213.5290  149.5780 N   0  0  2  0  0  0  0  0  0  0  0  0
  162.5830  211.9160  147.6070 C   0  0  0  0  0  2  0  0  0  0  0  0
  158.5800  213.5300  148.0970 C   0  0  0  0  0  3  0  0  0  0  0  0
  160.0150  212.3010  151.9120 C   0  0  2  0  0  3  0  0  0  0  0  0
  162.8220  213.8850  146.2940 O   0  0  0  0  0  1  0  0  0  0  0  0
  157.4410  213.8270  151.7360 C   0  0  0  0  0  2  0  0  0  0  0  0
  157.3130  213.0420  146.0040 C   0  0  0  0  0  1  0  0  0  0  0  0
  161.1720  211.6550  151.1500 C   0  0  0  0  0  2  0  0  0  0  0  0
  159.9620  213.8180  151.6640 C   0  0  2  0  0  3  0  0  0  0  0  0
  161.4070  214.0090  148.2040 C   0  0  0  0  0  2  0  0  0  0  0  0
  156.1930  213.1840  148.2290 C   0  0  0  0  0  3  0  0  0  0  0  0
  161.1680  212.0560  149.6750 C   0  0  2  0  0  3  0  0  0  0  0  0
  162.4080  211.4310  149.0360 C   0  0  0  0  0  2  0  0  0  0  0  0
  158.7210  214.4530  152.2880 C   0  0  0  0  0  2  0  0  0  0  0  0
  157.4570  213.6780  150.2410 C   0  0  0  0  0  0  0  0  0  0  0  0
  156.2430  213.3930  149.6070 C   0  0  0  0  0  3  0  0  0  0  0  0
  161.7920  210.3910  153.0620 O   0  0  0  0  0  0  0  0  0  0  0  0
  161.0710  211.0640  153.8480 C   0  0  0  0  0  0  0  0  0  0  0  0
  160.1540  212.0320  153.3360 N   0  0  0  0  0  2  0  0  0  0  0  0
  160.1570  208.3150  156.1380 C   0  0  1  0  0  3  0  0  0  0  0  0
  161.9660  209.5920  155.6660 C   0  0  0  0  0  2  0  0  0  0  0  0
  158.8430  211.8910  155.6320 C   0  0  0  0  0  1  0  0  0  0  0  0
  159.5190  206.9530  155.9530 C   0  0  0  0  0  1  0  0  0  0  0  0
  161.2660  208.4320  155.2800 O   0  0  0  0  0  0  0  0  0  0  0  0
  159.7840  210.7660  156.0290 C   0  0  2  0  0  3  0  0  0  0  0  0
  161.1550  210.8520  155.3340 C   0  0  2  0  0  3  0  0  0  0  0  0
  159.1310  209.4020  155.8200 C   0  0  0  0  0  2  0  0  0  0  0  0
  1  9  1  6  0  0  0
  1  6  1  0  0  0  0
  1 14  1  0  0  0  0
  2  3  1  6  0  0  0
  2 13  1  0  0  0  0
  3 19  1  0  0  0  0
  4  7  1  0  0  0  0
  4 15  2  0  0  0  0
  5 14  1  6  0  0  0
  5 16  1  0  0  0  0
  5  2  1  0  0  0  0
  6 17  1  0  0  0  0
  7  3  2  0  0  0  0
  8 23  1  1  0  0  0
 10 18  1  0  0  0  0
 11  4  1  0  0  0  0
 12  8  1  0  0  0  0
 13  8  1  0  0  0  0
 13 18  1  6  0  0  0
 15 20  1  0  0  0  0
 16 17  1  6  0  0  0
 16 12  1  0  0  0  0
 19 10  1  0  0  0  0
 20 19  2  0  0  0  0
 21 22  2  0  0  0  0
 23 22  1  0  0  0  0
 24 27  1  6  0  0  0
 28 25  1  0  0  0  0
 28 24  1  0  0  0  0
 29 26  1  6  0  0  0
 30 22  1  6  0  0  0
 30 25  1  0  0  0  0
 30 29  1  0  0  0  0
 31 29  1  0  0  0  0
 31 24  1  0  0  0  0
M  END
>  <MODEL>
6

>  <REMARK>
 VINA RESULT:      -3.8      6.064      8.372
  Name = 
  2 active torsions:
  status: ('A' for Active; 'I' for Inactive)
    1  A    between atoms: C_5  and  C_30
    2  A    between atoms: C_10  and  N_16
                            x       y       z     vdW  Elec       q    Type
                         _______ _______ _______ _____ _____    ______ ____

>  <TORSDO>
F 2

$$$$
