=
 OpenBabel11122414123D

 28 32  0  0  1  0  0  0  0  0999 V2000
  161.3560  208.7330  155.9340 C   0  0  0  0  0  0  0  0  0  0  0  0
  162.8830  206.7760  153.1650 O   0  0  0  0  0  0  0  0  0  0  0  0
  157.9460  212.8860  152.5300 C   0  0  0  0  0  1  0  0  0  0  0  0
  159.4780  206.6690  156.1990 C   0  0  0  0  0  3  0  0  0  0  0  0
  159.9910  211.9220  151.4490 C   0  0  2  0  0  3  0  0  0  0  0  0
  162.3590  209.8460  155.8470 C   0  0  0  0  0  2  0  0  0  0  0  0
  160.7000  205.9030  152.4200 O   0  0  0  0  0  0  0  0  0  0  0  0
  161.7390  206.9680  152.2100 S   0  0  0  0  0  0  0  0  0  0  0  0
  161.4170  207.7400  149.6350 C   0  0  2  0  0  3  0  0  0  0  0  0
  161.0400  208.5340  152.4170 N   0  0  0  0  0  0  0  0  0  0  0  0
  159.5830  211.4440  156.8620 O   0  0  0  0  0  0  0  0  0  0  0  0
  160.1400  210.3850  153.2350 C   0  0  0  0  0  0  0  0  0  0  0  0
  161.4340  209.2210  150.0220 C   0  0  0  0  0  2  0  0  0  0  0  0
  162.3340  206.9080  150.5320 C   0  0  0  0  0  2  0  0  0  0  0  0
  160.6270  211.5800  156.1710 C   0  0  0  0  0  0  0  0  0  0  0  0
  160.4880  208.4270  154.8610 C   0  0  0  0  0  0  0  0  0  0  0  0
  159.4160  212.5710  152.7340 C   0  0  2  0  0  3  0  0  0  0  0  0
  161.8600  207.5940  148.1950 C   0  0  0  0  0  1  0  0  0  0  0  0
  160.5500  212.0980  154.8470 N   0  0  0  0  0  2  0  0  0  0  0  0
  159.5600  207.3880  155.0050 C   0  0  0  0  0  3  0  0  0  0  0  0
  161.2670  208.0040  157.1270 C   0  0  0  0  0  3  0  0  0  0  0  0
  160.3310  206.9760  157.2600 C   0  0  0  0  0  3  0  0  0  0  0  0
  161.9260  211.0560  156.6750 C   0  0  0  0  0  2  0  0  0  0  0  0
  160.3620  210.5800  151.9300 C   0  0  0  0  0  0  0  0  0  0  0  0
  159.5720  211.5730  153.9100 C   0  0  2  0  0  3  0  0  0  0  0  0
  160.9120  209.4290  151.4130 C   0  0  0  0  0  0  0  0  0  0  0  0
  161.2330  212.6780  151.0160 C   0  0  0  0  0  1  0  0  0  0  0  0
  160.5710  209.1070  153.5550 C   0  0  0  0  0  0  0  0  0  0  0  0
  1 21  1  0  0  0  0
  4 22  1  0  0  0  0
  5 27  1  1  0  0  0
  5 24  1  0  0  0  0
  5 17  1  0  0  0  0
  6  1  1  0  0  0  0
  6 23  1  0  0  0  0
  8 10  1  0  0  0  0
  8  7  2  0  0  0  0
  8  2  2  0  0  0  0
  9 18  1  6  0  0  0
  9 13  1  0  0  0  0
  9 14  1  0  0  0  0
 10 28  1  0  0  0  0
 12 28  2  0  0  0  0
 13 26  1  0  0  0  0
 14  8  1  0  0  0  0
 15 23  1  0  0  0  0
 15 11  2  0  0  0  0
 16 20  1  0  0  0  0
 16  1  2  0  0  0  0
 17  3  1  6  0  0  0
 17 25  1  0  0  0  0
 19 15  1  0  0  0  0
 20  4  2  0  0  0  0
 21 22  2  0  0  0  0
 24 12  1  0  0  0  0
 25 12  1  6  0  0  0
 25 19  1  0  0  0  0
 26 24  2  0  0  0  0
 26 10  1  0  0  0  0
 28 16  1  0  0  0  0
M  END
>  <MODEL>
1

>  <REMARK>
 VINA RESULT:      -3.1      0.000      0.000
  Name = 
  0 active torsions:
  status: ('A' for Active; 'I' for Inactive)
                            x       y       z     vdW  Elec       q    Type
                         _______ _______ _______ _____ _____    ______ ____

>  <TORSDO>
F 0

$$$$
=
 OpenBabel11122414123D

 28 32  0  0  1  0  0  0  0  0999 V2000
  161.5500  208.9170  154.3630 C   0  0  0  0  0  0  0  0  0  0  0  0
  163.2240  210.3280  151.3570 O   0  0  0  0  0  0  0  0  0  0  0  0
  156.0230  212.0510  154.0590 C   0  0  0  0  0  1  0  0  0  0  0  0
  160.9170  206.6700  152.8100 C   0  0  0  0  0  3  0  0  0  0  0  0
  158.0250  213.1510  153.0280 C   0  0  2  0  0  3  0  0  0  0  0  0
  161.8940  210.0860  155.2390 C   0  0  0  0  0  2  0  0  0  0  0  0
  161.5830  209.3130  149.8210 O   0  0  0  0  0  0  0  0  0  0  0  0
  161.9560  210.5530  150.5830 S   0  0  0  0  0  0  0  0  0  0  0  0
  160.8170  212.5780  149.1940 C   0  0  2  0  0  3  0  0  0  0  0  0
  160.6750  211.0080  151.6490 N   0  0  0  0  0  0  0  0  0  0  0  0
  158.9560  209.0630  156.5090 O   0  0  0  0  0  0  0  0  0  0  0  0
  159.2090  211.1280  153.3050 C   0  0  0  0  0  0  0  0  0  0  0  0
  160.2300  213.1920  150.4690 C   0  0  0  0  0  2  0  0  0  0  0  0
  162.1680  211.9140  149.4540 C   0  0  0  0  0  2  0  0  0  0  0  0
  159.6630  210.0850  156.3030 C   0  0  0  0  0  0  0  0  0  0  0  0
  160.7260  209.0560  153.2230 C   0  0  0  0  0  0  0  0  0  0  0  0
  157.4820  212.4060  154.2740 C   0  0  2  0  0  3  0  0  0  0  0  0
  160.9830  213.6600  148.1490 C   0  0  0  0  0  1  0  0  0  0  0  0
  159.0990  211.2380  155.6880 N   0  0  0  0  0  2  0  0  0  0  0  0
  160.4250  207.9270  152.4530 C   0  0  0  0  0  3  0  0  0  0  0  0
  162.0410  207.6520  154.7120 C   0  0  0  0  0  3  0  0  0  0  0  0
  161.7260  206.5320  153.9400 C   0  0  0  0  0  3  0  0  0  0  0  0
  161.1280  210.0400  156.5610 C   0  0  0  0  0  2  0  0  0  0  0  0
  159.0550  212.2170  152.5430 C   0  0  0  0  0  0  0  0  0  0  0  0
  158.3060  211.1090  154.4780 C   0  0  2  0  0  3  0  0  0  0  0  0
  159.9560  212.1440  151.5050 C   0  0  0  0  0  0  0  0  0  0  0  0
  158.6710  214.4530  153.4610 C   0  0  0  0  0  1  0  0  0  0  0  0
  160.2300  210.3650  152.7590 C   0  0  0  0  0  0  0  0  0  0  0  0
  1 21  1  0  0  0  0
  1  6  1  0  0  0  0
  4 22  1  0  0  0  0
  5 27  1  1  0  0  0
  5 17  1  0  0  0  0
  6 23  1  0  0  0  0
  7  8  2  0  0  0  0
  8  2  2  0  0  0  0
  8 10  1  0  0  0  0
  9 18  1  6  0  0  0
  9 14  1  0  0  0  0
  9 13  1  0  0  0  0
 10 28  1  0  0  0  0
 13 26  1  0  0  0  0
 14  8  1  0  0  0  0
 15 11  2  0  0  0  0
 15 23  1  0  0  0  0
 16  1  2  0  0  0  0
 17  3  1  6  0  0  0
 17 25  1  0  0  0  0
 19 15  1  0  0  0  0
 20  4  2  0  0  0  0
 20 16  1  0  0  0  0
 22 21  2  0  0  0  0
 24  5  1  0  0  0  0
 24 12  1  0  0  0  0
 25 12  1  6  0  0  0
 25 19  1  0  0  0  0
 26 10  1  0  0  0  0
 26 24  2  0  0  0  0
 28 16  1  0  0  0  0
 28 12  2  0  0  0  0
M  END
>  <MODEL>
2

>  <REMARK>
 VINA RESULT:      -2.9      2.379      3.162
  Name = 
  0 active torsions:
  status: ('A' for Active; 'I' for Inactive)
                            x       y       z     vdW  Elec       q    Type
                         _______ _______ _______ _____ _____    ______ ____

>  <TORSDO>
F 0

$$$$
=
 OpenBabel11122414123D

 28 32  0  0  1  0  0  0  0  0999 V2000
  161.9920  205.0130  146.2950 C   0  0  0  0  0  0  0  0  0  0  0  0
  163.0400  207.5590  148.7950 O   0  0  0  0  0  0  0  0  0  0  0  0
  158.9550  200.9530  150.1360 C   0  0  0  0  0  1  0  0  0  0  0  0
  159.8710  206.7190  145.6210 C   0  0  0  0  0  3  0  0  0  0  0  0
  160.7680  202.3540  151.1500 C   0  0  2  0  0  3  0  0  0  0  0  0
  163.1300  204.0840  146.6010 C   0  0  0  0  0  2  0  0  0  0  0  0
  160.7100  208.2030  149.2890 O   0  0  0  0  0  0  0  0  0  0  0  0
  161.8690  207.3450  149.7120 S   0  0  0  0  0  0  0  0  0  0  0  0
  161.4770  206.9210  152.3570 C   0  0  2  0  0  3  0  0  0  0  0  0
  161.4080  205.6800  149.7180 N   0  0  0  0  0  0  0  0  0  0  0  0
  160.6770  201.9650  145.7150 O   0  0  0  0  0  0  0  0  0  0  0  0
  160.8290  203.6170  149.1560 C   0  0  0  0  0  0  0  0  0  0  0  0
  161.7240  205.4180  152.2070 C   0  0  0  0  0  2  0  0  0  0  0  0
  162.3310  207.7370  151.3870 C   0  0  0  0  0  2  0  0  0  0  0  0
  161.6780  202.0870  146.4690 C   0  0  0  0  0  0  0  0  0  0  0  0
  161.0180  205.3440  147.2640 C   0  0  0  0  0  0  0  0  0  0  0  0
  160.3780  201.4470  149.9560 C   0  0  2  0  0  3  0  0  0  0  0  0
  161.7940  207.3410  153.7770 C   0  0  0  0  0  1  0  0  0  0  0  0
  161.5810  201.7640  147.8510 N   0  0  0  0  0  2  0  0  0  0  0  0
  159.9680  206.2030  146.9150 C   0  0  0  0  0  3  0  0  0  0  0  0
  161.8870  205.5380  144.9990 C   0  0  0  0  0  3  0  0  0  0  0  0
  160.8310  206.3870  144.6630 C   0  0  0  0  0  3  0  0  0  0  0  0
  162.9250  202.7150  145.9520 C   0  0  0  0  0  2  0  0  0  0  0  0
  160.9840  203.6510  150.4850 C   0  0  0  0  0  0  0  0  0  0  0  0
  160.4780  202.2720  148.6470 C   0  0  2  0  0  3  0  0  0  0  0  0
  161.3330  204.9330  150.8420 C   0  0  0  0  0  0  0  0  0  0  0  0
  162.0680  201.8610  151.7540 C   0  0  0  0  0  1  0  0  0  0  0  0
  161.1020  204.8840  148.6620 C   0  0  0  0  0  0  0  0  0  0  0  0
  1  6  1  0  0  0  0
  1 16  1  0  0  0  0
  2  8  2  0  0  0  0
  4 20  1  0  0  0  0
  5 27  1  6  0  0  0
  7  8  2  0  0  0  0
  8 10  1  0  0  0  0
  8 14  1  0  0  0  0
  9 18  1  1  0  0  0
 10 26  1  0  0  0  0
 11 15  2  0  0  0  0
 12 24  1  0  0  0  0
 13  9  1  0  0  0  0
 14  9  1  0  0  0  0
 15 19  1  0  0  0  0
 16 28  1  0  0  0  0
 17  3  1  1  0  0  0
 17  5  1  0  0  0  0
 20 16  2  0  0  0  0
 21  1  2  0  0  0  0
 22 21  1  0  0  0  0
 22  4  2  0  0  0  0
 23 15  1  0  0  0  0
 23  6  1  0  0  0  0
 24 26  2  0  0  0  0
 24  5  1  0  0  0  0
 25 19  1  6  0  0  0
 25 12  1  0  0  0  0
 25 17  1  0  0  0  0
 26 13  1  0  0  0  0
 28 12  2  0  0  0  0
 28 10  1  0  0  0  0
M  END
>  <MODEL>
3

>  <REMARK>
 VINA RESULT:      -2.8      4.410      9.314
  Name = 
  0 active torsions:
  status: ('A' for Active; 'I' for Inactive)
                            x       y       z     vdW  Elec       q    Type
                         _______ _______ _______ _____ _____    ______ ____

>  <TORSDO>
F 0

$$$$
=
 OpenBabel11122414123D

 28 32  0  0  1  0  0  0  0  0999 V2000
  161.2030  211.6990  151.2890 C   0  0  0  0  0  0  0  0  0  0  0  0
  161.3340  211.1990  154.9720 O   0  0  0  0  0  0  0  0  0  0  0  0
  160.1870  205.6960  149.4470 C   0  0  0  0  0  1  0  0  0  0  0  0
  158.5550  212.5580  151.6180 C   0  0  0  0  0  3  0  0  0  0  0  0
  161.3780  206.0420  151.6250 C   0  0  2  0  0  3  0  0  0  0  0  0
  162.6260  211.2760  151.0710 C   0  0  0  0  0  2  0  0  0  0  0  0
  158.9680  210.5070  155.0800 O   0  0  0  0  0  0  0  0  0  0  0  0
  160.3900  210.0290  154.9880 S   0  0  0  0  0  0  0  0  0  0  0  0
  160.3440  207.5370  156.0430 C   0  0  2  0  0  3  0  0  0  0  0  0
  160.6060  209.0650  153.5710 N   0  0  0  0  0  0  0  0  0  0  0  0
  161.1300  210.2960  148.2270 O   0  0  0  0  0  0  0  0  0  0  0  0
  160.8340  208.3360  151.4930 C   0  0  0  0  0  0  0  0  0  0  0  0
  161.1410  206.9670  154.8660 C   0  0  0  0  0  2  0  0  0  0  0  0
  160.7620  208.9700  156.3710 C   0  0  0  0  0  2  0  0  0  0  0  0
  162.0490  209.9990  149.0350 C   0  0  0  0  0  0  0  0  0  0  0  0
  160.2340  210.8130  151.8130 C   0  0  0  0  0  0  0  0  0  0  0  0
  161.2980  206.4650  150.1360 C   0  0  2  0  0  3  0  0  0  0  0  0
  160.5570  206.6630  157.2600 C   0  0  0  0  0  1  0  0  0  0  0  0
  162.1640  208.6730  149.5380 N   0  0  0  0  0  2  0  0  0  0  0  0
  158.9170  211.2590  151.9790 C   0  0  0  0  0  3  0  0  0  0  0  0
  160.8300  213.0020  150.9330 C   0  0  0  0  0  3  0  0  0  0  0  0
  159.5110  213.4310  151.0960 C   0  0  0  0  0  3  0  0  0  0  0  0
  162.9270  211.0670  149.5870 C   0  0  0  0  0  2  0  0  0  0  0  0
  161.0400  207.3000  152.3140 C   0  0  0  0  0  0  0  0  0  0  0  0
  160.9980  207.9850  150.0640 C   0  0  2  0  0  3  0  0  0  0  0  0
  160.8890  207.7430  153.6080 C   0  0  0  0  0  0  0  0  0  0  0  0
  162.8000  205.6370  151.9590 C   0  0  0  0  0  1  0  0  0  0  0  0
  160.5690  209.4520  152.2710 C   0  0  0  0  0  0  0  0  0  0  0  0
  1 16  1  0  0  0  0
  2  8  2  0  0  0  0
  4 20  1  0  0  0  0
  5 27  1  1  0  0  0
  5 24  1  0  0  0  0
  6  1  1  0  0  0  0
  8  7  2  0  0  0  0
  8 14  1  0  0  0  0
  9 14  1  0  0  0  0
  9 18  1  1  0  0  0
 10 26  1  0  0  0  0
 10  8  1  0  0  0  0
 11 15  2  0  0  0  0
 12 28  2  0  0  0  0
 12 24  1  0  0  0  0
 13  9  1  0  0  0  0
 15 19  1  0  0  0  0
 15 23  1  0  0  0  0
 16 20  2  0  0  0  0
 16 28  1  0  0  0  0
 17  3  1  6  0  0  0
 17  5  1  0  0  0  0
 21 22  1  0  0  0  0
 21  1  2  0  0  0  0
 22  4  2  0  0  0  0
 23  6  1  0  0  0  0
 24 26  2  0  0  0  0
 25 19  1  1  0  0  0
 25 17  1  0  0  0  0
 25 12  1  0  0  0  0
 26 13  1  0  0  0  0
 28 10  1  0  0  0  0
M  END
>  <MODEL>
4

>  <REMARK>
 VINA RESULT:      -2.3      2.225      6.147
  Name = 
  0 active torsions:
  status: ('A' for Active; 'I' for Inactive)
                            x       y       z     vdW  Elec       q    Type
                         _______ _______ _______ _____ _____    ______ ____

>  <TORSDO>
F 0

$$$$
=
 OpenBabel11122414123D

 28 32  0  0  1  0  0  0  0  0999 V2000
  160.2610  210.7370  151.5570 C   0  0  0  0  0  0  0  0  0  0  0  0
  160.0810  207.4450  149.8380 O   0  0  0  0  0  0  0  0  0  0  0  0
  162.3360  208.8340  157.2610 C   0  0  0  0  0  1  0  0  0  0  0  0
  162.7140  211.1470  150.2630 C   0  0  0  0  0  3  0  0  0  0  0  0
  161.0250  207.1820  155.9070 C   0  0  2  0  0  3  0  0  0  0  0  0
  158.9380  210.5730  152.2460 C   0  0  0  0  0  2  0  0  0  0  0  0
  162.5240  207.1180  149.9540 O   0  0  0  0  0  0  0  0  0  0  0  0
  161.2060  206.8200  150.6130 S   0  0  0  0  0  0  0  0  0  0  0  0
  161.6310  204.5240  151.9840 C   0  0  2  0  0  3  0  0  0  0  0  0
  161.2080  207.4000  152.2410 N   0  0  0  0  0  0  0  0  0  0  0  0
  160.6800  212.4210  154.4460 O   0  0  0  0  0  0  0  0  0  0  0  0
  161.1810  208.6530  154.0670 C   0  0  0  0  0  0  0  0  0  0  0  0
  160.9850  205.0980  153.2480 C   0  0  0  0  0  2  0  0  0  0  0  0
  160.9670  205.0580  150.7150 C   0  0  0  0  0  2  0  0  0  0  0  0
  159.7950  211.5300  154.3580 C   0  0  0  0  0  0  0  0  0  0  0  0
  161.3450  209.8660  151.8080 C   0  0  0  0  0  0  0  0  0  0  0  0
  161.0870  208.6430  156.4210 C   0  0  2  0  0  3  0  0  0  0  0  0
  161.5230  203.0150  152.0080 C   0  0  0  0  0  1  0  0  0  0  0  0
  159.8860  210.3460  155.1430 N   0  0  0  0  0  2  0  0  0  0  0  0
  162.5620  210.0780  151.1480 C   0  0  0  0  0  3  0  0  0  0  0  0
  160.4230  211.8060  150.6650 C   0  0  0  0  0  3  0  0  0  0  0  0
  161.6440  212.0110  150.0200 C   0  0  0  0  0  3  0  0  0  0  0  0
  158.7310  211.6380  153.3230 C   0  0  0  0  0  2  0  0  0  0  0  0
  161.1220  207.3720  154.4490 C   0  0  0  0  0  0  0  0  0  0  0  0
  161.1310  209.6000  155.2030 C   0  0  2  0  0  3  0  0  0  0  0  0
  161.1490  206.5870  153.3190 C   0  0  0  0  0  0  0  0  0  0  0  0
  159.6790  206.5790  156.2610 C   0  0  0  0  0  1  0  0  0  0  0  0
  161.2260  208.6830  152.6810 C   0  0  0  0  0  0  0  0  0  0  0  0
  1 16  1  0  0  0  0
  1  6  1  0  0  0  0
  2  8  2  0  0  0  0
  4 20  1  0  0  0  0
  5 27  1  6  0  0  0
  5 17  1  0  0  0  0
  6 23  1  0  0  0  0
  7  8  2  0  0  0  0
  8 14  1  0  0  0  0
  8 10  1  0  0  0  0
  9 18  1  1  0  0  0
  9 13  1  0  0  0  0
 10 28  1  0  0  0  0
 10 26  1  0  0  0  0
 12 24  1  0  0  0  0
 13 26  1  0  0  0  0
 14  9  1  0  0  0  0
 15 11  2  0  0  0  0
 15 19  1  0  0  0  0
 16 28  1  0  0  0  0
 17  3  1  1  0  0  0
 19 25  1  0  0  0  0
 20 16  2  0  0  0  0
 21  1  2  0  0  0  0
 22  4  2  0  0  0  0
 22 21  1  0  0  0  0
 23 15  1  0  0  0  0
 24  5  1  0  0  0  0
 25 12  1  6  0  0  0
 25 17  1  0  0  0  0
 26 24  2  0  0  0  0
 28 12  2  0  0  0  0
M  END
>  <MODEL>
5

>  <REMARK>
 VINA RESULT:      -2.2      1.967      4.981
  Name = 
  0 active torsions:
  status: ('A' for Active; 'I' for Inactive)
                            x       y       z     vdW  Elec       q    Type
                         _______ _______ _______ _____ _____    ______ ____

>  <TORSDO>
F 0

$$$$
=
 OpenBabel11122414123D

 28 32  0  0  1  0  0  0  0  0999 V2000
  161.6830  207.7940  153.8730 C   0  0  0  0  0  0  0  0  0  0  0  0
  163.2750  209.8780  151.2370 O   0  0  0  0  0  0  0  0  0  0  0  0
  156.2650  211.0360  154.6460 C   0  0  0  0  0  1  0  0  0  0  0  0
  160.9030  206.0280  151.8400 C   0  0  0  0  0  3  0  0  0  0  0  0
  158.2580  212.3120  153.8250 C   0  0  2  0  0  3  0  0  0  0  0  0
  162.1060  208.6950  154.9950 C   0  0  0  0  0  2  0  0  0  0  0  0
  161.5340  209.3230  149.5800 O   0  0  0  0  0  0  0  0  0  0  0  0
  161.9840  210.3220  150.6090 S   0  0  0  0  0  0  0  0  0  0  0  0
  160.8590  212.6580  149.8330 C   0  0  2  0  0  3  0  0  0  0  0  0
  160.7670  210.5230  151.8190 N   0  0  0  0  0  0  0  0  0  0  0  0
  159.1910  207.4560  156.1160 O   0  0  0  0  0  0  0  0  0  0  0  0
  159.3800  210.2560  153.5240 C   0  0  0  0  0  0  0  0  0  0  0  0
  160.3510  212.9450  151.2490 C   0  0  0  0  0  2  0  0  0  0  0  0
  162.1960  211.9180  149.8480 C   0  0  0  0  0  2  0  0  0  0  0  0
  159.9250  208.4800  156.1380 C   0  0  0  0  0  0  0  0  0  0  0  0
  160.8160  208.2370  152.8480 C   0  0  0  0  0  0  0  0  0  0  0  0
  157.7440  211.2900  154.8700 C   0  0  2  0  0  3  0  0  0  0  0  0
  161.0200  213.9650  149.0860 C   0  0  0  0  0  1  0  0  0  0  0  0
  159.3760  209.7640  155.8610 N   0  0  0  0  0  2  0  0  0  0  0  0
  160.4410  207.3460  151.8350 C   0  0  0  0  0  3  0  0  0  0  0  0
  162.1430  206.4700  153.8680 C   0  0  0  0  0  3  0  0  0  0  0  0
  161.7540  205.5900  152.8560 C   0  0  0  0  0  3  0  0  0  0  0  0
  161.3970  208.3350  156.3010 C   0  0  0  0  0  2  0  0  0  0  0  0
  159.2320  211.5060  153.0690 C   0  0  0  0  0  0  0  0  0  0  0  0
  158.5280  209.9630  154.6990 C   0  0  2  0  0  3  0  0  0  0  0  0
  160.0840  211.6750  152.0010 C   0  0  0  0  0  0  0  0  0  0  0  0
  158.9690  213.4470  154.5370 C   0  0  0  0  0  1  0  0  0  0  0  0
  160.3480  209.6320  152.7530 C   0  0  0  0  0  0  0  0  0  0  0  0
  1  6  1  0  0  0  0
  4 22  1  0  0  0  0
  5 27  1  1  0  0  0
  5 17  1  0  0  0  0
  6 23  1  0  0  0  0
  7  8  2  0  0  0  0
  8  2  2  0  0  0  0
  8 10  1  0  0  0  0
  9 18  1  6  0  0  0
  9 14  1  0  0  0  0
  9 13  1  0  0  0  0
 10 26  1  0  0  0  0
 10 28  1  0  0  0  0
 11 15  2  0  0  0  0
 13 26  1  0  0  0  0
 14  8  1  0  0  0  0
 15 23  1  0  0  0  0
 16  1  2  0  0  0  0
 17  3  1  6  0  0  0
 19 15  1  0  0  0  0
 20  4  2  0  0  0  0
 20 16  1  0  0  0  0
 21  1  1  0  0  0  0
 22 21  2  0  0  0  0
 24 12  1  0  0  0  0
 24  5  1  0  0  0  0
 25 12  1  6  0  0  0
 25 17  1  0  0  0  0
 25 19  1  0  0  0  0
 26 24  2  0  0  0  0
 28 16  1  0  0  0  0
 28 12  2  0  0  0  0
M  END
>  <MODEL>
6

>  <REMARK>
 VINA RESULT:      -1.8      2.318      3.517
  Name = 
  0 active torsions:
  status: ('A' for Active; 'I' for Inactive)
                            x       y       z     vdW  Elec       q    Type
                         _______ _______ _______ _____ _____    ______ ____

>  <TORSDO>
F 0

$$$$
=
 OpenBabel11122414123D

 28 32  0  0  1  0  0  0  0  0999 V2000
  161.0280  206.0190  150.6340 C   0  0  0  0  0  0  0  0  0  0  0  0
  159.6980  207.3670  153.8340 O   0  0  0  0  0  0  0  0  0  0  0  0
  163.7120  211.2940  148.3040 C   0  0  0  0  0  1  0  0  0  0  0  0
  163.1840  204.9880  152.1010 C   0  0  0  0  0  3  0  0  0  0  0  0
  161.7870  211.5860  149.8810 C   0  0  2  0  0  3  0  0  0  0  0  0
  159.8780  206.5260  149.8150 C   0  0  0  0  0  2  0  0  0  0  0  0
  161.9560  207.8150  154.7210 O   0  0  0  0  0  0  0  0  0  0  0  0
  160.7720  208.4040  154.0070 S   0  0  0  0  0  0  0  0  0  0  0  0
  160.8980  211.0540  154.5440 C   0  0  2  0  0  3  0  0  0  0  0  0
  161.2530  209.0320  152.4710 N   0  0  0  0  0  0  0  0  0  0  0  0
  162.4360  206.6610  147.6410 O   0  0  0  0  0  0  0  0  0  0  0  0
  161.9120  209.2810  150.3710 C   0  0  0  0  0  0  0  0  0  0  0  0
  160.6880  211.4160  153.0710 C   0  0  0  0  0  2  0  0  0  0  0  0
  160.1370  209.7870  154.9320 C   0  0  0  0  0  2  0  0  0  0  0  0
  161.3610  207.2310  147.9680 C   0  0  0  0  0  0  0  0  0  0  0  0
  161.8950  206.8950  151.3260 C   0  0  0  0  0  0  0  0  0  0  0  0
  162.3080  210.8250  148.6360 C   0  0  2  0  0  3  0  0  0  0  0  0
  160.4330  212.2030  155.4130 C   0  0  0  0  0  1  0  0  0  0  0  0
  161.3210  208.6420  148.1480 N   0  0  0  0  0  2  0  0  0  0  0  0
  162.9630  206.3660  152.0610 C   0  0  0  0  0  3  0  0  0  0  0  0
  161.2580  204.6370  150.6830 C   0  0  0  0  0  3  0  0  0  0  0  0
  162.3310  204.1230  151.4130 C   0  0  0  0  0  3  0  0  0  0  0  0
  160.1660  206.4170  148.3170 C   0  0  0  0  0  2  0  0  0  0  0  0
  161.6230  210.4940  150.8550 C   0  0  0  0  0  0  0  0  0  0  0  0
  162.3310  209.3070  148.9520 C   0  0  2  0  0  3  0  0  0  0  0  0
  161.2220  210.3480  152.1640 C   0  0  0  0  0  0  0  0  0  0  0  0
  160.4390  212.2040  149.5650 C   0  0  0  0  0  1  0  0  0  0  0  0
  161.6750  208.3530  151.3740 C   0  0  0  0  0  0  0  0  0  0  0  0
  1 21  2  0  0  0  0
  1 16  1  0  0  0  0
  2  8  2  0  0  0  0
  5 27  1  6  0  0  0
  5 24  1  0  0  0  0
  6  1  1  0  0  0  0
  8  7  2  0  0  0  0
  8 14  1  0  0  0  0
  9 14  1  0  0  0  0
  9 18  1  1  0  0  0
 10  8  1  0  0  0  0
 11 15  2  0  0  0  0
 12 24  1  0  0  0  0
 12 28  2  0  0  0  0
 13  9  1  0  0  0  0
 15 19  1  0  0  0  0
 15 23  1  0  0  0  0
 16 28  1  0  0  0  0
 16 20  2  0  0  0  0
 17  3  1  1  0  0  0
 17 25  1  0  0  0  0
 17  5  1  0  0  0  0
 20  4  1  0  0  0  0
 21 22  1  0  0  0  0
 22  4  2  0  0  0  0
 23  6  1  0  0  0  0
 24 26  2  0  0  0  0
 25 19  1  6  0  0  0
 25 12  1  0  0  0  0
 26 10  1  0  0  0  0
 26 13  1  0  0  0  0
 28 10  1  0  0  0  0
M  END
>  <MODEL>
7

>  <REMARK>
 VINA RESULT:      -1.5      2.272      5.830
  Name = 
  0 active torsions:
  status: ('A' for Active; 'I' for Inactive)
                            x       y       z     vdW  Elec       q    Type
                         _______ _______ _______ _____ _____    ______ ____

>  <TORSDO>
F 0

$$$$
=
 OpenBabel11122414123D

 28 32  0  0  1  0  0  0  0  0999 V2000
  160.7360  209.9480  156.1440 C   0  0  0  0  0  0  0  0  0  0  0  0
  163.0630  209.1610  153.3520 O   0  0  0  0  0  0  0  0  0  0  0  0
  156.2850  213.1610  152.9290 C   0  0  0  0  0  1  0  0  0  0  0  0
  159.7320  207.3430  155.8860 C   0  0  0  0  0  3  0  0  0  0  0  0
  158.6110  213.1780  151.9970 C   0  0  2  0  0  3  0  0  0  0  0  0
  161.2640  211.3390  156.3370 C   0  0  0  0  0  2  0  0  0  0  0  0
  161.4090  207.7200  152.2240 O   0  0  0  0  0  0  0  0  0  0  0  0
  161.9980  209.1010  152.2940 S   0  0  0  0  0  0  0  0  0  0  0  0
  161.5950  210.1430  149.8280 C   0  0  2  0  0  3  0  0  0  0  0  0
  160.7600  210.2610  152.6210 N   0  0  0  0  0  0  0  0  0  0  0  0
  158.0320  211.6610  157.1990 O   0  0  0  0  0  0  0  0  0  0  0  0
  159.1900  211.5080  153.5610 C   0  0  0  0  0  0  0  0  0  0  0  0
  161.0400  211.4450  150.4120 C   0  0  0  0  0  2  0  0  0  0  0  0
  162.6880  209.5440  150.7130 C   0  0  0  0  0  2  0  0  0  0  0  0
  158.9990  212.2710  156.6700 C   0  0  0  0  0  0  0  0  0  0  0  0
  160.1170  209.5470  154.9380 C   0  0  0  0  0  0  0  0  0  0  0  0
  157.7500  213.3520  153.2740 C   0  0  2  0  0  3  0  0  0  0  0  0
  162.1590  210.4130  148.4500 C   0  0  0  0  0  1  0  0  0  0  0  0
  158.8290  212.9500  155.4310 N   0  0  0  0  0  2  0  0  0  0  0  0
  159.6270  208.2400  154.8200 C   0  0  0  0  0  3  0  0  0  0  0  0
  160.8370  209.0400  157.2060 C   0  0  0  0  0  3  0  0  0  0  0  0
  160.3370  207.7430  157.0780 C   0  0  0  0  0  3  0  0  0  0  0  0
  160.3600  212.1580  157.2600 C   0  0  0  0  0  2  0  0  0  0  0  0
  159.4140  211.9900  152.3340 C   0  0  0  0  0  0  0  0  0  0  0  0
  158.1800  212.2850  154.3140 C   0  0  2  0  0  3  0  0  0  0  0  0
  160.3820  211.2130  151.7400 C   0  0  0  0  0  0  0  0  0  0  0  0
  159.5160  214.3840  151.8320 C   0  0  0  0  0  1  0  0  0  0  0  0
  160.0360  210.4270  153.7570 C   0  0  0  0  0  0  0  0  0  0  0  0
  1  6  1  0  0  0  0
  1 21  1  0  0  0  0
  4 22  1  0  0  0  0
  5 27  1  1  0  0  0
  5 24  1  0  0  0  0
  5 17  1  0  0  0  0
  6 23  1  0  0  0  0
  7  8  2  0  0  0  0
  8 10  1  0  0  0  0
  8  2  2  0  0  0  0
  9 18  1  6  0  0  0
  9 13  1  0  0  0  0
  9 14  1  0  0  0  0
 10 28  1  0  0  0  0
 12 28  2  0  0  0  0
 13 26  1  0  0  0  0
 14  8  1  0  0  0  0
 15 11  2  0  0  0  0
 15 23  1  0  0  0  0
 16  1  2  0  0  0  0
 17  3  1  6  0  0  0
 17 25  1  0  0  0  0
 19 15  1  0  0  0  0
 20 16  1  0  0  0  0
 20  4  2  0  0  0  0
 22 21  2  0  0  0  0
 24 12  1  0  0  0  0
 25 12  1  6  0  0  0
 25 19  1  0  0  0  0
 26 24  2  0  0  0  0
 26 10  1  0  0  0  0
 28 16  1  0  0  0  0
M  END
>  <MODEL>
8

>  <REMARK>
 VINA RESULT:      -0.8      1.513      1.875
  Name = 
  0 active torsions:
  status: ('A' for Active; 'I' for Inactive)
                            x       y       z     vdW  Elec       q    Type
                         _______ _______ _______ _____ _____    ______ ____

>  <TORSDO>
F 0

$$$$
