=
 OpenBabel11122412343D

 30 35  0  0  1  0  0  0  0  0999 V2000
  161.5920  204.4370  147.9250 C   0  0  0  0  0  0  0  0  0  0  0  0
  161.5540  202.3670  146.5460 C   0  0  0  0  0  0  0  0  0  0  0  0
  160.5990  202.3530  151.3260 N   0  0  0  0  0  2  0  0  0  0  0  0
  161.4930  205.0690  149.1910 C   0  0  0  0  0  0  0  0  0  0  0  0
  161.8590  205.2290  146.8030 O   0  0  0  0  0  0  0  0  0  0  0  0
  162.0030  208.7100  148.2360 C   0  0  0  0  0  1  0  0  0  0  0  0
  161.0140  207.1640  151.4810 C   0  0  1  0  0  3  0  0  0  0  0  0
  162.2830  207.2140  148.1050 C   0  0  2  0  0  3  0  0  0  0  0  0
  160.6040  205.9050  152.2340 C   0  0  2  0  0  3  0  0  0  0  0  0
  160.5380  203.4140  152.1590 C   0  0  0  0  0  0  0  0  0  0  0  0
  161.6610  206.6390  146.8270 C   0  0  2  0  0  3  0  0  0  0  0  0
  161.8790  206.4590  149.3050 N   0  0  0  0  0  0  0  0  0  0  0  0
  161.3750  200.9820  146.4690 C   0  0  0  0  0  3  0  0  0  0  0  0
  161.2720  206.0130  153.5900 C   0  0  0  0  0  2  0  0  0  0  0  0
  161.2750  208.2130  152.5490 C   0  0  0  0  0  2  0  0  0  0  0  0
  161.8580  203.0570  145.3780 O   0  0  0  0  0  1  0  0  0  0  0  0
  160.9580  202.9140  150.1590 C   0  0  0  0  0  0  0  0  0  0  0  0
  161.0680  200.2380  147.6080 C   0  0  0  0  0  3  0  0  0  0  0  0
  161.4250  203.0300  147.7900 C   0  0  0  0  0  0  0  0  0  0  0  0
  161.1180  204.2710  150.2950 C   0  0  0  0  0  0  0  0  0  0  0  0
  160.1730  203.3000  153.3600 O   0  0  0  0  0  0  0  0  0  0  0  0
  160.8580  204.6050  151.5860 N   0  0  0  0  0  0  0  0  0  0  0  0
  161.3040  207.4950  153.8910 C   0  0  0  0  0  2  0  0  0  0  0  0
  163.4410  206.3190  151.2250 C   0  0  0  0  0  1  0  0  0  0  0  0
  160.9330  200.8740  148.8400 C   0  0  0  0  0  3  0  0  0  0  0  0
  161.1100  202.2580  148.9400 C   0  0  0  0  0  0  0  0  0  0  0  0
  162.2440  207.0300  150.5950 C   0  0  2  0  0  3  0  0  0  0  0  0
  160.1680  206.9470  146.7290 C   0  0  0  0  0  2  0  0  0  0  0  0
  160.5440  206.1970  144.6890 C   0  0  0  0  0  1  0  0  0  0  0  0
  159.5940  206.1870  145.7100 O   0  0  0  0  0  0  0  0  0  0  0  0
  1  4  1  0  0  0  0
  2 19  1  0  0  0  0
  3 10  1  0  0  0  0
  4 12  1  0  0  0  0
  4 20  2  0  0  0  0
  5 11  1  0  0  0  0
  5  1  1  0  0  0  0
  7  9  1  0  0  0  0
  7 15  1  1  0  0  0
  8  6  1  1  0  0  0
  8 12  1  0  0  0  0
  9 14  1  1  0  0  0
 10 21  2  0  0  0  0
 11 28  1  1  0  0  0
 11  8  1  0  0  0  0
 12 27  1  0  0  0  0
 13  2  2  0  0  0  0
 13 18  1  0  0  0  0
 14 23  1  0  0  0  0
 15 23  1  0  0  0  0
 16  2  1  0  0  0  0
 17 20  1  0  0  0  0
 17  3  1  0  0  0  0
 18 25  2  0  0  0  0
 19  1  2  0  0  0  0
 19 26  1  0  0  0  0
 20 22  1  0  0  0  0
 22 10  1  0  0  0  0
 22  9  1  0  0  0  0
 25 26  1  0  0  0  0
 26 17  2  0  0  0  0
 27 24  1  1  0  0  0
 27  7  1  0  0  0  0
 29 30  1  0  0  0  0
 30 28  1  0  0  0  0
M  END
>  <MODEL>
1

>  <REMARK>
 VINA RESULT:      -6.2      0.000      0.000
  Name = 
  2 active torsions:
  status: ('A' for Active; 'I' for Inactive)
    1  A    between atoms: C_11  and  C_28
    2  A    between atoms: C_28  and  O_30
                            x       y       z     vdW  Elec       q    Type
                         _______ _______ _______ _____ _____    ______ ____

>  <TORSDO>
F 2

$$$$
=
 OpenBabel11122412343D

 30 35  0  0  1  0  0  0  0  0999 V2000
  160.3370  212.0970  152.1400 C   0  0  0  0  0  0  0  0  0  0  0  0
  160.8310  212.9560  149.8580 C   0  0  0  0  0  0  0  0  0  0  0  0
  161.9550  208.4240  151.2530 N   0  0  0  0  0  2  0  0  0  0  0  0
  160.4290  211.0630  153.1070 C   0  0  0  0  0  0  0  0  0  0  0  0
  159.7030  213.2920  152.4990 O   0  0  0  0  0  0  0  0  0  0  0  0
  158.5920  212.6340  156.0370 C   0  0  0  0  0  1  0  0  0  0  0  0
  159.8770  209.1690  155.5500 C   0  0  1  0  0  3  0  0  0  0  0  0
  159.5200  212.6840  154.8250 C   0  0  2  0  0  3  0  0  0  0  0  0
  160.4960  208.1480  154.6060 C   0  0  2  0  0  3  0  0  0  0  0  0
  161.6890  207.8340  152.4380 C   0  0  0  0  0  0  0  0  0  0  0  0
  158.8410  213.3620  153.6290 C   0  0  2  0  0  3  0  0  0  0  0  0
  160.0600  211.3570  154.4750 N   0  0  0  0  0  0  0  0  0  0  0  0
  161.3710  212.7390  148.5870 C   0  0  0  0  0  3  0  0  0  0  0  0
  161.4790  207.3620  155.4500 C   0  0  0  0  0  2  0  0  0  0  0  0
  159.9560  208.5450  156.9340 C   0  0  0  0  0  2  0  0  0  0  0  0
  160.2610  214.1960  150.1280 O   0  0  0  0  0  1  0  0  0  0  0  0
  161.4930  209.6720  151.4340 C   0  0  0  0  0  0  0  0  0  0  0  0
  161.9560  211.5160  148.2610 C   0  0  0  0  0  3  0  0  0  0  0  0
  160.8750  211.9310  150.8330 C   0  0  0  0  0  0  0  0  0  0  0  0
  160.9750  209.8260  152.6960 C   0  0  0  0  0  0  0  0  0  0  0  0
  161.9320  206.6150  152.6470 O   0  0  0  0  0  0  0  0  0  0  0  0
  161.1050  208.6470  153.3580 N   0  0  0  0  0  0  0  0  0  0  0  0
  160.8640  207.3280  156.8320 C   0  0  0  0  0  2  0  0  0  0  0  0
  162.0730  210.5240  155.6560 C   0  0  0  0  0  1  0  0  0  0  0  0
  162.0040  210.4920  149.2050 C   0  0  0  0  0  3  0  0  0  0  0  0
  161.4730  210.6900  150.4840 C   0  0  0  0  0  0  0  0  0  0  0  0
  160.5480  210.5350  155.5740 C   0  0  2  0  0  3  0  0  0  0  0  0
  157.5000  212.7160  153.2900 C   0  0  0  0  0  2  0  0  0  0  0  0
  155.5650  213.4700  154.0320 C   0  0  0  0  0  1  0  0  0  0  0  0
  156.5410  213.7030  153.0640 O   0  0  0  0  0  0  0  0  0  0  0  0
  1  5  1  0  0  0  0
  1  4  1  0  0  0  0
  2 16  1  0  0  0  0
  2 19  1  0  0  0  0
  3 17  1  0  0  0  0
  3 10  1  0  0  0  0
  4 12  1  0  0  0  0
  5 11  1  0  0  0  0
  7 27  1  0  0  0  0
  7 15  1  1  0  0  0
  8  6  1  1  0  0  0
  9 14  1  1  0  0  0
  9  7  1  0  0  0  0
 10 21  2  0  0  0  0
 10 22  1  0  0  0  0
 11 28  1  6  0  0  0
 11  8  1  0  0  0  0
 12  8  1  0  0  0  0
 12 27  1  0  0  0  0
 13  2  2  0  0  0  0
 14 23  1  0  0  0  0
 17 20  1  0  0  0  0
 18 13  1  0  0  0  0
 18 25  2  0  0  0  0
 19  1  2  0  0  0  0
 20  4  2  0  0  0  0
 20 22  1  0  0  0  0
 22  9  1  0  0  0  0
 23 15  1  0  0  0  0
 25 26  1  0  0  0  0
 26 19  1  0  0  0  0
 26 17  2  0  0  0  0
 27 24  1  6  0  0  0
 30 28  1  0  0  0  0
 30 29  1  0  0  0  0
M  END
>  <MODEL>
2

>  <REMARK>
 VINA RESULT:      -6.0      5.337      8.266
  Name = 
  2 active torsions:
  status: ('A' for Active; 'I' for Inactive)
    1  A    between atoms: C_11  and  C_28
    2  A    between atoms: C_28  and  O_30
                            x       y       z     vdW  Elec       q    Type
                         _______ _______ _______ _____ _____    ______ ____

>  <TORSDO>
F 2

$$$$
=
 OpenBabel11122412343D

 30 35  0  0  1  0  0  0  0  0999 V2000
  161.0490  210.6750  151.7270 C   0  0  0  0  0  0  0  0  0  0  0  0
  161.8040  210.9170  149.3690 C   0  0  0  0  0  0  0  0  0  0  0  0
  161.7450  206.6250  151.6750 N   0  0  0  0  0  2  0  0  0  0  0  0
  160.8570  209.8660  152.8760 C   0  0  0  0  0  0  0  0  0  0  0  0
  160.7160  212.0320  151.8040 O   0  0  0  0  0  0  0  0  0  0  0  0
  159.3760  212.3800  155.3070 C   0  0  0  0  0  1  0  0  0  0  0  0
  159.7900  208.6850  155.5820 C   0  0  1  0  0  3  0  0  0  0  0  0
  160.3230  211.9660  154.1820 C   0  0  2  0  0  3  0  0  0  0  0  0
  160.1670  207.3790  154.8980 C   0  0  2  0  0  3  0  0  0  0  0  0
  161.3090  206.3650  152.9260 C   0  0  0  0  0  0  0  0  0  0  0  0
  159.8650  212.5290  152.8320 C   0  0  2  0  0  3  0  0  0  0  0  0
  160.5320  210.5080  154.1310 N   0  0  0  0  0  0  0  0  0  0  0  0
  162.3110  210.3280  148.2060 C   0  0  0  0  0  3  0  0  0  0  0  0
  160.9040  206.5720  155.9490 C   0  0  0  0  0  2  0  0  0  0  0  0
  159.6730  208.3530  157.0610 C   0  0  0  0  0  2  0  0  0  0  0  0
  161.5460  212.2840  149.3550 O   0  0  0  0  0  1  0  0  0  0  0  0
  161.5970  207.9560  151.5820 C   0  0  0  0  0  0  0  0  0  0  0  0
  162.5880  208.9620  148.1630 C   0  0  0  0  0  3  0  0  0  0  0  0
  161.5670  210.1280  150.5190 C   0  0  0  0  0  0  0  0  0  0  0  0
  161.0970  208.4790  152.7490 C   0  0  0  0  0  0  0  0  0  0  0  0
  161.2410  205.1910  153.3800 O   0  0  0  0  0  0  0  0  0  0  0  0
  160.9150  207.4600  153.6290 N   0  0  0  0  0  0  0  0  0  0  0  0
  160.2590  206.9630  157.2610 C   0  0  0  0  0  2  0  0  0  0  0  0
  162.2460  209.4830  155.5990 C   0  0  0  0  0  1  0  0  0  0  0  0
  162.3570  208.1680  149.2840 C   0  0  0  0  0  3  0  0  0  0  0  0
  161.8540  208.7380  150.4580 C   0  0  0  0  0  0  0  0  0  0  0  0
  160.7720  209.8330  155.4000 C   0  0  2  0  0  3  0  0  0  0  0  0
  158.4170  212.1590  152.5180 C   0  0  0  0  0  2  0  0  0  0  0  0
  157.6180  213.4740  150.9390 C   0  0  0  0  0  1  0  0  0  0  0  0
  157.6640  213.3170  152.3240 O   0  0  0  0  0  0  0  0  0  0  0  0
  1  5  1  0  0  0  0
  1  4  1  0  0  0  0
  2 19  1  0  0  0  0
  3 10  1  0  0  0  0
  4 12  1  0  0  0  0
  5 11  1  0  0  0  0
  7 15  1  1  0  0  0
  8  6  1  1  0  0  0
  9  7  1  0  0  0  0
  9 14  1  1  0  0  0
 10 21  2  0  0  0  0
 10 22  1  0  0  0  0
 11 28  1  6  0  0  0
 11  8  1  0  0  0  0
 12  8  1  0  0  0  0
 12 27  1  0  0  0  0
 13  2  2  0  0  0  0
 14 23  1  0  0  0  0
 15 23  1  0  0  0  0
 16  2  1  0  0  0  0
 17  3  1  0  0  0  0
 17 20  1  0  0  0  0
 18 13  1  0  0  0  0
 18 25  2  0  0  0  0
 19  1  2  0  0  0  0
 20  4  2  0  0  0  0
 20 22  1  0  0  0  0
 22  9  1  0  0  0  0
 25 26  1  0  0  0  0
 26 19  1  0  0  0  0
 26 17  2  0  0  0  0
 27  7  1  0  0  0  0
 27 24  1  6  0  0  0
 29 30  1  0  0  0  0
 30 28  1  0  0  0  0
M  END
>  <MODEL>
3

>  <REMARK>
 VINA RESULT:      -5.5      4.498      6.878
  Name = 
  2 active torsions:
  status: ('A' for Active; 'I' for Inactive)
    1  A    between atoms: C_11  and  C_28
    2  A    between atoms: C_28  and  O_30
                            x       y       z     vdW  Elec       q    Type
                         _______ _______ _______ _____ _____    ______ ____

>  <TORSDO>
F 2

$$$$
=
 OpenBabel11122412343D

 30 35  0  0  1  0  0  0  0  0999 V2000
  160.4920  209.1520  153.6900 C   0  0  0  0  0  0  0  0  0  0  0  0
  160.9350  206.7470  154.1480 C   0  0  0  0  0  0  0  0  0  0  0  0
  161.9370  208.8260  149.8550 N   0  0  0  0  0  2  0  0  0  0  0  0
  160.4760  210.2450  152.7860 C   0  0  0  0  0  0  0  0  0  0  0  0
  160.0520  209.3640  155.0010 O   0  0  0  0  0  0  0  0  0  0  0  0
  159.2170  213.0370  155.0320 C   0  0  0  0  0  1  0  0  0  0  0  0
  160.5470  213.1310  151.5500 C   0  0  1  0  0  3  0  0  0  0  0  0
  159.2480  211.5910  154.5420 C   0  0  2  0  0  3  0  0  0  0  0  0
  161.2160  212.3780  150.4090 C   0  0  2  0  0  3  0  0  0  0  0  0
  161.7910  210.1230  149.5120 C   0  0  0  0  0  0  0  0  0  0  0  0
  159.9570  210.6750  155.5470 C   0  0  2  0  0  3  0  0  0  0  0  0
  159.8150  211.4670  153.1870 N   0  0  0  0  0  0  0  0  0  0  0  0
  161.3930  205.5050  153.6960 C   0  0  0  0  0  3  0  0  0  0  0  0
  160.5590  212.8960  149.1450 C   0  0  0  0  0  2  0  0  0  0  0  0
  160.0910  214.4530  150.9560 C   0  0  0  0  0  2  0  0  0  0  0  0
  160.4800  206.8430  155.4590 O   0  0  0  0  0  1  0  0  0  0  0  0
  161.4540  208.7960  151.1090 C   0  0  0  0  0  0  0  0  0  0  0  0
  161.8610  205.3510  152.3920 C   0  0  0  0  0  3  0  0  0  0  0  0
  160.9420  207.8650  153.2800 C   0  0  0  0  0  0  0  0  0  0  0  0
  161.0220  210.0400  151.4990 C   0  0  0  0  0  0  0  0  0  0  0  0
  162.1870  210.5690  148.4020 O   0  0  0  0  0  0  0  0  0  0  0  0
  161.2260  210.9040  150.4710 N   0  0  0  0  0  0  0  0  0  0  0  0
  160.2280  214.3420  149.4450 C   0  0  0  0  0  2  0  0  0  0  0  0
  158.3410  211.8270  151.2260 C   0  0  0  0  0  1  0  0  0  0  0  0
  161.8800  206.4410  151.5240 C   0  0  0  0  0  3  0  0  0  0  0  0
  161.4240  207.6910  151.9560 C   0  0  0  0  0  0  0  0  0  0  0  0
  159.3580  212.4300  152.1930 C   0  0  2  0  0  3  0  0  0  0  0  0
  161.3540  211.1850  155.8980 C   0  0  0  0  0  2  0  0  0  0  0  0
  163.2660  210.6970  156.8830 C   0  0  0  0  0  1  0  0  0  0  0  0
  162.1790  210.1120  156.2350 O   0  0  0  0  0  0  0  0  0  0  0  0
  1  5  1  0  0  0  0
  2 16  1  0  0  0  0
  3 17  1  0  0  0  0
  4 12  1  0  0  0  0
  4  1  2  0  0  0  0
  5 11  1  0  0  0  0
  7 15  1  6  0  0  0
  7 27  1  0  0  0  0
  8  6  1  1  0  0  0
  8 11  1  0  0  0  0
  9 14  1  6  0  0  0
  9 22  1  0  0  0  0
  9  7  1  0  0  0  0
 10  3  1  0  0  0  0
 10 22  1  0  0  0  0
 11 28  1  6  0  0  0
 12  8  1  0  0  0  0
 13  2  1  0  0  0  0
 14 23  1  0  0  0  0
 17 20  2  0  0  0  0
 17 26  1  0  0  0  0
 18 13  2  0  0  0  0
 19  1  1  0  0  0  0
 19  2  2  0  0  0  0
 20  4  1  0  0  0  0
 21 10  2  0  0  0  0
 22 20  1  0  0  0  0
 23 15  1  0  0  0  0
 25 26  2  0  0  0  0
 25 18  1  0  0  0  0
 26 19  1  0  0  0  0
 27 24  1  6  0  0  0
 27 12  1  0  0  0  0
 28 30  1  0  0  0  0
 30 29  1  0  0  0  0
M  END
>  <MODEL>
4

>  <REMARK>
 VINA RESULT:      -4.8      4.465      8.119
  Name = 
  2 active torsions:
  status: ('A' for Active; 'I' for Inactive)
    1  A    between atoms: C_11  and  C_28
    2  A    between atoms: C_28  and  O_30
                            x       y       z     vdW  Elec       q    Type
                         _______ _______ _______ _____ _____    ______ ____

>  <TORSDO>
F 2

$$$$
=
 OpenBabel11122412343D

 30 35  0  0  1  0  0  0  0  0999 V2000
  161.3590  208.3220  152.0200 C   0  0  0  0  0  0  0  0  0  0  0  0
  161.0220  207.3300  154.2770 C   0  0  0  0  0  0  0  0  0  0  0  0
  159.8600  211.9490  153.2430 N   0  0  0  0  0  2  0  0  0  0  0  0
  161.3140  209.4460  151.1560 C   0  0  0  0  0  0  0  0  0  0  0  0
  161.8130  207.1020  151.5060 O   0  0  0  0  0  0  0  0  0  0  0  0
  162.4980  207.9080  147.8910 C   0  0  0  0  0  1  0  0  0  0  0  0
  161.1040  211.2870  148.6220 C   0  0  1  0  0  3  0  0  0  0  0  0
  162.5180  208.0640  149.4100 C   0  0  2  0  0  3  0  0  0  0  0  0
  160.4450  212.2160  149.6330 C   0  0  2  0  0  3  0  0  0  0  0  0
  159.9460  212.5750  152.0500 C   0  0  0  0  0  0  0  0  0  0  0  0
  161.8640  206.8630  150.1030 C   0  0  2  0  0  3  0  0  0  0  0  0
  161.9320  209.3430  149.8520 N   0  0  0  0  0  0  0  0  0  0  0  0
  160.6070  207.4830  155.6040 C   0  0  0  0  0  3  0  0  0  0  0  0
  161.0580  213.5800  149.3860 C   0  0  0  0  0  2  0  0  0  0  0  0
  161.4950  212.1720  147.4490 C   0  0  0  0  0  2  0  0  0  0  0  0
  161.4970  206.0860  153.8760 O   0  0  0  0  0  1  0  0  0  0  0  0
  160.3650  210.7330  152.9750 C   0  0  0  0  0  0  0  0  0  0  0  0
  160.1220  208.7080  156.0610 C   0  0  0  0  0  3  0  0  0  0  0  0
  160.9540  208.4230  153.3810 C   0  0  0  0  0  0  0  0  0  0  0  0
  160.7540  210.6400  151.6610 C   0  0  0  0  0  0  0  0  0  0  0  0
  159.5130  213.7460  151.8760 O   0  0  0  0  0  0  0  0  0  0  0  0
  160.4970  211.8280  151.0550 N   0  0  0  0  0  0  0  0  0  0  0  0
  161.3360  213.6170  147.8980 C   0  0  0  0  0  2  0  0  0  0  0  0
  163.3550  211.3730  149.8860 C   0  0  0  0  0  1  0  0  0  0  0  0
  160.0430  209.7950  155.1930 C   0  0  0  0  0  3  0  0  0  0  0  0
  160.4560  209.6640  153.8630 C   0  0  0  0  0  0  0  0  0  0  0  0
  162.3310  210.5370  149.1180 C   0  0  2  0  0  3  0  0  0  0  0  0
  160.4540  206.5970  149.5790 C   0  0  0  0  0  2  0  0  0  0  0  0
  160.8360  204.4250  149.6300 C   0  0  0  0  0  1  0  0  0  0  0  0
  160.4560  205.4580  148.7730 O   0  0  0  0  0  0  0  0  0  0  0  0
  1 19  1  0  0  0  0
  2 13  1  0  0  0  0
  4 20  1  0  0  0  0
  4  1  2  0  0  0  0
  5  1  1  0  0  0  0
  7 15  1  6  0  0  0
  7 27  1  0  0  0  0
  7  9  1  0  0  0  0
  8  6  1  6  0  0  0
  8 12  1  0  0  0  0
  8 11  1  0  0  0  0
  9 14  1  1  0  0  0
  9 22  1  0  0  0  0
 10  3  1  0  0  0  0
 11 28  1  6  0  0  0
 11  5  1  0  0  0  0
 12  4  1  0  0  0  0
 13 18  2  0  0  0  0
 15 23  1  0  0  0  0
 16  2  1  0  0  0  0
 17  3  1  0  0  0  0
 17 26  1  0  0  0  0
 19 26  1  0  0  0  0
 19  2  2  0  0  0  0
 20 17  2  0  0  0  0
 21 10  2  0  0  0  0
 22 20  1  0  0  0  0
 22 10  1  0  0  0  0
 23 14  1  0  0  0  0
 25 18  1  0  0  0  0
 26 25  2  0  0  0  0
 27 12  1  0  0  0  0
 27 24  1  1  0  0  0
 30 28  1  0  0  0  0
 30 29  1  0  0  0  0
M  END
>  <MODEL>
5

>  <REMARK>
 VINA RESULT:      -4.1      3.645      7.322
  Name = 
  2 active torsions:
  status: ('A' for Active; 'I' for Inactive)
    1  A    between atoms: C_11  and  C_28
    2  A    between atoms: C_28  and  O_30
                            x       y       z     vdW  Elec       q    Type
                         _______ _______ _______ _____ _____    ______ ____

>  <TORSDO>
F 2

$$$$
=
 OpenBabel11122412343D

 30 35  0  0  1  0  0  0  0  0999 V2000
  161.0610  203.9150  150.3320 C   0  0  0  0  0  0  0  0  0  0  0  0
  161.1170  204.4820  152.7540 C   0  0  0  0  0  0  0  0  0  0  0  0
  161.3260  207.8750  149.2620 N   0  0  0  0  0  2  0  0  0  0  0  0
  161.1360  204.3230  148.9750 C   0  0  0  0  0  0  0  0  0  0  0  0
  160.8960  202.5540  150.6110 O   0  0  0  0  0  0  0  0  0  0  0  0
  160.6720  201.0060  147.1850 C   0  0  0  0  0  1  0  0  0  0  0  0
  160.7960  204.4880  145.8580 C   0  0  1  0  0  3  0  0  0  0  0  0
  161.2070  201.8810  148.3160 C   0  0  2  0  0  3  0  0  0  0  0  0
  160.8330  205.9790  146.1620 C   0  0  2  0  0  3  0  0  0  0  0  0
  161.2500  207.6920  147.9260 C   0  0  0  0  0  0  0  0  0  0  0  0
  160.4320  201.6460  149.6180 C   0  0  2  0  0  3  0  0  0  0  0  0
  161.2530  203.3080  147.9510 N   0  0  0  0  0  0  0  0  0  0  0  0
  161.2060  205.4530  153.7560 C   0  0  0  0  0  3  0  0  0  0  0  0
  161.7630  206.5790  145.1270 C   0  0  0  0  0  2  0  0  0  0  0  0
  161.0840  204.3670  144.3710 C   0  0  0  0  0  2  0  0  0  0  0  0
  160.9970  203.1500  153.1380 O   0  0  0  0  0  1  0  0  0  0  0  0
  161.2830  206.6190  149.7350 C   0  0  0  0  0  0  0  0  0  0  0  0
  161.3270  206.8040  153.4290 C   0  0  0  0  0  3  0  0  0  0  0  0
  161.1520  204.8620  151.3910 C   0  0  0  0  0  0  0  0  0  0  0  0
  161.1960  205.7100  148.7090 C   0  0  0  0  0  0  0  0  0  0  0  0
  161.2060  208.6600  147.1210 O   0  0  0  0  0  0  0  0  0  0  0  0
  161.1830  206.3910  147.5350 N   0  0  0  0  0  0  0  0  0  0  0  0
  161.5680  205.7280  143.8910 C   0  0  0  0  0  2  0  0  0  0  0  0
  163.2150  204.1720  146.7060 C   0  0  0  0  0  1  0  0  0  0  0  0
  161.3590  207.1980  152.0930 C   0  0  0  0  0  3  0  0  0  0  0  0
  161.2750  206.2410  151.0760 C   0  0  0  0  0  0  0  0  0  0  0  0
  161.7870  203.6330  146.6350 C   0  0  2  0  0  3  0  0  0  0  0  0
  158.9260  201.8220  149.4270 C   0  0  0  0  0  2  0  0  0  0  0  0
  157.1480  200.7860  148.6360 C   0  0  0  0  0  1  0  0  0  0  0  0
  158.3040  200.5750  149.3870 O   0  0  0  0  0  0  0  0  0  0  0  0
  1  5  1  0  0  0  0
  1 19  1  0  0  0  0
  2 16  1  0  0  0  0
  2 13  1  0  0  0  0
  3 17  1  0  0  0  0
  4  1  2  0  0  0  0
  7 15  1  6  0  0  0
  7  9  1  0  0  0  0
  7 27  1  0  0  0  0
  8  6  1  6  0  0  0
  8 11  1  0  0  0  0
  9 14  1  6  0  0  0
  9 22  1  0  0  0  0
 10  3  1  0  0  0  0
 11 28  1  6  0  0  0
 11  5  1  0  0  0  0
 12  8  1  0  0  0  0
 12  4  1  0  0  0  0
 17 26  1  0  0  0  0
 18 13  2  0  0  0  0
 19  2  2  0  0  0  0
 20  4  1  0  0  0  0
 20 17  2  0  0  0  0
 21 10  2  0  0  0  0
 22 10  1  0  0  0  0
 22 20  1  0  0  0  0
 23 15  1  0  0  0  0
 23 14  1  0  0  0  0
 25 18  1  0  0  0  0
 26 19  1  0  0  0  0
 26 25  2  0  0  0  0
 27 24  1  1  0  0  0
 27 12  1  0  0  0  0
 29 30  1  0  0  0  0
 30 28  1  0  0  0  0
M  END
>  <MODEL>
6

>  <REMARK>
 VINA RESULT:      -4.0      1.976      6.357
  Name = 
  2 active torsions:
  status: ('A' for Active; 'I' for Inactive)
    1  A    between atoms: C_11  and  C_28
    2  A    between atoms: C_28  and  O_30
                            x       y       z     vdW  Elec       q    Type
                         _______ _______ _______ _____ _____    ______ ____

>  <TORSDO>
F 2

$$$$
=
 OpenBabel11122412343D

 30 35  0  0  1  0  0  0  0  0999 V2000
  161.3140  209.6760  151.3510 C   0  0  0  0  0  0  0  0  0  0  0  0
  161.6120  211.8220  150.1280 C   0  0  0  0  0  0  0  0  0  0  0  0
  161.4770  207.5100  147.8610 N   0  0  0  0  0  2  0  0  0  0  0  0
  161.2540  208.2590  151.3430 C   0  0  0  0  0  0  0  0  0  0  0  0
  161.1750  210.3440  152.5730 O   0  0  0  0  0  0  0  0  0  0  0  0
  160.6080  207.5320  155.0150 C   0  0  0  0  0  1  0  0  0  0  0  0
  160.6050  205.2700  152.0510 C   0  0  1  0  0  3  0  0  0  0  0  0
  161.2540  208.3140  153.8730 C   0  0  2  0  0  3  0  0  0  0  0  0
  160.6740  205.1350  150.5370 C   0  0  2  0  0  3  0  0  0  0  0  0
  161.2680  206.2950  148.4100 C   0  0  0  0  0  0  0  0  0  0  0  0
  160.6120  209.6970  153.7100 C   0  0  2  0  0  3  0  0  0  0  0  0
  161.2660  207.5570  152.6080 N   0  0  0  0  0  0  0  0  0  0  0  0
  161.8020  212.4950  148.9170 C   0  0  0  0  0  3  0  0  0  0  0  0
  161.4980  203.8880  150.2810 C   0  0  0  0  0  2  0  0  0  0  0  0
  160.7430  203.8570  152.5940 C   0  0  0  0  0  2  0  0  0  0  0  0
  161.5280  212.5770  151.2930 O   0  0  0  0  0  1  0  0  0  0  0  0
  161.4800  208.3210  148.9320 C   0  0  0  0  0  0  0  0  0  0  0  0
  161.8920  211.7900  147.7170 C   0  0  0  0  0  3  0  0  0  0  0  0
  161.5110  210.4110  150.1480 C   0  0  0  0  0  0  0  0  0  0  0  0
  161.2890  207.6070  150.0900 C   0  0  0  0  0  0  0  0  0  0  0  0
  161.1460  205.2560  147.7070 O   0  0  0  0  0  0  0  0  0  0  0  0
  161.1600  206.2950  149.7660 N   0  0  0  0  0  0  0  0  0  0  0  0
  161.1790  202.9680  151.4390 C   0  0  0  0  0  2  0  0  0  0  0  0
  163.0960  205.9380  152.1890 C   0  0  0  0  0  1  0  0  0  0  0  0
  161.7910  210.4010  147.7160 C   0  0  0  0  0  3  0  0  0  0  0  0
  161.6050  209.7080  148.9170 C   0  0  0  0  0  0  0  0  0  0  0  0
  161.6670  206.1580  152.6830 C   0  0  2  0  0  3  0  0  0  0  0  0
  159.0960  209.6080  153.5490 C   0  0  0  0  0  2  0  0  0  0  0  0
  158.2850  211.4670  154.4140 C   0  0  0  0  0  1  0  0  0  0  0  0
  158.5830  210.8570  153.1970 O   0  0  0  0  0  0  0  0  0  0  0  0
  1  5  1  0  0  0  0
  2 19  1  0  0  0  0
  2 16  1  0  0  0  0
  3 10  1  0  0  0  0
  3 17  1  0  0  0  0
  4  1  1  0  0  0  0
  4 12  1  0  0  0  0
  5 11  1  0  0  0  0
  7 15  1  1  0  0  0
  7 27  1  0  0  0  0
  8  6  1  1  0  0  0
  9 14  1  1  0  0  0
  9  7  1  0  0  0  0
 10 22  1  0  0  0  0
 11 28  1  6  0  0  0
 11  8  1  0  0  0  0
 12 27  1  0  0  0  0
 12  8  1  0  0  0  0
 13  2  2  0  0  0  0
 14 23  1  0  0  0  0
 17 20  1  0  0  0  0
 18 13  1  0  0  0  0
 19  1  2  0  0  0  0
 20  4  2  0  0  0  0
 21 10  2  0  0  0  0
 22 20  1  0  0  0  0
 22  9  1  0  0  0  0
 23 15  1  0  0  0  0
 25 18  2  0  0  0  0
 25 26  1  0  0  0  0
 26 17  2  0  0  0  0
 26 19  1  0  0  0  0
 27 24  1  6  0  0  0
 30 28  1  0  0  0  0
 30 29  1  0  0  0  0
M  END
>  <MODEL>
7

>  <REMARK>
 VINA RESULT:      -3.8      3.173      6.982
  Name = 
  2 active torsions:
  status: ('A' for Active; 'I' for Inactive)
    1  A    between atoms: C_11  and  C_28
    2  A    between atoms: C_28  and  O_30
                            x       y       z     vdW  Elec       q    Type
                         _______ _______ _______ _____ _____    ______ ____

>  <TORSDO>
F 2

$$$$
=
 OpenBabel11122412343D

 30 35  0  0  1  0  0  0  0  0999 V2000
  160.8210  211.0700  153.1770 C   0  0  0  0  0  0  0  0  0  0  0  0
  161.1200  210.4710  155.5730 C   0  0  0  0  0  0  0  0  0  0  0  0
  157.3300  213.0870  153.9780 N   0  0  0  0  0  2  0  0  0  0  0  0
  160.1020  211.7570  152.1650 C   0  0  0  0  0  0  0  0  0  0  0  0
  161.9590  210.3440  152.8100 O   0  0  0  0  0  0  0  0  0  0  0  0
  162.0890  210.7990  149.0730 C   0  0  0  0  0  1  0  0  0  0  0  0
  158.8500  212.6140  149.4160 C   0  0  1  0  0  3  0  0  0  0  0  0
  161.9590  211.1770  150.5470 C   0  0  2  0  0  3  0  0  0  0  0  0
  157.7220  213.0710  150.3320 C   0  0  2  0  0  3  0  0  0  0  0  0
  157.0370  213.4240  152.7040 C   0  0  0  0  0  0  0  0  0  0  0  0
  162.1920  209.9660  151.4570 C   0  0  2  0  0  3  0  0  0  0  0  0
  160.6840  211.8550  150.8450 N   0  0  0  0  0  0  0  0  0  0  0  0
  160.6630  210.5430  156.8920 C   0  0  0  0  0  3  0  0  0  0  0  0
  157.3410  214.4530  149.8420 C   0  0  0  0  0  2  0  0  0  0  0  0
  158.6280  213.3420  148.1010 C   0  0  0  0  0  2  0  0  0  0  0  0
  162.2870  209.7570  155.3200 O   0  0  0  0  0  1  0  0  0  0  0  0
  158.4980  212.4360  153.8490 C   0  0  0  0  0  0  0  0  0  0  0  0
  159.4990  211.2440  157.2050 C   0  0  0  0  0  3  0  0  0  0  0  0
  160.4030  211.1150  154.5370 C   0  0  0  0  0  0  0  0  0  0  0  0
  158.8970  212.3960  152.5360 C   0  0  0  0  0  0  0  0  0  0  0  0
  155.9660  214.0140  152.3980 O   0  0  0  0  0  0  0  0  0  0  0  0
  157.9650  213.0390  151.7870 N   0  0  0  0  0  0  0  0  0  0  0  0
  157.5770  214.4140  148.3480 C   0  0  0  0  0  2  0  0  0  0  0  0
  160.5000  214.2980  150.4700 C   0  0  0  0  0  1  0  0  0  0  0  0
  158.7760  211.8810  156.1980 C   0  0  0  0  0  3  0  0  0  0  0  0
  159.2190  211.8240  154.8720 C   0  0  0  0  0  0  0  0  0  0  0  0
  160.2590  212.8950  149.9170 C   0  0  2  0  0  3  0  0  0  0  0  0
  161.2860  208.7920  151.0910 C   0  0  0  0  0  2  0  0  0  0  0  0
  161.9600  206.8340  151.8490 C   0  0  0  0  0  1  0  0  0  0  0  0
  162.0600  207.6840  150.7480 O   0  0  0  0  0  0  0  0  0  0  0  0
  1 19  1  0  0  0  0
  2 13  1  0  0  0  0
  4 20  1  0  0  0  0
  4  1  2  0  0  0  0
  5  1  1  0  0  0  0
  7 15  1  6  0  0  0
  7 27  1  0  0  0  0
  7  9  1  0  0  0  0
  8  6  1  6  0  0  0
  8 12  1  0  0  0  0
  8 11  1  0  0  0  0
  9 14  1  6  0  0  0
  9 22  1  0  0  0  0
 10  3  1  0  0  0  0
 11 28  1  6  0  0  0
 11  5  1  0  0  0  0
 12  4  1  0  0  0  0
 13 18  2  0  0  0  0
 15 23  1  0  0  0  0
 16  2  1  0  0  0  0
 17  3  1  0  0  0  0
 17 26  1  0  0  0  0
 19 26  1  0  0  0  0
 19  2  2  0  0  0  0
 20 17  2  0  0  0  0
 21 10  2  0  0  0  0
 22 20  1  0  0  0  0
 22 10  1  0  0  0  0
 23 14  1  0  0  0  0
 25 18  1  0  0  0  0
 26 25  2  0  0  0  0
 27 24  1  1  0  0  0
 27 12  1  0  0  0  0
 30 28  1  0  0  0  0
 30 29  1  0  0  0  0
M  END
>  <MODEL>
8

>  <REMARK>
 VINA RESULT:      -3.7      5.683      9.360
  Name = 
  2 active torsions:
  status: ('A' for Active; 'I' for Inactive)
    1  A    between atoms: C_11  and  C_28
    2  A    between atoms: C_28  and  O_30
                            x       y       z     vdW  Elec       q    Type
                         _______ _______ _______ _____ _____    ______ ____

>  <TORSDO>
F 2

$$$$
