=
 OpenBabel11122412423D

 30 35  0  0  1  0  0  0  0  0999 V2000
  161.0710  205.3800  149.7030 C   0  0  0  0  0  0  0  0  0  0  0  0
  160.4760  202.9560  149.6350 C   0  0  0  0  0  0  0  0  0  0  0  0
  161.6080  205.2650  153.8200 O   0  0  0  0  0  0  0  0  0  0  0  0
  161.4130  206.5190  150.4630 C   0  0  0  0  0  0  0  0  0  0  0  0
  160.9440  205.5660  148.2220 C   0  0  0  0  0  2  0  0  0  0  0  0
  163.3830  208.3570  148.2820 O   0  0  0  0  0  1  0  0  0  0  0  0
  160.4170  209.1060  151.5810 C   0  0  1  0  0  3  0  0  0  0  0  0
  162.1050  207.8040  148.3850 C   0  0  1  0  0  3  0  0  0  0  0  0
  160.9240  208.5760  152.9080 C   0  0  2  0  0  3  0  0  0  0  0  0
  162.0390  206.5800  154.1640 C   0  0  2  0  0  3  0  0  0  0  0  0
  162.1040  206.4180  147.7210 C   0  0  2  0  0  3  0  0  0  0  0  0
  161.6840  207.7750  149.7990 N   0  0  0  0  0  0  0  0  0  0  0  0
  160.2800  201.7520  150.3190 C   0  0  0  0  0  3  0  0  0  0  0  0
  161.4970  209.7940  153.5950 C   0  0  0  0  0  2  0  0  0  0  0  0
  160.0420  210.5410  151.9030 C   0  0  0  0  0  2  0  0  0  0  0  0
  160.3060  202.9540  148.2900 F   0  0  0  0  0  0  0  0  0  0  0  0
  161.3610  205.1810  152.4670 C   0  0  0  0  0  0  0  0  0  0  0  0
  160.4420  201.6840  151.7040 C   0  0  0  0  0  3  0  0  0  0  0  0
  160.8400  204.1270  150.3440 C   0  0  0  0  0  0  0  0  0  0  0  0
  161.5380  206.3850  151.8500 C   0  0  0  0  0  0  0  0  0  0  0  0
  161.2230  207.0980  155.3410 C   0  0  0  0  0  1  0  0  0  0  0  0
  161.9420  207.4200  152.8490 C   0  0  1  0  0  3  0  0  0  0  0  0
  160.7910  210.9650  153.0840 N   0  0  0  0  0  2  0  0  0  0  0  0
  162.0670  210.0620  150.1100 O   0  0  0  0  0  0  0  0  0  0  0  0
  160.8010  202.8240  152.4210 C   0  0  0  0  0  3  0  0  0  0  0  0
  160.9970  204.0380  151.7580 C   0  0  0  0  0  0  0  0  0  0  0  0
  161.4370  209.0270  150.4670 C   0  0  0  0  0  0  0  0  0  0  0  0
  162.0330  206.5690  146.2360 C   0  0  0  0  0  3  0  0  0  0  0  0
  161.4010  205.8030  144.0040 C   0  0  0  0  0  1  0  0  0  0  0  0
  161.4620  205.6330  145.4820 C   0  0  0  0  0  3  0  0  0  0  0  0
  1 19  2  0  0  0  0
  1  4  1  0  0  0  0
  2 13  2  0  0  0  0
  2 19  1  0  0  0  0
  3 10  1  0  0  0  0
  4 20  2  0  0  0  0
  5  1  1  0  0  0  0
  7 15  1  1  0  0  0
  7  9  1  0  0  0  0
  8  6  1  1  0  0  0
  8 12  1  0  0  0  0
  9 14  1  6  0  0  0
 10 21  1  1  0  0  0
 11 28  1  6  0  0  0
 11  5  1  0  0  0  0
 11  8  1  0  0  0  0
 12  4  1  0  0  0  0
 12 27  1  0  0  0  0
 13 18  1  0  0  0  0
 15 23  1  0  0  0  0
 16  2  1  0  0  0  0
 17  3  1  0  0  0  0
 18 25  2  0  0  0  0
 19 26  1  0  0  0  0
 20 17  1  0  0  0  0
 22 20  1  6  0  0  0
 22  9  1  0  0  0  0
 22 10  1  0  0  0  0
 23 14  1  0  0  0  0
 24 27  2  0  0  0  0
 26 25  1  0  0  0  0
 26 17  2  0  0  0  0
 27  7  1  0  0  0  0
 29 30  1  0  0  0  0
 30 28  2  0  0  0  0
M  END
>  <MODEL>
1

>  <REMARK>
 VINA RESULT:      -6.8      0.000      0.000
  Name = 
  1 active torsions:
  status: ('A' for Active; 'I' for Inactive)
    1  A    between atoms: C_11  and  C_28
                            x       y       z     vdW  Elec       q    Type
                         _______ _______ _______ _____ _____    ______ ____

>  <TORSDO>
F 1

$$$$
=
 OpenBabel11122412423D

 30 35  0  0  1  0  0  0  0  0999 V2000
  161.1230  207.5160  151.1950 C   0  0  0  0  0  0  0  0  0  0  0  0
  161.1780  205.2350  150.1800 C   0  0  0  0  0  0  0  0  0  0  0  0
  161.1190  205.9460  155.0400 O   0  0  0  0  0  0  0  0  0  0  0  0
  161.0600  208.3220  152.3520 C   0  0  0  0  0  0  0  0  0  0  0  0
  161.1520  208.2250  149.8750 C   0  0  0  0  0  2  0  0  0  0  0  0
  162.7690  211.1870  151.4090 O   0  0  0  0  0  1  0  0  0  0  0  0
  159.2990  210.0520  154.0370 C   0  0  1  0  0  3  0  0  0  0  0  0
  161.6720  210.4060  151.0370 C   0  0  1  0  0  3  0  0  0  0  0  0
  159.7420  209.1620  155.1820 C   0  0  2  0  0  3  0  0  0  0  0  0
  161.1510  207.0860  155.8950 C   0  0  2  0  0  3  0  0  0  0  0  0
  162.1120  209.4050  149.9590 C   0  0  2  0  0  3  0  0  0  0  0  0
  161.0880  209.7630  152.2290 N   0  0  0  0  0  0  0  0  0  0  0  0
  161.2060  203.8480  150.3550 C   0  0  0  0  0  3  0  0  0  0  0  0
  159.8900  210.1110  156.3490 C   0  0  0  0  0  2  0  0  0  0  0  0
  158.5310  211.1580  154.7380 C   0  0  0  0  0  2  0  0  0  0  0  0
  161.1950  205.7140  148.9120 F   0  0  0  0  0  0  0  0  0  0  0  0
  161.0830  206.3380  153.7200 C   0  0  0  0  0  0  0  0  0  0  0  0
  161.1940  203.2900  151.6340 C   0  0  0  0  0  3  0  0  0  0  0  0
  161.1350  206.0940  151.3050 C   0  0  0  0  0  0  0  0  0  0  0  0
  161.0290  207.6960  153.6030 C   0  0  0  0  0  0  0  0  0  0  0  0
  160.0810  206.9530  156.9710 C   0  0  0  0  0  1  0  0  0  0  0  0
  161.0200  208.3290  154.9570 C   0  0  1  0  0  3  0  0  0  0  0  0
  158.9840  211.2330  156.1260 N   0  0  0  0  0  2  0  0  0  0  0  0
  160.8320  211.7870  153.3750 O   0  0  0  0  0  0  0  0  0  0  0  0
  161.1530  204.1170  152.7560 C   0  0  0  0  0  3  0  0  0  0  0  0
  161.1200  205.5050  152.6030 C   0  0  0  0  0  0  0  0  0  0  0  0
  160.4440  210.5960  153.2120 C   0  0  0  0  0  0  0  0  0  0  0  0
  162.2030  210.0930  148.6360 C   0  0  0  0  0  3  0  0  0  0  0  0
  162.0520  212.0630  147.1980 C   0  0  0  0  0  1  0  0  0  0  0  0
  161.9560  211.3960  148.5260 C   0  0  0  0  0  3  0  0  0  0  0  0
  1 19  2  0  0  0  0
  1  4  1  0  0  0  0
  2 13  2  0  0  0  0
  2 19  1  0  0  0  0
  3 10  1  0  0  0  0
  4 20  2  0  0  0  0
  5 11  1  0  0  0  0
  5  1  1  0  0  0  0
  7 15  1  1  0  0  0
  7  9  1  0  0  0  0
  8  6  1  1  0  0  0
  8 12  1  0  0  0  0
  9 14  1  1  0  0  0
 10 21  1  1  0  0  0
 11 28  1  6  0  0  0
 11  8  1  0  0  0  0
 12  4  1  0  0  0  0
 12 27  1  0  0  0  0
 13 18  1  0  0  0  0
 15 23  1  0  0  0  0
 16  2  1  0  0  0  0
 17  3  1  0  0  0  0
 18 25  2  0  0  0  0
 19 26  1  0  0  0  0
 20 17  1  0  0  0  0
 22 20  1  6  0  0  0
 22  9  1  0  0  0  0
 22 10  1  0  0  0  0
 23 14  1  0  0  0  0
 26 25  1  0  0  0  0
 26 17  2  0  0  0  0
 27 24  2  0  0  0  0
 27  7  1  0  0  0  0
 29 30  1  0  0  0  0
 30 28  2  0  0  0  0
M  END
>  <MODEL>
2

>  <REMARK>
 VINA RESULT:      -6.5      2.321      3.279
  Name = 
  1 active torsions:
  status: ('A' for Active; 'I' for Inactive)
    1  A    between atoms: C_11  and  C_28
                            x       y       z     vdW  Elec       q    Type
                         _______ _______ _______ _____ _____    ______ ____

>  <TORSDO>
F 1

$$$$
=
 OpenBabel11122412423D

 30 35  0  0  1  0  0  0  0  0999 V2000
  161.3830  210.5340  150.7110 C   0  0  0  0  0  0  0  0  0  0  0  0
  161.6130  212.3160  148.9780 C   0  0  0  0  0  0  0  0  0  0  0  0
  158.9780  212.9620  153.0720 O   0  0  0  0  0  0  0  0  0  0  0  0
  160.8800  210.1270  151.9660 C   0  0  0  0  0  0  0  0  0  0  0  0
  162.2090  209.5380  149.9560 C   0  0  0  0  0  2  0  0  0  0  0  0
  160.4180  206.7160  151.5600 O   0  0  0  0  0  1  0  0  0  0  0  0
  161.5730  209.5890  154.8230 C   0  0  1  0  0  3  0  0  0  0  0  0
  161.4140  207.6920  151.4870 C   0  0  1  0  0  3  0  0  0  0  0  0
  160.4410  210.5460  155.1410 C   0  0  2  0  0  3  0  0  0  0  0  0
  158.6150  212.1410  154.1810 C   0  0  2  0  0  3  0  0  0  0  0  0
  161.5410  208.1700  150.0320 C   0  0  2  0  0  3  0  0  0  0  0  0
  161.1200  208.7810  152.4370 N   0  0  0  0  0  0  0  0  0  0  0  0
  161.3060  213.6090  148.5420 C   0  0  0  0  0  3  0  0  0  0  0  0
  159.7810  209.9410  156.3590 C   0  0  0  0  0  2  0  0  0  0  0  0
  161.9420  209.0260  156.1840 C   0  0  0  0  0  2  0  0  0  0  0  0
  162.3880  211.5460  148.1750 F   0  0  0  0  0  0  0  0  0  0  0  0
  159.8140  212.2730  152.2200 C   0  0  0  0  0  0  0  0  0  0  0  0
  160.5100  214.4520  149.3180 C   0  0  0  0  0  3  0  0  0  0  0  0
  161.1200  211.8470  150.2190 C   0  0  0  0  0  0  0  0  0  0  0  0
  160.1060  211.0310  152.7020 C   0  0  0  0  0  0  0  0  0  0  0  0
  158.8490  212.9000  155.4810 C   0  0  0  0  0  1  0  0  0  0  0  0
  159.4240  210.8150  154.0140 C   0  0  1  0  0  3  0  0  0  0  0  0
  160.7910  209.1690  157.0750 N   0  0  0  0  0  2  0  0  0  0  0  0
  160.9420  207.3320  154.2660 O   0  0  0  0  0  0  0  0  0  0  0  0
  160.0120  214.0100  150.5430 C   0  0  0  0  0  3  0  0  0  0  0  0
  160.3110  212.7240  150.9990 C   0  0  0  0  0  0  0  0  0  0  0  0
  161.1900  208.4980  153.8480 C   0  0  0  0  0  0  0  0  0  0  0  0
  162.3150  207.1700  149.2360 C   0  0  0  0  0  3  0  0  0  0  0  0
  162.6060  205.6640  147.3350 C   0  0  0  0  0  1  0  0  0  0  0  0
  161.8170  206.6590  148.1130 C   0  0  0  0  0  3  0  0  0  0  0  0
  1  4  1  0  0  0  0
  2 19  1  0  0  0  0
  3 10  1  0  0  0  0
  4 12  1  0  0  0  0
  4 20  2  0  0  0  0
  5 11  1  0  0  0  0
  5  1  1  0  0  0  0
  7  9  1  0  0  0  0
  7 15  1  1  0  0  0
  8  6  1  6  0  0  0
  8 12  1  0  0  0  0
  9 14  1  1  0  0  0
 10 21  1  1  0  0  0
 11 28  1  6  0  0  0
 11  8  1  0  0  0  0
 12 27  1  0  0  0  0
 13  2  2  0  0  0  0
 13 18  1  0  0  0  0
 14 23  1  0  0  0  0
 15 23  1  0  0  0  0
 16  2  1  0  0  0  0
 17 20  1  0  0  0  0
 17  3  1  0  0  0  0
 18 25  2  0  0  0  0
 19  1  2  0  0  0  0
 19 26  1  0  0  0  0
 22 20  1  6  0  0  0
 22 10  1  0  0  0  0
 22  9  1  0  0  0  0
 25 26  1  0  0  0  0
 26 17  2  0  0  0  0
 27 24  2  0  0  0  0
 27  7  1  0  0  0  0
 29 30  1  0  0  0  0
 30 28  2  0  0  0  0
M  END
>  <MODEL>
3

>  <REMARK>
 VINA RESULT:      -6.4      3.295      6.448
  Name = 
  1 active torsions:
  status: ('A' for Active; 'I' for Inactive)
    1  A    between atoms: C_11  and  C_28
                            x       y       z     vdW  Elec       q    Type
                         _______ _______ _______ _____ _____    ______ ____

>  <TORSDO>
F 1

$$$$
=
 OpenBabel11122412423D

 30 35  0  0  1  0  0  0  0  0999 V2000
  160.7870  208.6730  153.3340 C   0  0  0  0  0  0  0  0  0  0  0  0
  160.8420  206.7270  154.8960 C   0  0  0  0  0  0  0  0  0  0  0  0
  159.9330  211.3020  156.4340 O   0  0  0  0  0  0  0  0  0  0  0  0
  160.5760  210.0540  153.1320 C   0  0  0  0  0  0  0  0  0  0  0  0
  161.1210  207.8540  152.1250 C   0  0  0  0  0  2  0  0  0  0  0  0
  162.6640  210.7860  150.4630 O   0  0  0  0  0  1  0  0  0  0  0  0
  158.6810  212.1120  152.0800 C   0  0  1  0  0  3  0  0  0  0  0  0
  161.5950  209.9570  150.8080 C   0  0  1  0  0  3  0  0  0  0  0  0
  158.8260  212.7540  153.4460 C   0  0  2  0  0  3  0  0  0  0  0  0
  159.9000  212.5880  155.8180 C   0  0  2  0  0  3  0  0  0  0  0  0
  162.1440  208.6010  151.2780 C   0  0  2  0  0  3  0  0  0  0  0  0
  160.7460  210.6240  151.8130 N   0  0  0  0  0  0  0  0  0  0  0  0
  160.7210  206.2340  156.2000 C   0  0  0  0  0  3  0  0  0  0  0  0
  158.8320  214.2370  153.1560 C   0  0  0  0  0  2  0  0  0  0  0  0
  157.8900  213.1440  151.2970 C   0  0  0  0  0  2  0  0  0  0  0  0
  161.1360  205.8430  153.9110 F   0  0  0  0  0  0  0  0  0  0  0  0
  160.1780  210.3260  155.4930 C   0  0  0  0  0  0  0  0  0  0  0  0
  160.4240  207.0900  157.2610 C   0  0  0  0  0  3  0  0  0  0  0  0
  160.6600  208.1070  154.6370 C   0  0  0  0  0  0  0  0  0  0  0  0
  160.2590  210.8520  154.2370 C   0  0  0  0  0  0  0  0  0  0  0  0
  158.6390  213.3300  156.2440 C   0  0  0  0  0  1  0  0  0  0  0  0
  160.0500  212.3310  154.2830 C   0  0  1  0  0  3  0  0  0  0  0  0
  158.0800  214.4520  151.9240 N   0  0  0  0  0  2  0  0  0  0  0  0
  160.4490  212.5400  150.5030 O   0  0  0  0  0  0  0  0  0  0  0  0
  160.2420  208.4530  157.0280 C   0  0  0  0  0  3  0  0  0  0  0  0
  160.3540  208.9650  155.7330 C   0  0  0  0  0  0  0  0  0  0  0  0
  160.0010  211.7910  151.4160 C   0  0  0  0  0  0  0  0  0  0  0  0
  162.5380  207.7770  150.0950 C   0  0  0  0  0  3  0  0  0  0  0  0
  162.1910  206.9210  147.8330 C   0  0  0  0  0  1  0  0  0  0  0  0
  161.7810  207.7480  149.0010 C   0  0  0  0  0  3  0  0  0  0  0  0
  1 19  1  0  0  0  0
  2 13  1  0  0  0  0
  4  1  2  0  0  0  0
  4 20  1  0  0  0  0
  5  1  1  0  0  0  0
  7 15  1  6  0  0  0
  7  9  1  0  0  0  0
  8  6  1  1  0  0  0
  8 11  1  0  0  0  0
  8 12  1  0  0  0  0
  9 14  1  6  0  0  0
  9 22  1  0  0  0  0
 10 21  1  6  0  0  0
 10  3  1  0  0  0  0
 11 28  1  6  0  0  0
 11  5  1  0  0  0  0
 12  4  1  0  0  0  0
 13 18  2  0  0  0  0
 15 23  1  0  0  0  0
 16  2  1  0  0  0  0
 17 26  1  0  0  0  0
 17  3  1  0  0  0  0
 19  2  2  0  0  0  0
 19 26  1  0  0  0  0
 20 17  2  0  0  0  0
 22 20  1  1  0  0  0
 22 10  1  0  0  0  0
 23 14  1  0  0  0  0
 24 27  2  0  0  0  0
 25 18  1  0  0  0  0
 26 25  2  0  0  0  0
 27 12  1  0  0  0  0
 27  7  1  0  0  0  0
 29 30  1  0  0  0  0
 30 28  2  0  0  0  0
M  END
>  <MODEL>
4

>  <REMARK>
 VINA RESULT:      -6.0      3.253      5.281
  Name = 
  1 active torsions:
  status: ('A' for Active; 'I' for Inactive)
    1  A    between atoms: C_11  and  C_28
                            x       y       z     vdW  Elec       q    Type
                         _______ _______ _______ _____ _____    ______ ____

>  <TORSDO>
F 1

$$$$
=
 OpenBabel11122412423D

 30 35  0  0  1  0  0  0  0  0999 V2000
  161.5230  209.3690  150.8400 C   0  0  0  0  0  0  0  0  0  0  0  0
  161.9820  211.0210  149.0250 C   0  0  0  0  0  0  0  0  0  0  0  0
  159.4770  212.2040  153.0820 O   0  0  0  0  0  0  0  0  0  0  0  0
  160.9770  209.0910  152.1120 C   0  0  0  0  0  0  0  0  0  0  0  0
  162.2040  208.2360  150.1340 C   0  0  0  0  0  2  0  0  0  0  0  0
  160.0600  205.7570  151.8650 O   0  0  0  0  0  1  0  0  0  0  0  0
  161.6070  208.5990  154.9920 C   0  0  1  0  0  3  0  0  0  0  0  0
  161.1780  206.5870  151.7480 C   0  0  1  0  0  3  0  0  0  0  0  0
  160.6140  209.7130  155.2640 C   0  0  2  0  0  3  0  0  0  0  0  0
  159.0140  211.4920  154.2270 C   0  0  2  0  0  3  0  0  0  0  0  0
  161.3600  206.9760  150.2720 C   0  0  2  0  0  3  0  0  0  0  0  0
  161.0370  207.7480  152.6460 N   0  0  0  0  0  0  0  0  0  0  0  0
  161.8480  212.3220  148.5290 C   0  0  0  0  0  3  0  0  0  0  0  0
  159.8860  209.2600  156.5080 C   0  0  0  0  0  2  0  0  0  0  0  0
  161.9030  208.0550  156.3780 C   0  0  0  0  0  2  0  0  0  0  0  0
  162.6420  210.1170  148.2610 F   0  0  0  0  0  0  0  0  0  0  0  0
  160.2100  211.3710  152.2640 C   0  0  0  0  0  0  0  0  0  0  0  0
  161.1760  213.2990  149.2640 C   0  0  0  0  0  3  0  0  0  0  0  0
  161.4360  210.6800  150.2870 C   0  0  0  0  0  0  0  0  0  0  0  0
  160.3350  210.1240  152.8040 C   0  0  0  0  0  0  0  0  0  0  0  0
  159.3540  212.2720  155.4910 C   0  0  0  0  0  1  0  0  0  0  0  0
  159.6370  210.0620  154.1240 C   0  0  1  0  0  3  0  0  0  0  0  0
  160.7870  208.3930  157.2600 N   0  0  0  0  0  2  0  0  0  0  0  0
  160.6760  206.4240  154.5400 O   0  0  0  0  0  0  0  0  0  0  0  0
  160.6300  212.9860  150.5080 C   0  0  0  0  0  3  0  0  0  0  0  0
  160.7560  211.6930  151.0240 C   0  0  0  0  0  0  0  0  0  0  0  0
  161.0760  207.5250  154.0680 C   0  0  0  0  0  0  0  0  0  0  0  0
  161.9890  205.8450  149.5250 C   0  0  0  0  0  3  0  0  0  0  0  0
  162.0390  204.1910  147.7280 C   0  0  0  0  0  1  0  0  0  0  0  0
  161.3940  205.3170  148.4580 C   0  0  0  0  0  3  0  0  0  0  0  0
  1  4  1  0  0  0  0
  2 19  1  0  0  0  0
  3 10  1  0  0  0  0
  4 12  1  0  0  0  0
  4 20  2  0  0  0  0
  5 11  1  0  0  0  0
  5  1  1  0  0  0  0
  7  9  1  0  0  0  0
  7 15  1  1  0  0  0
  8  6  1  6  0  0  0
  8 12  1  0  0  0  0
  9 14  1  1  0  0  0
 10 21  1  1  0  0  0
 11 28  1  6  0  0  0
 11  8  1  0  0  0  0
 12 27  1  0  0  0  0
 13  2  2  0  0  0  0
 13 18  1  0  0  0  0
 14 23  1  0  0  0  0
 15 23  1  0  0  0  0
 16  2  1  0  0  0  0
 17 20  1  0  0  0  0
 17  3  1  0  0  0  0
 18 25  2  0  0  0  0
 19  1  2  0  0  0  0
 19 26  1  0  0  0  0
 22 20  1  6  0  0  0
 22 10  1  0  0  0  0
 22  9  1  0  0  0  0
 25 26  1  0  0  0  0
 26 17  2  0  0  0  0
 27 24  2  0  0  0  0
 27  7  1  0  0  0  0
 29 30  1  0  0  0  0
 30 28  2  0  0  0  0
M  END
>  <MODEL>
5

>  <REMARK>
 VINA RESULT:      -5.9      2.916      5.920
  Name = 
  1 active torsions:
  status: ('A' for Active; 'I' for Inactive)
    1  A    between atoms: C_11  and  C_28
                            x       y       z     vdW  Elec       q    Type
                         _______ _______ _______ _____ _____    ______ ____

>  <TORSDO>
F 1

$$$$
=
 OpenBabel11122412423D

 30 35  0  0  1  0  0  0  0  0999 V2000
  161.2060  208.7230  151.3920 C   0  0  0  0  0  0  0  0  0  0  0  0
  161.0630  211.1630  150.8840 C   0  0  0  0  0  0  0  0  0  0  0  0
  162.5580  207.8730  147.5570 O   0  0  0  0  0  0  0  0  0  0  0  0
  161.4780  207.4110  150.9480 C   0  0  0  0  0  0  0  0  0  0  0  0
  160.7580  208.8790  152.8130 C   0  0  0  0  0  2  0  0  0  0  0  0
  162.6080  205.8280  153.8180 O   0  0  0  0  0  1  0  0  0  0  0  0
  160.2660  204.8090  150.1150 C   0  0  1  0  0  3  0  0  0  0  0  0
  161.4990  206.5190  153.3250 C   0  0  1  0  0  3  0  0  0  0  0  0
  161.1130  204.9640  148.8660 C   0  0  2  0  0  3  0  0  0  0  0  0
  162.8000  206.4680  147.5640 C   0  0  2  0  0  3  0  0  0  0  0  0
  161.6210  208.0010  153.7120 C   0  0  2  0  0  3  0  0  0  0  0  0
  161.3780  206.3020  151.8720 N   0  0  0  0  0  0  0  0  0  0  0  0
  161.2290  212.2070  149.9680 C   0  0  0  0  0  3  0  0  0  0  0  0
  161.5780  203.5600  148.5610 C   0  0  0  0  0  2  0  0  0  0  0  0
  159.7060  203.4050  149.9780 C   0  0  0  0  0  2  0  0  0  0  0  0
  160.6340  211.4780  152.1310 F   0  0  0  0  0  0  0  0  0  0  0  0
  162.0670  208.2800  148.7790 C   0  0  0  0  0  0  0  0  0  0  0  0
  161.6710  211.9520  148.6690 C   0  0  0  0  0  3  0  0  0  0  0  0
  161.3390  209.8280  150.5000 C   0  0  0  0  0  0  0  0  0  0  0  0
  161.8960  207.2240  149.6260 C   0  0  0  0  0  0  0  0  0  0  0  0
  162.1510  205.8280  146.3430 C   0  0  0  0  0  1  0  0  0  0  0  0
  162.2940  205.9520  148.9500 C   0  0  1  0  0  3  0  0  0  0  0  0
  160.5840  202.6360  149.0970 N   0  0  0  0  0  2  0  0  0  0  0  0
  161.3900  203.9710  152.0730 O   0  0  0  0  0  0  0  0  0  0  0  0
  161.9500  210.6460  148.2700 C   0  0  0  0  0  3  0  0  0  0  0  0
  161.7860  209.5880  149.1680 C   0  0  0  0  0  0  0  0  0  0  0  0
  161.0430  204.9820  151.4010 C   0  0  0  0  0  0  0  0  0  0  0  0
  161.2310  208.1850  155.1430 C   0  0  0  0  0  3  0  0  0  0  0  0
  160.0810  207.4960  157.1850 C   0  0  0  0  0  1  0  0  0  0  0  0
  160.4580  207.2940  155.7590 C   0  0  0  0  0  3  0  0  0  0  0  0
  1  5  1  0  0  0  0
  2 16  1  0  0  0  0
  3 10  1  0  0  0  0
  3 17  1  0  0  0  0
  4  1  1  0  0  0  0
  4 12  1  0  0  0  0
  5 11  1  0  0  0  0
  7 15  1  1  0  0  0
  7 27  1  0  0  0  0
  8 11  1  0  0  0  0
  8  6  1  6  0  0  0
  9 14  1  1  0  0  0
  9 22  1  0  0  0  0
  9  7  1  0  0  0  0
 10 21  1  6  0  0  0
 10 22  1  0  0  0  0
 11 28  1  1  0  0  0
 12  8  1  0  0  0  0
 13  2  2  0  0  0  0
 14 23  1  0  0  0  0
 17 26  2  0  0  0  0
 17 20  1  0  0  0  0
 18 13  1  0  0  0  0
 19  2  1  0  0  0  0
 19  1  2  0  0  0  0
 20  4  2  0  0  0  0
 22 20  1  1  0  0  0
 23 15  1  0  0  0  0
 25 18  2  0  0  0  0
 25 26  1  0  0  0  0
 26 19  1  0  0  0  0
 27 12  1  0  0  0  0
 27 24  2  0  0  0  0
 28 30  2  0  0  0  0
 30 29  1  0  0  0  0
M  END
>  <MODEL>
6

>  <REMARK>
 VINA RESULT:      -5.5      2.480      7.292
  Name = 
  1 active torsions:
  status: ('A' for Active; 'I' for Inactive)
    1  A    between atoms: C_11  and  C_28
                            x       y       z     vdW  Elec       q    Type
                         _______ _______ _______ _____ _____    ______ ____

>  <TORSDO>
F 1

$$$$
=
 OpenBabel11122412423D

 30 35  0  0  1  0  0  0  0  0999 V2000
  161.5560  209.8570  151.0430 C   0  0  0  0  0  0  0  0  0  0  0  0
  162.0430  210.5860  148.7050 C   0  0  0  0  0  0  0  0  0  0  0  0
  159.4820  213.3660  151.8420 O   0  0  0  0  0  0  0  0  0  0  0  0
  160.9910  210.1430  152.3050 C   0  0  0  0  0  0  0  0  0  0  0  0
  162.2460  208.5360  150.8930 C   0  0  0  0  0  2  0  0  0  0  0  0
  160.0740  207.0150  153.4840 O   0  0  0  0  0  1  0  0  0  0  0  0
  161.5790  210.9220  155.1300 C   0  0  1  0  0  3  0  0  0  0  0  0
  161.1940  207.7220  153.0410 C   0  0  1  0  0  3  0  0  0  0  0  0
  160.5840  212.0410  154.8900 C   0  0  2  0  0  3  0  0  0  0  0  0
  159.0010  213.2050  153.1750 C   0  0  2  0  0  3  0  0  0  0  0  0
  161.3980  207.4490  151.5430 C   0  0  2  0  0  3  0  0  0  0  0  0
  161.0420  209.1540  153.3590 N   0  0  0  0  0  0  0  0  0  0  0  0
  161.9180  211.5520  147.7020 C   0  0  0  0  0  3  0  0  0  0  0  0
  159.8370  212.1550  156.1990 C   0  0  0  0  0  2  0  0  0  0  0  0
  161.8550  211.0200  156.6190 C   0  0  0  0  0  2  0  0  0  0  0  0
  162.7140  209.4460  148.4060 F   0  0  0  0  0  0  0  0  0  0  0  0
  160.2250  212.2680  151.4650 C   0  0  0  0  0  0  0  0  0  0  0  0
  161.2370  212.7460  147.9430 C   0  0  0  0  0  3  0  0  0  0  0  0
  161.4790  210.8100  149.9850 C   0  0  0  0  0  0  0  0  0  0  0  0
  160.3410  211.3690  152.4850 C   0  0  0  0  0  0  0  0  0  0  0  0
  159.3240  214.4490  153.9920 C   0  0  0  0  0  1  0  0  0  0  0  0
  159.6240  211.8700  153.6960 C   0  0  1  0  0  3  0  0  0  0  0  0
  160.7260  211.6940  157.2600 N   0  0  0  0  0  2  0  0  0  0  0  0
  160.6520  208.7570  155.6310 O   0  0  0  0  0  0  0  0  0  0  0  0
  160.6730  212.9870  149.1950 C   0  0  0  0  0  3  0  0  0  0  0  0
  160.7900  212.0370  150.2130 C   0  0  0  0  0  0  0  0  0  0  0  0
  161.0600  209.5550  154.7420 C   0  0  0  0  0  0  0  0  0  0  0  0
  162.0370  206.1110  151.3540 C   0  0  0  0  0  3  0  0  0  0  0  0
  161.9700  203.6720  151.2200 C   0  0  0  0  0  1  0  0  0  0  0  0
  161.3130  204.9950  151.4110 C   0  0  0  0  0  3  0  0  0  0  0  0
  1  4  1  0  0  0  0
  2 19  1  0  0  0  0
  3 10  1  0  0  0  0
  4 20  2  0  0  0  0
  4 12  1  0  0  0  0
  5  1  1  0  0  0  0
  5 11  1  0  0  0  0
  7 15  1  1  0  0  0
  8 12  1  0  0  0  0
  8  6  1  6  0  0  0
  9  7  1  0  0  0  0
  9 14  1  1  0  0  0
 10 22  1  0  0  0  0
 10 21  1  1  0  0  0
 11 28  1  1  0  0  0
 11  8  1  0  0  0  0
 12 27  1  0  0  0  0
 13 18  1  0  0  0  0
 13  2  2  0  0  0  0
 14 23  1  0  0  0  0
 15 23  1  0  0  0  0
 16  2  1  0  0  0  0
 17  3  1  0  0  0  0
 17 20  1  0  0  0  0
 18 25  2  0  0  0  0
 19 26  1  0  0  0  0
 19  1  2  0  0  0  0
 22 20  1  6  0  0  0
 22  9  1  0  0  0  0
 25 26  1  0  0  0  0
 26 17  2  0  0  0  0
 27  7  1  0  0  0  0
 27 24  2  0  0  0  0
 28 30  2  0  0  0  0
 29 30  1  0  0  0  0
M  END
>  <MODEL>
7

>  <REMARK>
 VINA RESULT:      -5.2      3.235      6.542
  Name = 
  1 active torsions:
  status: ('A' for Active; 'I' for Inactive)
    1  A    between atoms: C_11  and  C_28
                            x       y       z     vdW  Elec       q    Type
                         _______ _______ _______ _____ _____    ______ ____

>  <TORSDO>
F 1

$$$$
=
 OpenBabel11122412423D

 30 35  0  0  1  0  0  0  0  0999 V2000
  161.8600  207.9390  150.7820 C   0  0  0  0  0  0  0  0  0  0  0  0
  161.8490  208.2990  153.2530 C   0  0  0  0  0  0  0  0  0  0  0  0
  160.2790  204.1210  151.2010 O   0  0  0  0  0  0  0  0  0  0  0  0
  161.6210  207.0840  149.6850 C   0  0  0  0  0  0  0  0  0  0  0  0
  162.4020  209.3020  150.4740 C   0  0  0  0  0  2  0  0  0  0  0  0
  160.7780  209.2840  147.1420 O   0  0  0  0  0  1  0  0  0  0  0  0
  162.8930  205.3420  147.6150 C   0  0  1  0  0  3  0  0  0  0  0  0
  161.8140  209.0050  148.0360 C   0  0  1  0  0  3  0  0  0  0  0  0
  161.9520  204.2700  148.1290 C   0  0  2  0  0  3  0  0  0  0  0  0
  160.1050  203.6540  149.8650 C   0  0  2  0  0  3  0  0  0  0  0  0
  161.6490  209.8850  149.2840 C   0  0  2  0  0  3  0  0  0  0  0  0
  161.8410  207.5610  148.3370 N   0  0  0  0  0  0  0  0  0  0  0  0
  161.5670  207.8100  154.5320 C   0  0  0  0  0  3  0  0  0  0  0  0
  161.5340  203.5220  146.8840 C   0  0  0  0  0  2  0  0  0  0  0  0
  163.5090  204.7010  146.3850 C   0  0  0  0  0  2  0  0  0  0  0  0
  162.3510  209.5540  153.1520 F   0  0  0  0  0  0  0  0  0  0  0  0
  160.8360  205.3820  151.1990 C   0  0  0  0  0  0  0  0  0  0  0  0
  161.0460  206.5270  154.7060 C   0  0  0  0  0  3  0  0  0  0  0  0
  161.6100  207.4930  152.1130 C   0  0  0  0  0  0  0  0  0  0  0  0
  161.1180  205.8020  149.9320 C   0  0  0  0  0  0  0  0  0  0  0  0
  160.6940  202.2560  149.7280 C   0  0  0  0  0  1  0  0  0  0  0  0
  160.7340  204.7490  148.9430 C   0  0  1  0  0  3  0  0  0  0  0  0
  162.6080  203.6550  145.9040 N   0  0  0  0  0  2  0  0  0  0  0  0
  161.9550  206.9450  146.0830 O   0  0  0  0  0  0  0  0  0  0  0  0
  160.8020  205.7170  153.5980 C   0  0  0  0  0  3  0  0  0  0  0  0
  161.0810  206.1840  152.3120 C   0  0  0  0  0  0  0  0  0  0  0  0
  162.2040  206.6470  147.2840 C   0  0  0  0  0  0  0  0  0  0  0  0
  162.1320  211.2690  148.9940 C   0  0  0  0  0  3  0  0  0  0  0  0
  161.7720  213.6420  148.5320 C   0  0  0  0  0  1  0  0  0  0  0  0
  161.2710  212.2690  148.8190 C   0  0  0  0  0  3  0  0  0  0  0  0
  1 19  1  0  0  0  0
  2 13  1  0  0  0  0
  4 20  1  0  0  0  0
  4  1  2  0  0  0  0
  5  1  1  0  0  0  0
  7 15  1  6  0  0  0
  7  9  1  0  0  0  0
  8  6  1  6  0  0  0
  8 12  1  0  0  0  0
  8 11  1  0  0  0  0
  9 14  1  6  0  0  0
  9 22  1  0  0  0  0
 10 21  1  1  0  0  0
 10  3  1  0  0  0  0
 11 28  1  6  0  0  0
 11  5  1  0  0  0  0
 12  4  1  0  0  0  0
 13 18  2  0  0  0  0
 16  2  1  0  0  0  0
 17  3  1  0  0  0  0
 17 26  1  0  0  0  0
 19 26  1  0  0  0  0
 19  2  2  0  0  0  0
 20 17  2  0  0  0  0
 22 10  1  0  0  0  0
 22 20  1  1  0  0  0
 23 15  1  0  0  0  0
 23 14  1  0  0  0  0
 24 27  2  0  0  0  0
 25 18  1  0  0  0  0
 26 25  2  0  0  0  0
 27  7  1  0  0  0  0
 27 12  1  0  0  0  0
 29 30  1  0  0  0  0
 30 28  2  0  0  0  0
M  END
>  <MODEL>
8

>  <REMARK>
 VINA RESULT:      -4.9      2.669      5.699
  Name = 
  1 active torsions:
  status: ('A' for Active; 'I' for Inactive)
    1  A    between atoms: C_11  and  C_28
                            x       y       z     vdW  Elec       q    Type
                         _______ _______ _______ _____ _____    ______ ____

>  <TORSDO>
F 1

$$$$
=
 OpenBabel11122412423D

 30 35  0  0  1  0  0  0  0  0999 V2000
  160.8310  209.7830  151.8990 C   0  0  0  0  0  0  0  0  0  0  0  0
  160.5970  212.1550  151.1560 C   0  0  0  0  0  0  0  0  0  0  0  0
  162.5750  208.6910  148.2900 O   0  0  0  0  0  0  0  0  0  0  0  0
  161.2160  208.4570  151.6040 C   0  0  0  0  0  0  0  0  0  0  0  0
  160.2470  210.0330  153.2550 C   0  0  0  0  0  2  0  0  0  0  0  0
  162.1660  207.2070  154.6940 O   0  0  0  0  0  1  0  0  0  0  0  0
  160.2350  205.7200  150.9130 C   0  0  1  0  0  3  0  0  0  0  0  0
  161.0690  207.7800  154.0460 C   0  0  1  0  0  3  0  0  0  0  0  0
  161.1830  205.8200  149.7340 C   0  0  2  0  0  3  0  0  0  0  0  0
  162.8950  207.3100  148.4480 C   0  0  2  0  0  3  0  0  0  0  0  0
  161.0710  209.2950  154.3030 C   0  0  2  0  0  3  0  0  0  0  0  0
  161.0940  207.4290  152.6140 N   0  0  0  0  0  0  0  0  0  0  0  0
  160.7880  213.1240  150.1660 C   0  0  0  0  0  3  0  0  0  0  0  0
  161.7520  204.4270  149.6010 C   0  0  0  0  0  2  0  0  0  0  0  0
  159.7700  204.2760  150.8590 C   0  0  0  0  0  2  0  0  0  0  0  0
  160.0390  212.5500  152.3270 F   0  0  0  0  0  0  0  0  0  0  0  0
  161.9520  209.1700  149.4230 C   0  0  0  0  0  0  0  0  0  0  0  0
  161.3610  212.7860  148.9390 C   0  0  0  0  0  3  0  0  0  0  0  0
  160.9830  210.8130  150.9240 C   0  0  0  0  0  0  0  0  0  0  0  0
  161.7640  208.1840  150.3450 C   0  0  0  0  0  0  0  0  0  0  0  0
  162.3980  206.5260  147.2400 C   0  0  0  0  0  1  0  0  0  0  0  0
  162.2930  206.8860  149.8270 C   0  0  1  0  0  3  0  0  0  0  0  0
  160.7670  203.4910  150.1320 N   0  0  0  0  0  2  0  0  0  0  0  0
  161.2200  205.1300  153.0300 O   0  0  0  0  0  0  0  0  0  0  0  0
  161.7490  211.4700  148.6890 C   0  0  0  0  0  3  0  0  0  0  0  0
  161.5630  210.4860  149.6630 C   0  0  0  0  0  0  0  0  0  0  0  0
  160.8790  206.0550  152.2400 C   0  0  0  0  0  0  0  0  0  0  0  0
  160.5420  209.5770  155.6710 C   0  0  0  0  0  3  0  0  0  0  0  0
  159.1730  210.8400  157.2520 C   0  0  0  0  0  1  0  0  0  0  0  0
  159.6880  210.5760  155.8800 C   0  0  0  0  0  3  0  0  0  0  0  0
  1  5  1  0  0  0  0
  2 16  1  0  0  0  0
  3 10  1  0  0  0  0
  3 17  1  0  0  0  0
  4  1  1  0  0  0  0
  4 12  1  0  0  0  0
  5 11  1  0  0  0  0
  7 15  1  1  0  0  0
  7 27  1  0  0  0  0
  8 11  1  0  0  0  0
  8  6  1  1  0  0  0
  9 14  1  1  0  0  0
  9 22  1  0  0  0  0
  9  7  1  0  0  0  0
 10 21  1  6  0  0  0
 10 22  1  0  0  0  0
 11 28  1  1  0  0  0
 12  8  1  0  0  0  0
 13  2  2  0  0  0  0
 14 23  1  0  0  0  0
 17 26  2  0  0  0  0
 17 20  1  0  0  0  0
 18 13  1  0  0  0  0
 19  2  1  0  0  0  0
 19  1  2  0  0  0  0
 20  4  2  0  0  0  0
 22 20  1  6  0  0  0
 23 15  1  0  0  0  0
 25 18  2  0  0  0  0
 25 26  1  0  0  0  0
 26 19  1  0  0  0  0
 27 12  1  0  0  0  0
 27 24  2  0  0  0  0
 28 30  2  0  0  0  0
 30 29  1  0  0  0  0
M  END
>  <MODEL>
9

>  <REMARK>
 VINA RESULT:      -4.8      2.811      7.535
  Name = 
  1 active torsions:
  status: ('A' for Active; 'I' for Inactive)
    1  A    between atoms: C_11  and  C_28
                            x       y       z     vdW  Elec       q    Type
                         _______ _______ _______ _____ _____    ______ ____

>  <TORSDO>
F 1

$$$$
