=
 OpenBabel11122414203D

 34 40  0  0  1  0  0  0  0  0999 V2000
  160.9550  207.1740  154.3550 C   0  0  0  0  0  0  0  0  0  0  0  0
  161.1030  205.0230  153.0780 C   0  0  0  0  0  2  0  0  0  0  0  0
  158.0870  213.0770  154.0180 C   0  0  1  0  0  3  0  0  0  0  0  0
  159.8900  209.2450  155.0480 C   0  0  0  0  0  0  0  0  0  0  0  0
  159.9140  211.2770  153.4610 C   0  0  2  0  0  3  0  0  0  0  0  0
  159.8280  213.4700  152.2410 C   0  0  0  0  0  1  0  0  0  0  0  0
  157.1000  212.1970  154.4290 F   0  0  0  0  0  0  0  0  0  0  0  0
  160.0730  213.0340  155.6800 C   0  0  0  0  0  2  0  0  0  0  0  0
  162.1130  206.9790  152.0440 C   0  0  2  0  0  3  0  0  0  0  0  0
  161.8540  206.9620  148.8410 C   0  0  0  0  0  2  0  0  0  0  0  0
  159.9980  210.2160  152.3760 C   0  0  0  0  0  2  0  0  0  0  0  0
  159.8980  211.5510  156.0090 C   0  0  0  0  0  2  0  0  0  0  0  0
  161.1920  208.1490  151.6360 C   0  0  1  0  0  3  0  0  0  0  0  0
  161.8050  204.5450  151.8320 C   0  0  0  0  0  2  0  0  0  0  0  0
  159.4680  210.6790  154.8160 C   0  0  2  0  0  3  0  0  0  0  0  0
  158.7810  213.7160  155.2310 C   0  0  0  0  0  2  0  0  0  0  0  0
  161.2800  205.9240  149.7900 C   0  0  2  0  0  3  0  0  0  0  0  0
  160.5870  208.5010  154.0670 C   0  0  0  0  0  0  0  0  0  0  0  0
  159.0070  212.4220  152.9700 C   0  0  2  0  0  3  0  0  0  0  0  0
  161.0160  209.1540  152.7780 C   0  0  2  0  0  3  0  0  0  0  0  0
  159.8840  207.3680  156.5110 C   0  0  0  0  0  3  0  0  0  0  0  0
  161.2790  208.3350  149.1370 C   0  0  0  0  0  2  0  0  0  0  0  0
  159.5440  208.6490  156.2230 N   0  0  0  0  0  0  0  0  0  0  0  0
  161.8150  208.8790  150.4490 C   0  0  0  0  0  2  0  0  0  0  0  0
  162.1680  205.7970  151.0420 C   0  0  1  0  0  3  0  0  0  0  0  0
  160.6050  206.6160  155.5880 C   0  0  0  0  0  3  0  0  0  0  0  0
  161.7650  206.3440  153.3960 C   0  0  1  0  0  3  0  0  0  0  0  0
  161.2110  204.7000  149.1160 O   0  0  0  0  0  0  0  0  0  0  0  0
  161.5750  204.9980  147.8000 C   0  0  0  0  0  2  0  0  0  0  0  0
  160.6840  201.6290  146.7920 C   0  0  0  0  0  2  0  0  0  0  0  0
  161.1650  203.7350  145.7550 N   0  0  0  0  0  2  0  0  0  0  0  0
  161.8480  203.7140  147.0390 C   0  0  2  0  0  3  0  0  0  0  0  0
  160.8410  202.3470  145.4690 C   0  0  0  0  0  2  0  0  0  0  0  0
  161.3200  202.5320  147.8190 C   0  0  0  0  0  2  0  0  0  0  0  0
  1 26  1  0  0  0  0
  2 27  1  0  0  0  0
  3  7  1  1  0  0  0
  3 16  1  0  0  0  0
  4 23  2  0  0  0  0
  5 11  1  6  0  0  0
  5 15  1  0  0  0  0
  6 19  1  0  0  0  0
  8 12  1  0  0  0  0
  9 27  1  0  0  0  0
 10 22  1  0  0  0  0
 10 17  1  0  0  0  0
 11 20  1  0  0  0  0
 13  9  1  0  0  0  0
 13 20  1  0  0  0  0
 14  2  1  0  0  0  0
 15  4  1  0  0  0  0
 15 12  1  0  0  0  0
 16  8  1  0  0  0  0
 17 25  1  0  0  0  0
 18  1  2  0  0  0  0
 18  4  1  0  0  0  0
 19  5  1  0  0  0  0
 19  3  1  0  0  0  0
 20 18  1  0  0  0  0
 22 24  1  0  0  0  0
 23 21  1  0  0  0  0
 24 13  1  0  0  0  0
 25 14  1  0  0  0  0
 25  9  1  0  0  0  0
 26 21  2  0  0  0  0
 27  1  1  0  0  0  0
 28 17  1  0  0  0  0
 29 28  1  0  0  0  0
 30 34  1  0  0  0  0
 31 32  1  0  0  0  0
 32 29  1  0  0  0  0
 32 34  1  0  0  0  0
 33 31  1  0  0  0  0
 33 30  1  0  0  0  0
M  END
>  <MODEL>
1

>  <REMARK>
 VINA RESULT:      -9.8      0.000      0.000
  Name = 
  3 active torsions:
  status: ('A' for Active; 'I' for Inactive)
    1  A    between atoms: C_17  and  O_28
    2  A    between atoms: O_28  and  C_29
    3  A    between atoms: C_29  and  C_32
                            x       y       z     vdW  Elec       q    Type
                         _______ _______ _______ _____ _____    ______ ____

>  <TORSDO>
F 3

$$$$
=
 OpenBabel11122414203D

 34 40  0  0  1  0  0  0  0  0999 V2000
  161.4110  208.1170  149.4160 C   0  0  0  0  0  0  0  0  0  0  0  0
  162.1040  206.3240  147.8080 C   0  0  0  0  0  2  0  0  0  0  0  0
  161.8700  209.6590  155.7870 C   0  0  1  0  0  3  0  0  0  0  0  0
  161.6100  209.4430  151.4420 C   0  0  0  0  0  0  0  0  0  0  0  0
  160.8610  208.4380  153.6950 C   0  0  2  0  0  3  0  0  0  0  0  0
  160.1450  207.8390  156.0270 C   0  0  0  0  0  1  0  0  0  0  0  0
  163.1060  209.9500  155.2350 F   0  0  0  0  0  0  0  0  0  0  0  0
  160.0100  210.9940  154.5770 C   0  0  0  0  0  2  0  0  0  0  0  0
  160.4580  205.7070  149.4880 C   0  0  2  0  0  3  0  0  0  0  0  0
  160.7700  202.6640  150.4720 C   0  0  0  0  0  2  0  0  0  0  0  0
  161.2020  207.1160  153.0270 C   0  0  0  0  0  2  0  0  0  0  0  0
  160.7210  210.9520  153.2230 C   0  0  0  0  0  2  0  0  0  0  0  0
  160.8830  205.7300  150.9710 C   0  0  1  0  0  3  0  0  0  0  0  0
  161.6580  204.9210  147.4870 C   0  0  0  0  0  2  0  0  0  0  0  0
  161.4700  209.6390  152.9350 C   0  0  2  0  0  3  0  0  0  0  0  0
  160.9630  210.8980  155.7680 C   0  0  0  0  0  2  0  0  0  0  0  0
  161.6720  203.3800  149.4800 C   0  0  2  0  0  3  0  0  0  0  0  0
  161.2630  208.2260  150.8110 C   0  0  0  0  0  0  0  0  0  0  0  0
  161.2830  208.3720  155.1750 C   0  0  2  0  0  3  0  0  0  0  0  0
  160.6470  207.1040  151.6060 C   0  0  2  0  0  3  0  0  0  0  0  0
  162.2880  210.3660  149.3560 C   0  0  0  0  0  3  0  0  0  0  0  0
  160.7840  203.3700  151.8150 C   0  0  0  0  0  2  0  0  0  0  0  0
  162.1300  210.4600  150.7000 N   0  0  0  0  0  0  0  0  0  0  0  0
  160.0570  204.7010  151.7390 C   0  0  0  0  0  2  0  0  0  0  0  0
  160.8690  204.4370  148.6980 C   0  0  1  0  0  3  0  0  0  0  0  0
  161.9200  209.2000  148.6920 C   0  0  0  0  0  3  0  0  0  0  0  0
  160.9900  206.8840  148.6610 C   0  0  1  0  0  3  0  0  0  0  0  0
  162.2060  202.4290  148.6050 O   0  0  0  0  0  0  0  0  0  0  0  0
  161.1050  201.6900  148.1660 C   0  0  0  0  0  2  0  0  0  0  0  0
  160.4900  199.5650  145.2910 C   0  0  0  0  0  2  0  0  0  0  0  0
  160.1250  201.8440  145.9390 N   0  0  0  0  0  2  0  0  0  0  0  0
  161.2660  201.3510  146.6960 C   0  0  2  0  0  3  0  0  0  0  0  0
  159.9640  200.9100  144.8360 C   0  0  0  0  0  2  0  0  0  0  0  0
  161.3200  199.8510  146.5180 C   0  0  0  0  0  2  0  0  0  0  0  0
  1 18  1  0  0  0  0
  2 27  1  0  0  0  0
  3  7  1  6  0  0  0
  4 15  1  0  0  0  0
  5 11  1  6  0  0  0
  5 19  1  0  0  0  0
  8 16  1  0  0  0  0
  9 13  1  0  0  0  0
 10 22  1  0  0  0  0
 12  8  1  0  0  0  0
 13 20  1  0  0  0  0
 13 24  1  0  0  0  0
 14  2  1  0  0  0  0
 14 25  1  0  0  0  0
 15 12  1  0  0  0  0
 15  5  1  0  0  0  0
 16  3  1  0  0  0  0
 17 10  1  0  0  0  0
 18  4  2  0  0  0  0
 18 20  1  0  0  0  0
 19  3  1  0  0  0  0
 19  6  1  0  0  0  0
 20 11  1  0  0  0  0
 21 23  2  0  0  0  0
 23  4  1  0  0  0  0
 24 22  1  0  0  0  0
 25 17  1  0  0  0  0
 25  9  1  0  0  0  0
 26 21  1  0  0  0  0
 26  1  2  0  0  0  0
 27  1  1  0  0  0  0
 27  9  1  0  0  0  0
 28 17  1  0  0  0  0
 29 28  1  0  0  0  0
 30 34  1  0  0  0  0
 31 32  1  0  0  0  0
 32 29  1  0  0  0  0
 33 30  1  0  0  0  0
 33 31  1  0  0  0  0
 34 32  1  0  0  0  0
M  END
>  <MODEL>
2

>  <REMARK>
 VINA RESULT:      -8.8      2.176      4.373
  Name = 
  3 active torsions:
  status: ('A' for Active; 'I' for Inactive)
    1  A    between atoms: C_17  and  O_28
    2  A    between atoms: O_28  and  C_29
    3  A    between atoms: C_29  and  C_32
                            x       y       z     vdW  Elec       q    Type
                         _______ _______ _______ _____ _____    ______ ____

>  <TORSDO>
F 3

$$$$
=
 OpenBabel11122414203D

 34 40  0  0  1  0  0  0  0  0999 V2000
  161.6890  207.7010  149.4830 C   0  0  0  0  0  0  0  0  0  0  0  0
  161.1070  209.8320  150.6660 C   0  0  0  0  0  2  0  0  0  0  0  0
  159.9410  201.3690  149.3030 C   0  0  1  0  0  3  0  0  0  0  0  0
  161.2340  205.4750  148.6220 C   0  0  0  0  0  0  0  0  0  0  0  0
  161.2030  203.4700  150.2430 C   0  0  2  0  0  3  0  0  0  0  0  0
  161.1940  201.2880  151.4870 C   0  0  0  0  0  1  0  0  0  0  0  0
  158.9560  202.0560  148.6150 F   0  0  0  0  0  0  0  0  0  0  0  0
  162.2530  201.7890  148.2160 C   0  0  0  0  0  2  0  0  0  0  0  0
  162.1420  208.0880  152.0060 C   0  0  2  0  0  3  0  0  0  0  0  0
  161.0510  208.0310  155.0280 C   0  0  0  0  0  2  0  0  0  0  0  0
  160.8070  204.5190  151.2680 C   0  0  0  0  0  2  0  0  0  0  0  0
  161.9080  203.2170  147.7920 C   0  0  0  0  0  2  0  0  0  0  0  0
  161.3730  206.7650  152.2070 C   0  0  1  0  0  3  0  0  0  0  0  0
  161.3590  210.4210  152.0300 C   0  0  0  0  0  2  0  0  0  0  0  0
  161.0300  203.9860  148.7950 C   0  0  2  0  0  3  0  0  0  0  0  0
  161.0320  200.8780  148.3410 C   0  0  0  0  0  2  0  0  0  0  0  0
  160.5700  208.9540  153.9200 C   0  0  2  0  0  3  0  0  0  0  0  0
  161.5020  206.3270  149.7190 C   0  0  0  0  0  0  0  0  0  0  0  0
  160.4200  202.1730  150.5270 C   0  0  2  0  0  3  0  0  0  0  0  0
  161.6870  205.7540  151.1010 C   0  0  2  0  0  3  0  0  0  0  0  0
  161.2760  207.3300  147.1330 C   0  0  0  0  0  3  0  0  0  0  0  0
  160.8300  206.5790  154.6480 C   0  0  0  0  0  2  0  0  0  0  0  0
  161.1080  206.0060  147.3740 N   0  0  0  0  0  0  0  0  0  0  0  0
  161.7810  206.1530  153.5440 C   0  0  0  0  0  2  0  0  0  0  0  0
  161.7190  209.2520  152.9390 C   0  0  1  0  0  3  0  0  0  0  0  0
  161.5810  208.1950  148.1790 C   0  0  0  0  0  3  0  0  0  0  0  0
  162.0550  208.6580  150.5850 C   0  0  1  0  0  3  0  0  0  0  0  0
  160.1080  210.1390  154.5030 O   0  0  0  0  0  0  0  0  0  0  0  0
  159.7210  209.7730  155.7940 C   0  0  0  0  0  2  0  0  0  0  0  0
  159.6610  213.3750  156.2230 C   0  0  0  0  0  2  0  0  0  0  0  0
  158.1290  211.5360  156.3460 N   0  0  0  0  0  2  0  0  0  0  0  0
  159.4590  211.0160  156.6240 C   0  0  2  0  0  3  0  0  0  0  0  0
  158.2330  212.9750  156.5270 C   0  0  0  0  0  2  0  0  0  0  0  0
  160.4560  212.0930  156.2630 C   0  0  0  0  0  2  0  0  0  0  0  0
  1 18  1  0  0  0  0
  1 27  1  0  0  0  0
  2 14  1  0  0  0  0
  3  7  1  6  0  0  0
  3 19  1  0  0  0  0
  4 15  1  0  0  0  0
  4 18  2  0  0  0  0
  5 19  1  0  0  0  0
  5 11  1  1  0  0  0
  8 16  1  0  0  0  0
  9 13  1  0  0  0  0
  9 25  1  0  0  0  0
 12  8  1  0  0  0  0
 12 15  1  0  0  0  0
 13 24  1  0  0  0  0
 14 25  1  0  0  0  0
 15  5  1  0  0  0  0
 16  3  1  0  0  0  0
 17 28  1  0  0  0  0
 17 10  1  0  0  0  0
 18 20  1  0  0  0  0
 19  6  1  0  0  0  0
 20 11  1  0  0  0  0
 20 13  1  0  0  0  0
 21 23  2  0  0  0  0
 21 26  1  0  0  0  0
 22 10  1  0  0  0  0
 23  4  1  0  0  0  0
 24 22  1  0  0  0  0
 25 17  1  0  0  0  0
 26  1  2  0  0  0  0
 27  2  1  0  0  0  0
 27  9  1  0  0  0  0
 28 29  1  0  0  0  0
 29 32  1  0  0  0  0
 30 34  1  0  0  0  0
 30 33  1  0  0  0  0
 31 33  1  0  0  0  0
 31 32  1  0  0  0  0
 34 32  1  0  0  0  0
M  END
>  <MODEL>
3

>  <REMARK>
 VINA RESULT:      -7.8      2.898      9.378
  Name = 
  3 active torsions:
  status: ('A' for Active; 'I' for Inactive)
    1  A    between atoms: C_17  and  O_28
    2  A    between atoms: O_28  and  C_29
    3  A    between atoms: C_29  and  C_32
                            x       y       z     vdW  Elec       q    Type
                         _______ _______ _______ _____ _____    ______ ____

>  <TORSDO>
F 3

$$$$
=
 OpenBabel11122414203D

 34 40  0  0  1  0  0  0  0  0999 V2000
  161.8990  210.1020  151.1540 C   0  0  0  0  0  0  0  0  0  0  0  0
  160.9510  211.4880  153.0140 C   0  0  0  0  0  2  0  0  0  0  0  0
  160.6200  204.6190  147.7650 C   0  0  1  0  0  3  0  0  0  0  0  0
  161.7730  208.5290  149.3060 C   0  0  0  0  0  0  0  0  0  0  0  0
  161.5240  206.0110  149.7980 C   0  0  2  0  0  3  0  0  0  0  0  0
  161.3850  203.5040  149.8900 C   0  0  0  0  0  1  0  0  0  0  0  0
  159.7620  205.5840  147.2660 F   0  0  0  0  0  0  0  0  0  0  0  0
  163.0790  205.3880  147.5120 C   0  0  0  0  0  2  0  0  0  0  0  0
  161.7850  209.2840  153.6110 C   0  0  2  0  0  3  0  0  0  0  0  0
  160.0860  207.9100  155.9670 C   0  0  0  0  0  2  0  0  0  0  0  0
  160.8560  206.4970  151.0740 C   0  0  0  0  0  2  0  0  0  0  0  0
  162.7440  206.8660  147.7140 C   0  0  0  0  0  2  0  0  0  0  0  0
  161.0730  208.0470  153.0230 C   0  0  1  0  0  3  0  0  0  0  0  0
  160.8730  211.3830  154.5150 C   0  0  0  0  0  2  0  0  0  0  0  0
  161.6290  207.1340  148.7400 C   0  0  2  0  0  3  0  0  0  0  0  0
  161.9180  204.5720  146.9450 C   0  0  0  0  0  2  0  0  0  0  0  0
  159.7940  209.2540  155.3200 C   0  0  2  0  0  3  0  0  0  0  0  0
  161.7510  208.7790  150.6980 C   0  0  0  0  0  0  0  0  0  0  0  0
  160.7790  204.7600  149.2910 C   0  0  2  0  0  3  0  0  0  0  0  0
  161.6750  207.6350  151.6760 C   0  0  2  0  0  3  0  0  0  0  0  0
  162.0150  210.8540  148.8620 C   0  0  0  0  0  3  0  0  0  0  0  0
  160.0390  206.7980  154.9360 C   0  0  0  0  0  2  0  0  0  0  0  0
  161.8810  209.5730  148.4370 N   0  0  0  0  0  0  0  0  0  0  0  0
  161.2260  206.8790  153.9930 C   0  0  0  0  0  2  0  0  0  0  0  0
  161.1040  209.9150  154.8520 C   0  0  1  0  0  3  0  0  0  0  0  0
  162.0390  211.1370  150.2240 C   0  0  0  0  0  3  0  0  0  0  0  0
  161.9650  210.4390  152.6190 C   0  0  1  0  0  3  0  0  0  0  0  0
  159.1480  210.0640  156.2590 O   0  0  0  0  0  0  0  0  0  0  0  0
  157.8710  210.2710  155.7330 C   0  0  0  0  0  2  0  0  0  0  0  0
  156.0930  213.1790  154.4910 C   0  0  0  0  0  2  0  0  0  0  0  0
  156.3090  211.9590  156.5430 N   0  0  0  0  0  2  0  0  0  0  0  0
  157.5290  211.7490  155.7780 C   0  0  2  0  0  3  0  0  0  0  0  0
  155.6780  213.1260  155.9450 C   0  0  0  0  0  2  0  0  0  0  0  0
  157.2860  212.2620  154.3770 C   0  0  0  0  0  2  0  0  0  0  0  0
  1 27  1  0  0  0  0
  2 14  1  0  0  0  0
  3  7  1  6  0  0  0
  3 19  1  0  0  0  0
  4 18  2  0  0  0  0
  5 11  1  1  0  0  0
  8 12  1  0  0  0  0
  9 25  1  0  0  0  0
 11 20  1  0  0  0  0
 12 15  1  0  0  0  0
 13  9  1  0  0  0  0
 13 24  1  0  0  0  0
 14 25  1  0  0  0  0
 15  4  1  0  0  0  0
 15  5  1  0  0  0  0
 16  8  1  0  0  0  0
 16  3  1  0  0  0  0
 17 10  1  0  0  0  0
 17 28  1  0  0  0  0
 18  1  1  0  0  0  0
 18 20  1  0  0  0  0
 19  5  1  0  0  0  0
 19  6  1  0  0  0  0
 20 13  1  0  0  0  0
 21 26  1  0  0  0  0
 22 10  1  0  0  0  0
 23 21  2  0  0  0  0
 23  4  1  0  0  0  0
 24 22  1  0  0  0  0
 25 17  1  0  0  0  0
 26  1  2  0  0  0  0
 27  2  1  0  0  0  0
 27  9  1  0  0  0  0
 29 32  1  0  0  0  0
 29 28  1  0  0  0  0
 30 33  1  0  0  0  0
 32 31  1  0  0  0  0
 33 31  1  0  0  0  0
 34 30  1  0  0  0  0
 34 32  1  0  0  0  0
M  END
>  <MODEL>
4

>  <REMARK>
 VINA RESULT:      -7.2      3.089      8.851
  Name = 
  3 active torsions:
  status: ('A' for Active; 'I' for Inactive)
    1  A    between atoms: C_17  and  O_28
    2  A    between atoms: O_28  and  C_29
    3  A    between atoms: C_29  and  C_32
                            x       y       z     vdW  Elec       q    Type
                         _______ _______ _______ _____ _____    ______ ____

>  <TORSDO>
F 3

$$$$
