=
 OpenBabel11122413423D

 37 45  0  0  1  0  0  0  0  0999 V2000
  162.2290  207.5020  152.1350 C   0  0  1  0  0  3  0  0  0  0  0  0
  160.4490  210.0340  155.5920 C   0  0  0  0  0  0  0  0  0  0  0  0
  160.3970  211.9790  151.8690 C   0  0  2  0  0  3  0  0  0  0  0  0
  162.2620  206.0870  151.5310 C   0  0  2  0  0  3  0  0  0  0  0  0
  161.8990  210.2950  148.5610 C   0  0  0  0  0  2  0  0  0  0  0  0
  159.8880  212.0960  154.2050 C   0  0  1  0  0  3  0  0  0  0  0  0
  160.7310  210.9130  150.8530 C   0  0  1  0  0  3  0  0  0  0  0  0
  161.4380  206.5060  149.1620 C   0  0  0  0  0  0  0  0  0  0  0  0
  159.7710  211.2030  152.9870 C   0  0  2  0  0  3  0  0  0  0  0  0
  161.5550  211.4110  149.6050 C   0  0  2  0  0  3  0  0  0  0  0  0
  159.0460  213.3280  153.9790 C   0  0  0  0  0  3  0  0  0  0  0  0
  161.4150  205.8410  150.4050 O   0  0  0  0  0  0  0  0  0  0  0  0
  160.5310  209.8830  153.0600 C   0  0  2  0  0  3  0  0  0  0  0  0
  159.5570  208.8350  155.8210 C   0  0  0  0  0  1  0  0  0  0  0  0
  160.3510  214.1660  150.7660 C   0  0  0  0  0  3  0  0  0  0  0  0
  158.9050  213.8320  152.7270 C   0  0  0  0  0  3  0  0  0  0  0  0
  161.3360  209.7660  154.3590 C   0  0  0  0  0  2  0  0  0  0  0  0
  162.2690  207.7400  148.8820 C   0  0  1  0  0  3  0  0  0  0  0  0
  161.4440  208.9400  149.0120 C   0  0  1  0  0  3  0  0  0  0  0  0
  159.5040  213.1660  151.4830 C   0  0  2  0  0  3  0  0  0  0  0  0
  161.4050  209.8720  151.8020 C   0  0  1  0  0  3  0  0  0  0  0  0
  159.5650  211.3020  155.4610 C   0  0  0  0  0  2  0  0  0  0  0  0
  160.8210  212.5850  148.8900 C   0  0  1  0  0  3  0  0  0  0  0  0
  161.3410  210.1950  156.7960 C   0  0  0  0  0  1  0  0  0  0  0  0
  162.4140  208.6210  150.0550 N   0  0  1  0  0  0  0  0  0  0  0  0
  160.7240  206.0500  148.2290 O   0  0  0  0  0  0  0  0  0  0  0  0
  161.5390  208.4680  151.1940 C   0  0  1  0  0  3  0  0  0  0  0  0
  160.9540  213.8980  149.6070 C   0  0  0  0  0  3  0  0  0  0  0  0
  161.8530  205.9400  153.8610 F   0  0  0  0  0  0  0  0  0  0  0  0
  161.3210  206.4210  152.6780 C   0  0  1  0  0  3  0  0  0  0  0  0
  162.4640  213.2930  147.1400 C   0  0  0  0  0  3  0  0  0  0  0  0
  161.1930  212.7890  147.4470 C   0  0  0  0  0  0  0  0  0  0  0  0
  160.3020  212.4700  146.4080 C   0  0  0  0  0  3  0  0  0  0  0  0
  159.7690  212.3680  144.0230 N   0  0  0  0  0  1  0  0  0  0  0  0
  161.9540  213.1620  144.7740 C   0  0  0  0  0  3  0  0  0  0  0  0
  160.6820  212.6640  145.0750 C   0  0  0  0  0  0  0  0  0  0  0  0
  162.8420  213.4790  145.8040 C   0  0  0  0  0  3  0  0  0  0  0  0
  1 30  1  0  0  0  0
  2 14  1  0  0  0  0
  2 24  1  0  0  0  0
  3  9  1  0  0  0  0
  4  1  1  0  0  0  0
  4 30  1  0  0  0  0
  5 19  1  0  0  0  0
  5 10  1  0  0  0  0
  6 22  1  0  0  0  0
  7 21  1  0  0  0  0
  7  3  1  0  0  0  0
  8 12  1  0  0  0  0
  9 13  1  0  0  0  0
  9  6  1  0  0  0  0
 10  7  1  0  0  0  0
 11  6  1  0  0  0  0
 12  4  1  0  0  0  0
 13 17  1  0  0  0  0
 15 20  1  0  0  0  0
 16 11  2  0  0  0  0
 17  2  1  0  0  0  0
 18 19  1  0  0  0  0
 18  8  1  0  0  0  0
 18 25  1  0  0  0  0
 19 25  1  0  0  0  0
 20  3  1  0  0  0  0
 20 16  1  0  0  0  0
 21 13  1  0  0  0  0
 22  2  1  0  0  0  0
 23 10  1  0  0  0  0
 23 28  1  0  0  0  0
 25 27  1  0  0  0  0
 26  8  2  0  0  0  0
 27 21  1  0  0  0  0
 27  1  1  0  0  0  0
 28 15  2  0  0  0  0
 30 29  1  0  0  0  0
 31 32  1  0  0  0  0
 32 23  1  0  0  0  0
 33 32  2  0  0  0  0
 34 36  1  0  0  0  0
 35 36  2  0  0  0  0
 35 37  1  0  0  0  0
 36 33  1  0  0  0  0
 37 31  2  0  0  0  0
M  END
>  <MODEL>
1

>  <REMARK>
 VINA RESULT:      -8.0      0.000      0.000
  Name = 
  1 active torsions:
  status: ('A' for Active; 'I' for Inactive)
    1  A    between atoms: C_23  and  C_30
                            x       y       z     vdW  Elec       q    Type
                         _______ _______ _______ _____ _____    ______ ____

>  <TORSDO>
F 1

$$$$
