=
 OpenBabel11122412533D

 32 38  0  0  1  0  0  0  0  0999 V2000
  160.3660  213.3620  146.5710 C   0  0  1  0  0  3  0  0  0  0  0  0
  161.4290  210.9430  151.1490 C   0  0  1  0  0  3  0  0  0  0  0  0
  161.6790  206.6410  148.6770 C   0  0  0  0  0  3  0  0  0  0  0  0
  161.2000  205.9510  149.7920 C   0  0  0  0  0  3  0  0  0  0  0  0
  160.9720  210.8270  153.6250 C   0  0  0  0  0  0  0  0  0  0  0  0
  160.6500  210.0740  154.7500 C   0  0  0  0  0  0  0  0  0  0  0  0
  160.5570  212.5470  149.4540 C   0  0  1  0  0  3  0  0  0  0  0  0
  162.3310  210.8760  148.8400 C   0  0  0  0  0  2  0  0  0  0  0  0
  160.1960  208.3400  155.9060 C   0  0  0  0  0  0  0  0  0  0  0  0
  161.4760  212.4180  147.0370 C   0  0  2  0  0  3  0  0  0  0  0  0
  161.9240  208.0120  148.7580 C   0  0  0  0  0  3  0  0  0  0  0  0
  161.9390  210.1300  150.0350 N   0  0  0  0  0  0  0  0  0  0  0  0
  161.6890  208.7130  149.9530 C   0  0  0  0  0  0  0  0  0  0  0  0
  160.9880  208.7390  152.3450 C   0  0  0  0  0  0  0  0  0  0  0  0
  160.1510  209.4500  156.7340 C   0  0  0  0  0  3  0  0  0  0  0  0
  159.1190  213.3720  147.4840 C   0  0  0  0  0  2  0  0  0  0  0  0
  161.1240  211.6580  148.3290 C   0  0  2  0  0  3  0  0  0  0  0  0
  160.4400  210.5510  155.9950 N   0  0  0  0  0  0  0  0  0  0  0  0
  159.3690  213.3980  149.0010 C   0  0  0  0  0  2  0  0  0  0  0  0
  161.6220  213.9270  147.2190 C   0  0  1  0  0  3  0  0  0  0  0  0
  160.9680  206.6340  150.9860 C   0  0  0  0  0  3  0  0  0  0  0  0
  161.2090  208.0150  151.0770 C   0  0  0  0  0  0  0  0  0  0  0  0
  160.6620  208.0390  153.5220 C   0  0  0  0  0  3  0  0  0  0  0  0
  160.1940  211.7160  150.6830 C   0  0  0  0  0  2  0  0  0  0  0  0
  161.1180  212.2070  153.7160 O   0  0  0  0  0  1  0  0  0  0  0  0
  159.9380  206.9300  156.3130 C   0  0  0  0  0  1  0  0  0  0  0  0
  161.1390  210.1500  152.3970 C   0  0  0  0  0  0  0  0  0  0  0  0
  160.5060  208.7450  154.6680 N   0  0  0  0  0  0  0  0  0  0  0  0
  162.5060  214.4530  146.1840 N   0  0  0  0  0  2  0  0  0  0  0  0
  162.3670  213.6850  144.9430 C   0  0  0  0  0  3  0  0  0  0  0  0
  161.5960  214.4530  143.8790 C   0  0  0  0  0  1  0  0  0  0  0  0
  163.7110  213.2090  144.4120 C   0  0  0  0  0  1  0  0  0  0  0  0
  1 10  1  0  0  0  0
  1 20  1  0  0  0  0
  1 16  1  1  0  0  0
  2 24  1  6  0  0  0
  2 27  1  0  0  0  0
  3 11  2  0  0  0  0
  3  4  1  0  0  0  0
  4 21  2  0  0  0  0
  5 25  1  0  0  0  0
  5  6  1  0  0  0  0
  6 18  2  0  0  0  0
  7 19  1  6  0  0  0
  7 24  1  0  0  0  0
  8 12  1  0  0  0  0
  9 26  1  0  0  0  0
  9 15  2  0  0  0  0
 10 20  1  0  0  0  0
 10 17  1  0  0  0  0
 11 13  1  0  0  0  0
 12  2  1  0  0  0  0
 13 12  1  0  0  0  0
 13 22  2  0  0  0  0
 14 27  1  0  0  0  0
 14 23  2  0  0  0  0
 16 19  1  0  0  0  0
 17  8  1  0  0  0  0
 17  7  1  0  0  0  0
 18 15  1  0  0  0  0
 21 22  1  0  0  0  0
 22 14  1  0  0  0  0
 23 28  1  0  0  0  0
 27  5  2  0  0  0  0
 28  6  1  0  0  0  0
 28  9  1  0  0  0  0
 29 20  1  0  0  0  0
 30 29  1  0  0  0  0
 31 30  1  0  0  0  0
 32 30  1  0  0  0  0
M  END
>  <MODEL>
1

>  <REMARK>
 VINA RESULT:      -5.5      0.000      0.000
  Name = 
  2 active torsions:
  status: ('A' for Active; 'I' for Inactive)
    1  A    between atoms: C_20  and  N_29
    2  A    between atoms: N_29  and  C_30
                            x       y       z     vdW  Elec       q    Type
                         _______ _______ _______ _____ _____    ______ ____

>  <TORSDO>
F 2

$$$$
=
 OpenBabel11122412533D

 32 38  0  0  1  0  0  0  0  0999 V2000
  159.4670  212.8580  144.9600 C   0  0  1  0  0  3  0  0  0  0  0  0
  160.4820  212.6190  150.1420 C   0  0  1  0  0  3  0  0  0  0  0  0
  162.5040  208.1390  149.4150 C   0  0  0  0  0  3  0  0  0  0  0  0
  162.0950  207.7290  150.6840 C   0  0  0  0  0  3  0  0  0  0  0  0
  159.6850  213.1620  152.4710 C   0  0  0  0  0  0  0  0  0  0  0  0
  159.4410  212.7540  153.7800 C   0  0  0  0  0  0  0  0  0  0  0  0
  159.4320  213.1550  147.9470 C   0  0  1  0  0  3  0  0  0  0  0  0
  161.7240  212.1290  148.0530 C   0  0  0  0  0  2  0  0  0  0  0  0
  159.3850  211.4520  155.4680 C   0  0  0  0  0  0  0  0  0  0  0  0
  160.7280  212.5830  145.7800 C   0  0  2  0  0  3  0  0  0  0  0  0
  162.2780  209.4530  149.0020 C   0  0  0  0  0  3  0  0  0  0  0  0
  161.4010  211.7270  149.4200 N   0  0  0  0  0  0  0  0  0  0  0  0
  161.6370  210.3710  149.8500 C   0  0  0  0  0  0  0  0  0  0  0  0
  160.5820  210.9240  152.0390 C   0  0  0  0  0  0  0  0  0  0  0  0
  158.8500  212.6780  155.8340 C   0  0  0  0  0  3  0  0  0  0  0  0
  158.1500  212.7170  145.7570 C   0  0  0  0  0  2  0  0  0  0  0  0
  160.4310  212.2140  147.2460 C   0  0  2  0  0  3  0  0  0  0  0  0
  158.8870  213.5030  154.7560 N   0  0  0  0  0  0  0  0  0  0  0  0
  158.1250  213.3250  147.1700 C   0  0  0  0  0  2  0  0  0  0  0  0
  160.3490  214.0140  145.4070 C   0  0  1  0  0  3  0  0  0  0  0  0
  161.4630  208.6320  151.5390 C   0  0  0  0  0  3  0  0  0  0  0  0
  161.2280  209.9560  151.1310 C   0  0  0  0  0  0  0  0  0  0  0  0
  160.3080  210.5790  153.3760 C   0  0  0  0  0  3  0  0  0  0  0  0
  159.1580  212.6990  149.3790 C   0  0  0  0  0  2  0  0  0  0  0  0
  159.3620  214.4510  152.0600 O   0  0  0  0  0  1  0  0  0  0  0  0
  159.5300  210.2600  156.3490 C   0  0  0  0  0  1  0  0  0  0  0  0
  160.2600  212.2280  151.5810 C   0  0  0  0  0  0  0  0  0  0  0  0
  159.7480  211.5150  154.1810 N   0  0  0  0  0  0  0  0  0  0  0  0
  161.1750  214.4530  144.2870 N   0  0  0  0  0  2  0  0  0  0  0  0
  162.0520  213.3700  143.8320 C   0  0  0  0  0  3  0  0  0  0  0  0
  161.8750  213.0770  142.3490 C   0  0  0  0  0  1  0  0  0  0  0  0
  163.5110  213.6360  144.1690 C   0  0  0  0  0  1  0  0  0  0  0  0
  1 20  1  0  0  0  0
  1 16  1  1  0  0  0
  1 10  1  0  0  0  0
  2 24  1  6  0  0  0
  2 27  1  0  0  0  0
  3  4  1  0  0  0  0
  4 21  2  0  0  0  0
  5  6  1  0  0  0  0
  6 28  1  0  0  0  0
  6 18  2  0  0  0  0
  7 19  1  6  0  0  0
  7 24  1  0  0  0  0
  8 12  1  0  0  0  0
  9 15  2  0  0  0  0
  9 26  1  0  0  0  0
 10 17  1  0  0  0  0
 11  3  2  0  0  0  0
 11 13  1  0  0  0  0
 12 13  1  0  0  0  0
 12  2  1  0  0  0  0
 13 22  2  0  0  0  0
 14 23  2  0  0  0  0
 16 19  1  0  0  0  0
 17  7  1  0  0  0  0
 17  8  1  0  0  0  0
 18 15  1  0  0  0  0
 20 10  1  0  0  0  0
 22 21  1  0  0  0  0
 22 14  1  0  0  0  0
 23 28  1  0  0  0  0
 25  5  1  0  0  0  0
 27 14  1  0  0  0  0
 27  5  2  0  0  0  0
 28  9  1  0  0  0  0
 29 20  1  0  0  0  0
 30 32  1  0  0  0  0
 30 29  1  0  0  0  0
 31 30  1  0  0  0  0
M  END
>  <MODEL>
2

>  <REMARK>
 VINA RESULT:      -4.9      1.733      2.340
  Name = 
  2 active torsions:
  status: ('A' for Active; 'I' for Inactive)
    1  A    between atoms: C_20  and  N_29
    2  A    between atoms: N_29  and  C_30
                            x       y       z     vdW  Elec       q    Type
                         _______ _______ _______ _____ _____    ______ ____

>  <TORSDO>
F 2

$$$$
=
 OpenBabel11122412533D

 32 38  0  0  1  0  0  0  0  0999 V2000
  162.4220  210.5030  153.8780 C   0  0  1  0  0  3  0  0  0  0  0  0
  160.7910  207.4060  149.9160 C   0  0  1  0  0  3  0  0  0  0  0  0
  161.0830  203.5190  152.9970 C   0  0  0  0  0  3  0  0  0  0  0  0
  161.4190  202.6790  151.9350 C   0  0  0  0  0  3  0  0  0  0  0  0
  160.8810  206.9290  147.4430 C   0  0  0  0  0  0  0  0  0  0  0  0
  161.0640  206.0200  146.4030 C   0  0  0  0  0  0  0  0  0  0  0  0
  161.8390  209.2610  151.2070 C   0  0  1  0  0  3  0  0  0  0  0  0
  160.2450  207.6700  152.3200 C   0  0  0  0  0  2  0  0  0  0  0  0
  161.4110  204.1410  145.4570 C   0  0  0  0  0  0  0  0  0  0  0  0
  161.2940  209.4800  153.7280 C   0  0  2  0  0  3  0  0  0  0  0  0
  160.7740  204.8580  152.7550 C   0  0  0  0  0  3  0  0  0  0  0  0
  160.4850  206.7610  151.2010 N   0  0  0  0  0  0  0  0  0  0  0  0
  160.8010  205.3760  151.4500 C   0  0  0  0  0  0  0  0  0  0  0  0
  161.1380  205.0560  149.0010 C   0  0  0  0  0  0  0  0  0  0  0  0
  161.2880  205.1150  144.4790 C   0  0  0  0  0  3  0  0  0  0  0  0
  163.5190  210.3980  152.7940 C   0  0  0  0  0  2  0  0  0  0  0  0
  161.4820  208.5410  152.5220 C   0  0  2  0  0  3  0  0  0  0  0  0
  161.0670  206.3090  145.0860 N   0  0  0  0  0  0  0  0  0  0  0  0
  163.0460  210.1920  151.3450 C   0  0  0  0  0  2  0  0  0  0  0  0
  161.0620  210.9420  153.3530 C   0  0  1  0  0  3  0  0  0  0  0  0
  161.4440  203.1800  150.6330 C   0  0  0  0  0  3  0  0  0  0  0  0
  161.1380  204.5270  150.3790 C   0  0  0  0  0  0  0  0  0  0  0  0
  161.3150  204.1940  147.9020 C   0  0  0  0  0  3  0  0  0  0  0  0
  162.0500  208.2620  150.0710 C   0  0  0  0  0  2  0  0  0  0  0  0
  160.6680  208.2770  147.1750 O   0  0  0  0  0  1  0  0  0  0  0  0
  161.6620  202.6910  145.2250 C   0  0  0  0  0  1  0  0  0  0  0  0
  160.9250  206.4400  148.7670 C   0  0  0  0  0  0  0  0  0  0  0  0
  161.2710  204.7220  146.6550 N   0  0  0  0  0  0  0  0  0  0  0  0
  160.3210  211.6010  154.4230 N   0  0  0  0  0  2  0  0  0  0  0  0
  159.0110  212.0530  153.9460 C   0  0  0  0  0  3  0  0  0  0  0  0
  158.8350  211.8190  152.4530 C   0  0  0  0  0  1  0  0  0  0  0  0
  157.8700  211.4330  154.7380 C   0  0  0  0  0  1  0  0  0  0  0  0
  1 16  1  6  0  0  0
  2 24  1  1  0  0  0
  2 12  1  0  0  0  0
  4  3  2  0  0  0  0
  5 27  2  0  0  0  0
  6 28  1  0  0  0  0
  6  5  1  0  0  0  0
  7 24  1  6  0  0  0
  7 19  1  0  0  0  0
  7 17  1  0  0  0  0
  8 17  1  0  0  0  0
  9 28  1  0  0  0  0
 10  1  1  0  0  0  0
 11  3  1  0  0  0  0
 12 13  1  0  0  0  0
 12  8  1  0  0  0  0
 13 11  2  0  0  0  0
 14 22  1  0  0  0  0
 15 18  1  0  0  0  0
 15  9  2  0  0  0  0
 17 10  1  0  0  0  0
 18  6  2  0  0  0  0
 19 16  1  0  0  0  0
 20 10  1  0  0  0  0
 20  1  1  0  0  0  0
 20 29  1  0  0  0  0
 21  4  1  0  0  0  0
 22 21  2  0  0  0  0
 22 13  1  0  0  0  0
 23 14  2  0  0  0  0
 25  5  1  0  0  0  0
 26  9  1  0  0  0  0
 27 14  1  0  0  0  0
 27  2  1  0  0  0  0
 28 23  1  0  0  0  0
 30 29  1  0  0  0  0
 30 32  1  0  0  0  0
 31 30  1  0  0  0  0
M  END
>  <MODEL>
3

>  <REMARK>
 VINA RESULT:      -3.6      4.195      7.587
  Name = 
  2 active torsions:
  status: ('A' for Active; 'I' for Inactive)
    1  A    between atoms: C_20  and  N_29
    2  A    between atoms: N_29  and  C_30
                            x       y       z     vdW  Elec       q    Type
                         _______ _______ _______ _____ _____    ______ ____

>  <TORSDO>
F 2

$$$$
=
 OpenBabel11122412533D

 32 38  0  0  1  0  0  0  0  0999 V2000
  161.8380  202.1360  149.4840 C   0  0  1  0  0  3  0  0  0  0  0  0
  160.4270  206.3510  152.3450 C   0  0  1  0  0  3  0  0  0  0  0  0
  162.3360  209.2500  148.7910 C   0  0  0  0  0  3  0  0  0  0  0  0
  162.6910  210.2100  149.7390 C   0  0  0  0  0  3  0  0  0  0  0  0
  160.1910  207.3500  154.6480 C   0  0  0  0  0  0  0  0  0  0  0  0
  160.4230  208.4050  155.5260 C   0  0  0  0  0  0  0  0  0  0  0  0
  161.1420  204.0580  151.6830 C   0  0  1  0  0  3  0  0  0  0  0  0
  160.2790  205.6760  149.9640 C   0  0  0  0  0  2  0  0  0  0  0  0
  161.0960  210.3190  156.1850 C   0  0  0  0  0  0  0  0  0  0  0  0
  161.0280  203.3980  149.1820 C   0  0  2  0  0  3  0  0  0  0  0  0
  161.6310  208.1110  149.1830 C   0  0  0  0  0  3  0  0  0  0  0  0
  160.5510  206.7370  150.9320 N   0  0  0  0  0  0  0  0  0  0  0  0
  161.2760  207.9150  150.5280 C   0  0  0  0  0  0  0  0  0  0  0  0
  161.2350  208.7030  152.8920 C   0  0  0  0  0  0  0  0  0  0  0  0
  160.5320  209.6510  157.2610 C   0  0  0  0  0  3  0  0  0  0  0  0
  162.7040  202.2300  150.7610 C   0  0  0  0  0  2  0  0  0  0  0  0
  161.2430  204.5190  150.2160 C   0  0  2  0  0  3  0  0  0  0  0  0
  160.1060  208.4340  156.8370 N   0  0  0  0  0  0  0  0  0  0  0  0
  162.0500  202.8680  151.9990 C   0  0  0  0  0  2  0  0  0  0  0  0
  160.3380  202.1560  149.7420 C   0  0  1  0  0  3  0  0  0  0  0  0
  162.3380  210.0310  151.0770 C   0  0  0  0  0  3  0  0  0  0  0  0
  161.6320  208.8870  151.4820 C   0  0  0  0  0  0  0  0  0  0  0  0
  161.4380  209.7300  153.8340 C   0  0  0  0  0  3  0  0  0  0  0  0
  161.4080  205.2150  152.6440 C   0  0  0  0  0  2  0  0  0  0  0  0
  159.5700  206.1860  155.0890 O   0  0  0  0  0  1  0  0  0  0  0  0
  161.6900  211.6850  156.2120 C   0  0  0  0  0  1  0  0  0  0  0  0
  160.6090  207.4980  153.3070 C   0  0  0  0  0  0  0  0  0  0  0  0
  161.0220  209.5270  155.1070 N   0  0  0  0  0  0  0  0  0  0  0  0
  159.6530  201.4580  148.6590 N   0  0  0  0  0  2  0  0  0  0  0  0
  160.5140  201.3610  147.4760 C   0  0  0  0  0  3  0  0  0  0  0  0
  161.2020  200.0070  147.3810 C   0  0  0  0  0  1  0  0  0  0  0  0
  159.7620  201.6880  146.1940 C   0  0  0  0  0  1  0  0  0  0  0  0
  1 20  1  0  0  0  0
  1 16  1  1  0  0  0
  2 24  1  1  0  0  0
  2 27  1  0  0  0  0
  3 11  2  0  0  0  0
  3  4  1  0  0  0  0
  4 21  2  0  0  0  0
  5 25  1  0  0  0  0
  5  6  1  0  0  0  0
  6 18  2  0  0  0  0
  7 19  1  6  0  0  0
  7 24  1  0  0  0  0
  8 17  1  0  0  0  0
  8 12  1  0  0  0  0
  9 26  1  0  0  0  0
  9 15  2  0  0  0  0
 10  1  1  0  0  0  0
 10 20  1  0  0  0  0
 10 17  1  0  0  0  0
 11 13  1  0  0  0  0
 12  2  1  0  0  0  0
 13 12  1  0  0  0  0
 13 22  2  0  0  0  0
 14 27  1  0  0  0  0
 14 23  2  0  0  0  0
 16 19  1  0  0  0  0
 17  7  1  0  0  0  0
 18 15  1  0  0  0  0
 21 22  1  0  0  0  0
 22 14  1  0  0  0  0
 23 28  1  0  0  0  0
 27  5  2  0  0  0  0
 28  6  1  0  0  0  0
 28  9  1  0  0  0  0
 29 20  1  0  0  0  0
 30 29  1  0  0  0  0
 31 30  1  0  0  0  0
 32 30  1  0  0  0  0
M  END
>  <MODEL>
4

>  <REMARK>
 VINA RESULT:      -3.2      3.626      7.421
  Name = 
  2 active torsions:
  status: ('A' for Active; 'I' for Inactive)
    1  A    between atoms: C_20  and  N_29
    2  A    between atoms: N_29  and  C_30
                            x       y       z     vdW  Elec       q    Type
                         _______ _______ _______ _____ _____    ______ ____

>  <TORSDO>
F 2

$$$$
=
 OpenBabel11122412533D

 32 38  0  0  1  0  0  0  0  0999 V2000
  162.7200  213.2830  148.6410 C   0  0  1  0  0  3  0  0  0  0  0  0
  160.8870  208.4690  149.8260 C   0  0  1  0  0  3  0  0  0  0  0  0
  161.5020  209.5530  154.6360 C   0  0  0  0  0  3  0  0  0  0  0  0
  161.7820  208.2160  154.9200 C   0  0  0  0  0  3  0  0  0  0  0  0
  160.8090  206.0300  149.1930 C   0  0  0  0  0  0  0  0  0  0  0  0
  160.9390  204.6930  149.5570 C   0  0  0  0  0  0  0  0  0  0  0  0
  161.9780  210.3740  148.6490 C   0  0  1  0  0  3  0  0  0  0  0  0
  160.5100  210.7780  150.6480 C   0  0  0  0  0  2  0  0  0  0  0  0
  161.2650  203.0110  150.8280 C   0  0  0  0  0  0  0  0  0  0  0  0
  161.6120  212.7690  149.5610 C   0  0  2  0  0  3  0  0  0  0  0  0
  161.1410  209.9290  153.3410 C   0  0  0  0  0  3  0  0  0  0  0  0
  160.6920  209.3650  150.9760 N   0  0  0  0  0  0  0  0  0  0  0  0
  161.0610  208.9750  152.3140 C   0  0  0  0  0  0  0  0  0  0  0  0
  161.2270  206.6120  151.5350 C   0  0  0  0  0  0  0  0  0  0  0  0
  161.0460  202.5570  149.5370 C   0  0  0  0  0  3  0  0  0  0  0  0
  163.7380  212.2020  148.2110 C   0  0  0  0  0  2  0  0  0  0  0  0
  161.7350  211.2680  149.8810 C   0  0  2  0  0  3  0  0  0  0  0  0
  160.8400  203.6300  148.7320 N   0  0  0  0  0  0  0  0  0  0  0  0
  163.1670  210.8330  147.8030 C   0  0  0  0  0  2  0  0  0  0  0  0
  161.3160  213.0730  148.0940 C   0  0  1  0  0  3  0  0  0  0  0  0
  161.6990  207.2570  153.9100 C   0  0  0  0  0  3  0  0  0  0  0  0
  161.3400  207.6260  152.6030 C   0  0  0  0  0  0  0  0  0  0  0  0
  161.3460  205.2420  151.8330 C   0  0  0  0  0  3  0  0  0  0  0  0
  162.1310  208.9090  149.0520 C   0  0  0  0  0  2  0  0  0  0  0  0
  160.5430  206.3820  147.8740 O   0  0  0  0  0  1  0  0  0  0  0  0
  161.5360  202.1640  152.0230 C   0  0  0  0  0  1  0  0  0  0  0  0
  160.9620  207.0100  150.1990 C   0  0  0  0  0  0  0  0  0  0  0  0
  161.1970  204.3490  150.8250 N   0  0  0  0  0  0  0  0  0  0  0  0
  160.6370  214.3620  147.9990 N   0  0  0  0  0  2  0  0  0  0  0  0
  159.2560  214.1890  147.5390 C   0  0  0  0  0  3  0  0  0  0  0  0
  159.0640  212.8790  146.7890 C   0  0  0  0  0  1  0  0  0  0  0  0
  158.2550  214.3240  148.6760 C   0  0  0  0  0  1  0  0  0  0  0  0
  1 16  1  6  0  0  0
  1 10  1  0  0  0  0
  2 24  1  1  0  0  0
  2 27  1  0  0  0  0
  2 12  1  0  0  0  0
  3  4  1  0  0  0  0
  5  6  1  0  0  0  0
  5 27  2  0  0  0  0
  6 28  1  0  0  0  0
  7 19  1  1  0  0  0
  7 24  1  0  0  0  0
  7 17  1  0  0  0  0
  8 12  1  0  0  0  0
  9 26  1  0  0  0  0
 10 17  1  0  0  0  0
 11  3  2  0  0  0  0
 12 13  1  0  0  0  0
 13 22  2  0  0  0  0
 13 11  1  0  0  0  0
 14 23  2  0  0  0  0
 14 22  1  0  0  0  0
 15  9  2  0  0  0  0
 17  8  1  0  0  0  0
 18 15  1  0  0  0  0
 18  6  2  0  0  0  0
 19 16  1  0  0  0  0
 20  1  1  0  0  0  0
 20 10  1  0  0  0  0
 21  4  2  0  0  0  0
 22 21  1  0  0  0  0
 25  5  1  0  0  0  0
 27 14  1  0  0  0  0
 28  9  1  0  0  0  0
 28 23  1  0  0  0  0
 29 20  1  0  0  0  0
 30 29  1  0  0  0  0
 30 32  1  0  0  0  0
 31 30  1  0  0  0  0
M  END
>  <MODEL>
5

>  <REMARK>
 VINA RESULT:      -2.8      2.704      5.147
  Name = 
  2 active torsions:
  status: ('A' for Active; 'I' for Inactive)
    1  A    between atoms: C_20  and  N_29
    2  A    between atoms: N_29  and  C_30
                            x       y       z     vdW  Elec       q    Type
                         _______ _______ _______ _____ _____    ______ ____

>  <TORSDO>
F 2

$$$$
