=
 OpenBabel11122414413D

 34 40  0  0  1  0  0  0  0  0999 V2000
  160.9370  208.7180  154.0210 C   0  0  1  0  0  3  0  0  0  0  0  0
  162.1520  206.5760  153.3820 C   0  0  0  0  0  2  0  0  0  0  0  0
  157.7480  213.8330  152.0080 C   0  0  0  0  0  0  0  0  0  0  0  0
  159.6750  210.7980  154.5010 C   0  0  2  0  0  3  0  0  0  0  0  0
  159.8370  212.5550  152.7170 C   0  0  2  0  0  3  0  0  0  0  0  0
  159.9500  214.2290  150.7840 C   0  0  0  0  0  1  0  0  0  0  0  0
  157.1160  213.3710  150.9280 C   0  0  0  0  0  2  0  0  0  0  0  0
  157.8460  214.2690  154.4910 C   0  0  0  0  0  2  0  0  0  0  0  0
  162.1180  208.4400  151.8590 C   0  0  2  0  0  3  0  0  0  0  0  0
  161.8520  208.2940  148.6330 C   0  0  0  0  0  2  0  0  0  0  0  0
  160.0090  211.5540  151.7370 O   0  0  0  0  0  0  0  0  0  0  0  0
  158.6360  213.0380  154.9680 C   0  0  0  0  0  2  0  0  0  0  0  0
  161.3250  209.5940  151.2100 C   0  0  1  0  0  3  0  0  0  0  0  0
  162.8640  205.8170  151.8840 S   0  0  0  0  0  0  0  0  0  0  0  0
  158.9680  212.0030  153.8820 C   0  0  2  0  0  3  0  0  0  0  0  0
  156.9490  214.0120  153.2730 C   0  0  0  0  0  2  0  0  0  0  0  0
  161.7850  207.1280  149.6370 C   0  0  1  0  0  3  0  0  0  0  0  0
  160.0990  209.8310  153.3960 C   0  0  1  0  0  3  0  0  0  0  0  0
  159.2580  213.8300  152.0820 C   0  0  1  0  0  3  0  0  0  0  0  0
  160.8610  210.5800  152.2930 C   0  0  2  0  0  3  0  0  0  0  0  0
  159.6280  209.1790  156.0900 C   0  0  0  0  0  2  0  0  0  0  0  0
  162.7620  209.4490  149.0640 C   0  0  0  0  0  2  0  0  0  0  0  0
  158.8290  210.1170  155.4000 O   0  0  0  0  0  0  0  0  0  0  0  0
  162.1310  210.3420  150.1380 C   0  0  0  0  0  2  0  0  0  0  0  0
  162.6300  207.3510  150.9150 C   0  0  1  0  0  3  0  0  0  0  0  0
  160.1190  208.0750  155.1410 C   0  0  0  0  0  2  0  0  0  0  0  0
  161.2970  207.7320  152.9170 C   0  0  2  0  0  3  0  0  0  0  0  0
  160.3200  206.8050  149.9180 C   0  0  0  0  0  2  0  0  0  0  0  0
  159.8880  205.7470  149.1170 O   0  0  0  0  0  0  0  0  0  0  0  0
  160.8300  202.5820  150.0170 C   0  0  0  0  0  2  0  0  0  0  0  0
  161.0930  203.9620  148.1070 C   0  0  0  0  0  2  0  0  0  0  0  0
  160.7890  204.7140  149.3820 C   0  0  2  0  0  3  0  0  0  0  0  0
  161.1380  202.5280  148.5390 C   0  0  0  0  0  2  0  0  0  0  0  0
  160.2280  203.8160  150.3010 O   0  0  0  0  0  0  0  0  0  0  0  0
  1 26  1  1  0  0  0
  3 19  1  0  0  0  0
  3 16  1  0  0  0  0
  4 23  1  1  0  0  0
  5 11  1  6  0  0  0
  5 15  1  0  0  0  0
  6 19  1  0  0  0  0
  7  3  2  0  0  0  0
  8 12  1  0  0  0  0
  9 27  1  0  0  0  0
 10 22  1  0  0  0  0
 10 17  1  0  0  0  0
 11 20  1  0  0  0  0
 13  9  1  0  0  0  0
 13 20  1  0  0  0  0
 14  2  1  0  0  0  0
 15  4  1  0  0  0  0
 15 12  1  0  0  0  0
 16  8  1  0  0  0  0
 17 28  1  0  0  0  0
 17 25  1  0  0  0  0
 18  1  1  0  0  0  0
 18  4  1  0  0  0  0
 19  5  1  0  0  0  0
 20 18  1  0  0  0  0
 22 24  1  0  0  0  0
 23 21  1  0  0  0  0
 24 13  1  0  0  0  0
 25  9  1  0  0  0  0
 25 14  1  0  0  0  0
 26 21  1  0  0  0  0
 27  2  1  0  0  0  0
 27  1  1  0  0  0  0
 29 32  1  0  0  0  0
 29 28  1  0  0  0  0
 30 34  1  0  0  0  0
 31 33  1  0  0  0  0
 31 32  1  0  0  0  0
 32 34  1  0  0  0  0
 33 30  1  0  0  0  0
M  END
>  <MODEL>
1

>  <REMARK>
 VINA RESULT:      -6.5      0.000      0.000
  Name = 
  3 active torsions:
  status: ('A' for Active; 'I' for Inactive)
    1  A    between atoms: C_17  and  C_28
    2  A    between atoms: C_28  and  O_29
    3  A    between atoms: O_29  and  C_32
                            x       y       z     vdW  Elec       q    Type
                         _______ _______ _______ _____ _____    ______ ____

>  <TORSDO>
F 3

$$$$
=
 OpenBabel11122414413D

 34 40  0  0  1  0  0  0  0  0999 V2000
  160.9270  208.4550  153.9230 C   0  0  1  0  0  3  0  0  0  0  0  0
  162.1790  206.4230  153.0430 C   0  0  0  0  0  2  0  0  0  0  0  0
  157.6680  213.7260  152.5110 C   0  0  0  0  0  0  0  0  0  0  0  0
  159.6290  210.4440  154.6390 C   0  0  2  0  0  3  0  0  0  0  0  0
  159.7730  212.4030  153.0780 C   0  0  2  0  0  3  0  0  0  0  0  0
  159.8710  214.2990  151.3600 C   0  0  0  0  0  1  0  0  0  0  0  0
  157.0500  213.3870  151.3780 C   0  0  0  0  0  2  0  0  0  0  0  0
  157.7460  213.8630  155.0290 C   0  0  0  0  0  2  0  0  0  0  0  0
  162.1250  208.4560  151.7530 C   0  0  2  0  0  3  0  0  0  0  0  0
  161.8800  208.6920  148.5300 C   0  0  0  0  0  2  0  0  0  0  0  0
  159.9670  211.5300  151.9870 O   0  0  0  0  0  0  0  0  0  0  0  0
  158.5520  212.5960  155.3620 C   0  0  0  0  0  2  0  0  0  0  0  0
  161.3180  209.6670  151.2410 C   0  0  1  0  0  3  0  0  0  0  0  0
  162.9120  205.8600  151.4710 S   0  0  0  0  0  0  0  0  0  0  0  0
  158.9070  211.7040  154.1630 C   0  0  2  0  0  3  0  0  0  0  0  0
  156.8590  213.7400  153.7830 C   0  0  0  0  0  2  0  0  0  0  0  0
  161.8250  207.4140  149.3870 C   0  0  1  0  0  3  0  0  0  0  0  0
  160.0750  209.6230  153.4300 C   0  0  1  0  0  3  0  0  0  0  0  0
  159.1780  213.7370  152.5960 C   0  0  1  0  0  3  0  0  0  0  0  0
  160.8320  210.5090  152.4300 C   0  0  2  0  0  3  0  0  0  0  0  0
  159.5990  208.6460  156.0230 C   0  0  0  0  0  2  0  0  0  0  0  0
  162.7690  209.8010  149.1030 C   0  0  0  0  0  2  0  0  0  0  0  0
  158.7890  209.6480  155.4440 O   0  0  0  0  0  0  0  0  0  0  0  0
  162.1170  210.5500  150.2720 C   0  0  0  0  0  2  0  0  0  0  0  0
  162.6590  207.4950  150.6890 C   0  0  1  0  0  3  0  0  0  0  0  0
  160.1120  207.6710  154.9520 C   0  0  0  0  0  2  0  0  0  0  0  0
  161.3090  207.6140  152.7120 C   0  0  2  0  0  3  0  0  0  0  0  0
  160.3640  207.0380  149.6170 C   0  0  0  0  0  2  0  0  0  0  0  0
  160.0480  205.8590  148.9390 O   0  0  0  0  0  0  0  0  0  0  0  0
  162.0550  204.1290  146.7730 C   0  0  0  0  0  2  0  0  0  0  0  0
  160.5570  205.9610  146.6180 C   0  0  0  0  0  2  0  0  0  0  0  0
  161.0790  205.6990  148.0110 C   0  0  2  0  0  3  0  0  0  0  0  0
  161.2300  204.9140  145.7810 C   0  0  0  0  0  2  0  0  0  0  0  0
  161.5640  204.3850  148.0610 O   0  0  0  0  0  0  0  0  0  0  0  0
  1 26  1  1  0  0  0
  3 19  1  0  0  0  0
  3 16  1  0  0  0  0
  4 23  1  1  0  0  0
  5 11  1  6  0  0  0
  5 15  1  0  0  0  0
  6 19  1  0  0  0  0
  7  3  2  0  0  0  0
  8 12  1  0  0  0  0
  9 27  1  0  0  0  0
 10 22  1  0  0  0  0
 10 17  1  0  0  0  0
 11 20  1  0  0  0  0
 13  9  1  0  0  0  0
 13 20  1  0  0  0  0
 14  2  1  0  0  0  0
 15  4  1  0  0  0  0
 15 12  1  0  0  0  0
 16  8  1  0  0  0  0
 17 28  1  0  0  0  0
 17 25  1  0  0  0  0
 18  1  1  0  0  0  0
 18  4  1  0  0  0  0
 19  5  1  0  0  0  0
 20 18  1  0  0  0  0
 22 24  1  0  0  0  0
 23 21  1  0  0  0  0
 24 13  1  0  0  0  0
 25 14  1  0  0  0  0
 25  9  1  0  0  0  0
 26 21  1  0  0  0  0
 27  2  1  0  0  0  0
 27  1  1  0  0  0  0
 29 28  1  0  0  0  0
 30 34  1  0  0  0  0
 31 32  1  0  0  0  0
 32 34  1  0  0  0  0
 32 29  1  0  0  0  0
 33 31  1  0  0  0  0
 33 30  1  0  0  0  0
M  END
>  <MODEL>
2

>  <REMARK>
 VINA RESULT:      -5.6      1.042      1.202
  Name = 
  3 active torsions:
  status: ('A' for Active; 'I' for Inactive)
    1  A    between atoms: C_17  and  C_28
    2  A    between atoms: C_28  and  O_29
    3  A    between atoms: O_29  and  C_32
                            x       y       z     vdW  Elec       q    Type
                         _______ _______ _______ _____ _____    ______ ____

>  <TORSDO>
F 3

$$$$
=
 OpenBabel11122414413D

 34 40  0  0  1  0  0  0  0  0999 V2000
  160.6220  212.3660  151.7130 C   0  0  1  0  0  3  0  0  0  0  0  0
  159.6370  213.9830  153.4130 C   0  0  0  0  0  2  0  0  0  0  0  0
  161.4170  206.3070  149.9680 C   0  0  0  0  0  0  0  0  0  0  0  0
  161.4730  210.6800  150.1060 C   0  0  2  0  0  3  0  0  0  0  0  0
  162.0870  208.4740  151.1330 C   0  0  2  0  0  3  0  0  0  0  0  0
  162.5580  206.2180  152.2480 C   0  0  0  0  0  1  0  0  0  0  0  0
  160.2920  205.7340  150.3980 C   0  0  0  0  0  2  0  0  0  0  0  0
  162.7470  207.5030  148.1880 C   0  0  0  0  0  2  0  0  0  0  0  0
  160.3080  211.7750  154.1010 C   0  0  2  0  0  3  0  0  0  0  0  0
  158.7870  209.8710  156.2370 C   0  0  0  0  0  2  0  0  0  0  0  0
  161.1200  208.6660  152.1430 O   0  0  0  0  0  0  0  0  0  0  0  0
  162.5660  208.9660  148.6280 C   0  0  0  0  0  2  0  0  0  0  0  0
  160.3670  210.2640  153.7950 C   0  0  1  0  0  3  0  0  0  0  0  0
  158.9640  213.9230  155.1070 S   0  0  0  0  0  0  0  0  0  0  0  0
  161.6320  209.1860  149.8280 C   0  0  2  0  0  3  0  0  0  0  0  0
  161.5470  206.5980  148.4950 C   0  0  0  0  0  2  0  0  0  0  0  0
  158.3330  211.2460  155.7100 C   0  0  1  0  0  3  0  0  0  0  0  0
  160.6340  210.8780  151.3690 C   0  0  1  0  0  3  0  0  0  0  0  0
  162.3670  206.9740  150.9380 C   0  0  1  0  0  3  0  0  0  0  0  0
  161.1860  210.0220  152.5180 C   0  0  2  0  0  3  0  0  0  0  0  0
  160.9480  212.7220  149.2700 C   0  0  0  0  0  2  0  0  0  0  0  0
  160.3060  209.6940  156.3180 C   0  0  0  0  0  2  0  0  0  0  0  0
  160.8380  211.3340  149.0310 O   0  0  0  0  0  0  0  0  0  0  0  0
  160.9560  209.4440  154.9520 C   0  0  0  0  0  2  0  0  0  0  0  0
  159.5010  212.1890  155.3320 C   0  0  1  0  0  3  0  0  0  0  0  0
  160.1160  213.1350  150.4930 C   0  0  0  0  0  2  0  0  0  0  0  0
  159.7310  212.5520  152.9360 C   0  0  2  0  0  3  0  0  0  0  0  0
  157.3270  211.0330  154.5830 C   0  0  0  0  0  2  0  0  0  0  0  0
  156.0210  211.0730  155.0770 O   0  0  0  0  0  0  0  0  0  0  0  0
  154.8350  214.1110  156.1150 C   0  0  0  0  0  2  0  0  0  0  0  0
  155.1180  211.9670  157.0880 C   0  0  0  0  0  2  0  0  0  0  0  0
  155.9810  212.2190  155.8730 C   0  0  2  0  0  3  0  0  0  0  0  0
  154.3600  213.2480  157.2610 C   0  0  0  0  0  2  0  0  0  0  0  0
  155.4240  213.2830  155.1490 O   0  0  0  0  0  0  0  0  0  0  0  0
  1 26  1  6  0  0  0
  1 27  1  0  0  0  0
  2 14  1  0  0  0  0
  3  7  2  0  0  0  0
  3 19  1  0  0  0  0
  4 23  1  6  0  0  0
  4 18  1  0  0  0  0
  5 11  1  1  0  0  0
  8 16  1  0  0  0  0
  8 12  1  0  0  0  0
  9 25  1  0  0  0  0
 10 22  1  0  0  0  0
 11 20  1  0  0  0  0
 12 15  1  0  0  0  0
 13  9  1  0  0  0  0
 13 24  1  0  0  0  0
 14 25  1  0  0  0  0
 15  4  1  0  0  0  0
 15  5  1  0  0  0  0
 16  3  1  0  0  0  0
 17 10  1  0  0  0  0
 18  1  1  0  0  0  0
 18 20  1  0  0  0  0
 19  5  1  0  0  0  0
 19  6  1  0  0  0  0
 20 13  1  0  0  0  0
 21 26  1  0  0  0  0
 23 21  1  0  0  0  0
 24 22  1  0  0  0  0
 25 17  1  0  0  0  0
 27  2  1  0  0  0  0
 27  9  1  0  0  0  0
 28 29  1  0  0  0  0
 28 17  1  0  0  0  0
 29 32  1  0  0  0  0
 30 33  1  0  0  0  0
 31 33  1  0  0  0  0
 32 31  1  0  0  0  0
 34 32  1  0  0  0  0
 34 30  1  0  0  0  0
M  END
>  <MODEL>
3

>  <REMARK>
 VINA RESULT:      -4.1      2.671      8.239
  Name = 
  3 active torsions:
  status: ('A' for Active; 'I' for Inactive)
    1  A    between atoms: C_17  and  C_28
    2  A    between atoms: C_28  and  O_29
    3  A    between atoms: O_29  and  C_32
                            x       y       z     vdW  Elec       q    Type
                         _______ _______ _______ _____ _____    ______ ____

>  <TORSDO>
F 3

$$$$
=
 OpenBabel11122414413D

 34 40  0  0  1  0  0  0  0  0999 V2000
  161.6100  210.3730  152.1490 C   0  0  1  0  0  3  0  0  0  0  0  0
  161.1120  211.9490  154.0820 C   0  0  0  0  0  2  0  0  0  0  0  0
  160.8240  204.5750  149.6670 C   0  0  0  0  0  0  0  0  0  0  0  0
  161.9640  208.7510  150.3070 C   0  0  2  0  0  3  0  0  0  0  0  0
  162.0470  206.3490  151.0300 C   0  0  2  0  0  3  0  0  0  0  0  0
  161.9800  203.9230  151.8450 C   0  0  0  0  0  1  0  0  0  0  0  0
  159.6060  204.2410  150.0980 C   0  0  0  0  0  2  0  0  0  0  0  0
  162.3490  205.6320  147.9570 C   0  0  0  0  0  2  0  0  0  0  0  0
  161.2380  209.5760  154.4660 C   0  0  2  0  0  3  0  0  0  0  0  0
  159.3630  207.8390  156.4590 C   0  0  0  0  0  2  0  0  0  0  0  0
  161.1910  206.6390  152.1150 O   0  0  0  0  0  0  0  0  0  0  0  0
  162.5500  207.0270  148.5750 C   0  0  0  0  0  2  0  0  0  0  0  0
  160.9110  208.1470  153.9850 C   0  0  1  0  0  3  0  0  0  0  0  0
  160.5020  211.8390  155.7970 S   0  0  0  0  0  0  0  0  0  0  0  0
  161.7390  207.3110  149.8480 C   0  0  2  0  0  3  0  0  0  0  0  0
  160.9730  205.0120  148.2320 C   0  0  0  0  0  2  0  0  0  0  0  0
  159.2470  209.3380  156.1250 C   0  0  1  0  0  3  0  0  0  0  0  0
  161.2430  208.9830  151.6340 C   0  0  1  0  0  3  0  0  0  0  0  0
  161.9400  204.8640  150.6460 C   0  0  1  0  0  3  0  0  0  0  0  0
  161.6020  207.8800  152.6400 C   0  0  2  0  0  3  0  0  0  0  0  0
  161.9350  210.9490  149.7470 C   0  0  0  0  0  2  0  0  0  0  0  0
  160.7930  207.2920  156.4240 C   0  0  0  0  0  2  0  0  0  0  0  0
  161.4770  209.6710  149.3570 O   0  0  0  0  0  0  0  0  0  0  0  0
  161.3160  207.0680  155.0000 C   0  0  0  0  0  2  0  0  0  0  0  0
  160.5990  210.0120  155.7860 C   0  0  1  0  0  3  0  0  0  0  0  0
  161.2710  211.3910  151.0600 C   0  0  0  0  0  2  0  0  0  0  0  0
  160.8340  210.6120  153.4380 C   0  0  2  0  0  3  0  0  0  0  0  0
  158.1830  209.5210  155.0470 C   0  0  0  0  0  2  0  0  0  0  0  0
  157.0400  210.1170  155.5810 O   0  0  0  0  0  0  0  0  0  0  0  0
  156.9840  212.9740  153.6990 C   0  0  0  0  0  2  0  0  0  0  0  0
  155.9370  212.2220  155.6890 C   0  0  0  0  0  2  0  0  0  0  0  0
  157.2050  211.4800  155.3330 C   0  0  2  0  0  3  0  0  0  0  0  0
  155.7990  213.2400  154.5970 C   0  0  0  0  0  2  0  0  0  0  0  0
  157.4700  211.6880  153.9720 O   0  0  0  0  0  0  0  0  0  0  0  0
  1 26  1  6  0  0  0
  1 27  1  0  0  0  0
  2 14  1  0  0  0  0
  3  7  2  0  0  0  0
  3 19  1  0  0  0  0
  4 23  1  6  0  0  0
  4 18  1  0  0  0  0
  5 11  1  1  0  0  0
  8 16  1  0  0  0  0
  8 12  1  0  0  0  0
  9 25  1  0  0  0  0
 11 20  1  0  0  0  0
 12 15  1  0  0  0  0
 13  9  1  0  0  0  0
 13 24  1  0  0  0  0
 15  4  1  0  0  0  0
 15  5  1  0  0  0  0
 16  3  1  0  0  0  0
 17 10  1  0  0  0  0
 18  1  1  0  0  0  0
 18 20  1  0  0  0  0
 19  5  1  0  0  0  0
 19  6  1  0  0  0  0
 20 13  1  0  0  0  0
 21 26  1  0  0  0  0
 22 10  1  0  0  0  0
 23 21  1  0  0  0  0
 24 22  1  0  0  0  0
 25 14  1  0  0  0  0
 25 17  1  0  0  0  0
 27  2  1  0  0  0  0
 27  9  1  0  0  0  0
 28 29  1  0  0  0  0
 28 17  1  0  0  0  0
 30 34  1  0  0  0  0
 30 33  1  0  0  0  0
 32 29  1  0  0  0  0
 32 31  1  0  0  0  0
 33 31  1  0  0  0  0
 34 32  1  0  0  0  0
M  END
>  <MODEL>
4

>  <REMARK>
 VINA RESULT:      -3.8      2.263      7.957
  Name = 
  3 active torsions:
  status: ('A' for Active; 'I' for Inactive)
    1  A    between atoms: C_17  and  C_28
    2  A    between atoms: C_28  and  O_29
    3  A    between atoms: O_29  and  C_32
                            x       y       z     vdW  Elec       q    Type
                         _______ _______ _______ _____ _____    ______ ____

>  <TORSDO>
F 3

$$$$
