=
 OpenBabel11122412533D

 32 38  0  0  1  0  0  0  0  0999 V2000
  161.2530  201.5480  148.9450 C   0  0  1  0  0  3  0  0  0  0  0  0
  161.1860  206.0860  151.6770 C   0  0  0  0  0  0  0  0  0  0  0  0
  161.9840  209.4960  148.2650 C   0  0  0  0  0  3  0  0  0  0  0  0
  162.0130  210.4840  149.2470 C   0  0  0  0  0  3  0  0  0  0  0  0
  161.0020  206.7770  154.0790 C   0  0  0  0  0  0  0  0  0  0  0  0
  161.0440  207.8180  155.0000 C   0  0  0  0  0  0  0  0  0  0  0  0
  160.5980  203.7460  150.9030 C   0  0  1  0  0  3  0  0  0  0  0  0
  161.2710  205.4230  149.2090 C   0  0  0  0  0  2  0  0  0  0  0  0
  161.2270  209.8270  155.7910 C   0  0  0  0  0  0  0  0  0  0  0  0
  161.3080  203.0140  148.5130 C   0  0  2  0  0  3  0  0  0  0  0  0
  161.7750  208.1640  148.6240 C   0  0  0  0  0  3  0  0  0  0  0  0
  161.3850  206.4510  150.3180 C   0  0  0  0  0  0  0  0  0  0  0  0
  161.5900  207.7980  149.9690 C   0  0  0  0  0  0  0  0  0  0  0  0
  161.4240  208.4560  152.3180 C   0  0  0  0  0  0  0  0  0  0  0  0
  160.9960  208.9780  156.8190 N   0  0  0  0  0  0  0  0  0  0  0  0
  161.3910  201.3430  150.4690 C   0  0  0  0  0  2  0  0  0  0  0  0
  161.4920  203.9980  149.6870 C   0  0  2  0  0  3  0  0  0  0  0  0
  160.8820  207.7440  156.3350 N   0  0  0  0  0  2  0  0  0  0  0  0
  160.5530  202.2820  151.3470 C   0  0  0  0  0  2  0  0  0  0  0  0
  159.9790  202.2690  148.5240 C   0  0  1  0  0  3  0  0  0  0  0  0
  161.8300  210.1380  150.5860 C   0  0  0  0  0  3  0  0  0  0  0  0
  161.6170  208.8000  150.9660 C   0  0  0  0  0  0  0  0  0  0  0  0
  161.4530  209.4690  153.3040 C   0  0  0  0  0  3  0  0  0  0  0  0
  161.0820  204.6210  152.0450 C   0  0  0  0  0  2  0  0  0  0  0  0
  160.7580  205.4880  154.5420 O   0  0  0  0  0  1  0  0  0  0  0  0
  161.4070  211.2970  155.9380 C   0  0  0  0  0  1  0  0  0  0  0  0
  161.2030  207.0840  152.6930 C   0  0  0  0  0  0  0  0  0  0  0  0
  161.2590  209.1040  154.6240 C   0  0  0  0  0  0  0  0  0  0  0  0
  159.6220  201.8670  147.1040 C   0  0  0  0  0  2  0  0  0  0  0  0
  160.8800  201.6530  146.2810 C   0  0  1  0  0  3  0  0  0  0  0  0
  160.8800  200.2620  145.6750 C   0  0  0  0  0  1  0  0  0  0  0  0
  160.9260  202.5990  145.2580 O   0  0  0  0  0  1  0  0  0  0  0  0
  1 16  1  1  0  0  0
  2 24  1  0  0  0  0
  2 27  1  0  0  0  0
  3 11  2  0  0  0  0
  3  4  1  0  0  0  0
  4 21  2  0  0  0  0
  5 25  1  0  0  0  0
  5  6  1  0  0  0  0
  6 18  1  0  0  0  0
  7 19  1  1  0  0  0
  7 24  1  0  0  0  0
  8 17  1  0  0  0  0
  8 12  1  0  0  0  0
  9 26  1  0  0  0  0
  9 15  2  0  0  0  0
 10 20  1  0  0  0  0
 10  1  1  0  0  0  0
 10 17  1  0  0  0  0
 11 13  1  0  0  0  0
 12  2  2  0  0  0  0
 13 12  1  0  0  0  0
 13 22  2  0  0  0  0
 14 27  1  0  0  0  0
 14 23  2  0  0  0  0
 16 19  1  0  0  0  0
 17  7  1  0  0  0  0
 18 15  1  0  0  0  0
 20  1  1  0  0  0  0
 21 22  1  0  0  0  0
 22 14  1  0  0  0  0
 23 28  1  0  0  0  0
 27  5  2  0  0  0  0
 28  6  2  0  0  0  0
 28  9  1  0  0  0  0
 29 20  1  0  0  0  0
 30 29  1  0  0  0  0
 31 30  1  0  0  0  0
 32 30  1  0  0  0  0
M  END
>  <MODEL>
1

>  <REMARK>
 VINA RESULT:      -9.4      0.000      0.000
  Name = 
  2 active torsions:
  status: ('A' for Active; 'I' for Inactive)
    1  A    between atoms: C_20  and  C_29
    2  A    between atoms: C_29  and  C_30
                            x       y       z     vdW  Elec       q    Type
                         _______ _______ _______ _____ _____    ______ ____

>  <TORSDO>
F 2

$$$$
=
 OpenBabel11122412533D

 32 38  0  0  1  0  0  0  0  0999 V2000
  161.6520  209.9030  154.6000 C   0  0  1  0  0  3  0  0  0  0  0  0
  161.1420  206.6890  150.4200 C   0  0  0  0  0  0  0  0  0  0  0  0
  160.9480  202.2290  152.4150 C   0  0  0  0  0  3  0  0  0  0  0  0
  160.9250  201.6530  151.1460 C   0  0  0  0  0  3  0  0  0  0  0  0
  161.1280  206.9150  147.9240 C   0  0  0  0  0  0  0  0  0  0  0  0
  161.1010  206.2680  146.6940 C   0  0  0  0  0  0  0  0  0  0  0  0
  160.8700  208.6880  151.9530 C   0  0  1  0  0  3  0  0  0  0  0  0
  161.0480  206.4340  152.9630 C   0  0  0  0  0  2  0  0  0  0  0  0
  161.0350  204.6590  145.2450 C   0  0  0  0  0  0  0  0  0  0  0  0
  161.4080  208.3990  154.4780 C   0  0  2  0  0  3  0  0  0  0  0  0
  161.0090  203.6160  152.5480 C   0  0  0  0  0  3  0  0  0  0  0  0
  161.1160  205.8480  151.5650 C   0  0  0  0  0  0  0  0  0  0  0  0
  161.0480  204.4510  151.4170 C   0  0  0  0  0  0  0  0  0  0  0  0
  161.0510  204.6860  148.9840 C   0  0  0  0  0  0  0  0  0  0  0  0
  161.0720  205.8360  144.5800 N   0  0  0  0  0  0  0  0  0  0  0  0
  162.0000  210.5880  153.2600 C   0  0  0  0  0  2  0  0  0  0  0  0
  161.5600  207.8620  153.0400 C   0  0  2  0  0  3  0  0  0  0  0  0
  161.1120  206.8260  145.4690 N   0  0  0  0  0  0  0  0  0  0  0  0
  161.1250  210.1940  152.0630 C   0  0  0  0  0  2  0  0  0  0  0  0
  160.2340  209.3510  154.6700 C   0  0  1  0  0  3  0  0  0  0  0  0
  160.9620  202.4660  150.0140 C   0  0  0  0  0  3  0  0  0  0  0  0
  161.0230  203.8680  150.1290 C   0  0  2  0  0  3  0  0  0  0  0  0
  161.0250  204.0890  147.7020 C   0  0  0  0  0  3  0  0  0  0  0  0
  161.3310  208.1810  150.5980 C   0  0  0  0  0  2  0  0  0  0  0  0
  161.1610  208.3060  147.9440 O   0  0  0  0  0  1  0  0  0  0  0  0
  160.9810  203.3240  144.5890 C   0  0  0  0  0  1  0  0  0  0  0  0
  161.1100  206.1180  149.1160 C   0  0  0  0  0  0  0  0  0  0  0  0
  161.0520  204.9150  146.5930 C   0  0  0  0  0  0  0  0  0  0  0  0
  159.7850  209.3040  156.1190 C   0  0  0  0  0  2  0  0  0  0  0  0
  158.9380  210.5190  156.4530 C   0  0  1  0  0  3  0  0  0  0  0  0
  159.7630  211.5420  157.2120 C   0  0  0  0  0  1  0  0  0  0  0  0
  158.4710  211.0930  155.2710 O   0  0  0  0  0  1  0  0  0  0  0  0
  1 16  1  6  0  0  0
  1 20  1  0  0  0  0
  2 24  1  0  0  0  0
  2 12  1  0  0  0  0
  3 11  2  0  0  0  0
  4  3  1  0  0  0  0
  5 25  1  0  0  0  0
  5 27  1  0  0  0  0
  6  5  2  0  0  0  0
  7 24  1  6  0  0  0
  7 19  1  0  0  0  0
  7 17  1  0  0  0  0
  8 17  1  0  0  0  0
  9 28  2  0  0  0  0
 10  1  1  0  0  0  0
 10 20  1  0  0  0  0
 12  8  1  0  0  0  0
 13 12  2  0  0  0  0
 13 11  1  0  0  0  0
 14 27  1  0  0  0  0
 14 22  1  0  0  0  0
 15  9  1  0  0  0  0
 15 18  2  0  0  0  0
 17 10  1  0  0  0  0
 18  6  1  0  0  0  0
 19 16  1  0  0  0  0
 20 29  1  0  0  0  0
 21 22  1  0  0  0  0
 21  4  2  0  0  0  0
 22 13  1  0  0  0  0
 23 14  2  0  0  0  0
 26  9  1  0  0  0  0
 27  2  2  0  0  0  0
 28  6  1  0  0  0  0
 28 23  1  0  0  0  0
 29 30  1  0  0  0  0
 30 31  1  0  0  0  0
 32 30  1  0  0  0  0
M  END
>  <MODEL>
2

>  <REMARK>
 VINA RESULT:      -8.6      3.539      8.841
  Name = 
  2 active torsions:
  status: ('A' for Active; 'I' for Inactive)
    1  A    between atoms: C_20  and  C_29
    2  A    between atoms: C_29  and  C_30
                            x       y       z     vdW  Elec       q    Type
                         _______ _______ _______ _____ _____    ______ ____

>  <TORSDO>
F 2

$$$$
=
 OpenBabel11122412533D

 32 38  0  0  1  0  0  0  0  0999 V2000
  161.5850  201.5710  147.4520 C   0  0  1  0  0  3  0  0  0  0  0  0
  161.2360  205.6430  150.8220 C   0  0  0  0  0  0  0  0  0  0  0  0
  162.3310  209.5230  148.0560 C   0  0  0  0  0  3  0  0  0  0  0  0
  162.2610  210.3510  149.1750 C   0  0  0  0  0  3  0  0  0  0  0  0
  160.8240  205.9630  153.2730 C   0  0  0  0  0  0  0  0  0  0  0  0
  160.7730  206.8520  154.3410 C   0  0  0  0  0  0  0  0  0  0  0  0
  160.7370  203.4520  149.6500 C   0  0  1  0  0  3  0  0  0  0  0  0
  161.5560  205.3600  148.3000 C   0  0  0  0  0  2  0  0  0  0  0  0
  160.8700  208.7160  155.4410 C   0  0  0  0  0  0  0  0  0  0  0  0
  161.6720  203.0840  147.2540 C   0  0  2  0  0  3  0  0  0  0  0  0
  162.0960  208.1540  148.1880 C   0  0  0  0  0  3  0  0  0  0  0  0
  161.5600  206.2070  149.5590 C   0  0  0  0  0  0  0  0  0  0  0  0
  161.7880  207.5900  149.4380 C   0  0  0  0  0  0  0  0  0  0  0  0
  161.4000  207.8860  151.8340 C   0  0  0  0  0  0  0  0  0  0  0  0
  160.5480  207.7240  156.3020 N   0  0  0  0  0  0  0  0  0  0  0  0
  161.5810  201.1350  148.9330 C   0  0  0  0  0  2  0  0  0  0  0  0
  161.7390  203.8770  148.5760 C   0  0  2  0  0  3  0  0  0  0  0  0
  160.4870  206.5780  155.6280 N   0  0  0  0  0  2  0  0  0  0  0  0
  160.6590  201.9380  149.8610 C   0  0  0  0  0  2  0  0  0  0  0  0
  160.3520  202.3570  147.0270 C   0  0  1  0  0  3  0  0  0  0  0  0
  161.9560  209.8080  150.4230 C   0  0  0  0  0  3  0  0  0  0  0  0
  161.7160  208.4290  150.5740 C   0  0  0  0  0  0  0  0  0  0  0  0
  161.3300  208.7370  152.9610 C   0  0  0  0  0  3  0  0  0  0  0  0
  161.1070  204.1390  150.9520 C   0  0  0  0  0  2  0  0  0  0  0  0
  160.5460  204.6210  153.5100 O   0  0  0  0  0  1  0  0  0  0  0  0
  161.0270  210.1450  155.8250 C   0  0  0  0  0  1  0  0  0  0  0  0
  161.1520  206.4750  151.9740 C   0  0  0  0  0  0  0  0  0  0  0  0
  161.0160  208.1790  154.1870 C   0  0  0  0  0  0  0  0  0  0  0  0
  160.1320  202.1790  145.5360 C   0  0  0  0  0  2  0  0  0  0  0  0
  159.6830  203.4850  144.9050 C   0  0  1  0  0  3  0  0  0  0  0  0
  160.8880  204.3250  144.5250 C   0  0  0  0  0  1  0  0  0  0  0  0
  158.9360  203.2100  143.7610 O   0  0  0  0  0  1  0  0  0  0  0  0
  1 16  1  1  0  0  0
  2 24  1  0  0  0  0
  2 27  1  0  0  0  0
  3 11  2  0  0  0  0
  3  4  1  0  0  0  0
  4 21  2  0  0  0  0
  5 25  1  0  0  0  0
  5  6  1  0  0  0  0
  6 18  1  0  0  0  0
  7 19  1  1  0  0  0
  7 24  1  0  0  0  0
  8 17  1  0  0  0  0
  8 12  1  0  0  0  0
  9 26  1  0  0  0  0
  9 15  2  0  0  0  0
 10  1  1  0  0  0  0
 10 17  1  0  0  0  0
 11 13  1  0  0  0  0
 12  2  2  0  0  0  0
 13 12  1  0  0  0  0
 13 22  2  0  0  0  0
 14 27  1  0  0  0  0
 14 23  2  0  0  0  0
 16 19  1  0  0  0  0
 17  7  1  0  0  0  0
 18 15  1  0  0  0  0
 20 10  1  0  0  0  0
 20  1  1  0  0  0  0
 21 22  1  0  0  0  0
 22 14  1  0  0  0  0
 23 28  1  0  0  0  0
 27  5  2  0  0  0  0
 28  6  2  0  0  0  0
 28  9  1  0  0  0  0
 29 20  1  0  0  0  0
 30 29  1  0  0  0  0
 31 30  1  0  0  0  0
 32 30  1  0  0  0  0
M  END
>  <MODEL>
3

>  <REMARK>
 VINA RESULT:      -8.5      1.193      1.461
  Name = 
  2 active torsions:
  status: ('A' for Active; 'I' for Inactive)
    1  A    between atoms: C_20  and  C_29
    2  A    between atoms: C_29  and  C_30
                            x       y       z     vdW  Elec       q    Type
                         _______ _______ _______ _____ _____    ______ ____

>  <TORSDO>
F 2

$$$$
=
 OpenBabel11122412533D

 32 38  0  0  1  0  0  0  0  0999 V2000
  161.8150  202.6510  146.9080 C   0  0  1  0  0  3  0  0  0  0  0  0
  161.2950  206.2640  150.7470 C   0  0  0  0  0  0  0  0  0  0  0  0
  162.3310  210.4830  148.5030 C   0  0  0  0  0  3  0  0  0  0  0  0
  162.2190  211.1640  149.7140 C   0  0  0  0  0  3  0  0  0  0  0  0
  160.8310  206.2680  153.2090 C   0  0  0  0  0  0  0  0  0  0  0  0
  160.7370  207.0170  154.3780 C   0  0  0  0  0  0  0  0  0  0  0  0
  160.8760  204.2240  149.3030 C   0  0  1  0  0  3  0  0  0  0  0  0
  161.6670  206.3040  148.2170 C   0  0  0  0  0  2  0  0  0  0  0  0
  160.7630  208.7320  155.7010 C   0  0  0  0  0  0  0  0  0  0  0  0
  161.8640  204.1790  146.9000 C   0  0  2  0  0  3  0  0  0  0  0  0
  162.1320  209.1030  148.4610 C   0  0  0  0  0  3  0  0  0  0  0  0
  161.6250  206.9880  149.5700 C   0  0  0  0  0  0  0  0  0  0  0  0
  161.8180  208.3810  149.6250 C   0  0  0  0  0  0  0  0  0  0  0  0
  161.3790  208.3680  152.0300 C   0  0  0  0  0  0  0  0  0  0  0  0
  160.4540  207.6330  156.4260 N   0  0  0  0  0  0  0  0  0  0  0  0
  161.7970  202.0350  148.3240 C   0  0  0  0  0  2  0  0  0  0  0  0
  161.8860  204.8030  148.3110 C   0  0  2  0  0  3  0  0  0  0  0  0
  160.4360  206.5780  155.6150 N   0  0  0  0  0  2  0  0  0  0  0  0
  160.8370  202.6930  149.3250 C   0  0  0  0  0  2  0  0  0  0  0  0
  160.5680  203.4520  146.5580 C   0  0  1  0  0  3  0  0  0  0  0  0
  161.9070  210.4630  150.8790 C   0  0  0  0  0  3  0  0  0  0  0  0
  161.7030  209.0700  150.8540 C   0  0  0  0  0  0  0  0  0  0  0  0
  161.2660  209.0710  153.2520 C   0  0  0  0  0  3  0  0  0  0  0  0
  161.2050  204.7530  150.6880 C   0  0  0  0  0  2  0  0  0  0  0  0
  160.5850  204.9010  153.2730 O   0  0  0  0  0  1  0  0  0  0  0  0
  160.8740  210.1060  156.2610 C   0  0  0  0  0  1  0  0  0  0  0  0
  161.1680  206.9450  151.9910 C   0  0  0  0  0  0  0  0  0  0  0  0
  160.9460  208.3580  154.3930 C   0  0  0  0  0  0  0  0  0  0  0  0
  160.3790  203.4540  145.0520 C   0  0  0  0  0  2  0  0  0  0  0  0
  160.4710  204.8680  144.5070 C   0  0  1  0  0  3  0  0  0  0  0  0
  159.7180  205.8280  145.4080 C   0  0  0  0  0  1  0  0  0  0  0  0
  161.8100  205.2510  144.4450 O   0  0  0  0  0  1  0  0  0  0  0  0
  1 16  1  1  0  0  0
  2 27  1  0  0  0  0
  3  4  1  0  0  0  0
  4 21  2  0  0  0  0
  5 25  1  0  0  0  0
  5  6  1  0  0  0  0
  6 28  2  0  0  0  0
  6 18  1  0  0  0  0
  7 19  1  1  0  0  0
  7 24  1  0  0  0  0
  8 17  1  0  0  0  0
  8 12  1  0  0  0  0
  9 26  1  0  0  0  0
  9 15  2  0  0  0  0
 10  1  1  0  0  0  0
 10 17  1  0  0  0  0
 11  3  2  0  0  0  0
 11 13  1  0  0  0  0
 12 13  1  0  0  0  0
 12  2  2  0  0  0  0
 13 22  2  0  0  0  0
 14 23  2  0  0  0  0
 16 19  1  0  0  0  0
 17  7  1  0  0  0  0
 18 15  1  0  0  0  0
 20 10  1  0  0  0  0
 20  1  1  0  0  0  0
 22 21  1  0  0  0  0
 22 14  1  0  0  0  0
 23 28  1  0  0  0  0
 24  2  1  0  0  0  0
 27 14  1  0  0  0  0
 27  5  2  0  0  0  0
 28  9  1  0  0  0  0
 29 20  1  0  0  0  0
 30 29  1  0  0  0  0
 30 31  1  0  0  0  0
 32 30  1  0  0  0  0
M  END
>  <MODEL>
4

>  <REMARK>
 VINA RESULT:      -8.4      1.518      1.896
  Name = 
  2 active torsions:
  status: ('A' for Active; 'I' for Inactive)
    1  A    between atoms: C_20  and  C_29
    2  A    between atoms: C_29  and  C_30
                            x       y       z     vdW  Elec       q    Type
                         _______ _______ _______ _____ _____    ______ ____

>  <TORSDO>
F 2

$$$$
