=
 OpenBabel11122412493D

 32 37  0  0  1  0  0  0  0  0999 V2000
  161.9920  201.7340  150.1920 C   0  0  0  0  0  2  0  0  0  0  0  0
  160.8170  206.7740  152.0820 C   0  0  1  0  0  3  0  0  0  0  0  0
  162.0160  209.9970  148.5010 C   0  0  0  0  0  3  0  0  0  0  0  0
  162.1210  211.0290  149.4310 C   0  0  0  0  0  3  0  0  0  0  0  0
  160.8260  207.6350  154.4670 C   0  0  0  0  0  0  0  0  0  0  0  0
  161.2020  208.6870  155.4190 C   0  0  0  0  0  0  0  0  0  0  0  0
  160.5390  204.3390  151.5200 C   0  0  1  0  0  3  0  0  0  0  0  0
  161.0690  206.0130  149.7070 C   0  0  0  0  0  2  0  0  0  0  0  0
  162.0760  210.7170  156.0470 N   0  0  0  0  0  0  0  0  0  0  0  0
  160.7250  203.6390  149.0440 C   0  0  0  0  0  2  0  0  0  0  0  0
  161.8160  208.6850  148.9380 C   0  0  0  0  0  3  0  0  0  0  0  0
  161.6170  206.9630  150.7780 C   0  0  1  0  0  3  0  0  0  0  0  0
  161.6960  208.3930  150.3070 C   0  0  0  0  0  0  0  0  0  0  0  0
  161.7050  209.1450  152.6950 C   0  0  0  0  0  0  0  0  0  0  0  0
  161.6050  209.9240  157.2040 C   0  0  0  0  0  2  0  0  0  0  0  0
  162.0020  202.2350  151.6470 C   0  0  0  0  0  2  0  0  0  0  0  0
  161.2270  204.5650  150.1550 C   0  0  2  0  0  3  0  0  0  0  0  0
  161.0670  208.6550  156.6920 N   0  0  0  0  0  0  0  0  0  0  0  0
  160.6980  202.9170  152.0780 C   0  0  0  0  0  2  0  0  0  0  0  0
  160.7500  202.1470  149.3890 C   0  0  1  0  0  3  0  0  0  0  0  0
  162.0300  210.7490  150.7950 C   0  0  0  0  0  3  0  0  0  0  0  0
  161.8270  209.4330  151.2480 C   0  0  0  0  0  0  0  0  0  0  0  0
  162.0160  210.1050  153.5880 C   0  0  0  0  0  3  0  0  0  0  0  0
  161.0730  205.3350  152.5460 C   0  0  0  0  0  2  0  0  0  0  0  0
  160.0660  206.4540  154.9830 C   0  0  0  0  0  1  0  0  0  0  0  0
  161.1910  211.8680  155.9460 C   0  0  0  0  0  1  0  0  0  0  0  0
  161.1510  207.8130  153.1510 C   0  0  0  0  0  0  0  0  0  0  0  0
  161.7880  209.8650  154.9750 N   0  0  0  0  0  0  0  0  0  0  0  0
  160.6470  201.3360  148.1090 C   0  0  0  0  0  2  0  0  0  0  0  0
  161.0200  202.1640  146.9270 C   0  0  0  0  0  0  0  0  0  0  0  0
  161.9870  203.1530  147.0490 O   0  0  0  0  0  1  0  0  0  0  0  0
  160.4810  201.9470  145.8110 O   0  0  0  0  0  0  0  0  0  0  0  0
  1 16  1  0  0  0  0
  2 24  1  1  0  0  0
  2 27  1  0  0  0  0
  3 11  2  0  0  0  0
  3  4  1  0  0  0  0
  4 21  2  0  0  0  0
  5 25  1  0  0  0  0
  5  6  1  0  0  0  0
  6 18  2  0  0  0  0
  7 19  1  1  0  0  0
  7 24  1  0  0  0  0
  8 17  1  0  0  0  0
  9 15  1  0  0  0  0
 10 20  1  0  0  0  0
 11 13  1  0  0  0  0
 12  8  1  6  0  0  0
 12  2  1  0  0  0  0
 13 12  1  0  0  0  0
 13 22  2  0  0  0  0
 14 27  1  0  0  0  0
 14 23  2  0  0  0  0
 16 19  1  0  0  0  0
 17 10  1  6  0  0  0
 17  7  1  0  0  0  0
 18 15  1  0  0  0  0
 20 29  1  6  0  0  0
 20  1  1  0  0  0  0
 21 22  1  0  0  0  0
 22 14  1  0  0  0  0
 23 28  1  0  0  0  0
 26  9  1  0  0  0  0
 27  5  2  0  0  0  0
 28  6  1  0  0  0  0
 28  9  1  0  0  0  0
 30 31  1  0  0  0  0
 30 29  1  0  0  0  0
 32 30  2  0  0  0  0
M  END
>  <MODEL>
1

>  <REMARK>
 VINA RESULT:      -9.9      0.000      0.000
  Name = 
  2 active torsions:
  status: ('A' for Active; 'I' for Inactive)
    1  A    between atoms: C_20  and  C_29
    2  A    between atoms: C_29  and  C_30
                            x       y       z     vdW  Elec       q    Type
                         _______ _______ _______ _____ _____    ______ ____

>  <TORSDO>
F 2

$$$$
=
 OpenBabel11122412493D

 32 37  0  0  1  0  0  0  0  0999 V2000
  159.4130  209.0910  156.5230 C   0  0  0  0  0  2  0  0  0  0  0  0
  161.4720  206.4460  152.1520 C   0  0  1  0  0  3  0  0  0  0  0  0
  162.2340  209.8420  148.6110 C   0  0  0  0  0  3  0  0  0  0  0  0
  162.1960  208.8580  147.6250 C   0  0  0  0  0  3  0  0  0  0  0  0
  161.0950  204.0530  151.4010 C   0  0  0  0  0  0  0  0  0  0  0  0
  160.8080  203.1100  150.3140 C   0  0  0  0  0  0  0  0  0  0  0  0
  161.1650  207.1840  154.5350 C   0  0  1  0  0  3  0  0  0  0  0  0
  161.6340  208.8800  152.7260 C   0  0  0  0  0  2  0  0  0  0  0  0
  160.4310  202.4940  148.1320 N   0  0  0  0  0  0  0  0  0  0  0  0
  161.4320  209.6940  155.0700 C   0  0  0  0  0  2  0  0  0  0  0  0
  161.9230  209.5130  149.9320 C   0  0  0  0  0  3  0  0  0  0  0  0
  161.1280  207.8750  151.6860 C   0  0  1  0  0  3  0  0  0  0  0  0
  161.5940  208.1940  150.2880 C   0  0  0  0  0  0  0  0  0  0  0  0
  161.1850  205.8100  149.6410 C   0  0  0  0  0  0  0  0  0  0  0  0
  160.3340  201.3510  149.0660 C   0  0  0  0  0  2  0  0  0  0  0  0
  159.1720  207.6350  156.0870 C   0  0  0  0  0  2  0  0  0  0  0  0
  160.9510  208.6400  154.0680 C   0  0  2  0  0  3  0  0  0  0  0  0
  160.5930  201.8530  150.4230 N   0  0  0  0  0  0  0  0  0  0  0  0
  160.4600  206.8350  155.8550 C   0  0  0  0  0  2  0  0  0  0  0  0
  160.8850  209.5260  156.4910 C   0  0  1  0  0  3  0  0  0  0  0  0
  161.8450  207.5500  147.9590 C   0  0  0  0  0  3  0  0  0  0  0  0
  161.5320  207.2050  149.2870 C   0  0  0  0  0  0  0  0  0  0  0  0
  160.9460  204.9190  148.6590 C   0  0  0  0  0  3  0  0  0  0  0  0
  160.6970  206.2140  153.4540 C   0  0  0  0  0  2  0  0  0  0  0  0
  161.3170  203.5010  152.7730 C   0  0  0  0  0  1  0  0  0  0  0  0
  161.6070  202.2580  147.3080 C   0  0  0  0  0  1  0  0  0  0  0  0
  161.1890  205.3810  151.0920 C   0  0  0  0  0  0  0  0  0  0  0  0
  160.7260  203.5520  148.9990 N   0  0  0  0  0  0  0  0  0  0  0  0
  161.0760  210.8250  157.2550 C   0  0  0  0  0  2  0  0  0  0  0  0
  160.1420  211.8740  156.7580 C   0  0  0  0  0  0  0  0  0  0  0  0
  158.8490  211.9470  157.2590 O   0  0  0  0  0  1  0  0  0  0  0  0
  160.5330  212.7130  155.9050 O   0  0  0  0  0  0  0  0  0  0  0  0
  2 24  1  1  0  0  0
  3 11  1  0  0  0  0
  4 21  1  0  0  0  0
  4  3  2  0  0  0  0
  5 25  1  0  0  0  0
  6 18  2  0  0  0  0
  6  5  1  0  0  0  0
  7 24  1  6  0  0  0
  7 19  1  0  0  0  0
  9 28  1  0  0  0  0
  9 15  1  0  0  0  0
 10 20  1  0  0  0  0
 11 13  2  0  0  0  0
 12  2  1  0  0  0  0
 12  8  1  1  0  0  0
 13 12  1  0  0  0  0
 14 27  1  0  0  0  0
 15 18  1  0  0  0  0
 16  1  1  0  0  0  0
 17  8  1  6  0  0  0
 17  7  1  0  0  0  0
 17 10  1  0  0  0  0
 19 16  1  0  0  0  0
 20  1  1  0  0  0  0
 20 29  1  1  0  0  0
 21 22  2  0  0  0  0
 22 14  1  0  0  0  0
 22 13  1  0  0  0  0
 23 28  1  0  0  0  0
 23 14  2  0  0  0  0
 26  9  1  0  0  0  0
 27  5  2  0  0  0  0
 27  2  1  0  0  0  0
 28  6  1  0  0  0  0
 30 29  1  0  0  0  0
 30 31  1  0  0  0  0
 32 30  2  0  0  0  0
M  END
>  <MODEL>
2

>  <REMARK>
 VINA RESULT:      -8.7      4.643      7.967
  Name = 
  2 active torsions:
  status: ('A' for Active; 'I' for Inactive)
    1  A    between atoms: C_20  and  C_29
    2  A    between atoms: C_29  and  C_30
                            x       y       z     vdW  Elec       q    Type
                         _______ _______ _______ _____ _____    ______ ____

>  <TORSDO>
F 2

$$$$
=
 OpenBabel11122412493D

 32 37  0  0  1  0  0  0  0  0999 V2000
  162.8060  210.3380  153.7580 C   0  0  0  0  0  2  0  0  0  0  0  0
  160.8900  206.6340  150.1580 C   0  0  1  0  0  3  0  0  0  0  0  0
  160.5610  202.2980  152.5530 C   0  0  0  0  0  3  0  0  0  0  0  0
  160.6070  201.6000  151.3480 C   0  0  0  0  0  3  0  0  0  0  0  0
  161.1750  206.5480  147.6390 C   0  0  0  0  0  0  0  0  0  0  0  0
  161.4780  205.7620  146.4380 C   0  0  0  0  0  0  0  0  0  0  0  0
  161.0810  208.7680  151.4720 C   0  0  1  0  0  3  0  0  0  0  0  0
  160.8310  206.5570  152.6620 C   0  0  0  0  0  2  0  0  0  0  0  0
  161.9620  203.8460  145.2660 N   0  0  0  0  0  0  0  0  0  0  0  0
  160.9250  208.6250  154.0440 C   0  0  0  0  0  2  0  0  0  0  0  0
  160.7650  203.6790  152.5650 C   0  0  0  0  0  3  0  0  0  0  0  0
  161.3450  205.8490  151.4040 C   0  0  1  0  0  3  0  0  0  0  0  0
  160.9930  204.3830  151.3700 C   0  0  0  0  0  0  0  0  0  0  0  0
  161.3040  204.3980  148.8860 C   0  0  0  0  0  0  0  0  0  0  0  0
  161.9310  205.0440  144.3990 C   0  0  0  0  0  2  0  0  0  0  0  0
  162.9900  210.3070  152.2300 C   0  0  0  0  0  2  0  0  0  0  0  0
  161.4090  207.9650  152.7500 C   0  0  2  0  0  3  0  0  0  0  0  0
  161.6120  206.2040  145.2440 N   0  0  0  0  0  0  0  0  0  0  0  0
  161.6760  210.1840  151.4480 C   0  0  0  0  0  2  0  0  0  0  0  0
  161.3660  210.0800  154.2270 C   0  0  1  0  0  3  0  0  0  0  0  0
  160.8590  202.2830  150.1580 C   0  0  0  0  0  3  0  0  0  0  0  0
  161.0630  203.6750  150.1550 C   0  0  0  0  0  0  0  0  0  0  0  0
  161.5550  203.6970  147.7630 C   0  0  0  0  0  3  0  0  0  0  0  0
  161.5620  208.0090  150.2390 C   0  0  0  0  0  2  0  0  0  0  0  0
  160.8310  207.9940  147.4690 C   0  0  0  0  0  1  0  0  0  0  0  0
  160.8310  203.0190  144.8710 C   0  0  0  0  0  1  0  0  0  0  0  0
  161.1790  205.9060  148.8460 C   0  0  0  0  0  0  0  0  0  0  0  0
  161.6730  204.3890  146.5220 N   0  0  0  0  0  0  0  0  0  0  0  0
  161.2010  210.4720  155.6850 C   0  0  0  0  0  2  0  0  0  0  0  0
  162.3310  209.9500  156.5050 C   0  0  0  0  0  0  0  0  0  0  0  0
  163.3680  210.7950  156.8760 O   0  0  0  0  0  0  0  0  0  0  0  0
  162.3310  208.7500  156.8860 O   0  0  0  0  0  1  0  0  0  0  0  0
  1 20  1  0  0  0  0
  2 24  1  6  0  0  0
  2 12  1  0  0  0  0
  3 11  1  0  0  0  0
  4  3  2  0  0  0  0
  5 27  2  0  0  0  0
  6 28  1  0  0  0  0
  6  5  1  0  0  0  0
  7 24  1  6  0  0  0
  7 17  1  0  0  0  0
  9 28  1  0  0  0  0
 10 20  1  0  0  0  0
 12  8  1  1  0  0  0
 13 12  1  0  0  0  0
 13 11  2  0  0  0  0
 14 22  1  0  0  0  0
 15 18  1  0  0  0  0
 15  9  1  0  0  0  0
 16  1  1  0  0  0  0
 17  8  1  6  0  0  0
 17 10  1  0  0  0  0
 18  6  2  0  0  0  0
 19  7  1  0  0  0  0
 19 16  1  0  0  0  0
 20 29  1  1  0  0  0
 21  4  1  0  0  0  0
 22 21  2  0  0  0  0
 22 13  1  0  0  0  0
 23 14  2  0  0  0  0
 25  5  1  0  0  0  0
 26  9  1  0  0  0  0
 27 14  1  0  0  0  0
 27  2  1  0  0  0  0
 28 23  1  0  0  0  0
 29 30  1  0  0  0  0
 30 31  2  0  0  0  0
 30 32  1  0  0  0  0
M  END
>  <MODEL>
3

>  <REMARK>
 VINA RESULT:      -8.3      4.691      8.830
  Name = 
  2 active torsions:
  status: ('A' for Active; 'I' for Inactive)
    1  A    between atoms: C_20  and  C_29
    2  A    between atoms: C_29  and  C_30
                            x       y       z     vdW  Elec       q    Type
                         _______ _______ _______ _____ _____    ______ ____

>  <TORSDO>
F 2

$$$$
=
 OpenBabel11122412493D

 32 37  0  0  1  0  0  0  0  0999 V2000
  162.1810  202.6570  147.8150 C   0  0  0  0  0  2  0  0  0  0  0  0
  160.8930  207.0210  150.9210 C   0  0  1  0  0  3  0  0  0  0  0  0
  162.0550  211.0760  148.3030 C   0  0  0  0  0  3  0  0  0  0  0  0
  162.1340  211.8360  149.4680 C   0  0  0  0  0  3  0  0  0  0  0  0
  160.8680  207.2400  153.4480 C   0  0  0  0  0  0  0  0  0  0  0  0
  161.2170  208.0180  154.6420 C   0  0  0  0  0  0  0  0  0  0  0  0
  160.6670  204.8080  149.7490 C   0  0  1  0  0  3  0  0  0  0  0  0
  161.1770  206.9010  148.4330 C   0  0  0  0  0  2  0  0  0  0  0  0
  162.0470  209.8330  155.7800 N   0  0  0  0  0  0  0  0  0  0  0  0
  160.8850  204.7710  147.1790 C   0  0  0  0  0  2  0  0  0  0  0  0
  161.8790  209.6930  148.3860 C   0  0  0  0  0  3  0  0  0  0  0  0
  161.6990  207.5520  149.7190 C   0  0  1  0  0  3  0  0  0  0  0  0
  161.7540  209.0570  149.6330 C   0  0  0  0  0  0  0  0  0  0  0  0
  161.7310  209.1700  152.1340 C   0  0  0  0  0  0  0  0  0  0  0  0
  161.5830  208.7620  156.6890 C   0  0  0  0  0  2  0  0  0  0  0  0
  162.1700  202.7680  149.3500 C   0  0  0  0  0  2  0  0  0  0  0  0
  161.3600  205.3880  148.4970 C   0  0  2  0  0  3  0  0  0  0  0  0
  161.0730  207.6590  155.8620 N   0  0  0  0  0  0  0  0  0  0  0  0
  160.8500  203.2930  149.9260 C   0  0  0  0  0  2  0  0  0  0  0  0
  160.9360  203.2410  147.1300 C   0  0  1  0  0  3  0  0  0  0  0  0
  162.0390  211.2140  150.7130 C   0  0  0  0  0  3  0  0  0  0  0  0
  161.8570  209.8220  150.8110 C   0  0  0  0  0  0  0  0  0  0  0  0
  162.0170  209.8730  153.2470 C   0  0  0  0  0  3  0  0  0  0  0  0
  161.1740  205.5160  151.0030 C   0  0  0  0  0  2  0  0  0  0  0  0
  160.1280  205.9540  153.6340 C   0  0  0  0  0  1  0  0  0  0  0  0
  161.1400  210.9560  155.9680 C   0  0  0  0  0  1  0  0  0  0  0  0
  161.1990  207.7560  152.2250 C   0  0  0  0  0  0  0  0  0  0  0  0
  161.7840  209.2810  154.5230 N   0  0  0  0  0  0  0  0  0  0  0  0
  160.8590  202.7850  145.6830 C   0  0  0  0  0  2  0  0  0  0  0  0
  160.5010  201.3410  145.6010 C   0  0  0  0  0  0  0  0  0  0  0  0
  161.1060  200.4260  146.4520 O   0  0  0  0  0  1  0  0  0  0  0  0
  159.6280  200.9540  144.7810 O   0  0  0  0  0  0  0  0  0  0  0  0
  1 16  1  0  0  0  0
  2 24  1  1  0  0  0
  2 27  1  0  0  0  0
  3 11  2  0  0  0  0
  3  4  1  0  0  0  0
  4 21  2  0  0  0  0
  5 25  1  0  0  0  0
  5  6  1  0  0  0  0
  6 18  2  0  0  0  0
  7 19  1  1  0  0  0
  7 24  1  0  0  0  0
  8 17  1  0  0  0  0
  9 26  1  0  0  0  0
  9 15  1  0  0  0  0
 11 13  1  0  0  0  0
 12  8  1  6  0  0  0
 12  2  1  0  0  0  0
 13 12  1  0  0  0  0
 13 22  2  0  0  0  0
 14 27  1  0  0  0  0
 14 23  2  0  0  0  0
 16 19  1  0  0  0  0
 17 10  1  6  0  0  0
 17  7  1  0  0  0  0
 18 15  1  0  0  0  0
 20 29  1  6  0  0  0
 20 10  1  0  0  0  0
 20  1  1  0  0  0  0
 21 22  1  0  0  0  0
 22 14  1  0  0  0  0
 23 28  1  0  0  0  0
 27  5  2  0  0  0  0
 28  6  1  0  0  0  0
 28  9  1  0  0  0  0
 30 29  1  0  0  0  0
 30 31  1  0  0  0  0
 32 30  2  0  0  0  0
M  END
>  <MODEL>
4

>  <REMARK>
 VINA RESULT:      -7.1      1.280      1.586
  Name = 
  2 active torsions:
  status: ('A' for Active; 'I' for Inactive)
    1  A    between atoms: C_20  and  C_29
    2  A    between atoms: C_29  and  C_30
                            x       y       z     vdW  Elec       q    Type
                         _______ _______ _______ _____ _____    ______ ____

>  <TORSDO>
F 2

$$$$
