=
 OpenBabel11122412553D

 32 38  0  0  1  0  0  0  0  0999 V2000
  160.5640  209.6390  153.7210 C   0  0  1  0  0  3  0  0  0  0  0  0
  160.8810  212.9640  149.5970 C   0  0  1  0  0  3  0  0  0  0  0  0
  156.0830  214.0700  150.0010 C   0  0  0  0  0  3  0  0  0  0  0  0
  156.0300  214.2000  148.6060 O   0  0  0  0  0  0  0  0  0  0  0  0
  162.0850  213.4410  147.4450 C   0  0  0  0  0  0  0  0  0  0  0  0
  162.0820  213.9530  146.0350 C   0  0  1  0  0  3  0  0  0  0  0  0
  161.3350  211.1190  151.2200 C   0  0  1  0  0  3  0  0  0  0  0  0
  159.7060  212.9510  151.8490 C   0  0  0  0  0  2  0  0  0  0  0  0
  160.9090  213.1450  144.2170 C   0  0  0  0  0  0  0  0  0  0  0  0
  160.0680  211.0670  153.4850 C   0  0  2  0  0  3  0  0  0  0  0  0
  157.2340  213.7890  150.6110 C   0  0  0  0  0  3  0  0  0  0  0  0
  159.6300  213.2820  150.3880 C   0  0  0  0  0  0  0  0  0  0  0  0
  158.4620  213.6110  149.8080 C   0  0  0  0  0  0  0  0  0  0  0  0
  159.5800  213.6380  147.5220 C   0  0  0  0  0  0  0  0  0  0  0  0
  162.2710  212.9000  143.9170 N   0  0  0  0  0  2  0  0  0  0  0  0
  160.9400  208.8810  152.4270 C   0  0  0  0  0  2  0  0  0  0  0  0
  160.0460  211.4680  151.9960 C   0  0  2  0  0  3  0  0  0  0  0  0
  163.0590  213.2370  145.0970 C   0  0  0  0  0  2  0  0  0  0  0  0
  161.7600  209.6590  151.3870 C   0  0  0  0  0  2  0  0  0  0  0  0
  161.4670  210.8210  154.0420 C   0  0  1  0  0  3  0  0  0  0  0  0
  157.1690  214.0550  147.8010 C   0  0  0  0  0  3  0  0  0  0  0  0
  158.3630  213.7700  148.3420 C   0  0  0  0  0  0  0  0  0  0  0  0
  159.5210  213.7440  146.1850 C   0  0  0  0  0  3  0  0  0  0  0  0
  161.1960  211.4730  149.7380 C   0  0  0  0  0  2  0  0  0  0  0  0
  163.1790  213.1600  148.0060 O   0  0  0  0  0  0  0  0  0  0  0  0
  159.7940  212.6690  143.3520 C   0  0  0  0  0  1  0  0  0  0  0  0
  160.8410  213.3680  148.1830 N   0  0  0  0  0  0  0  0  0  0  0  0
  160.7640  213.6740  145.4160 C   0  0  0  0  0  0  0  0  0  0  0  0
  161.4580  211.0680  155.5370 C   0  0  0  0  0  2  0  0  0  0  0  0
  162.6620  210.4510  156.1580 C   0  0  0  0  0  0  0  0  0  0  0  0
  162.5380  209.2910  156.9100 O   0  0  0  0  0  1  0  0  0  0  0  0
  163.7870  211.0000  156.0290 O   0  0  0  0  0  0  0  0  0  0  0  0
  1 16  1  6  0  0  0
  1 20  1  0  0  0  0
  2 24  1  6  0  0  0
  2 12  1  0  0  0  0
  3 11  2  0  0  0  0
  4  3  1  0  0  0  0
  5 25  2  0  0  0  0
  5 27  1  0  0  0  0
  6 18  1  6  0  0  0
  6  5  1  0  0  0  0
  7 24  1  6  0  0  0
  7 19  1  0  0  0  0
  7 17  1  0  0  0  0
  8 17  1  0  0  0  0
  9 28  2  0  0  0  0
 10  1  1  0  0  0  0
 10 20  1  0  0  0  0
 12  8  1  0  0  0  0
 13 12  2  0  0  0  0
 13 11  1  0  0  0  0
 14 27  1  0  0  0  0
 14 22  1  0  0  0  0
 15  9  1  0  0  0  0
 15 18  1  0  0  0  0
 17 10  1  0  0  0  0
 19 16  1  0  0  0  0
 20 29  1  0  0  0  0
 21 22  2  0  0  0  0
 21  4  1  0  0  0  0
 22 13  1  0  0  0  0
 23 14  2  0  0  0  0
 26  9  1  0  0  0  0
 27  2  1  0  0  0  0
 28  6  1  0  0  0  0
 28 23  1  0  0  0  0
 29 30  1  0  0  0  0
 30 31  1  0  0  0  0
 32 30  2  0  0  0  0
M  END
>  <MODEL>
1

>  <REMARK>
 VINA RESULT:      -6.3      0.000      0.000
  Name = 
  2 active torsions:
  status: ('A' for Active; 'I' for Inactive)
    1  A    between atoms: C_20  and  C_29
    2  A    between atoms: C_29  and  C_30
                            x       y       z     vdW  Elec       q    Type
                         _______ _______ _______ _____ _____    ______ ____

>  <TORSDO>
F 2

$$$$
=
 OpenBabel11122412553D

 32 38  0  0  1  0  0  0  0  0999 V2000
  161.8320  202.1860  149.9480 C   0  0  1  0  0  3  0  0  0  0  0  0
  160.5460  206.7340  152.3610 C   0  0  1  0  0  3  0  0  0  0  0  0
  162.2240  209.3530  148.5220 C   0  0  0  0  0  3  0  0  0  0  0  0
  162.6320  210.3470  149.4220 O   0  0  0  0  0  0  0  0  0  0  0  0
  160.2550  207.8530  154.5900 C   0  0  0  0  0  0  0  0  0  0  0  0
  160.3510  209.0710  155.4610 C   0  0  1  0  0  3  0  0  0  0  0  0
  161.1390  204.3470  151.9200 C   0  0  1  0  0  3  0  0  0  0  0  0
  160.4340  205.8260  149.9910 C   0  0  0  0  0  2  0  0  0  0  0  0
  162.2370  210.2640  156.0560 C   0  0  0  0  0  0  0  0  0  0  0  0
  161.1030  203.4490  149.4850 C   0  0  2  0  0  3  0  0  0  0  0  0
  161.5910  208.2630  148.9580 C   0  0  0  0  0  3  0  0  0  0  0  0
  160.7260  206.9990  150.8810 C   0  0  0  0  0  0  0  0  0  0  0  0
  161.3220  208.1050  150.4030 C   0  0  0  0  0  0  0  0  0  0  0  0
  161.4660  209.0690  152.7530 C   0  0  0  0  0  0  0  0  0  0  0  0
  161.7720  209.6820  157.2600 N   0  0  0  0  0  2  0  0  0  0  0  0
  162.6430  202.3690  151.2510 C   0  0  0  0  0  2  0  0  0  0  0  0
  161.3210  204.6570  150.4170 C   0  0  2  0  0  3  0  0  0  0  0  0
  160.6760  208.7790  156.9300 C   0  0  0  0  0  2  0  0  0  0  0  0
  161.9550  203.1400  152.3880 C   0  0  0  0  0  2  0  0  0  0  0  0
  160.3240  202.3030  150.1230 C   0  0  1  0  0  3  0  0  0  0  0  0
  162.3880  210.2500  150.7990 C   0  0  0  0  0  3  0  0  0  0  0  0
  161.7580  209.1840  151.3140 C   0  0  0  0  0  0  0  0  0  0  0  0
  161.8760  210.0150  153.6140 C   0  0  0  0  0  3  0  0  0  0  0  0
  161.4550  205.5750  152.7760 C   0  0  0  0  0  2  0  0  0  0  0  0
  159.6710  206.8210  155.0210 O   0  0  0  0  0  0  0  0  0  0  0  0
  163.5120  211.0290  155.9700 C   0  0  0  0  0  1  0  0  0  0  0  0
  160.7460  207.9050  153.2290 N   0  0  0  0  0  0  0  0  0  0  0  0
  161.5050  209.8940  155.0250 C   0  0  0  0  0  0  0  0  0  0  0  0
  159.6290  201.5070  149.0370 C   0  0  0  0  0  2  0  0  0  0  0  0
  160.6070  201.1390  147.9770 C   0  0  0  0  0  0  0  0  0  0  0  0
  160.5690  201.7770  146.7450 O   0  0  0  0  0  0  0  0  0  0  0  0
  161.4470  200.2250  148.1860 O   0  0  0  0  0  1  0  0  0  0  0  0
  1 20  1  0  0  0  0
  1 16  1  1  0  0  0
  2 24  1  1  0  0  0
  2 27  1  0  0  0  0
  3 11  2  0  0  0  0
  3  4  1  0  0  0  0
  4 21  1  0  0  0  0
  5 25  2  0  0  0  0
  5  6  1  0  0  0  0
  6 18  1  1  0  0  0
  7 19  1  1  0  0  0
  7 24  1  0  0  0  0
  8 17  1  0  0  0  0
  8 12  1  0  0  0  0
  9 15  1  0  0  0  0
 10  1  1  0  0  0  0
 10 20  1  0  0  0  0
 10 17  1  0  0  0  0
 11 13  1  0  0  0  0
 12  2  1  0  0  0  0
 13 12  2  0  0  0  0
 13 22  1  0  0  0  0
 14 27  1  0  0  0  0
 14 23  2  0  0  0  0
 16 19  1  0  0  0  0
 17  7  1  0  0  0  0
 18 15  1  0  0  0  0
 21 22  2  0  0  0  0
 22 14  1  0  0  0  0
 23 28  1  0  0  0  0
 26  9  1  0  0  0  0
 27  5  1  0  0  0  0
 28  6  1  0  0  0  0
 28  9  2  0  0  0  0
 29 20  1  0  0  0  0
 30 32  1  0  0  0  0
 30 29  1  0  0  0  0
 31 30  2  0  0  0  0
M  END
>  <MODEL>
2

>  <REMARK>
 VINA RESULT:      -6.2      5.489      9.400
  Name = 
  2 active torsions:
  status: ('A' for Active; 'I' for Inactive)
    1  A    between atoms: C_20  and  C_29
    2  A    between atoms: C_29  and  C_30
                            x       y       z     vdW  Elec       q    Type
                         _______ _______ _______ _____ _____    ______ ____

>  <TORSDO>
F 2

$$$$
=
 OpenBabel11122412553D

 32 38  0  0  1  0  0  0  0  0999 V2000
  160.4290  213.6100  148.0680 C   0  0  1  0  0  3  0  0  0  0  0  0
  161.8340  210.2540  151.9320 C   0  0  1  0  0  3  0  0  0  0  0  0
  161.4230  206.4030  148.8630 C   0  0  0  0  0  3  0  0  0  0  0  0
  160.9840  205.6290  149.9470 O   0  0  0  0  0  0  0  0  0  0  0  0
  161.8050  209.8680  154.4130 C   0  0  0  0  0  0  0  0  0  0  0  0
  161.7070  208.9410  155.5880 C   0  0  1  0  0  3  0  0  0  0  0  0
  160.9990  212.2570  150.6910 C   0  0  1  0  0  3  0  0  0  0  0  0
  162.3120  210.4860  149.4470 C   0  0  0  0  0  2  0  0  0  0  0  0
  159.9370  207.5950  156.2100 C   0  0  0  0  0  0  0  0  0  0  0  0
  161.4200  212.4460  148.1370 C   0  0  2  0  0  3  0  0  0  0  0  0
  161.7790  207.6760  149.0400 C   0  0  0  0  0  3  0  0  0  0  0  0
  162.0140  209.5660  150.5950 C   0  0  0  0  0  0  0  0  0  0  0  0
  161.7060  208.2730  150.3900 C   0  0  0  0  0  0  0  0  0  0  0  0
  161.2090  207.9770  152.8680 C   0  0  0  0  0  0  0  0  0  0  0  0
  160.0420  208.5650  157.2360 N   0  0  0  0  0  2  0  0  0  0  0  0
  159.3960  213.6260  149.2160 C   0  0  0  0  0  2  0  0  0  0  0  0
  161.1900  211.5190  149.3470 C   0  0  2  0  0  3  0  0  0  0  0  0
  161.0370  209.5490  156.8240 C   0  0  0  0  0  2  0  0  0  0  0  0
  159.9320  213.3520  150.6290 C   0  0  0  0  0  2  0  0  0  0  0  0
  161.8650  213.8570  148.5090 C   0  0  1  0  0  3  0  0  0  0  0  0
  160.9120  206.1460  151.2490 C   0  0  0  0  0  3  0  0  0  0  0  0
  161.2510  207.4180  151.5060 C   0  0  0  0  0  0  0  0  0  0  0  0
  160.7690  207.2380  153.9000 C   0  0  0  0  0  3  0  0  0  0  0  0
  160.6950  211.2710  151.8200 C   0  0  0  0  0  2  0  0  0  0  0  0
  162.1230  211.0750  154.5940 O   0  0  0  0  0  0  0  0  0  0  0  0
  158.8380  206.5910  156.1600 C   0  0  0  0  0  1  0  0  0  0  0  0
  161.6290  209.3490  153.0730 N   0  0  0  0  0  0  0  0  0  0  0  0
  160.8090  207.8120  155.2460 C   0  0  0  0  0  0  0  0  0  0  0  0
  162.6490  214.4520  147.3570 C   0  0  0  0  0  2  0  0  0  0  0  0
  162.1280  213.9270  146.0660 C   0  0  0  0  0  0  0  0  0  0  0  0
  160.9320  214.4080  145.5530 O   0  0  0  0  0  1  0  0  0  0  0  0
  162.7550  213.0220  145.4560 O   0  0  0  0  0  0  0  0  0  0  0  0
  1 10  1  0  0  0  0
  1 20  1  0  0  0  0
  1 16  1  1  0  0  0
  2 24  1  6  0  0  0
  2 27  1  0  0  0  0
  3 11  2  0  0  0  0
  3  4  1  0  0  0  0
  4 21  1  0  0  0  0
  5 25  2  0  0  0  0
  5  6  1  0  0  0  0
  6 18  1  1  0  0  0
  7 19  1  6  0  0  0
  7 24  1  0  0  0  0
  8 12  1  0  0  0  0
  9 15  1  0  0  0  0
 10 20  1  0  0  0  0
 10 17  1  0  0  0  0
 11 13  1  0  0  0  0
 12  2  1  0  0  0  0
 13 12  2  0  0  0  0
 13 22  1  0  0  0  0
 14 27  1  0  0  0  0
 14 23  2  0  0  0  0
 16 19  1  0  0  0  0
 17  8  1  0  0  0  0
 17  7  1  0  0  0  0
 18 15  1  0  0  0  0
 21 22  2  0  0  0  0
 22 14  1  0  0  0  0
 23 28  1  0  0  0  0
 26  9  1  0  0  0  0
 27  5  1  0  0  0  0
 28  6  1  0  0  0  0
 28  9  2  0  0  0  0
 29 20  1  0  0  0  0
 30 29  1  0  0  0  0
 31 30  1  0  0  0  0
 32 30  2  0  0  0  0
M  END
>  <MODEL>
3

>  <REMARK>
 VINA RESULT:      -5.6      3.252      8.736
  Name = 
  2 active torsions:
  status: ('A' for Active; 'I' for Inactive)
    1  A    between atoms: C_20  and  C_29
    2  A    between atoms: C_29  and  C_30
                            x       y       z     vdW  Elec       q    Type
                         _______ _______ _______ _____ _____    ______ ____

>  <TORSDO>
F 2

$$$$
=
 OpenBabel11122412553D

 32 38  0  0  1  0  0  0  0  0999 V2000
  160.4920  212.8680  145.8150 C   0  0  1  0  0  3  0  0  0  0  0  0
  160.0700  212.5930  151.0980 C   0  0  1  0  0  3  0  0  0  0  0  0
  162.3410  208.2050  151.1440 C   0  0  0  0  0  3  0  0  0  0  0  0
  161.5320  207.8350  152.2270 O   0  0  0  0  0  0  0  0  0  0  0  0
  158.6910  213.2930  153.0770 C   0  0  0  0  0  0  0  0  0  0  0  0
  158.1300  213.0150  154.4400 C   0  0  1  0  0  3  0  0  0  0  0  0
  159.7070  213.1920  148.6990 C   0  0  1  0  0  3  0  0  0  0  0  0
  161.8360  212.0000  149.3710 C   0  0  0  0  0  2  0  0  0  0  0  0
  156.6620  211.3500  155.0760 C   0  0  0  0  0  0  0  0  0  0  0  0
  161.4780  212.5100  146.9290 C   0  0  2  0  0  3  0  0  0  0  0  0
  162.2490  209.4260  150.6150 C   0  0  0  0  0  3  0  0  0  0  0  0
  161.1320  211.6160  150.6400 C   0  0  0  0  0  0  0  0  0  0  0  0
  161.2830  210.3930  151.1780 C   0  0  0  0  0  0  0  0  0  0  0  0
  159.5190  210.9240  152.9330 C   0  0  0  0  0  0  0  0  0  0  0  0
  155.9450  212.5590  155.2430 N   0  0  0  0  0  2  0  0  0  0  0  0
  159.0090  212.8260  146.2500 C   0  0  0  0  0  2  0  0  0  0  0  0
  160.7930  212.1800  148.2700 C   0  0  2  0  0  3  0  0  0  0  0  0
  156.7580  213.6430  154.7030 C   0  0  0  0  0  2  0  0  0  0  0  0
  158.6710  213.4620  147.6060 C   0  0  0  0  0  2  0  0  0  0  0  0
  161.3130  213.9600  146.4860 C   0  0  1  0  0  3  0  0  0  0  0  0
  160.6120  208.7210  152.8050 C   0  0  0  0  0  3  0  0  0  0  0  0
  160.4600  209.9650  152.3280 C   0  0  0  0  0  0  0  0  0  0  0  0
  158.7320  210.5590  153.9580 C   0  0  0  0  0  3  0  0  0  0  0  0
  159.0230  212.7460  149.9930 C   0  0  0  0  0  2  0  0  0  0  0  0
  158.5800  214.4470  152.5790 O   0  0  0  0  0  0  0  0  0  0  0  0
  156.0400  210.0100  155.2650 C   0  0  0  0  0  1  0  0  0  0  0  0
  159.4400  212.2640  152.3860 N   0  0  0  0  0  0  0  0  0  0  0  0
  157.8610  211.5630  154.5710 C   0  0  0  0  0  0  0  0  0  0  0  0
  162.4720  214.3410  145.5860 C   0  0  0  0  0  2  0  0  0  0  0  0
  162.2040  213.8820  144.1960 C   0  0  0  0  0  0  0  0  0  0  0  0
  162.9530  212.8510  143.6480 O   0  0  0  0  0  1  0  0  0  0  0  0
  161.3190  214.4530  143.5050 O   0  0  0  0  0  0  0  0  0  0  0  0
  1 16  1  1  0  0  0
  1 20  1  0  0  0  0
  1 10  1  0  0  0  0
  2 24  1  6  0  0  0
  2 27  1  0  0  0  0
  3  4  1  0  0  0  0
  4 21  1  0  0  0  0
  5  6  1  0  0  0  0
  6 28  1  0  0  0  0
  6 18  1  6  0  0  0
  7 19  1  6  0  0  0
  7 24  1  0  0  0  0
  8 12  1  0  0  0  0
  9 15  1  0  0  0  0
  9 26  1  0  0  0  0
 10 17  1  0  0  0  0
 11  3  2  0  0  0  0
 11 13  1  0  0  0  0
 12  2  1  0  0  0  0
 12 13  2  0  0  0  0
 13 22  1  0  0  0  0
 14 23  2  0  0  0  0
 16 19  1  0  0  0  0
 17  7  1  0  0  0  0
 17  8  1  0  0  0  0
 18 15  1  0  0  0  0
 20 10  1  0  0  0  0
 22 21  2  0  0  0  0
 22 14  1  0  0  0  0
 23 28  1  0  0  0  0
 25  5  2  0  0  0  0
 27 14  1  0  0  0  0
 27  5  1  0  0  0  0
 28  9  2  0  0  0  0
 29 20  1  0  0  0  0
 30 29  1  0  0  0  0
 31 30  1  0  0  0  0
 32 30  2  0  0  0  0
M  END
>  <MODEL>
4

>  <REMARK>
 VINA RESULT:      -4.0      2.955      8.463
  Name = 
  2 active torsions:
  status: ('A' for Active; 'I' for Inactive)
    1  A    between atoms: C_20  and  C_29
    2  A    between atoms: C_29  and  C_30
                            x       y       z     vdW  Elec       q    Type
                         _______ _______ _______ _____ _____    ______ ____

>  <TORSDO>
F 2

$$$$
=
 OpenBabel11122412553D

 32 38  0  0  1  0  0  0  0  0999 V2000
  160.0960  208.8670  155.8450 C   0  0  1  0  0  3  0  0  0  0  0  0
  161.8390  205.6080  152.0360 C   0  0  1  0  0  3  0  0  0  0  0  0
  161.7770  209.2840  148.7350 C   0  0  0  0  0  3  0  0  0  0  0  0
  161.4210  208.3500  147.7510 O   0  0  0  0  0  0  0  0  0  0  0  0
  161.8630  203.2280  151.2370 C   0  0  0  0  0  0  0  0  0  0  0  0
  161.8620  202.2270  150.1200 C   0  0  1  0  0  3  0  0  0  0  0  0
  160.8090  206.5030  154.1300 C   0  0  1  0  0  3  0  0  0  0  0  0
  162.2770  208.0140  152.7270 C   0  0  0  0  0  2  0  0  0  0  0  0
  160.2320  201.8560  148.5270 C   0  0  0  0  0  0  0  0  0  0  0  0
  161.1930  208.9850  154.7850 C   0  0  2  0  0  3  0  0  0  0  0  0
  162.0110  208.8920  149.9880 C   0  0  0  0  0  3  0  0  0  0  0  0
  162.0760  207.0400  151.6030 C   0  0  0  0  0  0  0  0  0  0  0  0
  161.8910  207.4620  150.3390 C   0  0  0  0  0  0  0  0  0  0  0  0
  161.4400  205.0740  149.5850 C   0  0  0  0  0  0  0  0  0  0  0  0
  160.2510  200.6810  149.3160 N   0  0  0  0  0  2  0  0  0  0  0  0
  159.0730  207.7420  155.5690 C   0  0  0  0  0  2  0  0  0  0  0  0
  161.0610  207.9500  153.6510 C   0  0  2  0  0  3  0  0  0  0  0  0
  161.1450  200.9120  150.4450 C   0  0  0  0  0  2  0  0  0  0  0  0
  159.6420  206.3900  155.1130 C   0  0  0  0  0  2  0  0  0  0  0  0
  161.5040  208.3760  156.1500 C   0  0  1  0  0  3  0  0  0  0  0  0
  161.3080  206.9810  148.0320 C   0  0  0  0  0  3  0  0  0  0  0  0
  161.5270  206.5100  149.2690 C   0  0  0  0  0  0  0  0  0  0  0  0
  161.0800  204.1850  148.6440 C   0  0  0  0  0  3  0  0  0  0  0  0
  160.6070  205.5590  152.9440 C   0  0  0  0  0  2  0  0  0  0  0  0
  162.0660  202.8430  152.4210 O   0  0  0  0  0  0  0  0  0  0  0  0
  159.2340  202.0850  147.4450 C   0  0  0  0  0  1  0  0  0  0  0  0
  161.7290  204.6370  150.9360 N   0  0  0  0  0  0  0  0  0  0  0  0
  161.0730  202.7620  148.9850 C   0  0  0  0  0  0  0  0  0  0  0  0
  162.2210  209.4040  157.0020 C   0  0  0  0  0  2  0  0  0  0  0  0
  162.4340  210.6510  156.2180 C   0  0  0  0  0  0  0  0  0  0  0  0
  161.5330  211.7020  156.3250 O   0  0  0  0  0  1  0  0  0  0  0  0
  163.4120  210.7400  155.4310 O   0  0  0  0  0  0  0  0  0  0  0  0
  1 16  1  6  0  0  0
  1 20  1  0  0  0  0
  2 24  1  6  0  0  0
  3 11  2  0  0  0  0
  4 21  1  0  0  0  0
  4  3  1  0  0  0  0
  5 25  2  0  0  0  0
  6 18  1  1  0  0  0
  6  5  1  0  0  0  0
  7 24  1  6  0  0  0
  7 19  1  0  0  0  0
  8 17  1  0  0  0  0
  9 28  2  0  0  0  0
  9 15  1  0  0  0  0
 10  1  1  0  0  0  0
 10 20  1  0  0  0  0
 11 13  1  0  0  0  0
 12  2  1  0  0  0  0
 12  8  1  0  0  0  0
 13 12  2  0  0  0  0
 14 27  1  0  0  0  0
 15 18  1  0  0  0  0
 17  7  1  0  0  0  0
 17 10  1  0  0  0  0
 19 16  1  0  0  0  0
 20 29  1  0  0  0  0
 21 22  2  0  0  0  0
 22 14  1  0  0  0  0
 22 13  1  0  0  0  0
 23 28  1  0  0  0  0
 23 14  2  0  0  0  0
 26  9  1  0  0  0  0
 27  5  1  0  0  0  0
 27  2  1  0  0  0  0
 28  6  1  0  0  0  0
 30 31  1  0  0  0  0
 30 29  1  0  0  0  0
 32 30  2  0  0  0  0
M  END
>  <MODEL>
5

>  <REMARK>
 VINA RESULT:      -3.7      5.210      8.100
  Name = 
  2 active torsions:
  status: ('A' for Active; 'I' for Inactive)
    1  A    between atoms: C_20  and  C_29
    2  A    between atoms: C_29  and  C_30
                            x       y       z     vdW  Elec       q    Type
                         _______ _______ _______ _____ _____    ______ ____

>  <TORSDO>
F 2

$$$$
=
 OpenBabel11122412553D

 32 38  0  0  1  0  0  0  0  0999 V2000
  160.7790  206.5970  151.7320 C   0  0  1  0  0  3  0  0  0  0  0  0
  161.9640  211.2810  149.5370 C   0  0  1  0  0  3  0  0  0  0  0  0
  157.9770  213.3560  151.5890 C   0  0  0  0  0  3  0  0  0  0  0  0
  157.8590  214.1710  150.4550 O   0  0  0  0  0  0  0  0  0  0  0  0
  163.0720  212.3980  147.5790 C   0  0  0  0  0  0  0  0  0  0  0  0
  163.1410  213.5190  146.5850 C   0  0  1  0  0  3  0  0  0  0  0  0
  161.8320  208.8330  150.0200 C   0  0  1  0  0  3  0  0  0  0  0  0
  161.0640  210.4860  151.7750 C   0  0  0  0  0  2  0  0  0  0  0  0
  161.6020  214.0950  144.9620 C   0  0  0  0  0  0  0  0  0  0  0  0
  160.8340  208.0260  152.2760 C   0  0  2  0  0  3  0  0  0  0  0  0
  158.9880  212.4930  151.7000 C   0  0  0  0  0  3  0  0  0  0  0  0
  160.9930  211.5060  150.6770 C   0  0  0  0  0  0  0  0  0  0  0  0
  159.9880  212.3970  150.6160 C   0  0  0  0  0  0  0  0  0  0  0  0
  160.8370  213.2360  148.3700 C   0  0  0  0  0  0  0  0  0  0  0  0
  162.7440  213.6550  144.2500 N   0  0  0  0  0  2  0  0  0  0  0  0
  160.7340  206.5110  150.1890 C   0  0  0  0  0  2  0  0  0  0  0  0
  160.8370  209.1010  151.1710 C   0  0  2  0  0  3  0  0  0  0  0  0
  163.6980  213.1190  145.2140 C   0  0  0  0  0  2  0  0  0  0  0  0
  161.6950  207.4310  149.4210 C   0  0  0  0  0  2  0  0  0  0  0  0
  162.0820  207.1480  152.2940 C   0  0  1  0  0  3  0  0  0  0  0  0
  158.7890  214.1270  149.4060 C   0  0  0  0  0  3  0  0  0  0  0  0
  159.8320  213.2840  149.4450 C   0  0  0  0  0  0  0  0  0  0  0  0
  160.7090  214.0040  147.2760 C   0  0  0  0  0  3  0  0  0  0  0  0
  161.7110  209.8990  148.9300 C   0  0  0  0  0  2  0  0  0  0  0  0
  164.0250  211.5760  147.6620 O   0  0  0  0  0  0  0  0  0  0  0  0
  160.3210  214.4530  144.2920 C   0  0  0  0  0  1  0  0  0  0  0  0
  161.9580  212.3260  148.5020 N   0  0  0  0  0  0  0  0  0  0  0  0
  161.7670  213.9740  146.2640 C   0  0  0  0  0  0  0  0  0  0  0  0
  162.2920  206.6100  153.6950 C   0  0  0  0  0  2  0  0  0  0  0  0
  161.4110  207.3330  154.6510 C   0  0  0  0  0  0  0  0  0  0  0  0
  161.6120  208.6850  154.8960 O   0  0  0  0  0  0  0  0  0  0  0  0
  160.5030  206.7110  155.2630 O   0  0  0  0  0  1  0  0  0  0  0  0
  1 16  1  6  0  0  0
  1 10  1  0  0  0  0
  1 20  1  0  0  0  0
  2 24  1  6  0  0  0
  2 12  1  0  0  0  0
  3 11  2  0  0  0  0
  4  3  1  0  0  0  0
  5 25  2  0  0  0  0
  5 27  1  0  0  0  0
  6 18  1  6  0  0  0
  6  5  1  0  0  0  0
  7 24  1  6  0  0  0
  7 17  1  0  0  0  0
  9 28  2  0  0  0  0
 10 20  1  0  0  0  0
 12  8  1  0  0  0  0
 13 12  2  0  0  0  0
 13 11  1  0  0  0  0
 14 27  1  0  0  0  0
 14 22  1  0  0  0  0
 15  9  1  0  0  0  0
 15 18  1  0  0  0  0
 17  8  1  0  0  0  0
 17 10  1  0  0  0  0
 19  7  1  0  0  0  0
 19 16  1  0  0  0  0
 20 29  1  0  0  0  0
 21 22  2  0  0  0  0
 21  4  1  0  0  0  0
 22 13  1  0  0  0  0
 23 14  2  0  0  0  0
 26  9  1  0  0  0  0
 27  2  1  0  0  0  0
 28  6  1  0  0  0  0
 28 23  1  0  0  0  0
 29 30  1  0  0  0  0
 30 31  2  0  0  0  0
 30 32  1  0  0  0  0
M  END
>  <MODEL>
6

>  <REMARK>
 VINA RESULT:      -3.7      1.856      2.648
  Name = 
  2 active torsions:
  status: ('A' for Active; 'I' for Inactive)
    1  A    between atoms: C_20  and  C_29
    2  A    between atoms: C_29  and  C_30
                            x       y       z     vdW  Elec       q    Type
                         _______ _______ _______ _____ _____    ______ ____

>  <TORSDO>
F 2

$$$$
