=
 OpenBabel11122414303D

 34 41  0  0  1  0  0  0  0  0999 V2000
  161.0750  204.8270  151.1770 C   0  0  0  0  0  0  0  0  0  0  0  0
  160.8910  206.2080  153.3490 C   0  0  0  0  0  3  0  0  0  0  0  0
  159.8810  203.3980  145.3530 C   0  0  2  0  0  3  0  0  0  0  0  0
  161.2940  203.7020  149.0140 C   0  0  0  0  0  0  0  0  0  0  0  0
  161.8370  204.9720  147.0890 C   0  0  0  0  0  0  0  0  0  0  0  0
  160.9790  205.5710  144.8000 C   0  0  0  0  0  2  0  0  0  0  0  0
  160.1810  204.3820  144.2400 C   0  0  0  0  0  2  0  0  0  0  0  0
  161.1620  202.5890  145.4410 C   0  0  1  0  0  3  0  0  0  0  0  0
  161.4130  207.2070  151.2770 C   0  0  0  0  0  0  0  0  0  0  0  0
  161.9360  210.2510  150.9200 C   0  0  0  0  0  3  0  0  0  0  0  0
  161.8600  206.0910  147.8560 N   0  0  0  0  0  0  0  0  0  0  0  0
  161.5160  202.4650  146.9150 C   0  0  0  0  0  2  0  0  0  0  0  0
  161.6610  207.2550  149.9230 N   0  0  0  0  0  0  0  0  0  0  0  0
  161.0810  207.6410  153.4820 N   0  0  0  0  0  0  0  0  0  0  0  0
  161.5380  203.7490  147.6630 N   0  0  0  0  0  0  0  0  0  0  0  0
  159.8780  201.9280  144.9890 C   0  0  0  0  0  2  0  0  0  0  0  0
  161.6390  209.6250  152.0490 C   0  0  0  0  0  0  0  0  0  0  0  0
  161.3330  204.8870  149.7910 C   0  0  0  0  0  0  0  0  0  0  0  0
  162.0620  205.1250  145.6810 N   0  0  0  0  0  2  0  0  0  0  0  0
  161.6180  206.0770  149.1960 C   0  0  0  0  0  0  0  0  0  0  0  0
  160.7430  202.4370  151.0310 C   0  0  0  0  0  3  0  0  0  0  0  0
  162.0850  209.6980  149.5810 C   0  0  0  0  0  3  0  0  0  0  0  0
  160.9950  202.4850  149.6590 C   0  0  0  0  0  3  0  0  0  0  0  0
  161.9690  208.4420  149.1660 C   0  0  0  0  0  3  0  0  0  0  0  0
  161.3930  208.1790  152.1930 C   0  0  0  0  0  0  0  0  0  0  0  0
  160.7830  203.6060  151.7900 C   0  0  0  0  0  3  0  0  0  0  0  0
  161.1230  206.0100  151.8990 C   0  0  0  0  0  0  0  0  0  0  0  0
  161.5700  210.4760  153.2730 C   0  0  0  0  0  2  0  0  0  0  0  0
  160.4520  211.4970  153.1410 C   0  0  0  0  0  2  0  0  0  0  0  0
  158.3110  211.3380  155.7770 C   0  0  0  0  0  2  0  0  0  0  0  0
  158.1810  211.9560  153.4950 C   0  0  0  0  0  2  0  0  0  0  0  0
  159.1930  210.9100  153.5670 N   0  0  0  0  0  0  0  0  0  0  0  0
  157.3550  211.8790  154.7530 C   0  0  0  0  0  2  0  0  0  0  0  0
  159.3400  210.5650  154.9780 C   0  0  0  0  0  2  0  0  0  0  0  0
  1 26  1  0  0  0  0
  1 27  2  0  0  0  0
  2 14  2  0  0  0  0
  3  7  1  6  0  0  0
  3  8  1  0  0  0  0
  4 23  2  0  0  0  0
  4 18  1  0  0  0  0
  5 15  1  0  0  0  0
  5 11  2  0  0  0  0
  6 19  1  0  0  0  0
  7  6  1  0  0  0  0
  8 16  1  1  0  0  0
  8 12  1  0  0  0  0
  9 27  1  0  0  0  0
  9 25  2  0  0  0  0
 10 17  2  0  0  0  0
 11 20  1  0  0  0  0
 12 15  1  0  0  0  0
 13  9  1  0  0  0  0
 15  4  1  0  0  0  0
 16  3  1  0  0  0  0
 17 25  1  0  0  0  0
 17 28  1  0  0  0  0
 18  1  1  0  0  0  0
 19  5  1  0  0  0  0
 20 18  2  0  0  0  0
 20 13  1  0  0  0  0
 21 26  2  0  0  0  0
 22 10  1  0  0  0  0
 23 21  1  0  0  0  0
 24 22  2  0  0  0  0
 24 13  1  0  0  0  0
 25 14  1  0  0  0  0
 27  2  1  0  0  0  0
 29 28  1  0  0  0  0
 29 32  1  0  0  0  0
 31 32  1  0  0  0  0
 31 33  1  0  0  0  0
 32 34  1  0  0  0  0
 33 30  1  0  0  0  0
 34 30  1  0  0  0  0
M  END
>  <MODEL>
1

>  <REMARK>
 VINA RESULT:     -10.5      0.000      0.000
  Name = 
  3 active torsions:
  status: ('A' for Active; 'I' for Inactive)
    1  A    between atoms: C_17  and  C_28
    2  A    between atoms: C_28  and  C_29
    3  A    between atoms: C_29  and  N_32
                            x       y       z     vdW  Elec       q    Type
                         _______ _______ _______ _____ _____    ______ ____

>  <TORSDO>
F 3

$$$$
=
 OpenBabel11122414303D

 34 41  0  0  1  0  0  0  0  0999 V2000
  161.0940  204.5190  151.0630 C   0  0  0  0  0  0  0  0  0  0  0  0
  161.0140  206.0020  153.1740 C   0  0  0  0  0  3  0  0  0  0  0  0
  159.6420  202.8270  145.3710 C   0  0  2  0  0  3  0  0  0  0  0  0
  161.2120  203.2910  148.9490 C   0  0  0  0  0  0  0  0  0  0  0  0
  161.6820  204.4630  146.9450 C   0  0  0  0  0  0  0  0  0  0  0  0
  160.7310  204.9600  144.6690 C   0  0  0  0  0  2  0  0  0  0  0  0
  159.9010  203.7540  144.2000 C   0  0  0  0  0  2  0  0  0  0  0  0
  160.9190  202.0100  145.4420 C   0  0  1  0  0  3  0  0  0  0  0  0
  161.4530  206.8970  151.0350 C   0  0  0  0  0  0  0  0  0  0  0  0
  161.9830  209.9160  150.5120 C   0  0  0  0  0  3  0  0  0  0  0  0
  161.7460  205.6170  147.6560 N   0  0  0  0  0  0  0  0  0  0  0  0
  161.3350  201.9530  146.9040 C   0  0  0  0  0  2  0  0  0  0  0  0
  161.6440  206.8790  149.6720 N   0  0  0  0  0  0  0  0  0  0  0  0
  161.2190  207.4380  153.2290 N   0  0  0  0  0  0  0  0  0  0  0  0
  161.3990  203.2710  147.5880 N   0  0  0  0  0  0  0  0  0  0  0  0
  159.6120  201.3410  145.0770 C   0  0  0  0  0  2  0  0  0  0  0  0
  161.7300  209.3470  151.6810 C   0  0  0  0  0  0  0  0  0  0  0  0
  161.2930  204.5100  149.6670 C   0  0  0  0  0  0  0  0  0  0  0  0
  161.8470  204.5470  145.5230 N   0  0  0  0  0  2  0  0  0  0  0  0
  161.5610  205.6680  149.0040 C   0  0  0  0  0  0  0  0  0  0  0  0
  160.7400  202.1270  151.0460 C   0  0  0  0  0  3  0  0  0  0  0  0
  162.0700  209.2990  149.1960 C   0  0  0  0  0  3  0  0  0  0  0  0
  160.9320  202.1080  149.6640 C   0  0  0  0  0  3  0  0  0  0  0  0
  161.9270  208.0260  148.8470 C   0  0  0  0  0  3  0  0  0  0  0  0
  161.4800  207.9110  151.9050 C   0  0  0  0  0  0  0  0  0  0  0  0
  160.8200  203.3310  151.7460 C   0  0  0  0  0  3  0  0  0  0  0  0
  161.1820  205.7340  151.7260 C   0  0  0  0  0  0  0  0  0  0  0  0
  161.7200  210.2560  152.8650 C   0  0  0  0  0  2  0  0  0  0  0  0
  160.5170  211.1830  152.8050 C   0  0  0  0  0  2  0  0  0  0  0  0
  158.8780  210.4520  155.6930 C   0  0  0  0  0  2  0  0  0  0  0  0
  161.0950  211.0050  155.0700 C   0  0  0  0  0  2  0  0  0  0  0  0
  160.2300  211.7070  154.1300 N   0  0  0  0  0  0  0  0  0  0  0  0
  160.2560  210.6230  156.2620 C   0  0  0  0  0  2  0  0  0  0  0  0
  158.8600  211.3230  154.4520 C   0  0  0  0  0  2  0  0  0  0  0  0
  1 27  2  0  0  0  0
  1 26  1  0  0  0  0
  2 14  2  0  0  0  0
  3  7  1  6  0  0  0
  3  8  1  0  0  0  0
  4 23  2  0  0  0  0
  4 18  1  0  0  0  0
  5 15  1  0  0  0  0
  5 11  2  0  0  0  0
  6 19  1  0  0  0  0
  7  6  1  0  0  0  0
  8 16  1  1  0  0  0
  8 12  1  0  0  0  0
  9 27  1  0  0  0  0
  9 25  2  0  0  0  0
 10 17  2  0  0  0  0
 11 20  1  0  0  0  0
 12 15  1  0  0  0  0
 13  9  1  0  0  0  0
 15  4  1  0  0  0  0
 16  3  1  0  0  0  0
 17 25  1  0  0  0  0
 17 28  1  0  0  0  0
 18  1  1  0  0  0  0
 19  5  1  0  0  0  0
 20 18  2  0  0  0  0
 20 13  1  0  0  0  0
 21 26  2  0  0  0  0
 22 10  1  0  0  0  0
 23 21  1  0  0  0  0
 24 22  2  0  0  0  0
 24 13  1  0  0  0  0
 25 14  1  0  0  0  0
 27  2  1  0  0  0  0
 29 28  1  0  0  0  0
 29 32  1  0  0  0  0
 30 33  1  0  0  0  0
 31 33  1  0  0  0  0
 32 34  1  0  0  0  0
 32 31  1  0  0  0  0
 34 30  1  0  0  0  0
M  END
>  <MODEL>
2

>  <REMARK>
 VINA RESULT:     -10.5      0.700      1.020
  Name = 
  3 active torsions:
  status: ('A' for Active; 'I' for Inactive)
    1  A    between atoms: C_17  and  C_28
    2  A    between atoms: C_28  and  C_29
    3  A    between atoms: C_29  and  N_32
                            x       y       z     vdW  Elec       q    Type
                         _______ _______ _______ _____ _____    ______ ____

>  <TORSDO>
F 3

$$$$
=
 OpenBabel11122414303D

 34 41  0  0  1  0  0  0  0  0999 V2000
  161.6650  207.5660  149.6620 C   0  0  0  0  0  0  0  0  0  0  0  0
  161.6300  205.7880  147.7920 C   0  0  0  0  0  3  0  0  0  0  0  0
  159.5440  210.5800  154.5410 C   0  0  2  0  0  3  0  0  0  0  0  0
  161.6610  209.0930  151.5750 C   0  0  0  0  0  0  0  0  0  0  0  0
  161.3270  208.2300  153.7550 C   0  0  0  0  0  0  0  0  0  0  0  0
  159.7980  208.4090  155.7470 C   0  0  0  0  0  2  0  0  0  0  0  0
  159.2650  209.8490  155.8380 C   0  0  0  0  0  2  0  0  0  0  0  0
  160.9850  211.0270  154.7100 C   0  0  1  0  0  3  0  0  0  0  0  0
  161.3160  205.2200  150.0610 C   0  0  0  0  0  0  0  0  0  0  0  0
  160.8350  202.3130  151.0540 C   0  0  0  0  0  3  0  0  0  0  0  0
  161.2130  206.9860  153.2250 N   0  0  0  0  0  0  0  0  0  0  0  0
  161.7090  210.7110  153.4110 C   0  0  0  0  0  2  0  0  0  0  0  0
  161.2000  205.4400  151.4150 N   0  0  0  0  0  0  0  0  0  0  0  0
  161.4240  204.3610  147.9600 N   0  0  0  0  0  0  0  0  0  0  0  0
  161.5430  209.3150  152.9260 N   0  0  0  0  0  0  0  0  0  0  0  0
  159.8750  212.0540  154.6400 C   0  0  0  0  0  2  0  0  0  0  0  0
  161.0170  202.7030  149.8010 C   0  0  0  0  0  0  0  0  0  0  0  0
  161.5470  207.7820  151.0510 C   0  0  0  0  0  0  0  0  0  0  0  0
  161.1450  208.3700  155.1710 N   0  0  0  0  0  2  0  0  0  0  0  0
  161.3210  206.7360  151.8920 C   0  0  0  0  0  0  0  0  0  0  0  0
  162.0110  209.9320  149.3060 C   0  0  0  0  0  3  0  0  0  0  0  0
  160.8040  203.1200  152.2650 C   0  0  0  0  0  3  0  0  0  0  0  0
  161.8940  210.1570  150.6790 C   0  0  0  0  0  3  0  0  0  0  0  0
  160.9570  204.4300  152.4130 C   0  0  0  0  0  3  0  0  0  0  0  0
  161.2420  204.0890  149.3530 C   0  0  0  0  0  0  0  0  0  0  0  0
  161.8970  208.6390  148.7970 C   0  0  0  0  0  3  0  0  0  0  0  0
  161.5450  206.2670  149.1920 C   0  0  0  0  0  0  0  0  0  0  0  0
  161.0080  201.6230  148.7690 C   0  0  0  0  0  2  0  0  0  0  0  0
  160.2320  202.0740  147.5430 C   0  0  0  0  0  2  0  0  0  0  0  0
  160.8320  199.3190  145.6440 C   0  0  0  0  0  2  0  0  0  0  0  0
  159.8980  201.4690  145.3040 C   0  0  0  0  0  2  0  0  0  0  0  0
  160.9120  201.6340  146.3370 N   0  0  0  0  0  0  0  0  0  0  0  0
  160.1790  200.1700  144.5930 C   0  0  0  0  0  2  0  0  0  0  0  0
  161.4510  200.3060  146.6130 C   0  0  0  0  0  2  0  0  0  0  0  0
  1 18  1  0  0  0  0
  2 14  2  0  0  0  0
  2 27  1  0  0  0  0
  3 16  1  1  0  0  0
  3  8  1  0  0  0  0
  3  7  1  0  0  0  0
  4 15  1  0  0  0  0
  5 19  1  0  0  0  0
  6  7  1  0  0  0  0
  8 12  1  6  0  0  0
  9 13  1  0  0  0  0
 10 22  1  0  0  0  0
 11  5  2  0  0  0  0
 13 20  1  0  0  0  0
 13 24  1  0  0  0  0
 14 25  1  0  0  0  0
 15 12  1  0  0  0  0
 15  5  1  0  0  0  0
 16  8  1  0  0  0  0
 17 10  2  0  0  0  0
 18  4  1  0  0  0  0
 18 20  2  0  0  0  0
 19  6  1  0  0  0  0
 20 11  1  0  0  0  0
 21 23  1  0  0  0  0
 22 24  2  0  0  0  0
 23  4  2  0  0  0  0
 25 17  1  0  0  0  0
 25  9  2  0  0  0  0
 26 21  2  0  0  0  0
 26  1  1  0  0  0  0
 27  1  2  0  0  0  0
 27  9  1  0  0  0  0
 28 17  1  0  0  0  0
 29 28  1  0  0  0  0
 30 34  1  0  0  0  0
 31 32  1  0  0  0  0
 32 34  1  0  0  0  0
 32 29  1  0  0  0  0
 33 31  1  0  0  0  0
 33 30  1  0  0  0  0
M  END
>  <MODEL>
3

>  <REMARK>
 VINA RESULT:      -8.9      1.520      9.229
  Name = 
  3 active torsions:
  status: ('A' for Active; 'I' for Inactive)
    1  A    between atoms: C_17  and  C_28
    2  A    between atoms: C_28  and  C_29
    3  A    between atoms: C_29  and  N_32
                            x       y       z     vdW  Elec       q    Type
                         _______ _______ _______ _____ _____    ______ ____

>  <TORSDO>
F 3

$$$$
=
 OpenBabel11122414303D

 34 41  0  0  1  0  0  0  0  0999 V2000
  161.6210  208.3390  149.9880 C   0  0  0  0  0  0  0  0  0  0  0  0
  161.5390  206.9530  147.8130 C   0  0  0  0  0  3  0  0  0  0  0  0
  159.6230  210.3460  155.4070 C   0  0  2  0  0  3  0  0  0  0  0  0
  161.6650  209.4690  152.1590 C   0  0  0  0  0  0  0  0  0  0  0  0
  161.3870  208.2010  154.1400 C   0  0  0  0  0  0  0  0  0  0  0  0
  159.9100  207.9850  156.1660 C   0  0  0  0  0  2  0  0  0  0  0  0
  159.3780  209.3770  156.5460 C   0  0  0  0  0  2  0  0  0  0  0  0
  161.0670  210.7610  155.6230 C   0  0  1  0  0  3  0  0  0  0  0  0
  161.2840  205.9570  149.9370 C   0  0  0  0  0  0  0  0  0  0  0  0
  160.8310  202.9110  150.3630 C   0  0  0  0  0  3  0  0  0  0  0  0
  161.2610  207.0810  153.3830 N   0  0  0  0  0  0  0  0  0  0  0  0
  161.7590  210.7040  154.2690 C   0  0  0  0  0  2  0  0  0  0  0  0
  161.2020  205.9130  151.3100 N   0  0  0  0  0  0  0  0  0  0  0  0
  161.3390  205.5180  147.7080 N   0  0  0  0  0  0  0  0  0  0  0  0
  161.5810  209.4270  153.5290 N   0  0  0  0  0  0  0  0  0  0  0  0
  159.9550  211.7760  155.7800 C   0  0  0  0  0  2  0  0  0  0  0  0
  160.9810  203.5350  149.2050 C   0  0  0  0  0  0  0  0  0  0  0  0
  161.5380  208.2820  151.3960 C   0  0  0  0  0  0  0  0  0  0  0  0
  161.2410  208.0650  155.5600 N   0  0  0  0  0  2  0  0  0  0  0  0
  161.3350  207.0930  152.0240 C   0  0  0  0  0  0  0  0  0  0  0  0
  161.9560  210.7310  150.0860 C   0  0  0  0  0  3  0  0  0  0  0  0
  160.8310  203.4700  151.7080 C   0  0  0  0  0  3  0  0  0  0  0  0
  161.8740  210.6870  151.4780 C   0  0  0  0  0  3  0  0  0  0  0  0
  160.9860  204.7280  152.1020 C   0  0  0  0  0  3  0  0  0  0  0  0
  161.1940  204.9830  149.0270 C   0  0  0  0  0  0  0  0  0  0  0  0
  161.8300  209.5590  149.3400 C   0  0  0  0  0  3  0  0  0  0  0  0
  161.4900  207.1540  149.2800 C   0  0  0  0  0  0  0  0  0  0  0  0
  160.9470  202.6740  147.9860 C   0  0  0  0  0  2  0  0  0  0  0  0
  161.9370  203.1870  146.9520 C   0  0  0  0  0  2  0  0  0  0  0  0
  159.4110  201.6970  145.2310 C   0  0  0  0  0  2  0  0  0  0  0  0
  160.7000  203.6730  145.0220 C   0  0  0  0  0  2  0  0  0  0  0  0
  161.5800  202.6870  145.6360 N   0  0  0  0  0  0  0  0  0  0  0  0
  159.5550  202.9280  144.3850 C   0  0  0  0  0  2  0  0  0  0  0  0
  160.7830  201.4810  145.8390 C   0  0  0  0  0  2  0  0  0  0  0  0
  1 18  1  0  0  0  0
  2 27  1  0  0  0  0
  3  8  1  0  0  0  0
  3 16  1  1  0  0  0
  3  7  1  0  0  0  0
  4 15  1  0  0  0  0
  5 19  1  0  0  0  0
  6  7  1  0  0  0  0
  8 12  1  6  0  0  0
  8 16  1  0  0  0  0
  9 13  1  0  0  0  0
 10 22  1  0  0  0  0
 11  5  2  0  0  0  0
 13 20  1  0  0  0  0
 13 24  1  0  0  0  0
 14  2  2  0  0  0  0
 14 25  1  0  0  0  0
 15  5  1  0  0  0  0
 15 12  1  0  0  0  0
 17 10  2  0  0  0  0
 18 20  2  0  0  0  0
 18  4  1  0  0  0  0
 19  6  1  0  0  0  0
 20 11  1  0  0  0  0
 21 23  1  0  0  0  0
 22 24  2  0  0  0  0
 23  4  2  0  0  0  0
 25 17  1  0  0  0  0
 25  9  2  0  0  0  0
 26  1  1  0  0  0  0
 26 21  2  0  0  0  0
 27  9  1  0  0  0  0
 27  1  2  0  0  0  0
 28 17  1  0  0  0  0
 29 28  1  0  0  0  0
 30 34  1  0  0  0  0
 31 32  1  0  0  0  0
 32 34  1  0  0  0  0
 32 29  1  0  0  0  0
 33 31  1  0  0  0  0
 33 30  1  0  0  0  0
M  END
>  <MODEL>
4

>  <REMARK>
 VINA RESULT:      -8.3      1.403      9.111
  Name = 
  3 active torsions:
  status: ('A' for Active; 'I' for Inactive)
    1  A    between atoms: C_17  and  C_28
    2  A    between atoms: C_28  and  C_29
    3  A    between atoms: C_29  and  N_32
                            x       y       z     vdW  Elec       q    Type
                         _______ _______ _______ _____ _____    ______ ____

>  <TORSDO>
F 3

$$$$
