=
 OpenBabel11122414083D

 28 32  0  0  1  0  0  0  0  0999 V2000
  159.1080  213.6480  142.2750 C   0  0  0  0  0  0  0  0  0  0  0  0
  161.5830  213.2300  138.8980 O   0  0  0  0  0  1  0  0  0  0  0  0
  159.4390  210.2810  137.0120 O   0  0  0  0  0  0  0  0  0  0  0  0
  159.3620  212.2300  144.6780 C   0  0  0  0  0  3  0  0  0  0  0  0
  161.1000  209.8210  138.6070 N   0  0  0  0  0  0  0  0  0  0  0  0
  158.9120  214.4010  140.9940 C   0  0  0  0  0  2  0  0  0  0  0  0
  161.9710  214.4520  140.7760 O   0  0  0  0  0  1  0  0  0  0  0  0
  162.2830  213.2690  140.1080 C   0  0  0  0  0  0  0  0  0  0  0  0
  164.1770  211.9560  139.2150 C   0  0  0  0  0  0  0  0  0  0  0  0
  161.9040  212.0690  140.9930 C   0  0  2  0  0  3  0  0  0  0  0  0
  156.2580  212.3990  139.5390 O   0  0  0  0  0  1  0  0  0  0  0  0
  159.9820  210.6590  140.5530 C   0  0  2  0  0  3  0  0  0  0  0  0
  163.4560  210.7930  139.4930 O   0  0  0  0  0  0  0  0  0  0  0  0
  163.7810  213.2550  139.8320 C   0  0  0  0  0  2  0  0  0  0  0  0
  157.5220  212.6790  140.0550 C   0  0  1  0  0  3  0  0  0  0  0  0
  159.8300  212.4370  142.3020 C   0  0  0  0  0  0  0  0  0  0  0  0
  159.8460  210.3280  138.2040 C   0  0  0  0  0  0  0  0  0  0  0  0
  165.2160  211.9060  138.3980 C   0  0  0  0  0  2  0  0  0  0  0  0
  158.5880  212.2720  139.0500 C   0  0  0  0  0  2  0  0  0  0  0  0
  159.9520  211.7380  143.5120 C   0  0  0  0  0  3  0  0  0  0  0  0
  158.5140  214.1320  143.4460 C   0  0  0  0  0  3  0  0  0  0  0  0
  158.6420  213.4270  144.6440 C   0  0  0  0  0  3  0  0  0  0  0  0
  157.6150  214.1010  140.3810 N   0  0  0  0  0  2  0  0  0  0  0  0
  161.2240  209.8930  140.0540 C   0  0  2  0  0  3  0  0  0  0  0  0
  159.0410  210.8430  139.3280 C   0  0  2  0  0  3  0  0  0  0  0  0
  162.4350  210.7190  140.4950 C   0  0  2  0  0  3  0  0  0  0  0  0
  161.8980  208.9260  137.7840 C   0  0  0  0  0  1  0  0  0  0  0  0
  160.4610  211.9190  141.1220 N   0  0  0  0  0  0  0  0  0  0  0  0
  1 16  2  0  0  0  0
  1 21  1  0  0  0  0
  2  8  1  0  0  0  0
  3 17  2  0  0  0  0
  6  1  1  0  0  0  0
  8  7  1  0  0  0  0
  9 13  1  0  0  0  0
  9 14  1  0  0  0  0
 10  8  1  6  0  0  0
 10 28  1  0  0  0  0
 12 28  1  6  0  0  0
 14  8  1  0  0  0  0
 15 11  1  6  0  0  0
 15 23  1  0  0  0  0
 16 20  1  0  0  0  0
 17  5  1  0  0  0  0
 17 25  1  0  0  0  0
 18  9  2  0  0  0  0
 19 15  1  0  0  0  0
 20  4  2  0  0  0  0
 21 22  2  0  0  0  0
 22  4  1  0  0  0  0
 23  6  1  0  0  0  0
 24  5  1  6  0  0  0
 24 26  1  0  0  0  0
 24 12  1  0  0  0  0
 25 19  1  6  0  0  0
 25 12  1  0  0  0  0
 26 13  1  6  0  0  0
 26 10  1  0  0  0  0
 27  5  1  0  0  0  0
 28 16  1  0  0  0  0
M  END
>  <MODEL>
1

>  <REMARK>
 VINA RESULT:      -3.8      0.000      0.000
  Name = 
  0 active torsions:
  status: ('A' for Active; 'I' for Inactive)
                            x       y       z     vdW  Elec       q    Type
                         _______ _______ _______ _____ _____    ______ ____

>  <TORSDO>
F 0

$$$$
=
 OpenBabel11122414083D

 28 32  0  0  1  0  0  0  0  0999 V2000
  157.0120  213.2930  138.4490 C   0  0  0  0  0  0  0  0  0  0  0  0
  160.9120  212.4590  137.1060 O   0  0  0  0  0  1  0  0  0  0  0  0
  161.1760  208.6240  138.5450 O   0  0  0  0  0  0  0  0  0  0  0  0
  156.3360  214.4100  140.9280 C   0  0  0  0  0  3  0  0  0  0  0  0
  161.7430  210.5050  139.8310 N   0  0  0  0  0  0  0  0  0  0  0  0
  157.3260  212.6580  137.1280 C   0  0  0  0  0  2  0  0  0  0  0  0
  159.8140  214.4500  137.0720 O   0  0  0  0  0  1  0  0  0  0  0  0
  160.7860  213.7020  137.7340 C   0  0  0  0  0  0  0  0  0  0  0  0
  163.1540  213.7410  138.4410 C   0  0  0  0  0  0  0  0  0  0  0  0
  160.3770  213.5280  139.2070 C   0  0  2  0  0  3  0  0  0  0  0  0
  156.6650  209.1910  137.9720 O   0  0  0  0  0  1  0  0  0  0  0  0
  159.5520  211.4340  140.1080 C   0  0  2  0  0  3  0  0  0  0  0  0
  162.7980  212.9720  139.5510 O   0  0  0  0  0  0  0  0  0  0  0  0
  162.1090  214.4530  137.6500 C   0  0  0  0  0  2  0  0  0  0  0  0
  157.2830  210.4380  138.0490 C   0  0  1  0  0  3  0  0  0  0  0  0
  157.9330  213.2420  139.5160 C   0  0  0  0  0  0  0  0  0  0  0  0
  160.8290  209.6750  139.1470 C   0  0  0  0  0  0  0  0  0  0  0  0
  164.4250  213.8360  138.0880 C   0  0  0  0  0  2  0  0  0  0  0  0
  158.7880  210.2750  137.9000 C   0  0  0  0  0  2  0  0  0  0  0  0
  157.5840  213.8070  140.7510 C   0  0  0  0  0  3  0  0  0  0  0  0
  155.7620  213.8920  138.6350 C   0  0  0  0  0  3  0  0  0  0  0  0
  155.4250  214.4520  139.8690 C   0  0  0  0  0  3  0  0  0  0  0  0
  156.7410  211.3200  137.0160 N   0  0  0  0  0  2  0  0  0  0  0  0
  161.0280  211.5570  140.5370 C   0  0  2  0  0  3  0  0  0  0  0  0
  159.4300  210.1260  139.2750 C   0  0  2  0  0  3  0  0  0  0  0  0
  161.4780  212.9560  140.1090 C   0  0  2  0  0  3  0  0  0  0  0  0
  163.0890  210.0830  140.1850 C   0  0  0  0  0  1  0  0  0  0  0  0
  159.2280  212.6450  139.3540 N   0  0  0  0  0  0  0  0  0  0  0  0
  1 21  2  0  0  0  0
  1 16  1  0  0  0  0
  2  8  1  0  0  0  0
  3 17  2  0  0  0  0
  5 27  1  0  0  0  0
  6  1  1  0  0  0  0
  7  8  1  0  0  0  0
  9 13  1  0  0  0  0
 10  8  1  6  0  0  0
 10 28  1  0  0  0  0
 10 26  1  0  0  0  0
 12 28  1  6  0  0  0
 12 24  1  0  0  0  0
 14  8  1  0  0  0  0
 14  9  1  0  0  0  0
 15 11  1  6  0  0  0
 16 20  2  0  0  0  0
 17 25  1  0  0  0  0
 17  5  1  0  0  0  0
 18  9  2  0  0  0  0
 19 15  1  0  0  0  0
 20  4  1  0  0  0  0
 21 22  1  0  0  0  0
 22  4  2  0  0  0  0
 23  6  1  0  0  0  0
 23 15  1  0  0  0  0
 24  5  1  6  0  0  0
 25 19  1  6  0  0  0
 25 12  1  0  0  0  0
 26 13  1  6  0  0  0
 26 24  1  0  0  0  0
 28 16  1  0  0  0  0
M  END
>  <MODEL>
2

>  <REMARK>
 VINA RESULT:      -3.5      2.208      3.318
  Name = 
  0 active torsions:
  status: ('A' for Active; 'I' for Inactive)
                            x       y       z     vdW  Elec       q    Type
                         _______ _______ _______ _____ _____    ______ ____

>  <TORSDO>
F 0

$$$$
=
 OpenBabel11122414083D

 28 32  0  0  1  0  0  0  0  0999 V2000
  161.9900  209.5450  137.6870 C   0  0  0  0  0  0  0  0  0  0  0  0
  160.0790  213.1300  138.7860 O   0  0  0  0  0  1  0  0  0  0  0  0
  162.8990  214.4520  141.4600 O   0  0  0  0  0  0  0  0  0  0  0  0
  161.6530  207.0600  138.9360 C   0  0  0  0  0  3  0  0  0  0  0  0
  161.1380  213.0240  142.0730 N   0  0  0  0  0  0  0  0  0  0  0  0
  162.2290  210.8630  137.0140 C   0  0  0  0  0  2  0  0  0  0  0  0
  159.2570  211.4400  137.5070 O   0  0  0  0  0  1  0  0  0  0  0  0
  159.2300  212.0200  138.7740 C   0  0  0  0  0  0  0  0  0  0  0  0
  157.7050  212.9930  140.4580 C   0  0  0  0  0  0  0  0  0  0  0  0
  159.6760  210.9820  139.8180 C   0  0  2  0  0  3  0  0  0  0  0  0
  165.3380  211.7940  138.6360 O   0  0  0  0  0  1  0  0  0  0  0  0
  161.8420  211.0540  140.9060 C   0  0  2  0  0  3  0  0  0  0  0  0
  158.5610  212.5190  141.4550 O   0  0  0  0  0  0  0  0  0  0  0  0
  157.8030  212.4650  139.0670 C   0  0  0  0  0  2  0  0  0  0  0  0
  163.9890  211.4580  138.5380 C   0  0  1  0  0  3  0  0  0  0  0  0
  161.4750  209.4830  138.9980 C   0  0  0  0  0  0  0  0  0  0  0  0
  162.3360  213.3270  141.3920 C   0  0  0  0  0  0  0  0  0  0  0  0
  156.8050  213.9160  140.7500 C   0  0  0  0  0  2  0  0  0  0  0  0
  163.1430  212.5360  139.2000 C   0  0  0  0  0  2  0  0  0  0  0  0
  161.3090  208.2330  139.6110 C   0  0  0  0  0  3  0  0  0  0  0  0
  162.3390  208.3670  137.0180 C   0  0  0  0  0  3  0  0  0  0  0  0
  162.1690  207.1280  137.6380 C   0  0  0  0  0  3  0  0  0  0  0  0
  163.6260  211.2880  137.1330 N   0  0  0  0  0  2  0  0  0  0  0  0
  160.8150  211.6150  141.9110 C   0  0  2  0  0  3  0  0  0  0  0  0
  162.8930  212.1730  140.6600 C   0  0  2  0  0  3  0  0  0  0  0  0
  159.4400  211.4020  141.2740 C   0  0  2  0  0  3  0  0  0  0  0  0
  160.6100  213.8420  143.1540 C   0  0  0  0  0  1  0  0  0  0  0  0
  161.0950  210.6720  139.7070 N   0  0  0  0  0  0  0  0  0  0  0  0
  1 16  1  0  0  0  0
  4 20  1  0  0  0  0
  5 27  1  0  0  0  0
  6 23  1  0  0  0  0
  6  1  1  0  0  0  0
  7  8  1  0  0  0  0
  8  2  1  0  0  0  0
  8 14  1  0  0  0  0
  9 18  2  0  0  0  0
  9 13  1  0  0  0  0
 10  8  1  6  0  0  0
 10 26  1  0  0  0  0
 12 28  1  6  0  0  0
 12 24  1  0  0  0  0
 14  9  1  0  0  0  0
 15 11  1  6  0  0  0
 15 19  1  0  0  0  0
 16 20  2  0  0  0  0
 16 28  1  0  0  0  0
 17  3  2  0  0  0  0
 17  5  1  0  0  0  0
 21 22  1  0  0  0  0
 21  1  2  0  0  0  0
 22  4  2  0  0  0  0
 23 15  1  0  0  0  0
 24  5  1  6  0  0  0
 25 19  1  6  0  0  0
 25 12  1  0  0  0  0
 25 17  1  0  0  0  0
 26 13  1  6  0  0  0
 26 24  1  0  0  0  0
 28 10  1  0  0  0  0
M  END
>  <MODEL>
3

>  <REMARK>
 VINA RESULT:      -3.2      1.731      6.076
  Name = 
  0 active torsions:
  status: ('A' for Active; 'I' for Inactive)
                            x       y       z     vdW  Elec       q    Type
                         _______ _______ _______ _____ _____    ______ ____

>  <TORSDO>
F 0

$$$$
=
 OpenBabel11122414083D

 28 32  0  0  1  0  0  0  0  0999 V2000
  161.0350  208.9140  154.3780 C   0  0  0  0  0  0  0  0  0  0  0  0
  159.6290  212.8050  153.6070 O   0  0  0  0  0  1  0  0  0  0  0  0
  160.5540  214.4510  157.2520 O   0  0  0  0  0  0  0  0  0  0  0  0
  159.5320  206.8140  155.4620 C   0  0  0  0  0  3  0  0  0  0  0  0
  158.5200  213.3550  156.8330 N   0  0  0  0  0  0  0  0  0  0  0  0
  161.8870  210.0200  153.8310 C   0  0  0  0  0  2  0  0  0  0  0  0
  159.3830  210.9470  152.3200 O   0  0  0  0  0  1  0  0  0  0  0  0
  158.7410  211.7980  153.2180 C   0  0  0  0  0  0  0  0  0  0  0  0
  156.7600  213.2530  153.4730 C   0  0  0  0  0  0  0  0  0  0  0  0
  158.2690  210.9880  154.4380 C   0  0  2  0  0  3  0  0  0  0  0  0
  163.5730  211.0240  156.8840 O   0  0  0  0  0  1  0  0  0  0  0  0
  159.3490  211.1180  156.6050 C   0  0  2  0  0  3  0  0  0  0  0  0
  156.7530  212.9460  154.8350 O   0  0  0  0  0  0  0  0  0  0  0  0
  157.5410  212.4190  152.5150 C   0  0  0  0  0  2  0  0  0  0  0  0
  162.5010  210.7920  156.0230 C   0  0  1  0  0  3  0  0  0  0  0  0
  159.8520  209.1940  155.0920 C   0  0  0  0  0  0  0  0  0  0  0  0
  159.9210  213.3910  156.9970 C   0  0  0  0  0  0  0  0  0  0  0  0
  156.0720  214.2920  153.0310 C   0  0  0  0  0  2  0  0  0  0  0  0
  161.6720  212.0600  155.8830 C   0  0  0  0  0  2  0  0  0  0  0  0
  159.1070  208.1340  155.6280 C   0  0  0  0  0  3  0  0  0  0  0  0
  161.4580  207.5900  154.2210 C   0  0  0  0  0  3  0  0  0  0  0  0
  160.7080  206.5430  154.7580 C   0  0  0  0  0  3  0  0  0  0  0  0
  163.0020  210.3400  154.7260 N   0  0  0  0  0  2  0  0  0  0  0  0
  158.0720  211.9780  156.6880 C   0  0  2  0  0  3  0  0  0  0  0  0
  160.5490  212.0590  156.9150 C   0  0  2  0  0  3  0  0  0  0  0  0
  157.3200  211.7460  155.3750 C   0  0  2  0  0  3  0  0  0  0  0  0
  157.6420  214.4370  157.2470 C   0  0  0  0  0  1  0  0  0  0  0  0
  159.3840  210.5410  155.2610 N   0  0  0  0  0  0  0  0  0  0  0  0
  1 16  1  0  0  0  0
  4 20  1  0  0  0  0
  5 17  1  0  0  0  0
  5 27  1  0  0  0  0
  6  1  1  0  0  0  0
  6 23  1  0  0  0  0
  7  8  1  0  0  0  0
  8  2  1  0  0  0  0
  9 13  1  0  0  0  0
 10  8  1  6  0  0  0
 10 28  1  0  0  0  0
 10 26  1  0  0  0  0
 12 28  1  6  0  0  0
 12 24  1  0  0  0  0
 12 25  1  0  0  0  0
 14  8  1  0  0  0  0
 14  9  1  0  0  0  0
 15 11  1  1  0  0  0
 16 28  1  0  0  0  0
 16 20  2  0  0  0  0
 17  3  2  0  0  0  0
 18  9  2  0  0  0  0
 19 15  1  0  0  0  0
 21  1  2  0  0  0  0
 21 22  1  0  0  0  0
 22  4  2  0  0  0  0
 23 15  1  0  0  0  0
 24  5  1  6  0  0  0
 25 19  1  6  0  0  0
 25 17  1  0  0  0  0
 26 13  1  6  0  0  0
 26 24  1  0  0  0  0
M  END
>  <MODEL>
4

>  <REMARK>
 VINA RESULT:      -2.6     13.051     15.851
  Name = 
  0 active torsions:
  status: ('A' for Active; 'I' for Inactive)
                            x       y       z     vdW  Elec       q    Type
                         _______ _______ _______ _____ _____    ______ ____

>  <TORSDO>
F 0

$$$$
=
 OpenBabel11122414083D

 28 32  0  0  1  0  0  0  0  0999 V2000
  161.2240  209.2610  155.5010 C   0  0  0  0  0  0  0  0  0  0  0  0
  158.9260  210.1310  152.0850 O   0  0  0  0  0  1  0  0  0  0  0  0
  161.0260  207.8280  149.4140 O   0  0  0  0  0  0  0  0  0  0  0  0
  163.4710  210.6890  156.3710 C   0  0  0  0  0  3  0  0  0  0  0  0
  161.6070  210.0500  149.9060 N   0  0  0  0  0  0  0  0  0  0  0  0
  160.0490  208.4450  155.0500 C   0  0  0  0  0  2  0  0  0  0  0  0
  158.7990  211.0940  154.1410 O   0  0  0  0  0  1  0  0  0  0  0  0
  159.2650  211.2600  152.8380 C   0  0  0  0  0  0  0  0  0  0  0  0
  159.1500  212.7700  150.8850 C   0  0  0  0  0  0  0  0  0  0  0  0
  160.7910  211.4560  152.8650 C   0  0  2  0  0  3  0  0  0  0  0  0
  161.8160  205.7320  153.4110 O   0  0  0  0  0  1  0  0  0  0  0  0
  162.3540  209.7410  152.1620 C   0  0  2  0  0  3  0  0  0  0  0  0
  160.4570  212.4000  150.5660 O   0  0  0  0  0  0  0  0  0  0  0  0
  158.5970  212.4920  152.2420 C   0  0  0  0  0  2  0  0  0  0  0  0
  161.4080  207.0440  153.6480 C   0  0  1  0  0  3  0  0  0  0  0  0
  161.9220  210.0890  154.5980 C   0  0  0  0  0  0  0  0  0  0  0  0
  161.4560  208.6850  150.2320 C   0  0  0  0  0  0  0  0  0  0  0  0
  158.3960  213.3690  149.9780 C   0  0  0  0  0  2  0  0  0  0  0  0
  160.8260  207.6390  152.3750 C   0  0  0  0  0  2  0  0  0  0  0  0
  163.0440  210.8000  155.0470 C   0  0  0  0  0  3  0  0  0  0  0  0
  161.6610  209.1490  156.8250 C   0  0  0  0  0  3  0  0  0  0  0  0
  162.7790  209.8630  157.2610 C   0  0  0  0  0  3  0  0  0  0  0  0
  160.4340  207.0670  154.7370 N   0  0  0  0  0  2  0  0  0  0  0  0
  162.2490  210.7550  151.0040 C   0  0  2  0  0  3  0  0  0  0  0  0
  161.9200  208.3600  151.5940 C   0  0  2  0  0  3  0  0  0  0  0  0
  161.3970  211.9120  151.5310 C   0  0  2  0  0  3  0  0  0  0  0  0
  161.5950  210.5470  148.5400 C   0  0  0  0  0  1  0  0  0  0  0  0
  161.4920  210.2350  153.2360 N   0  0  0  0  0  0  0  0  0  0  0  0
  1 21  1  0  0  0  0
  2  8  1  0  0  0  0
  3 17  2  0  0  0  0
  4 22  1  0  0  0  0
  5 17  1  0  0  0  0
  6  1  1  0  0  0  0
  8  7  1  0  0  0  0
  9 14  1  0  0  0  0
 10  8  1  6  0  0  0
 10 28  1  0  0  0  0
 12 28  1  1  0  0  0
 13  9  1  0  0  0  0
 14  8  1  0  0  0  0
 15 11  1  6  0  0  0
 15 23  1  0  0  0  0
 16 20  1  0  0  0  0
 16  1  2  0  0  0  0
 17 25  1  0  0  0  0
 18  9  2  0  0  0  0
 19 15  1  0  0  0  0
 20  4  2  0  0  0  0
 21 22  2  0  0  0  0
 23  6  1  0  0  0  0
 24  5  1  6  0  0  0
 24 26  1  0  0  0  0
 24 12  1  0  0  0  0
 25 12  1  0  0  0  0
 25 19  1  1  0  0  0
 26 13  1  6  0  0  0
 26 10  1  0  0  0  0
 27  5  1  0  0  0  0
 28 16  1  0  0  0  0
M  END
>  <MODEL>
5

>  <REMARK>
 VINA RESULT:      -2.3     10.321     13.220
  Name = 
  0 active torsions:
  status: ('A' for Active; 'I' for Inactive)
                            x       y       z     vdW  Elec       q    Type
                         _______ _______ _______ _____ _____    ______ ____

>  <TORSDO>
F 0

$$$$
=
 OpenBabel11122414083D

 28 32  0  0  1  0  0  0  0  0999 V2000
  161.1040  209.4350  155.9180 C   0  0  0  0  0  0  0  0  0  0  0  0
  157.2630  210.6850  154.7370 O   0  0  0  0  0  1  0  0  0  0  0  0
  158.2490  211.9940  150.9730 O   0  0  0  0  0  0  0  0  0  0  0  0
  163.0180  211.0220  157.2090 C   0  0  0  0  0  3  0  0  0  0  0  0
  158.3930  213.3660  152.8730 N   0  0  0  0  0  0  0  0  0  0  0  0
  160.1240  208.5620  155.1940 C   0  0  0  0  0  2  0  0  0  0  0  0
  157.9420  210.0040  156.7970 O   0  0  0  0  0  1  0  0  0  0  0  0
  157.6260  211.1150  156.0170 C   0  0  0  0  0  0  0  0  0  0  0  0
  156.1520  213.0960  155.9230 C   0  0  0  0  0  0  0  0  0  0  0  0
  158.8440  212.0530  155.9500 C   0  0  2  0  0  3  0  0  0  0  0  0
  161.4620  208.8430  151.8330 O   0  0  0  0  0  1  0  0  0  0  0  0
  160.2260  212.2810  153.9710 C   0  0  2  0  0  3  0  0  0  0  0  0
  157.1640  213.7740  155.2410 O   0  0  0  0  0  0  0  0  0  0  0  0
  156.4530  211.8380  156.6660 C   0  0  0  0  0  2  0  0  0  0  0  0
  160.9020  209.2740  153.0340 C   0  0  1  0  0  3  0  0  0  0  0  0
  161.0070  210.8410  155.8570 C   0  0  0  0  0  0  0  0  0  0  0  0
  158.7900  212.2710  152.0770 C   0  0  0  0  0  0  0  0  0  0  0  0
  154.9180  213.5720  155.9080 C   0  0  0  0  0  2  0  0  0  0  0  0
  159.6260  210.0530  152.7560 C   0  0  0  0  0  2  0  0  0  0  0  0
  161.9700  211.6240  156.5100 C   0  0  0  0  0  3  0  0  0  0  0  0
  162.1600  208.8390  156.6150 C   0  0  0  0  0  3  0  0  0  0  0  0
  163.1130  209.6290  157.2610 C   0  0  0  0  0  3  0  0  0  0  0  0
  160.6430  208.1220  153.8970 N   0  0  0  0  0  2  0  0  0  0  0  0
  159.2910  213.5070  154.0100 C   0  0  2  0  0  3  0  0  0  0  0  0
  159.9440  211.5390  152.6330 C   0  0  2  0  0  3  0  0  0  0  0  0
  158.5520  213.4330  155.3480 C   0  0  2  0  0  3  0  0  0  0  0  0
  157.5650  214.4530  152.3750 C   0  0  0  0  0  1  0  0  0  0  0  0
  159.9290  211.4840  155.1610 N   0  0  0  0  0  0  0  0  0  0  0  0
  1 21  1  0  0  0  0
  2  8  1  0  0  0  0
  3 17  2  0  0  0  0
  4 22  1  0  0  0  0
  6  1  1  0  0  0  0
  8 14  1  0  0  0  0
  8  7  1  0  0  0  0
  9 14  1  0  0  0  0
 10 28  1  6  0  0  0
 10  8  1  0  0  0  0
 12 24  1  0  0  0  0
 12 28  1  1  0  0  0
 13  9  1  0  0  0  0
 15 11  1  6  0  0  0
 15 23  1  0  0  0  0
 16  1  2  0  0  0  0
 16 20  1  0  0  0  0
 17 25  1  0  0  0  0
 17  5  1  0  0  0  0
 18  9  2  0  0  0  0
 19 15  1  0  0  0  0
 20  4  2  0  0  0  0
 21 22  2  0  0  0  0
 23  6  1  0  0  0  0
 24  5  1  6  0  0  0
 24 26  1  0  0  0  0
 25 19  1  1  0  0  0
 25 12  1  0  0  0  0
 26 13  1  6  0  0  0
 26 10  1  0  0  0  0
 27  5  1  0  0  0  0
 28 16  1  0  0  0  0
M  END
>  <MODEL>
6

>  <REMARK>
 VINA RESULT:      -2.1     12.134     15.309
  Name = 
  0 active torsions:
  status: ('A' for Active; 'I' for Inactive)
                            x       y       z     vdW  Elec       q    Type
                         _______ _______ _______ _____ _____    ______ ____

>  <TORSDO>
F 0

$$$$
=
 OpenBabel11122414083D

 28 32  0  0  1  0  0  0  0  0999 V2000
  161.8370  208.2880  138.3470 C   0  0  0  0  0  0  0  0  0  0  0  0
  158.9290  211.1050  137.2000 O   0  0  0  0  0  1  0  0  0  0  0  0
  160.7020  214.4200  138.8490 O   0  0  0  0  0  0  0  0  0  0  0  0
  161.8480  206.8240  140.7360 C   0  0  0  0  0  3  0  0  0  0  0  0
  159.2480  213.0260  140.0550 N   0  0  0  0  0  0  0  0  0  0  0  0
  161.8910  209.0770  137.0740 C   0  0  0  0  0  2  0  0  0  0  0  0
  158.8340  208.8410  137.0190 O   0  0  0  0  0  1  0  0  0  0  0  0
  158.3950  209.9390  137.7570 C   0  0  0  0  0  0  0  0  0  0  0  0
  156.3550  211.0860  138.5510 C   0  0  0  0  0  0  0  0  0  0  0  0
  158.8430  209.7800  139.2200 C   0  0  2  0  0  3  0  0  0  0  0  0
  164.2600  211.6380  138.0750 O   0  0  0  0  0  1  0  0  0  0  0  0
  160.6400  211.0810  140.1980 C   0  0  2  0  0  3  0  0  0  0  0  0
  157.0640  211.4850  139.6860 O   0  0  0  0  0  0  0  0  0  0  0  0
  156.8740  209.9880  137.6840 C   0  0  0  0  0  2  0  0  0  0  0  0
  163.0850  210.8890  138.1090 C   0  0  1  0  0  3  0  0  0  0  0  0
  161.0820  208.7380  139.4490 C   0  0  0  0  0  0  0  0  0  0  0  0
  160.4560  213.3040  139.3810 C   0  0  0  0  0  0  0  0  0  0  0  0
  155.2170  211.6850  138.2420 C   0  0  0  0  0  2  0  0  0  0  0  0
  161.8820  211.8170  138.0270 C   0  0  0  0  0  2  0  0  0  0  0  0
  161.0940  207.9950  140.6380 C   0  0  0  0  0  3  0  0  0  0  0  0
  162.5950  207.1170  138.4530 C   0  0  0  0  0  3  0  0  0  0  0  0
  162.5990  206.3850  139.6420 C   0  0  0  0  0  3  0  0  0  0  0  0
  163.0850  209.9240  137.0110 N   0  0  0  0  0  2  0  0  0  0  0  0
  159.3170  211.7120  140.6770 C   0  0  2  0  0  3  0  0  0  0  0  0
  161.4190  212.1870  139.4320 C   0  0  2  0  0  3  0  0  0  0  0  0
  158.2040  210.7800  140.1920 C   0  0  2  0  0  3  0  0  0  0  0  0
  158.3180  214.0590  140.4820 C   0  0  0  0  0  1  0  0  0  0  0  0
  160.2840  209.9290  139.3700 N   0  0  0  0  0  0  0  0  0  0  0  0
  1 21  2  0  0  0  0
  1 16  1  0  0  0  0
  2  8  1  0  0  0  0
  3 17  2  0  0  0  0
  5 27  1  0  0  0  0
  6  1  1  0  0  0  0
  7  8  1  0  0  0  0
  9 13  1  0  0  0  0
 10  8  1  6  0  0  0
 10 28  1  0  0  0  0
 10 26  1  0  0  0  0
 12 28  1  6  0  0  0
 12 24  1  0  0  0  0
 14  8  1  0  0  0  0
 14  9  1  0  0  0  0
 15 11  1  6  0  0  0
 16 20  2  0  0  0  0
 17 25  1  0  0  0  0
 17  5  1  0  0  0  0
 18  9  2  0  0  0  0
 19 15  1  0  0  0  0
 20  4  1  0  0  0  0
 21 22  1  0  0  0  0
 22  4  2  0  0  0  0
 23  6  1  0  0  0  0
 23 15  1  0  0  0  0
 24  5  1  6  0  0  0
 25 19  1  6  0  0  0
 25 12  1  0  0  0  0
 26 13  1  6  0  0  0
 26 24  1  0  0  0  0
 28 16  1  0  0  0  0
M  END
>  <MODEL>
7

>  <REMARK>
 VINA RESULT:      -1.5      2.064      6.212
  Name = 
  0 active torsions:
  status: ('A' for Active; 'I' for Inactive)
                            x       y       z     vdW  Elec       q    Type
                         _______ _______ _______ _____ _____    ______ ____

>  <TORSDO>
F 0

$$$$
=
 OpenBabel11122414083D

 28 32  0  0  1  0  0  0  0  0999 V2000
  160.0230  212.7180  144.0820 C   0  0  0  0  0  0  0  0  0  0  0  0
  161.8910  211.1220  140.6650 O   0  0  0  0  0  1  0  0  0  0  0  0
  164.5480  214.1830  140.0160 O   0  0  0  0  0  0  0  0  0  0  0  0
  157.7700  214.3830  144.0890 C   0  0  0  0  0  3  0  0  0  0  0  0
  162.3690  214.1860  139.1410 N   0  0  0  0  0  0  0  0  0  0  0  0
  161.2520  211.8610  144.1220 C   0  0  0  0  0  2  0  0  0  0  0  0
  160.0450  210.3480  141.7430 O   0  0  0  0  0  1  0  0  0  0  0  0
  160.4950  211.0530  140.6280 C   0  0  0  0  0  0  0  0  0  0  0  0
  160.4210  211.0820  138.1580 C   0  0  0  0  0  0  0  0  0  0  0  0
  159.8810  212.4630  140.6360 C   0  0  2  0  0  3  0  0  0  0  0  0
  163.7600  214.4530  144.5220 O   0  0  0  0  0  1  0  0  0  0  0  0
  161.1520  214.4530  141.1870 C   0  0  2  0  0  3  0  0  0  0  0  0
  160.5030  212.4750  138.2070 O   0  0  0  0  0  0  0  0  0  0  0  0
  160.0540  210.3040  139.3770 C   0  0  0  0  0  2  0  0  0  0  0  0
  162.7230  213.7510  143.9110 C   0  0  1  0  0  3  0  0  0  0  0  0
  159.6680  213.4230  142.9130 C   0  0  0  0  0  0  0  0  0  0  0  0
  163.3020  214.2390  140.1980 C   0  0  0  0  0  0  0  0  0  0  0  0
  160.6710  210.4490  137.0240 C   0  0  0  0  0  2  0  0  0  0  0  0
  163.1270  213.3640  142.4970 C   0  0  0  0  0  2  0  0  0  0  0  0
  158.5360  214.2520  142.9290 C   0  0  0  0  0  3  0  0  0  0  0  0
  159.2550  212.8600  145.2420 C   0  0  0  0  0  3  0  0  0  0  0  0
  158.1300  213.6870  145.2460 C   0  0  0  0  0  3  0  0  0  0  0  0
  162.3910  212.5720  144.7090 N   0  0  0  0  0  2  0  0  0  0  0  0
  161.0250  214.4120  139.6510 C   0  0  2  0  0  3  0  0  0  0  0  0
  162.6720  214.4400  141.5170 C   0  0  2  0  0  3  0  0  0  0  0  0
  160.0800  213.2510  139.3350 C   0  0  2  0  0  3  0  0  0  0  0  0
  162.7350  214.3840  137.7470 C   0  0  0  0  0  1  0  0  0  0  0  0
  160.4270  213.2910  141.7020 N   0  0  0  0  0  0  0  0  0  0  0  0
  1  6  1  0  0  0  0
  1 21  1  0  0  0  0
  3 17  2  0  0  0  0
  4 22  1  0  0  0  0
  5 17  1  0  0  0  0
  6 23  1  0  0  0  0
  8  2  1  0  0  0  0
  8  7  1  0  0  0  0
  9 13  1  0  0  0  0
  9 14  1  0  0  0  0
 10  8  1  6  0  0  0
 10 28  1  0  0  0  0
 12 25  1  0  0  0  0
 12 28  1  1  0  0  0
 14  8  1  0  0  0  0
 15 11  1  1  0  0  0
 15 23  1  0  0  0  0
 16 20  1  0  0  0  0
 16  1  2  0  0  0  0
 17 25  1  0  0  0  0
 18  9  2  0  0  0  0
 19 15  1  0  0  0  0
 20  4  2  0  0  0  0
 21 22  2  0  0  0  0
 24  5  1  6  0  0  0
 24 12  1  0  0  0  0
 25 19  1  1  0  0  0
 26 13  1  6  0  0  0
 26 24  1  0  0  0  0
 26 10  1  0  0  0  0
 27  5  1  0  0  0  0
 28 16  1  0  0  0  0
M  END
>  <MODEL>
8

>  <REMARK>
 VINA RESULT:      -1.3      2.177      4.594
  Name = 
  0 active torsions:
  status: ('A' for Active; 'I' for Inactive)
                            x       y       z     vdW  Elec       q    Type
                         _______ _______ _______ _____ _____    ______ ____

>  <TORSDO>
F 0

$$$$
