=
 OpenBabel11122414133D

 28 32  0  0  1  0  0  0  0  0999 V2000
  161.1100  210.5910  156.1060 C   0  0  0  0  0  0  0  0  0  0  0  0
  158.8850  211.5950  151.6820 O   0  0  0  0  0  0  0  0  0  0  0  0
  162.4880  206.2090  153.6900 C   0  0  0  0  0  1  0  0  0  0  0  0
  163.8510  211.0750  155.7730 C   0  0  0  0  0  3  0  0  0  0  0  0
  161.4390  207.4760  151.8940 N   0  0  0  0  0  0  0  0  0  0  0  0
  159.6650  210.2500  156.3190 C   0  0  0  0  0  2  0  0  0  0  0  0
  160.3260  213.4540  152.3790 O   0  0  0  0  0  0  0  0  0  0  0  0
  160.2830  212.1460  151.6400 S   0  0  0  0  0  0  0  0  0  0  0  0
  161.9240  211.6160  149.6970 C   0  0  2  0  0  3  0  0  0  0  0  0
  161.4020  211.0280  152.3770 N   0  0  2  0  0  0  0  0  0  0  0  0
  160.0780  206.5190  157.2610 C   0  0  0  0  0  1  0  0  0  0  0  0
  160.2660  209.0700  153.2800 C   0  0  1  0  0  3  0  0  0  0  0  0
  161.6590  210.1470  149.9990 C   0  0  0  0  0  2  0  0  0  0  0  0
  160.7340  212.4080  149.9860 N   0  0  0  0  0  2  0  0  0  0  0  0
  160.2580  207.7650  156.4190 C   0  0  1  0  0  3  0  0  0  0  0  0
  161.6560  210.6530  154.8070 C   0  0  0  0  0  0  0  0  0  0  0  0
  161.2160  206.8760  153.2040 C   0  0  2  0  0  3  0  0  0  0  0  0
  162.2820  211.7710  148.2350 C   0  0  0  0  0  1  0  0  0  0  0  0
  159.7890  207.5060  155.0660 N   0  0  0  0  0  2  0  0  0  0  0  0
  163.0340  210.8820  154.6570 C   0  0  0  0  0  3  0  0  0  0  0  0
  161.9350  210.7950  157.2210 C   0  0  0  0  0  3  0  0  0  0  0  0
  163.2990  211.0390  157.0540 C   0  0  0  0  0  3  0  0  0  0  0  0
  159.4830  208.9190  157.0540 C   0  0  0  0  0  2  0  0  0  0  0  0
  160.7250  208.7490  151.8810 C   0  0  1  0  0  3  0  0  0  0  0  0
  160.8240  207.9770  154.1600 C   0  0  2  0  0  3  0  0  0  0  0  0
  161.6730  209.8700  151.5090 C   0  0  2  0  0  3  0  0  0  0  0  0
  160.7890  206.6180  150.9170 C   0  0  0  0  0  1  0  0  0  0  0  0
  160.7730  210.4900  153.5830 C   0  0  1  0  0  3  0  0  0  0  0  0
  1  6  1  0  0  0  0
  1 21  1  0  0  0  0
  4 22  1  0  0  0  0
  5 17  1  0  0  0  0
  6 23  1  0  0  0  0
  8  2  2  0  0  0  0
  8  7  2  0  0  0  0
  9 18  1  6  0  0  0
  9 14  1  0  0  0  0
  9 13  1  0  0  0  0
 10  8  1  6  0  0  0
 10 28  1  0  0  0  0
 12 28  1  0  0  0  0
 12 25  1  0  0  0  0
 13 26  1  0  0  0  0
 14  8  1  0  0  0  0
 15 23  1  0  0  0  0
 15 11  1  0  0  0  0
 16  1  2  0  0  0  0
 17  3  1  0  0  0  0
 17 25  1  0  0  0  0
 19 15  1  0  0  0  0
 20 16  1  0  0  0  0
 20  4  2  0  0  0  0
 22 21  2  0  0  0  0
 24  5  1  0  0  0  0
 24 12  1  0  0  0  0
 25 19  1  0  0  0  0
 26 24  1  0  0  0  0
 26 10  1  0  0  0  0
 27  5  1  0  0  0  0
 28 16  1  0  0  0  0
M  END
>  <MODEL>
1

>  <REMARK>
 VINA RESULT:      -1.3      0.000      0.000
  Name = 
  0 active torsions:
  status: ('A' for Active; 'I' for Inactive)
                            x       y       z     vdW  Elec       q    Type
                         _______ _______ _______ _____ _____    ______ ____

>  <TORSDO>
F 0

$$$$
=
 OpenBabel11122414133D

 28 32  0  0  1  0  0  0  0  0999 V2000
  161.9630  209.9660  152.9850 C   0  0  0  0  0  0  0  0  0  0  0  0
  160.9150  214.4530  150.9120 O   0  0  0  0  0  0  0  0  0  0  0  0
  157.3610  210.6690  155.2790 C   0  0  0  0  0  1  0  0  0  0  0  0
  160.4480  208.0520  151.6050 C   0  0  0  0  0  3  0  0  0  0  0  0
  157.4640  212.5600  153.7470 N   0  0  0  0  0  0  0  0  0  0  0  0
  162.7410  210.9550  153.8000 C   0  0  0  0  0  2  0  0  0  0  0  0
  161.5090  212.8110  149.1900 O   0  0  0  0  0  0  0  0  0  0  0  0
  160.3810  213.3810  150.0030 S   0  0  0  0  0  0  0  0  0  0  0  0
  157.9340  213.3900  149.1340 C   0  0  2  0  0  3  0  0  0  0  0  0
  159.6390  212.1050  150.9340 N   0  0  2  0  0  0  0  0  0  0  0  0
  161.1720  210.2180  157.2600 C   0  0  0  0  0  1  0  0  0  0  0  0
  159.8440  212.4950  153.3310 C   0  0  1  0  0  3  0  0  0  0  0  0
  157.5140  213.4730  150.5960 C   0  0  0  0  0  2  0  0  0  0  0  0
  159.2040  214.0790  148.9390 N   0  0  0  0  0  2  0  0  0  0  0  0
  161.1780  210.5580  155.7850 C   0  0  1  0  0  3  0  0  0  0  0  0
  160.8540  210.3750  152.2140 C   0  0  0  0  0  0  0  0  0  0  0  0
  158.1170  211.9230  154.8850 C   0  0  2  0  0  3  0  0  0  0  0  0
  156.8760  214.0430  148.2710 C   0  0  0  0  0  1  0  0  0  0  0  0
  160.4440  211.7960  155.5710 N   0  0  0  0  0  2  0  0  0  0  0  0
  160.0970  209.4020  151.5390 C   0  0  0  0  0  3  0  0  0  0  0  0
  162.3150  208.6100  153.0370 C   0  0  0  0  0  3  0  0  0  0  0  0
  161.5620  207.6580  152.3480 C   0  0  0  0  0  3  0  0  0  0  0  0
  162.6230  210.6900  155.3040 C   0  0  0  0  0  2  0  0  0  0  0  0
  158.5220  213.0540  152.8710 C   0  0  1  0  0  3  0  0  0  0  0  0
  159.5230  211.5580  154.4710 C   0  0  2  0  0  3  0  0  0  0  0  0
  158.3280  212.5090  151.4710 C   0  0  2  0  0  3  0  0  0  0  0  0
  156.7620  213.7250  154.2590 C   0  0  0  0  0  1  0  0  0  0  0  0
  160.4870  211.8420  152.0970 C   0  0  1  0  0  3  0  0  0  0  0  0
  1 21  1  0  0  0  0
  1  6  1  0  0  0  0
  4 22  1  0  0  0  0
  5 27  1  0  0  0  0
  5 17  1  0  0  0  0
  6 23  1  0  0  0  0
  7  8  2  0  0  0  0
  8  2  2  0  0  0  0
  9 18  1  6  0  0  0
  9 13  1  0  0  0  0
 10  8  1  1  0  0  0
 10 26  1  0  0  0  0
 10 28  1  0  0  0  0
 12 25  1  0  0  0  0
 13 26  1  0  0  0  0
 14  9  1  0  0  0  0
 14  8  1  0  0  0  0
 15 11  1  0  0  0  0
 16  1  2  0  0  0  0
 17  3  1  0  0  0  0
 19 15  1  0  0  0  0
 20  4  2  0  0  0  0
 20 16  1  0  0  0  0
 22 21  2  0  0  0  0
 23 15  1  0  0  0  0
 24 12  1  0  0  0  0
 24  5  1  0  0  0  0
 25 17  1  0  0  0  0
 25 19  1  0  0  0  0
 26 24  1  0  0  0  0
 28 16  1  0  0  0  0
 28 12  1  0  0  0  0
M  END
>  <MODEL>
2

>  <REMARK>
 VINA RESULT:       1.4      2.845      4.698
  Name = 
  0 active torsions:
  status: ('A' for Active; 'I' for Inactive)
                            x       y       z     vdW  Elec       q    Type
                         _______ _______ _______ _____ _____    ______ ____

>  <TORSDO>
F 0

$$$$
=
 OpenBabel11122414133D

 28 32  0  0  1  0  0  0  0  0999 V2000
  161.2640  207.6260  156.1460 C   0  0  0  0  0  0  0  0  0  0  0  0
  163.6430  206.7920  151.7660 O   0  0  0  0  0  0  0  0  0  0  0  0
  159.3840  211.7430  153.6050 C   0  0  0  0  0  1  0  0  0  0  0  0
  158.6070  206.8000  155.8050 C   0  0  0  0  0  3  0  0  0  0  0  0
  160.5990  210.5690  151.8500 N   0  0  0  0  0  0  0  0  0  0  0  0
  162.6550  208.1470  156.3600 C   0  0  0  0  0  2  0  0  0  0  0  0
  162.4340  204.7890  152.5010 O   0  0  0  0  0  0  0  0  0  0  0  0
  162.3230  206.0730  151.7280 S   0  0  0  0  0  0  0  0  0  0  0  0
  160.6510  206.3470  149.7600 C   0  0  2  0  0  3  0  0  0  0  0  0
  161.0680  207.0620  152.4270 N   0  0  2  0  0  0  0  0  0  0  0  0
  161.7750  211.8220  157.2000 C   0  0  0  0  0  1  0  0  0  0  0  0
  161.9450  209.1670  153.2870 C   0  0  1  0  0  3  0  0  0  0  0  0
  160.7300  207.8450  150.0250 C   0  0  0  0  0  2  0  0  0  0  0  0
  161.9250  205.7160  150.0790 N   0  0  0  0  0  2  0  0  0  0  0  0
  161.7590  210.5430  156.3900 C   0  0  1  0  0  3  0  0  0  0  0  0
  160.7430  207.4650  154.8440 C   0  0  0  0  0  0  0  0  0  0  0  0
  160.7340  211.2250  153.1460 C   0  0  2  0  0  3  0  0  0  0  0  0
  160.3300  206.1130  148.3000 C   0  0  0  0  0  1  0  0  0  0  0  0
  162.2080  210.8230  155.0350 N   0  0  0  0  0  2  0  0  0  0  0  0
  159.4060  207.0640  154.6900 C   0  0  0  0  0  3  0  0  0  0  0  0
  160.4590  207.3500  157.2590 C   0  0  0  0  0  3  0  0  0  0  0  0
  159.1360  206.9360  157.0890 C   0  0  0  0  0  3  0  0  0  0  0  0
  162.6640  209.5090  157.0610 C   0  0  0  0  0  2  0  0  0  0  0  0
  161.4650  209.3940  151.8760 C   0  0  1  0  0  3  0  0  0  0  0  0
  161.2480  210.2050  154.1340 C   0  0  2  0  0  3  0  0  0  0  0  0
  160.6660  208.1560  151.5270 C   0  0  2  0  0  3  0  0  0  0  0  0
  161.1500  211.4760  150.8560 C   0  0  0  0  0  1  0  0  0  0  0  0
  161.6130  207.7040  153.6240 C   0  0  1  0  0  3  0  0  0  0  0  0
  1  6  1  0  0  0  0
  1 21  1  0  0  0  0
  4 22  1  0  0  0  0
  5 24  1  0  0  0  0
  5 17  1  0  0  0  0
  6 23  1  0  0  0  0
  8  2  2  0  0  0  0
  8  7  2  0  0  0  0
  9 18  1  6  0  0  0
  9 13  1  0  0  0  0
  9 14  1  0  0  0  0
 10  8  1  6  0  0  0
 10 28  1  0  0  0  0
 12 28  1  0  0  0  0
 12 25  1  0  0  0  0
 13 26  1  0  0  0  0
 14  8  1  0  0  0  0
 15 23  1  0  0  0  0
 15 11  1  0  0  0  0
 16  1  2  0  0  0  0
 17  3  1  0  0  0  0
 17 25  1  0  0  0  0
 19 15  1  0  0  0  0
 20 16  1  0  0  0  0
 20  4  2  0  0  0  0
 22 21  2  0  0  0  0
 24 12  1  0  0  0  0
 25 19  1  0  0  0  0
 26 24  1  0  0  0  0
 26 10  1  0  0  0  0
 27  5  1  0  0  0  0
 28 16  1  0  0  0  0
M  END
>  <MODEL>
3

>  <REMARK>
 VINA RESULT:       1.5      2.718      4.772
  Name = 
  0 active torsions:
  status: ('A' for Active; 'I' for Inactive)
                            x       y       z     vdW  Elec       q    Type
                         _______ _______ _______ _____ _____    ______ ____

>  <TORSDO>
F 0

$$$$
=
 OpenBabel11122414133D

 28 32  0  0  1  0  0  0  0  0999 V2000
  162.4890  209.4120  151.2690 C   0  0  0  0  0  0  0  0  0  0  0  0
  163.4170  213.6450  148.6710 O   0  0  0  0  0  0  0  0  0  0  0  0
  157.7850  211.5370  151.8100 C   0  0  0  0  0  1  0  0  0  0  0  0
  161.0100  207.7260  149.5870 C   0  0  0  0  0  3  0  0  0  0  0  0
  158.8750  213.0890  150.2830 N   0  0  0  0  0  0  0  0  0  0  0  0
  163.2170  210.3010  152.2330 C   0  0  0  0  0  2  0  0  0  0  0  0
  164.0390  211.6640  147.3660 O   0  0  0  0  0  0  0  0  0  0  0  0
  162.9170  212.6040  147.7080 S   0  0  0  0  0  0  0  0  0  0  0  0
  160.9630  213.0620  146.0600 C   0  0  2  0  0  3  0  0  0  0  0  0
  161.6010  211.7010  148.4130 N   0  0  2  0  0  0  0  0  0  0  0  0
  160.5120  210.5020  154.9950 C   0  0  0  0  0  1  0  0  0  0  0  0
  161.1520  212.3960  150.7060 C   0  0  1  0  0  3  0  0  0  0  0  0
  160.1510  213.4670  147.2830 C   0  0  0  0  0  2  0  0  0  0  0  0
  162.3690  213.3900  146.2630 N   0  0  0  0  0  2  0  0  0  0  0  0
  161.0700  210.5990  153.5900 C   0  0  1  0  0  3  0  0  0  0  0  0
  161.8320  209.9490  150.1420 C   0  0  0  0  0  0  0  0  0  0  0  0
  158.9410  212.4980  151.6150 C   0  0  2  0  0  3  0  0  0  0  0  0
  160.4490  213.8080  144.8480 C   0  0  0  0  0  1  0  0  0  0  0  0
  160.8100  211.9280  153.0580 N   0  0  0  0  0  2  0  0  0  0  0  0
  161.0840  209.0930  149.3160 C   0  0  0  0  0  3  0  0  0  0  0  0
  162.4180  208.0360  151.5280 C   0  0  0  0  0  3  0  0  0  0  0  0
  161.6840  207.1960  150.6880 C   0  0  0  0  0  3  0  0  0  0  0  0
  162.5700  210.3070  153.6210 C   0  0  0  0  0  2  0  0  0  0  0  0
  160.2460  213.1760  149.7880 C   0  0  1  0  0  3  0  0  0  0  0  0
  160.2470  211.7490  151.7290 C   0  0  2  0  0  3  0  0  0  0  0  0
  160.3540  212.4840  148.4450 C   0  0  2  0  0  3  0  0  0  0  0  0
  158.4000  214.4530  150.4470 C   0  0  0  0  0  1  0  0  0  0  0  0
  161.9400  211.4260  149.8100 C   0  0  1  0  0  3  0  0  0  0  0  0
  1 21  1  0  0  0  0
  1  6  1  0  0  0  0
  4 22  1  0  0  0  0
  5 27  1  0  0  0  0
  5 17  1  0  0  0  0
  6 23  1  0  0  0  0
  7  8  2  0  0  0  0
  8  2  2  0  0  0  0
  9 18  1  6  0  0  0
  9 14  1  0  0  0  0
  9 13  1  0  0  0  0
 10  8  1  1  0  0  0
 10 26  1  0  0  0  0
 10 28  1  0  0  0  0
 12 25  1  0  0  0  0
 13 26  1  0  0  0  0
 14  8  1  0  0  0  0
 15 23  1  0  0  0  0
 15 11  1  0  0  0  0
 16  1  2  0  0  0  0
 17 25  1  0  0  0  0
 17  3  1  0  0  0  0
 19 15  1  0  0  0  0
 20  4  2  0  0  0  0
 20 16  1  0  0  0  0
 22 21  2  0  0  0  0
 24  5  1  0  0  0  0
 24 12  1  0  0  0  0
 25 19  1  0  0  0  0
 26 24  1  0  0  0  0
 28 16  1  0  0  0  0
 28 12  1  0  0  0  0
M  END
>  <MODEL>
4

>  <REMARK>
 VINA RESULT:       1.6      2.901      5.485
  Name = 
  0 active torsions:
  status: ('A' for Active; 'I' for Inactive)
                            x       y       z     vdW  Elec       q    Type
                         _______ _______ _______ _____ _____    ______ ____

>  <TORSDO>
F 0

$$$$
