=
 OpenBabel11122413273D

 31 35  0  0  1  0  0  0  0  0999 V2000
  161.1770  203.8720  145.5800 C   0  0  0  0  0  0  0  0  0  0  0  0
  160.5390  205.7540  148.8260 C   0  0  2  0  0  3  0  0  0  0  0  0
  160.8910  204.7920  149.9550 C   0  0  0  0  0  0  0  0  0  0  0  0
  161.1710  202.5060  150.7480 C   0  0  0  0  0  0  0  0  0  0  0  0
  161.1480  205.3670  147.4950 C   0  0  0  0  0  0  0  0  0  0  0  0
  162.2840  204.5450  145.0640 C   0  0  0  0  0  3  0  0  0  0  0  0
  160.9310  203.4090  149.7120 C   0  0  0  0  0  3  0  0  0  0  0  0
  162.3420  207.5110  149.0330 C   0  0  2  0  0  3  0  0  0  0  0  0
  160.6520  202.8180  144.9100 F   0  0  0  0  0  0  0  0  0  0  0  0
  161.0260  206.7110  151.6300 C   0  0  0  0  0  2  0  0  0  0  0  0
  161.2260  201.0470  150.4640 C   0  0  0  0  0  1  0  0  0  0  0  0
  162.7860  207.3170  147.5850 C   0  0  0  0  0  2  0  0  0  0  0  0
  160.8400  207.2240  149.1730 C   0  0  2  0  0  3  0  0  0  0  0  0
  160.6090  204.2830  146.7880 C   0  0  0  0  0  3  0  0  0  0  0  0
  161.3540  202.9700  152.0500 C   0  0  0  0  0  3  0  0  0  0  0  0
  162.2650  206.0520  146.9660 C   0  0  0  0  0  0  0  0  0  0  0  0
  162.8190  205.6380  145.7500 C   0  0  0  0  0  3  0  0  0  0  0  0
  160.3110  207.5450  150.5720 C   0  0  0  0  0  2  0  0  0  0  0  0
  161.0400  205.2510  151.2860 C   0  0  0  0  0  0  0  0  0  0  0  0
  161.2900  204.3390  152.3170 C   0  0  0  0  0  3  0  0  0  0  0  0
  161.3230  209.8700  147.7940 O   0  0  0  0  0  0  0  0  0  0  0  0
  162.0890  210.0160  148.7850 C   0  0  0  0  0  0  0  0  0  0  0  0
  162.6390  208.8770  149.4480 N   0  0  0  0  0  2  0  0  0  0  0  0
  161.0010  213.5190  148.1370 N   0  0  0  0  0  0  0  0  0  0  0  0
  161.3320  212.0200  149.9300 O   0  0  0  0  0  0  0  0  0  0  0  0
  164.0760  211.6250  147.5260 O   0  0  0  0  0  1  0  0  0  0  0  0
  159.9760  213.9470  147.2040 C   0  0  0  0  0  1  0  0  0  0  0  0
  160.4130  212.4570  148.9510 C   0  0  0  0  0  2  0  0  0  0  0  0
  163.1140  212.3150  148.2660 C   0  0  2  0  0  3  0  0  0  0  0  0
  162.4300  211.3920  149.2910 C   0  0  2  0  0  3  0  0  0  0  0  0
  162.0680  212.9230  147.3420 C   0  0  0  0  0  2  0  0  0  0  0  0
  1 14  1  0  0  0  0
  2  5  1  6  0  0  0
  2 13  1  0  0  0  0
  2  3  1  0  0  0  0
  3 19  1  0  0  0  0
  4 15  2  0  0  0  0
  6  1  2  0  0  0  0
  6 17  1  0  0  0  0
  7  3  2  0  0  0  0
  7  4  1  0  0  0  0
  8 13  1  0  0  0  0
  8 23  1  6  0  0  0
  9  1  1  0  0  0  0
 11  4  1  0  0  0  0
 12  8  1  0  0  0  0
 13 18  1  1  0  0  0
 14  5  2  0  0  0  0
 15 20  1  0  0  0  0
 16  5  1  0  0  0  0
 16 12  1  0  0  0  0
 17 16  2  0  0  0  0
 18 10  1  0  0  0  0
 19 10  1  0  0  0  0
 19 20  2  0  0  0  0
 21 22  2  0  0  0  0
 22 23  1  0  0  0  0
 24 28  1  0  0  0  0
 27 24  1  0  0  0  0
 28 25  1  0  0  0  0
 29 26  1  6  0  0  0
 29 30  1  0  0  0  0
 30 22  1  6  0  0  0
 30 25  1  0  0  0  0
 31 24  1  0  0  0  0
 31 29  1  0  0  0  0
M  END
>  <MODEL>
1

>  <REMARK>
 VINA RESULT:      -7.4      0.000      0.000
  Name = 
  2 active torsions:
  status: ('A' for Active; 'I' for Inactive)
    1  A    between atoms: C_5  and  C_30
    2  A    between atoms: C_10  and  N_16
                            x       y       z     vdW  Elec       q    Type
                         _______ _______ _______ _____ _____    ______ ____

>  <TORSDO>
F 2

$$$$
=
 OpenBabel11122413273D

 31 35  0  0  1  0  0  0  0  0999 V2000
  160.9610  206.5320  146.6670 C   0  0  0  0  0  0  0  0  0  0  0  0
  160.3200  205.1660  150.1610 C   0  0  2  0  0  3  0  0  0  0  0  0
  160.7740  203.7110  150.1430 C   0  0  0  0  0  0  0  0  0  0  0  0
  161.2300  201.6750  148.8850 C   0  0  0  0  0  0  0  0  0  0  0  0
  160.9040  205.9930  149.0360 C   0  0  0  0  0  0  0  0  0  0  0  0
  162.0030  207.4310  146.8910 C   0  0  0  0  0  3  0  0  0  0  0  0
  160.8950  203.0300  148.9200 C   0  0  0  0  0  3  0  0  0  0  0  0
  162.0110  206.2390  151.7010 C   0  0  2  0  0  3  0  0  0  0  0  0
  160.4820  206.3480  145.4140 F   0  0  0  0  0  0  0  0  0  0  0  0
  160.8430  203.6360  152.6910 C   0  0  0  0  0  2  0  0  0  0  0  0
  161.3690  200.9780  147.5790 C   0  0  0  0  0  1  0  0  0  0  0  0
  162.4140  207.2660  150.6450 C   0  0  0  0  0  2  0  0  0  0  0  0
  160.5360  205.8470  151.5260 C   0  0  2  0  0  3  0  0  0  0  0  0
  160.4120  205.8180  147.7340 C   0  0  0  0  0  3  0  0  0  0  0  0
  161.4290  200.9750  150.0740 C   0  0  0  0  0  3  0  0  0  0  0  0
  161.9540  206.9110  149.2610 C   0  0  0  0  0  0  0  0  0  0  0  0
  162.4900  207.6280  148.1850 C   0  0  0  0  0  3  0  0  0  0  0  0
  160.0380  204.9320  152.6460 C   0  0  0  0  0  2  0  0  0  0  0  0
  160.9400  202.9820  151.3450 C   0  0  0  0  0  0  0  0  0  0  0  0
  161.2860  201.6280  151.2990 C   0  0  0  0  0  3  0  0  0  0  0  0
  160.5760  208.4330  152.8250 O   0  0  0  0  0  0  0  0  0  0  0  0
  161.4730  207.8990  153.5320 C   0  0  0  0  0  0  0  0  0  0  0  0
  162.2330  206.8010  153.0280 N   0  0  0  0  0  2  0  0  0  0  0  0
  159.7230  209.9500  156.1030 N   0  0  0  0  0  0  0  0  0  0  0  0
  160.8450  207.8850  155.8790 O   0  0  0  0  0  0  0  0  0  0  0  0
  162.6720  210.4440  153.9870 O   0  0  0  0  0  1  0  0  0  0  0  0
  158.3960  210.5260  155.9920 C   0  0  0  0  0  1  0  0  0  0  0  0
  159.6000  208.5390  155.7420 C   0  0  0  0  0  2  0  0  0  0  0  0
  161.9160  209.9310  155.0430 C   0  0  2  0  0  3  0  0  0  0  0  0
  161.7520  208.4050  154.9220 C   0  0  2  0  0  3  0  0  0  0  0  0
  160.5460  210.5930  155.0850 C   0  0  0  0  0  2  0  0  0  0  0  0
  1  6  2  0  0  0  0
  1 14  1  0  0  0  0
  2  5  1  6  0  0  0
  2 13  1  0  0  0  0
  3  2  1  0  0  0  0
  3 19  1  0  0  0  0
  4  7  1  0  0  0  0
  4 15  2  0  0  0  0
  5 16  1  0  0  0  0
  6 17  1  0  0  0  0
  7  3  2  0  0  0  0
  8 23  1  1  0  0  0
  9  1  1  0  0  0  0
 11  4  1  0  0  0  0
 12  8  1  0  0  0  0
 13  8  1  0  0  0  0
 13 18  1  1  0  0  0
 14  5  2  0  0  0  0
 15 20  1  0  0  0  0
 16 12  1  0  0  0  0
 17 16  2  0  0  0  0
 18 10  1  0  0  0  0
 19 10  1  0  0  0  0
 20 19  2  0  0  0  0
 21 22  2  0  0  0  0
 23 22  1  0  0  0  0
 27 24  1  0  0  0  0
 28 25  1  0  0  0  0
 28 24  1  0  0  0  0
 29 26  1  6  0  0  0
 29 31  1  0  0  0  0
 30 22  1  6  0  0  0
 30 29  1  0  0  0  0
 30 25  1  0  0  0  0
 31 24  1  0  0  0  0
M  END
>  <MODEL>
2

>  <REMARK>
 VINA RESULT:      -7.4      3.507      4.767
  Name = 
  2 active torsions:
  status: ('A' for Active; 'I' for Inactive)
    1  A    between atoms: C_5  and  C_30
    2  A    between atoms: C_10  and  N_16
                            x       y       z     vdW  Elec       q    Type
                         _______ _______ _______ _____ _____    ______ ____

>  <TORSDO>
F 2

$$$$
=
 OpenBabel11122413273D

 31 35  0  0  1  0  0  0  0  0999 V2000
  160.7390  207.2610  156.3810 C   0  0  0  0  0  0  0  0  0  0  0  0
  161.8860  208.4690  152.9590 C   0  0  2  0  0  3  0  0  0  0  0  0
  161.4580  207.3990  151.9610 C   0  0  0  0  0  0  0  0  0  0  0  0
  160.8640  205.0810  151.5010 C   0  0  0  0  0  0  0  0  0  0  0  0
  161.1360  208.4010  154.2720 C   0  0  0  0  0  0  0  0  0  0  0  0
  159.7230  208.1670  156.6850 C   0  0  0  0  0  3  0  0  0  0  0  0
  161.1780  206.0960  152.4060 C   0  0  0  0  0  3  0  0  0  0  0  0
  160.4090  210.4180  152.3240 C   0  0  2  0  0  3  0  0  0  0  0  0
  161.0400  206.2650  157.2470 F   0  0  0  0  0  0  0  0  0  0  0  0
  161.7470  209.0150  150.0090 C   0  0  0  0  0  2  0  0  0  0  0  0
  160.5560  203.7140  151.9960 C   0  0  0  0  0  1  0  0  0  0  0  0
  159.8450  210.5320  153.7380 C   0  0  0  0  0  2  0  0  0  0  0  0
  161.8510  209.8900  152.3670 C   0  0  2  0  0  3  0  0  0  0  0  0
  161.4440  207.3790  155.1810 C   0  0  0  0  0  3  0  0  0  0  0  0
  160.8450  205.3480  150.1330 C   0  0  0  0  0  3  0  0  0  0  0  0
  160.1120  209.3220  154.5870 C   0  0  0  0  0  0  0  0  0  0  0  0
  159.4190  209.2000  155.7960 C   0  0  0  0  0  3  0  0  0  0  0  0
  162.5160  209.8950  150.9890 C   0  0  0  0  0  2  0  0  0  0  0  0
  161.4730  207.6500  150.5680 C   0  0  0  0  0  0  0  0  0  0  0  0
  161.1470  206.6290  149.6690 C   0  0  0  0  0  3  0  0  0  0  0  0
  158.0840  212.0500  152.0640 O   0  0  0  0  0  0  0  0  0  0  0  0
  159.1650  212.4950  151.5910 C   0  0  0  0  0  0  0  0  0  0  0  0
  160.3650  211.7260  151.6820 N   0  0  0  0  0  2  0  0  0  0  0  0
  157.7820  214.0920  148.5230 N   0  0  0  0  0  0  0  0  0  0  0  0
  157.9330  214.4530  150.8500 O   0  0  0  0  0  0  0  0  0  0  0  0
  161.1390  213.1420  149.6400 O   0  0  0  0  0  1  0  0  0  0  0  0
  156.9240  213.4670  147.5350 C   0  0  0  0  0  1  0  0  0  0  0  0
  157.1840  213.8270  149.8300 C   0  0  0  0  0  2  0  0  0  0  0  0
  159.9640  213.8940  149.5890 C   0  0  2  0  0  3  0  0  0  0  0  0
  159.2110  213.8460  150.9300 C   0  0  2  0  0  3  0  0  0  0  0  0
  159.0590  213.3890  148.4730 C   0  0  0  0  0  2  0  0  0  0  0  0
  1  6  1  0  0  0  0
  1  9  1  0  0  0  0
  2  3  1  6  0  0  0
  2  5  1  0  0  0  0
  3  7  1  0  0  0  0
  4 11  1  0  0  0  0
  4  7  2  0  0  0  0
  5 16  2  0  0  0  0
  5 14  1  0  0  0  0
  8 23  1  1  0  0  0
  8 13  1  0  0  0  0
  8 12  1  0  0  0  0
 10 19  1  0  0  0  0
 10 18  1  0  0  0  0
 12 16  1  0  0  0  0
 13 18  1  6  0  0  0
 13  2  1  0  0  0  0
 14  1  2  0  0  0  0
 15  4  1  0  0  0  0
 16 17  1  0  0  0  0
 17  6  2  0  0  0  0
 19  3  2  0  0  0  0
 20 15  2  0  0  0  0
 20 19  1  0  0  0  0
 22 23  1  0  0  0  0
 22 21  2  0  0  0  0
 24 28  1  0  0  0  0
 25 30  1  0  0  0  0
 27 24  1  0  0  0  0
 28 25  1  0  0  0  0
 29 26  1  1  0  0  0
 29 30  1  0  0  0  0
 30 22  1  6  0  0  0
 31 24  1  0  0  0  0
 31 29  1  0  0  0  0
M  END
>  <MODEL>
3

>  <REMARK>
 VINA RESULT:      -7.4      3.802      6.174
  Name = 
  2 active torsions:
  status: ('A' for Active; 'I' for Inactive)
    1  A    between atoms: C_5  and  C_30
    2  A    between atoms: C_10  and  N_16
                            x       y       z     vdW  Elec       q    Type
                         _______ _______ _______ _____ _____    ______ ____

>  <TORSDO>
F 2

$$$$
=
 OpenBabel11122413273D

 31 35  0  0  1  0  0  0  0  0999 V2000
  160.9650  204.6080  144.8870 C   0  0  0  0  0  0  0  0  0  0  0  0
  160.4890  205.1040  148.6310 C   0  0  2  0  0  3  0  0  0  0  0  0
  160.8930  203.7910  149.2920 C   0  0  0  0  0  0  0  0  0  0  0  0
  161.2060  201.3800  149.1420 C   0  0  0  0  0  0  0  0  0  0  0  0
  161.0320  205.2620  147.2270 C   0  0  0  0  0  0  0  0  0  0  0  0
  162.0480  205.4450  144.6170 C   0  0  0  0  0  3  0  0  0  0  0  0
  160.9180  202.6050  148.5390 C   0  0  0  0  0  3  0  0  0  0  0  0
  162.3040  206.6800  149.4090 C   0  0  2  0  0  3  0  0  0  0  0  0
  160.4070  203.8790  143.8920 F   0  0  0  0  0  0  0  0  0  0  0  0
  161.1130  204.9310  151.5630 C   0  0  0  0  0  2  0  0  0  0  0  0
  161.2430  200.1400  148.3220 C   0  0  0  0  0  1  0  0  0  0  0  0
  162.6770  207.0580  147.9780 C   0  0  0  0  0  2  0  0  0  0  0  0
  160.8090  206.3370  149.4970 C   0  0  2  0  0  3  0  0  0  0  0  0
  160.4580  204.5200  146.1850 C   0  0  0  0  0  3  0  0  0  0  0  0
  161.4530  201.3180  150.5130 C   0  0  0  0  0  3  0  0  0  0  0  0
  162.1240  206.1150  146.9480 C   0  0  0  0  0  0  0  0  0  0  0  0
  162.6180  206.2030  145.6420 C   0  0  0  0  0  3  0  0  0  0  0  0
  160.3490  206.0930  150.9360 C   0  0  0  0  0  2  0  0  0  0  0  0
  161.1080  203.7120  150.6890 C   0  0  0  0  0  0  0  0  0  0  0  0
  161.4050  202.4810  151.2820 C   0  0  0  0  0  3  0  0  0  0  0  0
  161.4620  209.3800  149.0440 O   0  0  0  0  0  0  0  0  0  0  0  0
  162.1640  209.1200  150.0590 C   0  0  0  0  0  0  0  0  0  0  0  0
  162.6240  207.7900  150.2980 N   0  0  0  0  0  2  0  0  0  0  0  0
  160.4190  211.1640  152.6390 N   0  0  0  0  0  0  0  0  0  0  0  0
  162.3310  209.8040  152.3840 O   0  0  0  0  0  0  0  0  0  0  0  0
  161.9400  211.8800  149.3840 O   0  0  0  0  0  1  0  0  0  0  0  0
  159.0190  211.0780  153.0080 C   0  0  0  0  0  1  0  0  0  0  0  0
  160.9490  209.8030  152.6780 C   0  0  0  0  0  2  0  0  0  0  0  0
  161.8970  211.5820  150.7480 C   0  0  2  0  0  3  0  0  0  0  0  0
  162.5210  210.2050  151.0390 C   0  0  2  0  0  3  0  0  0  0  0  0
  160.4600  211.6120  151.2510 C   0  0  0  0  0  2  0  0  0  0  0  0
  1 14  1  0  0  0  0
  2  5  1  6  0  0  0
  2  3  1  0  0  0  0
  2 13  1  0  0  0  0
  3 19  1  0  0  0  0
  4 15  2  0  0  0  0
  6  1  2  0  0  0  0
  6 17  1  0  0  0  0
  7  4  1  0  0  0  0
  7  3  2  0  0  0  0
  8 13  1  0  0  0  0
  8 23  1  1  0  0  0
  9  1  1  0  0  0  0
 11  4  1  0  0  0  0
 12  8  1  0  0  0  0
 13 18  1  1  0  0  0
 14  5  2  0  0  0  0
 15 20  1  0  0  0  0
 16  5  1  0  0  0  0
 16 12  1  0  0  0  0
 17 16  2  0  0  0  0
 18 10  1  0  0  0  0
 19 20  2  0  0  0  0
 19 10  1  0  0  0  0
 21 22  2  0  0  0  0
 22 23  1  0  0  0  0
 24 28  1  0  0  0  0
 24 27  1  0  0  0  0
 25 28  1  0  0  0  0
 29 26  1  6  0  0  0
 29 30  1  0  0  0  0
 29 31  1  0  0  0  0
 30 22  1  6  0  0  0
 30 25  1  0  0  0  0
 31 24  1  0  0  0  0
M  END
>  <MODEL>
4

>  <REMARK>
 VINA RESULT:      -7.2      1.870      2.455
  Name = 
  2 active torsions:
  status: ('A' for Active; 'I' for Inactive)
    1  A    between atoms: C_5  and  C_30
    2  A    between atoms: C_10  and  N_16
                            x       y       z     vdW  Elec       q    Type
                         _______ _______ _______ _____ _____    ______ ____

>  <TORSDO>
F 2

$$$$
=
 OpenBabel11122413273D

 31 35  0  0  1  0  0  0  0  0999 V2000
  162.1320  213.6110  147.1790 C   0  0  0  0  0  0  0  0  0  0  0  0
  159.8130  214.2530  150.1280 C   0  0  2  0  0  3  0  0  0  0  0  0
  158.3920  214.1600  149.5840 C   0  0  0  0  0  0  0  0  0  0  0  0
  156.8570  214.3090  147.6980 C   0  0  0  0  0  0  0  0  0  0  0  0
  160.8420  213.5890  149.2380 C   0  0  0  0  0  0  0  0  0  0  0  0
  162.6800  212.3700  147.5030 C   0  0  0  0  0  3  0  0  0  0  0  0
  158.1570  214.3100  148.2070 C   0  0  0  0  0  3  0  0  0  0  0  0
  159.9480  212.2290  151.6340 C   0  0  2  0  0  3  0  0  0  0  0  0
  162.4820  214.2260  146.0240 F   0  0  0  0  0  0  0  0  0  0  0  0
  157.4440  213.8900  151.9360 C   0  0  0  0  0  2  0  0  0  0  0  0
  156.6330  214.4530  146.2360 C   0  0  0  0  0  1  0  0  0  0  0  0
  161.1730  211.6870  150.9020 C   0  0  0  0  0  2  0  0  0  0  0  0
  159.9330  213.7650  151.5840 C   0  0  2  0  0  3  0  0  0  0  0  0
  161.2200  214.2190  148.0440 C   0  0  0  0  0  3  0  0  0  0  0  0
  155.7700  214.1790  148.5620 C   0  0  0  0  0  3  0  0  0  0  0  0
  161.4060  212.3360  149.5670 C   0  0  0  0  0  0  0  0  0  0  0  0
  162.3260  211.7400  148.6980 C   0  0  0  0  0  3  0  0  0  0  0  0
  158.8080  214.3670  152.4270 C   0  0  0  0  0  2  0  0  0  0  0  0
  157.2810  214.0670  150.4560 C   0  0  0  0  0  0  0  0  0  0  0  0
  155.9820  214.0570  149.9350 C   0  0  0  0  0  3  0  0  0  0  0  0
  160.0910  209.5030  152.4580 O   0  0  0  0  0  0  0  0  0  0  0  0
  160.0490  210.3830  153.3600 C   0  0  0  0  0  0  0  0  0  0  0  0
  159.9700  211.7670  153.0170 N   0  0  0  0  0  2  0  0  0  0  0  0
  159.4740  212.0220  156.6560 N   0  0  0  0  0  0  0  0  0  0  0  0
  158.8240  210.1060  155.4400 O   0  0  0  0  0  0  0  0  0  0  0  0
  162.4120  210.6800  154.9260 O   0  0  0  0  0  1  0  0  0  0  0  0
  159.0800  213.4000  156.8790 C   0  0  0  0  0  1  0  0  0  0  0  0
  158.5440  211.4710  155.6730 C   0  0  0  0  0  2  0  0  0  0  0  0
  161.2100  210.6490  155.6370 C   0  0  2  0  0  3  0  0  0  0  0  0
  160.0900  209.9910  154.8130 C   0  0  2  0  0  3  0  0  0  0  0  0
  160.7950  212.0580  156.0370 C   0  0  0  0  0  2  0  0  0  0  0  0
  1  6  2  0  0  0  0
  1 14  1  0  0  0  0
  2  5  1  6  0  0  0
  2 13  1  0  0  0  0
  3  2  1  0  0  0  0
  3 19  1  0  0  0  0
  4  7  1  0  0  0  0
  4 15  2  0  0  0  0
  5 16  1  0  0  0  0
  6 17  1  0  0  0  0
  7  3  2  0  0  0  0
  8 23  1  1  0  0  0
  9  1  1  0  0  0  0
 10 18  1  0  0  0  0
 11  4  1  0  0  0  0
 12  8  1  0  0  0  0
 13  8  1  0  0  0  0
 13 18  1  1  0  0  0
 14  5  2  0  0  0  0
 15 20  1  0  0  0  0
 16 12  1  0  0  0  0
 17 16  2  0  0  0  0
 19 10  1  0  0  0  0
 20 19  2  0  0  0  0
 21 22  2  0  0  0  0
 23 22  1  0  0  0  0
 24 27  1  0  0  0  0
 25 28  1  0  0  0  0
 28 24  1  0  0  0  0
 29 26  1  6  0  0  0
 29 31  1  0  0  0  0
 30 22  1  6  0  0  0
 30 25  1  0  0  0  0
 30 29  1  0  0  0  0
 31 24  1  0  0  0  0
M  END
>  <MODEL>
5

>  <REMARK>
 VINA RESULT:      -5.3      6.074      8.882
  Name = 
  2 active torsions:
  status: ('A' for Active; 'I' for Inactive)
    1  A    between atoms: C_5  and  C_30
    2  A    between atoms: C_10  and  N_16
                            x       y       z     vdW  Elec       q    Type
                         _______ _______ _______ _____ _____    ______ ____

>  <TORSDO>
F 2

$$$$
=
 OpenBabel11122413273D

 31 35  0  0  1  0  0  0  0  0999 V2000
  160.7730  201.4910  149.0670 C   0  0  0  0  0  0  0  0  0  0  0  0
  162.2520  204.8720  149.9990 C   0  0  2  0  0  3  0  0  0  0  0  0
  161.6960  205.8750  148.9940 C   0  0  0  0  0  0  0  0  0  0  0  0
  160.7460  206.3310  146.7970 C   0  0  0  0  0  0  0  0  0  0  0  0
  161.4450  203.5950  150.0820 C   0  0  0  0  0  0  0  0  0  0  0  0
  159.9100  201.2450  150.1350 C   0  0  0  0  0  3  0  0  0  0  0  0
  161.1850  205.4260  147.7640 C   0  0  0  0  0  3  0  0  0  0  0  0
  161.1480  205.6000  152.1520 C   0  0  2  0  0  3  0  0  0  0  0  0
  160.8670  200.5990  148.0530 F   0  0  0  0  0  0  0  0  0  0  0  0
  162.3330  207.8320  150.5000 C   0  0  0  0  0  2  0  0  0  0  0  0
  160.1940  205.8330  145.5100 C   0  0  0  0  0  1  0  0  0  0  0  0
  160.5500  204.2150  152.3860 C   0  0  0  0  0  2  0  0  0  0  0  0
  162.4790  205.4830  151.3940 C   0  0  2  0  0  3  0  0  0  0  0  0
  161.5390  202.6590  149.0430 C   0  0  0  0  0  3  0  0  0  0  0  0
  160.8310  207.7020  147.0360 C   0  0  0  0  0  3  0  0  0  0  0  0
  160.5760  203.3380  151.1670 C   0  0  0  0  0  0  0  0  0  0  0  0
  159.8200  202.1610  151.1860 C   0  0  0  0  0  3  0  0  0  0  0  0
  163.1950  206.8290  151.2610 C   0  0  0  0  0  2  0  0  0  0  0  0
  161.8130  207.2690  149.2110 C   0  0  0  0  0  0  0  0  0  0  0  0
  161.3610  208.1680  148.2390 C   0  0  0  0  0  3  0  0  0  0  0  0
  160.4440  208.2990  152.7470 O   0  0  0  0  0  0  0  0  0  0  0  0
  160.9680  207.6160  153.6680 C   0  0  0  0  0  0  0  0  0  0  0  0
  161.3500  206.2600  153.4360 N   0  0  0  0  0  2  0  0  0  0  0  0
  159.2340  210.0270  155.9180 N   0  0  0  0  0  0  0  0  0  0  0  0
  160.1740  207.8620  155.9510 O   0  0  0  0  0  0  0  0  0  0  0  0
  162.3610  210.0790  154.0100 O   0  0  0  0  0  1  0  0  0  0  0  0
  157.9780  210.7030  155.6550 C   0  0  0  0  0  1  0  0  0  0  0  0
  159.0080  208.6060  155.6630 C   0  0  0  0  0  2  0  0  0  0  0  0
  161.4870  209.7260  155.0400 C   0  0  2  0  0  3  0  0  0  0  0  0
  161.1910  208.2160  155.0300 C   0  0  2  0  0  3  0  0  0  0  0  0
  160.1840  210.5060  154.9200 C   0  0  0  0  0  2  0  0  0  0  0  0
  1  6  1  0  0  0  0
  2  3  1  6  0  0  0
  2  5  1  0  0  0  0
  2 13  1  0  0  0  0
  3 19  1  0  0  0  0
  4 15  2  0  0  0  0
  4  7  1  0  0  0  0
  5 16  2  0  0  0  0
  6 17  2  0  0  0  0
  7  3  2  0  0  0  0
  8 12  1  0  0  0  0
  8 23  1  1  0  0  0
  9  1  1  0  0  0  0
 10 18  1  0  0  0  0
 11  4  1  0  0  0  0
 13 18  1  6  0  0  0
 13  8  1  0  0  0  0
 14  1  2  0  0  0  0
 14  5  1  0  0  0  0
 15 20  1  0  0  0  0
 16 17  1  0  0  0  0
 16 12  1  0  0  0  0
 19 10  1  0  0  0  0
 20 19  2  0  0  0  0
 21 22  2  0  0  0  0
 23 22  1  0  0  0  0
 27 24  1  0  0  0  0
 28 24  1  0  0  0  0
 28 25  1  0  0  0  0
 29 26  1  6  0  0  0
 30 22  1  6  0  0  0
 30 29  1  0  0  0  0
 30 25  1  0  0  0  0
 31 29  1  0  0  0  0
 31 24  1  0  0  0  0
M  END
>  <MODEL>
6

>  <REMARK>
 VINA RESULT:      -5.2      3.458      5.700
  Name = 
  2 active torsions:
  status: ('A' for Active; 'I' for Inactive)
    1  A    between atoms: C_5  and  C_30
    2  A    between atoms: C_10  and  N_16
                            x       y       z     vdW  Elec       q    Type
                         _______ _______ _______ _____ _____    ______ ____

>  <TORSDO>
F 2

$$$$
=
 OpenBabel11122413273D

 31 35  0  0  1  0  0  0  0  0999 V2000
  161.7230  202.7860  151.7820 C   0  0  0  0  0  0  0  0  0  0  0  0
  162.3450  206.3000  150.4590 C   0  0  2  0  0  3  0  0  0  0  0  0
  161.7800  206.3320  149.0440 C   0  0  0  0  0  0  0  0  0  0  0  0
  161.1350  205.1410  147.0180 C   0  0  0  0  0  0  0  0  0  0  0  0
  161.7980  205.1670  151.3000 C   0  0  0  0  0  0  0  0  0  0  0  0
  160.7590  203.0110  152.7660 C   0  0  0  0  0  3  0  0  0  0  0  0
  161.5750  205.1310  148.3430 C   0  0  0  0  0  3  0  0  0  0  0  0
  160.7820  207.8500  151.6990 C   0  0  2  0  0  3  0  0  0  0  0  0
  162.1540  201.5280  151.5300 F   0  0  0  0  0  0  0  0  0  0  0  0
  161.7690  208.8820  149.0380 C   0  0  0  0  0  2  0  0  0  0  0  0
  160.9100  203.8580  146.3020 C   0  0  0  0  0  1  0  0  0  0  0  0
  160.4330  206.7770  152.7270 C   0  0  0  0  0  2  0  0  0  0  0  0
  162.2170  207.6510  151.1880 C   0  0  2  0  0  3  0  0  0  0  0  0
  162.2420  203.8600  151.0550 C   0  0  0  0  0  3  0  0  0  0  0  0
  160.9130  206.3530  146.3660 C   0  0  0  0  0  3  0  0  0  0  0  0
  160.8280  205.3920  152.3030 C   0  0  0  0  0  0  0  0  0  0  0  0
  160.3220  204.3110  153.0320 C   0  0  0  0  0  3  0  0  0  0  0  0
  162.6710  208.7840  150.2650 C   0  0  0  0  0  2  0  0  0  0  0  0
  161.5870  207.5570  148.3600 C   0  0  0  0  0  0  0  0  0  0  0  0
  161.1370  207.5560  147.0360 C   0  0  0  0  0  3  0  0  0  0  0  0
  161.4860  208.5090  154.3830 O   0  0  0  0  0  0  0  0  0  0  0  0
  161.0160  209.4300  153.6600 C   0  0  0  0  0  0  0  0  0  0  0  0
  160.6380  209.1660  152.3090 N   0  0  0  0  0  2  0  0  0  0  0  0
  158.2370  211.5830  154.8920 N   0  0  0  0  0  0  0  0  0  0  0  0
  160.3770  210.8280  155.5410 O   0  0  0  0  0  0  0  0  0  0  0  0
  160.4370  211.6460  151.9640 O   0  0  0  0  0  1  0  0  0  0  0  0
  156.8370  211.2150  154.9910 C   0  0  0  0  0  1  0  0  0  0  0  0
  158.9990  210.5190  155.5430 C   0  0  0  0  0  2  0  0  0  0  0  0
  160.0720  211.7930  153.3040 C   0  0  2  0  0  3  0  0  0  0  0  0
  160.8540  210.8230  154.2070 C   0  0  2  0  0  3  0  0  0  0  0  0
  158.5770  211.5620  153.4740 C   0  0  0  0  0  2  0  0  0  0  0  0
  1  6  1  0  0  0  0
  2  3  1  6  0  0  0
  2 13  1  0  0  0  0
  2  5  1  0  0  0  0
  4  7  1  0  0  0  0
  5 16  2  0  0  0  0
  6 17  2  0  0  0  0
  7  3  2  0  0  0  0
  8 23  1  1  0  0  0
  8 12  1  0  0  0  0
  9  1  1  0  0  0  0
 10 18  1  0  0  0  0
 11  4  1  0  0  0  0
 13 18  1  6  0  0  0
 13  8  1  0  0  0  0
 14  5  1  0  0  0  0
 14  1  2  0  0  0  0
 15  4  2  0  0  0  0
 15 20  1  0  0  0  0
 16 12  1  0  0  0  0
 16 17  1  0  0  0  0
 19 10  1  0  0  0  0
 19  3  1  0  0  0  0
 20 19  2  0  0  0  0
 22 21  2  0  0  0  0
 23 22  1  0  0  0  0
 24 27  1  0  0  0  0
 24 28  1  0  0  0  0
 25 28  1  0  0  0  0
 29 26  1  6  0  0  0
 29 31  1  0  0  0  0
 29 30  1  0  0  0  0
 30 22  1  6  0  0  0
 30 25  1  0  0  0  0
 31 24  1  0  0  0  0
M  END
>  <MODEL>
7

>  <REMARK>
 VINA RESULT:      -4.9      3.481      5.542
  Name = 
  2 active torsions:
  status: ('A' for Active; 'I' for Inactive)
    1  A    between atoms: C_5  and  C_30
    2  A    between atoms: C_10  and  N_16
                            x       y       z     vdW  Elec       q    Type
                         _______ _______ _______ _____ _____    ______ ____

>  <TORSDO>
F 2

$$$$
