=
 OpenBabel11122412523D

 32 37  0  0  1  0  0  0  0  0999 V2000
  160.0350  209.2870  157.0650 C   0  0  0  0  0  2  0  0  0  0  0  0
  161.2780  207.0440  152.5570 C   0  0  0  0  0  0  0  0  0  0  0  0
  161.9720  210.8710  149.6440 C   0  0  0  0  0  3  0  0  0  0  0  0
  162.2110  209.9800  148.4920 C   0  0  0  0  0  3  0  0  0  0  0  0
  161.0710  204.7400  151.5710 C   0  0  0  0  0  0  0  0  0  0  0  0
  161.0220  204.0170  150.3070 C   0  0  0  0  0  0  0  0  0  0  0  0
  161.1250  207.4010  155.0420 C   0  0  1  0  0  3  0  0  0  0  0  0
  161.7290  209.3160  153.5880 C   0  0  0  0  0  2  0  0  0  0  0  0
  161.1410  203.6250  148.1040 C   0  0  0  0  0  0  0  0  0  0  0  0
  161.0220  209.7380  155.9830 C   0  0  2  0  0  3  0  0  0  0  0  0
  161.9360  210.3890  150.8910 C   0  0  0  0  0  3  0  0  0  0  0  0
  161.5850  208.4580  152.4040 N   0  0  0  0  0  0  0  0  0  0  0  0
  162.2470  208.9390  151.1840 C   0  0  1  0  0  3  0  0  0  0  0  0
  161.6820  206.7700  150.1250 C   0  0  0  0  0  0  0  0  0  0  0  0
  160.8570  202.5180  148.7150 N   0  0  0  0  0  0  0  0  0  0  0  0
  159.9800  207.7860  157.2300 C   0  0  0  0  0  3  0  0  0  0  0  0
  160.8350  208.8670  154.7340 C   0  0  2  0  0  3  0  0  0  0  0  0
  160.7820  202.7620  150.1030 N   0  0  0  0  0  2  0  0  0  0  0  0
  160.4300  206.9350  156.2950 C   0  0  0  0  0  3  0  0  0  0  0  0
  162.2080  208.6530  148.6430 C   0  0  0  0  0  3  0  0  0  0  0  0
  161.9960  208.0620  149.9810 C   0  0  0  0  0  0  0  0  0  0  0  0
  161.5860  205.9290  148.9500 N   0  0  0  0  0  2  0  0  0  0  0  0
  160.6990  206.5510  153.8610 C   0  0  0  0  0  2  0  0  0  0  0  0
  160.9040  204.1260  152.6590 O   0  0  0  0  0  0  0  0  0  0  0  0
  161.3020  203.7400  146.6950 N   0  0  0  0  0  1  0  0  0  0  0  0
  161.3630  206.2090  151.4900 C   0  0  0  0  0  0  0  0  0  0  0  0
  161.2720  204.6800  149.0740 C   0  0  0  0  0  0  0  0  0  0  0  0
  162.4620  209.7160  156.5030 C   0  0  0  0  0  2  0  0  0  0  0  0
  162.9350  211.0400  156.7100 O   0  0  0  0  0  0  0  0  0  0  0  0
  164.2080  211.4550  156.3120 C   0  0  0  0  0  0  0  0  0  0  0  0
  165.1460  212.1230  157.2600 C   0  0  0  0  0  1  0  0  0  0  0  0
  164.5790  211.2520  155.1260 O   0  0  0  0  0  0  0  0  0  0  0  0
  1 16  1  0  0  0  0
  2 23  1  0  0  0  0
  3 11  2  0  0  0  0
  4 20  2  0  0  0  0
  4  3  1  0  0  0  0
  5 24  2  0  0  0  0
  6  5  1  0  0  0  0
  7 23  1  6  0  0  0
  7 19  1  0  0  0  0
  9 15  2  0  0  0  0
  9 27  1  0  0  0  0
 10 28  1  1  0  0  0
 10  1  1  0  0  0  0
 12  2  1  0  0  0  0
 12  8  1  0  0  0  0
 13 11  1  6  0  0  0
 13 12  1  0  0  0  0
 14 26  1  0  0  0  0
 15 18  1  0  0  0  0
 17  8  1  6  0  0  0
 17  7  1  0  0  0  0
 17 10  1  0  0  0  0
 18  6  1  0  0  0  0
 19 16  2  0  0  0  0
 20 21  1  0  0  0  0
 21 14  2  0  0  0  0
 21 13  1  0  0  0  0
 22 27  1  0  0  0  0
 22 14  1  0  0  0  0
 25  9  1  0  0  0  0
 26  5  1  0  0  0  0
 26  2  2  0  0  0  0
 27  6  2  0  0  0  0
 28 29  1  0  0  0  0
 30 29  1  0  0  0  0
 30 31  1  0  0  0  0
 32 30  2  0  0  0  0
M  END
>  <MODEL>
1

>  <REMARK>
 VINA RESULT:      -8.6      0.000      0.000
  Name = 
  3 active torsions:
  status: ('A' for Active; 'I' for Inactive)
    1  A    between atoms: C_10  and  C_20
    2  A    between atoms: C_20  and  O_29
    3  A    between atoms: O_29  and  C_30
                            x       y       z     vdW  Elec       q    Type
                         _______ _______ _______ _____ _____    ______ ____

>  <TORSDO>
F 3

$$$$
=
 OpenBabel11122412523D

 32 37  0  0  1  0  0  0  0  0999 V2000
  159.7770  208.5310  156.4230 C   0  0  0  0  0  2  0  0  0  0  0  0
  161.3320  207.4940  151.5850 C   0  0  0  0  0  0  0  0  0  0  0  0
  161.6240  211.9250  149.6120 C   0  0  0  0  0  3  0  0  0  0  0  0
  161.9790  211.3440  148.3030 C   0  0  0  0  0  3  0  0  0  0  0  0
  161.4030  205.4580  150.1110 C   0  0  0  0  0  0  0  0  0  0  0  0
  161.4540  205.0340  148.7180 C   0  0  0  0  0  0  0  0  0  0  0  0
  161.1040  207.2710  154.0800 C   0  0  1  0  0  3  0  0  0  0  0  0
  161.5050  209.5150  153.1060 C   0  0  0  0  0  2  0  0  0  0  0  0
  161.6490  205.1570  146.4890 C   0  0  0  0  0  0  0  0  0  0  0  0
  160.7210  209.3150  155.5060 C   0  0  2  0  0  3  0  0  0  0  0  0
  161.6260  211.1770  150.7210 C   0  0  0  0  0  3  0  0  0  0  0  0
  161.4760  208.9310  151.7580 N   0  0  0  0  0  0  0  0  0  0  0  0
  162.0960  209.7410  150.7000 C   0  0  1  0  0  3  0  0  0  0  0  0
  161.7970  207.8130  149.1700 C   0  0  0  0  0  0  0  0  0  0  0  0
  161.4840  203.9170  146.8300 N   0  0  0  0  0  0  0  0  0  0  0  0
  159.8920  207.0340  156.2530 C   0  0  0  0  0  3  0  0  0  0  0  0
  160.6530  208.7280  154.0900 C   0  0  2  0  0  3  0  0  0  0  0  0
  161.3620  203.8380  148.2340 N   0  0  0  0  0  2  0  0  0  0  0  0
  160.4490  206.4650  155.1720 C   0  0  0  0  0  3  0  0  0  0  0  0
  162.1260  210.0240  148.1580 C   0  0  0  0  0  3  0  0  0  0  0  0
  161.9640  209.1310  149.3250 C   0  0  0  0  0  0  0  0  0  0  0  0
  161.8150  207.2490  147.8360 N   0  0  0  0  0  2  0  0  0  0  0  0
  160.7940  206.6630  152.7260 C   0  0  0  0  0  2  0  0  0  0  0  0
  161.2920  204.6040  151.0300 O   0  0  0  0  0  0  0  0  0  0  0  0
  161.8140  205.5990  145.1460 N   0  0  0  0  0  1  0  0  0  0  0  0
  161.5260  206.9320  150.3650 C   0  0  0  0  0  0  0  0  0  0  0  0
  161.6440  205.9780  147.6710 C   0  0  0  0  0  0  0  0  0  0  0  0
  162.1460  209.3340  156.0640 C   0  0  0  0  0  2  0  0  0  0  0  0
  162.2010  210.1020  157.2590 O   0  0  0  0  0  0  0  0  0  0  0  0
  162.2820  211.4960  157.2550 C   0  0  0  0  0  0  0  0  0  0  0  0
  161.0590  212.3520  157.2550 C   0  0  0  0  0  1  0  0  0  0  0  0
  163.4130  212.0470  157.2610 O   0  0  0  0  0  0  0  0  0  0  0  0
  2 12  1  0  0  0  0
  2 23  1  0  0  0  0
  3 11  2  0  0  0  0
  4  3  1  0  0  0  0
  5 26  1  0  0  0  0
  5 24  2  0  0  0  0
  6  5  1  0  0  0  0
  7 23  1  6  0  0  0
  7 17  1  0  0  0  0
  7 19  1  0  0  0  0
  9 15  2  0  0  0  0
  9 27  1  0  0  0  0
 10 28  1  1  0  0  0
 10  1  1  0  0  0  0
 12  8  1  0  0  0  0
 13 11  1  6  0  0  0
 13 12  1  0  0  0  0
 14 21  2  0  0  0  0
 14 26  1  0  0  0  0
 15 18  1  0  0  0  0
 16  1  1  0  0  0  0
 17  8  1  6  0  0  0
 17 10  1  0  0  0  0
 18  6  1  0  0  0  0
 19 16  2  0  0  0  0
 20  4  2  0  0  0  0
 20 21  1  0  0  0  0
 21 13  1  0  0  0  0
 22 14  1  0  0  0  0
 25  9  1  0  0  0  0
 26  2  2  0  0  0  0
 27 22  1  0  0  0  0
 27  6  2  0  0  0  0
 28 29  1  0  0  0  0
 30 31  1  0  0  0  0
 30 29  1  0  0  0  0
 30 32  2  0  0  0  0
M  END
>  <MODEL>
2

>  <REMARK>
 VINA RESULT:      -7.9      1.317      1.681
  Name = 
  3 active torsions:
  status: ('A' for Active; 'I' for Inactive)
    1  A    between atoms: C_10  and  C_20
    2  A    between atoms: C_20  and  O_29
    3  A    between atoms: O_29  and  C_30
                            x       y       z     vdW  Elec       q    Type
                         _______ _______ _______ _____ _____    ______ ____

>  <TORSDO>
F 3

$$$$
=
 OpenBabel11122412523D

 32 37  0  0  1  0  0  0  0  0999 V2000
  161.8680  201.2370  148.9590 C   0  0  0  0  0  2  0  0  0  0  0  0
  161.1690  205.7500  151.4160 C   0  0  0  0  0  0  0  0  0  0  0  0
  162.4640  208.9900  148.0340 C   0  0  0  0  0  3  0  0  0  0  0  0
  162.2580  210.0990  148.9850 C   0  0  0  0  0  3  0  0  0  0  0  0
  160.8890  206.4780  153.8070 C   0  0  0  0  0  0  0  0  0  0  0  0
  161.0280  207.6230  154.6970 C   0  0  0  0  0  0  0  0  0  0  0  0
  160.7920  203.3560  150.7460 C   0  0  1  0  0  3  0  0  0  0  0  0
  161.2040  205.0460  148.9810 C   0  0  0  0  0  2  0  0  0  0  0  0
  161.3530  209.7360  155.3670 C   0  0  0  0  0  0  0  0  0  0  0  0
  161.3780  202.5840  148.4170 C   0  0  2  0  0  3  0  0  0  0  0  0
  162.0310  207.7550  148.3120 C   0  0  0  0  0  3  0  0  0  0  0  0
  161.3680  206.0790  150.0130 N   0  0  0  0  0  0  0  0  0  0  0  0
  161.2200  207.4670  149.5550 C   0  0  1  0  0  3  0  0  0  0  0  0
  161.3290  208.1710  151.9290 C   0  0  0  0  0  0  0  0  0  0  0  0
  161.1140  208.9970  156.4040 N   0  0  0  0  0  0  0  0  0  0  0  0
  161.4080  200.9620  150.3720 C   0  0  0  0  0  3  0  0  0  0  0  0
  161.5930  203.6650  149.4840 C   0  0  2  0  0  3  0  0  0  0  0  0
  160.9080  207.6650  155.9840 N   0  0  0  0  0  2  0  0  0  0  0  0
  160.9670  201.9270  151.1930 C   0  0  0  0  0  3  0  0  0  0  0  0
  161.8080  209.8650  150.2210 C   0  0  0  0  0  3  0  0  0  0  0  0
  161.4800  208.4860  150.6380 C   0  0  0  0  0  0  0  0  0  0  0  0
  161.4510  209.2100  152.9310 N   0  0  0  0  0  2  0  0  0  0  0  0
  161.2160  204.3040  151.8490 C   0  0  0  0  0  2  0  0  0  0  0  0
  160.5760  205.3490  154.2710 O   0  0  0  0  0  0  0  0  0  0  0  0
  161.5980  211.1370  155.4260 N   0  0  0  0  0  1  0  0  0  0  0  0
  161.1010  206.7380  152.3440 C   0  0  0  0  0  0  0  0  0  0  0  0
  161.3180  208.9180  154.1840 C   0  0  0  0  0  0  0  0  0  0  0  0
  159.9210  202.4970  147.9550 C   0  0  0  0  0  2  0  0  0  0  0  0
  159.7890  201.5480  146.9050 O   0  0  0  0  0  0  0  0  0  0  0  0
  160.2340  201.7980  145.6050 C   0  0  0  0  0  0  0  0  0  0  0  0
  160.9280  203.0700  145.2460 C   0  0  0  0  0  1  0  0  0  0  0  0
  160.0540  200.9270  144.7140 O   0  0  0  0  0  0  0  0  0  0  0  0
  1 16  1  0  0  0  0
  2 23  1  0  0  0  0
  2 26  2  0  0  0  0
  3 11  2  0  0  0  0
  3  4  1  0  0  0  0
  4 20  2  0  0  0  0
  5 24  2  0  0  0  0
  5  6  1  0  0  0  0
  6 18  1  0  0  0  0
  7 19  1  1  0  0  0
  7 23  1  0  0  0  0
  8 12  1  0  0  0  0
  9 25  1  0  0  0  0
  9 15  2  0  0  0  0
 10 28  1  1  0  0  0
 10  1  1  0  0  0  0
 10 17  1  0  0  0  0
 12  2  1  0  0  0  0
 13 11  1  6  0  0  0
 13 12  1  0  0  0  0
 13 21  1  0  0  0  0
 14 26  1  0  0  0  0
 14 22  1  0  0  0  0
 16 19  2  0  0  0  0
 17  8  1  6  0  0  0
 17  7  1  0  0  0  0
 18 15  1  0  0  0  0
 20 21  1  0  0  0  0
 21 14  2  0  0  0  0
 22 27  1  0  0  0  0
 26  5  1  0  0  0  0
 27  6  2  0  0  0  0
 27  9  1  0  0  0  0
 29 28  1  0  0  0  0
 30 29  1  0  0  0  0
 31 30  1  0  0  0  0
 32 30  2  0  0  0  0
M  END
>  <MODEL>
3

>  <REMARK>
 VINA RESULT:      -7.3      2.637      8.116
  Name = 
  3 active torsions:
  status: ('A' for Active; 'I' for Inactive)
    1  A    between atoms: C_10  and  C_20
    2  A    between atoms: C_20  and  O_29
    3  A    between atoms: O_29  and  C_30
                            x       y       z     vdW  Elec       q    Type
                         _______ _______ _______ _____ _____    ______ ____

>  <TORSDO>
F 3

$$$$
=
 OpenBabel11122412523D

 32 37  0  0  1  0  0  0  0  0999 V2000
  159.8860  209.5330  155.0740 C   0  0  0  0  0  2  0  0  0  0  0  0
  161.0920  205.8960  151.5790 C   0  0  0  0  0  0  0  0  0  0  0  0
  161.5530  208.4880  147.4950 C   0  0  0  0  0  3  0  0  0  0  0  0
  161.7950  207.2590  146.7150 C   0  0  0  0  0  3  0  0  0  0  0  0
  160.9480  203.3880  151.4630 C   0  0  0  0  0  0  0  0  0  0  0  0
  160.8930  202.2700  150.5310 C   0  0  0  0  0  0  0  0  0  0  0  0
  160.9930  207.0920  153.7900 C   0  0  1  0  0  3  0  0  0  0  0  0
  161.4800  208.3970  151.7390 C   0  0  0  0  0  2  0  0  0  0  0  0
  160.9670  201.1390  148.5980 C   0  0  0  0  0  0  0  0  0  0  0  0
  160.8240  209.6070  153.8650 C   0  0  2  0  0  3  0  0  0  0  0  0
  161.5710  208.4690  148.8320 C   0  0  0  0  0  3  0  0  0  0  0  0
  161.3370  207.1760  150.9330 N   0  0  0  0  0  0  0  0  0  0  0  0
  161.9460  207.2210  149.5970 C   0  0  1  0  0  3  0  0  0  0  0  0
  161.4380  204.8050  149.3790 C   0  0  0  0  0  0  0  0  0  0  0  0
  160.7430  200.3060  149.5660 N   0  0  0  0  0  0  0  0  0  0  0  0
  159.8950  208.1830  155.7520 C   0  0  0  0  0  3  0  0  0  0  0  0
  160.6370  208.3500  153.0050 C   0  0  2  0  0  3  0  0  0  0  0  0
  160.6970  201.0170  150.7850 N   0  0  0  0  0  2  0  0  0  0  0  0
  160.3520  207.0720  155.1530 C   0  0  0  0  0  3  0  0  0  0  0  0
  161.8490  206.0670  147.3170 C   0  0  0  0  0  3  0  0  0  0  0  0
  161.6970  205.9730  148.7840 C   0  0  0  0  0  0  0  0  0  0  0  0
  161.3430  203.6050  148.5740 N   0  0  0  0  0  2  0  0  0  0  0  0
  160.5680  205.8720  152.9950 C   0  0  0  0  0  2  0  0  0  0  0  0
  160.8350  203.1880  152.7020 O   0  0  0  0  0  0  0  0  0  0  0  0
  161.0830  200.7610  147.2310 N   0  0  0  0  0  1  0  0  0  0  0  0
  161.1800  204.7450  150.8650 C   0  0  0  0  0  0  0  0  0  0  0  0
  161.0820  202.4690  149.1350 C   0  0  0  0  0  0  0  0  0  0  0  0
  162.2770  209.8060  154.3030 C   0  0  0  0  0  2  0  0  0  0  0  0
  162.3640  210.8390  155.2770 O   0  0  0  0  0  0  0  0  0  0  0  0
  162.9590  210.6470  156.5260 C   0  0  0  0  0  0  0  0  0  0  0  0
  163.6160  211.7680  157.2610 C   0  0  0  0  0  1  0  0  0  0  0  0
  162.9330  209.5030  157.0510 O   0  0  0  0  0  0  0  0  0  0  0  0
  1 16  1  0  0  0  0
  2 23  1  0  0  0  0
  3 11  2  0  0  0  0
  4 20  2  0  0  0  0
  4  3  1  0  0  0  0
  5 24  2  0  0  0  0
  6 18  1  0  0  0  0
  6  5  1  0  0  0  0
  7 23  1  6  0  0  0
  7 19  1  0  0  0  0
  9 27  1  0  0  0  0
  9 15  2  0  0  0  0
 10 28  1  1  0  0  0
 10  1  1  0  0  0  0
 12  2  1  0  0  0  0
 12  8  1  0  0  0  0
 13 11  1  6  0  0  0
 13 12  1  0  0  0  0
 14 26  1  0  0  0  0
 15 18  1  0  0  0  0
 17  8  1  6  0  0  0
 17  7  1  0  0  0  0
 17 10  1  0  0  0  0
 19 16  2  0  0  0  0
 20 21  1  0  0  0  0
 21 14  2  0  0  0  0
 21 13  1  0  0  0  0
 22 27  1  0  0  0  0
 22 14  1  0  0  0  0
 25  9  1  0  0  0  0
 26  5  1  0  0  0  0
 26  2  2  0  0  0  0
 27  6  2  0  0  0  0
 28 29  1  0  0  0  0
 29 30  1  0  0  0  0
 30 32  2  0  0  0  0
 30 31  1  0  0  0  0
M  END
>  <MODEL>
4

>  <REMARK>
 VINA RESULT:      -6.8      1.479      2.151
  Name = 
  3 active torsions:
  status: ('A' for Active; 'I' for Inactive)
    1  A    between atoms: C_10  and  C_20
    2  A    between atoms: C_20  and  O_29
    3  A    between atoms: O_29  and  C_30
                            x       y       z     vdW  Elec       q    Type
                         _______ _______ _______ _____ _____    ______ ____

>  <TORSDO>
F 3

$$$$
=
 OpenBabel11122412523D

 32 37  0  0  1  0  0  0  0  0999 V2000
  162.0380  202.0330  147.3370 C   0  0  0  0  0  2  0  0  0  0  0  0
  161.1830  205.8010  150.7960 C   0  0  0  0  0  0  0  0  0  0  0  0
  162.5990  209.7730  148.3830 C   0  0  0  0  0  3  0  0  0  0  0  0
  162.3390  210.6140  149.5670 C   0  0  0  0  0  3  0  0  0  0  0  0
  160.7870  205.9160  153.2770 C   0  0  0  0  0  0  0  0  0  0  0  0
  160.8750  206.8060  154.4280 C   0  0  0  0  0  0  0  0  0  0  0  0
  160.8610  203.6470  149.5390 C   0  0  1  0  0  3  0  0  0  0  0  0
  161.3360  205.7210  148.2670 C   0  0  0  0  0  2  0  0  0  0  0  0
  161.1480  208.6880  155.6130 C   0  0  0  0  0  0  0  0  0  0  0  0
  161.5600  203.4730  147.1220 C   0  0  2  0  0  3  0  0  0  0  0  0
  162.1660  208.5090  148.3270 C   0  0  0  0  0  3  0  0  0  0  0  0
  161.4430  206.4660  149.5290 N   0  0  0  0  0  0  0  0  0  0  0  0
  161.3020  207.9250  149.4210 C   0  0  1  0  0  3  0  0  0  0  0  0
  161.2960  208.0200  151.8980 C   0  0  0  0  0  0  0  0  0  0  0  0
  160.8690  207.7150  156.4230 N   0  0  0  0  0  0  0  0  0  0  0  0
  161.5170  201.4190  148.6150 C   0  0  0  0  0  3  0  0  0  0  0  0
  161.7150  204.2570  148.4320 C   0  0  2  0  0  3  0  0  0  0  0  0
  160.6950  206.5290  155.6780 N   0  0  0  0  0  2  0  0  0  0  0  0
  161.0290  202.1520  149.6280 C   0  0  0  0  0  3  0  0  0  0  0  0
  161.8360  210.0830  150.6850 C   0  0  0  0  0  3  0  0  0  0  0  0
  161.5030  208.6440  150.7330 C   0  0  0  0  0  0  0  0  0  0  0  0
  161.3620  208.7790  153.1300 N   0  0  0  0  0  2  0  0  0  0  0  0
  161.2250  204.2930  150.8610 C   0  0  0  0  0  2  0  0  0  0  0  0
  160.4650  204.7080  153.4330 O   0  0  0  0  0  0  0  0  0  0  0  0
  161.3770  210.0300  156.0270 N   0  0  0  0  0  1  0  0  0  0  0  0
  161.0630  206.5290  151.9350 C   0  0  0  0  0  0  0  0  0  0  0  0
  161.1750  208.1870  154.2640 C   0  0  0  0  0  0  0  0  0  0  0  0
  160.1270  203.5060  146.5860 C   0  0  0  0  0  2  0  0  0  0  0  0
  160.1150  203.9180  145.2250 O   0  0  0  0  0  0  0  0  0  0  0  0
  160.4990  205.2000  144.8240 C   0  0  0  0  0  0  0  0  0  0  0  0
  161.6260  205.4160  143.8690 C   0  0  0  0  0  1  0  0  0  0  0  0
  159.8750  206.1980  145.2690 O   0  0  0  0  0  0  0  0  0  0  0  0
  1 16  1  0  0  0  0
  2 23  1  0  0  0  0
  2 26  2  0  0  0  0
  3  4  1  0  0  0  0
  4 20  2  0  0  0  0
  5 24  2  0  0  0  0
  5  6  1  0  0  0  0
  6 18  1  0  0  0  0
  7 19  1  1  0  0  0
  7 23  1  0  0  0  0
  8 12  1  0  0  0  0
  9 25  1  0  0  0  0
  9 15  2  0  0  0  0
 10 28  1  1  0  0  0
 10  1  1  0  0  0  0
 10 17  1  0  0  0  0
 11  3  2  0  0  0  0
 12  2  1  0  0  0  0
 13 11  1  6  0  0  0
 13 12  1  0  0  0  0
 13 21  1  0  0  0  0
 14 26  1  0  0  0  0
 14 22  1  0  0  0  0
 16 19  2  0  0  0  0
 17  8  1  6  0  0  0
 17  7  1  0  0  0  0
 18 15  1  0  0  0  0
 20 21  1  0  0  0  0
 21 14  2  0  0  0  0
 22 27  1  0  0  0  0
 26  5  1  0  0  0  0
 27  6  2  0  0  0  0
 27  9  1  0  0  0  0
 29 28  1  0  0  0  0
 30 29  1  0  0  0  0
 30 32  2  0  0  0  0
 31 30  1  0  0  0  0
M  END
>  <MODEL>
5

>  <REMARK>
 VINA RESULT:      -6.2      2.770      7.907
  Name = 
  3 active torsions:
  status: ('A' for Active; 'I' for Inactive)
    1  A    between atoms: C_10  and  C_20
    2  A    between atoms: C_20  and  O_29
    3  A    between atoms: O_29  and  C_30
                            x       y       z     vdW  Elec       q    Type
                         _______ _______ _______ _____ _____    ______ ____

>  <TORSDO>
F 3

$$$$
