=
 OpenBabel11122412443D

 30 35  0  0  1  0  0  0  0  0999 V2000
  161.7130  205.6830  149.6350 C   0  0  0  0  0  0  0  0  0  0  0  0
  161.3130  203.2550  149.1930 C   0  0  0  0  0  0  0  0  0  0  0  0
  161.1250  205.1270  153.7130 O   0  0  0  0  0  0  0  0  0  0  0  0
  161.7280  206.7650  150.5600 C   0  0  0  0  0  0  0  0  0  0  0  0
  162.2080  205.9250  148.2310 C   0  0  0  0  0  2  0  0  0  0  0  0
  162.7030  209.4480  148.2930 O   0  0  0  0  0  0  0  0  0  0  0  0
  160.6400  209.3960  151.7770 C   0  0  1  0  0  3  0  0  0  0  0  0
  162.2490  208.3450  148.6990 C   0  0  0  0  0  0  0  0  0  0  0  0
  160.6480  208.5970  153.0770 C   0  0  2  0  0  3  0  0  0  0  0  0
  161.3420  206.4010  154.3080 C   0  0  2  0  0  3  0  0  0  0  0  0
  161.8500  207.3080  147.7020 C   0  0  2  0  0  3  0  0  0  0  0  0
  162.0310  208.1080  150.1010 N   0  0  0  0  0  0  0  0  0  0  0  0
  161.0160  201.9810  149.6860 C   0  0  0  0  0  3  0  0  0  0  0  0
  161.0000  209.6010  154.1550 C   0  0  0  0  0  2  0  0  0  0  0  0
  160.4010  210.8500  152.1660 C   0  0  0  0  0  2  0  0  0  0  0  0
  161.5020  203.3830  147.8560 F   0  0  0  0  0  0  0  0  0  0  0  0
  161.2270  205.2070  152.3410 C   0  0  0  0  0  0  0  0  0  0  0  0
  160.7910  201.7790  151.0460 C   0  0  0  0  0  3  0  0  0  0  0  0
  161.3880  204.3640  150.0750 C   0  0  0  0  0  0  0  0  0  0  0  0
  161.4720  206.4830  151.9180 C   0  0  0  0  0  0  0  0  0  0  0  0
  160.1550  206.7430  155.1990 C   0  0  0  0  0  1  0  0  0  0  0  0
  161.5950  207.3800  153.1170 C   0  0  1  0  0  3  0  0  0  0  0  0
  160.4000  210.9070  153.6830 C   0  0  0  0  0  2  0  0  0  0  0  0
  162.8440  210.0690  151.0750 O   0  0  0  0  0  0  0  0  0  0  0  0
  160.8560  202.8530  151.9300 C   0  0  0  0  0  3  0  0  0  0  0  0
  161.1440  204.1370  151.4570 C   0  0  0  0  0  0  0  0  0  0  0  0
  161.9010  209.2370  150.9740 C   0  0  0  0  0  0  0  0  0  0  0  0
  160.4760  207.3870  147.4620 O   0  0  0  0  0  0  0  0  0  0  0  0
  160.3850  206.3460  145.3280 C   0  0  0  0  0  1  0  0  0  0  0  0
  160.1560  206.1920  146.8180 C   0  0  0  0  0  2  0  0  0  0  0  0
  1 19  2  0  0  0  0
  1  4  1  0  0  0  0
  2 13  2  0  0  0  0
  2 19  1  0  0  0  0
  3 10  1  0  0  0  0
  4 20  2  0  0  0  0
  5  1  1  0  0  0  0
  6  8  2  0  0  0  0
  7 15  1  1  0  0  0
  7  9  1  0  0  0  0
  8 12  1  0  0  0  0
  9 22  1  0  0  0  0
  9 14  1  1  0  0  0
 10 21  1  6  0  0  0
 11 28  1  1  0  0  0
 11  5  1  0  0  0  0
 11  8  1  0  0  0  0
 12  4  1  0  0  0  0
 12 27  1  0  0  0  0
 13 18  1  0  0  0  0
 15 23  1  0  0  0  0
 16  2  1  0  0  0  0
 17  3  1  0  0  0  0
 18 25  2  0  0  0  0
 19 26  1  0  0  0  0
 20 17  1  0  0  0  0
 22 20  1  6  0  0  0
 22 10  1  0  0  0  0
 23 14  1  0  0  0  0
 26 25  1  0  0  0  0
 26 17  2  0  0  0  0
 27 24  2  0  0  0  0
 27  7  1  0  0  0  0
 29 30  1  0  0  0  0
 30 28  1  0  0  0  0
M  END
>  <MODEL>
1

>  <REMARK>
 VINA RESULT:      -9.1      0.000      0.000
  Name = 
  2 active torsions:
  status: ('A' for Active; 'I' for Inactive)
    1  A    between atoms: C_11  and  O_28
    2  A    between atoms: O_28  and  C_30
                            x       y       z     vdW  Elec       q    Type
                         _______ _______ _______ _____ _____    ______ ____

>  <TORSDO>
F 2

$$$$
=
 OpenBabel11122412443D

 30 35  0  0  1  0  0  0  0  0999 V2000
  161.6860  204.3800  147.5800 C   0  0  0  0  0  0  0  0  0  0  0  0
  161.1840  202.3600  146.1950 C   0  0  0  0  0  0  0  0  0  0  0  0
  161.1460  202.2170  151.0890 O   0  0  0  0  0  0  0  0  0  0  0  0
  161.7580  204.9870  148.8650 C   0  0  0  0  0  0  0  0  0  0  0  0
  162.1650  205.1640  146.3830 C   0  0  0  0  0  2  0  0  0  0  0  0
  162.7980  208.3350  147.8670 O   0  0  0  0  0  0  0  0  0  0  0  0
  160.7940  206.9160  151.0870 C   0  0  1  0  0  3  0  0  0  0  0  0
  162.3080  207.1760  147.7990 C   0  0  0  0  0  0  0  0  0  0  0  0
  160.7930  205.6540  151.9450 C   0  0  2  0  0  3  0  0  0  0  0  0
  161.4230  203.1280  152.1450 C   0  0  2  0  0  3  0  0  0  0  0  0
  161.8530  206.6520  146.4780 C   0  0  2  0  0  3  0  0  0  0  0  0
  162.1050  206.3910  148.9880 N   0  0  0  0  0  0  0  0  0  0  0  0
  160.8460  201.0060  146.1310 C   0  0  0  0  0  3  0  0  0  0  0  0
  161.2020  206.1170  153.3270 C   0  0  0  0  0  2  0  0  0  0  0  0
  160.6180  208.0880  152.0450 C   0  0  0  0  0  2  0  0  0  0  0  0
  161.3550  203.0200  145.0220 F   0  0  0  0  0  0  0  0  0  0  0  0
  161.2280  202.8500  149.8670 C   0  0  0  0  0  0  0  0  0  0  0  0
  160.6370  200.2690  147.2960 C   0  0  0  0  0  3  0  0  0  0  0  0
  161.3170  203.0070  147.4500 C   0  0  0  0  0  0  0  0  0  0  0  0
  161.5150  204.1800  149.9960 C   0  0  0  0  0  0  0  0  0  0  0  0
  160.2650  203.1080  153.1350 C   0  0  0  0  0  1  0  0  0  0  0  0
  161.6930  204.5020  151.4530 C   0  0  1  0  0  3  0  0  0  0  0  0
  160.6460  207.5180  153.4510 C   0  0  0  0  0  2  0  0  0  0  0  0
  163.0100  207.7550  150.6530 O   0  0  0  0  0  0  0  0  0  0  0  0
  160.7590  200.8840  148.5400 C   0  0  0  0  0  3  0  0  0  0  0  0
  161.0880  202.2400  148.6250 C   0  0  0  0  0  0  0  0  0  0  0  0
  162.0330  207.0660  150.2500 C   0  0  0  0  0  0  0  0  0  0  0  0
  160.4780  206.8610  146.3360 O   0  0  0  0  0  0  0  0  0  0  0  0
  161.1310  206.1540  144.1630 C   0  0  0  0  0  1  0  0  0  0  0  0
  160.1010  206.0450  145.2680 C   0  0  0  0  0  2  0  0  0  0  0  0
  1  4  1  0  0  0  0
  2 19  1  0  0  0  0
  3 10  1  0  0  0  0
  4 12  1  0  0  0  0
  4 20  2  0  0  0  0
  5 11  1  0  0  0  0
  5  1  1  0  0  0  0
  7  9  1  0  0  0  0
  7 15  1  1  0  0  0
  8  6  2  0  0  0  0
  8 12  1  0  0  0  0
  9 14  1  1  0  0  0
 10 21  1  1  0  0  0
 11 28  1  1  0  0  0
 11  8  1  0  0  0  0
 12 27  1  0  0  0  0
 13  2  2  0  0  0  0
 13 18  1  0  0  0  0
 14 23  1  0  0  0  0
 15 23  1  0  0  0  0
 16  2  1  0  0  0  0
 17 20  1  0  0  0  0
 17  3  1  0  0  0  0
 18 25  2  0  0  0  0
 19  1  2  0  0  0  0
 19 26  1  0  0  0  0
 22 20  1  6  0  0  0
 22  9  1  0  0  0  0
 22 10  1  0  0  0  0
 25 26  1  0  0  0  0
 26 17  2  0  0  0  0
 27 24  2  0  0  0  0
 27  7  1  0  0  0  0
 29 30  1  0  0  0  0
 30 28  1  0  0  0  0
M  END
>  <MODEL>
2

>  <REMARK>
 VINA RESULT:      -7.3      1.795      2.915
  Name = 
  2 active torsions:
  status: ('A' for Active; 'I' for Inactive)
    1  A    between atoms: C_11  and  O_28
    2  A    between atoms: O_28  and  C_30
                            x       y       z     vdW  Elec       q    Type
                         _______ _______ _______ _____ _____    ______ ____

>  <TORSDO>
F 2

$$$$
=
 OpenBabel11122412443D

 30 35  0  0  1  0  0  0  0  0999 V2000
  159.8400  211.4760  153.9020 C   0  0  0  0  0  0  0  0  0  0  0  0
  159.0410  213.6110  152.8740 C   0  0  0  0  0  0  0  0  0  0  0  0
  161.7010  210.3640  150.3540 O   0  0  0  0  0  0  0  0  0  0  0  0
  160.4890  210.2190  153.7460 C   0  0  0  0  0  0  0  0  0  0  0  0
  159.4390  211.9150  155.2880 C   0  0  0  0  0  2  0  0  0  0  0  0
  160.1910  208.9860  157.1630 O   0  0  0  0  0  0  0  0  0  0  0  0
  160.5600  207.1280  153.5840 C   0  0  1  0  0  3  0  0  0  0  0  0
  159.9630  209.6550  156.1190 C   0  0  0  0  0  0  0  0  0  0  0  0
  161.2560  207.3840  152.2500 C   0  0  2  0  0  3  0  0  0  0  0  0
  162.3380  209.1230  150.6290 C   0  0  2  0  0  3  0  0  0  0  0  0
  158.9660  210.7640  156.1660 C   0  0  2  0  0  3  0  0  0  0  0  0
  160.5870  209.3070  154.8700 N   0  0  0  0  0  0  0  0  0  0  0  0
  158.9760  214.4530  151.7610 C   0  0  0  0  0  3  0  0  0  0  0  0
  162.2590  206.2600  152.1060 C   0  0  0  0  0  2  0  0  0  0  0  0
  160.7260  205.6420  153.8770 C   0  0  0  0  0  2  0  0  0  0  0  0
  158.4230  214.0220  154.0100 F   0  0  0  0  0  0  0  0  0  0  0  0
  160.9880  210.7990  151.4500 C   0  0  0  0  0  0  0  0  0  0  0  0
  159.5720  214.0870  150.5560 C   0  0  0  0  0  3  0  0  0  0  0  0
  159.7170  212.3660  152.7920 C   0  0  0  0  0  0  0  0  0  0  0  0
  161.0530  209.9130  152.4890 C   0  0  0  0  0  0  0  0  0  0  0  0
  161.9330  208.1090  149.5670 C   0  0  0  0  0  1  0  0  0  0  0  0
  161.9330  208.7610  152.0940 C   0  0  1  0  0  3  0  0  0  0  0  0
  161.6170  205.0730  152.7890 C   0  0  0  0  0  2  0  0  0  0  0  0
  161.9870  207.5410  155.4800 O   0  0  0  0  0  0  0  0  0  0  0  0
  160.2380  212.8680  150.4510 C   0  0  0  0  0  3  0  0  0  0  0  0
  160.3080  212.0080  151.5500 C   0  0  0  0  0  0  0  0  0  0  0  0
  161.0930  207.9770  154.7050 C   0  0  0  0  0  0  0  0  0  0  0  0
  157.7250  210.3020  155.7190 O   0  0  0  0  0  0  0  0  0  0  0  0
  155.9490  211.4630  154.6490 C   0  0  0  0  0  1  0  0  0  0  0  0
  156.8670  211.3950  155.8520 C   0  0  0  0  0  2  0  0  0  0  0  0
  1  5  1  0  0  0  0
  2 16  1  0  0  0  0
  3 10  1  0  0  0  0
  3 17  1  0  0  0  0
  4  1  1  0  0  0  0
  4 12  1  0  0  0  0
  5 11  1  0  0  0  0
  7 15  1  1  0  0  0
  7 27  1  0  0  0  0
  8 11  1  0  0  0  0
  8  6  2  0  0  0  0
  9 14  1  1  0  0  0
  9  7  1  0  0  0  0
 10 21  1  6  0  0  0
 10 22  1  0  0  0  0
 11 28  1  6  0  0  0
 12  8  1  0  0  0  0
 13  2  2  0  0  0  0
 14 23  1  0  0  0  0
 17 26  2  0  0  0  0
 17 20  1  0  0  0  0
 18 13  1  0  0  0  0
 19  2  1  0  0  0  0
 19  1  2  0  0  0  0
 20  4  2  0  0  0  0
 22  9  1  0  0  0  0
 22 20  1  6  0  0  0
 23 15  1  0  0  0  0
 25 18  2  0  0  0  0
 25 26  1  0  0  0  0
 26 19  1  0  0  0  0
 27 12  1  0  0  0  0
 27 24  2  0  0  0  0
 28 30  1  0  0  0  0
 29 30  1  0  0  0  0
M  END
>  <MODEL>
3

>  <REMARK>
 VINA RESULT:      -6.6      3.597      7.958
  Name = 
  2 active torsions:
  status: ('A' for Active; 'I' for Inactive)
    1  A    between atoms: C_11  and  O_28
    2  A    between atoms: O_28  and  C_30
                            x       y       z     vdW  Elec       q    Type
                         _______ _______ _______ _____ _____    ______ ____

>  <TORSDO>
F 2

$$$$
=
 OpenBabel11122412443D

 30 35  0  0  1  0  0  0  0  0999 V2000
  161.1500  210.5680  151.6840 C   0  0  0  0  0  0  0  0  0  0  0  0
  160.9020  212.7430  150.4770 C   0  0  0  0  0  0  0  0  0  0  0  0
  162.4520  208.6880  148.2120 O   0  0  0  0  0  0  0  0  0  0  0  0
  161.4270  209.1720  151.6340 C   0  0  0  0  0  0  0  0  0  0  0  0
  160.9550  211.2170  153.0320 C   0  0  0  0  0  2  0  0  0  0  0  0
  160.9880  208.3670  155.1620 O   0  0  0  0  0  0  0  0  0  0  0  0
  160.6540  206.1780  151.7720 C   0  0  1  0  0  3  0  0  0  0  0  0
  160.8940  208.9800  154.0640 C   0  0  0  0  0  0  0  0  0  0  0  0
  161.3220  206.1180  150.4000 C   0  0  2  0  0  3  0  0  0  0  0  0
  162.7450  207.3490  148.5900 C   0  0  2  0  0  3  0  0  0  0  0  0
  160.2360  210.3190  154.0300 C   0  0  2  0  0  3  0  0  0  0  0  0
  161.3340  208.3690  152.8380 N   0  0  0  0  0  0  0  0  0  0  0  0
  161.0070  213.4720  149.2890 C   0  0  0  0  0  3  0  0  0  0  0  0
  161.9770  204.7550  150.3390 C   0  0  0  0  0  2  0  0  0  0  0  0
  160.4290  204.7340  152.2030 C   0  0  0  0  0  2  0  0  0  0  0  0
  160.4780  213.4030  151.5840 F   0  0  0  0  0  0  0  0  0  0  0  0
  161.9420  209.3940  149.2800 C   0  0  0  0  0  0  0  0  0  0  0  0
  161.4180  212.8550  148.1100 C   0  0  0  0  0  3  0  0  0  0  0  0
  161.2120  211.3590  150.4970 C   0  0  0  0  0  0  0  0  0  0  0  0
  161.8200  208.6170  150.3980 C   0  0  0  0  0  0  0  0  0  0  0  0
  162.0260  206.3960  147.6420 C   0  0  0  0  0  1  0  0  0  0  0  0
  162.3360  207.2390  150.0930 C   0  0  1  0  0  3  0  0  0  0  0  0
  161.0750  203.8510  151.1510 C   0  0  0  0  0  2  0  0  0  0  0  0
  162.2380  206.3470  153.5790 O   0  0  0  0  0  0  0  0  0  0  0  0
  161.7250  211.4960  148.1050 C   0  0  0  0  0  3  0  0  0  0  0  0
  161.6180  210.7470  149.2800 C   0  0  0  0  0  0  0  0  0  0  0  0
  161.4540  206.9420  152.7900 C   0  0  0  0  0  0  0  0  0  0  0  0
  158.8950  210.1770  153.6650 O   0  0  0  0  0  0  0  0  0  0  0  0
  157.1420  211.5220  154.5390 C   0  0  0  0  0  1  0  0  0  0  0  0
  158.3830  211.4750  153.6720 C   0  0  0  0  0  2  0  0  0  0  0  0
  1  5  1  0  0  0  0
  2 19  1  0  0  0  0
  2 16  1  0  0  0  0
  3 10  1  0  0  0  0
  3 17  1  0  0  0  0
  4  1  1  0  0  0  0
  4 12  1  0  0  0  0
  5 11  1  0  0  0  0
  7 15  1  1  0  0  0
  7 27  1  0  0  0  0
  8  6  2  0  0  0  0
  9 14  1  1  0  0  0
  9  7  1  0  0  0  0
 10 21  1  6  0  0  0
 10 22  1  0  0  0  0
 11 28  1  6  0  0  0
 11  8  1  0  0  0  0
 12  8  1  0  0  0  0
 13  2  2  0  0  0  0
 14 23  1  0  0  0  0
 17 20  1  0  0  0  0
 18 13  1  0  0  0  0
 19  1  2  0  0  0  0
 20  4  2  0  0  0  0
 22 20  1  6  0  0  0
 22  9  1  0  0  0  0
 23 15  1  0  0  0  0
 25 18  2  0  0  0  0
 25 26  1  0  0  0  0
 26 17  2  0  0  0  0
 26 19  1  0  0  0  0
 27 12  1  0  0  0  0
 27 24  2  0  0  0  0
 28 30  1  0  0  0  0
 30 29  1  0  0  0  0
M  END
>  <MODEL>
4

>  <REMARK>
 VINA RESULT:      -6.2      2.901      7.093
  Name = 
  2 active torsions:
  status: ('A' for Active; 'I' for Inactive)
    1  A    between atoms: C_11  and  O_28
    2  A    between atoms: O_28  and  C_30
                            x       y       z     vdW  Elec       q    Type
                         _______ _______ _______ _____ _____    ______ ____

>  <TORSDO>
F 2

$$$$
=
 OpenBabel11122412443D

 30 35  0  0  1  0  0  0  0  0999 V2000
  161.8370  208.3560  151.2930 C   0  0  0  0  0  0  0  0  0  0  0  0
  161.8010  210.8010  150.7720 C   0  0  0  0  0  0  0  0  0  0  0  0
  162.0600  207.4090  147.2510 O   0  0  0  0  0  0  0  0  0  0  0  0
  161.8180  207.0120  150.8250 C   0  0  0  0  0  0  0  0  0  0  0  0
  162.0340  208.6050  152.7680 C   0  0  0  0  0  2  0  0  0  0  0  0
  161.9040  205.2820  154.0320 O   0  0  0  0  0  0  0  0  0  0  0  0
  160.5070  204.2430  150.3760 C   0  0  1  0  0  3  0  0  0  0  0  0
  161.7270  206.1950  153.1810 C   0  0  0  0  0  0  0  0  0  0  0  0
  160.8780  204.4940  148.9170 C   0  0  2  0  0  3  0  0  0  0  0  0
  162.1480  205.9910  147.1950 C   0  0  2  0  0  3  0  0  0  0  0  0
  161.3530  207.5630  153.6460 C   0  0  2  0  0  3  0  0  0  0  0  0
  161.7970  205.9130  151.7720 N   0  0  0  0  0  0  0  0  0  0  0  0
  161.8210  211.8230  149.8180 C   0  0  0  0  0  3  0  0  0  0  0  0
  161.2260  203.1310  148.3580 C   0  0  0  0  0  2  0  0  0  0  0  0
  160.0860  202.7810  150.4680 C   0  0  0  0  0  2  0  0  0  0  0  0
  161.7330  211.1620  152.0780 F   0  0  0  0  0  0  0  0  0  0  0  0
  161.9110  207.8370  148.5530 C   0  0  0  0  0  0  0  0  0  0  0  0
  161.8710  211.5260  148.4580 C   0  0  0  0  0  3  0  0  0  0  0  0
  161.8290  209.4420  150.3660 C   0  0  0  0  0  0  0  0  0  0  0  0
  161.8520  206.7920  149.4320 C   0  0  0  0  0  0  0  0  0  0  0  0
  161.0890  205.4640  146.2350 C   0  0  0  0  0  1  0  0  0  0  0  0
  162.0170  205.5050  148.6740 C   0  0  1  0  0  3  0  0  0  0  0  0
  160.3340  202.1630  149.1040 C   0  0  0  0  0  2  0  0  0  0  0  0
  162.4060  203.6590  151.7390 O   0  0  0  0  0  0  0  0  0  0  0  0
  161.8960  210.1980  148.0360 C   0  0  0  0  0  3  0  0  0  0  0  0
  161.8680  209.1610  148.9730 C   0  0  0  0  0  0  0  0  0  0  0  0
  161.6210  204.5600  151.3360 C   0  0  0  0  0  0  0  0  0  0  0  0
  159.9660  207.7200  153.5850 O   0  0  0  0  0  0  0  0  0  0  0  0
  159.7040  207.4500  155.9310 C   0  0  0  0  0  1  0  0  0  0  0  0
  159.6310  208.4020  154.7550 C   0  0  0  0  0  2  0  0  0  0  0  0
  1  5  1  0  0  0  0
  2 16  1  0  0  0  0
  3 17  1  0  0  0  0
  4  1  1  0  0  0  0
  4 12  1  0  0  0  0
  5 11  1  0  0  0  0
  7 15  1  6  0  0  0
  7 27  1  0  0  0  0
  8 11  1  0  0  0  0
  8  6  2  0  0  0  0
  9 14  1  1  0  0  0
  9  7  1  0  0  0  0
 10 21  1  6  0  0  0
 10  3  1  0  0  0  0
 10 22  1  0  0  0  0
 11 28  1  6  0  0  0
 12  8  1  0  0  0  0
 13  2  2  0  0  0  0
 14 23  1  0  0  0  0
 17 26  2  0  0  0  0
 17 20  1  0  0  0  0
 18 13  1  0  0  0  0
 19  2  1  0  0  0  0
 19  1  2  0  0  0  0
 20  4  2  0  0  0  0
 22  9  1  0  0  0  0
 22 20  1  1  0  0  0
 23 15  1  0  0  0  0
 25 18  2  0  0  0  0
 25 26  1  0  0  0  0
 26 19  1  0  0  0  0
 27 24  2  0  0  0  0
 27 12  1  0  0  0  0
 28 30  1  0  0  0  0
 30 29  1  0  0  0  0
M  END
>  <MODEL>
5

>  <REMARK>
 VINA RESULT:      -6.2      2.282      6.940
  Name = 
  2 active torsions:
  status: ('A' for Active; 'I' for Inactive)
    1  A    between atoms: C_11  and  O_28
    2  A    between atoms: O_28  and  C_30
                            x       y       z     vdW  Elec       q    Type
                         _______ _______ _______ _____ _____    ______ ____

>  <TORSDO>
F 2

$$$$
