=
 OpenBabel11122414103D

 28 32  0  0  1  0  0  0  0  0999 V2000
  160.5140  209.7970  156.1840 C   0  0  0  0  0  0  0  0  0  0  0  0
  155.6760  210.6260  155.0660 F   0  0  0  0  0  0  0  0  0  0  0  0
  161.1560  211.9470  151.9110 O   0  0  0  0  0  0  0  0  0  0  0  0
  161.5540  212.2540  157.0410 C   0  0  0  0  0  3  0  0  0  0  0  0
  159.0740  212.8570  152.6600 C   0  0  0  0  0  0  0  0  0  0  0  0
  160.0130  208.4870  155.6620 C   0  0  0  0  0  2  0  0  0  0  0  0
  155.8750  211.0780  157.2590 F   0  0  0  0  0  0  0  0  0  0  0  0
  156.0210  211.6020  155.9890 C   0  0  0  0  0  0  0  0  0  0  0  0
  155.3810  213.4760  154.5160 C   0  0  1  0  0  3  0  0  0  0  0  0
  157.4830  212.0640  155.8030 C   0  0  2  0  0  3  0  0  0  0  0  0
  162.3950  209.6900  153.5950 C   0  0  0  0  0  1  0  0  0  0  0  0
  158.3580  210.9060  153.8290 C   0  0  1  0  0  3  0  0  0  0  0  0
  156.6510  214.0800  154.5880 O   0  0  0  0  0  0  0  0  0  0  0  0
  155.0680  212.7750  155.8290 C   0  0  0  0  0  2  0  0  0  0  0  0
  161.2400  208.7240  153.3870 C   0  0  2  0  0  3  0  0  0  0  0  0
  159.7590  210.9730  156.0050 C   0  0  0  0  0  0  0  0  0  0  0  0
  160.0810  211.8380  152.5590 C   0  0  0  0  0  0  0  0  0  0  0  0
  154.4180  214.4530  154.2710 O   0  0  0  0  0  1  0  0  0  0  0  0
  160.0120  209.3330  152.7020 C   0  0  0  0  0  2  0  0  0  0  0  0
  160.3040  212.2010  156.4190 C   0  0  0  0  0  3  0  0  0  0  0  0
  161.7580  209.8550  156.8270 C   0  0  0  0  0  3  0  0  0  0  0  0
  162.2750  211.0790  157.2550 C   0  0  0  0  0  3  0  0  0  0  0  0
  160.9480  207.8630  154.6220 C   0  0  0  0  0  2  0  0  0  0  0  0
  157.8960  212.3170  153.3850 C   0  0  1  0  0  3  0  0  0  0  0  0
  159.6700  210.6550  153.2240 N   0  0  0  0  0  0  0  0  0  0  0  0
  157.6550  213.0860  154.6740 C   0  0  2  0  0  3  0  0  0  0  0  0
  159.1580  214.0120  152.1650 O   0  0  0  0  0  0  0  0  0  0  0  0
  158.3790  210.9040  155.3740 C   0  0  1  0  0  3  0  0  0  0  0  0
  1 21  1  0  0  0  0
  2  8  1  0  0  0  0
  3 17  2  0  0  0  0
  4 22  1  0  0  0  0
  6  1  1  0  0  0  0
  8  7  1  0  0  0  0
  9 18  1  1  0  0  0
  9 13  1  0  0  0  0
  9 14  1  0  0  0  0
 10  8  1  6  0  0  0
 12 25  1  6  0  0  0
 12 28  1  0  0  0  0
 14  8  1  0  0  0  0
 15 11  1  1  0  0  0
 15 23  1  0  0  0  0
 16  1  2  0  0  0  0
 16 20  1  0  0  0  0
 17  5  1  0  0  0  0
 17 25  1  0  0  0  0
 19 25  1  0  0  0  0
 19 15  1  0  0  0  0
 20  4  2  0  0  0  0
 21 22  2  0  0  0  0
 23  6  1  0  0  0  0
 24  5  1  6  0  0  0
 24 12  1  0  0  0  0
 24 26  1  0  0  0  0
 26 13  1  6  0  0  0
 26 10  1  0  0  0  0
 27  5  2  0  0  0  0
 28 10  1  0  0  0  0
 28 16  1  6  0  0  0
M  END
>  <MODEL>
1

>  <REMARK>
 VINA RESULT:      -3.6      0.000      0.000
  Name = 
  0 active torsions:
  status: ('A' for Active; 'I' for Inactive)
                            x       y       z     vdW  Elec       q    Type
                         _______ _______ _______ _____ _____    ______ ____

>  <TORSDO>
F 0

$$$$
=
 OpenBabel11122414103D

 28 32  0  0  1  0  0  0  0  0999 V2000
  156.9160  211.4040  156.3540 C   0  0  0  0  0  0  0  0  0  0  0  0
  161.7530  210.8280  155.0810 F   0  0  0  0  0  0  0  0  0  0  0  0
  156.9060  214.1270  152.3710 O   0  0  0  0  0  0  0  0  0  0  0  0
  155.4500  209.7370  154.6450 C   0  0  0  0  0  3  0  0  0  0  0  0
  158.6750  212.5730  151.9510 C   0  0  0  0  0  0  0  0  0  0  0  0
  157.6600  212.3610  157.2340 C   0  0  0  0  0  2  0  0  0  0  0  0
  161.0650  208.8030  155.7750 F   0  0  0  0  0  0  0  0  0  0  0  0
  161.1190  209.6580  154.6910 C   0  0  0  0  0  0  0  0  0  0  0  0
  161.8230  209.8500  152.3330 C   0  0  1  0  0  3  0  0  0  0  0  0
  159.6810  209.9300  154.1970 C   0  0  2  0  0  3  0  0  0  0  0  0
  155.6200  214.0790  155.1650 C   0  0  0  0  0  1  0  0  0  0  0  0
  159.3610  212.3600  154.2250 C   0  0  1  0  0  3  0  0  0  0  0  0
  160.5040  209.7920  151.8440 O   0  0  0  0  0  0  0  0  0  0  0  0
  161.9440  209.0060  153.5930 C   0  0  0  0  0  2  0  0  0  0  0  0
  156.8970  214.4530  155.9010 C   0  0  2  0  0  3  0  0  0  0  0  0
  157.5520  210.8130  155.2440 C   0  0  0  0  0  0  0  0  0  0  0  0
  157.8340  213.3830  152.7860 C   0  0  0  0  0  0  0  0  0  0  0  0
  162.6970  209.3630  151.3630 O   0  0  0  0  0  1  0  0  0  0  0  0
  158.1590  214.4530  155.0330 C   0  0  0  0  0  2  0  0  0  0  0  0
  156.7970  209.9980  154.3830 C   0  0  0  0  0  3  0  0  0  0  0  0
  155.5700  211.1210  156.6230 C   0  0  0  0  0  3  0  0  0  0  0  0
  154.8400  210.2890  155.7720 C   0  0  0  0  0  3  0  0  0  0  0  0
  157.0310  213.7570  157.2610 C   0  0  0  0  0  2  0  0  0  0  0  0
  159.7380  211.9470  152.7800 C   0  0  1  0  0  3  0  0  0  0  0  0
  158.2350  213.2960  154.1430 N   0  0  0  0  0  0  0  0  0  0  0  0
  159.6240  210.4320  152.7490 C   0  0  2  0  0  3  0  0  0  0  0  0
  158.5610  212.4540  150.7020 O   0  0  0  0  0  0  0  0  0  0  0  0
  159.0300  211.0600  154.9920 C   0  0  1  0  0  3  0  0  0  0  0  0
  1 21  1  0  0  0  0
  1  6  1  0  0  0  0
  3 17  2  0  0  0  0
  4 22  1  0  0  0  0
  5 17  1  0  0  0  0
  6 23  1  0  0  0  0
  8  2  1  0  0  0  0
  8  7  1  0  0  0  0
  9 18  1  6  0  0  0
  9 14  1  0  0  0  0
 10  8  1  1  0  0  0
 10 28  1  0  0  0  0
 12 25  1  6  0  0  0
 12 28  1  0  0  0  0
 13  9  1  0  0  0  0
 14  8  1  0  0  0  0
 15 11  1  6  0  0  0
 15 23  1  0  0  0  0
 16  1  2  0  0  0  0
 17 25  1  0  0  0  0
 19 15  1  0  0  0  0
 20  4  2  0  0  0  0
 20 16  1  0  0  0  0
 22 21  2  0  0  0  0
 24  5  1  6  0  0  0
 24 12  1  0  0  0  0
 25 19  1  0  0  0  0
 26 13  1  6  0  0  0
 26 24  1  0  0  0  0
 26 10  1  0  0  0  0
 27  5  2  0  0  0  0
 28 16  1  6  0  0  0
M  END
>  <MODEL>
2

>  <REMARK>
 VINA RESULT:      -2.7      2.389      5.616
  Name = 
  0 active torsions:
  status: ('A' for Active; 'I' for Inactive)
                            x       y       z     vdW  Elec       q    Type
                         _______ _______ _______ _____ _____    ______ ____

>  <TORSDO>
F 0

$$$$
=
 OpenBabel11122414103D

 28 32  0  0  1  0  0  0  0  0999 V2000
  157.1840  211.4850  156.2150 C   0  0  0  0  0  0  0  0  0  0  0  0
  161.5900  209.1140  155.6580 F   0  0  0  0  0  0  0  0  0  0  0  0
  158.8380  213.9890  152.4370 O   0  0  0  0  0  0  0  0  0  0  0  0
  155.4970  210.4890  154.2130 C   0  0  0  0  0  3  0  0  0  0  0  0
  159.9400  211.8790  152.2020 C   0  0  0  0  0  0  0  0  0  0  0  0
  158.0790  212.0930  157.2510 C   0  0  0  0  0  2  0  0  0  0  0  0
  160.0910  207.5030  156.1250 F   0  0  0  0  0  0  0  0  0  0  0  0
  160.6360  208.2690  155.1110 C   0  0  0  0  0  0  0  0  0  0  0  0
  161.7320  208.1680  152.9020 C   0  0  1  0  0  3  0  0  0  0  0  0
  159.5050  209.0630  154.4220 C   0  0  2  0  0  3  0  0  0  0  0  0
  157.1940  214.4450  154.9970 C   0  0  0  0  0  1  0  0  0  0  0  0
  160.1180  211.4330  154.5380 C   0  0  1  0  0  3  0  0  0  0  0  0
  160.5850  208.6120  152.2160 O   0  0  0  0  0  0  0  0  0  0  0  0
  161.3230  207.3480  154.1160 C   0  0  0  0  0  2  0  0  0  0  0  0
  158.3810  214.3120  155.9380 C   0  0  2  0  0  3  0  0  0  0  0  0
  157.7230  210.6920  155.1830 C   0  0  0  0  0  0  0  0  0  0  0  0
  159.3390  212.9510  152.9450 C   0  0  0  0  0  0  0  0  0  0  0  0
  162.5050  207.3820  152.0500 O   0  0  0  0  0  1  0  0  0  0  0  0
  159.6740  213.8300  155.2720 C   0  0  0  0  0  2  0  0  0  0  0  0
  156.8670  210.2190  154.1730 C   0  0  0  0  0  3  0  0  0  0  0  0
  155.8050  211.7340  156.2610 C   0  0  0  0  0  3  0  0  0  0  0  0
  154.9650  211.2360  155.2630 C   0  0  0  0  0  3  0  0  0  0  0  0
  158.0230  213.6230  157.2610 C   0  0  0  0  0  2  0  0  0  0  0  0
  160.5410  210.9010  153.1460 C   0  0  1  0  0  3  0  0  0  0  0  0
  159.4540  212.7260  154.3400 N   0  0  0  0  0  0  0  0  0  0  0  0
  159.8750  209.5420  153.0130 C   0  0  2  0  0  3  0  0  0  0  0  0
  159.9920  211.8060  150.9470 O   0  0  0  0  0  0  0  0  0  0  0  0
  159.2050  210.3590  155.1720 C   0  0  1  0  0  3  0  0  0  0  0  0
  1 21  1  0  0  0  0
  1  6  1  0  0  0  0
  3 17  2  0  0  0  0
  4 22  1  0  0  0  0
  5 17  1  0  0  0  0
  6 23  1  0  0  0  0
  8  2  1  0  0  0  0
  8  7  1  0  0  0  0
  9 18  1  6  0  0  0
  9 14  1  0  0  0  0
 10  8  1  1  0  0  0
 10 28  1  0  0  0  0
 12 25  1  6  0  0  0
 12 28  1  0  0  0  0
 13  9  1  0  0  0  0
 14  8  1  0  0  0  0
 15 11  1  6  0  0  0
 15 23  1  0  0  0  0
 16  1  2  0  0  0  0
 17 25  1  0  0  0  0
 19 15  1  0  0  0  0
 20  4  2  0  0  0  0
 20 16  1  0  0  0  0
 22 21  2  0  0  0  0
 24  5  1  6  0  0  0
 24 12  1  0  0  0  0
 25 19  1  0  0  0  0
 26 13  1  1  0  0  0
 26 24  1  0  0  0  0
 26 10  1  0  0  0  0
 27  5  2  0  0  0  0
 28 16  1  6  0  0  0
M  END
>  <MODEL>
3

>  <REMARK>
 VINA RESULT:      -1.4      2.388      5.570
  Name = 
  0 active torsions:
  status: ('A' for Active; 'I' for Inactive)
                            x       y       z     vdW  Elec       q    Type
                         _______ _______ _______ _____ _____    ______ ____

>  <TORSDO>
F 0

$$$$
=
 OpenBabel11122414103D

 28 32  0  0  1  0  0  0  0  0999 V2000
  161.7040  210.0090  154.3870 C   0  0  0  0  0  0  0  0  0  0  0  0
  160.5960  214.1980  151.8230 F   0  0  0  0  0  0  0  0  0  0  0  0
  157.5400  211.0740  156.5800 O   0  0  0  0  0  0  0  0  0  0  0  0
  160.0810  207.9870  153.3270 C   0  0  0  0  0  3  0  0  0  0  0  0
  157.2750  212.0660  154.4190 C   0  0  0  0  0  0  0  0  0  0  0  0
  162.5340  211.0790  155.0270 C   0  0  0  0  0  2  0  0  0  0  0  0
  161.4140  212.7570  150.3020 F   0  0  0  0  0  0  0  0  0  0  0  0
  160.2740  213.1450  150.9800 C   0  0  0  0  0  0  0  0  0  0  0  0
  157.9270  213.8540  150.6980 C   0  0  1  0  0  3  0  0  0  0  0  0
  159.7260  211.9350  151.7700 C   0  0  2  0  0  3  0  0  0  0  0  0
  160.2980  209.8930  157.2600 C   0  0  0  0  0  1  0  0  0  0  0  0
  159.5750  212.6200  154.1190 C   0  0  1  0  0  3  0  0  0  0  0  0
  157.4100  212.6210  151.1390 O   0  0  0  0  0  0  0  0  0  0  0  0
  159.2450  213.6310  149.9730 C   0  0  0  0  0  2  0  0  0  0  0  0
  161.0380  211.2160  157.1440 C   0  0  2  0  0  3  0  0  0  0  0  0
  160.6550  210.3470  153.5100 C   0  0  0  0  0  0  0  0  0  0  0  0
  158.0300  211.6260  155.5590 C   0  0  0  0  0  0  0  0  0  0  0  0
  157.0160  214.4530  149.8300 O   0  0  0  0  0  1  0  0  0  0  0  0
  160.2040  212.3660  156.5720 C   0  0  0  0  0  2  0  0  0  0  0  0
  159.8350  209.3230  153.0040 C   0  0  0  0  0  3  0  0  0  0  0  0
  161.9590  208.6640  154.6890 C   0  0  0  0  0  3  0  0  0  0  0  0
  161.1490  207.6570  154.1600 C   0  0  0  0  0  3  0  0  0  0  0  0
  162.4460  211.0660  156.5550 C   0  0  0  0  0  2  0  0  0  0  0  0
  158.1730  212.7920  153.4830 C   0  0  1  0  0  3  0  0  0  0  0  0
  159.3990  211.9660  155.4190 N   0  0  0  0  0  0  0  0  0  0  0  0
  158.2460  212.0770  152.1430 C   0  0  2  0  0  3  0  0  0  0  0  0
  156.0360  211.9070  154.2640 O   0  0  0  0  0  0  0  0  0  0  0  0
  160.4230  211.7980  153.1220 C   0  0  1  0  0  3  0  0  0  0  0  0
  1 21  1  0  0  0  0
  1  6  1  0  0  0  0
  4 22  1  0  0  0  0
  5 17  1  0  0  0  0
  6 23  1  0  0  0  0
  7  8  1  0  0  0  0
  8  2  1  0  0  0  0
  9 18  1  6  0  0  0
  9 13  1  0  0  0  0
 10  8  1  1  0  0  0
 10 26  1  0  0  0  0
 10 28  1  0  0  0  0
 12 25  1  1  0  0  0
 14  9  1  0  0  0  0
 14  8  1  0  0  0  0
 15 11  1  6  0  0  0
 16  1  2  0  0  0  0
 17  3  2  0  0  0  0
 19 15  1  0  0  0  0
 20  4  2  0  0  0  0
 20 16  1  0  0  0  0
 22 21  2  0  0  0  0
 23 15  1  0  0  0  0
 24 12  1  0  0  0  0
 24  5  1  1  0  0  0
 25 17  1  0  0  0  0
 25 19  1  0  0  0  0
 26 13  1  6  0  0  0
 26 24  1  0  0  0  0
 27  5  2  0  0  0  0
 28 16  1  1  0  0  0
 28 12  1  0  0  0  0
M  END
>  <MODEL>
4

>  <REMARK>
 VINA RESULT:      -1.1      2.612      4.636
  Name = 
  0 active torsions:
  status: ('A' for Active; 'I' for Inactive)
                            x       y       z     vdW  Elec       q    Type
                         _______ _______ _______ _____ _____    ______ ____

>  <TORSDO>
F 0

$$$$
=
 OpenBabel11122414103D

 28 32  0  0  1  0  0  0  0  0999 V2000
  161.0270  210.4310  156.1580 C   0  0  0  0  0  0  0  0  0  0  0  0
  158.8320  211.6300  151.7880 F   0  0  0  0  0  0  0  0  0  0  0  0
  162.1320  206.4210  153.7120 O   0  0  0  0  0  0  0  0  0  0  0  0
  163.7740  210.8410  155.7940 C   0  0  0  0  0  3  0  0  0  0  0  0
  161.9190  208.0600  151.9830 C   0  0  0  0  0  0  0  0  0  0  0  0
  159.5740  210.1320  156.3640 C   0  0  0  0  0  2  0  0  0  0  0  0
  159.8100  213.5210  152.5110 F   0  0  0  0  0  0  0  0  0  0  0  0
  160.0210  212.3430  151.8200 C   0  0  0  0  0  0  0  0  0  0  0  0
  160.8560  211.3950  149.7000 C   0  0  1  0  0  3  0  0  0  0  0  0
  161.1420  211.5440  152.5220 C   0  0  2  0  0  3  0  0  0  0  0  0
  161.3590  207.2740  156.5650 C   0  0  0  0  0  1  0  0  0  0  0  0
  160.2210  209.3390  153.0620 C   0  0  1  0  0  3  0  0  0  0  0  0
  162.0460  210.9190  150.2810 O   0  0  0  0  0  0  0  0  0  0  0  0
  160.4200  212.6780  150.3920 C   0  0  0  0  0  2  0  0  0  0  0  0
  159.9050  207.5610  156.2250 C   0  0  2  0  0  3  0  0  0  0  0  0
  161.5310  210.6600  154.8620 C   0  0  0  0  0  0  0  0  0  0  0  0
  161.6130  207.4750  153.2580 C   0  0  0  0  0  0  0  0  0  0  0  0
  161.0710  211.6490  148.3470 O   0  0  0  0  0  1  0  0  0  0  0  0
  159.5800  207.5250  154.7290 C   0  0  0  0  0  2  0  0  0  0  0  0
  162.9150  210.8410  154.6940 C   0  0  0  0  0  3  0  0  0  0  0  0
  161.8920  210.4540  157.2600 C   0  0  0  0  0  3  0  0  0  0  0  0
  163.2610  210.6590  157.0780 C   0  0  0  0  0  3  0  0  0  0  0  0
  159.3340  208.7570  156.9960 C   0  0  0  0  0  2  0  0  0  0  0  0
  161.0120  209.2110  151.7370 C   0  0  1  0  0  3  0  0  0  0  0  0
  160.5860  208.2010  153.9120 N   0  0  0  0  0  0  0  0  0  0  0  0
  161.8020  210.5030  151.6120 C   0  0  2  0  0  3  0  0  0  0  0  0
  162.7860  207.6300  151.1770 O   0  0  0  0  0  0  0  0  0  0  0  0
  160.5850  210.7100  153.6740 C   0  0  1  0  0  3  0  0  0  0  0  0
  1  6  1  0  0  0  0
  1 21  1  0  0  0  0
  2  8  1  0  0  0  0
  4 22  1  0  0  0  0
  5 17  1  0  0  0  0
  6 23  1  0  0  0  0
  8  7  1  0  0  0  0
  9 18  1  6  0  0  0
  9 13  1  0  0  0  0
  9 14  1  0  0  0  0
 10  8  1  6  0  0  0
 10 28  1  0  0  0  0
 12 28  1  0  0  0  0
 12 25  1  1  0  0  0
 14  8  1  0  0  0  0
 15 11  1  6  0  0  0
 15 23  1  0  0  0  0
 16  1  2  0  0  0  0
 17  3  2  0  0  0  0
 17 25  1  0  0  0  0
 19 15  1  0  0  0  0
 20 16  1  0  0  0  0
 20  4  2  0  0  0  0
 22 21  2  0  0  0  0
 24  5  1  1  0  0  0
 24 12  1  0  0  0  0
 25 19  1  0  0  0  0
 26 13  1  6  0  0  0
 26 24  1  0  0  0  0
 26 10  1  0  0  0  0
 27  5  2  0  0  0  0
 28 16  1  1  0  0  0
M  END
>  <MODEL>
5

>  <REMARK>
 VINA RESULT:      -1.1      3.629      4.923
  Name = 
  0 active torsions:
  status: ('A' for Active; 'I' for Inactive)
                            x       y       z     vdW  Elec       q    Type
                         _______ _______ _______ _____ _____    ______ ____

>  <TORSDO>
F 0

$$$$
