=
 OpenBabel11122413293D

 31 35  0  0  1  0  0  0  0  0999 V2000
  161.0890  204.2310  145.4980 C   0  0  0  0  0  0  0  0  0  0  0  0
  160.4900  205.8210  148.9050 C   0  0  2  0  0  3  0  0  0  0  0  0
  160.8690  204.8120  149.9720 C   0  0  0  0  0  0  0  0  0  0  0  0
  161.3090  202.5310  150.6880 C   0  0  0  0  0  0  0  0  0  0  0  0
  161.1020  205.5120  147.5580 C   0  0  0  0  0  0  0  0  0  0  0  0
  162.2390  204.9010  145.0700 C   0  0  0  0  0  3  0  0  0  0  0  0
  160.9790  203.4430  149.6810 C   0  0  0  0  0  3  0  0  0  0  0  0
  162.3320  207.5440  149.2540 C   0  0  2  0  0  3  0  0  0  0  0  0
  160.5230  203.2850  144.7110 F   0  0  0  0  0  0  0  0  0  0  0  0
  160.8980  206.6320  151.6080 N   0  0  0  0  0  2  0  0  0  0  0  0
  161.4260  201.2130  150.3960 F   0  0  0  0  0  0  0  0  0  0  0  0
  162.8250  207.2350  147.9150 N   0  0  0  0  0  2  0  0  0  0  0  0
  160.8240  207.2660  149.3440 C   0  0  2  0  0  3  0  0  0  0  0  0
  160.5200  204.5380  146.7380 C   0  0  0  0  0  3  0  0  0  0  0  0
  161.5210  202.9780  151.9950 C   0  0  0  0  0  3  0  0  0  0  0  0
  162.2610  206.1860  147.1230 C   0  0  0  0  0  0  0  0  0  0  0  0
  162.8200  205.8800  145.8790 C   0  0  0  0  0  3  0  0  0  0  0  0
  160.3100  207.5300  150.6940 N   0  0  0  0  0  2  0  0  0  0  0  0
  161.0440  205.2450  151.2960 C   0  0  0  0  0  0  0  0  0  0  0  0
  161.3880  204.3350  152.2990 C   0  0  0  0  0  3  0  0  0  0  0  0
  161.3330  209.7820  147.7980 O   0  0  0  0  0  0  0  0  0  0  0  0
  162.0650  210.0160  148.7980 C   0  0  0  0  0  0  0  0  0  0  0  0
  162.6060  208.9390  149.5650 N   0  0  0  0  0  2  0  0  0  0  0  0
  161.1600  213.7950  147.9270 N   0  0  0  0  0  0  0  0  0  0  0  0
  161.1270  212.1370  149.7100 C   0  0  0  0  0  2  0  0  0  0  0  0
  164.1840  211.8570  147.6770 O   0  0  0  0  0  0  0  0  0  0  0  0
  160.3840  214.3380  146.8270 C   0  0  0  0  0  1  0  0  0  0  0  0
  160.3390  212.7690  148.5640 C   0  0  0  0  0  2  0  0  0  0  0  0
  163.0270  212.1690  148.0600 C   0  0  0  0  0  0  0  0  0  0  0  0
  162.3810  211.4240  149.1950 C   0  0  2  0  0  3  0  0  0  0  0  0
  162.2960  213.1850  147.3620 N   0  0  0  0  0  2  0  0  0  0  0  0
  1 14  1  0  0  0  0
  2  5  1  6  0  0  0
  2 13  1  0  0  0  0
  2  3  1  0  0  0  0
  3 19  1  0  0  0  0
  4 15  2  0  0  0  0
  6  1  2  0  0  0  0
  6 17  1  0  0  0  0
  7  3  2  0  0  0  0
  7  4  1  0  0  0  0
  8 13  1  0  0  0  0
  8 23  1  6  0  0  0
  9  1  1  0  0  0  0
 11  4  1  0  0  0  0
 12  8  1  0  0  0  0
 13 18  1  1  0  0  0
 14  5  2  0  0  0  0
 15 20  1  0  0  0  0
 16  5  1  0  0  0  0
 16 12  1  0  0  0  0
 17 16  2  0  0  0  0
 18 10  1  0  0  0  0
 19 10  1  0  0  0  0
 19 20  2  0  0  0  0
 21 22  2  0  0  0  0
 22 23  1  0  0  0  0
 24 28  1  0  0  0  0
 26 29  2  0  0  0  0
 27 24  1  0  0  0  0
 28 25  1  0  0  0  0
 29 30  1  0  0  0  0
 30 22  1  6  0  0  0
 30 25  1  0  0  0  0
 31 24  1  0  0  0  0
 31 29  1  0  0  0  0
M  END
>  <MODEL>
1

>  <REMARK>
 VINA RESULT:      -7.5      0.000      0.000
  Name = 
  2 active torsions:
  status: ('A' for Active; 'I' for Inactive)
    1  A    between atoms: C_5  and  C_30
    2  A    between atoms: C_10  and  N_16
                            x       y       z     vdW  Elec       q    Type
                         _______ _______ _______ _____ _____    ______ ____

>  <TORSDO>
F 2

$$$$
=
 OpenBabel11122413293D

 31 35  0  0  1  0  0  0  0  0999 V2000
  161.0390  204.6280  144.8960 C   0  0  0  0  0  0  0  0  0  0  0  0
  160.4380  205.0030  148.6360 C   0  0  2  0  0  3  0  0  0  0  0  0
  160.8240  203.7010  149.3110 C   0  0  0  0  0  0  0  0  0  0  0  0
  161.2760  201.3130  149.2350 C   0  0  0  0  0  0  0  0  0  0  0  0
  161.0500  205.1580  147.2630 C   0  0  0  0  0  0  0  0  0  0  0  0
  162.1850  205.4070  144.7120 C   0  0  0  0  0  3  0  0  0  0  0  0
  160.9410  202.5040  148.5850 C   0  0  0  0  0  3  0  0  0  0  0  0
  162.2740  206.5240  149.5330 C   0  0  2  0  0  3  0  0  0  0  0  0
  160.4770  203.9920  143.8400 F   0  0  0  0  0  0  0  0  0  0  0  0
  160.8480  204.8800  151.4550 N   0  0  0  0  0  2  0  0  0  0  0  0
  161.3990  200.1660  148.5250 F   0  0  0  0  0  0  0  0  0  0  0  0
  162.7660  206.6760  148.1670 N   0  0  0  0  0  2  0  0  0  0  0  0
  160.7670  206.2240  149.5270 C   0  0  2  0  0  3  0  0  0  0  0  0
  160.4710  204.5060  146.1670 C   0  0  0  0  0  3  0  0  0  0  0  0
  161.4890  201.3060  150.6160 C   0  0  0  0  0  3  0  0  0  0  0  0
  162.2050  205.9440  147.0740 C   0  0  0  0  0  0  0  0  0  0  0  0
  162.7630  206.0680  145.7990 C   0  0  0  0  0  3  0  0  0  0  0  0
  160.2540  206.0260  150.8890 N   0  0  0  0  0  2  0  0  0  0  0  0
  161.0000  203.6740  150.7040 C   0  0  0  0  0  0  0  0  0  0  0  0
  161.3500  202.4860  151.3510 C   0  0  0  0  0  3  0  0  0  0  0  0
  161.5060  209.1540  148.7430 O   0  0  0  0  0  0  0  0  0  0  0  0
  162.1200  209.0280  149.8380 C   0  0  0  0  0  0  0  0  0  0  0  0
  162.5410  207.7390  150.2870 N   0  0  0  0  0  2  0  0  0  0  0  0
  160.3930  211.6440  152.2960 N   0  0  0  0  0  0  0  0  0  0  0  0
  162.1290  209.9420  152.1570 C   0  0  0  0  0  2  0  0  0  0  0  0
  161.9720  211.9500  149.0750 O   0  0  0  0  0  0  0  0  0  0  0  0
  158.9890  211.8530  152.5970 C   0  0  0  0  0  1  0  0  0  0  0  0
  160.6670  210.2230  152.4970 C   0  0  0  0  0  2  0  0  0  0  0  0
  161.6740  211.4350  150.1830 C   0  0  0  0  0  0  0  0  0  0  0  0
  162.4200  210.2280  150.6800 C   0  0  2  0  0  3  0  0  0  0  0  0
  160.5690  211.9530  150.9330 N   0  0  0  0  0  2  0  0  0  0  0  0
  1 14  1  0  0  0  0
  2  5  1  6  0  0  0
  2  3  1  0  0  0  0
  2 13  1  0  0  0  0
  3 19  1  0  0  0  0
  4 15  2  0  0  0  0
  6  1  2  0  0  0  0
  6 17  1  0  0  0  0
  7  4  1  0  0  0  0
  7  3  2  0  0  0  0
  8 23  1  1  0  0  0
  9  1  1  0  0  0  0
 11  4  1  0  0  0  0
 12  8  1  0  0  0  0
 13  8  1  0  0  0  0
 13 18  1  1  0  0  0
 14  5  2  0  0  0  0
 15 20  1  0  0  0  0
 16  5  1  0  0  0  0
 16 12  1  0  0  0  0
 17 16  2  0  0  0  0
 18 10  1  0  0  0  0
 19 20  2  0  0  0  0
 19 10  1  0  0  0  0
 21 22  2  0  0  0  0
 22 23  1  0  0  0  0
 24 28  1  0  0  0  0
 24 27  1  0  0  0  0
 25 28  1  0  0  0  0
 26 29  2  0  0  0  0
 29 30  1  0  0  0  0
 29 31  1  0  0  0  0
 30 22  1  6  0  0  0
 30 25  1  0  0  0  0
 31 24  1  0  0  0  0
M  END
>  <MODEL>
2

>  <REMARK>
 VINA RESULT:      -7.5      1.870      2.376
  Name = 
  2 active torsions:
  status: ('A' for Active; 'I' for Inactive)
    1  A    between atoms: C_5  and  C_30
    2  A    between atoms: C_10  and  N_16
                            x       y       z     vdW  Elec       q    Type
                         _______ _______ _______ _____ _____    ______ ____

>  <TORSDO>
F 2

$$$$
=
 OpenBabel11122413293D

 31 35  0  0  1  0  0  0  0  0999 V2000
  161.5840  206.2040  152.0980 C   0  0  0  0  0  0  0  0  0  0  0  0
  160.0900  209.5260  153.2000 C   0  0  2  0  0  3  0  0  0  0  0  0
  160.7560  209.9390  154.4980 C   0  0  0  0  0  0  0  0  0  0  0  0
  162.0340  209.4130  156.4990 C   0  0  0  0  0  0  0  0  0  0  0  0
  160.8890  208.5050  152.4260 C   0  0  0  0  0  0  0  0  0  0  0  0
  162.3880  206.5960  151.0240 C   0  0  0  0  0  3  0  0  0  0  0  0
  161.4460  209.0120  155.2960 C   0  0  0  0  0  3  0  0  0  0  0  0
  161.0200  211.3120  151.6410 C   0  0  2  0  0  3  0  0  0  0  0  0
  161.5300  204.9000  152.4620 F   0  0  0  0  0  0  0  0  0  0  0  0
  159.8910  212.2030  154.1630 N   0  0  0  0  0  2  0  0  0  0  0  0
  162.7080  208.5150  157.2550 F   0  0  0  0  0  0  0  0  0  0  0  0
  161.7110  210.2580  150.9040 N   0  0  0  0  0  2  0  0  0  0  0  0
  159.7590  210.7520  152.3160 C   0  0  2  0  0  3  0  0  0  0  0  0
  160.8340  207.1550  152.7950 C   0  0  0  0  0  3  0  0  0  0  0  0
  161.9280  210.7420  156.9190 C   0  0  0  0  0  3  0  0  0  0  0  0
  161.7000  208.8970  151.3410 C   0  0  0  0  0  0  0  0  0  0  0  0
  162.4420  207.9390  150.6430 C   0  0  0  0  0  3  0  0  0  0  0  0
  159.0670  211.7850  153.0980 N   0  0  0  0  0  2  0  0  0  0  0  0
  160.6220  211.2620  154.9510 C   0  0  0  0  0  0  0  0  0  0  0  0
  161.2220  211.6660  156.1460 C   0  0  0  0  0  3  0  0  0  0  0  0
  162.0560  211.6530  149.0060 O   0  0  0  0  0  0  0  0  0  0  0  0
  161.2170  212.4990  149.4180 C   0  0  0  0  0  0  0  0  0  0  0  0
  160.6660  212.3920  150.7320 N   0  0  0  0  0  2  0  0  0  0  0  0
  160.3360  213.3670  145.6320 N   0  0  0  0  0  0  0  0  0  0  0  0
  159.4310  213.3340  147.8920 C   0  0  0  0  0  2  0  0  0  0  0  0
  162.9430  214.4400  147.8710 O   0  0  0  0  0  0  0  0  0  0  0  0
  160.4990  212.5690  144.4310 C   0  0  0  0  0  1  0  0  0  0  0  0
  159.5980  212.5510  146.5910 C   0  0  0  0  0  2  0  0  0  0  0  0
  161.8430  213.9450  147.5140 C   0  0  0  0  0  0  0  0  0  0  0  0
  160.7880  213.6320  148.5380 C   0  0  2  0  0  3  0  0  0  0  0  0
  161.6270  213.6090  146.1380 N   0  0  0  0  0  2  0  0  0  0  0  0
  1  9  1  0  0  0  0
  1 14  1  0  0  0  0
  2  5  1  6  0  0  0
  2  3  1  0  0  0  0
  3 19  2  0  0  0  0
  3  7  1  0  0  0  0
  4 15  1  0  0  0  0
  4 11  1  0  0  0  0
  5 14  2  0  0  0  0
  6  1  2  0  0  0  0
  7  4  2  0  0  0  0
  8 23  1  6  0  0  0
  8 13  1  0  0  0  0
 10 19  1  0  0  0  0
 12 16  1  0  0  0  0
 12  8  1  0  0  0  0
 13 18  1  1  0  0  0
 13  2  1  0  0  0  0
 16  5  1  0  0  0  0
 17  6  1  0  0  0  0
 17 16  2  0  0  0  0
 18 10  1  0  0  0  0
 19 20  1  0  0  0  0
 20 15  2  0  0  0  0
 21 22  2  0  0  0  0
 22 23  1  0  0  0  0
 24 31  1  0  0  0  0
 24 28  1  0  0  0  0
 25 30  1  0  0  0  0
 27 24  1  0  0  0  0
 28 25  1  0  0  0  0
 29 26  2  0  0  0  0
 29 30  1  0  0  0  0
 30 22  1  6  0  0  0
 31 29  1  0  0  0  0
M  END
>  <MODEL>
3

>  <REMARK>
 VINA RESULT:      -6.9      4.123      5.720
  Name = 
  2 active torsions:
  status: ('A' for Active; 'I' for Inactive)
    1  A    between atoms: C_5  and  C_30
    2  A    between atoms: C_10  and  N_16
                            x       y       z     vdW  Elec       q    Type
                         _______ _______ _______ _____ _____    ______ ____

>  <TORSDO>
F 2

$$$$
=
 OpenBabel11122413293D

 31 35  0  0  1  0  0  0  0  0999 V2000
  160.8570  206.5870  146.6750 C   0  0  0  0  0  0  0  0  0  0  0  0
  160.2070  204.9180  150.0330 C   0  0  2  0  0  3  0  0  0  0  0  0
  160.6640  203.4740  149.9420 C   0  0  0  0  0  0  0  0  0  0  0  0
  161.2580  201.5050  148.6450 C   0  0  0  0  0  0  0  0  0  0  0  0
  160.8190  205.7980  148.9680 C   0  0  0  0  0  0  0  0  0  0  0  0
  161.9560  207.3990  146.9680 C   0  0  0  0  0  3  0  0  0  0  0  0
  160.8570  202.8430  148.7020 C   0  0  0  0  0  3  0  0  0  0  0  0
  161.9420  205.8260  151.6610 C   0  0  2  0  0  3  0  0  0  0  0  0
  160.3410  206.5730  145.4220 F   0  0  0  0  0  0  0  0  0  0  0  0
  160.6020  203.3540  152.3850 N   0  0  0  0  0  2  0  0  0  0  0  0
  161.4540  200.9080  147.4460 F   0  0  0  0  0  0  0  0  0  0  0  0
  162.4350  206.6950  150.5960 N   0  0  0  0  0  2  0  0  0  0  0  0
  160.4560  205.5050  151.4430 C   0  0  2  0  0  3  0  0  0  0  0  0
  160.2880  205.7910  147.6720 C   0  0  0  0  0  3  0  0  0  0  0  0
  161.4600  200.7850  149.8260 C   0  0  0  0  0  3  0  0  0  0  0  0
  161.9260  206.6190  149.2620 C   0  0  0  0  0  0  0  0  0  0  0  0
  162.4860  207.4190  148.2610 C   0  0  0  0  0  3  0  0  0  0  0  0
  159.9460  204.5980  152.4800 N   0  0  0  0  0  2  0  0  0  0  0  0
  160.8310  202.7290  151.1210 C   0  0  0  0  0  0  0  0  0  0  0  0
  161.2460  201.3970  151.0630 C   0  0  0  0  0  3  0  0  0  0  0  0
  160.5240  208.1280  152.5670 O   0  0  0  0  0  0  0  0  0  0  0  0
  161.3790  207.6250  153.3450 C   0  0  0  0  0  0  0  0  0  0  0  0
  162.1320  206.4770  152.9490 N   0  0  0  0  0  2  0  0  0  0  0  0
  159.6570  209.9100  156.1160 N   0  0  0  0  0  0  0  0  0  0  0  0
  160.6050  207.7040  155.7130 C   0  0  0  0  0  2  0  0  0  0  0  0
  162.5540  210.3280  154.0190 O   0  0  0  0  0  0  0  0  0  0  0  0
  158.4270  210.6770  156.0570 C   0  0  0  0  0  1  0  0  0  0  0  0
  159.3310  208.5470  155.7050 C   0  0  0  0  0  2  0  0  0  0  0  0
  161.6270  209.7270  154.6210 C   0  0  0  0  0  0  0  0  0  0  0  0
  161.6230  208.2260  154.6940 C   0  0  2  0  0  3  0  0  0  0  0  0
  160.5340  210.4740  155.1690 N   0  0  0  0  0  2  0  0  0  0  0  0
  1  6  2  0  0  0  0
  1 14  1  0  0  0  0
  2  5  1  6  0  0  0
  2 13  1  0  0  0  0
  3  2  1  0  0  0  0
  3 19  1  0  0  0  0
  4  7  1  0  0  0  0
  4 15  2  0  0  0  0
  5 16  1  0  0  0  0
  6 17  1  0  0  0  0
  7  3  2  0  0  0  0
  8 23  1  1  0  0  0
  9  1  1  0  0  0  0
 10 18  1  0  0  0  0
 11  4  1  0  0  0  0
 12  8  1  0  0  0  0
 13  8  1  0  0  0  0
 13 18  1  1  0  0  0
 14  5  2  0  0  0  0
 15 20  1  0  0  0  0
 16 12  1  0  0  0  0
 17 16  2  0  0  0  0
 19 10  1  0  0  0  0
 20 19  2  0  0  0  0
 21 22  2  0  0  0  0
 23 22  1  0  0  0  0
 26 29  2  0  0  0  0
 27 24  1  0  0  0  0
 28 25  1  0  0  0  0
 28 24  1  0  0  0  0
 29 30  1  0  0  0  0
 29 31  1  0  0  0  0
 30 22  1  6  0  0  0
 30 25  1  0  0  0  0
 31 24  1  0  0  0  0
M  END
>  <MODEL>
4

>  <REMARK>
 VINA RESULT:      -6.7      3.658      4.856
  Name = 
  2 active torsions:
  status: ('A' for Active; 'I' for Inactive)
    1  A    between atoms: C_5  and  C_30
    2  A    between atoms: C_10  and  N_16
                            x       y       z     vdW  Elec       q    Type
                         _______ _______ _______ _____ _____    ______ ____

>  <TORSDO>
F 2

$$$$
=
 OpenBabel11122413293D

 31 35  0  0  1  0  0  0  0  0999 V2000
  161.0140  201.4320  149.8880 C   0  0  0  0  0  0  0  0  0  0  0  0
  162.1100  204.5570  148.0110 C   0  0  2  0  0  3  0  0  0  0  0  0
  161.3790  204.5940  146.6830 C   0  0  0  0  0  0  0  0  0  0  0  0
  160.1320  203.4990  144.9050 C   0  0  0  0  0  0  0  0  0  0  0  0
  161.4430  203.6590  149.0260 C   0  0  0  0  0  0  0  0  0  0  0  0
  160.1900  201.9710  150.8810 C   0  0  0  0  0  3  0  0  0  0  0  0
  160.7820  203.4430  146.1420 C   0  0  0  0  0  3  0  0  0  0  0  0
  161.0150  206.5420  149.1710 C   0  0  2  0  0  3  0  0  0  0  0  0
  161.2060  200.0930  149.8210 F   0  0  0  0  0  0  0  0  0  0  0  0
  161.9930  206.9530  146.4680 N   0  0  0  0  0  2  0  0  0  0  0  0
  159.5480  202.3880  144.3970 F   0  0  0  0  0  0  0  0  0  0  0  0
  160.4590  205.6150  150.1530 N   0  0  0  0  0  2  0  0  0  0  0  0
  162.3180  205.9790  148.5850 C   0  0  2  0  0  3  0  0  0  0  0  0
  161.6410  202.2740  148.9650 C   0  0  0  0  0  3  0  0  0  0  0  0
  160.0820  204.7020  144.1960 C   0  0  0  0  0  3  0  0  0  0  0  0
  160.6130  204.1990  150.0290 C   0  0  0  0  0  0  0  0  0  0  0  0
  159.9950  203.3520  150.9540 C   0  0  0  0  0  3  0  0  0  0  0  0
  162.8780  206.8740  147.5630 N   0  0  0  0  0  2  0  0  0  0  0  0
  161.3570  205.7870  145.9420 C   0  0  0  0  0  0  0  0  0  0  0  0
  160.6950  205.8460  144.7130 C   0  0  0  0  0  3  0  0  0  0  0  0
  162.7060  206.9730  151.4260 O   0  0  0  0  0  0  0  0  0  0  0  0
  162.1320  207.9780  150.9260 C   0  0  0  0  0  0  0  0  0  0  0  0
  161.2630  207.8300  149.8010 N   0  0  0  0  0  2  0  0  0  0  0  0
  160.1780  211.0080  152.6200 N   0  0  0  0  0  0  0  0  0  0  0  0
  161.9440  209.3720  152.9840 C   0  0  0  0  0  2  0  0  0  0  0  0
  162.0010  210.6600  149.5350 O   0  0  0  0  0  0  0  0  0  0  0  0
  158.7520  211.2330  152.7630 C   0  0  0  0  0  1  0  0  0  0  0  0
  160.4560  209.6740  153.1460 C   0  0  0  0  0  2  0  0  0  0  0  0
  161.6240  210.3870  150.7040 C   0  0  0  0  0  0  0  0  0  0  0  0
  162.3470  209.3410  151.5060 C   0  0  2  0  0  3  0  0  0  0  0  0
  160.4560  211.0200  151.2400 N   0  0  0  0  0  2  0  0  0  0  0  0
  1  6  1  0  0  0  0
  2  3  1  6  0  0  0
  2 13  1  0  0  0  0
  2  5  1  0  0  0  0
  4  7  2  0  0  0  0
  5 16  2  0  0  0  0
  6 17  2  0  0  0  0
  7  3  1  0  0  0  0
  8 23  1  1  0  0  0
  8 12  1  0  0  0  0
  9  1  1  0  0  0  0
 10 18  1  0  0  0  0
 11  4  1  0  0  0  0
 13 18  1  6  0  0  0
 13  8  1  0  0  0  0
 14  5  1  0  0  0  0
 14  1  2  0  0  0  0
 15 20  2  0  0  0  0
 15  4  1  0  0  0  0
 16 12  1  0  0  0  0
 16 17  1  0  0  0  0
 19 10  1  0  0  0  0
 19  3  2  0  0  0  0
 20 19  1  0  0  0  0
 22 21  2  0  0  0  0
 23 22  1  0  0  0  0
 24 27  1  0  0  0  0
 24 28  1  0  0  0  0
 25 28  1  0  0  0  0
 26 29  2  0  0  0  0
 29 31  1  0  0  0  0
 29 30  1  0  0  0  0
 30 22  1  6  0  0  0
 30 25  1  0  0  0  0
 31 24  1  0  0  0  0
M  END
>  <MODEL>
5

>  <REMARK>
 VINA RESULT:      -6.1      2.306      4.838
  Name = 
  2 active torsions:
  status: ('A' for Active; 'I' for Inactive)
    1  A    between atoms: C_5  and  C_30
    2  A    between atoms: C_10  and  N_16
                            x       y       z     vdW  Elec       q    Type
                         _______ _______ _______ _____ _____    ______ ____

>  <TORSDO>
F 2

$$$$
=
 OpenBabel11122413293D

 31 35  0  0  1  0  0  0  0  0999 V2000
  157.1250  214.1240  151.9680 C   0  0  0  0  0  0  0  0  0  0  0  0
  160.4290  213.5240  150.1740 C   0  0  2  0  0  3  0  0  0  0  0  0
  160.8740  212.1040  150.4630 C   0  0  0  0  0  0  0  0  0  0  0  0
  160.7930  210.0750  151.8010 C   0  0  0  0  0  0  0  0  0  0  0  0
  158.9540  213.7410  150.4200 C   0  0  0  0  0  0  0  0  0  0  0  0
  156.2180  214.1140  150.9040 C   0  0  0  0  0  3  0  0  0  0  0  0
  160.3500  211.3760  151.5430 C   0  0  0  0  0  3  0  0  0  0  0  0
  159.8980  213.3220  147.6910 C   0  0  2  0  0  3  0  0  0  0  0  0
  156.6820  214.3140  153.2340 F   0  0  0  0  0  0  0  0  0  0  0  0
  162.4500  212.2730  148.5980 N   0  0  0  0  0  2  0  0  0  0  0  0
  160.2730  209.3760  152.8380 F   0  0  0  0  0  0  0  0  0  0  0  0
  158.5000  213.6030  148.0030 N   0  0  0  0  0  2  0  0  0  0  0  0
  160.8180  213.9620  148.7420 C   0  0  2  0  0  3  0  0  0  0  0  0
  158.4900  213.9410  151.7260 C   0  0  0  0  0  3  0  0  0  0  0  0
  161.7700  209.4960  150.9880 C   0  0  0  0  0  3  0  0  0  0  0  0
  158.0370  213.7320  149.3500 C   0  0  0  0  0  0  0  0  0  0  0  0
  156.6740  213.9230  149.5980 C   0  0  0  0  0  3  0  0  0  0  0  0
  162.2310  213.6600  148.4730 N   0  0  0  0  0  2  0  0  0  0  0  0
  161.8850  211.5260  149.6770 C   0  0  0  0  0  0  0  0  0  0  0  0
  162.3170  210.2210  149.9260 C   0  0  0  0  0  3  0  0  0  0  0  0
  160.1210  211.7470  145.3250 O   0  0  0  0  0  0  0  0  0  0  0  0
  160.3030  212.9900  145.2180 C   0  0  0  0  0  0  0  0  0  0  0  0
  160.2150  213.8350  146.3660 N   0  0  0  0  0  2  0  0  0  0  0  0
  161.0830  212.0220  141.4340 N   0  0  0  0  0  0  0  0  0  0  0  0
  159.5370  213.2490  142.8600 C   0  0  0  0  0  2  0  0  0  0  0  0
  163.0110  213.6130  144.0250 O   0  0  0  0  0  0  0  0  0  0  0  0
  161.3370  210.7240  140.8380 C   0  0  0  0  0  1  0  0  0  0  0  0
  159.8320  211.9130  142.1800 C   0  0  0  0  0  2  0  0  0  0  0  0
  161.9890  213.1940  143.4220 C   0  0  0  0  0  0  0  0  0  0  0  0
  160.6180  213.5990  143.8870 C   0  0  2  0  0  3  0  0  0  0  0  0
  162.1330  212.2670  142.3400 N   0  0  0  0  0  2  0  0  0  0  0  0
  1  9  1  0  0  0  0
  2  5  1  6  0  0  0
  2  3  1  0  0  0  0
  3  7  1  0  0  0  0
  4 11  1  0  0  0  0
  5 14  2  0  0  0  0
  6  1  2  0  0  0  0
  7  4  2  0  0  0  0
  8 23  1  6  0  0  0
  8 12  1  0  0  0  0
  8 13  1  0  0  0  0
 10 19  1  0  0  0  0
 12 16  1  0  0  0  0
 13 18  1  6  0  0  0
 13  2  1  0  0  0  0
 14  1  1  0  0  0  0
 15  4  1  0  0  0  0
 16 17  2  0  0  0  0
 16  5  1  0  0  0  0
 17  6  1  0  0  0  0
 18 10  1  0  0  0  0
 19 20  1  0  0  0  0
 19  3  2  0  0  0  0
 20 15  2  0  0  0  0
 22 21  2  0  0  0  0
 22 23  1  0  0  0  0
 24 28  1  0  0  0  0
 24 31  1  0  0  0  0
 25 30  1  0  0  0  0
 27 24  1  0  0  0  0
 28 25  1  0  0  0  0
 29 30  1  0  0  0  0
 29 26  2  0  0  0  0
 30 22  1  1  0  0  0
 31 29  1  0  0  0  0
M  END
>  <MODEL>
6

>  <REMARK>
 VINA RESULT:      -5.5      5.113      7.946
  Name = 
  2 active torsions:
  status: ('A' for Active; 'I' for Inactive)
    1  A    between atoms: C_5  and  C_30
    2  A    between atoms: C_10  and  N_16
                            x       y       z     vdW  Elec       q    Type
                         _______ _______ _______ _____ _____    ______ ____

>  <TORSDO>
F 2

$$$$
=
 OpenBabel11122413293D

 31 35  0  0  1  0  0  0  0  0999 V2000
  161.7510  213.2740  148.0570 C   0  0  0  0  0  0  0  0  0  0  0  0
  159.5240  214.1910  151.0050 C   0  0  2  0  0  3  0  0  0  0  0  0
  158.0820  214.1690  150.5340 C   0  0  0  0  0  0  0  0  0  0  0  0
  156.4170  214.2300  148.7640 C   0  0  0  0  0  0  0  0  0  0  0  0
  160.4500  213.4120  150.1000 C   0  0  0  0  0  0  0  0  0  0  0  0
  162.1450  211.9750  148.3910 C   0  0  0  0  0  3  0  0  0  0  0  0
  157.7540  214.2300  149.1700 C   0  0  0  0  0  3  0  0  0  0  0  0
  159.5060  212.1840  152.5730 C   0  0  2  0  0  3  0  0  0  0  0  0
  162.1880  213.8390  146.9060 F   0  0  0  0  0  0  0  0  0  0  0  0
  157.3730  214.1310  152.8770 N   0  0  0  0  0  2  0  0  0  0  0  0
  156.1100  214.2770  147.4460 F   0  0  0  0  0  0  0  0  0  0  0  0
  160.4530  211.5230  151.6800 N   0  0  0  0  0  2  0  0  0  0  0  0
  159.6520  213.7100  152.4700 C   0  0  2  0  0  3  0  0  0  0  0  0
  160.9090  213.9920  148.9110 C   0  0  0  0  0  3  0  0  0  0  0  0
  155.3960  214.1780  149.7180 C   0  0  0  0  0  3  0  0  0  0  0  0
  160.8510  212.1030  150.4350 C   0  0  0  0  0  0  0  0  0  0  0  0
  161.7000  211.3930  149.5810 C   0  0  0  0  0  3  0  0  0  0  0  0
  158.6810  214.4010  153.3290 N   0  0  0  0  0  2  0  0  0  0  0  0
  157.0480  214.1580  151.4850 C   0  0  0  0  0  0  0  0  0  0  0  0
  155.7120  214.1430  151.0780 C   0  0  0  0  0  3  0  0  0  0  0  0
  157.5160  211.1470  154.3330 O   0  0  0  0  0  0  0  0  0  0  0  0
  158.6970  211.2290  154.7690 C   0  0  0  0  0  0  0  0  0  0  0  0
  159.7390  211.7490  153.9420 N   0  0  0  0  0  2  0  0  0  0  0  0
  161.7630  210.7240  157.2600 N   0  0  0  0  0  0  0  0  0  0  0  0
  159.6690  211.9280  156.9550 C   0  0  0  0  0  2  0  0  0  0  0  0
  159.4090  208.4580  155.7490 O   0  0  0  0  0  0  0  0  0  0  0  0
  163.1910  210.7880  157.0060 C   0  0  0  0  0  1  0  0  0  0  0  0
  161.1810  211.9610  156.7450 C   0  0  0  0  0  2  0  0  0  0  0  0
  159.8820  209.5540  156.1470 C   0  0  0  0  0  0  0  0  0  0  0  0
  159.0230  210.7870  156.1610 C   0  0  2  0  0  3  0  0  0  0  0  0
  161.2650  209.6400  156.5130 N   0  0  0  0  0  2  0  0  0  0  0  0
  1  6  2  0  0  0  0
  1 14  1  0  0  0  0
  2  5  1  6  0  0  0
  2 13  1  0  0  0  0
  3  2  1  0  0  0  0
  3 19  1  0  0  0  0
  4  7  1  0  0  0  0
  4 15  2  0  0  0  0
  5 16  1  0  0  0  0
  6 17  1  0  0  0  0
  7  3  2  0  0  0  0
  8 23  1  1  0  0  0
  9  1  1  0  0  0  0
 10 18  1  0  0  0  0
 11  4  1  0  0  0  0
 12  8  1  0  0  0  0
 13  8  1  0  0  0  0
 13 18  1  1  0  0  0
 14  5  2  0  0  0  0
 15 20  1  0  0  0  0
 16 12  1  0  0  0  0
 17 16  2  0  0  0  0
 19 10  1  0  0  0  0
 20 19  2  0  0  0  0
 21 22  2  0  0  0  0
 23 22  1  0  0  0  0
 26 29  2  0  0  0  0
 27 24  1  0  0  0  0
 28 25  1  0  0  0  0
 28 24  1  0  0  0  0
 29 30  1  0  0  0  0
 29 31  1  0  0  0  0
 30 22  1  6  0  0  0
 30 25  1  0  0  0  0
 31 24  1  0  0  0  0
M  END
>  <MODEL>
7

>  <REMARK>
 VINA RESULT:      -5.4      6.464      9.287
  Name = 
  2 active torsions:
  status: ('A' for Active; 'I' for Inactive)
    1  A    between atoms: C_5  and  C_30
    2  A    between atoms: C_10  and  N_16
                            x       y       z     vdW  Elec       q    Type
                         _______ _______ _______ _____ _____    ______ ____

>  <TORSDO>
F 2

$$$$
=
 OpenBabel11122413293D

 31 35  0  0  1  0  0  0  0  0999 V2000
  161.8870  206.4410  147.2320 C   0  0  0  0  0  0  0  0  0  0  0  0
  162.3850  209.3500  149.6360 C   0  0  2  0  0  3  0  0  0  0  0  0
  161.6940  210.5690  149.0560 C   0  0  0  0  0  0  0  0  0  0  0  0
  160.7350  211.7830  147.1810 C   0  0  0  0  0  0  0  0  0  0  0  0
  161.8850  208.0520  149.0460 C   0  0  0  0  0  0  0  0  0  0  0  0
  160.9480  205.6630  147.9170 C   0  0  0  0  0  3  0  0  0  0  0  0
  161.3520  210.6400  147.6960 C   0  0  0  0  0  3  0  0  0  0  0  0
  160.8880  208.9130  151.6500 C   0  0  2  0  0  3  0  0  0  0  0  0
  162.3440  206.0400  146.0220 F   0  0  0  0  0  0  0  0  0  0  0  0
  161.8310  211.6310  151.2560 N   0  0  0  0  0  2  0  0  0  0  0  0
  160.3970  211.8380  145.8700 F   0  0  0  0  0  0  0  0  0  0  0  0
  160.5030  207.6420  151.0430 N   0  0  0  0  0  2  0  0  0  0  0  0
  162.2910  209.3250  151.1810 C   0  0  2  0  0  3  0  0  0  0  0  0
  162.3560  207.6310  147.7970 C   0  0  0  0  0  3  0  0  0  0  0  0
  160.4630  212.8690  148.0180 C   0  0  0  0  0  3  0  0  0  0  0  0
  160.9400  207.2650  149.7350 C   0  0  0  0  0  0  0  0  0  0  0  0
  160.4800  206.0730  149.1680 C   0  0  0  0  0  3  0  0  0  0  0  0
  162.6860  210.6220  151.7460 N   0  0  0  0  0  2  0  0  0  0  0  0
  161.4540  211.6810  149.8790 C   0  0  0  0  0  0  0  0  0  0  0  0
  160.8230  212.8180  149.3670 C   0  0  0  0  0  3  0  0  0  0  0  0
  159.3450  210.5430  153.4090 O   0  0  0  0  0  0  0  0  0  0  0  0
  160.0540  209.6360  153.9240 C   0  0  0  0  0  0  0  0  0  0  0  0
  160.8590  208.7910  153.1000 N   0  0  0  0  0  2  0  0  0  0  0  0
  162.2900  210.2900  157.1550 N   0  0  0  0  0  0  0  0  0  0  0  0
  160.1330  210.7810  156.1360 C   0  0  0  0  0  2  0  0  0  0  0  0
  161.1550  207.3010  155.4990 O   0  0  0  0  0  0  0  0  0  0  0  0
  163.6600  210.7550  157.2610 C   0  0  0  0  0  1  0  0  0  0  0  0
  161.5780  211.2460  156.3110 C   0  0  0  0  0  2  0  0  0  0  0  0
  161.1880  208.5190  155.8150 C   0  0  0  0  0  0  0  0  0  0  0  0
  160.0680  209.4350  155.4070 C   0  0  2  0  0  3  0  0  0  0  0  0
  162.3320  209.0460  156.4970 N   0  0  0  0  0  2  0  0  0  0  0  0
  1 14  2  0  0  0  0
  1  6  1  0  0  0  0
  2  5  1  6  0  0  0
  2 13  1  0  0  0  0
  3  2  1  0  0  0  0
  3 19  1  0  0  0  0
  4  7  1  0  0  0  0
  4 15  2  0  0  0  0
  5 16  2  0  0  0  0
  6 17  2  0  0  0  0
  7  3  2  0  0  0  0
  8 23  1  1  0  0  0
  9  1  1  0  0  0  0
 10 18  1  0  0  0  0
 11  4  1  0  0  0  0
 12  8  1  0  0  0  0
 13  8  1  0  0  0  0
 13 18  1  6  0  0  0
 14  5  1  0  0  0  0
 15 20  1  0  0  0  0
 16 12  1  0  0  0  0
 17 16  1  0  0  0  0
 19 10  1  0  0  0  0
 20 19  2  0  0  0  0
 21 22  2  0  0  0  0
 23 22  1  0  0  0  0
 24 27  1  0  0  0  0
 25 28  1  0  0  0  0
 26 29  2  0  0  0  0
 28 24  1  0  0  0  0
 29 31  1  0  0  0  0
 30 22  1  6  0  0  0
 30 29  1  0  0  0  0
 30 25  1  0  0  0  0
 31 24  1  0  0  0  0
M  END
>  <MODEL>
8

>  <REMARK>
 VINA RESULT:      -4.8      4.259      6.897
  Name = 
  2 active torsions:
  status: ('A' for Active; 'I' for Inactive)
    1  A    between atoms: C_5  and  C_30
    2  A    between atoms: C_10  and  N_16
                            x       y       z     vdW  Elec       q    Type
                         _______ _______ _______ _____ _____    ______ ____

>  <TORSDO>
F 2

$$$$
