=
 OpenBabel11122412433D

 30 35  0  0  1  0  0  0  0  0999 V2000
  157.4200  213.8850  153.3220 C   0  0  2  0  0  3  0  0  0  0  0  0
  155.8820  213.9680  151.2750 C   0  0  0  0  0  0  0  0  0  0  0  0
  160.0760  211.7080  151.0850 O   0  0  0  0  0  0  0  0  0  0  0  0
  158.4010  212.8190  153.8400 C   0  0  2  0  0  3  0  0  0  0  0  0
  156.2420  214.1060  154.1090 O   0  0  0  0  0  0  0  0  0  0  0  0
  157.1770  212.7330  157.2130 O   0  0  0  0  0  0  0  0  0  0  0  0
  160.3340  211.4230  155.9280 C   0  0  1  0  0  3  0  0  0  0  0  0
  157.2600  212.9440  155.9740 C   0  0  0  0  0  0  0  0  0  0  0  0
  160.3120  210.7630  154.5490 C   0  0  2  0  0  3  0  0  0  0  0  0
  160.7510  211.0270  152.0700 C   0  0  0  0  0  0  0  0  0  0  0  0
  156.0260  213.1630  155.1540 C   0  0  2  0  0  3  0  0  0  0  0  0
  158.5170  212.9430  155.2900 N   0  0  0  0  0  0  0  0  0  0  0  0
  155.6830  213.7890  149.9040 C   0  0  0  0  0  3  0  0  0  0  0  0
  161.3480  209.6760  154.7210 C   0  0  0  0  0  2  0  0  0  0  0  0
  161.6950  211.3440  156.4350 N   0  0  0  0  0  2  0  0  0  0  0  0
  154.8510  214.4500  152.0110 F   0  0  0  0  0  0  0  0  0  0  0  0
  159.5760  212.9430  151.5610 C   0  0  2  0  0  3  0  0  0  0  0  0
  156.7190  213.3290  149.0940 C   0  0  0  0  0  3  0  0  0  0  0  0
  157.1340  213.6640  151.8570 C   0  0  0  0  0  0  0  0  0  0  0  0
  159.7500  212.9060  153.1050 C   0  0  2  0  0  3  0  0  0  0  0  0
  161.3820  209.9620  151.8380 O   0  0  0  0  0  0  0  0  0  0  0  0
  160.7150  211.7150  153.3890 C   0  0  1  0  0  3  0  0  0  0  0  0
  162.2900  210.1720  155.8040 C   0  0  0  0  0  2  0  0  0  0  0  0
  159.7710  213.3480  157.2600 O   0  0  0  0  0  1  0  0  0  0  0  0
  157.9650  213.0500  149.6520 C   0  0  0  0  0  3  0  0  0  0  0  0
  158.1850  213.2070  151.0260 C   0  0  0  0  0  0  0  0  0  0  0  0
  159.8230  212.8590  155.9530 C   0  0  1  0  0  3  0  0  0  0  0  0
  155.4870  211.8680  154.6260 C   0  0  0  0  0  3  0  0  0  0  0  0
  155.0630  209.4700  154.7900 C   0  0  0  0  0  1  0  0  0  0  0  0
  155.6080  210.7450  155.3280 C   0  0  0  0  0  3  0  0  0  0  0  0
  1 19  1  6  0  0  0
  1  4  1  0  0  0  0
  1  5  1  0  0  0  0
  2 19  1  0  0  0  0
  2 16  1  0  0  0  0
  3 17  1  0  0  0  0
  3 10  1  0  0  0  0
  4 12  1  1  0  0  0
  5 11  1  0  0  0  0
  7 27  1  0  0  0  0
  7 15  1  6  0  0  0
  8  6  2  0  0  0  0
  9 14  1  1  0  0  0
  9  7  1  0  0  0  0
 10 22  1  0  0  0  0
 11 28  1  6  0  0  0
 11  8  1  0  0  0  0
 12 27  1  0  0  0  0
 12  8  1  0  0  0  0
 13  2  2  0  0  0  0
 14 23  1  0  0  0  0
 17 26  1  1  0  0  0
 17 20  1  0  0  0  0
 18 25  2  0  0  0  0
 18 13  1  0  0  0  0
 20 22  1  0  0  0  0
 20  4  1  0  0  0  0
 21 10  2  0  0  0  0
 22  9  1  0  0  0  0
 23 15  1  0  0  0  0
 25 26  1  0  0  0  0
 26 19  2  0  0  0  0
 27 24  1  0  0  0  0
 28 30  2  0  0  0  0
 29 30  1  0  0  0  0
M  END
>  <MODEL>
1

>  <REMARK>
 VINA RESULT:      -4.2      0.000      0.000
  Name = 
  1 active torsions:
  status: ('A' for Active; 'I' for Inactive)
    1  A    between atoms: C_11  and  C_28
                            x       y       z     vdW  Elec       q    Type
                         _______ _______ _______ _____ _____    ______ ____

>  <TORSDO>
F 1

$$$$
=
 OpenBabel11122412433D

 30 35  0  0  1  0  0  0  0  0999 V2000
  160.4040  211.8130  153.9660 C   0  0  2  0  0  3  0  0  0  0  0  0
  159.2960  213.7580  152.7180 C   0  0  0  0  0  0  0  0  0  0  0  0
  161.1710  210.0800  150.3310 O   0  0  0  0  0  0  0  0  0  0  0  0
  160.4950  210.3070  153.6670 C   0  0  2  0  0  3  0  0  0  0  0  0
  159.6030  212.1940  155.0940 O   0  0  0  0  0  0  0  0  0  0  0  0
  159.4130  209.1770  156.8970 O   0  0  0  0  0  0  0  0  0  0  0  0
  161.0920  207.2560  154.2840 C   0  0  1  0  0  3  0  0  0  0  0  0
  159.6360  209.9100  155.8980 C   0  0  0  0  0  0  0  0  0  0  0  0
  160.6930  207.5410  152.8360 C   0  0  2  0  0  3  0  0  0  0  0  0
  161.2530  208.7550  150.6870 C   0  0  0  0  0  0  0  0  0  0  0  0
  158.8250  211.1470  155.6650 C   0  0  2  0  0  3  0  0  0  0  0  0
  160.6320  209.5790  154.9250 N   0  0  0  0  0  0  0  0  0  0  0  0
  159.0580  214.4530  151.5310 C   0  0  0  0  0  3  0  0  0  0  0  0
  160.8210  206.1690  152.2150 C   0  0  0  0  0  2  0  0  0  0  0  0
  162.0960  206.2040  154.2680 N   0  0  0  0  0  2  0  0  0  0  0  0
  158.7750  214.2580  153.8660 F   0  0  0  0  0  0  0  0  0  0  0  0
  161.5390  210.9260  151.4050 C   0  0  2  0  0  3  0  0  0  0  0  0
  159.5980  214.0030  150.3290 C   0  0  0  0  0  3  0  0  0  0  0  0
  160.0730  212.5770  152.7070 C   0  0  0  0  0  0  0  0  0  0  0  0
  161.6190  210.0110  152.6600 C   0  0  2  0  0  3  0  0  0  0  0  0
  161.0870  207.8250  149.8530 O   0  0  0  0  0  0  0  0  0  0  0  0
  161.6250  208.5510  152.1130 C   0  0  1  0  0  3  0  0  0  0  0  0
  161.8440  205.4280  153.0590 C   0  0  0  0  0  2  0  0  0  0  0  0
  161.8230  208.1520  156.3960 O   0  0  0  0  0  1  0  0  0  0  0  0
  160.3860  212.8540  150.3080 C   0  0  0  0  0  3  0  0  0  0  0  0
  160.6280  212.1310  151.4830 C   0  0  0  0  0  0  0  0  0  0  0  0
  161.5870  208.4730  155.0570 C   0  0  1  0  0  3  0  0  0  0  0  0
  157.6080  210.8530  154.8410 C   0  0  0  0  0  3  0  0  0  0  0  0
  155.2110  210.4740  154.5740 C   0  0  0  0  0  1  0  0  0  0  0  0
  156.4090  210.7620  155.4090 C   0  0  0  0  0  3  0  0  0  0  0  0
  1 19  1  6  0  0  0
  1  5  1  0  0  0  0
  2 16  1  0  0  0  0
  3 10  1  0  0  0  0
  4  1  1  0  0  0  0
  4 12  1  1  0  0  0
  5 11  1  0  0  0  0
  7 15  1  6  0  0  0
  7 27  1  0  0  0  0
  8  6  2  0  0  0  0
  9 14  1  6  0  0  0
  9  7  1  0  0  0  0
 10 22  1  0  0  0  0
 11 28  1  6  0  0  0
 11  8  1  0  0  0  0
 12 27  1  0  0  0  0
 12  8  1  0  0  0  0
 13  2  2  0  0  0  0
 14 23  1  0  0  0  0
 17  3  1  6  0  0  0
 17 26  1  0  0  0  0
 17 20  1  0  0  0  0
 18 13  1  0  0  0  0
 19  2  1  0  0  0  0
 20  4  1  0  0  0  0
 21 10  2  0  0  0  0
 22 20  1  0  0  0  0
 22  9  1  0  0  0  0
 23 15  1  0  0  0  0
 25 18  2  0  0  0  0
 25 26  1  0  0  0  0
 26 19  2  0  0  0  0
 27 24  1  0  0  0  0
 28 30  2  0  0  0  0
 29 30  1  0  0  0  0
M  END
>  <MODEL>
2

>  <REMARK>
 VINA RESULT:      -4.1      2.658      3.707
  Name = 
  1 active torsions:
  status: ('A' for Active; 'I' for Inactive)
    1  A    between atoms: C_11  and  C_28
                            x       y       z     vdW  Elec       q    Type
                         _______ _______ _______ _____ _____    ______ ____

>  <TORSDO>
F 1

$$$$
=
 OpenBabel11122412433D

 30 35  0  0  1  0  0  0  0  0999 V2000
  162.1870  209.9550  151.2670 C   0  0  2  0  0  3  0  0  0  0  0  0
  161.5740  212.1830  150.1600 C   0  0  0  0  0  0  0  0  0  0  0  0
  161.3190  208.0950  147.7190 O   0  0  0  0  0  0  0  0  0  0  0  0
  161.6500  208.5250  151.0870 C   0  0  2  0  0  3  0  0  0  0  0  0
  161.8950  210.5940  152.5180 O   0  0  0  0  0  0  0  0  0  0  0  0
  161.1010  207.8460  154.5670 O   0  0  0  0  0  0  0  0  0  0  0  0
  161.2450  205.4640  151.8030 C   0  0  1  0  0  3  0  0  0  0  0  0
  161.3090  208.4530  153.4840 C   0  0  0  0  0  0  0  0  0  0  0  0
  160.6180  205.8900  150.4750 C   0  0  2  0  0  3  0  0  0  0  0  0
  161.0060  206.8300  148.1580 C   0  0  0  0  0  0  0  0  0  0  0  0
  160.9670  209.9050  153.3480 C   0  0  2  0  0  3  0  0  0  0  0  0
  161.8340  207.7860  152.3320 N   0  0  0  0  0  0  0  0  0  0  0  0
  161.3060  212.9280  149.0100 C   0  0  0  0  0  3  0  0  0  0  0  0
  160.0800  204.5740  149.9620 C   0  0  0  0  0  2  0  0  0  0  0  0
  161.7620  204.1150  151.6360 N   0  0  0  0  0  2  0  0  0  0  0  0
  161.5810  212.8300  151.3520 F   0  0  0  0  0  0  0  0  0  0  0  0
  162.2290  208.7340  148.5940 C   0  0  2  0  0  3  0  0  0  0  0  0
  161.3210  212.3220  147.7560 C   0  0  0  0  0  3  0  0  0  0  0  0
  161.8420  210.7990  150.0640 C   0  0  0  0  0  0  0  0  0  0  0  0
  162.2940  207.8430  149.8670 C   0  0  2  0  0  3  0  0  0  0  0  0
  160.3090  206.0360  147.4720 O   0  0  0  0  0  0  0  0  0  0  0  0
  161.6330  206.4900  149.4630 C   0  0  1  0  0  3  0  0  0  0  0  0
  160.9470  203.4990  150.5950 C   0  0  0  0  0  2  0  0  0  0  0  0
  162.7650  206.0060  153.5900 O   0  0  0  0  0  1  0  0  0  0  0  0
  161.6080  210.9630  147.6450 C   0  0  0  0  0  3  0  0  0  0  0  0
  161.8660  210.1910  148.7850 C   0  0  0  0  0  0  0  0  0  0  0  0
  162.3250  206.4040  152.3250 C   0  0  1  0  0  3  0  0  0  0  0  0
  159.5580  210.0900  152.8710 C   0  0  0  0  0  3  0  0  0  0  0  0
  157.5840  211.4530  152.4200 C   0  0  0  0  0  1  0  0  0  0  0  0
  158.9820  211.2880  152.9030 C   0  0  0  0  0  3  0  0  0  0  0  0
  1 19  1  6  0  0  0
  1  5  1  0  0  0  0
  2 16  1  0  0  0  0
  3 10  1  0  0  0  0
  4  1  1  0  0  0  0
  4 12  1  1  0  0  0
  5 11  1  0  0  0  0
  7 15  1  6  0  0  0
  7 27  1  0  0  0  0
  8  6  2  0  0  0  0
  9 14  1  6  0  0  0
  9  7  1  0  0  0  0
 10 22  1  0  0  0  0
 11 28  1  6  0  0  0
 11  8  1  0  0  0  0
 12  8  1  0  0  0  0
 13  2  2  0  0  0  0
 14 23  1  0  0  0  0
 17  3  1  6  0  0  0
 17 26  1  0  0  0  0
 17 20  1  0  0  0  0
 18 13  1  0  0  0  0
 19  2  1  0  0  0  0
 20  4  1  0  0  0  0
 21 10  2  0  0  0  0
 22 20  1  0  0  0  0
 22  9  1  0  0  0  0
 23 15  1  0  0  0  0
 25 18  2  0  0  0  0
 25 26  1  0  0  0  0
 26 19  2  0  0  0  0
 27 12  1  0  0  0  0
 27 24  1  0  0  0  0
 28 30  2  0  0  0  0
 29 30  1  0  0  0  0
M  END
>  <MODEL>
3

>  <REMARK>
 VINA RESULT:      -3.9      4.517      6.391
  Name = 
  1 active torsions:
  status: ('A' for Active; 'I' for Inactive)
    1  A    between atoms: C_11  and  C_28
                            x       y       z     vdW  Elec       q    Type
                         _______ _______ _______ _____ _____    ______ ____

>  <TORSDO>
F 1

$$$$
=
 OpenBabel11122412433D

 30 35  0  0  1  0  0  0  0  0999 V2000
  161.2220  211.6090  151.8270 C   0  0  2  0  0  3  0  0  0  0  0  0
  160.4210  210.2830  153.8690 C   0  0  0  0  0  0  0  0  0  0  0  0
  157.4420  213.1650  151.5100 O   0  0  0  0  0  0  0  0  0  0  0  0
  160.5140  212.0480  150.5330 C   0  0  2  0  0  3  0  0  0  0  0  0
  162.2440  210.6130  151.6890 O   0  0  0  0  0  0  0  0  0  0  0  0
  163.0110  210.8330  148.2610 O   0  0  0  0  0  0  0  0  0  0  0  0
  160.3030  213.1860  147.5830 C   0  0  1  0  0  3  0  0  0  0  0  0
  162.3310  211.0210  149.3040 C   0  0  0  0  0  0  0  0  0  0  0  0
  158.9550  212.9190  148.2550 C   0  0  2  0  0  3  0  0  0  0  0  0
  157.4000  213.4760  150.1720 C   0  0  0  0  0  0  0  0  0  0  0  0
  162.3290  210.0050  150.4040 C   0  0  2  0  0  3  0  0  0  0  0  0
  161.5040  212.1770  149.4690 N   0  0  0  0  0  0  0  0  0  0  0  0
  159.4690  210.0550  154.8640 C   0  0  0  0  0  3  0  0  0  0  0  0
  157.9920  213.4070  147.1970 C   0  0  0  0  0  2  0  0  0  0  0  0
  160.1610  214.3810  146.7660 N   0  0  0  0  0  2  0  0  0  0  0  0
  161.5490  209.5320  153.8800 F   0  0  0  0  0  0  0  0  0  0  0  0
  158.7660  213.2130  152.0090 C   0  0  2  0  0  3  0  0  0  0  0  0
  158.3080  210.8220  154.9200 C   0  0  0  0  0  3  0  0  0  0  0  0
  160.2050  211.2850  152.8950 C   0  0  0  0  0  0  0  0  0  0  0  0
  159.6880  213.3260  150.7630 C   0  0  2  0  0  3  0  0  0  0  0  0
  156.3140  213.6130  149.5490 O   0  0  0  0  0  0  0  0  0  0  0  0
  158.7460  213.7030  149.5800 C   0  0  1  0  0  3  0  0  0  0  0  0
  158.7520  214.4480  146.3950 C   0  0  0  0  0  2  0  0  0  0  0  0
  162.6810  213.4470  147.8500 O   0  0  0  0  0  1  0  0  0  0  0  0
  158.0940  211.8290  153.9810 C   0  0  0  0  0  3  0  0  0  0  0  0
  159.0280  212.0680  152.9640 C   0  0  0  0  0  0  0  0  0  0  0  0
  161.4770  213.3170  148.5460 C   0  0  1  0  0  3  0  0  0  0  0  0
  161.2460  208.9880  150.2030 C   0  0  0  0  0  3  0  0  0  0  0  0
  160.4560  206.7390  149.6780 C   0  0  0  0  0  1  0  0  0  0  0  0
  161.5440  207.7360  149.8680 C   0  0  0  0  0  3  0  0  0  0  0  0
  1  5  1  6  0  0  0
  1 19  1  0  0  0  0
  2 16  1  0  0  0  0
  2 13  1  0  0  0  0
  4 12  1  6  0  0  0
  4 20  1  0  0  0  0
  4  1  1  0  0  0  0
  6  8  2  0  0  0  0
  7 15  1  1  0  0  0
  7  9  1  0  0  0  0
  7 27  1  0  0  0  0
  8 12  1  0  0  0  0
  8 11  1  0  0  0  0
  9 14  1  6  0  0  0
  9 22  1  0  0  0  0
 10  3  1  0  0  0  0
 11 28  1  6  0  0  0
 11  5  1  0  0  0  0
 13 18  2  0  0  0  0
 17  3  1  6  0  0  0
 17 26  1  0  0  0  0
 19 26  1  0  0  0  0
 19  2  2  0  0  0  0
 20 17  1  0  0  0  0
 21 10  2  0  0  0  0
 22 10  1  0  0  0  0
 22 20  1  0  0  0  0
 23 15  1  0  0  0  0
 23 14  1  0  0  0  0
 24 27  1  0  0  0  0
 25 18  1  0  0  0  0
 26 25  2  0  0  0  0
 27 12  1  0  0  0  0
 29 30  1  0  0  0  0
 30 28  2  0  0  0  0
M  END
>  <MODEL>
4

>  <REMARK>
 VINA RESULT:      -3.8      3.581      7.145
  Name = 
  1 active torsions:
  status: ('A' for Active; 'I' for Inactive)
    1  A    between atoms: C_11  and  C_28
                            x       y       z     vdW  Elec       q    Type
                         _______ _______ _______ _____ _____    ______ ____

>  <TORSDO>
F 1

$$$$
=
 OpenBabel11122412433D

 30 35  0  0  1  0  0  0  0  0999 V2000
  157.6680  213.4580  139.1320 C   0  0  2  0  0  3  0  0  0  0  0  0
  155.3490  213.1850  140.1880 C   0  0  0  0  0  0  0  0  0  0  0  0
  157.2970  209.6590  137.6370 O   0  0  0  0  0  0  0  0  0  0  0  0
  158.8080  212.4610  138.8620 C   0  0  2  0  0  3  0  0  0  0  0  0
  157.9130  214.4530  140.1350 O   0  0  0  0  0  0  0  0  0  0  0  0
  161.4260  214.4130  140.3510 O   0  0  0  0  0  0  0  0  0  0  0  0
  161.7480  211.5490  138.1090 C   0  0  1  0  0  3  0  0  0  0  0  0
  160.2860  213.9820  140.0340 C   0  0  0  0  0  0  0  0  0  0  0  0
  160.7570  210.3980  138.2910 C   0  0  2  0  0  3  0  0  0  0  0  0
  158.6170  209.3040  137.4980 C   0  0  0  0  0  0  0  0  0  0  0  0
  159.0980  214.2620  140.9020 C   0  0  2  0  0  3  0  0  0  0  0  0
  160.0790  213.1780  138.8680 N   0  0  0  0  0  0  0  0  0  0  0  0
  154.1410  212.4920  140.2900 C   0  0  0  0  0  3  0  0  0  0  0  0
  161.6170  209.2050  137.9440 C   0  0  0  0  0  2  0  0  0  0  0  0
  162.6510  211.1870  137.0280 N   0  0  0  0  0  2  0  0  0  0  0  0
  155.5040  214.3090  140.9300 F   0  0  0  0  0  0  0  0  0  0  0  0
  157.1250  211.0590  137.5230 C   0  0  2  0  0  3  0  0  0  0  0  0
  153.9150  211.3510  139.5240 C   0  0  0  0  0  3  0  0  0  0  0  0
  156.3630  212.7220  139.3200 C   0  0  0  0  0  0  0  0  0  0  0  0
  158.5540  211.6690  137.5670 C   0  0  2  0  0  3  0  0  0  0  0  0
  158.9860  208.1010  137.4440 O   0  0  0  0  0  0  0  0  0  0  0  0
  159.5260  210.4710  137.3450 C   0  0  1  0  0  3  0  0  0  0  0  0
  162.6940  209.7300  137.0110 C   0  0  0  0  0  2  0  0  0  0  0  0
  162.0690  213.9160  137.8110 O   0  0  0  0  0  1  0  0  0  0  0  0
  154.8970  210.8980  138.6460 C   0  0  0  0  0  3  0  0  0  0  0  0
  156.1220  211.5670  138.5360 C   0  0  0  0  0  0  0  0  0  0  0  0
  161.1040  212.9060  137.8550 C   0  0  1  0  0  3  0  0  0  0  0  0
  158.9170  213.1940  141.9380 C   0  0  0  0  0  3  0  0  0  0  0  0
  159.3360  212.2130  144.1330 C   0  0  0  0  0  1  0  0  0  0  0  0
  159.5300  213.2800  143.1150 C   0  0  0  0  0  3  0  0  0  0  0  0
  1 19  1  1  0  0  0
  1  5  1  0  0  0  0
  2 13  1  0  0  0  0
  2 16  1  0  0  0  0
  4 12  1  6  0  0  0
  4  1  1  0  0  0  0
  5 11  1  0  0  0  0
  7 15  1  6  0  0  0
  7  9  1  0  0  0  0
  8  6  2  0  0  0  0
  8 11  1  0  0  0  0
  9 14  1  6  0  0  0
 10  3  1  0  0  0  0
 11 28  1  1  0  0  0
 12  8  1  0  0  0  0
 17 20  1  0  0  0  0
 17  3  1  1  0  0  0
 17 26  1  0  0  0  0
 18 13  2  0  0  0  0
 19  2  2  0  0  0  0
 20  4  1  0  0  0  0
 21 10  2  0  0  0  0
 22 10  1  0  0  0  0
 22 20  1  0  0  0  0
 22  9  1  0  0  0  0
 23 15  1  0  0  0  0
 23 14  1  0  0  0  0
 24 27  1  0  0  0  0
 25 18  1  0  0  0  0
 26 25  2  0  0  0  0
 26 19  1  0  0  0  0
 27  7  1  0  0  0  0
 27 12  1  0  0  0  0
 28 30  2  0  0  0  0
 30 29  1  0  0  0  0
M  END
>  <MODEL>
5

>  <REMARK>
 VINA RESULT:      -3.6     11.655     14.965
  Name = 
  1 active torsions:
  status: ('A' for Active; 'I' for Inactive)
    1  A    between atoms: C_11  and  C_28
                            x       y       z     vdW  Elec       q    Type
                         _______ _______ _______ _____ _____    ______ ____

>  <TORSDO>
F 1

$$$$
=
 OpenBabel11122412433D

 30 35  0  0  1  0  0  0  0  0999 V2000
  160.7630  213.6140  149.0430 C   0  0  2  0  0  3  0  0  0  0  0  0
  159.5770  212.8880  151.1960 C   0  0  0  0  0  0  0  0  0  0  0  0
  157.0850  213.8750  147.2520 O   0  0  0  0  0  0  0  0  0  0  0  0
  160.4460  213.3810  147.5560 C   0  0  2  0  0  3  0  0  0  0  0  0
  161.9240  212.9500  149.5610 O   0  0  0  0  0  0  0  0  0  0  0  0
  163.7050  212.2050  146.6180 O   0  0  0  0  0  0  0  0  0  0  0  0
  161.0110  213.3550  144.4370 C   0  0  1  0  0  3  0  0  0  0  0  0
  162.7040  212.5390  147.3060 C   0  0  0  0  0  0  0  0  0  0  0  0
  159.5820  212.9720  144.8230 C   0  0  2  0  0  3  0  0  0  0  0  0
  157.4250  213.6930  145.9320 C   0  0  0  0  0  0  0  0  0  0  0  0
  162.5150  211.9930  148.6880 C   0  0  2  0  0  3  0  0  0  0  0  0
  161.6910  213.4100  146.7930 N   0  0  0  0  0  0  0  0  0  0  0  0
  158.4060  212.7560  151.9460 C   0  0  0  0  0  3  0  0  0  0  0  0
  158.9430  212.7920  143.4650 C   0  0  0  0  0  2  0  0  0  0  0  0
  160.9460  214.1190  143.2010 N   0  0  0  0  0  2  0  0  0  0  0  0
  160.7490  212.5230  151.7720 F   0  0  0  0  0  0  0  0  0  0  0  0
  158.1510  214.4480  147.9840 C   0  0  2  0  0  3  0  0  0  0  0  0
  157.1800  213.1490  151.4150 C   0  0  0  0  0  3  0  0  0  0  0  0
  159.5250  213.4030  149.8800 C   0  0  0  0  0  0  0  0  0  0  0  0
  159.3930  214.3830  147.0520 C   0  0  2  0  0  3  0  0  0  0  0  0
  156.5890  213.3100  145.0710 O   0  0  0  0  0  0  0  0  0  0  0  0
  158.8330  214.0670  145.6320 C   0  0  1  0  0  3  0  0  0  0  0  0
  159.7400  213.6690  142.5150 C   0  0  0  0  0  2  0  0  0  0  0  0
  163.1010  214.3310  145.1260 O   0  0  0  0  0  1  0  0  0  0  0  0
  157.1180  213.6810  150.1280 C   0  0  0  0  0  3  0  0  0  0  0  0
  158.2760  213.8100  149.3510 C   0  0  0  0  0  0  0  0  0  0  0  0
  161.7750  214.1190  145.5120 C   0  0  1  0  0  3  0  0  0  0  0  0
  161.7360  210.7130  148.6650 C   0  0  0  0  0  3  0  0  0  0  0  0
  161.5690  208.2780  148.6240 C   0  0  0  0  0  1  0  0  0  0  0  0
  162.3590  209.5390  148.6410 C   0  0  0  0  0  3  0  0  0  0  0  0
  1  5  1  1  0  0  0
  1 19  1  0  0  0  0
  2 16  1  0  0  0  0
  2 13  1  0  0  0  0
  4 12  1  6  0  0  0
  4  1  1  0  0  0  0
  6  8  2  0  0  0  0
  7 15  1  6  0  0  0
  7  9  1  0  0  0  0
  7 27  1  0  0  0  0
  8 11  1  0  0  0  0
  9 14  1  6  0  0  0
  9 22  1  0  0  0  0
 10  3  1  0  0  0  0
 11 28  1  6  0  0  0
 11  5  1  0  0  0  0
 12  8  1  0  0  0  0
 17  3  1  6  0  0  0
 17 26  1  0  0  0  0
 18 13  2  0  0  0  0
 19  2  2  0  0  0  0
 20  4  1  0  0  0  0
 20 17  1  0  0  0  0
 21 10  2  0  0  0  0
 22 10  1  0  0  0  0
 22 20  1  0  0  0  0
 23 15  1  0  0  0  0
 23 14  1  0  0  0  0
 24 27  1  0  0  0  0
 25 18  1  0  0  0  0
 26 19  1  0  0  0  0
 26 25  2  0  0  0  0
 27 12  1  0  0  0  0
 29 30  1  0  0  0  0
 30 28  2  0  0  0  0
M  END
>  <MODEL>
6

>  <REMARK>
 VINA RESULT:      -3.4      5.136      8.585
  Name = 
  1 active torsions:
  status: ('A' for Active; 'I' for Inactive)
    1  A    between atoms: C_11  and  C_28
                            x       y       z     vdW  Elec       q    Type
                         _______ _______ _______ _____ _____    ______ ____

>  <TORSDO>
F 1

$$$$
=
 OpenBabel11122412433D

 30 35  0  0  1  0  0  0  0  0999 V2000
  161.4110  211.8060  151.3810 C   0  0  2  0  0  3  0  0  0  0  0  0
  160.9780  213.5640  149.5670 C   0  0  0  0  0  0  0  0  0  0  0  0
  162.0150  209.0580  148.4000 O   0  0  0  0  0  0  0  0  0  0  0  0
  161.1250  210.2960  151.4510 C   0  0  2  0  0  3  0  0  0  0  0  0
  160.6420  212.6440  152.2550 O   0  0  0  0  0  0  0  0  0  0  0  0
  159.4940  210.3320  154.6480 O   0  0  0  0  0  0  0  0  0  0  0  0
  160.8300  207.4600  152.8330 C   0  0  1  0  0  3  0  0  0  0  0  0
  159.9930  210.7060  153.5540 C   0  0  0  0  0  0  0  0  0  0  0  0
  160.6540  207.4430  151.3140 C   0  0  2  0  0  3  0  0  0  0  0  0
  161.7080  207.8900  149.0570 C   0  0  0  0  0  0  0  0  0  0  0  0
  159.5650  211.9960  152.9230 C   0  0  2  0  0  3  0  0  0  0  0  0
  160.9490  209.9090  152.8480 N   0  0  0  0  0  0  0  0  0  0  0  0
  161.0420  213.9630  148.2300 C   0  0  0  0  0  3  0  0  0  0  0  0
  160.4680  205.9670  151.0490 C   0  0  0  0  0  2  0  0  0  0  0  0
  161.5140  206.2330  153.2110 N   0  0  0  0  0  2  0  0  0  0  0  0
  160.5080  214.4530  150.4760 F   0  0  0  0  0  0  0  0  0  0  0  0
  162.4960  210.0420  149.2960 C   0  0  2  0  0  3  0  0  0  0  0  0
  161.5500  213.1020  147.2600 C   0  0  0  0  0  3  0  0  0  0  0  0
  161.4110  212.2720  149.9450 C   0  0  0  0  0  0  0  0  0  0  0  0
  162.2160  209.4930  150.7230 C   0  0  2  0  0  3  0  0  0  0  0  0
  161.3780  206.8420  148.4420 O   0  0  0  0  0  0  0  0  0  0  0  0
  161.8830  207.9820  150.5310 C   0  0  1  0  0  3  0  0  0  0  0  0
  161.1760  205.2520  152.1870 C   0  0  0  0  0  2  0  0  0  0  0  0
  161.5790  208.6750  154.7710 O   0  0  0  0  0  1  0  0  0  0  0  0
  162.0030  211.8350  147.6240 C   0  0  0  0  0  3  0  0  0  0  0  0
  161.9360  211.4060  148.9560 C   0  0  0  0  0  0  0  0  0  0  0  0
  161.5590  208.6830  153.3740 C   0  0  1  0  0  3  0  0  0  0  0  0
  158.3930  211.7920  152.0110 C   0  0  0  0  0  3  0  0  0  0  0  0
  156.7540  212.5760  150.3810 C   0  0  0  0  0  1  0  0  0  0  0  0
  157.9140  212.7980  151.2860 C   0  0  0  0  0  3  0  0  0  0  0  0
  1 19  1  6  0  0  0
  1  4  1  0  0  0  0
  1  5  1  0  0  0  0
  2 19  1  0  0  0  0
  2 16  1  0  0  0  0
  3 10  1  0  0  0  0
  4 12  1  1  0  0  0
  5 11  1  0  0  0  0
  7 15  1  6  0  0  0
  7 27  1  0  0  0  0
  8  6  2  0  0  0  0
  9 14  1  6  0  0  0
  9  7  1  0  0  0  0
 10 22  1  0  0  0  0
 11 28  1  6  0  0  0
 11  8  1  0  0  0  0
 12 27  1  0  0  0  0
 12  8  1  0  0  0  0
 13  2  2  0  0  0  0
 14 23  1  0  0  0  0
 17  3  1  6  0  0  0
 17 20  1  0  0  0  0
 18 25  2  0  0  0  0
 18 13  1  0  0  0  0
 20  4  1  0  0  0  0
 21 10  2  0  0  0  0
 22 20  1  0  0  0  0
 22  9  1  0  0  0  0
 23 15  1  0  0  0  0
 25 26  1  0  0  0  0
 26 17  1  0  0  0  0
 26 19  2  0  0  0  0
 27 24  1  0  0  0  0
 29 30  1  0  0  0  0
 30 28  2  0  0  0  0
M  END
>  <MODEL>
7

>  <REMARK>
 VINA RESULT:      -3.2      3.467      4.978
  Name = 
  1 active torsions:
  status: ('A' for Active; 'I' for Inactive)
    1  A    between atoms: C_11  and  C_28
                            x       y       z     vdW  Elec       q    Type
                         _______ _______ _______ _____ _____    ______ ____

>  <TORSDO>
F 1

$$$$
=
 OpenBabel11122412433D

 30 35  0  0  1  0  0  0  0  0999 V2000
  162.2340  209.2510  151.7070 C   0  0  2  0  0  3  0  0  0  0  0  0
  162.1440  206.9610  152.8530 C   0  0  0  0  0  0  0  0  0  0  0  0
  159.1570  210.4500  154.1350 O   0  0  0  0  0  0  0  0  0  0  0  0
  161.1460  210.2850  151.3690 C   0  0  2  0  0  3  0  0  0  0  0  0
  162.8400  208.5750  150.5960 O   0  0  0  0  0  0  0  0  0  0  0  0
  162.0440  210.7200  147.9220 O   0  0  0  0  0  0  0  0  0  0  0  0
  159.9150  212.8550  149.9820 C   0  0  1  0  0  3  0  0  0  0  0  0
  161.9540  210.2470  149.0850 C   0  0  0  0  0  0  0  0  0  0  0  0
  158.9810  212.1660  150.9770 C   0  0  2  0  0  3  0  0  0  0  0  0
  158.5990  211.4500  153.3740 C   0  0  0  0  0  0  0  0  0  0  0  0
  162.2110  208.7930  149.3380 C   0  0  2  0  0  3  0  0  0  0  0  0
  161.5660  211.0540  150.2020 N   0  0  0  0  0  0  0  0  0  0  0  0
  161.7040  206.1500  153.9020 C   0  0  0  0  0  3  0  0  0  0  0  0
  157.7860  213.0900  150.9550 C   0  0  0  0  0  2  0  0  0  0  0  0
  159.6980  214.2890  150.0920 N   0  0  0  0  0  2  0  0  0  0  0  0
  162.9610  206.4110  151.9220 F   0  0  0  0  0  0  0  0  0  0  0  0
  160.5380  210.3050  153.8630 C   0  0  2  0  0  3  0  0  0  0  0  0
  160.8910  206.6730  154.9050 C   0  0  0  0  0  3  0  0  0  0  0  0
  161.7490  208.3170  152.7890 C   0  0  0  0  0  0  0  0  0  0  0  0
  160.8140  211.1570  152.5930 C   0  0  2  0  0  3  0  0  0  0  0  0
  157.4110  211.8340  153.5380 O   0  0  0  0  0  0  0  0  0  0  0  0
  159.5580  212.0620  152.4160 C   0  0  1  0  0  3  0  0  0  0  0  0
  158.3250  214.4520  150.5550 C   0  0  0  0  0  2  0  0  0  0  0  0
  162.1590  213.0890  149.1400 O   0  0  0  0  0  1  0  0  0  0  0  0
  160.5150  208.0140  154.8670 C   0  0  0  0  0  3  0  0  0  0  0  0
  160.9310  208.8440  153.8170 C   0  0  0  0  0  0  0  0  0  0  0  0
  161.3890  212.5090  150.1530 C   0  0  1  0  0  3  0  0  0  0  0  0
  160.9550  207.9870  149.2030 C   0  0  0  0  0  3  0  0  0  0  0  0
  159.7330  205.8760  149.1200 C   0  0  0  0  0  1  0  0  0  0  0  0
  160.9910  206.6590  149.2510 C   0  0  0  0  0  3  0  0  0  0  0  0
  1  5  1  6  0  0  0
  1 19  1  0  0  0  0
  2 13  1  0  0  0  0
  4 12  1  6  0  0  0
  4  1  1  0  0  0  0
  4 20  1  0  0  0  0
  6  8  2  0  0  0  0
  7 15  1  1  0  0  0
  7 27  1  0  0  0  0
  7  9  1  0  0  0  0
  8 11  1  0  0  0  0
  8 12  1  0  0  0  0
  9 14  1  1  0  0  0
  9 22  1  0  0  0  0
 10 21  2  0  0  0  0
 10  3  1  0  0  0  0
 11 28  1  1  0  0  0
 11  5  1  0  0  0  0
 13 18  2  0  0  0  0
 15 23  1  0  0  0  0
 16  2  1  0  0  0  0
 17 26  1  6  0  0  0
 17  3  1  0  0  0  0
 19  2  2  0  0  0  0
 19 26  1  0  0  0  0
 20 17  1  0  0  0  0
 22 20  1  0  0  0  0
 22 10  1  0  0  0  0
 23 14  1  0  0  0  0
 24 27  1  0  0  0  0
 25 18  1  0  0  0  0
 26 25  2  0  0  0  0
 27 12  1  0  0  0  0
 28 30  2  0  0  0  0
 29 30  1  0  0  0  0
M  END
>  <MODEL>
8

>  <REMARK>
 VINA RESULT:      -3.2      3.746      7.406
  Name = 
  1 active torsions:
  status: ('A' for Active; 'I' for Inactive)
    1  A    between atoms: C_11  and  C_28
                            x       y       z     vdW  Elec       q    Type
                         _______ _______ _______ _____ _____    ______ ____

>  <TORSDO>
F 1

$$$$
=
 OpenBabel11122412433D

 30 35  0  0  1  0  0  0  0  0999 V2000
  160.7920  213.9880  147.5370 C   0  0  2  0  0  3  0  0  0  0  0  0
  158.9060  213.5810  149.2230 C   0  0  0  0  0  0  0  0  0  0  0  0
  158.0100  213.6920  144.5410 O   0  0  0  0  0  0  0  0  0  0  0  0
  161.0330  213.4760  146.1070 C   0  0  2  0  0  3  0  0  0  0  0  0
  161.6850  213.5030  148.5490 O   0  0  0  0  0  0  0  0  0  0  0  0
  164.4050  212.3640  146.6270 O   0  0  0  0  0  0  0  0  0  0  0  0
  162.6850  212.9340  143.4570 C   0  0  1  0  0  3  0  0  0  0  0  0
  163.2250  212.7490  146.8390 C   0  0  0  0  0  0  0  0  0  0  0  0
  161.2110  212.5350  143.3750 C   0  0  2  0  0  3  0  0  0  0  0  0
  158.8020  213.3020  143.4880 C   0  0  0  0  0  0  0  0  0  0  0  0
  162.5470  212.4460  148.1400 C   0  0  2  0  0  3  0  0  0  0  0  0
  162.4690  213.4490  145.8460 N   0  0  0  0  0  0  0  0  0  0  0  0
  157.5430  213.5100  149.5190 C   0  0  0  0  0  3  0  0  0  0  0  0
  161.1050  212.0760  141.9390 C   0  0  0  0  0  2  0  0  0  0  0  0
  163.0740  213.4610  142.1580 N   0  0  0  0  0  2  0  0  0  0  0  0
  159.7880  213.4000  150.2360 F   0  0  0  0  0  0  0  0  0  0  0  0
  158.7420  214.4530  145.4830 C   0  0  2  0  0  3  0  0  0  0  0  0
  156.5920  213.7230  148.5230 C   0  0  0  0  0  3  0  0  0  0  0  0
  159.3340  213.8510  147.9030 C   0  0  0  0  0  0  0  0  0  0  0  0
  160.2370  214.3030  145.0820 C   0  0  2  0  0  3  0  0  0  0  0  0
  158.3320  212.7190  142.4750 O   0  0  0  0  0  0  0  0  0  0  0  0
  160.2250  213.7060  143.6430 C   0  0  1  0  0  3  0  0  0  0  0  0
  162.1950  212.8200  141.1870 C   0  0  0  0  0  2  0  0  0  0  0  0
  164.3900  214.1490  144.6470 O   0  0  0  0  0  1  0  0  0  0  0  0
  157.0010  214.0130  147.2230 C   0  0  0  0  0  3  0  0  0  0  0  0
  158.3620  214.0760  146.8980 C   0  0  0  0  0  0  0  0  0  0  0  0
  163.0130  213.9230  144.5690 C   0  0  1  0  0  3  0  0  0  0  0  0
  161.8230  211.1350  148.0830 C   0  0  0  0  0  3  0  0  0  0  0  0
  161.5820  208.7680  148.6280 C   0  0  0  0  0  1  0  0  0  0  0  0
  162.3170  210.0600  148.6900 C   0  0  0  0  0  3  0  0  0  0  0  0
  1 19  1  1  0  0  0
  1  5  1  0  0  0  0
  2 13  1  0  0  0  0
  2 16  1  0  0  0  0
  4 12  1  6  0  0  0
  4  1  1  0  0  0  0
  6  8  2  0  0  0  0
  7 15  1  6  0  0  0
  7 27  1  0  0  0  0
  8 11  1  0  0  0  0
  9 14  1  6  0  0  0
  9  7  1  0  0  0  0
  9 22  1  0  0  0  0
 10 22  1  0  0  0  0
 10  3  1  0  0  0  0
 11 28  1  6  0  0  0
 11  5  1  0  0  0  0
 12  8  1  0  0  0  0
 17  3  1  6  0  0  0
 17 26  1  0  0  0  0
 18 13  2  0  0  0  0
 19  2  2  0  0  0  0
 20 17  1  0  0  0  0
 20  4  1  0  0  0  0
 21 10  2  0  0  0  0
 22 20  1  0  0  0  0
 23 14  1  0  0  0  0
 23 15  1  0  0  0  0
 25 18  1  0  0  0  0
 26 25  2  0  0  0  0
 26 19  1  0  0  0  0
 27 24  1  0  0  0  0
 27 12  1  0  0  0  0
 28 30  2  0  0  0  0
 29 30  1  0  0  0  0
M  END
>  <MODEL>
9

>  <REMARK>
 VINA RESULT:      -3.0      6.275      9.413
  Name = 
  1 active torsions:
  status: ('A' for Active; 'I' for Inactive)
    1  A    between atoms: C_11  and  C_28
                            x       y       z     vdW  Elec       q    Type
                         _______ _______ _______ _____ _____    ______ ____

>  <TORSDO>
F 1

$$$$
