=
 OpenBabel11122414263D

 34 40  0  0  1  0  0  0  0  0999 V2000
  161.6870  208.2220  150.3960 C   0  0  0  0  0  0  0  0  0  0  0  0
  161.7500  210.4000  151.6360 C   0  0  0  0  0  3  0  0  0  0  0  0
  161.7980  200.9440  148.4060 N   0  0  0  0  0  2  0  0  0  0  0  0
  161.4650  206.0100  149.4230 C   0  0  0  0  0  0  0  0  0  0  0  0
  160.8580  204.0160  150.7360 C   0  0  0  0  0  0  0  0  0  0  0  0
  161.6720  201.6450  150.7390 C   0  0  0  0  0  2  0  0  0  0  0  0
  161.3170  200.5650  149.7280 C   0  0  0  0  0  2  0  0  0  0  0  0
  160.1910  202.8000  148.0040 C   0  0  0  0  0  2  0  0  0  0  0  0
  161.3050  208.4000  152.7990 C   0  0  0  0  0  0  0  0  0  0  0  0
  160.0560  208.5190  155.7590 C   0  0  0  0  0  2  0  0  0  0  0  0
  160.7900  204.8590  151.8930 N   0  0  0  0  0  2  0  0  0  0  0  0
  161.3680  203.7240  148.2860 C   0  0  0  0  0  2  0  0  0  0  0  0
  161.0060  207.0910  152.9620 C   0  0  0  0  0  0  0  0  0  0  0  0
  161.5650  210.7140  152.9180 C   0  0  0  0  0  3  0  0  0  0  0  0
  161.1740  204.5570  149.5280 C   0  0  0  0  0  0  0  0  0  0  0  0
  160.6750  201.4080  147.5890 C   0  0  0  0  0  2  0  0  0  0  0  0
  160.0310  209.5410  154.6100 C   0  0  2  0  0  3  0  0  0  0  0  0
  161.4150  206.7840  150.5160 C   0  0  0  0  0  0  0  0  0  0  0  0
  160.4850  202.5740  150.9150 C   0  0  0  0  0  2  0  0  0  0  0  0
  161.0700  206.2320  151.7990 N   0  0  0  0  0  0  0  0  0  0  0  0
  162.0270  207.8710  147.9880 C   0  0  0  0  0  3  0  0  0  0  0  0
  160.9070  207.2720  155.5010 C   0  0  0  0  0  2  0  0  0  0  0  0
  161.7860  206.5980  148.1430 N   0  0  0  0  0  0  0  0  0  0  0  0
  160.4530  206.5310  154.2510 C   0  0  0  0  0  2  0  0  0  0  0  0
  161.3370  209.5060  153.8040 C   0  0  1  0  0  3  0  0  0  0  0  0
  161.9830  208.7650  149.1100 N   0  0  0  0  0  2  0  0  0  0  0  0
  161.6230  208.9620  151.5020 C   0  0  0  0  0  0  0  0  0  0  0  0
  159.7600  210.8960  155.1860 C   0  0  0  0  0  3  0  0  0  0  0  0
  158.5860  211.2020  155.6070 N   0  0  0  0  0  0  0  0  0  0  0  0
  158.5520  214.1680  154.4960 O   0  0  0  0  0  0  0  0  0  0  0  0
  156.9520  212.9680  155.7520 C   0  0  0  0  0  2  0  0  0  0  0  0
  158.3210  212.5040  156.1630 C   0  0  2  0  0  3  0  0  0  0  0  0
  157.2160  214.1980  154.9180 C   0  0  0  0  0  2  0  0  0  0  0  0
  159.2450  213.5170  155.5270 C   0  0  0  0  0  2  0  0  0  0  0  0
  1 18  1  0  0  0  0
  1 27  2  0  0  0  0
  2 14  2  0  0  0  0
  3  7  1  0  0  0  0
  4 15  1  0  0  0  0
  4 18  2  0  0  0  0
  5 19  1  0  0  0  0
  5 11  1  0  0  0  0
  6 19  1  0  0  0  0
  7  6  1  0  0  0  0
  8 12  1  0  0  0  0
  9 13  2  0  0  0  0
  9 25  1  0  0  0  0
 12 15  1  0  0  0  0
 13 24  1  0  0  0  0
 15  5  2  0  0  0  0
 16  8  1  0  0  0  0
 16  3  1  0  0  0  0
 17 28  1  1  0  0  0
 17 10  1  0  0  0  0
 18 20  1  0  0  0  0
 20 11  1  0  0  0  0
 20 13  1  0  0  0  0
 21 23  2  0  0  0  0
 21 26  1  0  0  0  0
 22 10  1  0  0  0  0
 23  4  1  0  0  0  0
 24 22  1  0  0  0  0
 25 14  1  6  0  0  0
 25 17  1  0  0  0  0
 26  1  1  0  0  0  0
 27  2  1  0  0  0  0
 27  9  1  0  0  0  0
 28 29  2  0  0  0  0
 30 33  1  0  0  0  0
 30 34  1  0  0  0  0
 31 32  1  0  0  0  0
 32 29  1  6  0  0  0
 33 31  1  0  0  0  0
 34 32  1  0  0  0  0
M  END
>  <MODEL>
1

>  <REMARK>
 VINA RESULT:      -8.8      0.000      0.000
  Name = 
  2 active torsions:
  status: ('A' for Active; 'I' for Inactive)
    1  A    between atoms: C_17  and  C_28
    2  A    between atoms: N_29  and  C_32
                            x       y       z     vdW  Elec       q    Type
                         _______ _______ _______ _____ _____    ______ ____

>  <TORSDO>
F 2

$$$$
=
 OpenBabel11122414263D

 34 40  0  0  1  0  0  0  0  0999 V2000
  161.8120  206.8920  148.4440 C   0  0  0  0  0  0  0  0  0  0  0  0
  162.0620  208.9640  149.8330 C   0  0  0  0  0  3  0  0  0  0  0  0
  161.5560  199.7950  145.8940 N   0  0  0  0  0  2  0  0  0  0  0  0
  161.4370  204.7660  147.3350 C   0  0  0  0  0  0  0  0  0  0  0  0
  160.9550  202.6790  148.5520 C   0  0  0  0  0  0  0  0  0  0  0  0
  161.7220  200.3090  148.2730 C   0  0  0  0  0  2  0  0  0  0  0  0
  161.2290  199.3150  147.2310 C   0  0  0  0  0  2  0  0  0  0  0  0
  159.9460  201.6900  145.8340 C   0  0  0  0  0  2  0  0  0  0  0  0
  161.7220  206.8810  150.8820 C   0  0  0  0  0  0  0  0  0  0  0  0
  160.8380  206.7750  153.9710 C   0  0  0  0  0  2  0  0  0  0  0  0
  161.0410  203.4280  149.7710 N   0  0  0  0  0  2  0  0  0  0  0  0
  161.1650  202.5790  146.0430 C   0  0  0  0  0  2  0  0  0  0  0  0
  161.4220  205.5660  150.9770 C   0  0  0  0  0  0  0  0  0  0  0  0
  162.0360  209.1770  151.1490 C   0  0  0  0  0  3  0  0  0  0  0  0
  161.1350  203.3120  147.3610 C   0  0  0  0  0  0  0  0  0  0  0  0
  160.3530  200.3320  145.2570 C   0  0  0  0  0  2  0  0  0  0  0  0
  160.6940  207.8850  152.9160 C   0  0  2  0  0  3  0  0  0  0  0  0
  161.5320  205.4510  148.4840 C   0  0  0  0  0  0  0  0  0  0  0  0
  160.5810  201.2310  148.6620 C   0  0  0  0  0  2  0  0  0  0  0  0
  161.3320  204.8020  149.7520 N   0  0  0  0  0  0  0  0  0  0  0  0
  161.8570  206.7310  145.9930 C   0  0  0  0  0  3  0  0  0  0  0  0
  161.6300  205.5460  153.5160 C   0  0  0  0  0  2  0  0  0  0  0  0
  161.6140  205.4510  146.0760 N   0  0  0  0  0  0  0  0  0  0  0  0
  161.0170  204.9100  152.2760 C   0  0  0  0  0  2  0  0  0  0  0  0
  161.8950  207.9040  151.9600 C   0  0  1  0  0  3  0  0  0  0  0  0
  161.9630  207.5330  147.1780 N   0  0  0  0  0  2  0  0  0  0  0  0
  161.8940  207.5420  149.6040 C   0  0  0  0  0  0  0  0  0  0  0  0
  160.5180  209.1930  153.6250 C   0  0  0  0  0  3  0  0  0  0  0  0
  161.1970  209.4590  154.6810 N   0  0  0  0  0  0  0  0  0  0  0  0
  158.8000  210.9470  156.1210 O   0  0  0  0  0  0  0  0  0  0  0  0
  160.9990  210.4900  156.8510 C   0  0  0  0  0  2  0  0  0  0  0  0
  161.0310  210.7150  155.3650 C   0  0  2  0  0  3  0  0  0  0  0  0
  159.6160  210.9340  157.2610 C   0  0  0  0  0  2  0  0  0  0  0  0
  159.6590  211.2720  155.0620 C   0  0  0  0  0  2  0  0  0  0  0  0
  1 18  1  0  0  0  0
  1 27  2  0  0  0  0
  2 14  2  0  0  0  0
  3  7  1  0  0  0  0
  4 15  1  0  0  0  0
  4 18  2  0  0  0  0
  5 19  1  0  0  0  0
  5 11  1  0  0  0  0
  6 19  1  0  0  0  0
  7  6  1  0  0  0  0
  8 12  1  0  0  0  0
  9 13  2  0  0  0  0
  9 25  1  0  0  0  0
 12 15  1  0  0  0  0
 13 24  1  0  0  0  0
 15  5  2  0  0  0  0
 16  8  1  0  0  0  0
 16  3  1  0  0  0  0
 17 28  1  1  0  0  0
 17 10  1  0  0  0  0
 18 20  1  0  0  0  0
 20 11  1  0  0  0  0
 20 13  1  0  0  0  0
 21 23  2  0  0  0  0
 21 26  1  0  0  0  0
 22 10  1  0  0  0  0
 23  4  1  0  0  0  0
 24 22  1  0  0  0  0
 25 14  1  6  0  0  0
 25 17  1  0  0  0  0
 26  1  1  0  0  0  0
 27  2  1  0  0  0  0
 27  9  1  0  0  0  0
 28 29  2  0  0  0  0
 30 33  1  0  0  0  0
 31 33  1  0  0  0  0
 32 29  1  6  0  0  0
 32 31  1  0  0  0  0
 34 32  1  0  0  0  0
 34 30  1  0  0  0  0
M  END
>  <MODEL>
2

>  <REMARK>
 VINA RESULT:      -8.7      1.940      2.784
  Name = 
  2 active torsions:
  status: ('A' for Active; 'I' for Inactive)
    1  A    between atoms: C_17  and  C_28
    2  A    between atoms: N_29  and  C_32
                            x       y       z     vdW  Elec       q    Type
                         _______ _______ _______ _____ _____    ______ ____

>  <TORSDO>
F 2

$$$$
=
 OpenBabel11122414263D

 34 40  0  0  1  0  0  0  0  0999 V2000
  161.8810  206.9350  148.4440 C   0  0  0  0  0  0  0  0  0  0  0  0
  162.1410  209.0110  149.8250 C   0  0  0  0  0  3  0  0  0  0  0  0
  161.5570  199.8290  145.9280 N   0  0  0  0  0  2  0  0  0  0  0  0
  161.4900  204.8090  147.3410 C   0  0  0  0  0  0  0  0  0  0  0  0
  160.9620  202.7360  148.5620 C   0  0  0  0  0  0  0  0  0  0  0  0
  161.6990  200.3540  148.3060 C   0  0  0  0  0  2  0  0  0  0  0  0
  161.2060  199.3620  147.2630 C   0  0  0  0  0  2  0  0  0  0  0  0
  159.9760  201.7460  145.8360 C   0  0  0  0  0  2  0  0  0  0  0  0
  161.7580  206.9400  150.8800 C   0  0  0  0  0  0  0  0  0  0  0  0
  160.8310  206.8630  153.9570 C   0  0  0  0  0  2  0  0  0  0  0  0
  161.0420  203.4900  149.7790 N   0  0  0  0  0  2  0  0  0  0  0  0
  161.2040  202.6190  146.0570 C   0  0  0  0  0  2  0  0  0  0  0  0
  161.4380  205.6300  150.9780 C   0  0  0  0  0  0  0  0  0  0  0  0
  162.1010  209.2320  151.1390 C   0  0  0  0  0  3  0  0  0  0  0  0
  161.1670  203.3600  147.3700 C   0  0  0  0  0  0  0  0  0  0  0  0
  160.3710  200.3790  145.2720 C   0  0  0  0  0  2  0  0  0  0  0  0
  160.7170  207.9700  152.8950 C   0  0  2  0  0  3  0  0  0  0  0  0
  161.5790  205.5000  148.4870 C   0  0  0  0  0  0  0  0  0  0  0  0
  160.5660  201.2940  148.6750 C   0  0  0  0  0  2  0  0  0  0  0  0
  161.3540  204.8600  149.7550 N   0  0  0  0  0  0  0  0  0  0  0  0
  161.9560  206.7610  145.9940 C   0  0  0  0  0  3  0  0  0  0  0  0
  161.6110  205.6200  153.5200 C   0  0  0  0  0  2  0  0  0  0  0  0
  161.6930  205.4850  146.0810 N   0  0  0  0  0  0  0  0  0  0  0  0
  161.0060  204.9860  152.2750 C   0  0  0  0  0  2  0  0  0  0  0  0
  161.9300  207.9660  151.9540 C   0  0  1  0  0  3  0  0  0  0  0  0
  162.0580  207.5670  147.1760 N   0  0  0  0  0  2  0  0  0  0  0  0
  161.9560  207.5910  149.6010 C   0  0  0  0  0  0  0  0  0  0  0  0
  160.5500  209.2840  153.5940 C   0  0  0  0  0  3  0  0  0  0  0  0
  159.7130  210.1530  153.1560 N   0  0  0  0  0  0  0  0  0  0  0  0
  158.2100  212.8670  152.5180 O   0  0  0  0  0  0  0  0  0  0  0  0
  158.1790  211.4960  154.4410 C   0  0  0  0  0  2  0  0  0  0  0  0
  159.5480  211.4170  153.8260 C   0  0  2  0  0  3  0  0  0  0  0  0
  157.5140  212.6400  153.7130 C   0  0  0  0  0  2  0  0  0  0  0  0
  159.5410  212.5290  152.8010 C   0  0  0  0  0  2  0  0  0  0  0  0
  1 18  1  0  0  0  0
  1 27  2  0  0  0  0
  2 14  2  0  0  0  0
  3  7  1  0  0  0  0
  4 15  1  0  0  0  0
  4 18  2  0  0  0  0
  5 19  1  0  0  0  0
  5 11  1  0  0  0  0
  6 19  1  0  0  0  0
  7  6  1  0  0  0  0
  8 12  1  0  0  0  0
  9 13  2  0  0  0  0
  9 25  1  0  0  0  0
 12 15  1  0  0  0  0
 13 24  1  0  0  0  0
 15  5  2  0  0  0  0
 16  8  1  0  0  0  0
 16  3  1  0  0  0  0
 17 28  1  1  0  0  0
 17 10  1  0  0  0  0
 18 20  1  0  0  0  0
 20 11  1  0  0  0  0
 20 13  1  0  0  0  0
 21 23  2  0  0  0  0
 21 26  1  0  0  0  0
 22 10  1  0  0  0  0
 23  4  1  0  0  0  0
 24 22  1  0  0  0  0
 25 14  1  6  0  0  0
 25 17  1  0  0  0  0
 26  1  1  0  0  0  0
 27  2  1  0  0  0  0
 27  9  1  0  0  0  0
 29 28  2  0  0  0  0
 30 34  1  0  0  0  0
 30 33  1  0  0  0  0
 32 29  1  6  0  0  0
 32 31  1  0  0  0  0
 33 31  1  0  0  0  0
 34 32  1  0  0  0  0
M  END
>  <MODEL>
3

>  <REMARK>
 VINA RESULT:      -8.4      1.753      2.502
  Name = 
  2 active torsions:
  status: ('A' for Active; 'I' for Inactive)
    1  A    between atoms: C_17  and  C_28
    2  A    between atoms: N_29  and  C_32
                            x       y       z     vdW  Elec       q    Type
                         _______ _______ _______ _____ _____    ______ ____

>  <TORSDO>
F 2

$$$$
=
 OpenBabel11122414263D

 34 40  0  0  1  0  0  0  0  0999 V2000
  160.9640  207.5420  153.9100 C   0  0  0  0  0  0  0  0  0  0  0  0
  162.1560  205.9140  152.4220 C   0  0  0  0  0  3  0  0  0  0  0  0
  158.2180  213.7230  157.2540 N   0  0  0  0  0  2  0  0  0  0  0  0
  159.7460  209.2680  155.1030 C   0  0  0  0  0  0  0  0  0  0  0  0
  159.2820  211.4920  154.1500 C   0  0  0  0  0  0  0  0  0  0  0  0
  159.3430  213.8140  155.0920 C   0  0  0  0  0  2  0  0  0  0  0  0
  158.2980  214.4520  155.9950 C   0  0  0  0  0  2  0  0  0  0  0  0
  157.1640  211.6560  156.3580 C   0  0  0  0  0  2  0  0  0  0  0  0
  161.7610  208.1140  151.6770 C   0  0  0  0  0  0  0  0  0  0  0  0
  162.0540  208.8180  148.5540 C   0  0  0  0  0  2  0  0  0  0  0  0
  159.9690  211.0730  152.9640 N   0  0  0  0  0  2  0  0  0  0  0  0
  158.5430  211.0260  156.5130 C   0  0  0  0  0  2  0  0  0  0  0  0
  161.2290  209.3570  151.6830 C   0  0  0  0  0  0  0  0  0  0  0  0
  162.6570  206.0160  151.1900 C   0  0  0  0  0  3  0  0  0  0  0  0
  159.1560  210.6290  155.1940 C   0  0  0  0  0  0  0  0  0  0  0  0
  157.0190  212.8830  157.2610 C   0  0  0  0  0  2  0  0  0  0  0  0
  161.7920  207.4820  149.2680 C   0  0  2  0  0  3  0  0  0  0  0  0
  160.4010  208.8950  153.9950 C   0  0  2  0  0  3  0  0  0  0  0  0
  158.6590  212.8560  154.1350 C   0  0  0  0  0  2  0  0  0  0  0  0
  160.5330  209.7890  152.8760 N   0  0  0  0  0  0  0  0  0  0  0  0
  160.0820  207.1240  156.1650 C   0  0  0  0  0  3  0  0  0  0  0  0
  162.3310  210.0060  149.4800 C   0  0  0  0  0  2  0  0  0  0  0  0
  159.6050  208.3380  156.1990 N   0  0  0  0  0  0  0  0  0  0  0  0
  161.1850  210.2360  150.4560 C   0  0  0  0  0  2  0  0  0  0  0  0
  162.5360  207.4100  150.6080 C   0  0  1  0  0  3  0  0  0  0  0  0
  160.7860  206.6480  155.0090 N   0  0  0  0  0  0  0  0  0  0  0  0
  161.6030  207.2020  152.7910 C   0  0  0  0  0  0  0  0  0  0  0  0
  162.1820  206.3670  148.3470 C   0  0  0  0  0  3  0  0  0  0  0  0
  162.2030  206.5490  147.0760 N   0  0  0  0  0  0  0  0  0  0  0  0
  161.1120  203.6410  146.4540 O   0  0  0  0  0  0  0  0  0  0  0  0
  161.6390  205.4360  145.0130 C   0  0  0  0  0  2  0  0  0  0  0  0
  162.5780  205.4800  146.1870 C   0  0  2  0  0  3  0  0  0  0  0  0
  160.9580  204.0950  145.1370 C   0  0  0  0  0  2  0  0  0  0  0  0
  162.3480  204.1530  146.8740 C   0  0  0  0  0  2  0  0  0  0  0  0
  1 26  1  0  0  0  0
  2 27  1  0  0  0  0
  3 16  1  0  0  0  0
  4 15  1  0  0  0  0
  4 23  2  0  0  0  0
  5 15  2  0  0  0  0
  6  7  1  0  0  0  0
  7  3  1  0  0  0  0
  8 12  1  0  0  0  0
  8 16  1  0  0  0  0
  9 13  2  0  0  0  0
  9 27  1  0  0  0  0
 10 17  1  0  0  0  0
 10 22  1  0  0  0  0
 11  5  1  0  0  0  0
 13 20  1  0  0  0  0
 14  2  2  0  0  0  0
 15 12  1  0  0  0  0
 17 28  1  6  0  0  0
 17 25  1  0  0  0  0
 18  1  1  6  0  0  0
 18  4  1  0  0  0  0
 19  5  1  0  0  0  0
 19  6  1  0  0  0  0
 20 11  1  0  0  0  0
 20 18  1  0  0  0  0
 21 23  1  0  0  0  0
 22 24  1  0  0  0  0
 24 13  1  0  0  0  0
 25 14  1  1  0  0  0
 25  9  1  0  0  0  0
 26 21  2  0  0  0  0
 27  1  2  0  0  0  0
 29 28  2  0  0  0  0
 30 34  1  0  0  0  0
 31 33  1  0  0  0  0
 31 32  1  0  0  0  0
 32 34  1  0  0  0  0
 32 29  1  1  0  0  0
 33 30  1  0  0  0  0
M  END
>  <MODEL>
4

>  <REMARK>
 VINA RESULT:      -7.8      3.332      9.582
  Name = 
  2 active torsions:
  status: ('A' for Active; 'I' for Inactive)
    1  A    between atoms: C_17  and  C_28
    2  A    between atoms: N_29  and  C_32
                            x       y       z     vdW  Elec       q    Type
                         _______ _______ _______ _____ _____    ______ ____

>  <TORSDO>
F 2

$$$$
=
 OpenBabel11122414263D

 34 40  0  0  1  0  0  0  0  0999 V2000
  161.5610  208.3510  149.7380 C   0  0  0  0  0  0  0  0  0  0  0  0
  161.4770  207.0460  147.5990 C   0  0  0  0  0  3  0  0  0  0  0  0
  160.6600  210.8880  156.7870 N   0  0  0  0  0  2  0  0  0  0  0  0
  161.6660  209.3540  151.9450 C   0  0  0  0  0  0  0  0  0  0  0  0
  161.2070  208.1010  154.0160 C   0  0  0  0  0  0  0  0  0  0  0  0
  159.9570  208.6500  156.1180 C   0  0  0  0  0  2  0  0  0  0  0  0
  160.4480  209.5260  157.2610 C   0  0  0  0  0  2  0  0  0  0  0  0
  162.6590  210.4280  155.3800 C   0  0  0  0  0  2  0  0  0  0  0  0
  160.9370  205.9950  149.6380 C   0  0  0  0  0  0  0  0  0  0  0  0
  160.8310  202.7860  149.8010 C   0  0  0  0  0  2  0  0  0  0  0  0
  160.9740  206.9420  153.2050 N   0  0  0  0  0  2  0  0  0  0  0  0
  161.7120  210.5620  154.1950 C   0  0  0  0  0  2  0  0  0  0  0  0
  160.8390  205.8490  150.9790 C   0  0  0  0  0  0  0  0  0  0  0  0
  161.1770  205.7750  147.3280 C   0  0  0  0  0  3  0  0  0  0  0  0
  161.5530  209.2770  153.4250 C   0  0  0  0  0  0  0  0  0  0  0  0
  162.0930  211.1320  156.6160 C   0  0  0  0  0  2  0  0  0  0  0  0
  161.5610  203.7250  148.8250 C   0  0  2  0  0  3  0  0  0  0  0  0
  161.4280  208.2670  151.1970 C   0  0  0  0  0  0  0  0  0  0  0  0
  161.1380  207.9210  155.5030 C   0  0  0  0  0  2  0  0  0  0  0  0
  161.0740  207.0130  151.8060 N   0  0  0  0  0  0  0  0  0  0  0  0
  162.1850  210.7110  150.0150 C   0  0  0  0  0  3  0  0  0  0  0  0
  159.9090  203.4830  150.8060 C   0  0  0  0  0  2  0  0  0  0  0  0
  162.0470  210.5920  151.3080 N   0  0  0  0  0  0  0  0  0  0  0  0
  160.6640  204.5050  151.6450 C   0  0  0  0  0  2  0  0  0  0  0  0
  160.7380  204.9910  148.5480 C   0  0  1  0  0  3  0  0  0  0  0  0
  161.9570  209.5900  149.1500 N   0  0  0  0  0  2  0  0  0  0  0  0
  161.3220  207.2510  149.0260 C   0  0  0  0  0  0  0  0  0  0  0  0
  161.8640  202.9640  147.5710 C   0  0  0  0  0  3  0  0  0  0  0  0
  160.9240  202.3820  146.9190 N   0  0  0  0  0  0  0  0  0  0  0  0
  159.9570  199.6430  145.6560 O   0  0  0  0  0  0  0  0  0  0  0  0
  160.0820  201.8140  144.7330 C   0  0  0  0  0  2  0  0  0  0  0  0
  161.2110  201.6510  145.7120 C   0  0  2  0  0  3  0  0  0  0  0  0
  159.5350  200.4170  144.5650 C   0  0  0  0  0  2  0  0  0  0  0  0
  161.2070  200.1690  146.0130 C   0  0  0  0  0  2  0  0  0  0  0  0
  1 18  1  0  0  0  0
  2 27  1  0  0  0  0
  3  7  1  0  0  0  0
  4 15  1  0  0  0  0
  5 19  1  0  0  0  0
  6  7  1  0  0  0  0
  8 16  1  0  0  0  0
  9 13  2  0  0  0  0
 10 22  1  0  0  0  0
 11  5  1  0  0  0  0
 12  8  1  0  0  0  0
 13 24  1  0  0  0  0
 13 20  1  0  0  0  0
 14  2  2  0  0  0  0
 15  5  2  0  0  0  0
 15 12  1  0  0  0  0
 16  3  1  0  0  0  0
 17 28  1  6  0  0  0
 17 10  1  0  0  0  0
 18 20  1  0  0  0  0
 18  4  2  0  0  0  0
 19  6  1  0  0  0  0
 20 11  1  0  0  0  0
 21 23  2  0  0  0  0
 22 24  1  0  0  0  0
 23  4  1  0  0  0  0
 25 14  1  6  0  0  0
 25 17  1  0  0  0  0
 25  9  1  0  0  0  0
 26  1  1  0  0  0  0
 26 21  1  0  0  0  0
 27  9  1  0  0  0  0
 27  1  2  0  0  0  0
 29 28  2  0  0  0  0
 30 34  1  0  0  0  0
 31 32  1  0  0  0  0
 32 34  1  0  0  0  0
 32 29  1  1  0  0  0
 33 31  1  0  0  0  0
 33 30  1  0  0  0  0
M  END
>  <MODEL>
5

>  <REMARK>
 VINA RESULT:      -7.6      3.632      9.299
  Name = 
  2 active torsions:
  status: ('A' for Active; 'I' for Inactive)
    1  A    between atoms: C_17  and  C_28
    2  A    between atoms: N_29  and  C_32
                            x       y       z     vdW  Elec       q    Type
                         _______ _______ _______ _____ _____    ______ ____

>  <TORSDO>
F 2

$$$$
