=
 OpenBabel11122414433D

 34 37  0  0  1  0  0  0  0  0999 V2000
  161.0250  208.0520  152.8390 C   0  0  2  0  0  3  0  0  0  0  0  0
  161.9550  205.8240  152.8830 O   0  0  0  0  0  0  0  0  0  0  0  0
  160.2090  210.4190  152.7870 C   0  0  0  0  0  2  0  0  0  0  0  0
  162.2480  207.0370  150.8300 C   0  0  2  0  0  3  0  0  0  0  0  0
  161.6200  205.7450  148.1830 C   0  0  0  0  0  2  0  0  0  0  0  0
  161.3800  208.0830  150.0810 C   0  0  1  0  0  3  0  0  0  0  0  0
  161.3890  205.0690  151.8480 C   0  0  0  0  0  2  0  0  0  0  0  0
  160.9770  205.3640  149.4320 N   0  0  0  0  0  0  0  0  0  0  0  0
  161.2810  209.4560  152.2940 C   0  0  2  0  0  3  0  0  0  0  0  0
  161.3880  209.4760  150.7600 C   0  0  1  0  0  3  0  0  0  0  0  0
  159.8670  209.0080  154.7700 N   0  0  0  0  0  2  0  0  0  0  0  0
  161.1360  207.1200  147.7610 C   0  0  0  0  0  2  0  0  0  0  0  0
  160.1580  210.3690  154.3140 C   0  0  0  0  0  2  0  0  0  0  0  0
  161.7830  208.1990  148.6120 C   0  0  0  0  0  2  0  0  0  0  0  0
  161.9390  205.5730  150.5260 C   0  0  1  0  0  3  0  0  0  0  0  0
  160.9620  208.1260  154.3640 C   0  0  0  0  0  2  0  0  0  0  0  0
  162.1410  207.1180  152.3640 C   0  0  1  0  0  3  0  0  0  0  0  0
  162.3900  210.3610  150.2940 O   0  0  0  0  0  0  0  0  0  0  0  0
  161.7730  211.5060  149.7620 C   0  0  0  0  0  2  0  0  0  0  0  0
  163.3920  212.2440  148.0090 C   0  0  0  0  0  1  0  0  0  0  0  0
  162.0370  211.5970  148.2690 C   0  0  2  0  0  3  0  0  0  0  0  0
  160.9010  212.3570  147.5810 C   0  0  1  0  0  3  0  0  0  0  0  0
  160.2150  213.1610  148.4950 O   0  0  0  0  0  1  0  0  0  0  0  0
  161.4110  213.2110  146.4260 C   0  0  0  0  0  2  0  0  0  0  0  0
  160.7300  212.8320  145.1210 C   0  0  0  0  0  2  0  0  0  0  0  0
  161.4430  213.3470  144.0370 O   0  0  0  0  0  0  0  0  0  0  0  0
  162.7760  213.3010  144.4420 C   0  0  0  0  0  1  0  0  0  0  0  0
  160.7170  203.9350  149.3050 C   0  0  0  0  0  2  0  0  0  0  0  0
  161.4600  203.4020  148.1760 N   0  0  0  0  0  2  0  0  0  0  0  0
  161.1360  201.9860  148.0770 C   0  0  1  0  0  3  0  0  0  0  0  0
  160.6110  200.7600  150.0850 O   0  0  0  0  0  1  0  0  0  0  0  0
  160.0750  201.5890  149.0980 C   0  0  0  0  0  2  0  0  0  0  0  0
  160.6710  201.5070  146.3690 S   0  0  0  0  0  0  0  0  0  0  0  0
  161.1650  203.0720  145.5810 C   0  0  0  0  0  1  0  0  0  0  0  0
  1 16  1  1  0  0  0
  3 13  1  0  0  0  0
  4 17  1  0  0  0  0
  5  8  1  0  0  0  0
  6 10  1  0  0  0  0
  6  4  1  0  0  0  0
  7  2  1  0  0  0  0
  8 15  1  0  0  0  0
  9  3  1  0  0  0  0
  9  1  1  0  0  0  0
 10  9  1  0  0  0  0
 12  5  1  0  0  0  0
 12 14  1  0  0  0  0
 13 11  1  0  0  0  0
 14  6  1  0  0  0  0
 15  4  1  0  0  0  0
 15  7  1  0  0  0  0
 16 11  1  0  0  0  0
 17  1  1  0  0  0  0
 17  2  1  0  0  0  0
 18 10  1  0  0  0  0
 19 18  1  0  0  0  0
 20 21  1  0  0  0  0
 21 19  1  0  0  0  0
 22 21  1  0  0  0  0
 22 23  1  0  0  0  0
 24 22  1  0  0  0  0
 25 24  1  0  0  0  0
 26 27  1  0  0  0  0
 26 25  1  0  0  0  0
 28  8  1  0  0  0  0
 29 28  1  0  0  0  0
 30 29  1  0  0  0  0
 30 32  1  0  0  0  0
 32 31  1  0  0  0  0
 33 30  1  0  0  0  0
 34 33  1  0  0  0  0
M  END
>  <MODEL>
1

>  <REMARK>
 VINA RESULT:      -6.8      0.000      0.000
  Name = 
  12 active torsions:
  status: ('A' for Active; 'I' for Inactive)
    1  A    between atoms: C_3  and  C_16
    2  A    between atoms: C_3  and  C_19
    3  A    between atoms: C_5  and  O_11
    4  A    between atoms: C_5  and  C_19
    5  A    between atoms: C_8  and  O_12
    6  A    between atoms: C_8  and  C_16
    7  A    between atoms: O_11  and  C_20
    8  A    between atoms: N_17  and  C_28
    9  A    between atoms: C_28  and  N_29
   10  A    between atoms: N_29  and  C_32
   11  A    between atoms: S_31  and  C_32
   12  A    between atoms: C_32  and  C_34
                            x       y       z     vdW  Elec       q    Type
                         _______ _______ _______ _____ _____    ______ ____

>  <TORSDO>
F 12

$$$$
=
 OpenBabel11122414433D

 34 37  0  0  1  0  0  0  0  0999 V2000
  161.1190  207.8730  152.8840 C   0  0  2  0  0  3  0  0  0  0  0  0
  162.0440  205.6430  152.8200 O   0  0  0  0  0  0  0  0  0  0  0  0
  160.3070  210.2410  152.9400 C   0  0  0  0  0  2  0  0  0  0  0  0
  162.2580  206.9210  150.7970 C   0  0  2  0  0  3  0  0  0  0  0  0
  161.5210  205.7150  148.1370 C   0  0  0  0  0  2  0  0  0  0  0  0
  161.3620  207.9910  150.1160 C   0  0  1  0  0  3  0  0  0  0  0  0
  161.4350  204.9220  151.7850 C   0  0  0  0  0  2  0  0  0  0  0  0
  160.9270  205.2960  149.3980 N   0  0  0  0  0  0  0  0  0  0  0  0
  161.3560  209.2930  152.3740 C   0  0  2  0  0  3  0  0  0  0  0  0
  161.4020  209.3620  150.8390 C   0  0  1  0  0  3  0  0  0  0  0  0
  160.0410  208.7680  154.8900 N   0  0  0  0  0  2  0  0  0  0  0  0
  161.0240  207.1030  147.7790 C   0  0  0  0  0  2  0  0  0  0  0  0
  160.3180  210.1430  154.4660 C   0  0  0  0  0  2  0  0  0  0  0  0
  161.7070  208.1540  148.6370 C   0  0  0  0  0  2  0  0  0  0  0  0
  161.9330  205.4680  150.4590 C   0  0  1  0  0  3  0  0  0  0  0  0
  161.1170  207.8980  154.4120 C   0  0  0  0  0  2  0  0  0  0  0  0
  162.2120  206.9530  152.3350 C   0  0  1  0  0  3  0  0  0  0  0  0
  162.3860  210.2600  150.3610 O   0  0  0  0  0  0  0  0  0  0  0  0
  161.7660  211.4730  150.0170 C   0  0  0  0  0  2  0  0  0  0  0  0
  163.2640  212.1180  148.1260 C   0  0  0  0  0  1  0  0  0  0  0  0
  161.8530  211.6990  148.5190 C   0  0  2  0  0  3  0  0  0  0  0  0
  160.8110  212.7320  148.0830 C   0  0  1  0  0  3  0  0  0  0  0  0
  161.0420  213.9640  148.7010 O   0  0  0  0  0  1  0  0  0  0  0  0
  160.7910  212.9110  146.5700 C   0  0  0  0  0  2  0  0  0  0  0  0
  159.3670  212.9740  146.0420 C   0  0  0  0  0  2  0  0  0  0  0  0
  158.4650  212.6010  147.0400 O   0  0  0  0  0  0  0  0  0  0  0  0
  157.2650  212.3850  146.3660 C   0  0  0  0  0  1  0  0  0  0  0  0
  160.6580  203.8710  149.2370 C   0  0  0  0  0  2  0  0  0  0  0  0
  161.5050  203.3310  148.1860 N   0  0  0  0  0  2  0  0  0  0  0  0
  161.1740  201.9200  148.0480 C   0  0  1  0  0  3  0  0  0  0  0  0
  160.6390  200.7970  150.1140 O   0  0  0  0  0  1  0  0  0  0  0  0
  160.0930  201.5070  149.0430 C   0  0  0  0  0  2  0  0  0  0  0  0
  160.7350  201.4840  146.3220 S   0  0  0  0  0  0  0  0  0  0  0  0
  161.1560  203.0980  145.5950 C   0  0  0  0  0  1  0  0  0  0  0  0
  1 16  1  1  0  0  0
  3 13  1  0  0  0  0
  4 17  1  0  0  0  0
  5  8  1  0  0  0  0
  6  4  1  0  0  0  0
  6 10  1  0  0  0  0
  7  2  1  0  0  0  0
  8 15  1  0  0  0  0
  9  1  1  0  0  0  0
  9  3  1  0  0  0  0
 10  9  1  0  0  0  0
 12  5  1  0  0  0  0
 12 14  1  0  0  0  0
 13 11  1  0  0  0  0
 14  6  1  0  0  0  0
 15  4  1  0  0  0  0
 15  7  1  0  0  0  0
 16 11  1  0  0  0  0
 17  2  1  0  0  0  0
 17  1  1  0  0  0  0
 18 10  1  0  0  0  0
 19 18  1  0  0  0  0
 20 21  1  0  0  0  0
 21 19  1  0  0  0  0
 22 21  1  0  0  0  0
 22 23  1  0  0  0  0
 24 22  1  0  0  0  0
 25 24  1  0  0  0  0
 25 26  1  0  0  0  0
 27 26  1  0  0  0  0
 28  8  1  0  0  0  0
 29 28  1  0  0  0  0
 30 29  1  0  0  0  0
 30 32  1  0  0  0  0
 32 31  1  0  0  0  0
 33 30  1  0  0  0  0
 34 33  1  0  0  0  0
M  END
>  <MODEL>
2

>  <REMARK>
 VINA RESULT:      -6.7      0.975      1.320
  Name = 
  12 active torsions:
  status: ('A' for Active; 'I' for Inactive)
    1  A    between atoms: C_3  and  C_16
    2  A    between atoms: C_3  and  C_19
    3  A    between atoms: C_5  and  O_11
    4  A    between atoms: C_5  and  C_19
    5  A    between atoms: C_8  and  O_12
    6  A    between atoms: C_8  and  C_16
    7  A    between atoms: O_11  and  C_20
    8  A    between atoms: N_17  and  C_28
    9  A    between atoms: C_28  and  N_29
   10  A    between atoms: N_29  and  C_32
   11  A    between atoms: S_31  and  C_32
   12  A    between atoms: C_32  and  C_34
                            x       y       z     vdW  Elec       q    Type
                         _______ _______ _______ _____ _____    ______ ____

>  <TORSDO>
F 12

$$$$
=
 OpenBabel11122414433D

 34 37  0  0  1  0  0  0  0  0999 V2000
  161.5450  208.3410  150.2800 C   0  0  2  0  0  3  0  0  0  0  0  0
  162.4250  210.2660  151.4430 O   0  0  0  0  0  0  0  0  0  0  0  0
  160.7700  206.2710  149.1050 C   0  0  0  0  0  2  0  0  0  0  0  0
  161.9750  208.3390  152.8050 C   0  0  2  0  0  3  0  0  0  0  0  0
  160.4480  208.6080  155.3870 C   0  0  0  0  0  2  0  0  0  0  0  0
  160.9010  207.2200  152.7420 C   0  0  1  0  0  3  0  0  0  0  0  0
  161.5270  210.6450  152.4500 C   0  0  0  0  0  2  0  0  0  0  0  0
  160.2870  209.5190  154.2630 N   0  0  0  0  0  0  0  0  0  0  0  0
  161.5960  206.8150  150.2630 C   0  0  2  0  0  3  0  0  0  0  0  0
  161.1530  206.2010  151.6020 C   0  0  1  0  0  3  0  0  0  0  0  0
  161.1480  208.3600  147.8660 N   0  0  0  0  0  2  0  0  0  0  0  0
  159.8500  207.2580  155.0360 C   0  0  0  0  0  2  0  0  0  0  0  0
  161.2630  206.9010  147.8020 C   0  0  0  0  0  2  0  0  0  0  0  0
  160.7590  206.5020  154.0830 C   0  0  0  0  0  2  0  0  0  0  0  0
  161.5750  209.6070  153.5550 C   0  0  1  0  0  3  0  0  0  0  0  0
  162.0260  208.8590  148.9250 C   0  0  0  0  0  2  0  0  0  0  0  0
  162.4180  208.8600  151.4260 C   0  0  1  0  0  3  0  0  0  0  0  0
  161.9270  205.0750  151.9690 O   0  0  0  0  0  0  0  0  0  0  0  0
  161.9830  204.1870  150.8810 C   0  0  0  0  0  2  0  0  0  0  0  0
  160.4620  202.7540  152.2480 C   0  0  0  0  0  1  0  0  0  0  0  0
  160.7450  203.3090  150.8580 C   0  0  2  0  0  3  0  0  0  0  0  0
  160.9110  202.1950  149.8220 C   0  0  1  0  0  3  0  0  0  0  0  0
  159.7870  201.3650  149.7990 O   0  0  0  0  0  1  0  0  0  0  0  0
  161.1680  202.7520  148.4280 C   0  0  0  0  0  2  0  0  0  0  0  0
  160.8590  201.7170  147.3570 C   0  0  0  0  0  2  0  0  0  0  0  0
  161.0060  202.2770  146.0880 O   0  0  0  0  0  0  0  0  0  0  0  0
  160.1780  201.5120  145.2690 C   0  0  0  0  0  1  0  0  0  0  0  0
  159.9950  210.8160  154.8640 C   0  0  0  0  0  2  0  0  0  0  0  0
  158.6280  210.8280  155.3560 N   0  0  0  0  0  2  0  0  0  0  0  0
  157.8110  211.4750  154.3390 C   0  0  1  0  0  3  0  0  0  0  0  0
  155.9630  212.9260  154.8840 O   0  0  0  0  0  1  0  0  0  0  0  0
  156.3570  211.5900  154.7870 C   0  0  0  0  0  2  0  0  0  0  0  0
  158.5100  213.0900  153.8230 S   0  0  0  0  0  0  0  0  0  0  0  0
  158.4390  212.7760  152.0330 C   0  0  0  0  0  1  0  0  0  0  0  0
  1 16  1  6  0  0  0
  1 17  1  0  0  0  0
  2  7  1  0  0  0  0
  3  9  1  0  0  0  0
  4 15  1  0  0  0  0
  6  4  1  0  0  0  0
  6 14  1  0  0  0  0
  7 15  1  0  0  0  0
  8 28  1  0  0  0  0
  8  5  1  0  0  0  0
  9  1  1  0  0  0  0
  9 10  1  0  0  0  0
 10 18  1  0  0  0  0
 10  6  1  0  0  0  0
 11 16  1  0  0  0  0
 12  5  1  0  0  0  0
 13 11  1  0  0  0  0
 13  3  1  0  0  0  0
 14 12  1  0  0  0  0
 15  8  1  0  0  0  0
 17  2  1  0  0  0  0
 17  4  1  0  0  0  0
 19 18  1  0  0  0  0
 21 19  1  0  0  0  0
 21 20  1  0  0  0  0
 22 21  1  0  0  0  0
 23 22  1  0  0  0  0
 24 22  1  0  0  0  0
 25 24  1  0  0  0  0
 26 25  1  0  0  0  0
 27 26  1  0  0  0  0
 28 29  1  0  0  0  0
 30 32  1  0  0  0  0
 30 29  1  0  0  0  0
 32 31  1  0  0  0  0
 33 30  1  0  0  0  0
 34 33  1  0  0  0  0
M  END
>  <MODEL>
3

>  <REMARK>
 VINA RESULT:      -6.4      3.794      8.642
  Name = 
  12 active torsions:
  status: ('A' for Active; 'I' for Inactive)
    1  A    between atoms: C_3  and  C_16
    2  A    between atoms: C_3  and  C_19
    3  A    between atoms: C_5  and  O_11
    4  A    between atoms: C_5  and  C_19
    5  A    between atoms: C_8  and  O_12
    6  A    between atoms: C_8  and  C_16
    7  A    between atoms: O_11  and  C_20
    8  A    between atoms: N_17  and  C_28
    9  A    between atoms: C_28  and  N_29
   10  A    between atoms: N_29  and  C_32
   11  A    between atoms: S_31  and  C_32
   12  A    between atoms: C_32  and  C_34
                            x       y       z     vdW  Elec       q    Type
                         _______ _______ _______ _____ _____    ______ ____

>  <TORSDO>
F 12

$$$$
=
 OpenBabel11122414433D

 34 37  0  0  1  0  0  0  0  0999 V2000
  161.6150  209.1970  151.3210 C   0  0  2  0  0  3  0  0  0  0  0  0
  162.2060  210.9280  152.8980 O   0  0  0  0  0  0  0  0  0  0  0  0
  161.1390  207.3310  149.7210 C   0  0  0  0  0  2  0  0  0  0  0  0
  161.7360  208.7700  153.8440 C   0  0  2  0  0  3  0  0  0  0  0  0
  159.8920  208.5010  156.2100 C   0  0  0  0  0  2  0  0  0  0  0  0
  160.7610  207.6280  153.4520 C   0  0  1  0  0  3  0  0  0  0  0  0
  161.1680  211.0780  153.8270 C   0  0  0  0  0  2  0  0  0  0  0  0
  159.8030  209.5870  155.2450 N   0  0  0  0  0  0  0  0  0  0  0  0
  161.7770  207.7020  151.0530 C   0  0  2  0  0  3  0  0  0  0  0  0
  161.2220  206.8400  152.1990 C   0  0  1  0  0  3  0  0  0  0  0  0
  161.5120  209.6220  148.9140 N   0  0  0  0  0  2  0  0  0  0  0  0
  159.4400  207.2060  155.5610 C   0  0  0  0  0  2  0  0  0  0  0  0
  161.7390  208.2050  148.6200 C   0  0  0  0  0  2  0  0  0  0  0  0
  160.5100  206.6770  154.6210 C   0  0  0  0  0  2  0  0  0  0  0  0
  161.1570  209.8640  154.7380 C   0  0  1  0  0  3  0  0  0  0  0  0
  162.2170  209.9700  150.1480 C   0  0  0  0  0  2  0  0  0  0  0  0
  162.3030  209.5480  152.6430 C   0  0  1  0  0  3  0  0  0  0  0  0
  162.0260  205.7070  152.4690 O   0  0  0  0  0  0  0  0  0  0  0  0
  162.1550  204.9500  151.2920 C   0  0  0  0  0  2  0  0  0  0  0  0
  160.7500  203.1710  152.3400 C   0  0  0  0  0  1  0  0  0  0  0  0
  160.9440  204.0520  151.1120 C   0  0  2  0  0  3  0  0  0  0  0  0
  161.0920  203.2230  149.8340 C   0  0  1  0  0  3  0  0  0  0  0  0
  160.0180  202.3400  149.6870 O   0  0  0  0  0  1  0  0  0  0  0  0
  161.2050  204.1050  148.5970 C   0  0  0  0  0  2  0  0  0  0  0  0
  161.5690  203.2860  147.3690 C   0  0  0  0  0  2  0  0  0  0  0  0
  161.5910  204.0990  146.2350 O   0  0  0  0  0  0  0  0  0  0  0  0
  162.5110  205.1000  146.5400 C   0  0  0  0  0  1  0  0  0  0  0  0
  159.3480  210.7410  156.0130 C   0  0  0  0  0  2  0  0  0  0  0  0
  157.8960  210.7390  156.0810 N   0  0  0  0  0  2  0  0  0  0  0  0
  157.4100  211.4810  154.9250 C   0  0  1  0  0  3  0  0  0  0  0  0
  155.3340  210.8970  156.0030 O   0  0  0  0  0  1  0  0  0  0  0  0
  155.8880  211.4440  154.8440 C   0  0  0  0  0  2  0  0  0  0  0  0
  158.0690  213.1920  154.8830 S   0  0  0  0  0  0  0  0  0  0  0  0
  158.1520  213.3290  153.0710 C   0  0  0  0  0  1  0  0  0  0  0  0
  1 16  1  6  0  0  0
  1 17  1  0  0  0  0
  2  7  1  0  0  0  0
  3  9  1  0  0  0  0
  4 15  1  0  0  0  0
  6  4  1  0  0  0  0
  6 14  1  0  0  0  0
  7 15  1  0  0  0  0
  8 28  1  0  0  0  0
  8  5  1  0  0  0  0
  9  1  1  0  0  0  0
  9 10  1  0  0  0  0
 10 18  1  0  0  0  0
 10  6  1  0  0  0  0
 11 16  1  0  0  0  0
 12  5  1  0  0  0  0
 13 11  1  0  0  0  0
 13  3  1  0  0  0  0
 14 12  1  0  0  0  0
 15  8  1  0  0  0  0
 17  2  1  0  0  0  0
 17  4  1  0  0  0  0
 19 18  1  0  0  0  0
 21 19  1  0  0  0  0
 21 20  1  0  0  0  0
 22 21  1  0  0  0  0
 23 22  1  0  0  0  0
 24 22  1  0  0  0  0
 25 24  1  0  0  0  0
 26 27  1  0  0  0  0
 26 25  1  0  0  0  0
 28 29  1  0  0  0  0
 30 29  1  0  0  0  0
 32 30  1  0  0  0  0
 32 31  1  0  0  0  0
 33 30  1  0  0  0  0
 34 33  1  0  0  0  0
M  END
>  <MODEL>
4

>  <REMARK>
 VINA RESULT:      -6.2      4.070      8.358
  Name = 
  12 active torsions:
  status: ('A' for Active; 'I' for Inactive)
    1  A    between atoms: C_3  and  C_16
    2  A    between atoms: C_3  and  C_19
    3  A    between atoms: C_5  and  O_11
    4  A    between atoms: C_5  and  C_19
    5  A    between atoms: C_8  and  O_12
    6  A    between atoms: C_8  and  C_16
    7  A    between atoms: O_11  and  C_20
    8  A    between atoms: N_17  and  C_28
    9  A    between atoms: C_28  and  N_29
   10  A    between atoms: N_29  and  C_32
   11  A    between atoms: S_31  and  C_32
   12  A    between atoms: C_32  and  C_34
                            x       y       z     vdW  Elec       q    Type
                         _______ _______ _______ _____ _____    ______ ____

>  <TORSDO>
F 12

$$$$
=
 OpenBabel11122414433D

 34 37  0  0  1  0  0  0  0  0999 V2000
  161.4940  207.7160  149.5200 C   0  0  2  0  0  3  0  0  0  0  0  0
  160.3760  206.3770  147.8490 O   0  0  0  0  0  0  0  0  0  0  0  0
  162.5110  209.1330  151.3160 C   0  0  0  0  0  2  0  0  0  0  0  0
  160.3340  205.5030  150.0860 C   0  0  2  0  0  3  0  0  0  0  0  0
  161.0340  202.6230  150.6210 C   0  0  0  0  0  2  0  0  0  0  0  0
  161.3390  205.5580  151.2680 C   0  0  1  0  0  3  0  0  0  0  0  0
  160.9480  205.0980  147.8260 C   0  0  0  0  0  2  0  0  0  0  0  0
  161.5530  203.3760  149.4880 N   0  0  0  0  0  0  0  0  0  0  0  0
  161.3980  208.1480  150.9810 C   0  0  2  0  0  3  0  0  0  0  0  0
  161.4010  206.9510  151.9460 C   0  0  1  0  0  3  0  0  0  0  0  0
  162.5900  209.8300  148.9610 N   0  0  0  0  0  2  0  0  0  0  0  0
  161.6630  203.1370  151.9030 C   0  0  0  0  0  2  0  0  0  0  0  0
  162.4490  210.3060  150.3390 C   0  0  0  0  0  2  0  0  0  0  0  0
  161.0520  204.4700  152.3010 C   0  0  0  0  0  2  0  0  0  0  0  0
  160.5380  204.3640  149.0900 C   0  0  1  0  0  3  0  0  0  0  0  0
  161.4550  208.9640  148.6390 C   0  0  0  0  0  2  0  0  0  0  0  0
  160.3390  206.7620  149.2010 C   0  0  1  0  0  3  0  0  0  0  0  0
  160.5140  207.1240  153.0350 O   0  0  0  0  0  0  0  0  0  0  0  0
  160.8950  208.2700  153.7530 C   0  0  0  0  0  2  0  0  0  0  0  0
  159.9020  207.1940  155.7770 C   0  0  0  0  0  1  0  0  0  0  0  0
  161.1170  207.9220  155.2140 C   0  0  2  0  0  3  0  0  0  0  0  0
  161.4410  209.1880  156.0110 C   0  0  1  0  0  3  0  0  0  0  0  0
  162.5010  208.9620  156.8940 O   0  0  0  0  0  1  0  0  0  0  0  0
  161.7740  210.3610  155.0980 C   0  0  0  0  0  2  0  0  0  0  0  0
  160.7610  211.4840  155.2540 C   0  0  0  0  0  2  0  0  0  0  0  0
  159.7030  211.0700  156.0640 O   0  0  0  0  0  0  0  0  0  0  0  0
  158.5620  211.3080  155.3000 C   0  0  0  0  0  1  0  0  0  0  0  0
  161.6990  202.3980  148.4160 C   0  0  0  0  0  2  0  0  0  0  0  0
  160.4200  201.7540  148.1680 N   0  0  0  0  0  2  0  0  0  0  0  0
  160.5330  201.0510  146.8970 C   0  0  1  0  0  3  0  0  0  0  0  0
  159.8290  201.9960  144.7940 O   0  0  0  0  0  1  0  0  0  0  0  0
  160.8390  202.0160  145.7570 C   0  0  0  0  0  2  0  0  0  0  0  0
  161.7350  199.6690  146.9830 S   0  0  0  0  0  0  0  0  0  0  0  0
  161.1700  198.8190  145.4770 C   0  0  0  0  0  1  0  0  0  0  0  0
  1 16  1  6  0  0  0
  1  9  1  0  0  0  0
  2 17  1  0  0  0  0
  4  6  1  0  0  0  0
  5 12  1  0  0  0  0
  6 10  1  0  0  0  0
  6 14  1  0  0  0  0
  7  2  1  0  0  0  0
  7 15  1  0  0  0  0
  8  5  1  0  0  0  0
  9  3  1  0  0  0  0
  9 10  1  0  0  0  0
 10 18  1  0  0  0  0
 11 13  1  0  0  0  0
 12 14  1  0  0  0  0
 13  3  1  0  0  0  0
 15  8  1  0  0  0  0
 15  4  1  0  0  0  0
 16 11  1  0  0  0  0
 17  1  1  0  0  0  0
 17  4  1  0  0  0  0
 18 19  1  0  0  0  0
 19 21  1  0  0  0  0
 21 20  1  0  0  0  0
 21 22  1  0  0  0  0
 22 23  1  0  0  0  0
 24 25  1  0  0  0  0
 24 22  1  0  0  0  0
 25 26  1  0  0  0  0
 27 26  1  0  0  0  0
 28  8  1  0  0  0  0
 29 28  1  0  0  0  0
 30 33  1  0  0  0  0
 30 29  1  0  0  0  0
 31 32  1  0  0  0  0
 32 30  1  0  0  0  0
 34 33  1  0  0  0  0
M  END
>  <MODEL>
5

>  <REMARK>
 VINA RESULT:      -5.8      3.292      6.009
  Name = 
  12 active torsions:
  status: ('A' for Active; 'I' for Inactive)
    1  A    between atoms: C_3  and  C_16
    2  A    between atoms: C_3  and  C_19
    3  A    between atoms: C_5  and  O_11
    4  A    between atoms: C_5  and  C_19
    5  A    between atoms: C_8  and  O_12
    6  A    between atoms: C_8  and  C_16
    7  A    between atoms: O_11  and  C_20
    8  A    between atoms: N_17  and  C_28
    9  A    between atoms: C_28  and  N_29
   10  A    between atoms: N_29  and  C_32
   11  A    between atoms: S_31  and  C_32
   12  A    between atoms: C_32  and  C_34
                            x       y       z     vdW  Elec       q    Type
                         _______ _______ _______ _____ _____    ______ ____

>  <TORSDO>
F 12

$$$$
=
 OpenBabel11122414433D

 34 37  0  0  1  0  0  0  0  0999 V2000
  160.8180  206.9640  153.5880 C   0  0  2  0  0  3  0  0  0  0  0  0
  161.7760  204.8280  152.9910 O   0  0  0  0  0  0  0  0  0  0  0  0
  159.9720  209.2320  154.2260 C   0  0  0  0  0  2  0  0  0  0  0  0
  162.1580  206.6160  151.4320 C   0  0  2  0  0  3  0  0  0  0  0  0
  161.6880  206.2090  148.4850 C   0  0  0  0  0  2  0  0  0  0  0  0
  161.3160  207.8450  150.9970 C   0  0  1  0  0  3  0  0  0  0  0  0
  161.2750  204.4320  151.7440 C   0  0  0  0  0  2  0  0  0  0  0  0
  160.9850  205.4620  149.5190 N   0  0  0  0  0  0  0  0  0  0  0  0
  161.0830  208.4660  153.5180 C   0  0  2  0  0  3  0  0  0  0  0  0
  161.2690  208.9600  152.0740 C   0  0  1  0  0  3  0  0  0  0  0  0
  159.5480  207.2780  155.6540 N   0  0  0  0  0  2  0  0  0  0  0  0
  161.2070  207.6480  148.4840 C   0  0  0  0  0  2  0  0  0  0  0  0
  159.8430  208.7120  155.6570 C   0  0  0  0  0  2  0  0  0  0  0  0
  161.7930  208.4090  149.6600 C   0  0  0  0  0  2  0  0  0  0  0  0
  161.8860  205.3190  150.6740 C   0  0  1  0  0  3  0  0  0  0  0  0
  160.6750  206.5620  155.0550 C   0  0  0  0  0  2  0  0  0  0  0  0
  161.9710  206.2190  152.9070 C   0  0  1  0  0  3  0  0  0  0  0  0
  162.2810  209.9420  151.9580 O   0  0  0  0  0  0  0  0  0  0  0  0
  161.7390  211.1950  152.2950 C   0  0  0  0  0  2  0  0  0  0  0  0
  161.2880  212.0510  149.9920 C   0  0  0  0  0  1  0  0  0  0  0  0
  160.6600  211.5830  151.2990 C   0  0  2  0  0  3  0  0  0  0  0  0
  159.7460  212.6490  151.9060 C   0  0  1  0  0  3  0  0  0  0  0  0
  159.4340  213.6320  150.9630 O   0  0  0  0  0  1  0  0  0  0  0  0
  158.4620  212.0440  152.4610 C   0  0  0  0  0  2  0  0  0  0  0  0
  158.2110  212.5050  153.8880 C   0  0  0  0  0  2  0  0  0  0  0  0
  157.1810  211.7580  154.4620 O   0  0  0  0  0  0  0  0  0  0  0  0
  156.0750  212.6050  154.4330 C   0  0  0  0  0  1  0  0  0  0  0  0
  160.7520  204.1420  148.9430 C   0  0  0  0  0  2  0  0  0  0  0  0
  161.8610  203.7890  148.0720 N   0  0  0  0  0  2  0  0  0  0  0  0
  161.4630  202.5990  147.3330 C   0  0  1  0  0  3  0  0  0  0  0  0
  161.0380  200.7520  148.8230 O   0  0  0  0  0  1  0  0  0  0  0  0
  160.4310  201.7860  148.1070 C   0  0  0  0  0  2  0  0  0  0  0  0
  160.9000  203.0020  145.6350 S   0  0  0  0  0  0  0  0  0  0  0  0
  160.1790  201.3720  145.2710 C   0  0  0  0  0  1  0  0  0  0  0  0
  1 16  1  1  0  0  0
  3 13  1  0  0  0  0
  4 17  1  0  0  0  0
  5  8  1  0  0  0  0
  6  4  1  0  0  0  0
  6 10  1  0  0  0  0
  7  2  1  0  0  0  0
  8 15  1  0  0  0  0
  9  1  1  0  0  0  0
  9  3  1  0  0  0  0
 10  9  1  0  0  0  0
 11 13  1  0  0  0  0
 12  5  1  0  0  0  0
 12 14  1  0  0  0  0
 14  6  1  0  0  0  0
 15  4  1  0  0  0  0
 15  7  1  0  0  0  0
 16 11  1  0  0  0  0
 17  2  1  0  0  0  0
 17  1  1  0  0  0  0
 18 10  1  0  0  0  0
 18 19  1  0  0  0  0
 20 21  1  0  0  0  0
 21 22  1  0  0  0  0
 21 19  1  0  0  0  0
 22 24  1  0  0  0  0
 23 22  1  0  0  0  0
 24 25  1  0  0  0  0
 25 26  1  0  0  0  0
 27 26  1  0  0  0  0
 28  8  1  0  0  0  0
 29 28  1  0  0  0  0
 30 29  1  0  0  0  0
 30 32  1  0  0  0  0
 32 31  1  0  0  0  0
 33 30  1  0  0  0  0
 34 33  1  0  0  0  0
M  END
>  <MODEL>
6

>  <REMARK>
 VINA RESULT:      -5.5      2.313      3.832
  Name = 
  12 active torsions:
  status: ('A' for Active; 'I' for Inactive)
    1  A    between atoms: C_3  and  C_16
    2  A    between atoms: C_3  and  C_19
    3  A    between atoms: C_5  and  O_11
    4  A    between atoms: C_5  and  C_19
    5  A    between atoms: C_8  and  O_12
    6  A    between atoms: C_8  and  C_16
    7  A    between atoms: O_11  and  C_20
    8  A    between atoms: N_17  and  C_28
    9  A    between atoms: C_28  and  N_29
   10  A    between atoms: N_29  and  C_32
   11  A    between atoms: S_31  and  C_32
   12  A    between atoms: C_32  and  C_34
                            x       y       z     vdW  Elec       q    Type
                         _______ _______ _______ _____ _____    ______ ____

>  <TORSDO>
F 12

$$$$
=
 OpenBabel11122414433D

 34 37  0  0  1  0  0  0  0  0999 V2000
  161.5780  207.6140  149.4740 C   0  0  2  0  0  3  0  0  0  0  0  0
  160.5760  206.2030  147.7890 O   0  0  0  0  0  0  0  0  0  0  0  0
  162.4710  209.1040  151.2780 C   0  0  0  0  0  2  0  0  0  0  0  0
  160.4380  205.3920  150.0460 C   0  0  2  0  0  3  0  0  0  0  0  0
  161.1730  202.5450  150.7000 C   0  0  0  0  0  2  0  0  0  0  0  0
  161.3800  205.5030  151.2750 C   0  0  1  0  0  3  0  0  0  0  0  0
  161.1760  204.9380  147.8330 C   0  0  0  0  0  2  0  0  0  0  0  0
  161.7330  203.2780  149.5730 N   0  0  0  0  0  0  0  0  0  0  0  0
  161.3980  208.0850  150.9160 C   0  0  2  0  0  3  0  0  0  0  0  0
  161.3780  206.9160  151.9140 C   0  0  1  0  0  3  0  0  0  0  0  0
  162.6550  209.7360  148.9100 N   0  0  0  0  0  2  0  0  0  0  0  0
  161.7240  203.1100  151.9960 C   0  0  0  0  0  2  0  0  0  0  0  0
  162.4330  210.2480  150.2650 C   0  0  0  0  0  2  0  0  0  0  0  0
  161.0640  204.4380  152.3230 C   0  0  0  0  0  2  0  0  0  0  0  0
  160.7180  204.2300  149.0950 C   0  0  1  0  0  3  0  0  0  0  0  0
  161.5570  208.8350  148.5560 C   0  0  0  0  0  2  0  0  0  0  0  0
  160.4610  206.6260  149.1260 C   0  0  1  0  0  3  0  0  0  0  0  0
  160.4330  207.0980  152.9510 O   0  0  0  0  0  0  0  0  0  0  0  0
  160.8330  208.1880  153.7440 C   0  0  0  0  0  2  0  0  0  0  0  0
  159.9780  206.9540  155.7410 C   0  0  0  0  0  1  0  0  0  0  0  0
  161.1570  207.7190  155.1520 C   0  0  2  0  0  3  0  0  0  0  0  0
  161.5540  208.9130  156.0230 C   0  0  1  0  0  3  0  0  0  0  0  0
  162.0320  209.9660  155.2380 O   0  0  0  0  0  1  0  0  0  0  0  0
  160.3920  209.3980  156.8810 C   0  0  0  0  0  2  0  0  0  0  0  0
  159.8500  210.7240  156.3720 C   0  0  0  0  0  2  0  0  0  0  0  0
  158.5970  210.5390  155.7840 O   0  0  0  0  0  0  0  0  0  0  0  0
  158.6870  211.1950  154.5580 C   0  0  0  0  0  1  0  0  0  0  0  0
  161.9540  202.2730  148.5390 C   0  0  0  0  0  2  0  0  0  0  0  0
  160.7060  202.0070  147.8430 N   0  0  0  0  0  2  0  0  0  0  0  0
  161.0440  201.3270  146.6010 C   0  0  1  0  0  3  0  0  0  0  0  0
  161.0950  199.1210  145.6280 O   0  0  0  0  0  1  0  0  0  0  0  0
  161.2290  199.8290  146.8230 C   0  0  0  0  0  2  0  0  0  0  0  0
  159.8340  201.6880  145.2710 S   0  0  0  0  0  0  0  0  0  0  0  0
  160.4560  203.3530  144.8830 C   0  0  0  0  0  1  0  0  0  0  0  0
  1 16  1  6  0  0  0
  1  9  1  0  0  0  0
  2  7  1  0  0  0  0
  2 17  1  0  0  0  0
  4  6  1  0  0  0  0
  5 12  1  0  0  0  0
  6 10  1  0  0  0  0
  6 14  1  0  0  0  0
  7 15  1  0  0  0  0
  8  5  1  0  0  0  0
  9  3  1  0  0  0  0
  9 10  1  0  0  0  0
 10 18  1  0  0  0  0
 11 13  1  0  0  0  0
 12 14  1  0  0  0  0
 13  3  1  0  0  0  0
 15  8  1  0  0  0  0
 15  4  1  0  0  0  0
 16 11  1  0  0  0  0
 17  1  1  0  0  0  0
 17  4  1  0  0  0  0
 18 19  1  0  0  0  0
 19 21  1  0  0  0  0
 21 20  1  0  0  0  0
 21 22  1  0  0  0  0
 22 24  1  0  0  0  0
 23 22  1  0  0  0  0
 25 24  1  0  0  0  0
 26 25  1  0  0  0  0
 27 26  1  0  0  0  0
 28  8  1  0  0  0  0
 29 28  1  0  0  0  0
 30 32  1  0  0  0  0
 30 29  1  0  0  0  0
 31 32  1  0  0  0  0
 33 30  1  0  0  0  0
 34 33  1  0  0  0  0
M  END
>  <MODEL>
7

>  <REMARK>
 VINA RESULT:      -5.5      3.285      6.009
  Name = 
  12 active torsions:
  status: ('A' for Active; 'I' for Inactive)
    1  A    between atoms: C_3  and  C_16
    2  A    between atoms: C_3  and  C_19
    3  A    between atoms: C_5  and  O_11
    4  A    between atoms: C_5  and  C_19
    5  A    between atoms: C_8  and  O_12
    6  A    between atoms: C_8  and  C_16
    7  A    between atoms: O_11  and  C_20
    8  A    between atoms: N_17  and  C_28
    9  A    between atoms: C_28  and  N_29
   10  A    between atoms: N_29  and  C_32
   11  A    between atoms: S_31  and  C_32
   12  A    between atoms: C_32  and  C_34
                            x       y       z     vdW  Elec       q    Type
                         _______ _______ _______ _____ _____    ______ ____

>  <TORSDO>
F 12

$$$$
=
 OpenBabel11122414433D

 34 37  0  0  1  0  0  0  0  0999 V2000
  161.1490  204.9270  151.3870 C   0  0  2  0  0  3  0  0  0  0  0  0
  160.4630  206.2670  153.2750 O   0  0  0  0  0  0  0  0  0  0  0  0
  161.7140  203.5520  149.3720 C   0  0  0  0  0  2  0  0  0  0  0  0
  160.5430  207.4060  151.1610 C   0  0  2  0  0  3  0  0  0  0  0  0
  161.9030  210.0810  150.9100 C   0  0  0  0  0  2  0  0  0  0  0  0
  161.4540  207.2660  149.9120 C   0  0  1  0  0  3  0  0  0  0  0  0
  161.3310  207.3610  153.4030 C   0  0  0  0  0  2  0  0  0  0  0  0
  162.2690  209.0870  151.9090 N   0  0  0  0  0  0  0  0  0  0  0  0
  160.8900  204.7210  149.8960 C   0  0  2  0  0  3  0  0  0  0  0  0
  161.1460  205.9970  149.0760 C   0  0  1  0  0  3  0  0  0  0  0  0
  161.7180  202.5590  151.6200 N   0  0  0  0  0  2  0  0  0  0  0  0
  162.3320  209.6010  149.5360 C   0  0  0  0  0  2  0  0  0  0  0  0
  161.4070  202.3110  150.2110 C   0  0  0  0  0  2  0  0  0  0  0  0
  161.3980  208.5140  149.0330 C   0  0  0  0  0  2  0  0  0  0  0  0
  161.0600  208.3260  152.2640 C   0  0  1  0  0  3  0  0  0  0  0  0
  160.8440  203.6220  152.1200 C   0  0  0  0  0  2  0  0  0  0  0  0
  160.2760  206.0790  151.8940 C   0  0  1  0  0  3  0  0  0  0  0  0
  160.1990  206.1800  148.0410 O   0  0  0  0  0  0  0  0  0  0  0  0
  160.8810  206.4890  146.8510 C   0  0  0  0  0  2  0  0  0  0  0  0
  162.9430  205.3640  146.0050 C   0  0  0  0  0  1  0  0  0  0  0  0
  161.4420  205.2250  146.2260 C   0  0  2  0  0  3  0  0  0  0  0  0
  160.7010  204.9090  144.9250 C   0  0  1  0  0  3  0  0  0  0  0  0
  161.4730  205.2640  143.8150 O   0  0  0  0  0  1  0  0  0  0  0  0
  160.3170  203.4380  144.8350 C   0  0  0  0  0  2  0  0  0  0  0  0
  161.1480  202.5940  145.7880 C   0  0  0  0  0  2  0  0  0  0  0  0
  160.5210  201.3690  146.0200 O   0  0  0  0  0  0  0  0  0  0  0  0
  159.8450  201.0920  144.8340 C   0  0  0  0  0  1  0  0  0  0  0  0
  162.6930  209.8580  153.0730 C   0  0  0  0  0  2  0  0  0  0  0  0
  161.6290  210.7640  153.4730 N   0  0  0  0  0  2  0  0  0  0  0  0
  161.4830  210.6440  154.9160 C   0  0  1  0  0  3  0  0  0  0  0  0
  162.8020  209.9340  156.8060 O   0  0  0  0  0  1  0  0  0  0  0  0
  162.8390  210.6590  155.6130 C   0  0  0  0  0  2  0  0  0  0  0  0
  160.3370  211.9040  155.5960 S   0  0  0  0  0  0  0  0  0  0  0  0
  159.3690  210.7580  156.6270 C   0  0  0  0  0  1  0  0  0  0  0  0
  1 17  1  0  0  0  0
  1 16  1  1  0  0  0
  2  7  1  0  0  0  0
  3  9  1  0  0  0  0
  3 13  1  0  0  0  0
  4 17  1  0  0  0  0
  4 15  1  0  0  0  0
  5  8  1  0  0  0  0
  6  4  1  0  0  0  0
  8 15  1  0  0  0  0
  8 28  1  0  0  0  0
  9  1  1  0  0  0  0
 10  9  1  0  0  0  0
 10  6  1  0  0  0  0
 11 16  1  0  0  0  0
 12  5  1  0  0  0  0
 13 11  1  0  0  0  0
 14 12  1  0  0  0  0
 14  6  1  0  0  0  0
 15  7  1  0  0  0  0
 17  2  1  0  0  0  0
 18 10  1  0  0  0  0
 19 18  1  0  0  0  0
 20 21  1  0  0  0  0
 21 19  1  0  0  0  0
 22 21  1  0  0  0  0
 23 22  1  0  0  0  0
 24 22  1  0  0  0  0
 24 25  1  0  0  0  0
 25 26  1  0  0  0  0
 27 26  1  0  0  0  0
 28 29  1  0  0  0  0
 29 30  1  0  0  0  0
 30 33  1  0  0  0  0
 30 32  1  0  0  0  0
 32 31  1  0  0  0  0
 33 34  1  0  0  0  0
M  END
>  <MODEL>
8

>  <REMARK>
 VINA RESULT:      -5.5      4.010      7.837
  Name = 
  12 active torsions:
  status: ('A' for Active; 'I' for Inactive)
    1  A    between atoms: C_3  and  C_16
    2  A    between atoms: C_3  and  C_19
    3  A    between atoms: C_5  and  O_11
    4  A    between atoms: C_5  and  C_19
    5  A    between atoms: C_8  and  O_12
    6  A    between atoms: C_8  and  C_16
    7  A    between atoms: O_11  and  C_20
    8  A    between atoms: N_17  and  C_28
    9  A    between atoms: C_28  and  N_29
   10  A    between atoms: N_29  and  C_32
   11  A    between atoms: S_31  and  C_32
   12  A    between atoms: C_32  and  C_34
                            x       y       z     vdW  Elec       q    Type
                         _______ _______ _______ _____ _____    ______ ____

>  <TORSDO>
F 12

$$$$
=
 OpenBabel11122414433D

 34 37  0  0  1  0  0  0  0  0999 V2000
  161.6110  208.0360  149.4120 C   0  0  2  0  0  3  0  0  0  0  0  0
  160.6190  206.8370  147.5660 O   0  0  0  0  0  0  0  0  0  0  0  0
  162.4940  209.3010  151.3850 C   0  0  0  0  0  2  0  0  0  0  0  0
  160.4770  205.7590  149.7080 C   0  0  2  0  0  3  0  0  0  0  0  0
  161.2180  202.8560  150.0170 C   0  0  0  0  0  2  0  0  0  0  0  0
  161.4150  205.7240  150.9450 C   0  0  1  0  0  3  0  0  0  0  0  0
  161.2220  205.5760  147.4590 C   0  0  0  0  0  2  0  0  0  0  0  0
  161.7790  203.7210  148.9880 N   0  0  0  0  0  0  0  0  0  0  0  0
  161.4250  208.3300  150.9000 C   0  0  2  0  0  3  0  0  0  0  0  0
  161.4060  207.0490  151.7490 C   0  0  1  0  0  3  0  0  0  0  0  0
  162.6830  210.2150  149.1110 N   0  0  0  0  0  2  0  0  0  0  0  0
  161.7630  203.2620  151.3740 C   0  0  0  0  0  2  0  0  0  0  0  0
  162.4560  210.5580  150.5170 C   0  0  0  0  0  2  0  0  0  0  0  0
  161.0990  204.5390  151.8560 C   0  0  0  0  0  2  0  0  0  0  0  0
  160.7620  204.7210  148.6250 C   0  0  1  0  0  3  0  0  0  0  0  0
  161.5890  209.3590  148.6480 C   0  0  0  0  0  2  0  0  0  0  0  0
  160.4980  207.0940  148.9430 C   0  0  1  0  0  3  0  0  0  0  0  0
  160.4570  207.1030  152.7980 O   0  0  0  0  0  0  0  0  0  0  0  0
  160.6200  208.3120  153.4960 C   0  0  0  0  0  2  0  0  0  0  0  0
  160.2610  206.9520  155.5610 C   0  0  0  0  0  1  0  0  0  0  0  0
  161.1070  208.0390  154.9080 C   0  0  2  0  0  3  0  0  0  0  0  0
  161.0990  209.3330  155.7250 C   0  0  1  0  0  3  0  0  0  0  0  0
  159.8950  209.4770  156.4180 O   0  0  0  0  0  1  0  0  0  0  0  0
  162.2660  209.3910  156.7040 C   0  0  0  0  0  2  0  0  0  0  0  0
  162.7140  210.8240  156.9400 C   0  0  0  0  0  2  0  0  0  0  0  0
  163.9650  211.0410  156.3600 O   0  0  0  0  0  0  0  0  0  0  0  0
  164.6270  211.8750  157.2580 C   0  0  0  0  0  1  0  0  0  0  0  0
  162.0070  202.8490  147.8410 C   0  0  0  0  0  2  0  0  0  0  0  0
  160.7660  202.1800  147.4840 N   0  0  0  0  0  2  0  0  0  0  0  0
  161.0090  201.4610  146.2410 C   0  0  1  0  0  3  0  0  0  0  0  0
  161.5730  199.7260  147.8180 O   0  0  0  0  0  1  0  0  0  0  0  0
  161.2020  199.9690  146.4940 C   0  0  0  0  0  2  0  0  0  0  0  0
  159.7070  201.7920  144.9930 S   0  0  0  0  0  0  0  0  0  0  0  0
  160.2230  203.4960  144.6150 C   0  0  0  0  0  1  0  0  0  0  0  0
  1 16  1  6  0  0  0
  1  9  1  0  0  0  0
  2 17  1  0  0  0  0
  4  6  1  0  0  0  0
  5 12  1  0  0  0  0
  6 10  1  0  0  0  0
  6 14  1  0  0  0  0
  7  2  1  0  0  0  0
  7 15  1  0  0  0  0
  8  5  1  0  0  0  0
  9  3  1  0  0  0  0
  9 10  1  0  0  0  0
 10 18  1  0  0  0  0
 11 13  1  0  0  0  0
 12 14  1  0  0  0  0
 13  3  1  0  0  0  0
 15  8  1  0  0  0  0
 15  4  1  0  0  0  0
 16 11  1  0  0  0  0
 17  1  1  0  0  0  0
 17  4  1  0  0  0  0
 18 19  1  0  0  0  0
 19 21  1  0  0  0  0
 21 20  1  0  0  0  0
 21 22  1  0  0  0  0
 22 23  1  0  0  0  0
 22 24  1  0  0  0  0
 24 25  1  0  0  0  0
 26 25  1  0  0  0  0
 26 27  1  0  0  0  0
 28  8  1  0  0  0  0
 29 28  1  0  0  0  0
 30 32  1  0  0  0  0
 30 29  1  0  0  0  0
 32 31  1  0  0  0  0
 33 30  1  0  0  0  0
 34 33  1  0  0  0  0
M  END
>  <MODEL>
9

>  <REMARK>
 VINA RESULT:      -4.8      3.037      6.097
  Name = 
  12 active torsions:
  status: ('A' for Active; 'I' for Inactive)
    1  A    between atoms: C_3  and  C_16
    2  A    between atoms: C_3  and  C_19
    3  A    between atoms: C_5  and  O_11
    4  A    between atoms: C_5  and  C_19
    5  A    between atoms: C_8  and  O_12
    6  A    between atoms: C_8  and  C_16
    7  A    between atoms: O_11  and  C_20
    8  A    between atoms: N_17  and  C_28
    9  A    between atoms: C_28  and  N_29
   10  A    between atoms: N_29  and  C_32
   11  A    between atoms: S_31  and  C_32
   12  A    between atoms: C_32  and  C_34
                            x       y       z     vdW  Elec       q    Type
                         _______ _______ _______ _____ _____    ______ ____

>  <TORSDO>
F 12

$$$$
