=
 OpenBabel11122412543D

 32 38  0  0  1  0  0  0  0  0999 V2000
  161.9280  213.3210  148.7000 C   0  0  1  0  0  3  0  0  0  0  0  0
  161.5830  208.1770  149.6530 C   0  0  0  0  0  0  0  0  0  0  0  0
  160.9580  208.0600  154.4920 C   0  0  0  0  0  3  0  0  0  0  0  0
  160.8130  206.6740  154.4490 C   0  0  0  0  0  3  0  0  0  0  0  0
  161.5180  206.0380  148.3560 C   0  0  0  0  0  0  0  0  0  0  0  0
  161.3710  204.6520  148.3760 C   0  0  0  0  0  0  0  0  0  0  0  0
  161.3620  210.4300  148.5610 C   0  0  1  0  0  3  0  0  0  0  0  0
  161.6330  210.2690  150.9740 N   0  0  0  0  0  2  0  0  0  0  0  0
  161.0370  202.5890  149.3060 N   0  0  0  0  0  0  0  0  0  0  0  0
  161.7160  212.5380  149.9960 C   0  0  2  0  0  3  0  0  0  0  0  0
  161.1890  208.7730  153.3150 C   0  0  0  0  0  3  0  0  0  0  0  0
  161.5110  208.8360  150.9060 C   0  0  0  0  0  0  0  0  0  0  0  0
  161.2760  208.1090  152.0810 C   0  0  0  0  0  0  0  0  0  0  0  0
  161.2140  206.0310  150.7980 C   0  0  0  0  0  0  0  0  0  0  0  0
  161.1850  202.3240  147.8800 C   0  0  0  0  0  3  0  0  0  0  0  0
  162.3670  212.4280  147.5120 C   0  0  0  0  0  2  0  0  0  0  0  0
  162.0120  211.0430  149.8030 C   0  0  2  0  0  3  0  0  0  0  0  0
  161.4130  203.7040  147.2230 C   0  0  0  0  0  3  0  0  0  0  0  0
  161.5670  211.2050  147.3280 N   0  0  0  0  0  2  0  0  0  0  0  0
  160.5170  213.0470  149.2020 C   0  0  1  0  0  3  0  0  0  0  0  0
  160.8980  206.0010  153.2290 C   0  0  0  0  0  3  0  0  0  0  0  0
  161.1290  206.7050  152.0320 C   0  0  0  0  0  0  0  0  0  0  0  0
  161.0710  204.6270  150.7580 C   0  0  0  0  0  3  0  0  0  0  0  0
  161.8650  209.0030  148.4120 C   0  0  0  0  0  2  0  0  0  0  0  0
  161.7300  206.6620  147.1300 O   0  0  0  0  0  1  0  0  0  0  0  0
  160.8030  201.5730  150.3160 C   0  0  0  0  0  1  0  0  0  0  0  0
  161.4430  206.7620  149.5860 C   0  0  0  0  0  0  0  0  0  0  0  0
  161.1560  203.9750  149.5360 C   0  0  0  0  0  0  0  0  0  0  0  0
  159.9710  214.2940  149.8680 C   0  0  0  0  0  2  0  0  0  0  0  0
  158.8520  213.9320  150.7810 C   0  0  0  0  0  0  0  0  0  0  0  0
  158.9580  214.1940  152.1750 N   0  0  0  0  0  1  0  0  0  0  0  0
  157.8260  213.3660  150.3240 O   0  0  0  0  0  0  0  0  0  0  0  0
  1 16  1  6  0  0  0
  1 20  1  0  0  0  0
  1 10  1  0  0  0  0
  2 12  1  0  0  0  0
  4  3  1  0  0  0  0
  5  6  2  0  0  0  0
  5 27  1  0  0  0  0
  6 28  1  0  0  0  0
  7 24  1  6  0  0  0
  7 17  1  0  0  0  0
  9 28  1  0  0  0  0
  9 26  1  0  0  0  0
 11  3  2  0  0  0  0
 12  8  1  0  0  0  0
 12 13  2  0  0  0  0
 13 11  1  0  0  0  0
 14 22  2  0  0  0  0
 15  9  1  0  0  0  0
 17 10  1  0  0  0  0
 17  8  1  0  0  0  0
 18 15  2  0  0  0  0
 18  6  1  0  0  0  0
 19 16  1  0  0  0  0
 19  7  1  0  0  0  0
 20 29  1  0  0  0  0
 20 10  1  0  0  0  0
 21  4  2  0  0  0  0
 22 13  1  0  0  0  0
 22 21  1  0  0  0  0
 23 14  1  0  0  0  0
 24  2  1  0  0  0  0
 25  5  1  0  0  0  0
 27  2  2  0  0  0  0
 27 14  1  0  0  0  0
 28 23  2  0  0  0  0
 29 30  1  0  0  0  0
 30 31  1  0  0  0  0
 32 30  2  0  0  0  0
M  END
>  <MODEL>
1

>  <REMARK>
 VINA RESULT:      -9.2      0.000      0.000
  Name = 
  2 active torsions:
  status: ('A' for Active; 'I' for Inactive)
    1  A    between atoms: C_20  and  C_29
    2  A    between atoms: C_29  and  C_30
                            x       y       z     vdW  Elec       q    Type
                         _______ _______ _______ _____ _____    ______ ____

>  <TORSDO>
F 2

$$$$
=
 OpenBabel11122412543D

 32 38  0  0  1  0  0  0  0  0999 V2000
  161.7830  203.0630  146.9410 C   0  0  1  0  0  3  0  0  0  0  0  0
  161.4540  206.5480  150.8440 C   0  0  0  0  0  0  0  0  0  0  0  0
  162.2730  210.7700  148.5350 C   0  0  0  0  0  3  0  0  0  0  0  0
  162.0460  211.4710  149.7180 C   0  0  0  0  0  3  0  0  0  0  0  0
  160.8940  206.5720  153.2820 C   0  0  0  0  0  0  0  0  0  0  0  0
  160.6840  207.3270  154.4360 C   0  0  0  0  0  0  0  0  0  0  0  0
  161.0450  204.5460  149.3800 C   0  0  1  0  0  3  0  0  0  0  0  0
  162.0030  206.5710  148.4310 N   0  0  0  0  0  2  0  0  0  0  0  0
  160.5260  209.2240  155.7040 N   0  0  0  0  0  0  0  0  0  0  0  0
  161.9190  204.5860  146.9590 C   0  0  2  0  0  3  0  0  0  0  0  0
  162.1860  209.3770  148.5230 C   0  0  0  0  0  3  0  0  0  0  0  0
  161.7890  207.2700  149.6710 C   0  0  0  0  0  0  0  0  0  0  0  0
  161.8700  208.6690  149.6940 C   0  0  0  0  0  0  0  0  0  0  0  0
  161.3210  208.6740  152.0750 C   0  0  0  0  0  0  0  0  0  0  0  0
  160.2340  208.1400  156.6350 C   0  0  0  0  0  3  0  0  0  0  0  0
  161.8050  202.4300  148.3550 C   0  0  0  0  0  2  0  0  0  0  0  0
  162.0640  205.1180  148.3930 C   0  0  2  0  0  3  0  0  0  0  0  0
  160.3340  206.8410  155.8040 C   0  0  0  0  0  3  0  0  0  0  0  0
  160.9210  203.0810  149.3380 N   0  0  0  0  0  2  0  0  0  0  0  0
  160.5690  203.9400  146.6640 C   0  0  1  0  0  3  0  0  0  0  0  0
  161.7320  210.7810  150.8900 C   0  0  0  0  0  3  0  0  0  0  0  0
  161.6390  209.3750  150.8960 C   0  0  0  0  0  0  0  0  0  0  0  0
  161.0960  209.3860  153.2730 C   0  0  0  0  0  3  0  0  0  0  0  0
  161.4030  205.0330  150.7750 C   0  0  0  0  0  2  0  0  0  0  0  0
  160.7700  205.1890  153.3670 O   0  0  0  0  0  1  0  0  0  0  0  0
  160.5440  210.6330  156.0540 C   0  0  0  0  0  1  0  0  0  0  0  0
  161.2240  207.2430  152.0640 C   0  0  0  0  0  0  0  0  0  0  0  0
  160.7830  208.6830  154.4270 C   0  0  0  0  0  0  0  0  0  0  0  0
  160.3120  203.9830  145.1710 C   0  0  0  0  0  2  0  0  0  0  0  0
  160.5930  205.3480  144.6480 C   0  0  0  0  0  0  0  0  0  0  0  0
  161.5050  205.5240  143.5710 N   0  0  0  0  0  1  0  0  0  0  0  0
  160.0490  206.3500  145.1810 O   0  0  0  0  0  0  0  0  0  0  0  0
  1 10  1  0  0  0  0
  1 16  1  1  0  0  0
  2 27  1  0  0  0  0
  3  4  1  0  0  0  0
  4 21  2  0  0  0  0
  5 25  1  0  0  0  0
  5  6  1  0  0  0  0
  6 18  1  0  0  0  0
  7 24  1  1  0  0  0
  8 12  1  0  0  0  0
  9 26  1  0  0  0  0
  9 15  1  0  0  0  0
 10 17  1  0  0  0  0
 11  3  2  0  0  0  0
 11 13  1  0  0  0  0
 12 13  1  0  0  0  0
 12  2  2  0  0  0  0
 13 22  2  0  0  0  0
 14 23  2  0  0  0  0
 16 19  1  0  0  0  0
 17  8  1  0  0  0  0
 17  7  1  0  0  0  0
 18 15  2  0  0  0  0
 19  7  1  0  0  0  0
 20  1  1  0  0  0  0
 20 10  1  0  0  0  0
 21 22  1  0  0  0  0
 22 14  1  0  0  0  0
 23 28  1  0  0  0  0
 24  2  1  0  0  0  0
 27 14  1  0  0  0  0
 27  5  2  0  0  0  0
 28  6  2  0  0  0  0
 28  9  1  0  0  0  0
 29 20  1  0  0  0  0
 30 29  1  0  0  0  0
 30 32  2  0  0  0  0
 31 30  1  0  0  0  0
M  END
>  <MODEL>
2

>  <REMARK>
 VINA RESULT:      -8.6      2.675      7.502
  Name = 
  2 active torsions:
  status: ('A' for Active; 'I' for Inactive)
    1  A    between atoms: C_20  and  C_29
    2  A    between atoms: C_29  and  C_30
                            x       y       z     vdW  Elec       q    Type
                         _______ _______ _______ _____ _____    ______ ____

>  <TORSDO>
F 2

$$$$
=
 OpenBabel11122412543D

 32 38  0  0  1  0  0  0  0  0999 V2000
  161.4540  210.0820  154.3010 C   0  0  1  0  0  3  0  0  0  0  0  0
  161.3180  206.7020  150.2960 C   0  0  0  0  0  0  0  0  0  0  0  0
  160.8930  202.4080  152.5790 C   0  0  0  0  0  3  0  0  0  0  0  0
  160.7920  201.7550  151.3520 C   0  0  0  0  0  3  0  0  0  0  0  0
  161.2720  206.7710  147.7960 C   0  0  0  0  0  0  0  0  0  0  0  0
  161.1720  206.0630  146.5990 C   0  0  0  0  0  0  0  0  0  0  0  0
  160.9790  208.7490  151.7150 C   0  0  1  0  0  3  0  0  0  0  0  0
  161.3520  206.5880  152.7680 N   0  0  0  0  0  2  0  0  0  0  0  0
  160.9440  204.2210  145.2610 N   0  0  0  0  0  0  0  0  0  0  0  0
  161.3200  208.5600  154.2590 C   0  0  2  0  0  3  0  0  0  0  0  0
  161.0520  203.7940  152.6200 C   0  0  0  0  0  3  0  0  0  0  0  0
  161.2750  205.9340  151.4880 C   0  0  0  0  0  0  0  0  0  0  0  0
  161.1120  204.5440  151.4340 C   0  0  0  0  0  0  0  0  0  0  0  0
  161.0670  204.6300  148.9930 C   0  0  0  0  0  0  0  0  0  0  0  0
  161.0440  205.3370  144.3290 C   0  0  0  0  0  3  0  0  0  0  0  0
  161.8740  210.6970  152.9430 C   0  0  0  0  0  2  0  0  0  0  0  0
  161.6580  208.0060  152.8670 C   0  0  2  0  0  3  0  0  0  0  0  0
  161.1990  206.5990  145.2060 C   0  0  0  0  0  3  0  0  0  0  0  0
  161.1090  210.2120  151.7810 N   0  0  0  0  0  2  0  0  0  0  0  0
  160.0740  209.4390  154.2980 C   0  0  1  0  0  3  0  0  0  0  0  0
  160.8500  202.4880  150.1650 C   0  0  0  0  0  3  0  0  0  0  0  0
  161.0090  203.8870  150.1870 C   0  0  0  0  0  0  0  0  0  0  0  0
  160.9690  203.9670  147.7510 C   0  0  0  0  0  3  0  0  0  0  0  0
  161.5230  208.2010  150.4050 C   0  0  0  0  0  2  0  0  0  0  0  0
  161.4140  208.1540  147.7350 O   0  0  0  0  0  1  0  0  0  0  0  0
  160.7850  202.8310  144.8750 C   0  0  0  0  0  1  0  0  0  0  0  0
  161.2230  206.0560  149.0320 C   0  0  0  0  0  0  0  0  0  0  0  0
  161.0260  204.7110  146.5810 C   0  0  0  0  0  0  0  0  0  0  0  0
  159.5150  209.4460  155.7070 C   0  0  0  0  0  2  0  0  0  0  0  0
  158.7790  210.7170  155.9530 C   0  0  0  0  0  0  0  0  0  0  0  0
  158.0050  211.3030  154.9140 N   0  0  0  0  0  1  0  0  0  0  0  0
  158.8670  211.2890  157.0700 O   0  0  0  0  0  0  0  0  0  0  0  0
  1 16  1  6  0  0  0
  2 24  1  0  0  0  0
  2 12  1  0  0  0  0
  3 11  2  0  0  0  0
  4  3  1  0  0  0  0
  5 27  1  0  0  0  0
  6  5  2  0  0  0  0
  7 24  1  6  0  0  0
  7 19  1  0  0  0  0
  7 17  1  0  0  0  0
  8 17  1  0  0  0  0
  9 28  1  0  0  0  0
 10 20  1  0  0  0  0
 10  1  1  0  0  0  0
 12  8  1  0  0  0  0
 13 12  2  0  0  0  0
 13 11  1  0  0  0  0
 14 27  1  0  0  0  0
 14 22  2  0  0  0  0
 15 18  2  0  0  0  0
 15  9  1  0  0  0  0
 17 10  1  0  0  0  0
 18  6  1  0  0  0  0
 19 16  1  0  0  0  0
 20  1  1  0  0  0  0
 20 29  1  0  0  0  0
 21 22  1  0  0  0  0
 21  4  2  0  0  0  0
 22 13  1  0  0  0  0
 23 14  1  0  0  0  0
 25  5  1  0  0  0  0
 26  9  1  0  0  0  0
 27  2  2  0  0  0  0
 28  6  1  0  0  0  0
 28 23  2  0  0  0  0
 29 30  1  0  0  0  0
 30 32  2  0  0  0  0
 31 30  1  0  0  0  0
M  END
>  <MODEL>
3

>  <REMARK>
 VINA RESULT:      -8.0      2.973      4.526
  Name = 
  2 active torsions:
  status: ('A' for Active; 'I' for Inactive)
    1  A    between atoms: C_20  and  C_29
    2  A    between atoms: C_29  and  C_30
                            x       y       z     vdW  Elec       q    Type
                         _______ _______ _______ _____ _____    ______ ____

>  <TORSDO>
F 2

$$$$
=
 OpenBabel11122412543D

 32 38  0  0  1  0  0  0  0  0999 V2000
  161.9170  203.4900  146.6610 C   0  0  1  0  0  3  0  0  0  0  0  0
  161.4860  206.8640  150.6510 C   0  0  0  0  0  0  0  0  0  0  0  0
  162.2010  211.1630  148.4520 C   0  0  0  0  0  3  0  0  0  0  0  0
  161.9530  211.8280  149.6510 C   0  0  0  0  0  3  0  0  0  0  0  0
  160.9190  206.8120  153.0870 C   0  0  0  0  0  0  0  0  0  0  0  0
  160.6860  207.5320  154.2580 C   0  0  0  0  0  0  0  0  0  0  0  0
  161.1330  204.8900  149.1350 C   0  0  1  0  0  3  0  0  0  0  0  0
  162.0420  206.9630  148.2410 N   0  0  0  0  0  2  0  0  0  0  0  0
  160.4750  209.3910  155.5740 N   0  0  0  0  0  0  0  0  0  0  0  0
  162.0130  205.0140  146.7190 C   0  0  2  0  0  3  0  0  0  0  0  0
  162.1510  209.7690  148.4050 C   0  0  0  0  0  3  0  0  0  0  0  0
  161.8050  207.6250  149.4970 C   0  0  0  0  0  0  0  0  0  0  0  0
  161.8500  209.0240  149.5560 C   0  0  0  0  0  0  0  0  0  0  0  0
  161.2950  208.9540  151.9350 C   0  0  0  0  0  0  0  0  0  0  0  0
  160.2090  208.2770  156.4750 C   0  0  0  0  0  3  0  0  0  0  0  0
  161.9500  202.8220  148.0590 C   0  0  0  0  0  2  0  0  0  0  0  0
  162.1400  205.5140  148.1660 C   0  0  2  0  0  3  0  0  0  0  0  0
  160.3450  207.0030  155.6120 C   0  0  0  0  0  3  0  0  0  0  0  0
  161.0470  203.4240  149.0550 N   0  0  0  0  0  2  0  0  0  0  0  0
  160.6810  204.3410  146.4030 C   0  0  1  0  0  3  0  0  0  0  0  0
  161.6540  211.1000  150.8040 C   0  0  0  0  0  3  0  0  0  0  0  0
  161.5980  209.6940  150.7750 C   0  0  0  0  0  0  0  0  0  0  0  0
  161.0480  209.6300  153.1490 C   0  0  0  0  0  3  0  0  0  0  0  0
  161.4750  205.3510  150.5430 C   0  0  0  0  0  2  0  0  0  0  0  0
  160.8310  205.4240  153.1360 O   0  0  0  0  0  1  0  0  0  0  0  0
  160.4560  210.7910  155.9590 C   0  0  0  0  0  1  0  0  0  0  0  0
  161.2340  207.5220  151.8870 C   0  0  0  0  0  0  0  0  0  0  0  0
  160.7500  208.8900  154.2840 C   0  0  0  0  0  0  0  0  0  0  0  0
  160.4270  204.4160  144.9100 C   0  0  0  0  0  2  0  0  0  0  0  0
  159.5860  203.2650  144.4820 C   0  0  0  0  0  0  0  0  0  0  0  0
  159.9760  201.9370  144.8090 N   0  0  0  0  0  1  0  0  0  0  0  0
  158.5460  203.4650  143.8020 O   0  0  0  0  0  0  0  0  0  0  0  0
  1 10  1  0  0  0  0
  1 16  1  1  0  0  0
  2 27  1  0  0  0  0
  3  4  1  0  0  0  0
  4 21  2  0  0  0  0
  5 25  1  0  0  0  0
  5  6  1  0  0  0  0
  6 28  2  0  0  0  0
  6 18  1  0  0  0  0
  7 24  1  1  0  0  0
  8 12  1  0  0  0  0
  9 26  1  0  0  0  0
  9 15  1  0  0  0  0
 10 17  1  0  0  0  0
 11  3  2  0  0  0  0
 11 13  1  0  0  0  0
 12 13  1  0  0  0  0
 12  2  2  0  0  0  0
 13 22  2  0  0  0  0
 14 23  2  0  0  0  0
 16 19  1  0  0  0  0
 17  8  1  0  0  0  0
 17  7  1  0  0  0  0
 18 15  2  0  0  0  0
 19  7  1  0  0  0  0
 20  1  1  0  0  0  0
 20 10  1  0  0  0  0
 22 21  1  0  0  0  0
 22 14  1  0  0  0  0
 23 28  1  0  0  0  0
 24  2  1  0  0  0  0
 27 14  1  0  0  0  0
 27  5  2  0  0  0  0
 28  9  1  0  0  0  0
 29 20  1  0  0  0  0
 30 31  1  0  0  0  0
 30 29  1  0  0  0  0
 32 30  2  0  0  0  0
M  END
>  <MODEL>
4

>  <REMARK>
 VINA RESULT:      -7.6      2.759      7.722
  Name = 
  2 active torsions:
  status: ('A' for Active; 'I' for Inactive)
    1  A    between atoms: C_20  and  C_29
    2  A    between atoms: C_29  and  C_30
                            x       y       z     vdW  Elec       q    Type
                         _______ _______ _______ _____ _____    ______ ____

>  <TORSDO>
F 2

$$$$
=
 OpenBabel11122412543D

 32 38  0  0  1  0  0  0  0  0999 V2000
  161.0820  201.3730  148.8980 C   0  0  1  0  0  3  0  0  0  0  0  0
  161.2910  205.8450  151.6260 C   0  0  0  0  0  0  0  0  0  0  0  0
  162.0340  209.1610  148.1230 C   0  0  0  0  0  3  0  0  0  0  0  0
  161.9570  210.1860  149.0640 C   0  0  0  0  0  3  0  0  0  0  0  0
  160.9850  206.6050  153.9900 C   0  0  0  0  0  0  0  0  0  0  0  0
  160.9240  207.6710  154.8860 C   0  0  0  0  0  0  0  0  0  0  0  0
  160.6560  203.5390  150.8520 C   0  0  1  0  0  3  0  0  0  0  0  0
  161.5910  205.1370  149.2740 N   0  0  0  0  0  2  0  0  0  0  0  0
  160.9710  209.8580  155.5540 N   0  0  0  0  0  0  0  0  0  0  0  0
  161.2790  202.8230  148.4590 C   0  0  2  0  0  3  0  0  0  0  0  0
  161.8920  207.8330  148.5260 C   0  0  0  0  0  3  0  0  0  0  0  0
  161.5320  206.1760  150.2690 C   0  0  0  0  0  0  0  0  0  0  0  0
  161.6700  207.5140  149.8760 C   0  0  0  0  0  0  0  0  0  0  0  0
  161.3680  208.2380  152.1890 C   0  0  0  0  0  0  0  0  0  0  0  0
  160.7340  209.1090  156.7820 C   0  0  0  0  0  3  0  0  0  0  0  0
  161.2230  201.1720  150.4280 C   0  0  0  0  0  2  0  0  0  0  0  0
  161.5900  203.7340  149.6570 C   0  0  2  0  0  3  0  0  0  0  0  0
  160.6960  207.6240  156.3610 C   0  0  0  0  0  3  0  0  0  0  0  0
  160.4710  202.1350  151.2500 N   0  0  0  0  0  2  0  0  0  0  0  0
  159.8810  202.2120  148.4840 C   0  0  1  0  0  3  0  0  0  0  0  0
  161.7380  209.8840  150.4090 C   0  0  0  0  0  3  0  0  0  0  0  0
  161.5910  208.5490  150.8340 C   0  0  0  0  0  0  0  0  0  0  0  0
  161.2950  209.2770  153.1410 C   0  0  0  0  0  3  0  0  0  0  0  0
  161.1740  204.3810  152.0080 C   0  0  0  0  0  2  0  0  0  0  0  0
  160.8160  205.3160  154.4850 O   0  0  0  0  0  1  0  0  0  0  0  0
  161.0800  211.3040  155.4740 C   0  0  0  0  0  1  0  0  0  0  0  0
  161.2140  206.8740  152.6050 C   0  0  0  0  0  0  0  0  0  0  0  0
  161.0740  208.9580  154.4740 C   0  0  0  0  0  0  0  0  0  0  0  0
  159.4750  201.8420  147.0710 C   0  0  0  0  0  2  0  0  0  0  0  0
  160.6850  201.7170  146.2120 C   0  0  0  0  0  0  0  0  0  0  0  0
  161.2430  202.8720  145.5980 N   0  0  0  0  0  1  0  0  0  0  0  0
  161.1940  200.5860  146.0040 O   0  0  0  0  0  0  0  0  0  0  0  0
  1 16  1  1  0  0  0
  2 24  1  0  0  0  0
  2 27  1  0  0  0  0
  3 11  2  0  0  0  0
  3  4  1  0  0  0  0
  4 21  2  0  0  0  0
  5 25  1  0  0  0  0
  5  6  1  0  0  0  0
  6 18  1  0  0  0  0
  7 19  1  0  0  0  0
  7 24  1  1  0  0  0
  8 17  1  0  0  0  0
  8 12  1  0  0  0  0
  9 15  1  0  0  0  0
 10 20  1  0  0  0  0
 10  1  1  0  0  0  0
 10 17  1  0  0  0  0
 11 13  1  0  0  0  0
 12  2  2  0  0  0  0
 13 12  1  0  0  0  0
 13 22  2  0  0  0  0
 14 27  1  0  0  0  0
 14 23  2  0  0  0  0
 16 19  1  0  0  0  0
 17  7  1  0  0  0  0
 18 15  2  0  0  0  0
 20  1  1  0  0  0  0
 21 22  1  0  0  0  0
 22 14  1  0  0  0  0
 23 28  1  0  0  0  0
 26  9  1  0  0  0  0
 27  5  2  0  0  0  0
 28  6  2  0  0  0  0
 28  9  1  0  0  0  0
 29 20  1  0  0  0  0
 30 29  1  0  0  0  0
 31 30  1  0  0  0  0
 32 30  2  0  0  0  0
M  END
>  <MODEL>
5

>  <REMARK>
 VINA RESULT:      -7.4      3.200      8.485
  Name = 
  2 active torsions:
  status: ('A' for Active; 'I' for Inactive)
    1  A    between atoms: C_20  and  C_29
    2  A    between atoms: C_29  and  C_30
                            x       y       z     vdW  Elec       q    Type
                         _______ _______ _______ _____ _____    ______ ____

>  <TORSDO>
F 2

$$$$
=
 OpenBabel11122412543D

 32 38  0  0  1  0  0  0  0  0999 V2000
  161.2690  201.8440  150.1310 C   0  0  1  0  0  3  0  0  0  0  0  0
  161.1270  206.5710  152.3930 C   0  0  0  0  0  0  0  0  0  0  0  0
  162.0830  209.5430  148.6400 C   0  0  0  0  0  3  0  0  0  0  0  0
  161.8990  210.6540  149.4610 C   0  0  0  0  0  3  0  0  0  0  0  0
  160.5990  207.5540  154.6320 C   0  0  0  0  0  0  0  0  0  0  0  0
  160.4330  208.7030  155.4050 C   0  0  0  0  0  0  0  0  0  0  0  0
  160.6210  204.1790  151.8100 C   0  0  1  0  0  3  0  0  0  0  0  0
  161.6470  205.6420  150.1590 N   0  0  0  0  0  2  0  0  0  0  0  0
  160.3660  210.9460  155.8460 N   0  0  0  0  0  0  0  0  0  0  0  0
  161.4650  203.2490  149.5630 C   0  0  2  0  0  3  0  0  0  0  0  0
  161.9410  208.2580  149.1650 C   0  0  0  0  0  3  0  0  0  0  0  0
  161.4750  206.7730  151.0330 C   0  0  0  0  0  0  0  0  0  0  0  0
  161.6120  208.0680  150.5170 C   0  0  0  0  0  0  0  0  0  0  0  0
  161.0940  209.0110  152.7100 C   0  0  0  0  0  0  0  0  0  0  0  0
  160.0440  210.3160  157.1210 C   0  0  0  0  0  3  0  0  0  0  0  0
  161.2830  201.8030  151.6800 C   0  0  0  0  0  2  0  0  0  0  0  0
  161.6490  204.2860  150.6820 C   0  0  2  0  0  3  0  0  0  0  0  0
  160.0810  208.7950  156.8530 C   0  0  0  0  0  3  0  0  0  0  0  0
  160.4380  202.8170  152.3340 N   0  0  0  0  0  2  0  0  0  0  0  0
  160.0870  202.5950  149.5350 C   0  0  1  0  0  3  0  0  0  0  0  0
  161.5720  210.4810  150.8070 C   0  0  0  0  0  3  0  0  0  0  0  0
  161.4240  209.1910  151.3540 C   0  0  0  0  0  0  0  0  0  0  0  0
  160.9120  210.1370  153.5410 C   0  0  0  0  0  3  0  0  0  0  0  0
  161.0160  205.1500  152.9110 C   0  0  0  0  0  2  0  0  0  0  0  0
  160.4210  206.3160  155.2420 O   0  0  0  0  0  1  0  0  0  0  0  0
  160.4450  212.3800  155.6270 C   0  0  0  0  0  1  0  0  0  0  0  0
  160.9400  207.6910  153.2500 C   0  0  0  0  0  0  0  0  0  0  0  0
  160.5860  209.9460  154.8760 C   0  0  0  0  0  0  0  0  0  0  0  0
  159.8140  202.0720  148.1380 C   0  0  0  0  0  2  0  0  0  0  0  0
  161.0880  201.9740  147.3750 C   0  0  0  0  0  0  0  0  0  0  0  0
  161.5880  203.1080  146.6770 N   0  0  0  0  0  1  0  0  0  0  0  0
  161.7070  200.8800  147.3220 O   0  0  0  0  0  0  0  0  0  0  0  0
  1 16  1  1  0  0  0
  2 24  1  0  0  0  0
  2 27  1  0  0  0  0
  3 11  2  0  0  0  0
  3  4  1  0  0  0  0
  4 21  2  0  0  0  0
  5 25  1  0  0  0  0
  5  6  1  0  0  0  0
  6 18  1  0  0  0  0
  7 19  1  0  0  0  0
  7 24  1  1  0  0  0
  8 17  1  0  0  0  0
  8 12  1  0  0  0  0
  9 15  1  0  0  0  0
 10  1  1  0  0  0  0
 10 17  1  0  0  0  0
 11 13  1  0  0  0  0
 12  2  2  0  0  0  0
 13 12  1  0  0  0  0
 13 22  2  0  0  0  0
 14 27  1  0  0  0  0
 14 23  2  0  0  0  0
 16 19  1  0  0  0  0
 17  7  1  0  0  0  0
 18 15  2  0  0  0  0
 20 10  1  0  0  0  0
 20  1  1  0  0  0  0
 21 22  1  0  0  0  0
 22 14  1  0  0  0  0
 23 28  1  0  0  0  0
 26  9  1  0  0  0  0
 27  5  2  0  0  0  0
 28  6  2  0  0  0  0
 28  9  1  0  0  0  0
 29 20  1  0  0  0  0
 30 29  1  0  0  0  0
 31 30  1  0  0  0  0
 32 30  2  0  0  0  0
M  END
>  <MODEL>
6

>  <REMARK>
 VINA RESULT:      -7.0      3.035      8.567
  Name = 
  2 active torsions:
  status: ('A' for Active; 'I' for Inactive)
    1  A    between atoms: C_20  and  C_29
    2  A    between atoms: C_29  and  C_30
                            x       y       z     vdW  Elec       q    Type
                         _______ _______ _______ _____ _____    ______ ____

>  <TORSDO>
F 2

$$$$
=
 OpenBabel11122412543D

 32 38  0  0  1  0  0  0  0  0999 V2000
  162.3610  212.1600  149.7890 C   0  0  1  0  0  3  0  0  0  0  0  0
  161.6720  207.0150  149.0520 C   0  0  0  0  0  0  0  0  0  0  0  0
  161.1540  205.3760  153.6210 C   0  0  0  0  0  3  0  0  0  0  0  0
  160.9100  204.0900  153.1420 C   0  0  0  0  0  3  0  0  0  0  0  0
  161.4240  205.4200  147.1410 C   0  0  0  0  0  0  0  0  0  0  0  0
  161.1790  204.1130  146.7220 C   0  0  0  0  0  0  0  0  0  0  0  0
  161.5870  209.5100  148.7540 C   0  0  1  0  0  3  0  0  0  0  0  0
  161.9020  208.5600  150.9720 N   0  0  0  0  0  2  0  0  0  0  0  0
  160.7200  201.8840  146.9530 N   0  0  0  0  0  0  0  0  0  0  0  0
  162.1240  211.0150  150.7720 C   0  0  2  0  0  3  0  0  0  0  0  0
  161.4080  206.4170  152.7260 C   0  0  0  0  0  3  0  0  0  0  0  0
  161.6770  207.2370  150.4530 C   0  0  0  0  0  0  0  0  0  0  0  0
  161.4180  206.1840  151.3420 C   0  0  0  0  0  0  0  0  0  0  0  0
  161.1780  204.6400  149.4630 C   0  0  0  0  0  0  0  0  0  0  0  0
  160.8160  202.0870  145.5130 C   0  0  0  0  0  3  0  0  0  0  0  0
  162.7070  211.6750  148.3580 C   0  0  0  0  0  2  0  0  0  0  0  0
  162.3080  209.6470  150.0960 C   0  0  2  0  0  3  0  0  0  0  0  0
  161.1260  203.5880  145.3250 C   0  0  0  0  0  3  0  0  0  0  0  0
  161.8180  210.6280  147.8270 N   0  0  0  0  0  2  0  0  0  0  0  0
  160.9460  211.8240  150.2390 C   0  0  1  0  0  3  0  0  0  0  0  0
  160.9170  203.8440  151.7680 C   0  0  0  0  0  3  0  0  0  0  0  0
  161.1700  204.8820  150.8500 C   0  0  0  0  0  0  0  0  0  0  0  0
  160.9340  203.3370  148.9800 C   0  0  0  0  0  3  0  0  0  0  0  0
  161.9830  208.1800  148.1320 C   0  0  0  0  0  2  0  0  0  0  0  0
  161.6510  206.3930  146.1730 O   0  0  0  0  0  1  0  0  0  0  0  0
  160.4380  200.6110  147.5930 C   0  0  0  0  0  1  0  0  0  0  0  0
  161.4300  205.7100  148.5410 C   0  0  0  0  0  0  0  0  0  0  0  0
  160.9430  203.1110  147.6110 C   0  0  0  0  0  0  0  0  0  0  0  0
  160.5070  212.8180  151.2950 C   0  0  0  0  0  2  0  0  0  0  0  0
  159.9950  212.0950  152.4910 C   0  0  0  0  0  0  0  0  0  0  0  0
  159.6820  210.7100  152.4050 N   0  0  0  0  0  1  0  0  0  0  0  0
  159.8090  212.7150  153.5700 O   0  0  0  0  0  0  0  0  0  0  0  0
  1 16  1  6  0  0  0
  1 20  1  0  0  0  0
  1 10  1  0  0  0  0
  2 12  1  0  0  0  0
  4  3  1  0  0  0  0
  5 27  1  0  0  0  0
  6  5  2  0  0  0  0
  6 28  1  0  0  0  0
  7 24  1  6  0  0  0
  7 17  1  0  0  0  0
  9 26  1  0  0  0  0
  9 28  1  0  0  0  0
 11  3  2  0  0  0  0
 12  8  1  0  0  0  0
 12 13  2  0  0  0  0
 13 11  1  0  0  0  0
 14 22  2  0  0  0  0
 15  9  1  0  0  0  0
 17 10  1  0  0  0  0
 17  8  1  0  0  0  0
 18 15  2  0  0  0  0
 18  6  1  0  0  0  0
 19 16  1  0  0  0  0
 19  7  1  0  0  0  0
 20 10  1  0  0  0  0
 20 29  1  0  0  0  0
 21  4  2  0  0  0  0
 22 13  1  0  0  0  0
 22 21  1  0  0  0  0
 23 14  1  0  0  0  0
 24  2  1  0  0  0  0
 25  5  1  0  0  0  0
 27  2  2  0  0  0  0
 27 14  1  0  0  0  0
 28 23  2  0  0  0  0
 29 30  1  0  0  0  0
 30 32  2  0  0  0  0
 31 30  1  0  0  0  0
M  END
>  <MODEL>
7

>  <REMARK>
 VINA RESULT:      -6.7      1.660      2.129
  Name = 
  2 active torsions:
  status: ('A' for Active; 'I' for Inactive)
    1  A    between atoms: C_20  and  C_29
    2  A    between atoms: C_29  and  C_30
                            x       y       z     vdW  Elec       q    Type
                         _______ _______ _______ _____ _____    ______ ____

>  <TORSDO>
F 2

$$$$
