=
 OpenBabel11122413153D

 31 35  0  0  1  0  0  0  0  0999 V2000
  160.4840  207.5910  155.7670 C   0  0  0  0  0  0  0  0  0  0  0  0
  161.9300  208.8440  152.5400 C   0  0  2  0  0  3  0  0  0  0  0  0
  161.4640  207.8870  151.4550 C   0  0  0  0  0  0  0  0  0  0  0  0
  158.3750  212.8150  152.0580 O   0  0  0  0  0  0  0  0  0  0  0  0
  159.3270  213.0090  151.2560 C   0  0  0  0  0  0  0  0  0  0  0  0
  160.7780  205.6420  150.8070 C   0  0  0  0  0  0  0  0  0  0  0  0
  161.0850  208.7510  153.7830 C   0  0  0  0  0  0  0  0  0  0  0  0
  159.4310  208.4810  155.9950 C   0  0  0  0  0  3  0  0  0  0  0  0
  161.1410  206.5630  151.7910 C   0  0  0  0  0  3  0  0  0  0  0  0
  160.7220  211.0590  152.1510 C   0  0  0  0  0  0  0  0  0  0  0  0
  160.7050  206.5700  156.6300 F   0  0  0  0  0  0  0  0  0  0  0  0
  161.8000  209.6560  149.6520 C   0  0  0  0  0  2  0  0  0  0  0  0
  160.3610  204.0030  151.2530 Cl  0  0  0  0  0  0  0  0  0  0  0  0
  159.8570  210.7600  153.0770 N   0  0  0  0  0  0  0  0  0  0  0  0
  162.0400  210.3100  152.0630 C   0  0  2  0  0  3  0  0  0  0  0  0
  160.4970  212.1800  151.2850 N   0  0  0  0  0  2  0  0  0  0  0  0
  161.2770  207.7380  154.6720 N   0  0  0  0  0  0  0  0  0  0  0  0
  160.7510  206.0300  149.4670 C   0  0  0  0  0  3  0  0  0  0  0  0
  160.0460  209.6720  153.9870 C   0  0  0  0  0  0  0  0  0  0  0  0
  159.2140  209.5280  155.0970 C   0  0  0  0  0  3  0  0  0  0  0  0
  162.6720  210.3790  150.6730 C   0  0  0  0  0  2  0  0  0  0  0  0
  161.4720  208.2600  150.0890 C   0  0  0  0  0  0  0  0  0  0  0  0
  161.0950  207.3350  149.1110 C   0  0  0  0  0  3  0  0  0  0  0  0
  157.9610  213.3020  147.7320 N   0  0  0  0  0  0  0  0  0  0  0  0
  157.7400  214.4040  149.9140 C   0  0  0  0  0  2  0  0  0  0  0  0
  161.3070  213.4260  149.2450 O   0  0  0  0  0  1  0  0  0  0  0  0
  157.3580  212.2820  146.8930 C   0  0  0  0  0  1  0  0  0  0  0  0
  157.1720  213.3480  148.9620 C   0  0  0  0  0  2  0  0  0  0  0  0
  160.0110  213.8530  148.9520 C   0  0  2  0  0  3  0  0  0  0  0  0
  159.2070  214.1090  150.2390 C   0  0  2  0  0  3  0  0  0  0  0  0
  159.3060  212.8340  148.0570 C   0  0  0  0  0  2  0  0  0  0  0  0
  1  8  1  0  0  0  0
  1 11  1  0  0  0  0
  2  3  1  6  0  0  0
  2  7  1  0  0  0  0
  3  9  1  0  0  0  0
  5 16  1  0  0  0  0
  5  4  2  0  0  0  0
  6 13  1  0  0  0  0
  6  9  2  0  0  0  0
  7 19  2  0  0  0  0
  7 17  1  0  0  0  0
 10 14  2  0  0  0  0
 12 22  1  0  0  0  0
 12 21  1  0  0  0  0
 14 19  1  0  0  0  0
 15 21  1  6  0  0  0
 15 10  1  0  0  0  0
 15  2  1  0  0  0  0
 16 10  1  0  0  0  0
 17  1  2  0  0  0  0
 18  6  1  0  0  0  0
 19 20  1  0  0  0  0
 20  8  2  0  0  0  0
 22  3  2  0  0  0  0
 23 18  2  0  0  0  0
 23 22  1  0  0  0  0
 24 31  1  0  0  0  0
 24 28  1  0  0  0  0
 25 30  1  0  0  0  0
 27 24  1  0  0  0  0
 28 25  1  0  0  0  0
 29 26  1  1  0  0  0
 29 30  1  0  0  0  0
 30  5  1  1  0  0  0
 31 29  1  0  0  0  0
M  END
>  <MODEL>
1

>  <REMARK>
 VINA RESULT:      -7.1      0.000      0.000
  Name = 
  1 active torsions:
  status: ('A' for Active; 'I' for Inactive)
    1  A    between atoms: C_5  and  C_30
                            x       y       z     vdW  Elec       q    Type
                         _______ _______ _______ _____ _____    ______ ____

>  <TORSDO>
F 1

$$$$
=
 OpenBabel11122413153D

 31 35  0  0  1  0  0  0  0  0999 V2000
  162.3390  213.8170  146.7850 C   0  0  0  0  0  0  0  0  0  0  0  0
  159.9310  214.4460  149.5930 C   0  0  2  0  0  3  0  0  0  0  0  0
  158.5380  214.2140  149.0300 C   0  0  0  0  0  0  0  0  0  0  0  0
  160.9100  209.7550  151.9770 O   0  0  0  0  0  0  0  0  0  0  0  0
  160.2880  210.5050  152.7750 C   0  0  0  0  0  0  0  0  0  0  0  0
  157.0290  214.2430  147.1200 C   0  0  0  0  0  0  0  0  0  0  0  0
  161.0000  213.8050  148.7480 C   0  0  0  0  0  0  0  0  0  0  0  0
  162.8570  212.5590  147.1040 C   0  0  0  0  0  3  0  0  0  0  0  0
  158.3110  214.3790  147.6550 C   0  0  0  0  0  3  0  0  0  0  0  0
  160.3990  212.5440  151.2330 C   0  0  0  0  0  0  0  0  0  0  0  0
  162.7380  214.4460  145.6540 F   0  0  0  0  0  0  0  0  0  0  0  0
  157.5960  213.7700  151.3560 C   0  0  0  0  0  2  0  0  0  0  0  0
  156.7740  214.4330  145.3990 Cl  0  0  0  0  0  0  0  0  0  0  0  0
  161.0950  211.9220  150.3260 N   0  0  0  0  0  0  0  0  0  0  0  0
  160.0760  214.0200  151.0720 C   0  0  2  0  0  3  0  0  0  0  0  0
  160.0370  211.8790  152.4510 N   0  0  0  0  0  2  0  0  0  0  0  0
  161.4250  214.4060  147.6020 N   0  0  0  0  0  0  0  0  0  0  0  0
  155.9510  213.9570  147.9580 C   0  0  0  0  0  3  0  0  0  0  0  0
  161.5080  212.5470  149.1060 C   0  0  0  0  0  0  0  0  0  0  0  0
  162.4360  211.9230  148.2730 C   0  0  0  0  0  3  0  0  0  0  0  0
  158.8530  214.4530  151.8810 C   0  0  0  0  0  2  0  0  0  0  0  0
  157.4320  213.9640  149.8780 C   0  0  0  0  0  0  0  0  0  0  0  0
  156.1530  213.8170  149.3320 C   0  0  0  0  0  3  0  0  0  0  0  0
  161.4970  210.4610  156.3670 N   0  0  0  0  0  0  0  0  0  0  0  0
  159.4850  211.0380  155.0850 C   0  0  0  0  0  2  0  0  0  0  0  0
  161.1240  207.9450  153.7150 O   0  0  0  0  0  1  0  0  0  0  0  0
  162.7010  211.0360  156.9380 C   0  0  0  0  0  1  0  0  0  0  0  0
  160.7780  211.5560  155.7200 C   0  0  0  0  0  2  0  0  0  0  0  0
  160.7160  208.8690  154.6780 C   0  0  2  0  0  3  0  0  0  0  0  0
  159.7850  209.9310  154.0690 C   0  0  2  0  0  3  0  0  0  0  0  0
  161.9320  209.5170  155.3410 C   0  0  0  0  0  2  0  0  0  0  0  0
  1  8  2  0  0  0  0
  1 17  1  0  0  0  0
  2  7  1  6  0  0  0
  2 15  1  0  0  0  0
  3  2  1  0  0  0  0
  3 22  1  0  0  0  0
  4  5  2  0  0  0  0
  6  9  1  0  0  0  0
  6 18  2  0  0  0  0
  7 19  1  0  0  0  0
  8 20  1  0  0  0  0
  9  3  2  0  0  0  0
 10 16  1  0  0  0  0
 11  1  1  0  0  0  0
 12 21  1  0  0  0  0
 13  6  1  0  0  0  0
 14 10  2  0  0  0  0
 15 10  1  0  0  0  0
 15 21  1  1  0  0  0
 16  5  1  0  0  0  0
 17  7  2  0  0  0  0
 18 23  1  0  0  0  0
 19 14  1  0  0  0  0
 20 19  2  0  0  0  0
 22 12  1  0  0  0  0
 23 22  2  0  0  0  0
 24 27  1  0  0  0  0
 25 28  1  0  0  0  0
 28 24  1  0  0  0  0
 29 26  1  6  0  0  0
 29 31  1  0  0  0  0
 30  5  1  6  0  0  0
 30 29  1  0  0  0  0
 30 25  1  0  0  0  0
 31 24  1  0  0  0  0
M  END
>  <MODEL>
2

>  <REMARK>
 VINA RESULT:      -5.5      4.290      7.982
  Name = 
  1 active torsions:
  status: ('A' for Active; 'I' for Inactive)
    1  A    between atoms: C_5  and  C_30
                            x       y       z     vdW  Elec       q    Type
                         _______ _______ _______ _____ _____    ______ ____

>  <TORSDO>
F 1

$$$$
=
 OpenBabel11122413153D

 31 35  0  0  1  0  0  0  0  0999 V2000
  162.2230  213.4940  147.1210 C   0  0  0  0  0  0  0  0  0  0  0  0
  159.8790  214.3310  149.9280 C   0  0  2  0  0  3  0  0  0  0  0  0
  158.4700  214.1830  149.3760 C   0  0  0  0  0  0  0  0  0  0  0  0
  160.5580  209.6300  152.3930 O   0  0  0  0  0  0  0  0  0  0  0  0
  159.9930  210.4350  153.1810 C   0  0  0  0  0  0  0  0  0  0  0  0
  156.9550  214.2770  147.4730 C   0  0  0  0  0  0  0  0  0  0  0  0
  160.8980  213.6060  149.0900 C   0  0  0  0  0  0  0  0  0  0  0  0
  162.6570  212.2100  147.4610 C   0  0  0  0  0  3  0  0  0  0  0  0
  158.2460  214.3370  147.9990 C   0  0  0  0  0  3  0  0  0  0  0  0
  160.2290  212.4330  151.6010 C   0  0  0  0  0  0  0  0  0  0  0  0
  162.6550  214.0740  145.9760 F   0  0  0  0  0  0  0  0  0  0  0  0
  157.5140  213.8450  151.7140 C   0  0  0  0  0  2  0  0  0  0  0  0
  156.7030  214.4530  145.7500 Cl  0  0  0  0  0  0  0  0  0  0  0  0
  160.8770  211.7500  150.7020 N   0  0  0  0  0  0  0  0  0  0  0  0
  160.0040  213.9240  151.4140 C   0  0  2  0  0  3  0  0  0  0  0  0
  159.8310  211.8160  152.8320 N   0  0  0  0  0  2  0  0  0  0  0  0
  161.3540  214.1570  147.9320 N   0  0  0  0  0  0  0  0  0  0  0  0
  155.8650  214.0790  148.3220 C   0  0  0  0  0  3  0  0  0  0  0  0
  161.3230  212.3240  149.4690 C   0  0  0  0  0  0  0  0  0  0  0  0
  162.2030  211.6240  148.6430 C   0  0  0  0  0  3  0  0  0  0  0  0
  158.8180  214.4520  152.2210 C   0  0  0  0  0  2  0  0  0  0  0  0
  157.3550  214.0220  150.2340 C   0  0  0  0  0  0  0  0  0  0  0  0
  156.0660  213.9510  149.6970 C   0  0  0  0  0  3  0  0  0  0  0  0
  159.7480  211.7700  156.7190 N   0  0  0  0  0  0  0  0  0  0  0  0
  158.3050  210.7870  154.9950 C   0  0  0  0  0  2  0  0  0  0  0  0
  161.6650  209.1040  155.0700 O   0  0  0  0  0  1  0  0  0  0  0  0
  160.1970  213.0430  157.2540 C   0  0  0  0  0  1  0  0  0  0  0  0
  158.8320  212.0790  155.6230 C   0  0  0  0  0  2  0  0  0  0  0  0
  160.5380  209.7550  155.5740 C   0  0  2  0  0  3  0  0  0  0  0  0
  159.4600  209.9190  154.4880 C   0  0  2  0  0  3  0  0  0  0  0  0
  160.9280  211.1080  156.1700 C   0  0  0  0  0  2  0  0  0  0  0  0
  1  8  2  0  0  0  0
  1 17  1  0  0  0  0
  2  7  1  6  0  0  0
  2 15  1  0  0  0  0
  3  2  1  0  0  0  0
  3 22  1  0  0  0  0
  4  5  2  0  0  0  0
  6  9  1  0  0  0  0
  6 18  2  0  0  0  0
  7 19  1  0  0  0  0
  8 20  1  0  0  0  0
  9  3  2  0  0  0  0
 10 16  1  0  0  0  0
 11  1  1  0  0  0  0
 12 21  1  0  0  0  0
 13  6  1  0  0  0  0
 14 10  2  0  0  0  0
 15 10  1  0  0  0  0
 15 21  1  1  0  0  0
 16  5  1  0  0  0  0
 17  7  2  0  0  0  0
 18 23  1  0  0  0  0
 19 14  1  0  0  0  0
 20 19  2  0  0  0  0
 22 12  1  0  0  0  0
 23 22  2  0  0  0  0
 24 27  1  0  0  0  0
 25 28  1  0  0  0  0
 28 24  1  0  0  0  0
 29 26  1  6  0  0  0
 29 31  1  0  0  0  0
 30  5  1  6  0  0  0
 30 25  1  0  0  0  0
 30 29  1  0  0  0  0
 31 24  1  0  0  0  0
M  END
>  <MODEL>
3

>  <REMARK>
 VINA RESULT:      -5.2      4.329      7.790
  Name = 
  1 active torsions:
  status: ('A' for Active; 'I' for Inactive)
    1  A    between atoms: C_5  and  C_30
                            x       y       z     vdW  Elec       q    Type
                         _______ _______ _______ _____ _____    ______ ____

>  <TORSDO>
F 1

$$$$
=
 OpenBabel11122413153D

 31 35  0  0  1  0  0  0  0  0999 V2000
  162.4680  207.8520  139.9360 C   0  0  0  0  0  0  0  0  0  0  0  0
  161.0880  211.2940  140.5050 C   0  0  2  0  0  3  0  0  0  0  0  0
  161.9960  212.2560  139.7550 C   0  0  0  0  0  0  0  0  0  0  0  0
  157.0810  210.6680  137.0130 O   0  0  0  0  0  0  0  0  0  0  0  0
  156.8590  211.6840  137.7230 C   0  0  0  0  0  0  0  0  0  0  0  0
  164.2070  212.7880  138.8870 C   0  0  0  0  0  0  0  0  0  0  0  0
  161.2280  209.8780  140.0150 C   0  0  0  0  0  0  0  0  0  0  0  0
  161.5820  207.3210  138.9960 C   0  0  0  0  0  3  0  0  0  0  0  0
  163.3310  211.8980  139.5110 C   0  0  0  0  0  3  0  0  0  0  0  0
  158.8510  211.2640  139.2720 C   0  0  0  0  0  0  0  0  0  0  0  0
  163.5250  207.1190  140.3610 F   0  0  0  0  0  0  0  0  0  0  0  0
  160.1530  214.0120  139.6340 C   0  0  0  0  0  2  0  0  0  0  0  0
  165.8620  212.3130  138.5760 Cl  0  0  0  0  0  0  0  0  0  0  0  0
  159.1850  210.1560  138.6770 N   0  0  0  0  0  0  0  0  0  0  0  0
  159.6030  211.7250  140.5090 C   0  0  2  0  0  3  0  0  0  0  0  0
  157.6940  211.9960  138.8460 N   0  0  0  0  0  2  0  0  0  0  0  0
  162.2790  209.1110  140.4170 N   0  0  0  0  0  0  0  0  0  0  0  0
  163.7630  214.0580  138.5150 C   0  0  0  0  0  3  0  0  0  0  0  0
  160.3120  209.3720  139.0810 C   0  0  0  0  0  0  0  0  0  0  0  0
  160.4980  208.0880  138.5670 C   0  0  0  0  0  3  0  0  0  0  0  0
  159.4780  213.2290  140.7550 C   0  0  0  0  0  2  0  0  0  0  0  0
  161.5650  213.5590  139.4100 C   0  0  0  0  0  0  0  0  0  0  0  0
  162.4460  214.4400  138.7750 C   0  0  0  0  0  3  0  0  0  0  0  0
  154.5970  214.0770  139.6000 N   0  0  0  0  0  0  0  0  0  0  0  0
  156.0630  214.0550  137.6320 C   0  0  0  0  0  2  0  0  0  0  0  0
  154.1420  210.8380  137.9250 O   0  0  0  0  0  1  0  0  0  0  0  0
  154.5760  214.4030  141.0140 C   0  0  0  0  0  1  0  0  0  0  0  0
  155.9480  214.3710  139.1250 C   0  0  0  0  0  2  0  0  0  0  0  0
  154.3860  212.2080  138.0320 C   0  0  2  0  0  3  0  0  0  0  0  0
  155.7160  212.5890  137.3580 C   0  0  2  0  0  3  0  0  0  0  0  0
  154.3690  212.6380  139.4990 C   0  0  0  0  0  2  0  0  0  0  0  0
  1 11  1  0  0  0  0
  1 17  1  0  0  0  0
  2  3  1  6  0  0  0
  2 15  1  0  0  0  0
  4  5  2  0  0  0  0
  5 16  1  0  0  0  0
  6  9  2  0  0  0  0
  7 17  2  0  0  0  0
  7  2  1  0  0  0  0
  8  1  2  0  0  0  0
  9  3  1  0  0  0  0
 10 15  1  0  0  0  0
 12 21  1  0  0  0  0
 13  6  1  0  0  0  0
 14 19  1  0  0  0  0
 14 10  2  0  0  0  0
 15 21  1  6  0  0  0
 16 10  1  0  0  0  0
 18 23  2  0  0  0  0
 18  6  1  0  0  0  0
 19  7  1  0  0  0  0
 20  8  1  0  0  0  0
 20 19  2  0  0  0  0
 22 12  1  0  0  0  0
 22  3  2  0  0  0  0
 23 22  1  0  0  0  0
 24 27  1  0  0  0  0
 25 28  1  0  0  0  0
 28 24  1  0  0  0  0
 29 26  1  1  0  0  0
 29 31  1  0  0  0  0
 30 25  1  0  0  0  0
 30  5  1  1  0  0  0
 30 29  1  0  0  0  0
 31 24  1  0  0  0  0
M  END
>  <MODEL>
4

>  <REMARK>
 VINA RESULT:      -4.6     11.946     13.332
  Name = 
  1 active torsions:
  status: ('A' for Active; 'I' for Inactive)
    1  A    between atoms: C_5  and  C_30
                            x       y       z     vdW  Elec       q    Type
                         _______ _______ _______ _____ _____    ______ ____

>  <TORSDO>
F 1

$$$$
