=
 OpenBabel11122414423D

 34 38  0  0  1  0  0  0  0  0999 V2000
  161.1360  207.4970  152.8610 C   0  0  2  0  0  3  0  0  0  0  0  0
  161.9960  205.2500  152.6710 O   0  0  0  0  0  0  0  0  0  0  0  0
  160.2670  209.8490  152.9090 C   0  0  0  0  0  2  0  0  0  0  0  0
  162.2460  206.5710  150.7560 C   0  0  2  0  0  3  0  0  0  0  0  0
  161.4080  205.3940  148.0340 C   0  0  0  0  0  2  0  0  0  0  0  0
  161.3610  207.6590  150.1010 C   0  0  1  0  0  3  0  0  0  0  0  0
  161.2550  204.7000  151.7150 O   0  0  0  0  0  0  0  0  0  0  0  0
  160.8280  204.9020  149.3530 C   0  0  2  0  0  3  0  0  0  0  0  0
  161.3590  208.9310  152.3720 C   0  0  2  0  0  3  0  0  0  0  0  0
  161.4370  209.0190  150.8380 C   0  0  1  0  0  3  0  0  0  0  0  0
  160.0660  208.3860  154.9380 C   0  0  0  0  0  2  0  0  0  0  0  0
  160.9440  206.8140  147.7610 C   0  0  0  0  0  2  0  0  0  0  0  0
  160.2660  209.8150  154.4360 C   0  0  0  0  0  2  0  0  0  0  0  0
  161.6920  207.8210  148.6200 C   0  0  0  0  0  2  0  0  0  0  0  0
  161.8120  205.1390  150.5060 C   0  0  1  0  0  3  0  0  0  0  0  0
  161.1580  207.4710  154.3880 C   0  0  0  0  0  2  0  0  0  0  0  0
  162.2160  206.5800  152.2760 C   0  0  1  0  0  3  0  0  0  0  0  0
  162.4580  209.8860  150.3830 O   0  0  0  0  0  0  0  0  0  0  0  0
  161.8940  211.1370  150.0850 C   0  0  0  0  0  2  0  0  0  0  0  0
  163.3170  211.8510  148.3040 O   0  0  0  0  0  1  0  0  0  0  0  0
  162.0210  211.4240  148.6000 C   0  0  2  0  0  3  0  0  0  0  0  0
  160.9980  212.4780  148.1790 C   0  0  1  0  0  3  0  0  0  0  0  0
  161.1310  213.6270  148.9620 O   0  0  0  0  0  1  0  0  0  0  0  0
  161.1590  212.8420  146.7120 C   0  0  0  0  0  2  0  0  0  0  0  0
  159.9780  212.3360  145.9050 C   0  0  1  0  0  3  0  0  0  0  0  0
  158.7890  212.7420  146.5370 O   0  0  0  0  0  0  0  0  0  0  0  0
  159.1840  213.4790  145.4070 C   0  0  0  0  0  2  0  0  0  0  0  0
  160.5200  203.4180  149.2400 C   0  0  0  0  0  2  0  0  0  0  0  0
  161.4690  202.7550  148.2560 C   0  0  0  0  0  2  0  0  0  0  0  0
  160.7720  201.6060  147.5350 C   0  0  1  0  0  3  0  0  0  0  0  0
  161.3560  202.9360  145.6060 O   0  0  0  0  0  1  0  0  0  0  0  0
  160.4980  201.9350  146.0700 C   0  0  0  0  0  2  0  0  0  0  0  0
  161.4790  200.2590  147.7170 C   0  0  0  0  0  2  0  0  0  0  0  0
  161.5070  199.4280  146.4430 C   0  0  0  0  0  1  0  0  0  0  0  0
  1 16  1  1  0  0  0
  3 13  1  0  0  0  0
  4 17  1  0  0  0  0
  5  8  1  0  0  0  0
  6  4  1  0  0  0  0
  6 10  1  0  0  0  0
  7  2  1  0  0  0  0
  8 15  1  0  0  0  0
  9  1  1  0  0  0  0
  9  3  1  0  0  0  0
 10  9  1  0  0  0  0
 12  5  1  0  0  0  0
 12 14  1  0  0  0  0
 13 11  1  0  0  0  0
 14  6  1  0  0  0  0
 15  4  1  0  0  0  0
 15  7  1  0  0  0  0
 16 11  1  0  0  0  0
 17  2  1  0  0  0  0
 17  1  1  0  0  0  0
 18 10  1  0  0  0  0
 19 18  1  0  0  0  0
 20 21  1  0  0  0  0
 21 19  1  0  0  0  0
 22 21  1  0  0  0  0
 22 23  1  0  0  0  0
 24 22  1  0  0  0  0
 25 26  1  0  0  0  0
 25 24  1  0  0  0  0
 27 25  1  0  0  0  0
 27 26  1  0  0  0  0
 28  8  1  0  0  0  0
 29 28  1  0  0  0  0
 30 33  1  0  0  0  0
 30 29  1  0  0  0  0
 31 32  1  0  0  0  0
 32 30  1  0  0  0  0
 34 33  1  0  0  0  0
M  END
>  <MODEL>
1

>  <REMARK>
 VINA RESULT:      -7.8      0.000      0.000
  Name = 
  11 active torsions:
  status: ('A' for Active; 'I' for Inactive)
    1  A    between atoms: C_3  and  C_16
    2  A    between atoms: C_3  and  C_19
    3  A    between atoms: C_5  and  O_11
    4  A    between atoms: C_5  and  C_19
    5  A    between atoms: C_8  and  C_16
    6  A    between atoms: O_11  and  C_20
    7  A    between atoms: C_17  and  C_28
    8  A    between atoms: C_28  and  C_29
    9  A    between atoms: C_29  and  C_32
   10  A    between atoms: C_31  and  C_32
   11  A    between atoms: C_32  and  C_34
                            x       y       z     vdW  Elec       q    Type
                         _______ _______ _______ _____ _____    ______ ____

>  <TORSDO>
F 11

$$$$
=
 OpenBabel11122414423D

 34 38  0  0  1  0  0  0  0  0999 V2000
  161.0180  208.0380  153.0970 C   0  0  2  0  0  3  0  0  0  0  0  0
  161.9130  205.7970  153.1020 O   0  0  0  0  0  0  0  0  0  0  0  0
  160.1160  210.3730  152.9410 C   0  0  0  0  0  2  0  0  0  0  0  0
  162.1930  206.9700  151.0980 C   0  0  2  0  0  3  0  0  0  0  0  0
  161.4410  205.5740  148.4550 C   0  0  0  0  0  2  0  0  0  0  0  0
  161.3100  207.9910  150.3390 C   0  0  1  0  0  3  0  0  0  0  0  0
  161.2040  205.1630  152.1740 O   0  0  0  0  0  0  0  0  0  0  0  0
  160.8350  205.1770  149.7940 C   0  0  2  0  0  3  0  0  0  0  0  0
  161.2340  209.4340  152.5040 C   0  0  2  0  0  3  0  0  0  0  0  0
  161.3490  209.4040  150.9700 C   0  0  1  0  0  3  0  0  0  0  0  0
  159.8830  209.0680  155.0730 C   0  0  0  0  0  2  0  0  0  0  0  0
  160.9650  206.9620  148.0610 C   0  0  0  0  0  2  0  0  0  0  0  0
  160.0760  210.4570  154.4660 C   0  0  0  0  0  2  0  0  0  0  0  0
  161.6770  208.0430  148.8580 C   0  0  0  0  0  2  0  0  0  0  0  0
  161.7850  205.5160  150.9490 C   0  0  1  0  0  3  0  0  0  0  0  0
  161.0020  208.1300  154.6220 C   0  0  0  0  0  2  0  0  0  0  0  0
  162.1240  207.0950  152.6110 C   0  0  1  0  0  3  0  0  0  0  0  0
  162.3690  210.2490  150.4750 O   0  0  0  0  0  0  0  0  0  0  0  0
  161.7940  211.4570  150.0490 C   0  0  0  0  0  2  0  0  0  0  0  0
  163.2440  212.0210  148.2360 O   0  0  0  0  0  1  0  0  0  0  0  0
  161.9470  211.6050  148.5460 C   0  0  2  0  0  3  0  0  0  0  0  0
  160.9200  212.6000  148.0080 C   0  0  1  0  0  3  0  0  0  0  0  0
  161.3170  213.9100  148.2890 O   0  0  0  0  0  1  0  0  0  0  0  0
  160.7330  212.4370  146.5080 C   0  0  0  0  0  2  0  0  0  0  0  0
  161.3550  213.6040  145.7650 C   0  0  1  0  0  3  0  0  0  0  0  0
  162.4880  213.1460  145.0680 O   0  0  0  0  0  0  0  0  0  0  0  0
  161.3220  213.3460  144.3090 C   0  0  0  0  0  2  0  0  0  0  0  0
  160.5490  203.6830  149.7880 C   0  0  0  0  0  2  0  0  0  0  0  0
  161.1570  203.0340  148.5560 C   0  0  0  0  0  2  0  0  0  0  0  0
  161.2130  201.5200  148.7240 C   0  0  1  0  0  3  0  0  0  0  0  0
  158.9060  201.0780  149.2860 O   0  0  0  0  0  1  0  0  0  0  0  0
  160.2170  201.0260  149.7690 C   0  0  0  0  0  2  0  0  0  0  0  0
  161.1080  200.7590  147.3990 C   0  0  0  0  0  2  0  0  0  0  0  0
  160.7500  201.6590  146.2260 C   0  0  0  0  0  1  0  0  0  0  0  0
  1 16  1  1  0  0  0
  3 13  1  0  0  0  0
  4 17  1  0  0  0  0
  5  8  1  0  0  0  0
  6 10  1  0  0  0  0
  6  4  1  0  0  0  0
  7  2  1  0  0  0  0
  8 15  1  0  0  0  0
  9  3  1  0  0  0  0
  9  1  1  0  0  0  0
 10  9  1  0  0  0  0
 12  5  1  0  0  0  0
 12 14  1  0  0  0  0
 13 11  1  0  0  0  0
 14  6  1  0  0  0  0
 15  4  1  0  0  0  0
 15  7  1  0  0  0  0
 16 11  1  0  0  0  0
 17  1  1  0  0  0  0
 17  2  1  0  0  0  0
 18 10  1  0  0  0  0
 19 18  1  0  0  0  0
 20 21  1  0  0  0  0
 21 19  1  0  0  0  0
 22 23  1  0  0  0  0
 22 21  1  0  0  0  0
 24 22  1  0  0  0  0
 25 24  1  0  0  0  0
 26 25  1  0  0  0  0
 27 26  1  0  0  0  0
 27 25  1  0  0  0  0
 28  8  1  0  0  0  0
 29 30  1  0  0  0  0
 29 28  1  0  0  0  0
 30 32  1  0  0  0  0
 31 32  1  0  0  0  0
 33 30  1  0  0  0  0
 34 33  1  0  0  0  0
M  END
>  <MODEL>
2

>  <REMARK>
 VINA RESULT:      -7.8      1.306      1.514
  Name = 
  11 active torsions:
  status: ('A' for Active; 'I' for Inactive)
    1  A    between atoms: C_3  and  C_16
    2  A    between atoms: C_3  and  C_19
    3  A    between atoms: C_5  and  O_11
    4  A    between atoms: C_5  and  C_19
    5  A    between atoms: C_8  and  C_16
    6  A    between atoms: O_11  and  C_20
    7  A    between atoms: C_17  and  C_28
    8  A    between atoms: C_28  and  C_29
    9  A    between atoms: C_29  and  C_32
   10  A    between atoms: C_31  and  C_32
   11  A    between atoms: C_32  and  C_34
                            x       y       z     vdW  Elec       q    Type
                         _______ _______ _______ _____ _____    ______ ____

>  <TORSDO>
F 11

$$$$
=
 OpenBabel11122414423D

 34 38  0  0  1  0  0  0  0  0999 V2000
  161.4180  207.5860  149.5510 C   0  0  2  0  0  3  0  0  0  0  0  0
  160.3830  206.1020  147.9540 O   0  0  0  0  0  0  0  0  0  0  0  0
  162.4730  209.0210  151.3170 C   0  0  0  0  0  2  0  0  0  0  0  0
  160.2860  205.3850  150.1790 C   0  0  2  0  0  3  0  0  0  0  0  0
  161.0890  202.4820  150.8300 C   0  0  0  0  0  2  0  0  0  0  0  0
  161.2720  205.4960  151.3690 C   0  0  1  0  0  3  0  0  0  0  0  0
  161.0990  204.9860  148.0390 O   0  0  0  0  0  0  0  0  0  0  0  0
  161.5960  203.2160  149.5960 C   0  0  2  0  0  3  0  0  0  0  0  0
  161.3230  208.0720  151.0010 C   0  0  2  0  0  3  0  0  0  0  0  0
  161.2890  206.9070  152.0050 C   0  0  1  0  0  3  0  0  0  0  0  0
  162.5070  209.7440  148.9140 C   0  0  0  0  0  2  0  0  0  0  0  0
  161.6730  203.1100  152.0830 C   0  0  0  0  0  2  0  0  0  0  0  0
  162.4360  210.2150  150.3650 C   0  0  0  0  0  2  0  0  0  0  0  0
  160.9890  204.4250  152.4200 C   0  0  0  0  0  2  0  0  0  0  0  0
  160.6080  204.3060  149.1620 C   0  0  1  0  0  3  0  0  0  0  0  0
  161.3570  208.7860  148.6070 C   0  0  0  0  0  2  0  0  0  0  0  0
  160.2810  206.5990  149.2640 C   0  0  1  0  0  3  0  0  0  0  0  0
  160.3520  207.1010  153.0470 O   0  0  0  0  0  0  0  0  0  0  0  0
  161.0160  206.9990  154.2810 C   0  0  0  0  0  2  0  0  0  0  0  0
  161.7580  208.2940  156.1460 O   0  0  0  0  0  1  0  0  0  0  0  0
  161.3240  208.3840  154.8210 C   0  0  2  0  0  3  0  0  0  0  0  0
  160.0870  209.2750  154.7210 C   0  0  1  0  0  3  0  0  0  0  0  0
  159.5430  209.5000  155.9880 O   0  0  0  0  0  1  0  0  0  0  0  0
  160.4230  210.6060  154.0680 C   0  0  0  0  0  2  0  0  0  0  0  0
  159.5840  210.8140  152.8210 C   0  0  1  0  0  3  0  0  0  0  0  0
  158.5920  211.7730  153.0950 O   0  0  0  0  0  0  0  0  0  0  0  0
  159.7070  212.2130  152.3610 C   0  0  0  0  0  2  0  0  0  0  0  0
  161.7860  202.2180  148.4650 C   0  0  0  0  0  2  0  0  0  0  0  0
  160.4620  201.5630  148.1110 C   0  0  0  0  0  2  0  0  0  0  0  0
  160.5420  200.9090  146.7350 C   0  0  1  0  0  3  0  0  0  0  0  0
  159.7470  201.7910  144.6320 O   0  0  0  0  0  1  0  0  0  0  0  0
  160.7200  201.9410  145.6250 C   0  0  0  0  0  2  0  0  0  0  0  0
  161.5700  199.7760  146.6620 C   0  0  0  0  0  2  0  0  0  0  0  0
  161.2570  198.7620  145.5700 C   0  0  0  0  0  1  0  0  0  0  0  0
  1 16  1  6  0  0  0
  1  9  1  0  0  0  0
  2  7  1  0  0  0  0
  2 17  1  0  0  0  0
  4  6  1  0  0  0  0
  5 12  1  0  0  0  0
  6 10  1  0  0  0  0
  6 14  1  0  0  0  0
  7 15  1  0  0  0  0
  8  5  1  0  0  0  0
  9  3  1  0  0  0  0
  9 10  1  0  0  0  0
 10 18  1  0  0  0  0
 11 13  1  0  0  0  0
 12 14  1  0  0  0  0
 13  3  1  0  0  0  0
 15  8  1  0  0  0  0
 15  4  1  0  0  0  0
 16 11  1  0  0  0  0
 17  1  1  0  0  0  0
 17  4  1  0  0  0  0
 18 19  1  0  0  0  0
 19 21  1  0  0  0  0
 21 20  1  0  0  0  0
 22 21  1  0  0  0  0
 22 23  1  0  0  0  0
 24 22  1  0  0  0  0
 25 26  1  0  0  0  0
 25 24  1  0  0  0  0
 27 25  1  0  0  0  0
 27 26  1  0  0  0  0
 28  8  1  0  0  0  0
 29 28  1  0  0  0  0
 30 29  1  0  0  0  0
 31 32  1  0  0  0  0
 32 30  1  0  0  0  0
 33 30  1  0  0  0  0
 34 33  1  0  0  0  0
M  END
>  <MODEL>
3

>  <REMARK>
 VINA RESULT:      -6.8      2.788      4.842
  Name = 
  11 active torsions:
  status: ('A' for Active; 'I' for Inactive)
    1  A    between atoms: C_3  and  C_16
    2  A    between atoms: C_3  and  C_19
    3  A    between atoms: C_5  and  O_11
    4  A    between atoms: C_5  and  C_19
    5  A    between atoms: C_8  and  C_16
    6  A    between atoms: O_11  and  C_20
    7  A    between atoms: C_17  and  C_28
    8  A    between atoms: C_28  and  C_29
    9  A    between atoms: C_29  and  C_32
   10  A    between atoms: C_31  and  C_32
   11  A    between atoms: C_32  and  C_34
                            x       y       z     vdW  Elec       q    Type
                         _______ _______ _______ _____ _____    ______ ____

>  <TORSDO>
F 11

$$$$
=
 OpenBabel11122414423D

 34 38  0  0  1  0  0  0  0  0999 V2000
  160.8060  206.9260  153.8930 C   0  0  2  0  0  3  0  0  0  0  0  0
  161.8820  204.9040  153.1340 O   0  0  0  0  0  0  0  0  0  0  0  0
  159.7230  209.0920  154.5470 C   0  0  0  0  0  2  0  0  0  0  0  0
  162.1690  206.7600  151.7410 C   0  0  2  0  0  3  0  0  0  0  0  0
  161.6760  206.4240  148.7170 C   0  0  0  0  0  2  0  0  0  0  0  0
  161.2460  207.9400  151.3490 C   0  0  1  0  0  3  0  0  0  0  0  0
  161.2790  204.6280  151.9840 O   0  0  0  0  0  0  0  0  0  0  0  0
  161.0350  205.5170  149.7590 C   0  0  2  0  0  3  0  0  0  0  0  0
  160.9360  208.4520  153.8820 C   0  0  2  0  0  3  0  0  0  0  0  0
  161.1340  209.0100  152.4620 C   0  0  1  0  0  3  0  0  0  0  0  0
  159.4880  207.0670  156.0120 C   0  0  0  0  0  2  0  0  0  0  0  0
  161.1070  207.8280  148.8320 C   0  0  0  0  0  2  0  0  0  0  0  0
  159.5960  208.5910  155.9840 C   0  0  0  0  0  2  0  0  0  0  0  0
  161.6840  208.5680  150.0280 C   0  0  0  0  0  2  0  0  0  0  0  0
  161.8920  205.4500  151.0290 C   0  0  1  0  0  3  0  0  0  0  0  0
  160.7020  206.4350  155.3360 C   0  0  0  0  0  2  0  0  0  0  0  0
  162.0110  206.3020  153.1810 C   0  0  1  0  0  3  0  0  0  0  0  0
  162.1050  210.0370  152.4000 O   0  0  0  0  0  0  0  0  0  0  0  0
  161.5480  211.2220  152.9060 C   0  0  0  0  0  2  0  0  0  0  0  0
  160.7940  211.8970  150.7420 O   0  0  0  0  0  1  0  0  0  0  0  0
  160.3700  211.6510  152.0500 C   0  0  2  0  0  3  0  0  0  0  0  0
  159.7130  212.8960  152.6450 C   0  0  1  0  0  3  0  0  0  0  0  0
  158.7270  213.3850  151.7850 O   0  0  0  0  0  1  0  0  0  0  0  0
  159.1000  212.5950  154.0030 C   0  0  0  0  0  2  0  0  0  0  0  0
  157.6650  212.1260  153.8470 C   0  0  1  0  0  3  0  0  0  0  0  0
  157.2430  211.5440  155.0560 O   0  0  0  0  0  0  0  0  0  0  0  0
  156.7950  212.8500  154.7980 C   0  0  0  0  0  2  0  0  0  0  0  0
  160.8750  204.1230  149.1740 C   0  0  0  0  0  2  0  0  0  0  0  0
  161.5770  204.0300  147.8300 C   0  0  0  0  0  2  0  0  0  0  0  0
  161.4140  202.6340  147.2380 C   0  0  1  0  0  3  0  0  0  0  0  0
  161.2870  200.6690  148.6370 O   0  0  0  0  0  1  0  0  0  0  0  0
  160.5500  201.7390  148.1230 C   0  0  0  0  0  2  0  0  0  0  0  0
  160.9540  202.6440  145.7770 C   0  0  0  0  0  2  0  0  0  0  0  0
  160.2220  201.3710  145.3780 C   0  0  0  0  0  1  0  0  0  0  0  0
  1 16  1  1  0  0  0
  2 17  1  0  0  0  0
  3 13  1  0  0  0  0
  4 17  1  0  0  0  0
  5 12  1  0  0  0  0
  5  8  1  0  0  0  0
  6  4  1  0  0  0  0
  6 10  1  0  0  0  0
  7  2  1  0  0  0  0
  8 15  1  0  0  0  0
  9  1  1  0  0  0  0
  9  3  1  0  0  0  0
 10  9  1  0  0  0  0
 12 14  1  0  0  0  0
 13 11  1  0  0  0  0
 14  6  1  0  0  0  0
 15  4  1  0  0  0  0
 15  7  1  0  0  0  0
 16 11  1  0  0  0  0
 17  1  1  0  0  0  0
 18 10  1  0  0  0  0
 18 19  1  0  0  0  0
 20 21  1  0  0  0  0
 21 22  1  0  0  0  0
 21 19  1  0  0  0  0
 22 24  1  0  0  0  0
 23 22  1  0  0  0  0
 25 24  1  0  0  0  0
 25 27  1  0  0  0  0
 25 26  1  0  0  0  0
 27 26  1  0  0  0  0
 28  8  1  0  0  0  0
 29 28  1  0  0  0  0
 30 29  1  0  0  0  0
 30 32  1  0  0  0  0
 32 31  1  0  0  0  0
 33 30  1  0  0  0  0
 34 33  1  0  0  0  0
M  END
>  <MODEL>
4

>  <REMARK>
 VINA RESULT:      -6.8      2.577      3.605
  Name = 
  11 active torsions:
  status: ('A' for Active; 'I' for Inactive)
    1  A    between atoms: C_3  and  C_16
    2  A    between atoms: C_3  and  C_19
    3  A    between atoms: C_5  and  O_11
    4  A    between atoms: C_5  and  C_19
    5  A    between atoms: C_8  and  C_16
    6  A    between atoms: O_11  and  C_20
    7  A    between atoms: C_17  and  C_28
    8  A    between atoms: C_28  and  C_29
    9  A    between atoms: C_29  and  C_32
   10  A    between atoms: C_31  and  C_32
   11  A    between atoms: C_32  and  C_34
                            x       y       z     vdW  Elec       q    Type
                         _______ _______ _______ _____ _____    ______ ____

>  <TORSDO>
F 11

$$$$
=
 OpenBabel11122414423D

 34 38  0  0  1  0  0  0  0  0999 V2000
  161.4810  207.9730  150.0310 C   0  0  2  0  0  3  0  0  0  0  0  0
  162.3840  210.0490  150.8670 O   0  0  0  0  0  0  0  0  0  0  0  0
  160.5210  205.7710  149.3080 C   0  0  0  0  0  2  0  0  0  0  0  0
  161.9900  208.4150  152.4940 C   0  0  2  0  0  3  0  0  0  0  0  0
  160.4750  209.2190  155.0550 C   0  0  0  0  0  2  0  0  0  0  0  0
  160.8880  207.3400  152.6670 C   0  0  1  0  0  3  0  0  0  0  0  0
  161.4340  210.5150  151.6700 O   0  0  0  0  0  0  0  0  0  0  0  0
  160.3320  209.9800  153.7440 C   0  0  2  0  0  3  0  0  0  0  0  0
  161.4660  206.4620  150.2850 C   0  0  2  0  0  3  0  0  0  0  0  0
  161.0910  206.1180  151.7370 C   0  0  1  0  0  3  0  0  0  0  0  0
  161.0040  207.5580  147.6130 C   0  0  0  0  0  2  0  0  0  0  0  0
  159.8660  207.8340  154.9200 C   0  0  0  0  0  2  0  0  0  0  0  0
  160.9630  206.0530  147.8740 C   0  0  0  0  0  2  0  0  0  0  0  0
  160.7670  206.9030  154.1250 C   0  0  0  0  0  2  0  0  0  0  0  0
  161.5900  209.8260  152.8810 C   0  0  1  0  0  3  0  0  0  0  0  0
  161.9450  208.2440  148.6020 C   0  0  0  0  0  2  0  0  0  0  0  0
  162.3990  208.6560  151.0510 C   0  0  1  0  0  3  0  0  0  0  0  0
  161.8830  205.0800  152.2830 O   0  0  0  0  0  0  0  0  0  0  0  0
  162.0560  204.0810  151.3110 C   0  0  0  0  0  2  0  0  0  0  0  0
  160.5490  202.6930  152.5380 O   0  0  0  0  0  1  0  0  0  0  0  0
  160.8330  203.1850  151.2630 C   0  0  2  0  0  3  0  0  0  0  0  0
  161.0620  202.0350  150.2820 C   0  0  1  0  0  3  0  0  0  0  0  0
  160.5600  200.8410  150.8050 O   0  0  0  0  0  1  0  0  0  0  0  0
  160.4040  202.3200  148.9420 C   0  0  0  0  0  2  0  0  0  0  0  0
  161.3700  202.0410  147.8050 C   0  0  1  0  0  3  0  0  0  0  0  0
  161.2460  200.6930  147.4240 O   0  0  0  0  0  0  0  0  0  0  0  0
  160.6200  201.6400  146.5960 C   0  0  0  0  0  2  0  0  0  0  0  0
  160.0940  211.4520  154.0450 C   0  0  0  0  0  2  0  0  0  0  0  0
  158.7250  211.8790  153.5420 C   0  0  0  0  0  2  0  0  0  0  0  0
  157.8560  212.3540  154.7020 C   0  0  1  0  0  3  0  0  0  0  0  0
  157.0030  213.7530  152.9280 O   0  0  0  0  0  1  0  0  0  0  0  0
  156.7790  213.3320  154.2420 C   0  0  0  0  0  2  0  0  0  0  0  0
  157.2930  211.2070  155.5460 C   0  0  0  0  0  2  0  0  0  0  0  0
  155.9000  210.7780  155.1090 C   0  0  0  0  0  1  0  0  0  0  0  0
  1 16  1  6  0  0  0
  1  9  1  0  0  0  0
  1 17  1  0  0  0  0
  2 17  1  0  0  0  0
  2  7  1  0  0  0  0
  3  9  1  0  0  0  0
  4  6  1  0  0  0  0
  4 15  1  0  0  0  0
  6 14  1  0  0  0  0
  7 15  1  0  0  0  0
  8 28  1  0  0  0  0
  8  5  1  0  0  0  0
  9 10  1  0  0  0  0
 10 18  1  0  0  0  0
 10  6  1  0  0  0  0
 11 13  1  0  0  0  0
 11 16  1  0  0  0  0
 12  5  1  0  0  0  0
 13  3  1  0  0  0  0
 14 12  1  0  0  0  0
 15  8  1  0  0  0  0
 17  4  1  0  0  0  0
 19 18  1  0  0  0  0
 21 19  1  0  0  0  0
 21 20  1  0  0  0  0
 22 23  1  0  0  0  0
 22 21  1  0  0  0  0
 24 22  1  0  0  0  0
 25 24  1  0  0  0  0
 26 25  1  0  0  0  0
 27 26  1  0  0  0  0
 27 25  1  0  0  0  0
 29 28  1  0  0  0  0
 29 30  1  0  0  0  0
 30 33  1  0  0  0  0
 31 32  1  0  0  0  0
 32 30  1  0  0  0  0
 34 33  1  0  0  0  0
M  END
>  <MODEL>
5

>  <REMARK>
 VINA RESULT:      -6.7      2.603      9.063
  Name = 
  11 active torsions:
  status: ('A' for Active; 'I' for Inactive)
    1  A    between atoms: C_3  and  C_16
    2  A    between atoms: C_3  and  C_19
    3  A    between atoms: C_5  and  O_11
    4  A    between atoms: C_5  and  C_19
    5  A    between atoms: C_8  and  C_16
    6  A    between atoms: O_11  and  C_20
    7  A    between atoms: C_17  and  C_28
    8  A    between atoms: C_28  and  C_29
    9  A    between atoms: C_29  and  C_32
   10  A    between atoms: C_31  and  C_32
   11  A    between atoms: C_32  and  C_34
                            x       y       z     vdW  Elec       q    Type
                         _______ _______ _______ _____ _____    ______ ____

>  <TORSDO>
F 11

$$$$
=
 OpenBabel11122414423D

 34 38  0  0  1  0  0  0  0  0999 V2000
  160.9740  203.0400  150.1180 C   0  0  2  0  0  3  0  0  0  0  0  0
  159.9820  203.6500  152.2320 O   0  0  0  0  0  0  0  0  0  0  0  0
  162.0260  202.5560  147.8940 C   0  0  0  0  0  2  0  0  0  0  0  0
  160.4330  205.4420  150.7970 C   0  0  2  0  0  3  0  0  0  0  0  0
  161.8980  207.9050  151.9300 C   0  0  0  0  0  2  0  0  0  0  0  0
  161.5760  205.7290  149.7920 C   0  0  1  0  0  3  0  0  0  0  0  0
  160.9070  204.4000  152.8190 O   0  0  0  0  0  0  0  0  0  0  0  0
  162.0180  206.5210  152.5530 C   0  0  2  0  0  3  0  0  0  0  0  0
  161.0490  203.4530  148.6450 C   0  0  2  0  0  3  0  0  0  0  0  0
  161.4280  204.9340  148.4720 C   0  0  1  0  0  3  0  0  0  0  0  0
  161.4810  200.6800  149.4700 C   0  0  0  0  0  2  0  0  0  0  0  0
  162.5640  207.9180  150.5640 C   0  0  0  0  0  2  0  0  0  0  0  0
  161.5820  201.0990  148.0040 C   0  0  0  0  0  2  0  0  0  0  0  0
  161.7050  207.2250  149.5180 C   0  0  0  0  0  2  0  0  0  0  0  0
  160.7720  205.6770  152.2570 C   0  0  1  0  0  3  0  0  0  0  0  0
  160.5080  201.5890  150.2170 C   0  0  0  0  0  2  0  0  0  0  0  0
  160.0220  203.9800  150.8670 C   0  0  1  0  0  3  0  0  0  0  0  0
  160.6760  205.5850  147.4660 O   0  0  0  0  0  0  0  0  0  0  0  0
  161.5500  206.0350  146.4630 C   0  0  0  0  0  2  0  0  0  0  0  0
  159.4880  206.1080  145.2590 O   0  0  0  0  0  1  0  0  0  0  0  0
  160.8690  205.9620  145.1090 C   0  0  2  0  0  3  0  0  0  0  0  0
  161.1970  204.6350  144.4260 C   0  0  1  0  0  3  0  0  0  0  0  0
  162.3250  204.0510  145.0100 O   0  0  0  0  0  1  0  0  0  0  0  0
  160.0250  203.6710  144.5120 C   0  0  0  0  0  2  0  0  0  0  0  0
  160.4550  202.3660  145.1550 C   0  0  1  0  0  3  0  0  0  0  0  0
  159.3320  201.7580  145.7450 O   0  0  0  0  0  0  0  0  0  0  0  0
  159.7550  201.2340  144.5110 C   0  0  0  0  0  2  0  0  0  0  0  0
  162.1940  206.6650  154.0560 C   0  0  0  0  0  2  0  0  0  0  0  0
  161.0570  207.4830  154.6450 C   0  0  0  0  0  2  0  0  0  0  0  0
  161.5810  208.4280  155.7210 C   0  0  1  0  0  3  0  0  0  0  0  0
  162.6480  210.5930  155.7790 O   0  0  0  0  0  1  0  0  0  0  0  0
  161.5640  209.8820  155.2580 C   0  0  0  0  0  2  0  0  0  0  0  0
  160.9070  208.2310  157.0820 C   0  0  0  0  0  2  0  0  0  0  0  0
  160.0830  206.9530  157.1550 C   0  0  0  0  0  1  0  0  0  0  0  0
  1 16  1  6  0  0  0
  1 17  1  0  0  0  0
  2  7  1  0  0  0  0
  3 13  1  0  0  0  0
  3  9  1  0  0  0  0
  4 17  1  0  0  0  0
  4 15  1  0  0  0  0
  5  8  1  0  0  0  0
  6  4  1  0  0  0  0
  8 28  1  0  0  0  0
  9  1  1  0  0  0  0
 10  9  1  0  0  0  0
 10  6  1  0  0  0  0
 11 16  1  0  0  0  0
 12  5  1  0  0  0  0
 13 11  1  0  0  0  0
 14  6  1  0  0  0  0
 14 12  1  0  0  0  0
 15  8  1  0  0  0  0
 15  7  1  0  0  0  0
 17  2  1  0  0  0  0
 18 10  1  0  0  0  0
 19 18  1  0  0  0  0
 21 20  1  0  0  0  0
 21 19  1  0  0  0  0
 22 24  1  0  0  0  0
 22 23  1  0  0  0  0
 22 21  1  0  0  0  0
 24 25  1  0  0  0  0
 25 26  1  0  0  0  0
 27 25  1  0  0  0  0
 27 26  1  0  0  0  0
 28 29  1  0  0  0  0
 29 30  1  0  0  0  0
 30 33  1  0  0  0  0
 32 30  1  0  0  0  0
 32 31  1  0  0  0  0
 33 34  1  0  0  0  0
M  END
>  <MODEL>
6

>  <REMARK>
 VINA RESULT:      -6.1      3.514      8.026
  Name = 
  11 active torsions:
  status: ('A' for Active; 'I' for Inactive)
    1  A    between atoms: C_3  and  C_16
    2  A    between atoms: C_3  and  C_19
    3  A    between atoms: C_5  and  O_11
    4  A    between atoms: C_5  and  C_19
    5  A    between atoms: C_8  and  C_16
    6  A    between atoms: O_11  and  C_20
    7  A    between atoms: C_17  and  C_28
    8  A    between atoms: C_28  and  C_29
    9  A    between atoms: C_29  and  C_32
   10  A    between atoms: C_31  and  C_32
   11  A    between atoms: C_32  and  C_34
                            x       y       z     vdW  Elec       q    Type
                         _______ _______ _______ _____ _____    ______ ____

>  <TORSDO>
F 11

$$$$
=
 OpenBabel11122414423D

 34 38  0  0  1  0  0  0  0  0999 V2000
  161.7570  209.4230  152.1260 C   0  0  2  0  0  3  0  0  0  0  0  0
  162.3400  210.8970  153.9460 O   0  0  0  0  0  0  0  0  0  0  0  0
  161.1060  207.7870  150.3400 C   0  0  0  0  0  2  0  0  0  0  0  0
  161.7490  208.7250  154.5830 C   0  0  2  0  0  3  0  0  0  0  0  0
  159.7180  208.3610  156.8720 C   0  0  0  0  0  2  0  0  0  0  0  0
  160.7110  207.7110  154.0430 C   0  0  1  0  0  3  0  0  0  0  0  0
  161.2240  210.9870  154.6600 O   0  0  0  0  0  0  0  0  0  0  0  0
  159.7800  209.6240  156.0230 C   0  0  2  0  0  3  0  0  0  0  0  0
  161.7950  207.9540  151.6890 C   0  0  2  0  0  3  0  0  0  0  0  0
  161.1710  207.0180  152.7380 C   0  0  1  0  0  3  0  0  0  0  0  0
  161.7860  210.1240  149.7270 C   0  0  0  0  0  2  0  0  0  0  0  0
  159.2410  207.1920  156.0270 C   0  0  0  0  0  2  0  0  0  0  0  0
  161.7960  208.6590  149.2930 C   0  0  0  0  0  2  0  0  0  0  0  0
  160.3400  206.6820  155.1080 C   0  0  0  0  0  2  0  0  0  0  0  0
  161.1890  209.8330  155.4540 C   0  0  1  0  0  3  0  0  0  0  0  0
  162.4690  210.2820  151.0840 C   0  0  0  0  0  2  0  0  0  0  0  0
  162.4130  209.5660  153.5040 C   0  0  1  0  0  3  0  0  0  0  0  0
  161.9100  205.8260  152.9260 O   0  0  0  0  0  0  0  0  0  0  0  0
  162.0900  205.2000  151.6820 C   0  0  0  0  0  2  0  0  0  0  0  0
  160.7300  203.3720  152.4000 O   0  0  0  0  0  1  0  0  0  0  0  0
  160.9040  204.3040  151.3740 C   0  0  2  0  0  3  0  0  0  0  0  0
  161.1130  203.5960  150.0360 C   0  0  1  0  0  3  0  0  0  0  0  0
  160.2690  202.4870  149.9330 O   0  0  0  0  0  1  0  0  0  0  0  0
  160.8560  204.5400  148.8720 C   0  0  0  0  0  2  0  0  0  0  0  0
  161.9330  204.3850  147.8150 C   0  0  1  0  0  3  0  0  0  0  0  0
  161.3350  204.4510  146.5440 O   0  0  0  0  0  0  0  0  0  0  0  0
  162.0010  205.6070  146.9850 C   0  0  0  0  0  2  0  0  0  0  0  0
  159.3900  210.8190  156.8780 C   0  0  0  0  0  2  0  0  0  0  0  0
  158.5320  211.7840  156.0780 C   0  0  0  0  0  2  0  0  0  0  0  0
  157.6310  211.0210  155.1130 C   0  0  1  0  0  3  0  0  0  0  0  0
  155.3280  210.4920  154.6110 O   0  0  0  0  0  1  0  0  0  0  0  0
  156.1870  210.9640  155.6070 C   0  0  0  0  0  2  0  0  0  0  0  0
  157.7420  211.5080  153.6660 C   0  0  0  0  0  2  0  0  0  0  0  0
  158.4210  212.8660  153.5480 C   0  0  0  0  0  1  0  0  0  0  0  0
  1 16  1  6  0  0  0
  1 17  1  0  0  0  0
  2  7  1  0  0  0  0
  3  9  1  0  0  0  0
  4 15  1  0  0  0  0
  6  4  1  0  0  0  0
  6 14  1  0  0  0  0
  7 15  1  0  0  0  0
  8  5  1  0  0  0  0
  8 28  1  0  0  0  0
  9  1  1  0  0  0  0
  9 10  1  0  0  0  0
 10 18  1  0  0  0  0
 10  6  1  0  0  0  0
 11 16  1  0  0  0  0
 12  5  1  0  0  0  0
 13 11  1  0  0  0  0
 13  3  1  0  0  0  0
 14 12  1  0  0  0  0
 15  8  1  0  0  0  0
 17  2  1  0  0  0  0
 17  4  1  0  0  0  0
 19 18  1  0  0  0  0
 21 19  1  0  0  0  0
 21 20  1  0  0  0  0
 22 21  1  0  0  0  0
 23 22  1  0  0  0  0
 24 22  1  0  0  0  0
 25 24  1  0  0  0  0
 26 27  1  0  0  0  0
 26 25  1  0  0  0  0
 27 25  1  0  0  0  0
 29 28  1  0  0  0  0
 30 32  1  0  0  0  0
 30 29  1  0  0  0  0
 31 32  1  0  0  0  0
 33 30  1  0  0  0  0
 34 33  1  0  0  0  0
M  END
>  <MODEL>
7

>  <REMARK>
 VINA RESULT:      -6.1      3.145      8.537
  Name = 
  11 active torsions:
  status: ('A' for Active; 'I' for Inactive)
    1  A    between atoms: C_3  and  C_16
    2  A    between atoms: C_3  and  C_19
    3  A    between atoms: C_5  and  O_11
    4  A    between atoms: C_5  and  C_19
    5  A    between atoms: C_8  and  C_16
    6  A    between atoms: O_11  and  C_20
    7  A    between atoms: C_17  and  C_28
    8  A    between atoms: C_28  and  C_29
    9  A    between atoms: C_29  and  C_32
   10  A    between atoms: C_31  and  C_32
   11  A    between atoms: C_32  and  C_34
                            x       y       z     vdW  Elec       q    Type
                         _______ _______ _______ _____ _____    ______ ____

>  <TORSDO>
F 11

$$$$
=
 OpenBabel11122414423D

 34 38  0  0  1  0  0  0  0  0999 V2000
  159.2170  210.8260  154.2920 C   0  0  2  0  0  3  0  0  0  0  0  0
  160.6590  209.2550  155.4210 O   0  0  0  0  0  0  0  0  0  0  0  0
  157.8060  212.4430  152.9930 C   0  0  0  0  0  2  0  0  0  0  0  0
  161.4040  209.9440  153.3130 C   0  0  2  0  0  3  0  0  0  0  0  0
  162.3330  207.7990  151.3040 C   0  0  0  0  0  2  0  0  0  0  0  0
  160.6710  210.2830  151.9920 C   0  0  1  0  0  3  0  0  0  0  0  0
  160.6520  208.1850  154.6330 O   0  0  0  0  0  0  0  0  0  0  0  0
  161.3610  207.4960  152.4370 C   0  0  2  0  0  3  0  0  0  0  0  0
  159.2300  212.0040  153.3120 C   0  0  2  0  0  3  0  0  0  0  0  0
  159.9990  211.6780  152.0190 C   0  0  1  0  0  3  0  0  0  0  0  0
  157.0870  211.6880  155.2770 C   0  0  0  0  0  2  0  0  0  0  0  0
  161.6750  208.7170  150.2880 C   0  0  0  0  0  2  0  0  0  0  0  0
  157.0890  212.8460  154.2800 C   0  0  0  0  0  2  0  0  0  0  0  0
  161.6050  210.1490  150.7920 C   0  0  0  0  0  2  0  0  0  0  0  0
  161.5660  208.4640  153.6080 C   0  0  1  0  0  3  0  0  0  0  0  0
  158.5170  211.2470  155.5830 C   0  0  0  0  0  2  0  0  0  0  0  0
  160.6540  210.3680  154.5650 C   0  0  1  0  0  3  0  0  0  0  0  0
  160.8210  212.7420  151.5800 O   0  0  0  0  0  0  0  0  0  0  0  0
  160.0820  213.5610  150.7120 C   0  0  0  0  0  2  0  0  0  0  0  0
  161.7930  213.2970  149.0660 O   0  0  0  0  0  1  0  0  0  0  0  0
  160.4130  213.2230  149.2700 C   0  0  2  0  0  3  0  0  0  0  0  0
  159.6780  214.1720  148.3250 C   0  0  1  0  0  3  0  0  0  0  0  0
  160.4020  214.3410  147.1420 O   0  0  0  0  0  1  0  0  0  0  0  0
  158.2870  213.6520  147.9990 C   0  0  0  0  0  2  0  0  0  0  0  0
  158.2980  212.8930  146.6850 C   0  0  1  0  0  3  0  0  0  0  0  0
  157.0780  212.2060  146.5470 O   0  0  0  0  0  0  0  0  0  0  0  0
  157.2180  213.3930  145.8080 C   0  0  0  0  0  2  0  0  0  0  0  0
  161.5770  206.0670  152.9100 C   0  0  0  0  0  2  0  0  0  0  0  0
  160.6950  205.1120  152.1250 C   0  0  0  0  0  2  0  0  0  0  0  0
  161.5470  204.1410  151.3150 C   0  0  1  0  0  3  0  0  0  0  0  0
  160.8160  201.9900  150.4970 O   0  0  0  0  0  1  0  0  0  0  0  0
  161.2190  202.6870  151.6400 C   0  0  0  0  0  2  0  0  0  0  0  0
  161.5310  204.4300  149.8110 C   0  0  0  0  0  2  0  0  0  0  0  0
  160.4530  205.4270  149.4110 C   0  0  0  0  0  1  0  0  0  0  0  0
  1 17  1  0  0  0  0
  1 16  1  1  0  0  0
  3  9  1  0  0  0  0
  3 13  1  0  0  0  0
  4 15  1  0  0  0  0
  4 17  1  0  0  0  0
  5  8  1  0  0  0  0
  6 10  1  0  0  0  0
  6  4  1  0  0  0  0
  7  2  1  0  0  0  0
  8 28  1  0  0  0  0
  8 15  1  0  0  0  0
  9  1  1  0  0  0  0
 10  9  1  0  0  0  0
 11 16  1  0  0  0  0
 12 14  1  0  0  0  0
 12  5  1  0  0  0  0
 13 11  1  0  0  0  0
 14  6  1  0  0  0  0
 15  7  1  0  0  0  0
 17  2  1  0  0  0  0
 18 10  1  0  0  0  0
 19 18  1  0  0  0  0
 20 21  1  0  0  0  0
 21 19  1  0  0  0  0
 22 21  1  0  0  0  0
 23 22  1  0  0  0  0
 24 22  1  0  0  0  0
 25 24  1  0  0  0  0
 26 25  1  0  0  0  0
 27 26  1  0  0  0  0
 27 25  1  0  0  0  0
 29 28  1  0  0  0  0
 30 32  1  0  0  0  0
 30 29  1  0  0  0  0
 31 32  1  0  0  0  0
 33 30  1  0  0  0  0
 34 33  1  0  0  0  0
M  END
>  <MODEL>
8

>  <REMARK>
 VINA RESULT:      -6.0      2.541      3.995
  Name = 
  11 active torsions:
  status: ('A' for Active; 'I' for Inactive)
    1  A    between atoms: C_3  and  C_16
    2  A    between atoms: C_3  and  C_19
    3  A    between atoms: C_5  and  O_11
    4  A    between atoms: C_5  and  C_19
    5  A    between atoms: C_8  and  C_16
    6  A    between atoms: O_11  and  C_20
    7  A    between atoms: C_17  and  C_28
    8  A    between atoms: C_28  and  C_29
    9  A    between atoms: C_29  and  C_32
   10  A    between atoms: C_31  and  C_32
   11  A    between atoms: C_32  and  C_34
                            x       y       z     vdW  Elec       q    Type
                         _______ _______ _______ _____ _____    ______ ____

>  <TORSDO>
F 11

$$$$
=
 OpenBabel11122414423D

 34 38  0  0  1  0  0  0  0  0999 V2000
  161.3220  207.4220  149.7490 C   0  0  2  0  0  3  0  0  0  0  0  0
  160.2000  206.0600  148.1030 O   0  0  0  0  0  0  0  0  0  0  0  0
  162.4740  208.7210  151.5600 C   0  0  0  0  0  2  0  0  0  0  0  0
  160.2290  205.1730  150.2680 C   0  0  2  0  0  3  0  0  0  0  0  0
  161.0690  202.2320  150.6440 C   0  0  0  0  0  2  0  0  0  0  0  0
  161.2800  205.1960  151.4050 C   0  0  1  0  0  3  0  0  0  0  0  0
  160.9200  204.9450  148.0610 O   0  0  0  0  0  0  0  0  0  0  0  0
  161.5050  203.0620  149.4450 C   0  0  2  0  0  3  0  0  0  0  0  0
  161.3090  207.7930  151.2360 C   0  0  2  0  0  3  0  0  0  0  0  0
  161.3320  206.5540  152.1470 C   0  0  1  0  0  3  0  0  0  0  0  0
  162.3720  209.6280  149.2210 C   0  0  0  0  0  2  0  0  0  0  0  0
  161.7230  202.7640  151.9080 C   0  0  0  0  0  2  0  0  0  0  0  0
  162.3820  209.9850  150.7070 C   0  0  0  0  0  2  0  0  0  0  0  0
  161.0580  204.0450  152.3840 C   0  0  0  0  0  2  0  0  0  0  0  0
  160.4940  204.1780  149.1540 C   0  0  1  0  0  3  0  0  0  0  0  0
  161.2070  208.6910  148.9070 C   0  0  0  0  0  2  0  0  0  0  0  0
  160.1720  206.4540  149.4510 C   0  0  1  0  0  3  0  0  0  0  0  0
  160.4560  206.6620  153.2520 O   0  0  0  0  0  0  0  0  0  0  0  0
  160.7380  207.8510  153.9430 C   0  0  0  0  0  2  0  0  0  0  0  0
  159.5250  207.0000  155.8170 O   0  0  0  0  0  1  0  0  0  0  0  0
  160.7290  207.5980  155.4400 C   0  0  2  0  0  3  0  0  0  0  0  0
  160.9380  208.9090  156.1960 C   0  0  1  0  0  3  0  0  0  0  0  0
  161.9960  209.6310  155.6390 O   0  0  0  0  0  1  0  0  0  0  0  0
  159.6770  209.7590  156.1750 C   0  0  0  0  0  2  0  0  0  0  0  0
  159.7370  210.8260  157.2520 C   0  0  1  0  0  3  0  0  0  0  0  0
  159.9160  212.0800  156.6400 O   0  0  0  0  0  0  0  0  0  0  0  0
  158.6170  211.7750  157.0800 C   0  0  0  0  0  2  0  0  0  0  0  0
  161.6320  202.1560  148.2310 C   0  0  0  0  0  2  0  0  0  0  0  0
  160.5100  202.4350  147.2440 C   0  0  0  0  0  2  0  0  0  0  0  0
  161.0200  202.3210  145.8120 C   0  0  1  0  0  3  0  0  0  0  0  0
  160.0820  200.2980  144.8860 O   0  0  0  0  0  1  0  0  0  0  0  0
  159.9820  201.6920  144.8870 C   0  0  0  0  0  2  0  0  0  0  0  0
  161.5820  203.6360  145.2630 C   0  0  0  0  0  2  0  0  0  0  0  0
  160.5080  204.5400  144.6740 C   0  0  0  0  0  1  0  0  0  0  0  0
  1 16  1  6  0  0  0
  1  9  1  0  0  0  0
  2 17  1  0  0  0  0
  4  6  1  0  0  0  0
  5 12  1  0  0  0  0
  6 10  1  0  0  0  0
  6 14  1  0  0  0  0
  7  2  1  0  0  0  0
  7 15  1  0  0  0  0
  8  5  1  0  0  0  0
  9  3  1  0  0  0  0
  9 10  1  0  0  0  0
 10 18  1  0  0  0  0
 11 13  1  0  0  0  0
 12 14  1  0  0  0  0
 13  3  1  0  0  0  0
 15  8  1  0  0  0  0
 15  4  1  0  0  0  0
 16 11  1  0  0  0  0
 17  1  1  0  0  0  0
 17  4  1  0  0  0  0
 18 19  1  0  0  0  0
 19 21  1  0  0  0  0
 21 20  1  0  0  0  0
 21 22  1  0  0  0  0
 23 22  1  0  0  0  0
 24 22  1  0  0  0  0
 24 25  1  0  0  0  0
 26 27  1  0  0  0  0
 26 25  1  0  0  0  0
 27 25  1  0  0  0  0
 28  8  1  0  0  0  0
 29 28  1  0  0  0  0
 30 29  1  0  0  0  0
 31 32  1  0  0  0  0
 32 30  1  0  0  0  0
 33 30  1  0  0  0  0
 34 33  1  0  0  0  0
M  END
>  <MODEL>
9

>  <REMARK>
 VINA RESULT:      -5.9      3.147      5.839
  Name = 
  11 active torsions:
  status: ('A' for Active; 'I' for Inactive)
    1  A    between atoms: C_3  and  C_16
    2  A    between atoms: C_3  and  C_19
    3  A    between atoms: C_5  and  O_11
    4  A    between atoms: C_5  and  C_19
    5  A    between atoms: C_8  and  C_16
    6  A    between atoms: O_11  and  C_20
    7  A    between atoms: C_17  and  C_28
    8  A    between atoms: C_28  and  C_29
    9  A    between atoms: C_29  and  C_32
   10  A    between atoms: C_31  and  C_32
   11  A    between atoms: C_32  and  C_34
                            x       y       z     vdW  Elec       q    Type
                         _______ _______ _______ _____ _____    ______ ____

>  <TORSDO>
F 11

$$$$
