=
 OpenBabel11122413203D

 31 35  0  0  0  0  0  0  0  0999 V2000
  161.1750  207.9490  154.6810 C   0  0  0  0  0  0  0  0  0  0  0  0
  161.3790  207.3620  150.8450 C   0  0  0  0  0  0  0  0  0  0  0  0
  161.2020  205.9600  150.6110 C   0  0  0  0  0  0  0  0  0  0  0  0
  160.8440  203.6670  151.3830 C   0  0  0  0  0  0  0  0  0  0  0  0
  161.3970  207.9710  152.1420 C   0  0  0  0  0  0  0  0  0  0  0  0
  161.3830  209.3980  154.6840 C   0  0  0  0  0  3  0  0  0  0  0  0
  161.0140  205.0270  151.6480 C   0  0  0  0  0  3  0  0  0  0  0  0
  161.7220  209.5830  149.8390 C   0  0  0  0  0  0  0  0  0  0  0  0
  160.9340  207.3570  155.7650 O   0  0  0  0  0  0  0  0  0  0  0  0
  161.3800  206.3430  148.2210 C   0  0  0  0  0  3  0  0  0  0  0  0
  160.6660  202.7960  152.4040 F   0  0  0  0  0  0  0  0  0  0  0  0
  161.7280  210.1520  151.1090 C   0  0  0  0  0  3  0  0  0  0  0  0
  161.5470  208.1980  149.7010 C   0  0  0  0  0  0  0  0  0  0  0  0
  161.2820  207.1520  153.4140 C   0  0  0  0  0  2  0  0  0  0  0  0
  160.8550  203.2060  150.0670 C   0  0  0  0  0  3  0  0  0  0  0  0
  161.5710  209.3710  152.2460 C   0  0  0  0  0  0  0  0  0  0  0  0
  161.5730  210.0570  153.5470 C   0  0  0  0  0  3  0  0  0  0  0  0
  161.5420  207.6660  148.4500 N   0  0  0  0  0  0  0  0  0  0  0  0
  161.2070  205.4680  149.2810 C   0  0  0  0  0  0  0  0  0  0  0  0
  161.0360  204.1050  149.0170 C   0  0  0  0  0  3  0  0  0  0  0  0
  161.0170  212.4150  149.4560 O   0  0  0  0  0  0  0  0  0  0  0  0
  161.5340  211.7760  148.5000 C   0  0  0  0  0  0  0  0  0  0  0  0
  161.8870  210.3930  148.6620 N   0  0  0  0  0  2  0  0  0  0  0  0
  162.3570  213.7150  144.7580 C   0  0  0  0  0  0  0  0  0  0  0  0
  163.0970  212.8130  146.8740 C   0  0  0  0  0  3  0  0  0  0  0  0
  159.4280  212.3820  146.5460 O   0  0  0  0  0  1  0  0  0  0  0  0
  162.6600  214.3870  143.4670 C   0  0  0  0  0  1  0  0  0  0  0  0
  163.3840  213.4440  145.6620 C   0  0  0  0  0  3  0  0  0  0  0  0
  160.7490  212.7220  146.2780 C   0  0  0  0  0  0  0  0  0  0  0  0
  161.7830  212.4430  147.2010 C   0  0  0  0  0  0  0  0  0  0  0  0
  161.0440  213.3560  145.0660 C   0  0  0  0  0  3  0  0  0  0  0  0
  1  6  1  0  0  0  0
  1  9  2  0  0  0  0
  2  5  1  0  0  0  0
  3  2  1  0  0  0  0
  3  7  2  0  0  0  0
  4  7  1  0  0  0  0
  4 11  1  0  0  0  0
  5 16  2  0  0  0  0
  5 14  1  0  0  0  0
  8 12  2  0  0  0  0
 10 18  2  0  0  0  0
 10 19  1  0  0  0  0
 12 16  1  0  0  0  0
 13  8  1  0  0  0  0
 13  2  2  0  0  0  0
 14  1  1  0  0  0  0
 15  4  2  0  0  0  0
 16 17  1  0  0  0  0
 17  6  2  0  0  0  0
 18 13  1  0  0  0  0
 19  3  1  0  0  0  0
 20 19  2  0  0  0  0
 20 15  1  0  0  0  0
 22 23  1  0  0  0  0
 22 21  2  0  0  0  0
 23  8  1  0  0  0  0
 24 31  2  0  0  0  0
 24 28  1  0  0  0  0
 25 30  1  0  0  0  0
 27 24  1  0  0  0  0
 28 25  2  0  0  0  0
 29 26  1  0  0  0  0
 29 30  2  0  0  0  0
 30 22  1  0  0  0  0
 31 29  1  0  0  0  0
M  END
>  <MODEL>
1

>  <REMARK>
 VINA RESULT:     -10.2      0.000      0.000
  Name = 
  2 active torsions:
  status: ('A' for Active; 'I' for Inactive)
    1  A    between atoms: C_5  and  C_30
    2  A    between atoms: C_10  and  N_16
                            x       y       z     vdW  Elec       q    Type
                         _______ _______ _______ _____ _____    ______ ____

>  <TORSDO>
F 2

$$$$
=
 OpenBabel11122413203D

 31 35  0  0  0  0  0  0  0  0999 V2000
  161.2720  205.1020  145.3930 C   0  0  0  0  0  0  0  0  0  0  0  0
  160.9890  204.4690  149.2160 C   0  0  0  0  0  0  0  0  0  0  0  0
  161.0620  203.0550  149.4280 C   0  0  0  0  0  0  0  0  0  0  0  0
  161.2600  200.7540  148.6210 C   0  0  0  0  0  0  0  0  0  0  0  0
  161.0280  205.0990  147.9300 C   0  0  0  0  0  0  0  0  0  0  0  0
  161.1700  206.5620  145.4130 C   0  0  0  0  0  3  0  0  0  0  0  0
  161.1910  202.1280  148.3780 C   0  0  0  0  0  3  0  0  0  0  0  0
  160.7990  206.6930  150.2570 C   0  0  0  0  0  0  0  0  0  0  0  0
  161.4800  204.5120  144.3020 O   0  0  0  0  0  0  0  0  0  0  0  0
  160.8890  203.4110  151.8230 C   0  0  0  0  0  3  0  0  0  0  0  0
  161.3830  199.8900  147.5860 F   0  0  0  0  0  0  0  0  0  0  0  0
  160.8460  207.2810  148.9970 C   0  0  0  0  0  3  0  0  0  0  0  0
  160.8710  205.2970  150.3730 C   0  0  0  0  0  0  0  0  0  0  0  0
  161.0960  204.2940  146.6450 C   0  0  0  0  0  2  0  0  0  0  0  0
  161.2020  200.2740  149.9290 C   0  0  0  0  0  3  0  0  0  0  0  0
  160.9580  206.5100  147.8480 C   0  0  0  0  0  0  0  0  0  0  0  0
  161.0170  207.2150  146.5590 C   0  0  0  0  0  3  0  0  0  0  0  0
  160.8250  204.7460  151.6150 N   0  0  0  0  0  0  0  0  0  0  0  0
  161.0080  202.5420  150.7500 C   0  0  0  0  0  0  0  0  0  0  0  0
  161.0770  201.1670  150.9920 C   0  0  0  0  0  3  0  0  0  0  0  0
  162.5600  208.8630  151.1800 O   0  0  0  0  0  0  0  0  0  0  0  0
  161.5560  208.5490  151.8750 C   0  0  0  0  0  0  0  0  0  0  0  0
  160.6810  207.4940  151.4460 N   0  0  0  0  0  2  0  0  0  0  0  0
  160.7160  210.7100  155.4900 C   0  0  0  0  0  0  0  0  0  0  0  0
  161.0760  210.6540  153.1010 C   0  0  0  0  0  3  0  0  0  0  0  0
  161.3600  207.2250  154.4900 O   0  0  0  0  0  1  0  0  0  0  0  0
  160.4240  211.4740  156.7310 C   0  0  0  0  0  1  0  0  0  0  0  0
  160.8020  211.3730  154.2660 C   0  0  0  0  0  3  0  0  0  0  0  0
  161.1790  208.6000  154.3860 C   0  0  0  0  0  0  0  0  0  0  0  0
  161.2680  209.2630  153.1410 C   0  0  0  0  0  0  0  0  0  0  0  0
  160.9040  209.3280  155.5500 C   0  0  0  0  0  3  0  0  0  0  0  0
  1  6  1  0  0  0  0
  1 14  1  0  0  0  0
  2  3  2  0  0  0  0
  2 13  1  0  0  0  0
  3 19  1  0  0  0  0
  4 15  1  0  0  0  0
  5  2  1  0  0  0  0
  6 17  2  0  0  0  0
  7  4  2  0  0  0  0
  7  3  1  0  0  0  0
  8 13  1  0  0  0  0
  8 23  1  0  0  0  0
  9  1  2  0  0  0  0
 11  4  1  0  0  0  0
 12  8  2  0  0  0  0
 13 18  2  0  0  0  0
 14  5  1  0  0  0  0
 15 20  2  0  0  0  0
 16  5  2  0  0  0  0
 16 12  1  0  0  0  0
 17 16  1  0  0  0  0
 18 10  1  0  0  0  0
 19 20  1  0  0  0  0
 19 10  2  0  0  0  0
 21 22  2  0  0  0  0
 22 30  1  0  0  0  0
 23 22  1  0  0  0  0
 24 31  1  0  0  0  0
 24 27  1  0  0  0  0
 25 30  2  0  0  0  0
 25 28  1  0  0  0  0
 28 24  2  0  0  0  0
 29 26  1  0  0  0  0
 29 31  2  0  0  0  0
 30 29  1  0  0  0  0
M  END
>  <MODEL>
2

>  <REMARK>
 VINA RESULT:      -9.3      3.840      7.052
  Name = 
  2 active torsions:
  status: ('A' for Active; 'I' for Inactive)
    1  A    between atoms: C_5  and  C_30
    2  A    between atoms: C_10  and  N_16
                            x       y       z     vdW  Elec       q    Type
                         _______ _______ _______ _____ _____    ______ ____

>  <TORSDO>
F 2

$$$$
=
 OpenBabel11122413203D

 31 35  0  0  0  0  0  0  0  0999 V2000
  161.1310  201.2670  149.7500 C   0  0  0  0  0  0  0  0  0  0  0  0
  161.1920  205.1190  149.2390 C   0  0  0  0  0  0  0  0  0  0  0  0
  161.1770  205.3700  147.8290 C   0  0  0  0  0  0  0  0  0  0  0  0
  161.1510  204.6230  145.5000 C   0  0  0  0  0  0  0  0  0  0  0  0
  161.2060  203.8140  149.8300 C   0  0  0  0  0  0  0  0  0  0  0  0
  161.1570  201.2490  151.2140 C   0  0  0  0  0  3  0  0  0  0  0  0
  161.1650  204.3420  146.8680 C   0  0  0  0  0  3  0  0  0  0  0  0
  161.1980  206.1010  151.4970 C   0  0  0  0  0  0  0  0  0  0  0  0
  161.0260  200.1840  149.1200 O   0  0  0  0  0  0  0  0  0  0  0  0
  161.1720  207.7590  148.2600 C   0  0  0  0  0  3  0  0  0  0  0  0
  161.1410  203.6100  144.6020 F   0  0  0  0  0  0  0  0  0  0  0  0
  161.2050  204.8230  152.0470 C   0  0  0  0  0  3  0  0  0  0  0  0
  161.1900  206.2550  150.1040 C   0  0  0  0  0  0  0  0  0  0  0  0
  161.2650  202.5530  148.9880 C   0  0  0  0  0  2  0  0  0  0  0  0
  161.1460  205.9460  145.0600 C   0  0  0  0  0  3  0  0  0  0  0  0
  161.2090  203.6940  151.2400 C   0  0  0  0  0  0  0  0  0  0  0  0
  161.2000  202.3820  151.9050 C   0  0  0  0  0  3  0  0  0  0  0  0
  161.1820  207.5140  149.5900 N   0  0  0  0  0  0  0  0  0  0  0  0
  161.1690  206.7070  147.3570 C   0  0  0  0  0  0  0  0  0  0  0  0
  161.1550  206.9860  145.9870 C   0  0  0  0  0  3  0  0  0  0  0  0
  160.5490  206.2930  154.3620 O   0  0  0  0  0  0  0  0  0  0  0  0
  160.8740  207.3370  153.7340 C   0  0  0  0  0  0  0  0  0  0  0  0
  161.1960  207.2700  152.3360 N   0  0  0  0  0  2  0  0  0  0  0  0
  161.0670  211.0760  155.8370 C   0  0  0  0  0  0  0  0  0  0  0  0
  161.4050  208.6850  155.7500 C   0  0  0  0  0  3  0  0  0  0  0  0
  160.0330  209.8730  152.5150 O   0  0  0  0  0  1  0  0  0  0  0  0
  161.1410  212.3610  156.5800 C   0  0  0  0  0  1  0  0  0  0  0  0
  161.4750  209.8910  156.4490 C   0  0  0  0  0  3  0  0  0  0  0  0
  160.5160  209.8500  153.8180 C   0  0  0  0  0  0  0  0  0  0  0  0
  160.9280  208.6440  154.4300 C   0  0  0  0  0  0  0  0  0  0  0  0
  160.5890  211.0550  154.5260 C   0  0  0  0  0  3  0  0  0  0  0  0
  1  6  1  0  0  0  0
  2  5  2  0  0  0  0
  2 13  1  0  0  0  0
  3  2  1  0  0  0  0
  4  7  1  0  0  0  0
  5 16  1  0  0  0  0
  6 17  2  0  0  0  0
  7  3  2  0  0  0  0
  8 12  1  0  0  0  0
  8 23  1  0  0  0  0
  9  1  2  0  0  0  0
 10 18  2  0  0  0  0
 11  4  1  0  0  0  0
 13  8  2  0  0  0  0
 14  1  1  0  0  0  0
 14  5  1  0  0  0  0
 15  4  2  0  0  0  0
 15 20  1  0  0  0  0
 16 17  1  0  0  0  0
 16 12  2  0  0  0  0
 18 13  1  0  0  0  0
 19  3  1  0  0  0  0
 19 10  1  0  0  0  0
 20 19  2  0  0  0  0
 22 21  2  0  0  0  0
 22 30  1  0  0  0  0
 23 22  1  0  0  0  0
 24 28  1  0  0  0  0
 24 27  1  0  0  0  0
 25 28  2  0  0  0  0
 26 29  1  0  0  0  0
 29 30  2  0  0  0  0
 29 31  1  0  0  0  0
 30 25  1  0  0  0  0
 31 24  2  0  0  0  0
M  END
>  <MODEL>
3

>  <REMARK>
 VINA RESULT:      -8.9      3.870      7.161
  Name = 
  2 active torsions:
  status: ('A' for Active; 'I' for Inactive)
    1  A    between atoms: C_5  and  C_30
    2  A    between atoms: C_10  and  N_16
                            x       y       z     vdW  Elec       q    Type
                         _______ _______ _______ _____ _____    ______ ____

>  <TORSDO>
F 2

$$$$
=
 OpenBabel11122413203D

 31 35  0  0  0  0  0  0  0  0999 V2000
  161.7940  211.0600  150.0560 C   0  0  0  0  0  0  0  0  0  0  0  0
  161.3450  207.4360  151.3840 C   0  0  0  0  0  0  0  0  0  0  0  0
  161.1500  207.5140  152.8000 C   0  0  0  0  0  0  0  0  0  0  0  0
  160.9610  208.7700  154.8910 C   0  0  0  0  0  0  0  0  0  0  0  0
  161.5770  208.5660  150.5340 C   0  0  0  0  0  0  0  0  0  0  0  0
  161.9790  210.7440  148.6380 C   0  0  0  0  0  3  0  0  0  0  0  0
  161.1550  208.7300  153.5090 C   0  0  0  0  0  3  0  0  0  0  0  0
  161.4790  205.9710  149.4090 C   0  0  0  0  0  0  0  0  0  0  0  0
  161.7500  212.2630  150.4200 O   0  0  0  0  0  0  0  0  0  0  0  0
  160.9100  205.1010  152.8950 C   0  0  0  0  0  3  0  0  0  0  0  0
  160.9730  209.9570  155.5420 F   0  0  0  0  0  0  0  0  0  0  0  0
  161.6950  207.0850  148.6040 C   0  0  0  0  0  3  0  0  0  0  0  0
  161.3020  206.1390  150.7900 C   0  0  0  0  0  0  0  0  0  0  0  0
  161.6920  209.9750  151.0870 C   0  0  0  0  0  2  0  0  0  0  0  0
  160.7530  207.5870  155.6000 C   0  0  0  0  0  3  0  0  0  0  0  0
  161.7460  208.3630  149.1440 C   0  0  0  0  0  0  0  0  0  0  0  0
  161.9620  209.4840  148.2180 C   0  0  0  0  0  3  0  0  0  0  0  0
  161.0910  205.0350  151.5560 N   0  0  0  0  0  0  0  0  0  0  0  0
  160.9330  206.3260  153.5430 C   0  0  0  0  0  0  0  0  0  0  0  0
  160.7390  206.3670  154.9270 C   0  0  0  0  0  3  0  0  0  0  0  0
  161.0710  205.1920  146.6000 O   0  0  0  0  0  0  0  0  0  0  0  0
  161.2280  204.2940  147.4700 C   0  0  0  0  0  0  0  0  0  0  0  0
  161.4290  204.6470  148.8480 N   0  0  0  0  0  2  0  0  0  0  0  0
  161.1950  200.1240  146.4440 C   0  0  0  0  0  0  0  0  0  0  0  0
  161.5350  201.8990  148.0480 C   0  0  0  0  0  3  0  0  0  0  0  0
  160.5360  203.3410  144.7800 O   0  0  0  0  0  1  0  0  0  0  0  0
  161.1890  198.6760  146.1060 C   0  0  0  0  0  1  0  0  0  0  0  0
  161.5300  200.5390  147.7320 C   0  0  0  0  0  3  0  0  0  0  0  0
  160.8690  202.4340  145.7790 C   0  0  0  0  0  0  0  0  0  0  0  0
  161.2060  202.8630  147.0830 C   0  0  0  0  0  0  0  0  0  0  0  0
  160.8660  201.0680  145.4700 C   0  0  0  0  0  3  0  0  0  0  0  0
  1  9  2  0  0  0  0
  1 14  1  0  0  0  0
  2  3  2  0  0  0  0
  3  7  1  0  0  0  0
  3 19  1  0  0  0  0
  4 11  1  0  0  0  0
  4 15  1  0  0  0  0
  5 14  1  0  0  0  0
  5  2  1  0  0  0  0
  6  1  1  0  0  0  0
  7  4  2  0  0  0  0
  8 13  1  0  0  0  0
 10 19  2  0  0  0  0
 12 16  1  0  0  0  0
 12  8  2  0  0  0  0
 13  2  1  0  0  0  0
 13 18  2  0  0  0  0
 16  5  2  0  0  0  0
 17  6  2  0  0  0  0
 17 16  1  0  0  0  0
 18 10  1  0  0  0  0
 19 20  1  0  0  0  0
 20 15  2  0  0  0  0
 21 22  2  0  0  0  0
 22 23  1  0  0  0  0
 23  8  1  0  0  0  0
 24 28  1  0  0  0  0
 26 29  1  0  0  0  0
 27 24  1  0  0  0  0
 28 25  2  0  0  0  0
 29 30  2  0  0  0  0
 30 22  1  0  0  0  0
 30 25  1  0  0  0  0
 31 29  1  0  0  0  0
 31 24  2  0  0  0  0
M  END
>  <MODEL>
4

>  <REMARK>
 VINA RESULT:      -7.9      3.446      7.653
  Name = 
  2 active torsions:
  status: ('A' for Active; 'I' for Inactive)
    1  A    between atoms: C_5  and  C_30
    2  A    between atoms: C_10  and  N_16
                            x       y       z     vdW  Elec       q    Type
                         _______ _______ _______ _____ _____    ______ ____

>  <TORSDO>
F 2

$$$$
=
 OpenBabel11122413203D

 31 35  0  0  0  0  0  0  0  0999 V2000
  161.5430  212.7880  149.6070 C   0  0  0  0  0  0  0  0  0  0  0  0
  161.2410  209.4110  151.5050 C   0  0  0  0  0  0  0  0  0  0  0  0
  160.9850  209.7090  152.8820 C   0  0  0  0  0  0  0  0  0  0  0  0
  160.6440  211.2760  154.7280 C   0  0  0  0  0  0  0  0  0  0  0  0
  161.4440  210.3980  150.4860 C   0  0  0  0  0  0  0  0  0  0  0  0
  161.8020  212.2550  148.2680 C   0  0  0  0  0  3  0  0  0  0  0  0
  160.8950  211.0220  153.3780 C   0  0  0  0  0  3  0  0  0  0  0  0
  161.5340  207.6520  149.8060 C   0  0  0  0  0  0  0  0  0  0  0  0
  161.4190  214.0300  149.7640 O   0  0  0  0  0  0  0  0  0  0  0  0
  160.8740  207.3330  153.3690 C   0  0  0  0  0  3  0  0  0  0  0  0
  160.5650  212.5530  155.1730 F   0  0  0  0  0  0  0  0  0  0  0  0
  161.7210  208.6300  148.8340 C   0  0  0  0  0  3  0  0  0  0  0  0
  161.2930  208.0330  151.1340 C   0  0  0  0  0  0  0  0  0  0  0  0
  161.4600  211.8820  150.8000 C   0  0  0  0  0  2  0  0  0  0  0  0
  160.4730  210.2160  155.6170 C   0  0  0  0  0  3  0  0  0  0  0  0
  161.6800  209.9800  149.1550 C   0  0  0  0  0  0  0  0  0  0  0  0
  161.8710  210.9450  148.0630 C   0  0  0  0  0  3  0  0  0  0  0  0
  161.1120  207.0600  152.0660 N   0  0  0  0  0  0  0  0  0  0  0  0
  160.8040  208.6470  153.8050 C   0  0  0  0  0  0  0  0  0  0  0  0
  160.5530  208.9030  155.1560 C   0  0  0  0  0  3  0  0  0  0  0  0
  160.0560  206.2300  147.6950 O   0  0  0  0  0  0  0  0  0  0  0  0
  160.8460  205.5830  148.4340 C   0  0  0  0  0  0  0  0  0  0  0  0
  161.5800  206.2540  149.4710 N   0  0  0  0  0  2  0  0  0  0  0  0
  161.3950  201.3750  147.7770 C   0  0  0  0  0  0  0  0  0  0  0  0
  161.3940  203.6540  146.9720 C   0  0  0  0  0  3  0  0  0  0  0  0
  160.4810  203.5970  150.5660 O   0  0  0  0  0  1  0  0  0  0  0  0
  161.5890  199.9220  147.5310 C   0  0  0  0  0  1  0  0  0  0  0  0
  161.5770  202.2890  146.7390 C   0  0  0  0  0  3  0  0  0  0  0  0
  160.8450  203.1910  149.2880 C   0  0  0  0  0  0  0  0  0  0  0  0
  161.0280  204.1250  148.2420 C   0  0  0  0  0  0  0  0  0  0  0  0
  161.0300  201.8250  149.0460 C   0  0  0  0  0  3  0  0  0  0  0  0
  1  9  2  0  0  0  0
  1 14  1  0  0  0  0
  2  3  2  0  0  0  0
  3  7  1  0  0  0  0
  3 19  1  0  0  0  0
  4 11  1  0  0  0  0
  4 15  1  0  0  0  0
  5 14  1  0  0  0  0
  5  2  1  0  0  0  0
  6  1  1  0  0  0  0
  7  4  2  0  0  0  0
  8 13  1  0  0  0  0
 10 19  2  0  0  0  0
 12 16  1  0  0  0  0
 12  8  2  0  0  0  0
 13  2  1  0  0  0  0
 13 18  2  0  0  0  0
 16  5  2  0  0  0  0
 17  6  2  0  0  0  0
 17 16  1  0  0  0  0
 18 10  1  0  0  0  0
 19 20  1  0  0  0  0
 20 15  2  0  0  0  0
 21 22  2  0  0  0  0
 22 23  1  0  0  0  0
 23  8  1  0  0  0  0
 24 31  1  0  0  0  0
 25 30  2  0  0  0  0
 27 24  1  0  0  0  0
 28 25  1  0  0  0  0
 28 24  2  0  0  0  0
 29 26  1  0  0  0  0
 30 22  1  0  0  0  0
 30 29  1  0  0  0  0
 31 29  2  0  0  0  0
M  END
>  <MODEL>
5

>  <REMARK>
 VINA RESULT:      -7.8      3.051      7.699
  Name = 
  2 active torsions:
  status: ('A' for Active; 'I' for Inactive)
    1  A    between atoms: C_5  and  C_30
    2  A    between atoms: C_10  and  N_16
                            x       y       z     vdW  Elec       q    Type
                         _______ _______ _______ _____ _____    ______ ____

>  <TORSDO>
F 2

$$$$
