=
 OpenBabel11122412333D

 30 35  0  0  1  0  0  0  0  0999 V2000
  161.0360  208.2910  150.9630 C   0  0  1  0  0  3  0  0  0  0  0  0
  161.0480  206.1500  149.5720 C   0  0  0  0  0  0  0  0  0  0  0  0
  161.0910  205.8810  154.5900 C   0  0  0  0  0  2  0  0  0  0  0  0
  161.1180  208.8570  152.4000 C   0  0  1  0  0  3  0  0  0  0  0  0
  162.0690  209.0320  150.1230 C   0  0  0  0  0  2  0  0  0  0  0  0
  160.9840  212.3540  151.2900 O   0  0  0  0  0  0  0  0  0  0  0  0
  159.4020  210.5430  154.6060 C   0  0  1  0  0  3  0  0  0  0  0  0
  161.1500  211.1020  151.2820 C   0  0  0  0  0  0  0  0  0  0  0  0
  159.5800  209.2440  155.3930 C   0  0  2  0  0  3  0  0  0  0  0  0
  160.7590  207.0180  155.4800 C   0  0  0  0  0  0  0  0  0  0  0  0
  161.8470  210.4780  150.1800 N   0  0  0  0  0  0  0  0  0  0  0  0
  160.5200  210.2640  152.3730 C   0  0  2  0  0  3  0  0  0  0  0  0
  161.0900  204.7560  149.4710 C   0  0  0  0  0  3  0  0  0  0  0  0
  160.0470  209.6840  156.7670 C   0  0  0  0  0  2  0  0  0  0  0  0
  159.1210  211.6230  155.6390 C   0  0  0  0  0  2  0  0  0  0  0  0
  160.9030  206.9050  148.4140 O   0  0  0  0  0  1  0  0  0  0  0  0
  161.3420  206.6420  153.3100 C   0  0  2  0  0  3  0  0  0  0  0  0
  161.2090  203.9670  150.6170 C   0  0  0  0  0  3  0  0  0  0  0  0
  161.1460  206.7720  150.8330 C   0  0  0  0  0  0  0  0  0  0  0  0
  160.4620  207.8780  153.3760 C   0  0  1  0  0  3  0  0  0  0  0  0
  160.6770  206.8940  156.7310 O   0  0  0  0  0  0  0  0  0  0  0  0
  160.4770  208.2440  154.7920 N   0  0  0  0  0  0  0  0  0  0  0  0
  159.3550  211.0070  157.0080 C   0  0  0  0  0  2  0  0  0  0  0  0
  161.9440  210.9450  154.3960 C   0  0  0  0  0  1  0  0  0  0  0  0
  161.2740  204.5670  151.8740 C   0  0  0  0  0  3  0  0  0  0  0  0
  161.2130  205.9600  151.9890 C   0  0  0  0  0  0  0  0  0  0  0  0
  160.5730  210.9740  153.7220 C   0  0  2  0  0  3  0  0  0  0  0  0
  162.3850  211.2800  149.0900 C   0  0  0  0  0  2  0  0  0  0  0  0
  161.1180  212.9270  147.7450 C   0  0  0  0  0  1  0  0  0  0  0  0
  161.3430  211.4520  147.9990 C   0  0  0  0  0  2  0  0  0  0  0  0
  1  5  1  6  0  0  0
  1  4  1  0  0  0  0
  2 19  1  0  0  0  0
  3 10  1  0  0  0  0
  4 20  1  0  0  0  0
  5 11  1  0  0  0  0
  7  9  1  0  0  0  0
  7 15  1  0  0  0  0
  8  6  2  0  0  0  0
  8 12  1  0  0  0  0
  9 14  1  0  0  0  0
 10 21  2  0  0  0  0
 11  8  1  0  0  0  0
 12  4  1  0  0  0  0
 12 27  1  0  0  0  0
 13  2  2  0  0  0  0
 13 18  1  0  0  0  0
 14 23  1  0  0  0  0
 15 23  1  0  0  0  0
 16  2  1  0  0  0  0
 17 20  1  0  0  0  0
 17  3  1  0  0  0  0
 18 25  2  0  0  0  0
 19  1  1  0  0  0  0
 19 26  2  0  0  0  0
 20 22  1  0  0  0  0
 22  9  1  0  0  0  0
 22 10  1  0  0  0  0
 25 26  1  0  0  0  0
 26 17  1  0  0  0  0
 27 24  1  0  0  0  0
 27  7  1  0  0  0  0
 28 11  1  0  0  0  0
 29 30  1  0  0  0  0
 30 28  1  0  0  0  0
M  END
>  <MODEL>
1

>  <REMARK>
 VINA RESULT:      -7.6      0.000      0.000
  Name = 
  2 active torsions:
  status: ('A' for Active; 'I' for Inactive)
    1  A    between atoms: N_11  and  C_28
    2  A    between atoms: C_28  and  C_30
                            x       y       z     vdW  Elec       q    Type
                         _______ _______ _______ _____ _____    ______ ____

>  <TORSDO>
F 2

$$$$
=
 OpenBabel11122412333D

 30 35  0  0  1  0  0  0  0  0999 V2000
  161.0220  209.5970  152.0140 C   0  0  1  0  0  3  0  0  0  0  0  0
  160.7720  212.0160  151.2360 C   0  0  0  0  0  0  0  0  0  0  0  0
  162.3100  208.4880  148.0040 C   0  0  0  0  0  2  0  0  0  0  0  0
  161.4850  208.1830  151.5920 C   0  0  1  0  0  3  0  0  0  0  0  0
  161.7080  209.9250  153.3350 C   0  0  0  0  0  2  0  0  0  0  0  0
  160.7870  206.7110  154.8830 O   0  0  0  0  0  0  0  0  0  0  0  0
  160.3820  205.1470  151.1190 C   0  0  1  0  0  3  0  0  0  0  0  0
  161.0290  207.5590  153.9790 C   0  0  0  0  0  0  0  0  0  0  0  0
  160.8740  205.4400  149.7010 C   0  0  2  0  0  3  0  0  0  0  0  0
  162.1770  207.0330  148.2470 C   0  0  0  0  0  0  0  0  0  0  0  0
  161.4120  208.9050  154.3420 N   0  0  0  0  0  0  0  0  0  0  0  0
  160.8090  207.1810  152.5310 C   0  0  2  0  0  3  0  0  0  0  0  0
  160.8790  213.0020  150.2510 C   0  0  0  0  0  3  0  0  0  0  0  0
  161.6940  204.2230  149.3160 C   0  0  0  0  0  2  0  0  0  0  0  0
  160.3440  203.6320  151.2440 C   0  0  0  0  0  2  0  0  0  0  0  0
  160.2400  212.3560  152.4740 O   0  0  0  0  0  1  0  0  0  0  0  0
  162.1200  208.9860  149.4170 C   0  0  2  0  0  3  0  0  0  0  0  0
  161.3850  212.6880  148.9870 C   0  0  0  0  0  3  0  0  0  0  0  0
  161.1940  210.6980  150.9670 C   0  0  0  0  0  0  0  0  0  0  0  0
  161.2150  207.9770  150.1000 C   0  0  1  0  0  3  0  0  0  0  0  0
  162.4770  206.1740  147.3750 O   0  0  0  0  0  0  0  0  0  0  0  0
  161.6210  206.6950  149.5240 N   0  0  0  0  0  0  0  0  0  0  0  0
  161.0140  203.0620  150.0050 C   0  0  0  0  0  2  0  0  0  0  0  0
  162.7150  205.5020  152.1670 C   0  0  0  0  0  1  0  0  0  0  0  0
  161.7760  211.3820  148.6960 C   0  0  0  0  0  3  0  0  0  0  0  0
  161.6550  210.3820  149.6680 C   0  0  0  0  0  0  0  0  0  0  0  0
  161.2070  205.7330  152.2650 C   0  0  2  0  0  3  0  0  0  0  0  0
  161.5480  209.2880  155.7410 C   0  0  0  0  0  2  0  0  0  0  0  0
  163.2350  210.7480  156.8110 C   0  0  0  0  0  1  0  0  0  0  0  0
  162.0680  210.7100  155.8480 C   0  0  0  0  0  2  0  0  0  0  0  0
  1  5  1  1  0  0  0
  2 16  1  0  0  0  0
  3 10  1  0  0  0  0
  3 17  1  0  0  0  0
  4  1  1  0  0  0  0
  4 12  1  0  0  0  0
  5 11  1  0  0  0  0
  7 15  1  0  0  0  0
  7 27  1  0  0  0  0
  8 11  1  0  0  0  0
  8  6  2  0  0  0  0
  9  7  1  0  0  0  0
 10 22  1  0  0  0  0
 11 28  1  0  0  0  0
 12  8  1  0  0  0  0
 13  2  2  0  0  0  0
 14  9  1  0  0  0  0
 14 23  1  0  0  0  0
 17 26  1  0  0  0  0
 17 20  1  0  0  0  0
 18 13  1  0  0  0  0
 19  2  1  0  0  0  0
 19  1  1  0  0  0  0
 20  4  1  0  0  0  0
 21 10  2  0  0  0  0
 22  9  1  0  0  0  0
 22 20  1  0  0  0  0
 23 15  1  0  0  0  0
 24 27  1  0  0  0  0
 25 18  2  0  0  0  0
 25 26  1  0  0  0  0
 26 19  2  0  0  0  0
 27 12  1  0  0  0  0
 28 30  1  0  0  0  0
 30 29  1  0  0  0  0
M  END
>  <MODEL>
2

>  <REMARK>
 VINA RESULT:      -7.6      1.666      6.699
  Name = 
  2 active torsions:
  status: ('A' for Active; 'I' for Inactive)
    1  A    between atoms: N_11  and  C_28
    2  A    between atoms: C_28  and  C_30
                            x       y       z     vdW  Elec       q    Type
                         _______ _______ _______ _____ _____    ______ ____

>  <TORSDO>
F 2

$$$$
=
 OpenBabel11122412333D

 30 35  0  0  1  0  0  0  0  0999 V2000
  161.2060  206.0430  150.0770 C   0  0  1  0  0  3  0  0  0  0  0  0
  160.8240  203.5200  149.9900 C   0  0  0  0  0  0  0  0  0  0  0  0
  161.3370  205.8290  154.4250 C   0  0  0  0  0  2  0  0  0  0  0  0
  161.4980  207.2390  151.0140 C   0  0  1  0  0  3  0  0  0  0  0  0
  162.2310  206.0880  148.9500 C   0  0  0  0  0  2  0  0  0  0  0  0
  161.6700  209.6630  148.2620 O   0  0  0  0  0  0  0  0  0  0  0  0
  160.2240  210.0500  152.0750 C   0  0  1  0  0  3  0  0  0  0  0  0
  161.6840  208.5720  148.8970 C   0  0  0  0  0  0  0  0  0  0  0  0
  160.3250  209.3200  153.4150 C   0  0  2  0  0  3  0  0  0  0  0  0
  161.2330  207.2950  154.6090 C   0  0  0  0  0  0  0  0  0  0  0  0
  162.1880  207.3770  148.2580 N   0  0  0  0  0  0  0  0  0  0  0  0
  161.0720  208.5110  150.2800 C   0  0  2  0  0  3  0  0  0  0  0  0
  160.6900  202.2800  150.6220 C   0  0  0  0  0  3  0  0  0  0  0  0
  160.9760  210.3180  154.3530 C   0  0  0  0  0  2  0  0  0  0  0  0
  160.1780  211.5330  152.4100 C   0  0  0  0  0  2  0  0  0  0  0  0
  160.6540  203.5960  148.6140 O   0  0  0  0  0  1  0  0  0  0  0  0
  161.5470  205.7870  152.9310 C   0  0  2  0  0  3  0  0  0  0  0  0
  160.8280  202.1730  152.0080 C   0  0  0  0  0  3  0  0  0  0  0  0
  161.1210  204.6720  150.7470 C   0  0  0  0  0  0  0  0  0  0  0  0
  160.8310  207.0030  152.3710 C   0  0  1  0  0  3  0  0  0  0  0  0
  161.2620  207.8360  155.7460 O   0  0  0  0  0  0  0  0  0  0  0  0
  161.0310  208.0300  153.3940 N   0  0  0  0  0  0  0  0  0  0  0  0
  160.4730  211.6680  153.8940 C   0  0  0  0  0  2  0  0  0  0  0  0
  162.7620  209.8960  151.6250 C   0  0  0  0  0  1  0  0  0  0  0  0
  161.0900  203.3090  152.7730 C   0  0  0  0  0  3  0  0  0  0  0  0
  161.2060  204.5590  152.1540 C   0  0  0  0  0  0  0  0  0  0  0  0
  161.3430  209.7890  151.0670 C   0  0  2  0  0  3  0  0  0  0  0  0
  162.7060  207.4230  146.8980 C   0  0  0  0  0  2  0  0  0  0  0  0
  160.8350  206.2030  145.8310 C   0  0  0  0  0  1  0  0  0  0  0  0
  162.3160  206.1640  146.1440 C   0  0  0  0  0  2  0  0  0  0  0  0
  1  5  1  6  0  0  0
  1 19  1  0  0  0  0
  1  4  1  0  0  0  0
  2 13  2  0  0  0  0
  2 19  1  0  0  0  0
  3 10  1  0  0  0  0
  4 20  1  0  0  0  0
  6  8  2  0  0  0  0
  7 15  1  0  0  0  0
  7  9  1  0  0  0  0
  8 12  1  0  0  0  0
  9 14  1  0  0  0  0
 10 21  2  0  0  0  0
 11  8  1  0  0  0  0
 11  5  1  0  0  0  0
 12  4  1  0  0  0  0
 12 27  1  0  0  0  0
 13 18  1  0  0  0  0
 15 23  1  0  0  0  0
 16  2  1  0  0  0  0
 17  3  1  0  0  0  0
 18 25  2  0  0  0  0
 19 26  2  0  0  0  0
 20 17  1  0  0  0  0
 20 22  1  0  0  0  0
 22  9  1  0  0  0  0
 22 10  1  0  0  0  0
 23 14  1  0  0  0  0
 26 25  1  0  0  0  0
 26 17  1  0  0  0  0
 27 24  1  0  0  0  0
 27  7  1  0  0  0  0
 28 11  1  0  0  0  0
 29 30  1  0  0  0  0
 30 28  1  0  0  0  0
M  END
>  <MODEL>
3

>  <REMARK>
 VINA RESULT:      -5.8      2.037      3.060
  Name = 
  2 active torsions:
  status: ('A' for Active; 'I' for Inactive)
    1  A    between atoms: N_11  and  C_28
    2  A    between atoms: C_28  and  C_30
                            x       y       z     vdW  Elec       q    Type
                         _______ _______ _______ _____ _____    ______ ____

>  <TORSDO>
F 2

$$$$
=
 OpenBabel11122412333D

 30 35  0  0  1  0  0  0  0  0999 V2000
  160.1370  210.6060  151.8340 C   0  0  1  0  0  3  0  0  0  0  0  0
  161.2540  208.3140  151.7150 C   0  0  0  0  0  0  0  0  0  0  0  0
  159.3220  209.9390  156.0610 C   0  0  0  0  0  2  0  0  0  0  0  0
  159.4820  211.6380  152.7830 C   0  0  1  0  0  3  0  0  0  0  0  0
  161.1980  211.3420  151.0250 C   0  0  0  0  0  2  0  0  0  0  0  0
  158.9310  214.1010  150.1170 O   0  0  0  0  0  0  0  0  0  0  0  0
  156.6530  213.1500  153.3860 C   0  0  1  0  0  3  0  0  0  0  0  0
  159.3960  213.1200  150.7600 C   0  0  0  0  0  0  0  0  0  0  0  0
  156.8190  212.4250  154.7220 C   0  0  2  0  0  3  0  0  0  0  0  0
  158.3810  211.0790  156.1700 C   0  0  0  0  0  0  0  0  0  0  0  0
  160.6140  212.4810  150.3140 N   0  0  0  0  0  0  0  0  0  0  0  0
  158.6120  212.5600  151.9280 C   0  0  2  0  0  3  0  0  0  0  0  0
  161.6840  207.1290  152.3200 C   0  0  0  0  0  3  0  0  0  0  0  0
  156.5600  213.4870  155.7740 C   0  0  0  0  0  2  0  0  0  0  0  0
  155.7140  214.3160  153.6560 C   0  0  0  0  0  2  0  0  0  0  0  0
  161.4050  208.4620  150.3420 O   0  0  0  0  0  1  0  0  0  0  0  0
  159.8690  210.2110  154.6800 C   0  0  2  0  0  3  0  0  0  0  0  0
  161.5230  206.9360  153.6940 C   0  0  0  0  0  3  0  0  0  0  0  0
  160.6700  209.3340  152.4930 C   0  0  0  0  0  0  0  0  0  0  0  0
  158.7580  210.9070  153.9160 C   0  0  1  0  0  3  0  0  0  0  0  0
  157.8330  211.3990  157.2580 O   0  0  0  0  0  0  0  0  0  0  0  0
  158.1030  211.7370  154.9270 N   0  0  0  0  0  0  0  0  0  0  0  0
  155.5200  214.3970  155.1610 C   0  0  0  0  0  2  0  0  0  0  0  0
  158.8690  214.4520  153.6420 C   0  0  0  0  0  1  0  0  0  0  0  0
  160.9180  207.9230  154.4710 C   0  0  0  0  0  3  0  0  0  0  0  0
  160.4650  209.1050  153.8730 C   0  0  0  0  0  0  0  0  0  0  0  0
  157.9310  213.6680  152.7250 C   0  0  2  0  0  3  0  0  0  0  0  0
  161.3260  212.9730  149.1420 C   0  0  0  0  0  2  0  0  0  0  0  0
  163.3210  212.2350  147.8780 C   0  0  0  0  0  1  0  0  0  0  0  0
  161.9580  211.8180  148.3870 C   0  0  0  0  0  2  0  0  0  0  0  0
  1  5  1  1  0  0  0
  1 19  1  0  0  0  0
  1  4  1  0  0  0  0
  2 13  2  0  0  0  0
  2 19  1  0  0  0  0
  3 10  1  0  0  0  0
  4 20  1  0  0  0  0
  6  8  2  0  0  0  0
  7 15  1  0  0  0  0
  7  9  1  0  0  0  0
  8 12  1  0  0  0  0
  9 22  1  0  0  0  0
  9 14  1  0  0  0  0
 10 21  2  0  0  0  0
 11  8  1  0  0  0  0
 11  5  1  0  0  0  0
 12 27  1  0  0  0  0
 12  4  1  0  0  0  0
 13 18  1  0  0  0  0
 15 23  1  0  0  0  0
 16  2  1  0  0  0  0
 17  3  1  0  0  0  0
 18 25  2  0  0  0  0
 19 26  2  0  0  0  0
 20 17  1  0  0  0  0
 20 22  1  0  0  0  0
 22 10  1  0  0  0  0
 23 14  1  0  0  0  0
 26 25  1  0  0  0  0
 26 17  1  0  0  0  0
 27  7  1  0  0  0  0
 27 24  1  0  0  0  0
 28 11  1  0  0  0  0
 29 30  1  0  0  0  0
 30 28  1  0  0  0  0
M  END
>  <MODEL>
4

>  <REMARK>
 VINA RESULT:      -5.6      2.595      3.771
  Name = 
  2 active torsions:
  status: ('A' for Active; 'I' for Inactive)
    1  A    between atoms: N_11  and  C_28
    2  A    between atoms: C_28  and  C_30
                            x       y       z     vdW  Elec       q    Type
                         _______ _______ _______ _____ _____    ______ ____

>  <TORSDO>
F 2

$$$$
=
 OpenBabel11122412333D

 30 35  0  0  1  0  0  0  0  0999 V2000
  161.7600  210.3190  150.6810 C   0  0  1  0  0  3  0  0  0  0  0  0
  161.9190  212.2030  148.9660 C   0  0  0  0  0  0  0  0  0  0  0  0
  159.1520  212.8170  153.1170 C   0  0  0  0  0  2  0  0  0  0  0  0
  161.0820  209.8710  151.9970 C   0  0  1  0  0  3  0  0  0  0  0  0
  161.5700  209.1970  149.6670 C   0  0  0  0  0  2  0  0  0  0  0  0
  162.7070  206.5790  151.9970 O   0  0  0  0  0  0  0  0  0  0  0  0
  161.7420  209.0790  155.0940 C   0  0  1  0  0  3  0  0  0  0  0  0
  162.2450  207.6840  151.5990 C   0  0  0  0  0  0  0  0  0  0  0  0
  160.8350  210.2850  155.3500 C   0  0  2  0  0  3  0  0  0  0  0  0
  159.2500  211.9440  154.3100 C   0  0  0  0  0  0  0  0  0  0  0  0
  162.1020  207.9340  150.1820 N   0  0  0  0  0  0  0  0  0  0  0  0
  161.9510  208.7720  152.6100 C   0  0  2  0  0  3  0  0  0  0  0  0
  161.5690  213.4790  148.5130 C   0  0  0  0  0  3  0  0  0  0  0  0
  159.8480  209.8110  156.3990 C   0  0  0  0  0  2  0  0  0  0  0  0
  161.7060  208.2520  156.3700 C   0  0  0  0  0  2  0  0  0  0  0  0
  162.8510  211.4650  148.2460 O   0  0  0  0  0  1  0  0  0  0  0  0
  159.8310  211.9230  152.1070 C   0  0  2  0  0  3  0  0  0  0  0  0
  160.6560  214.2580  149.2270 C   0  0  0  0  0  3  0  0  0  0  0  0
  161.3370  211.6850  150.1400 C   0  0  0  0  0  0  0  0  0  0  0  0
  160.8330  211.0910  152.8880 C   0  0  1  0  0  3  0  0  0  0  0  0
  158.6190  212.1830  155.3730 O   0  0  0  0  0  0  0  0  0  0  0  0
  160.1670  210.8510  154.1680 N   0  0  0  0  0  0  0  0  0  0  0  0
  160.6280  208.8450  157.2610 C   0  0  0  0  0  2  0  0  0  0  0  0
  159.9120  207.7820  153.8130 C   0  0  0  0  0  1  0  0  0  0  0  0
  160.0960  213.7710  150.4080 C   0  0  0  0  0  3  0  0  0  0  0  0
  160.4550  212.5040  150.8820 C   0  0  0  0  0  0  0  0  0  0  0  0
  161.3820  208.1930  153.9010 C   0  0  2  0  0  3  0  0  0  0  0  0
  162.4600  206.9130  149.2070 C   0  0  0  0  0  2  0  0  0  0  0  0
  160.8310  205.0540  149.3160 C   0  0  0  0  0  1  0  0  0  0  0  0
  161.2100  206.3220  148.5810 C   0  0  0  0  0  2  0  0  0  0  0  0
  1  5  1  6  0  0  0
  1  4  1  0  0  0  0
  2 19  1  0  0  0  0
  3 10  1  0  0  0  0
  4 12  1  0  0  0  0
  4 20  1  0  0  0  0
  5 11  1  0  0  0  0
  7  9  1  0  0  0  0
  7 15  1  0  0  0  0
  8  6  2  0  0  0  0
  8 12  1  0  0  0  0
  9 14  1  0  0  0  0
 10 21  2  0  0  0  0
 11  8  1  0  0  0  0
 12 27  1  0  0  0  0
 13  2  2  0  0  0  0
 13 18  1  0  0  0  0
 14 23  1  0  0  0  0
 15 23  1  0  0  0  0
 16  2  1  0  0  0  0
 17 20  1  0  0  0  0
 17  3  1  0  0  0  0
 18 25  2  0  0  0  0
 19  1  1  0  0  0  0
 19 26  2  0  0  0  0
 20 22  1  0  0  0  0
 22 10  1  0  0  0  0
 22  9  1  0  0  0  0
 24 27  1  0  0  0  0
 25 26  1  0  0  0  0
 26 17  1  0  0  0  0
 27  7  1  0  0  0  0
 28 11  1  0  0  0  0
 30 28  1  0  0  0  0
 30 29  1  0  0  0  0
M  END
>  <MODEL>
5

>  <REMARK>
 VINA RESULT:      -5.3      2.006      5.186
  Name = 
  2 active torsions:
  status: ('A' for Active; 'I' for Inactive)
    1  A    between atoms: N_11  and  C_28
    2  A    between atoms: C_28  and  C_30
                            x       y       z     vdW  Elec       q    Type
                         _______ _______ _______ _____ _____    ______ ____

>  <TORSDO>
F 2

$$$$
=
 OpenBabel11122412333D

 30 35  0  0  1  0  0  0  0  0999 V2000
  161.7510  208.7180  151.6950 C   0  0  1  0  0  3  0  0  0  0  0  0
  161.7920  209.0620  154.2250 C   0  0  0  0  0  0  0  0  0  0  0  0
  160.4390  204.6120  152.3200 C   0  0  0  0  0  2  0  0  0  0  0  0
  161.3870  207.7240  150.5680 C   0  0  1  0  0  3  0  0  0  0  0  0
  161.0800  210.0460  151.3660 C   0  0  0  0  0  2  0  0  0  0  0  0
  162.2890  210.0640  147.8860 O   0  0  0  0  0  0  0  0  0  0  0  0
  162.7070  205.9960  148.1330 C   0  0  1  0  0  3  0  0  0  0  0  0
  161.9560  209.6120  149.0160 C   0  0  0  0  0  0  0  0  0  0  0  0
  162.1530  204.8390  148.9660 C   0  0  2  0  0  3  0  0  0  0  0  0
  160.6910  204.2040  150.9180 C   0  0  0  0  0  0  0  0  0  0  0  0
  161.4810  210.5170  150.0390 N   0  0  0  0  0  0  0  0  0  0  0  0
  162.1640  208.1440  149.3190 C   0  0  2  0  0  3  0  0  0  0  0  0
  161.5820  208.5980  155.5270 C   0  0  0  0  0  3  0  0  0  0  0  0
  161.4190  203.9610  147.9720 C   0  0  0  0  0  2  0  0  0  0  0  0
  162.8650  205.4550  146.7200 C   0  0  0  0  0  2  0  0  0  0  0  0
  162.3310  210.3290  154.0410 O   0  0  0  0  0  1  0  0  0  0  0  0
  160.6310  206.1030  152.1750 C   0  0  2  0  0  3  0  0  0  0  0  0
  161.0660  207.3190  155.7480 C   0  0  0  0  0  3  0  0  0  0  0  0
  161.4660  208.2480  153.1220 C   0  0  0  0  0  0  0  0  0  0  0  0
  161.6300  206.2920  151.0480 C   0  0  1  0  0  3  0  0  0  0  0  0
  160.4340  203.0450  150.4970 O   0  0  0  0  0  0  0  0  0  0  0  0
  161.3070  205.2160  150.1100 N   0  0  0  0  0  0  0  0  0  0  0  0
  162.2060  204.0870  146.6870 C   0  0  0  0  0  2  0  0  0  0  0  0
  160.3830  207.0770  147.8100 C   0  0  0  0  0  1  0  0  0  0  0  0
  160.7690  206.4890  154.6660 C   0  0  0  0  0  3  0  0  0  0  0  0
  160.9940  206.9360  153.3590 C   0  0  0  0  0  0  0  0  0  0  0  0
  161.8710  207.2760  148.0990 C   0  0  2  0  0  3  0  0  0  0  0  0
  161.3560  211.9430  149.7700 C   0  0  0  0  0  2  0  0  0  0  0  0
  159.7390  213.7740  150.1670 C   0  0  0  0  0  1  0  0  0  0  0  0
  160.4460  212.5940  150.7980 C   0  0  0  0  0  2  0  0  0  0  0  0
  1  5  1  6  0  0  0
  1 19  1  0  0  0  0
  2 13  1  0  0  0  0
  4 20  1  0  0  0  0
  4  1  1  0  0  0  0
  6  8  2  0  0  0  0
  7  9  1  0  0  0  0
  8 12  1  0  0  0  0
  8 11  1  0  0  0  0
  9 22  1  0  0  0  0
 10  3  1  0  0  0  0
 11  5  1  0  0  0  0
 12  4  1  0  0  0  0
 13 18  2  0  0  0  0
 14  9  1  0  0  0  0
 15  7  1  0  0  0  0
 16  2  1  0  0  0  0
 17  3  1  0  0  0  0
 17 26  1  0  0  0  0
 19 26  1  0  0  0  0
 19  2  2  0  0  0  0
 20 17  1  0  0  0  0
 21 10  2  0  0  0  0
 22 10  1  0  0  0  0
 22 20  1  0  0  0  0
 23 15  1  0  0  0  0
 23 14  1  0  0  0  0
 24 27  1  0  0  0  0
 25 18  1  0  0  0  0
 26 25  2  0  0  0  0
 27  7  1  0  0  0  0
 27 12  1  0  0  0  0
 28 11  1  0  0  0  0
 28 30  1  0  0  0  0
 29 30  1  0  0  0  0
M  END
>  <MODEL>
6

>  <REMARK>
 VINA RESULT:      -5.2      2.275      5.911
  Name = 
  2 active torsions:
  status: ('A' for Active; 'I' for Inactive)
    1  A    between atoms: N_11  and  C_28
    2  A    between atoms: C_28  and  C_30
                            x       y       z     vdW  Elec       q    Type
                         _______ _______ _______ _____ _____    ______ ____

>  <TORSDO>
F 2

$$$$
