=
 OpenBabel11122412553D

 32 37  0  0  1  0  0  0  0  0999 V2000
  159.9390  201.5850  149.2610 C   0  0  0  0  0  2  0  0  0  0  0  0
  161.6480  206.3250  151.3690 C   0  0  2  0  0  3  0  0  0  0  0  0
  162.9570  209.6850  148.3930 C   0  0  0  0  0  2  0  0  0  0  0  0
  161.8060  210.6460  148.7360 C   0  0  0  0  0  2  0  0  0  0  0  0
  161.4410  207.0170  153.8060 C   0  0  0  0  0  0  0  0  0  0  0  0
  161.0110  208.0100  154.7750 C   0  0  0  0  0  0  0  0  0  0  0  0
  161.3550  203.9340  150.6150 C   0  0  2  0  0  3  0  0  0  0  0  0
  161.4180  205.6690  148.9440 C   0  0  0  0  0  2  0  0  0  0  0  0
  160.4210  209.9790  155.5030 N   0  0  0  0  0  0  0  0  0  0  0  0
  161.3370  203.4650  148.2770 C   0  0  0  0  0  2  0  0  0  0  0  0
  162.6240  208.2190  148.7490 C   0  0  0  0  0  2  0  0  0  0  0  0
  161.0960  206.7330  149.9970 C   0  0  2  0  0  3  0  0  0  0  0  0
  161.4120  208.1170  149.5780 N   0  0  1  0  0  0  0  0  0  0  0  0
  160.7980  208.6580  151.9550 C   0  0  2  0  0  3  0  0  0  0  0  0
  160.5310  209.1950  156.5670 N   0  0  0  0  0  0  0  0  0  0  0  0
  160.9850  201.5750  150.1910 O   0  0  0  0  0  0  0  0  0  0  0  0
  160.8340  204.3750  149.3020 N   0  0  1  0  0  0  0  0  0  0  0  0
  160.9020  207.9590  156.1530 C   0  0  0  0  0  3  0  0  0  0  0  0
  160.6890  202.6270  151.0640 C   0  0  0  0  0  2  0  0  0  0  0  0
  160.3430  202.3340  147.9900 C   0  0  1  0  0  3  0  0  0  0  0  0
  161.3290  210.4860  150.1910 C   0  0  0  0  0  2  0  0  0  0  0  0
  161.5730  209.0590  150.6940 C   0  0  2  0  0  3  0  0  0  0  0  0
  160.9250  209.7800  153.0200 C   0  0  0  0  0  2  0  0  0  0  0  0
  161.0350  204.9650  151.6990 C   0  0  0  0  0  2  0  0  0  0  0  0
  161.9380  205.9250  154.1950 O   0  0  0  0  0  0  0  0  0  0  0  0
  160.1090  211.3960  155.5680 C   0  0  0  0  0  1  0  0  0  0  0  0
  161.3070  207.3300  152.3980 N   0  0  0  0  0  0  0  0  0  0  0  0
  160.6910  209.2690  154.4000 C   0  0  0  0  0  0  0  0  0  0  0  0
  160.9450  201.3530  146.9970 C   0  0  0  0  0  2  0  0  0  0  0  0
  160.5810  201.7240  145.6000 C   0  0  0  0  0  0  0  0  0  0  0  0
  160.8590  202.9980  145.1240 O   0  0  0  0  0  1  0  0  0  0  0  0
  160.0450  200.8740  144.8420 O   0  0  0  0  0  0  0  0  0  0  0  0
  1 16  1  0  0  0  0
  2 24  1  1  0  0  0
  2 27  1  0  0  0  0
  3  4  1  0  0  0  0
  3 11  1  0  0  0  0
  4 21  1  0  0  0  0
  5 25  2  0  0  0  0
  5  6  1  0  0  0  0
  6 18  1  0  0  0  0
  7 19  1  1  0  0  0
  7 24  1  0  0  0  0
  8 17  1  0  0  0  0
  9 26  1  0  0  0  0
  9 15  1  0  0  0  0
 12  8  1  6  0  0  0
 12  2  1  0  0  0  0
 13 11  1  1  0  0  0
 13 12  1  0  0  0  0
 13 22  1  0  0  0  0
 14 27  1  0  0  0  0
 14 23  1  1  0  0  0
 16 19  1  0  0  0  0
 17 10  1  6  0  0  0
 17  7  1  0  0  0  0
 18 15  2  0  0  0  0
 20 29  1  6  0  0  0
 20 10  1  0  0  0  0
 20  1  1  0  0  0  0
 22 21  1  6  0  0  0
 22 14  1  0  0  0  0
 23 28  1  0  0  0  0
 27  5  1  0  0  0  0
 28  6  2  0  0  0  0
 28  9  1  0  0  0  0
 30 29  1  0  0  0  0
 31 30  1  0  0  0  0
 32 30  2  0  0  0  0
M  END
>  <MODEL>
1

>  <REMARK>
 VINA RESULT:      -8.4      0.000      0.000
  Name = 
  2 active torsions:
  status: ('A' for Active; 'I' for Inactive)
    1  A    between atoms: C_20  and  C_29
    2  A    between atoms: C_29  and  C_30
                            x       y       z     vdW  Elec       q    Type
                         _______ _______ _______ _____ _____    ______ ____

>  <TORSDO>
F 2

$$$$
=
 OpenBabel11122412553D

 32 37  0  0  1  0  0  0  0  0999 V2000
  160.2310  202.2630  149.3220 C   0  0  0  0  0  2  0  0  0  0  0  0
  161.5200  206.9100  151.8880 C   0  0  2  0  0  3  0  0  0  0  0  0
  162.6840  210.5970  149.2590 C   0  0  0  0  0  2  0  0  0  0  0  0
  161.4560  211.4420  149.6350 C   0  0  0  0  0  2  0  0  0  0  0  0
  161.1800  207.3720  154.3630 C   0  0  0  0  0  0  0  0  0  0  0  0
  160.6460  208.2460  155.3940 C   0  0  0  0  0  0  0  0  0  0  0  0
  161.4270  204.5780  150.9250 C   0  0  2  0  0  3  0  0  0  0  0  0
  161.4220  206.4520  149.4090 C   0  0  0  0  0  2  0  0  0  0  0  0
  159.8900  210.1000  156.2600 N   0  0  0  0  0  0  0  0  0  0  0  0
  161.5230  204.3130  148.5560 C   0  0  0  0  0  2  0  0  0  0  0  0
  162.4460  209.0860  149.4770 C   0  0  0  0  0  2  0  0  0  0  0  0
  160.9870  207.3960  150.5330 C   0  0  2  0  0  3  0  0  0  0  0  0
  161.2170  208.8300  150.2460 N   0  0  1  0  0  0  0  0  0  0  0  0
  160.4840  209.1190  152.6320 C   0  0  2  0  0  3  0  0  0  0  0  0
  160.0200  209.2360  157.2590 N   0  0  0  0  0  0  0  0  0  0  0  0
  161.2430  202.2450  150.2900 O   0  0  0  0  0  0  0  0  0  0  0  0
  160.9200  205.0950  149.6330 N   0  0  1  0  0  0  0  0  0  0  0  0
  160.4930  208.0690  156.7580 C   0  0  0  0  0  3  0  0  0  0  0  0
  160.8410  203.1950  151.2360 C   0  0  0  0  0  2  0  0  0  0  0  0
  160.6240  203.1460  148.1360 C   0  0  1  0  0  3  0  0  0  0  0  0
  160.9410  211.1250  151.0500 C   0  0  0  0  0  2  0  0  0  0  0  0
  161.2700  209.6810  151.4420 C   0  0  2  0  0  3  0  0  0  0  0  0
  160.4930  210.1510  153.7910 C   0  0  0  0  0  2  0  0  0  0  0  0
  160.9960  205.4870  152.0780 C   0  0  0  0  0  2  0  0  0  0  0  0
  161.7410  206.2880  154.6800 O   0  0  0  0  0  0  0  0  0  0  0  0
  159.4750  211.4810  156.4310 C   0  0  0  0  0  1  0  0  0  0  0  0
  161.0710  207.7960  152.9830 N   0  0  0  0  0  0  0  0  0  0  0  0
  160.2490  209.5080  155.1130 C   0  0  0  0  0  0  0  0  0  0  0  0
  161.3290  202.2980  147.0890 C   0  0  0  0  0  2  0  0  0  0  0  0
  160.8000  202.5920  145.7270 C   0  0  0  0  0  0  0  0  0  0  0  0
  160.0310  201.6470  145.0620 O   0  0  0  0  0  0  0  0  0  0  0  0
  161.0280  203.7060  145.1890 O   0  0  0  0  0  1  0  0  0  0  0  0
  1 16  1  0  0  0  0
  2 24  1  1  0  0  0
  2 27  1  0  0  0  0
  3 11  1  0  0  0  0
  3  4  1  0  0  0  0
  4 21  1  0  0  0  0
  5 25  2  0  0  0  0
  5  6  1  0  0  0  0
  6 18  1  0  0  0  0
  7 19  1  1  0  0  0
  7 24  1  0  0  0  0
  8 17  1  0  0  0  0
  9 26  1  0  0  0  0
  9 15  1  0  0  0  0
 12  8  1  6  0  0  0
 12  2  1  0  0  0  0
 13 11  1  1  0  0  0
 13 12  1  0  0  0  0
 13 22  1  0  0  0  0
 14 27  1  0  0  0  0
 14 23  1  1  0  0  0
 16 19  1  0  0  0  0
 17 10  1  6  0  0  0
 17  7  1  0  0  0  0
 18 15  2  0  0  0  0
 20 29  1  6  0  0  0
 20 10  1  0  0  0  0
 20  1  1  0  0  0  0
 22 21  1  6  0  0  0
 22 14  1  0  0  0  0
 23 28  1  0  0  0  0
 27  5  1  0  0  0  0
 28  6  2  0  0  0  0
 28  9  1  0  0  0  0
 30 29  1  0  0  0  0
 31 30  2  0  0  0  0
 32 30  1  0  0  0  0
M  END
>  <MODEL>
2

>  <REMARK>
 VINA RESULT:      -7.4      0.874      1.061
  Name = 
  2 active torsions:
  status: ('A' for Active; 'I' for Inactive)
    1  A    between atoms: C_20  and  C_29
    2  A    between atoms: C_29  and  C_30
                            x       y       z     vdW  Elec       q    Type
                         _______ _______ _______ _____ _____    ______ ____

>  <TORSDO>
F 2

$$$$
=
 OpenBabel11122412553D

 32 37  0  0  1  0  0  0  0  0999 V2000
  160.4950  210.6390  153.1980 C   0  0  0  0  0  2  0  0  0  0  0  0
  161.7910  206.3560  150.0660 C   0  0  2  0  0  3  0  0  0  0  0  0
  161.8910  202.1380  152.0800 C   0  0  0  0  0  2  0  0  0  0  0  0
  160.6920  201.5710  151.3010 C   0  0  0  0  0  2  0  0  0  0  0  0
  161.9740  206.3820  147.5310 C   0  0  0  0  0  0  0  0  0  0  0  0
  161.5930  205.7920  146.2600 C   0  0  0  0  0  0  0  0  0  0  0  0
  161.7500  208.4740  151.4390 C   0  0  2  0  0  3  0  0  0  0  0  0
  161.1830  206.3930  152.5140 C   0  0  0  0  0  2  0  0  0  0  0  0
  160.8460  204.2560  144.9040 N   0  0  0  0  0  0  0  0  0  0  0  0
  161.3320  208.3120  153.7810 C   0  0  0  0  0  2  0  0  0  0  0  0
  161.8840  203.6820  152.1260 C   0  0  0  0  0  2  0  0  0  0  0  0
  160.9100  205.7350  151.1590 C   0  0  2  0  0  3  0  0  0  0  0  0
  160.9010  204.2550  151.1930 N   0  0  1  0  0  0  0  0  0  0  0  0
  160.7050  204.4960  148.6980 C   0  0  2  0  0  3  0  0  0  0  0  0
  161.2990  205.2460  144.1470 N   0  0  0  0  0  0  0  0  0  0  0  0
  161.6960  210.6640  152.4790 O   0  0  0  0  0  0  0  0  0  0  0  0
  160.9060  207.8300  152.4710 N   0  0  1  0  0  0  0  0  0  0  0  0
  161.7770  206.2220  144.9570 C   0  0  0  0  0  3  0  0  0  0  0  0
  161.4150  209.9640  151.3010 C   0  0  0  0  0  2  0  0  0  0  0  0
  160.5020  209.5160  154.2370 C   0  0  1  0  0  3  0  0  0  0  0  0
  160.5540  202.2030  149.9040 C   0  0  0  0  0  2  0  0  0  0  0  0
  161.1280  203.6230  149.8850 C   0  0  2  0  0  3  0  0  0  0  0  0
  160.8590  203.6890  147.3820 C   0  0  0  0  0  2  0  0  0  0  0  0
  161.4920  207.8540  150.0640 C   0  0  0  0  0  2  0  0  0  0  0  0
  162.7140  207.4040  147.5600 O   0  0  0  0  0  0  0  0  0  0  0  0
  160.3240  203.0060  144.3790 C   0  0  0  0  0  1  0  0  0  0  0  0
  161.5050  205.7510  148.7470 N   0  0  0  0  0  0  0  0  0  0  0  0
  160.9990  204.5790  146.1950 C   0  0  0  0  0  0  0  0  0  0  0  0
  161.0420  210.0510  155.5530 C   0  0  0  0  0  2  0  0  0  0  0  0
  161.1860  208.9550  156.5520 C   0  0  0  0  0  0  0  0  0  0  0  0
  160.0780  208.2060  156.9260 O   0  0  0  0  0  0  0  0  0  0  0  0
  162.3160  208.6890  157.0370 O   0  0  0  0  0  1  0  0  0  0  0  0
  1 20  1  0  0  0  0
  2 24  1  6  0  0  0
  2 12  1  0  0  0  0
  3 11  1  0  0  0  0
  4  3  1  0  0  0  0
  5 25  2  0  0  0  0
  5 27  1  0  0  0  0
  6  5  1  0  0  0  0
  7 24  1  6  0  0  0
  7 17  1  0  0  0  0
  9 28  1  0  0  0  0
 10 20  1  0  0  0  0
 12 13  1  0  0  0  0
 12  8  1  1  0  0  0
 13 11  1  1  0  0  0
 14 23  1  6  0  0  0
 14 27  1  0  0  0  0
 14 22  1  0  0  0  0
 15  9  1  0  0  0  0
 15 18  2  0  0  0  0
 16  1  1  0  0  0  0
 17  8  1  1  0  0  0
 17 10  1  0  0  0  0
 18  6  1  0  0  0  0
 19  7  1  0  0  0  0
 19 16  1  0  0  0  0
 20 29  1  1  0  0  0
 21  4  1  0  0  0  0
 22 21  1  1  0  0  0
 22 13  1  0  0  0  0
 26  9  1  0  0  0  0
 27  2  1  0  0  0  0
 28  6  2  0  0  0  0
 28 23  1  0  0  0  0
 29 30  1  0  0  0  0
 30 31  2  0  0  0  0
 30 32  1  0  0  0  0
M  END
>  <MODEL>
3

>  <REMARK>
 VINA RESULT:      -6.9      2.726      8.803
  Name = 
  2 active torsions:
  status: ('A' for Active; 'I' for Inactive)
    1  A    between atoms: C_20  and  C_29
    2  A    between atoms: C_29  and  C_30
                            x       y       z     vdW  Elec       q    Type
                         _______ _______ _______ _____ _____    ______ ____

>  <TORSDO>
F 2

$$$$
=
 OpenBabel11122412553D

 32 37  0  0  1  0  0  0  0  0999 V2000
  160.9810  204.5460  148.8540 C   0  0  0  0  0  2  0  0  0  0  0  0
  161.6090  209.5470  150.9580 C   0  0  2  0  0  3  0  0  0  0  0  0
  162.9240  212.9750  148.0640 C   0  0  0  0  0  2  0  0  0  0  0  0
  161.6070  213.7640  148.1570 C   0  0  0  0  0  2  0  0  0  0  0  0
  160.8860  210.2710  153.2840 C   0  0  0  0  0  0  0  0  0  0  0  0
  160.1580  211.2170  154.1120 C   0  0  0  0  0  0  0  0  0  0  0  0
  161.7930  207.1180  150.2960 C   0  0  2  0  0  3  0  0  0  0  0  0
  161.8990  208.7930  148.5670 C   0  0  0  0  0  2  0  0  0  0  0  0
  159.1770  213.0970  154.6230 N   0  0  0  0  0  0  0  0  0  0  0  0
  162.2480  206.5830  148.0170 C   0  0  0  0  0  2  0  0  0  0  0  0
  162.7460  211.4870  148.4390 C   0  0  0  0  0  2  0  0  0  0  0  0
  161.2510  209.8280  149.4920 C   0  0  2  0  0  3  0  0  0  0  0  0
  161.4360  211.2310  149.0580 N   0  0  1  0  0  0  0  0  0  0  0  0
  160.3480  211.7430  151.2650 C   0  0  2  0  0  3  0  0  0  0  0  0
  159.2110  212.3700  155.7310 N   0  0  0  0  0  0  0  0  0  0  0  0
  161.8400  204.7190  149.9460 O   0  0  0  0  0  0  0  0  0  0  0  0
  161.4500  207.4380  148.8920 N   0  0  1  0  0  0  0  0  0  0  0  0
  159.8190  211.1910  155.4530 C   0  0  0  0  0  3  0  0  0  0  0  0
  161.2510  205.7400  150.6980 C   0  0  0  0  0  2  0  0  0  0  0  0
  161.4900  205.3090  147.6300 C   0  0  1  0  0  3  0  0  0  0  0  0
  160.9120  213.5780  149.5180 C   0  0  0  0  0  2  0  0  0  0  0  0
  161.2650  212.2190  150.1320 C   0  0  2  0  0  3  0  0  0  0  0  0
  160.1280  212.9020  152.2730 C   0  0  0  0  0  2  0  0  0  0  0  0
  161.1470  208.1210  151.2540 C   0  0  0  0  0  2  0  0  0  0  0  0
  161.4580  209.2770  153.8100 O   0  0  0  0  0  0  0  0  0  0  0  0
  158.6610  214.4530  154.5570 C   0  0  0  0  0  1  0  0  0  0  0  0
  160.9550  210.5190  151.8590 N   0  0  0  0  0  0  0  0  0  0  0  0
  159.7330  212.4030  153.6210 C   0  0  0  0  0  0  0  0  0  0  0  0
  162.3870  204.4000  146.8060 C   0  0  0  0  0  2  0  0  0  0  0  0
  161.6860  203.9380  145.5750 C   0  0  0  0  0  0  0  0  0  0  0  0
  161.5980  204.7750  144.4710 O   0  0  0  0  0  0  0  0  0  0  0  0
  161.1970  202.7800  145.5250 O   0  0  0  0  0  1  0  0  0  0  0  0
  1 16  1  0  0  0  0
  2 24  1  1  0  0  0
  2 27  1  0  0  0  0
  3  4  1  0  0  0  0
  3 11  1  0  0  0  0
  4 21  1  0  0  0  0
  5 25  2  0  0  0  0
  5  6  1  0  0  0  0
  6 18  1  0  0  0  0
  7 19  1  1  0  0  0
  7 24  1  0  0  0  0
  8 17  1  0  0  0  0
  9 15  1  0  0  0  0
 12  8  1  6  0  0  0
 12  2  1  0  0  0  0
 13 11  1  1  0  0  0
 13 12  1  0  0  0  0
 13 22  1  0  0  0  0
 14 27  1  0  0  0  0
 14 23  1  1  0  0  0
 16 19  1  0  0  0  0
 17 10  1  6  0  0  0
 17  7  1  0  0  0  0
 18 15  2  0  0  0  0
 20 29  1  1  0  0  0
 20 10  1  0  0  0  0
 20  1  1  0  0  0  0
 22 21  1  6  0  0  0
 22 14  1  0  0  0  0
 23 28  1  0  0  0  0
 26  9  1  0  0  0  0
 27  5  1  0  0  0  0
 28  6  2  0  0  0  0
 28  9  1  0  0  0  0
 30 29  1  0  0  0  0
 31 30  2  0  0  0  0
 32 30  1  0  0  0  0
M  END
>  <MODEL>
4

>  <REMARK>
 VINA RESULT:      -6.6      2.205      3.205
  Name = 
  2 active torsions:
  status: ('A' for Active; 'I' for Inactive)
    1  A    between atoms: C_20  and  C_29
    2  A    between atoms: C_29  and  C_30
                            x       y       z     vdW  Elec       q    Type
                         _______ _______ _______ _____ _____    ______ ____

>  <TORSDO>
F 2

$$$$
=
 OpenBabel11122412553D

 32 37  0  0  1  0  0  0  0  0999 V2000
  161.9550  208.8880  156.6340 C   0  0  0  0  0  2  0  0  0  0  0  0
  161.0680  208.3560  151.2710 C   0  0  2  0  0  3  0  0  0  0  0  0
  161.3180  212.2060  148.6310 C   0  0  0  0  0  2  0  0  0  0  0  0
  162.5690  211.7720  147.8500 C   0  0  0  0  0  2  0  0  0  0  0  0
  160.9080  206.1540  150.0130 C   0  0  0  0  0  0  0  0  0  0  0  0
  161.3510  205.3330  148.8990 C   0  0  0  0  0  0  0  0  0  0  0  0
  160.9110  208.4880  153.7870 C   0  0  2  0  0  3  0  0  0  0  0  0
  161.6470  210.4370  152.5750 C   0  0  0  0  0  2  0  0  0  0  0  0
  162.2430  204.8980  146.9560 N   0  0  0  0  0  0  0  0  0  0  0  0
  161.3180  210.5830  154.8510 C   0  0  0  0  0  2  0  0  0  0  0  0
  161.1890  211.4770  149.9870 C   0  0  0  0  0  2  0  0  0  0  0  0
  161.9890  209.5810  151.3520 C   0  0  2  0  0  3  0  0  0  0  0  0
  162.1270  210.3480  150.0930 N   0  0  1  0  0  0  0  0  0  0  0  0
  162.3260  208.0600  149.0710 C   0  0  2  0  0  3  0  0  0  0  0  0
  161.7120  203.7650  147.3960 N   0  0  0  0  0  0  0  0  0  0  0  0
  160.7630  208.2950  156.2000 O   0  0  0  0  0  0  0  0  0  0  0  0
  161.7980  209.6730  153.8150 N   0  0  1  0  0  0  0  0  0  0  0  0
  161.1430  203.9970  148.6040 C   0  0  0  0  0  3  0  0  0  0  0  0
  161.1160  207.6130  155.0300 C   0  0  0  0  0  2  0  0  0  0  0  0
  162.0360  210.3480  156.1840 C   0  0  1  0  0  3  0  0  0  0  0  0
  162.6650  210.2420  147.7080 C   0  0  0  0  0  2  0  0  0  0  0  0
  161.9690  209.5380  148.8780 C   0  0  2  0  0  3  0  0  0  0  0  0
  162.2550  207.3270  147.7050 C   0  0  0  0  0  2  0  0  0  0  0  0
  161.2350  207.5970  152.5860 C   0  0  0  0  0  2  0  0  0  0  0  0
  160.0810  205.6950  150.8480 O   0  0  0  0  0  0  0  0  0  0  0  0
  162.8760  205.0480  145.6590 C   0  0  0  0  0  1  0  0  0  0  0  0
  161.4180  207.5050  150.1140 N   0  0  0  0  0  0  0  0  0  0  0  0
  162.0490  205.8610  147.8680 C   0  0  0  0  0  0  0  0  0  0  0  0
  161.4390  211.2400  157.2610 C   0  0  0  0  0  2  0  0  0  0  0  0
  160.1410  211.8180  156.8100 C   0  0  0  0  0  0  0  0  0  0  0  0
  158.9720  211.0780  156.9280 O   0  0  0  0  0  1  0  0  0  0  0  0
  160.0990  212.9870  156.3470 O   0  0  0  0  0  0  0  0  0  0  0  0
  2 12  1  0  0  0  0
  2 24  1  1  0  0  0
  3 11  1  0  0  0  0
  4  3  1  0  0  0  0
  5 27  1  0  0  0  0
  5 25  2  0  0  0  0
  6  5  1  0  0  0  0
  7 24  1  6  0  0  0
  7 17  1  0  0  0  0
  7 19  1  0  0  0  0
  9 15  1  0  0  0  0
  9 28  1  0  0  0  0
 10 20  1  0  0  0  0
 12  8  1  1  0  0  0
 13 11  1  1  0  0  0
 13 12  1  0  0  0  0
 14 23  1  6  0  0  0
 14 27  1  0  0  0  0
 15 18  2  0  0  0  0
 16  1  1  0  0  0  0
 17  8  1  6  0  0  0
 17 10  1  0  0  0  0
 18  6  1  0  0  0  0
 19 16  1  0  0  0  0
 20  1  1  0  0  0  0
 20 29  1  1  0  0  0
 21  4  1  0  0  0  0
 22 21  1  6  0  0  0
 22 14  1  0  0  0  0
 22 13  1  0  0  0  0
 23 28  1  0  0  0  0
 26  9  1  0  0  0  0
 27  2  1  0  0  0  0
 28  6  2  0  0  0  0
 30 31  1  0  0  0  0
 30 29  1  0  0  0  0
 32 30  2  0  0  0  0
M  END
>  <MODEL>
5

>  <REMARK>
 VINA RESULT:      -6.6      2.634      8.253
  Name = 
  2 active torsions:
  status: ('A' for Active; 'I' for Inactive)
    1  A    between atoms: C_20  and  C_29
    2  A    between atoms: C_29  and  C_30
                            x       y       z     vdW  Elec       q    Type
                         _______ _______ _______ _____ _____    ______ ____

>  <TORSDO>
F 2

$$$$
