=
 OpenBabel11122414053D

 28 32  0  0  1  0  0  0  0  0999 V2000
  161.7070  210.5680  150.4880 C   0  0  0  0  0  0  0  0  0  0  0  0
  157.7620  212.6190  152.3500 C   0  0  0  0  0  1  0  0  0  0  0  0
  161.6890  207.9570  156.3000 O   0  0  0  0  0  0  0  0  0  0  0  0
  160.8180  213.0990  149.6740 C   0  0  0  0  0  3  0  0  0  0  0  0
  161.9250  210.2630  155.8900 N   0  0  0  0  0  0  0  0  0  0  0  0
  162.2980  209.2480  150.8520 C   0  0  0  0  0  2  0  0  0  0  0  0
  157.5340  210.9280  154.1150 C   0  0  0  0  0  1  0  0  0  0  0  0
  158.3040  212.1760  153.6930 C   0  0  0  0  0  0  0  0  0  0  0  0
  158.8040  213.0120  155.8450 C   0  0  2  0  0  3  0  0  0  0  0  0
  159.8100  211.9020  153.6020 C   0  0  1  0  0  3  0  0  0  0  0  0
  160.2750  206.4870  152.1020 O   0  0  0  0  0  0  0  0  0  0  0  0
  161.5250  210.2460  153.5570 C   0  0  1  0  0  3  0  0  0  0  0  0
  160.1890  212.8230  155.6120 O   0  0  0  0  0  0  0  0  0  0  0  0
  158.0900  213.2330  154.6270 O   0  0  0  0  0  0  0  0  0  0  0  0
  161.1120  207.4260  152.0950 C   0  0  0  0  0  0  0  0  0  0  0  0
  160.8790  211.3270  151.3630 C   0  0  0  0  0  0  0  0  0  0  0  0
  161.6350  208.9350  155.5050 C   0  0  0  0  0  0  0  0  0  0  0  0
  158.6050  214.1950  156.7690 C   0  0  0  0  0  1  0  0  0  0  0  0
  161.8780  207.7390  153.3410 C   0  0  0  0  0  2  0  0  0  0  0  0
  160.4480  212.5920  150.9200 C   0  0  0  0  0  3  0  0  0  0  0  0
  162.0730  211.0880  149.2410 C   0  0  0  0  0  3  0  0  0  0  0  0
  161.6310  212.3440  148.8320 C   0  0  0  0  0  3  0  0  0  0  0  0
  161.2740  208.2190  150.9190 N   0  0  0  0  0  2  0  0  0  0  0  0
  161.6070  211.1600  154.7950 C   0  0  1  0  0  3  0  0  0  0  0  0
  161.1730  208.8490  154.1040 C   0  0  2  0  0  3  0  0  0  0  0  0
  160.2490  211.6400  154.9510 N   0  0  2  0  0  0  0  0  0  0  0  0
  162.1420  210.6960  157.2610 C   0  0  0  0  0  1  0  0  0  0  0  0
  160.3730  210.7910  152.7060 C   0  0  2  0  0  3  0  0  0  0  0  0
  1  6  1  0  0  0  0
  1 16  1  0  0  0  0
  2  8  1  0  0  0  0
  4 20  1  0  0  0  0
  5 27  1  0  0  0  0
  6 23  1  0  0  0  0
  8  7  1  0  0  0  0
  8 14  1  0  0  0  0
  9 18  1  1  0  0  0
 10  8  1  1  0  0  0
 10 26  1  0  0  0  0
 12 25  1  0  0  0  0
 12 24  1  0  0  0  0
 13  9  1  0  0  0  0
 14  9  1  0  0  0  0
 15 11  2  0  0  0  0
 15 19  1  0  0  0  0
 16 28  1  0  0  0  0
 17  5  1  0  0  0  0
 17  3  2  0  0  0  0
 19 25  1  0  0  0  0
 20 16  2  0  0  0  0
 21  1  2  0  0  0  0
 22 21  1  0  0  0  0
 22  4  2  0  0  0  0
 23 15  1  0  0  0  0
 24 26  1  0  0  0  0
 24  5  1  0  0  0  0
 25 17  1  0  0  0  0
 26 13  1  0  0  0  0
 28 12  1  0  0  0  0
 28 10  1  0  0  0  0
M  END
>  <MODEL>
1

>  <REMARK>
 VINA RESULT:      -4.5      0.000      0.000
  Name = 
  0 active torsions:
  status: ('A' for Active; 'I' for Inactive)
                            x       y       z     vdW  Elec       q    Type
                         _______ _______ _______ _____ _____    ______ ____

>  <TORSDO>
F 0

$$$$
=
 OpenBabel11122414053D

 28 32  0  0  1  0  0  0  0  0999 V2000
  161.1660  207.5750  152.3590 C   0  0  0  0  0  0  0  0  0  0  0  0
  161.1080  209.5540  156.7540 C   0  0  0  0  0  1  0  0  0  0  0  0
  159.8780  213.6360  150.8740 O   0  0  0  0  0  0  0  0  0  0  0  0
  160.4490  206.1140  154.6410 C   0  0  0  0  0  3  0  0  0  0  0  0
  158.4650  212.2650  152.1630 N   0  0  0  0  0  0  0  0  0  0  0  0
  161.4990  208.2450  151.0690 C   0  0  0  0  0  2  0  0  0  0  0  0
  161.4240  211.8320  155.8960 C   0  0  0  0  0  1  0  0  0  0  0  0
  160.3990  210.7190  156.0960 C   0  0  0  0  0  0  0  0  0  0  0  0
  158.4710  212.0650  156.3180 C   0  0  2  0  0  3  0  0  0  0  0  0
  159.7730  210.2860  154.7650 C   0  0  1  0  0  3  0  0  0  0  0  0
  163.7820  211.0780  150.8800 O   0  0  0  0  0  0  0  0  0  0  0  0
  159.9000  210.3950  152.3860 C   0  0  1  0  0  3  0  0  0  0  0  0
  157.9320  211.5140  155.1300 O   0  0  0  0  0  0  0  0  0  0  0  0
  159.3570  211.1520  156.9690 O   0  0  0  0  0  0  0  0  0  0  0  0
  162.7060  210.4270  150.8430 C   0  0  0  0  0  0  0  0  0  0  0  0
  160.6930  208.2710  153.5070 C   0  0  0  0  0  0  0  0  0  0  0  0
  159.6840  212.5700  151.5190 C   0  0  0  0  0  0  0  0  0  0  0  0
  157.3450  212.4330  157.2600 C   0  0  0  0  0  1  0  0  0  0  0  0
  161.4320  211.1290  150.4970 C   0  0  0  0  0  2  0  0  0  0  0  0
  160.3460  207.5050  154.6370 C   0  0  0  0  0  3  0  0  0  0  0  0
  161.2640  206.1790  152.3740 C   0  0  0  0  0  3  0  0  0  0  0  0
  160.9110  205.4500  153.5080 C   0  0  0  0  0  3  0  0  0  0  0  0
  162.7060  209.0440  151.1930 N   0  0  0  0  0  2  0  0  0  0  0  0
  158.6270  211.0560  152.9500 C   0  0  1  0  0  3  0  0  0  0  0  0
  160.7200  211.5470  151.7740 C   0  0  2  0  0  3  0  0  0  0  0  0
  159.0020  211.4140  154.3030 N   0  0  2  0  0  0  0  0  0  0  0  0
  157.3590  213.1950  152.3190 C   0  0  0  0  0  1  0  0  0  0  0  0
  160.6340  209.7990  153.5920 C   0  0  2  0  0  3  0  0  0  0  0  0
  1 21  2  0  0  0  0
  1 16  1  0  0  0  0
  3 17  2  0  0  0  0
  5 27  1  0  0  0  0
  5 24  1  0  0  0  0
  6 23  1  0  0  0  0
  6  1  1  0  0  0  0
  7  8  1  0  0  0  0
  8  2  1  0  0  0  0
  8 14  1  0  0  0  0
  9 14  1  0  0  0  0
  9 18  1  1  0  0  0
 10  8  1  1  0  0  0
 12 24  1  0  0  0  0
 12 28  1  0  0  0  0
 13  9  1  0  0  0  0
 15 11  2  0  0  0  0
 15 23  1  0  0  0  0
 16 28  1  0  0  0  0
 16 20  2  0  0  0  0
 17 25  1  0  0  0  0
 17  5  1  0  0  0  0
 19 15  1  0  0  0  0
 19 25  1  0  0  0  0
 20  4  1  0  0  0  0
 21 22  1  0  0  0  0
 22  4  2  0  0  0  0
 24 26  1  0  0  0  0
 25 12  1  0  0  0  0
 26 10  1  0  0  0  0
 26 13  1  0  0  0  0
 28 10  1  0  0  0  0
M  END
>  <MODEL>
2

>  <REMARK>
 VINA RESULT:      -2.3      2.071      4.748
  Name = 
  0 active torsions:
  status: ('A' for Active; 'I' for Inactive)
                            x       y       z     vdW  Elec       q    Type
                         _______ _______ _______ _____ _____    ______ ____

>  <TORSDO>
F 0

$$$$
=
 OpenBabel11122414053D

 28 32  0  0  1  0  0  0  0  0999 V2000
  160.7730  211.7530  156.1190 C   0  0  0  0  0  0  0  0  0  0  0  0
  162.1400  208.3280  153.0150 C   0  0  0  0  0  1  0  0  0  0  0  0
  156.9250  213.0490  151.2080 O   0  0  0  0  0  0  0  0  0  0  0  0
  163.3710  210.7010  156.1110 C   0  0  0  0  0  3  0  0  0  0  0  0
  159.2730  213.1840  151.1150 N   0  0  0  0  0  0  0  0  0  0  0  0
  159.4380  212.4130  156.2080 C   0  0  0  0  0  2  0  0  0  0  0  0
  160.0850  208.5050  151.6830 C   0  0  0  0  0  1  0  0  0  0  0  0
  161.4360  209.1590  151.9630 C   0  0  0  0  0  0  0  0  0  0  0  0
  161.7920  210.1300  149.8400 C   0  0  2  0  0  3  0  0  0  0  0  0
  161.2700  210.6060  152.4430 C   0  0  1  0  0  3  0  0  0  0  0  0
  156.3630  210.7270  155.2180 O   0  0  0  0  0  0  0  0  0  0  0  0
  159.7600  212.2680  153.2440 C   0  0  1  0  0  3  0  0  0  0  0  0
  161.7340  211.4260  150.4080 O   0  0  0  0  0  0  0  0  0  0  0  0
  162.2430  209.1590  150.7870 O   0  0  0  0  0  0  0  0  0  0  0  0
  157.3230  211.5400  155.1900 C   0  0  0  0  0  0  0  0  0  0  0  0
  161.2700  211.1430  154.9320 C   0  0  0  0  0  0  0  0  0  0  0  0
  158.0520  212.8170  151.7230 C   0  0  0  0  0  0  0  0  0  0  0  0
  162.7250  210.1420  148.6470 C   0  0  0  0  0  1  0  0  0  0  0  0
  157.3880  212.5670  154.1050 C   0  0  0  0  0  2  0  0  0  0  0  0
  162.5780  210.6220  154.9660 C   0  0  0  0  0  3  0  0  0  0  0  0
  161.5780  211.8290  157.2610 C   0  0  0  0  0  3  0  0  0  0  0  0
  162.8690  211.3040  157.2610 C   0  0  0  0  0  3  0  0  0  0  0  0
  158.3670  211.4320  156.1570 N   0  0  0  0  0  2  0  0  0  0  0  0
  160.3750  212.6260  151.8770 C   0  0  1  0  0  3  0  0  0  0  0  0
  158.2590  212.0510  152.9710 C   0  0  2  0  0  3  0  0  0  0  0  0
  160.7350  211.3380  151.3200 N   0  0  2  0  0  0  0  0  0  0  0  0
  159.3980  213.7030  149.7640 C   0  0  0  0  0  1  0  0  0  0  0  0
  160.4210  210.9530  153.6720 C   0  0  2  0  0  3  0  0  0  0  0  0
  1  6  1  0  0  0  0
  1 21  1  0  0  0  0
  3 17  2  0  0  0  0
  4 22  1  0  0  0  0
  5 17  1  0  0  0  0
  5 24  1  0  0  0  0
  7  8  1  0  0  0  0
  8  2  1  0  0  0  0
  9 18  1  6  0  0  0
  9 13  1  0  0  0  0
  9 14  1  0  0  0  0
 10  8  1  6  0  0  0
 10 28  1  0  0  0  0
 12 28  1  0  0  0  0
 13 26  1  0  0  0  0
 14  8  1  0  0  0  0
 15 11  2  0  0  0  0
 15 23  1  0  0  0  0
 16 20  1  0  0  0  0
 16  1  2  0  0  0  0
 17 25  1  0  0  0  0
 19 15  1  0  0  0  0
 20  4  2  0  0  0  0
 21 22  2  0  0  0  0
 23  6  1  0  0  0  0
 24 12  1  0  0  0  0
 25 12  1  0  0  0  0
 25 19  1  0  0  0  0
 26 24  1  0  0  0  0
 26 10  1  0  0  0  0
 27  5  1  0  0  0  0
 28 16  1  0  0  0  0
M  END
>  <MODEL>
3

>  <REMARK>
 VINA RESULT:      -1.5      2.226      6.219
  Name = 
  0 active torsions:
  status: ('A' for Active; 'I' for Inactive)
                            x       y       z     vdW  Elec       q    Type
                         _______ _______ _______ _____ _____    ______ ____

>  <TORSDO>
F 0

$$$$
