=
 OpenBabel11122412423D

 30 35  0  0  1  0  0  0  0  0999 V2000
  161.1210  207.6910  151.1930 C   0  0  0  0  0  0  0  0  0  0  0  0
  161.6070  210.0790  150.8940 C   0  0  0  0  0  0  0  0  0  0  0  0
  162.1960  206.9260  147.1750 N   0  0  0  0  0  0  0  0  0  0  0  0
  160.8280  206.2930  150.6260 C   0  0  2  0  0  3  0  0  0  0  0  0
  160.9200  207.8610  152.6450 C   0  0  0  0  0  3  0  0  0  0  0  0
  161.2830  204.5230  153.8120 O   0  0  0  0  0  0  0  0  0  0  0  0
  160.4090  203.4050  149.9500 C   0  0  1  0  0  3  0  0  0  0  0  0
  161.1480  205.4660  152.9840 C   0  0  0  0  0  0  0  0  0  0  0  0
  161.0440  203.8010  148.7090 N   0  0  0  0  0  0  0  0  0  0  0  0
  161.9830  205.6470  147.1310 C   0  0  0  0  0  0  0  0  0  0  0  0
  160.9050  206.8300  153.4820 C   0  0  0  0  0  0  0  0  0  0  0  0
  161.2040  205.2090  151.5640 N   0  0  0  0  0  0  0  0  0  0  0  0
  162.0090  211.1260  150.0620 C   0  0  0  0  0  3  0  0  0  0  0  0
  161.2260  202.6710  147.8780 C   0  0  0  0  0  3  0  0  0  0  0  0
  160.2720  201.8830  149.8390 C   0  0  0  0  0  2  0  0  0  0  0  0
  161.2930  210.4040  152.1730 F   0  0  0  0  0  0  0  0  0  0  0  0
  161.8540  207.3030  148.5070 C   0  0  0  0  0  0  0  0  0  0  0  0
  162.3350  210.8940  148.7310 C   0  0  0  0  0  3  0  0  0  0  0  0
  161.5080  208.7470  150.3950 C   0  0  0  0  0  0  0  0  0  0  0  0
  161.4420  206.1560  149.2610 C   0  0  0  0  0  0  0  0  0  0  0  0
  162.1990  204.8470  145.8950 C   0  0  0  0  0  1  0  0  0  0  0  0
  161.4810  205.1340  148.4170 C   0  0  0  0  0  0  0  0  0  0  0  0
  160.7990  201.5730  148.4740 C   0  0  0  0  0  3  0  0  0  0  0  0
  162.0330  203.0200  151.6730 O   0  0  0  0  0  0  0  0  0  0  0  0
  162.2670  209.6050  148.2160 C   0  0  0  0  0  3  0  0  0  0  0  0
  161.8640  208.5340  149.0220 C   0  0  0  0  0  0  0  0  0  0  0  0
  161.2500  203.8390  151.1160 C   0  0  0  0  0  0  0  0  0  0  0  0
  160.7330  207.0900  154.9400 C   0  0  0  0  0  2  0  0  0  0  0  0
  161.6970  208.2430  156.5550 C   0  0  0  0  0  1  0  0  0  0  0  0
  161.2140  208.3620  155.2530 O   0  0  0  0  0  0  0  0  0  0  0  0
  1  5  1  0  0  0  0
  2 16  1  0  0  0  0
  3 17  1  0  0  0  0
  4 20  1  6  0  0  0
  4  1  1  0  0  0  0
  4 12  1  0  0  0  0
  5 11  2  0  0  0  0
  7 15  1  6  0  0  0
  7 27  1  0  0  0  0
  8 11  1  0  0  0  0
  8  6  2  0  0  0  0
  9  7  1  0  0  0  0
 10  3  2  0  0  0  0
 10 22  1  0  0  0  0
 11 28  1  0  0  0  0
 12  8  1  0  0  0  0
 13  2  2  0  0  0  0
 14 23  2  0  0  0  0
 14  9  1  0  0  0  0
 17 26  2  0  0  0  0
 17 20  1  0  0  0  0
 18 13  1  0  0  0  0
 19  2  1  0  0  0  0
 19  1  2  0  0  0  0
 21 10  1  0  0  0  0
 22  9  1  0  0  0  0
 22 20  2  0  0  0  0
 23 15  1  0  0  0  0
 25 18  2  0  0  0  0
 25 26  1  0  0  0  0
 26 19  1  0  0  0  0
 27 12  1  0  0  0  0
 27 24  2  0  0  0  0
 28 30  1  0  0  0  0
 30 29  1  0  0  0  0
M  END
>  <MODEL>
1

>  <REMARK>
 VINA RESULT:      -9.8      0.000      0.000
  Name = 
  2 active torsions:
  status: ('A' for Active; 'I' for Inactive)
    1  A    between atoms: C_11  and  C_28
    2  A    between atoms: C_28  and  O_30
                            x       y       z     vdW  Elec       q    Type
                         _______ _______ _______ _____ _____    ______ ____

>  <TORSDO>
F 2

$$$$
=
 OpenBabel11122412423D

 30 35  0  0  1  0  0  0  0  0999 V2000
  160.9000  205.6330  149.8200 C   0  0  0  0  0  0  0  0  0  0  0  0
  160.9300  203.1860  149.6330 C   0  0  0  0  0  0  0  0  0  0  0  0
  161.1570  205.3580  154.0320 N   0  0  0  0  0  0  0  0  0  0  0  0
  160.7090  206.9210  150.6350 C   0  0  2  0  0  3  0  0  0  0  0  0
  161.0040  205.7970  148.3570 C   0  0  0  0  0  3  0  0  0  0  0  0
  162.1330  209.1580  148.0940 O   0  0  0  0  0  0  0  0  0  0  0  0
  160.6050  209.6430  151.8830 C   0  0  1  0  0  3  0  0  0  0  0  0
  161.6720  208.1160  148.6370 C   0  0  0  0  0  0  0  0  0  0  0  0
  160.8780  208.8900  153.0900 N   0  0  0  0  0  0  0  0  0  0  0  0
  161.1420  206.6190  154.3360 C   0  0  0  0  0  0  0  0  0  0  0  0
  161.3370  206.9550  147.7970 C   0  0  0  0  0  0  0  0  0  0  0  0
  161.4490  208.0720  150.0640 N   0  0  0  0  0  0  0  0  0  0  0  0
  160.9680  201.9350  150.2550 C   0  0  0  0  0  3  0  0  0  0  0  0
  161.0430  209.7740  154.1830 C   0  0  0  0  0  3  0  0  0  0  0  0
  160.6850  211.1090  152.3210 C   0  0  0  0  0  2  0  0  0  0  0  0
  160.8620  203.1900  148.2780 F   0  0  0  0  0  0  0  0  0  0  0  0
  161.0670  205.3280  152.6090 C   0  0  0  0  0  0  0  0  0  0  0  0
  161.0210  201.8300  151.6400 C   0  0  0  0  0  3  0  0  0  0  0  0
  160.9310  204.3850  150.4040 C   0  0  0  0  0  0  0  0  0  0  0  0
  161.0170  206.6600  152.0840 C   0  0  0  0  0  0  0  0  0  0  0  0
  161.1990  207.0990  155.7430 C   0  0  0  0  0  1  0  0  0  0  0  0
  161.0260  207.4660  153.1360 C   0  0  0  0  0  0  0  0  0  0  0  0
  160.9350  211.0300  153.7940 C   0  0  0  0  0  3  0  0  0  0  0  0
  162.6110  210.0270  150.6260 O   0  0  0  0  0  0  0  0  0  0  0  0
  161.0410  202.9780  152.4220 C   0  0  0  0  0  3  0  0  0  0  0  0
  161.0000  204.2460  151.8300 C   0  0  0  0  0  0  0  0  0  0  0  0
  161.6060  209.2880  150.8220 C   0  0  0  0  0  0  0  0  0  0  0  0
  161.4560  207.0290  146.3130 C   0  0  0  0  0  2  0  0  0  0  0  0
  161.0250  205.6050  144.6830 C   0  0  0  0  0  1  0  0  0  0  0  0
  160.4160  206.3110  145.7190 O   0  0  0  0  0  0  0  0  0  0  0  0
  1 19  2  0  0  0  0
  2 13  2  0  0  0  0
  2 19  1  0  0  0  0
  3 10  2  0  0  0  0
  4  1  1  6  0  0  0
  4 20  1  0  0  0  0
  5  1  1  0  0  0  0
  6  8  2  0  0  0  0
  7 15  1  1  0  0  0
  7  9  1  0  0  0  0
  8 12  1  0  0  0  0
  9 22  1  0  0  0  0
  9 14  1  0  0  0  0
 10 21  1  0  0  0  0
 11  5  2  0  0  0  0
 11  8  1  0  0  0  0
 12  4  1  0  0  0  0
 12 27  1  0  0  0  0
 13 18  1  0  0  0  0
 15 23  1  0  0  0  0
 16  2  1  0  0  0  0
 17  3  1  0  0  0  0
 18 25  2  0  0  0  0
 19 26  1  0  0  0  0
 20 17  1  0  0  0  0
 20 22  2  0  0  0  0
 22 10  1  0  0  0  0
 23 14  2  0  0  0  0
 24 27  2  0  0  0  0
 26 25  1  0  0  0  0
 26 17  2  0  0  0  0
 27  7  1  0  0  0  0
 28 11  1  0  0  0  0
 29 30  1  0  0  0  0
 30 28  1  0  0  0  0
M  END
>  <MODEL>
2

>  <REMARK>
 VINA RESULT:      -9.3      3.001      7.324
  Name = 
  2 active torsions:
  status: ('A' for Active; 'I' for Inactive)
    1  A    between atoms: C_11  and  C_28
    2  A    between atoms: C_28  and  O_30
                            x       y       z     vdW  Elec       q    Type
                         _______ _______ _______ _____ _____    ______ ____

>  <TORSDO>
F 2

$$$$
=
 OpenBabel11122412423D

 30 35  0  0  1  0  0  0  0  0999 V2000
  161.7930  208.4250  151.3500 C   0  0  0  0  0  0  0  0  0  0  0  0
  161.4490  209.0260  153.7060 C   0  0  0  0  0  0  0  0  0  0  0  0
  160.7800  204.4050  152.1840 N   0  0  0  0  0  0  0  0  0  0  0  0
  162.0210  207.3840  150.2440 C   0  0  0  0  0  0  0  0  0  0  0  0
  161.9650  209.8380  150.9620 C   0  0  0  0  0  3  0  0  0  0  0  0
  161.3860  209.6920  147.4580 O   0  0  0  0  0  0  0  0  0  0  0  0
  162.2940  205.6920  147.7870 C   0  0  1  0  0  3  0  0  0  0  0  0
  161.5940  209.2710  148.6290 C   0  0  0  0  0  0  0  0  0  0  0  0
  161.7140  204.6830  148.6500 N   0  0  0  0  0  0  0  0  0  0  0  0
  160.9210  203.8930  151.0010 C   0  0  0  0  0  0  0  0  0  0  0  0
  161.9010  210.2370  149.6970 C   0  0  0  0  0  0  0  0  0  0  0  0
  161.5610  207.8550  148.9160 N   0  0  0  0  0  0  0  0  0  0  0  0
  161.1280  208.6370  155.0090 C   0  0  0  0  0  3  0  0  0  0  0  0
  161.4900  203.4930  147.9180 C   0  0  0  0  0  3  0  0  0  0  0  0
  162.3480  205.0290  146.4070 C   0  0  0  0  0  2  0  0  0  0  0  0
  161.7490  210.3360  153.5180 F   0  0  0  0  0  0  0  0  0  0  0  0
  161.1080  205.7830  152.0230 C   0  0  2  0  0  3  0  0  0  0  0  0
  160.8240  207.3130  155.3030 C   0  0  0  0  0  3  0  0  0  0  0  0
  161.4860  208.0720  152.6470 C   0  0  0  0  0  0  0  0  0  0  0  0
  161.4350  206.0620  150.6570 C   0  0  0  0  0  0  0  0  0  0  0  0
  160.6920  202.4490  150.7260 C   0  0  0  0  0  1  0  0  0  0  0  0
  161.3600  204.9010  150.0210 C   0  0  0  0  0  0  0  0  0  0  0  0
  161.8400  203.6430  146.6540 C   0  0  0  0  0  3  0  0  0  0  0  0
  160.6080  207.1470  146.8960 O   0  0  0  0  0  0  0  0  0  0  0  0
  160.8330  206.3600  154.2920 C   0  0  0  0  0  3  0  0  0  0  0  0
  161.1540  206.7160  152.9770 C   0  0  0  0  0  0  0  0  0  0  0  0
  161.4490  206.9330  147.8130 C   0  0  0  0  0  0  0  0  0  0  0  0
  162.0500  211.6880  149.3910 C   0  0  0  0  0  2  0  0  0  0  0  0
  162.7450  212.9980  147.7570 C   0  0  0  0  0  1  0  0  0  0  0  0
  163.1100  211.8780  148.5030 O   0  0  0  0  0  0  0  0  0  0  0  0
  1 19  1  0  0  0  0
  2 13  1  0  0  0  0
  4 20  1  0  0  0  0
  4  1  2  0  0  0  0
  5  1  1  0  0  0  0
  6  8  2  0  0  0  0
  7 15  1  6  0  0  0
  7 27  1  0  0  0  0
  7  9  1  0  0  0  0
  8 12  1  0  0  0  0
  8 11  1  0  0  0  0
  9 22  1  0  0  0  0
 10  3  2  0  0  0  0
 11  5  2  0  0  0  0
 12  4  1  0  0  0  0
 13 18  2  0  0  0  0
 14  9  1  0  0  0  0
 15 23  1  0  0  0  0
 16  2  1  0  0  0  0
 17 20  1  1  0  0  0
 17  3  1  0  0  0  0
 17 26  1  0  0  0  0
 19 26  1  0  0  0  0
 19  2  2  0  0  0  0
 21 10  1  0  0  0  0
 22 20  2  0  0  0  0
 22 10  1  0  0  0  0
 23 14  2  0  0  0  0
 24 27  2  0  0  0  0
 25 18  1  0  0  0  0
 26 25  2  0  0  0  0
 27 12  1  0  0  0  0
 28 11  1  0  0  0  0
 29 30  1  0  0  0  0
 30 28  1  0  0  0  0
M  END
>  <MODEL>
3

>  <REMARK>
 VINA RESULT:      -8.6      2.597      5.038
  Name = 
  2 active torsions:
  status: ('A' for Active; 'I' for Inactive)
    1  A    between atoms: C_11  and  C_28
    2  A    between atoms: C_28  and  O_30
                            x       y       z     vdW  Elec       q    Type
                         _______ _______ _______ _____ _____    ______ ____

>  <TORSDO>
F 2

$$$$
=
 OpenBabel11122412423D

 30 35  0  0  1  0  0  0  0  0999 V2000
  161.0710  204.0210  148.5340 C   0  0  0  0  0  0  0  0  0  0  0  0
  160.7330  201.6370  149.0100 C   0  0  0  0  0  0  0  0  0  0  0  0
  161.2660  204.8640  152.6730 N   0  0  0  0  0  0  0  0  0  0  0  0
  161.0730  205.4960  148.9660 C   0  0  0  0  0  0  0  0  0  0  0  0
  161.2050  203.7660  147.0870 C   0  0  0  0  0  3  0  0  0  0  0  0
  162.8270  206.7310  145.9850 O   0  0  0  0  0  0  0  0  0  0  0  0
  161.3740  208.4390  149.4340 C   0  0  1  0  0  3  0  0  0  0  0  0
  162.2130  205.9530  146.7660 C   0  0  0  0  0  0  0  0  0  0  0  0
  161.5260  208.0110  150.8100 N   0  0  0  0  0  0  0  0  0  0  0  0
  161.4400  206.1480  152.6280 C   0  0  2  0  0  3  0  0  0  0  0  0
  161.7100  204.6680  146.2530 C   0  0  0  0  0  0  0  0  0  0  0  0
  161.9800  206.3290  148.1420 N   0  0  0  0  0  0  0  0  0  0  0  0
  160.5800  200.6100  149.9450 C   0  0  0  0  0  3  0  0  0  0  0  0
  161.8180  209.1240  151.6330 C   0  0  0  0  0  3  0  0  0  0  0  0
  161.6720  209.9420  149.4680 C   0  0  0  0  0  2  0  0  0  0  0  0
  160.6720  201.2830  147.7010 F   0  0  0  0  0  0  0  0  0  0  0  0
  161.1780  204.4620  151.3080 C   0  0  0  0  0  0  0  0  0  0  0  0
  160.6100  200.8770  151.3080 C   0  0  0  0  0  3  0  0  0  0  0  0
  160.9110  202.9870  149.4310 C   0  0  0  0  0  0  0  0  0  0  0  0
  161.3320  205.5950  150.4440 C   0  0  0  0  0  0  0  0  0  0  0  0
  161.5630  206.9790  153.8570 C   0  0  0  0  0  1  0  0  0  0  0  0
  161.4570  206.6460  151.2420 C   0  0  0  0  0  0  0  0  0  0  0  0
  161.9020  210.2300  150.9180 C   0  0  0  0  0  3  0  0  0  0  0  0
  163.4210  208.1750  148.2110 O   0  0  0  0  0  0  0  0  0  0  0  0
  160.7990  202.1790  151.7550 C   0  0  0  0  0  3  0  0  0  0  0  0
  160.9520  203.2320  150.8440 C   0  0  0  0  0  0  0  0  0  0  0  0
  162.3150  207.6700  148.5530 C   0  0  0  0  0  0  0  0  0  0  0  0
  161.8450  204.3180  144.8100 C   0  0  0  0  0  2  0  0  0  0  0  0
  161.3850  205.7020  143.1540 C   0  0  0  0  0  1  0  0  0  0  0  0
  160.7810  204.8640  144.0900 O   0  0  0  0  0  0  0  0  0  0  0  0
  1  4  2  0  0  0  0
  1 19  1  0  0  0  0
  2 19  2  0  0  0  0
  2 13  1  0  0  0  0
  4 20  1  0  0  0  0
  5  1  1  0  0  0  0
  6  8  2  0  0  0  0
  7 15  1  1  0  0  0
  7  9  1  0  0  0  0
  8 12  1  0  0  0  0
  9 22  1  0  0  0  0
  9 14  1  0  0  0  0
 10  3  1  0  0  0  0
 10 21  1  1  0  0  0
 11  8  1  0  0  0  0
 11  5  2  0  0  0  0
 12 27  1  0  0  0  0
 12  4  1  0  0  0  0
 13 18  2  0  0  0  0
 15 23  1  0  0  0  0
 16  2  1  0  0  0  0
 17  3  2  0  0  0  0
 18 25  1  0  0  0  0
 19 26  1  0  0  0  0
 20 22  2  0  0  0  0
 20 17  1  0  0  0  0
 22 10  1  0  0  0  0
 23 14  2  0  0  0  0
 24 27  2  0  0  0  0
 26 17  1  0  0  0  0
 26 25  2  0  0  0  0
 27  7  1  0  0  0  0
 28 11  1  0  0  0  0
 29 30  1  0  0  0  0
 30 28  1  0  0  0  0
M  END
>  <MODEL>
4

>  <REMARK>
 VINA RESULT:      -7.2      3.147      7.537
  Name = 
  2 active torsions:
  status: ('A' for Active; 'I' for Inactive)
    1  A    between atoms: C_11  and  C_28
    2  A    between atoms: C_28  and  O_30
                            x       y       z     vdW  Elec       q    Type
                         _______ _______ _______ _____ _____    ______ ____

>  <TORSDO>
F 2

$$$$
