=
 OpenBabel11122412323D

 30 35  0  0  1  0  0  0  0  0999 V2000
  161.4670  206.4060  150.0740 C   0  0  1  0  0  3  0  0  0  0  0  0
  161.2150  203.8670  149.8830 C   0  0  0  0  0  0  0  0  0  0  0  0
  160.8600  206.1520  154.3650 C   0  0  0  0  0  2  0  0  0  0  0  0
  161.8040  207.5280  151.0800 C   0  0  1  0  0  3  0  0  0  0  0  0
  162.3810  206.4520  149.0040 O   0  0  0  0  0  0  0  0  0  0  0  0
  162.0800  209.9660  148.3830 O   0  0  0  0  0  0  0  0  0  0  0  0
  160.4560  210.3750  151.8630 C   0  0  1  0  0  3  0  0  0  0  0  0
  161.9670  208.8630  148.9850 C   0  0  0  0  0  0  0  0  0  0  0  0
  160.2160  209.6600  153.1690 C   0  0  2  0  0  3  0  0  0  0  0  0
  160.7980  207.6260  154.5360 C   0  0  0  0  0  0  0  0  0  0  0  0
  162.0650  207.5770  148.1970 C   0  0  2  0  0  3  0  0  0  0  0  0
  161.7170  208.8260  150.4030 N   0  0  0  0  0  0  0  0  0  0  0  0
  161.0030  202.6150  150.4670 C   0  0  0  0  0  3  0  0  0  0  0  0
  160.6860  210.6730  154.1830 C   0  0  0  0  0  2  0  0  0  0  0  0
  160.4120  211.8370  152.2630 C   0  0  0  0  0  2  0  0  0  0  0  0
  161.2920  203.9580  148.4990 O   0  0  0  0  0  1  0  0  0  0  0  0
  161.3780  206.0970  152.9480 C   0  0  2  0  0  3  0  0  0  0  0  0
  160.8930  202.4890  151.8540 C   0  0  0  0  0  3  0  0  0  0  0  0
  161.3400  205.0140  150.6930 C   0  0  0  0  0  0  0  0  0  0  0  0
  160.8640  207.3480  152.2670 C   0  0  1  0  0  3  0  0  0  0  0  0
  160.6190  208.1720  155.6570 O   0  0  0  0  0  0  0  0  0  0  0  0
  160.8940  208.3660  153.3120 N   0  0  0  0  0  0  0  0  0  0  0  0
  160.4450  211.9570  153.6680 O   0  0  0  0  0  0  0  0  0  0  0  0
  163.0320  210.1630  152.0220 C   0  0  0  0  0  1  0  0  0  0  0  0
  160.9850  203.6190  152.6680 C   0  0  0  0  0  3  0  0  0  0  0  0
  161.1730  204.8810  152.0960 C   0  0  0  0  0  0  0  0  0  0  0  0
  161.7810  210.0780  151.1510 C   0  0  2  0  0  3  0  0  0  0  0  0
  160.8120  207.3450  147.3590 C   0  0  0  0  0  2  0  0  0  0  0  0
  160.3680  206.3210  145.4570 C   0  0  0  0  0  1  0  0  0  0  0  0
  160.8840  206.1010  146.7330 O   0  0  0  0  0  0  0  0  0  0  0  0
  1  5  1  6  0  0  0
  1 19  1  0  0  0  0
  1  4  1  0  0  0  0
  2 13  2  0  0  0  0
  2 19  1  0  0  0  0
  3 10  1  0  0  0  0
  4 12  1  6  0  0  0
  4 20  1  0  0  0  0
  6  8  2  0  0  0  0
  7 15  1  1  0  0  0
  7  9  1  0  0  0  0
  8 12  1  0  0  0  0
  9 22  1  0  0  0  0
  9 14  1  1  0  0  0
 10 21  2  0  0  0  0
 11 28  1  1  0  0  0
 11  8  1  0  0  0  0
 11  5  1  0  0  0  0
 12 27  1  0  0  0  0
 13 18  1  0  0  0  0
 15 23  1  0  0  0  0
 16  2  1  0  0  0  0
 17  3  1  1  0  0  0
 18 25  2  0  0  0  0
 19 26  2  0  0  0  0
 20 17  1  0  0  0  0
 20 22  1  1  0  0  0
 22 10  1  0  0  0  0
 23 14  1  0  0  0  0
 26 25  1  0  0  0  0
 26 17  1  0  0  0  0
 27  7  1  0  0  0  0
 27 24  1  1  0  0  0
 29 30  1  0  0  0  0
 30 28  1  0  0  0  0
M  END
>  <MODEL>
1

>  <REMARK>
 VINA RESULT:      -9.1      0.000      0.000
  Name = 
  2 active torsions:
  status: ('A' for Active; 'I' for Inactive)
    1  A    between atoms: C_11  and  C_28
    2  A    between atoms: C_28  and  O_30
                            x       y       z     vdW  Elec       q    Type
                         _______ _______ _______ _____ _____    ______ ____

>  <TORSDO>
F 2

$$$$
=
 OpenBabel11122412323D

 30 35  0  0  1  0  0  0  0  0999 V2000
  161.2630  204.8930  148.6150 C   0  0  1  0  0  3  0  0  0  0  0  0
  160.9120  202.4410  147.9720 C   0  0  0  0  0  0  0  0  0  0  0  0
  161.1520  203.8150  152.8190 C   0  0  0  0  0  2  0  0  0  0  0  0
  161.7500  205.7950  149.7700 C   0  0  1  0  0  3  0  0  0  0  0  0
  162.0470  205.1380  147.4710 O   0  0  0  0  0  0  0  0  0  0  0  0
  161.7850  208.7080  147.5770 O   0  0  0  0  0  0  0  0  0  0  0  0
  160.5920  208.4470  151.2410 C   0  0  1  0  0  3  0  0  0  0  0  0
  161.7090  207.5110  147.9660 C   0  0  0  0  0  0  0  0  0  0  0  0
  160.4830  207.4940  152.4050 C   0  0  2  0  0  3  0  0  0  0  0  0
  161.1570  205.2280  153.2750 C   0  0  0  0  0  0  0  0  0  0  0  0
  161.6740  206.4010  146.9390 C   0  0  2  0  0  3  0  0  0  0  0  0
  161.6250  207.2010  149.3690 N   0  0  0  0  0  0  0  0  0  0  0  0
  160.7310  201.1020  148.3270 C   0  0  0  0  0  3  0  0  0  0  0  0
  161.1000  208.2860  153.5300 C   0  0  0  0  0  2  0  0  0  0  0  0
  160.6400  209.8030  151.9160 C   0  0  0  0  0  2  0  0  0  0  0  0
  160.8300  202.7990  146.6320 O   0  0  0  0  0  1  0  0  0  0  0  0
  161.5010  204.0320  151.3660 C   0  0  2  0  0  3  0  0  0  0  0  0
  160.7790  200.7090  149.6660 C   0  0  0  0  0  3  0  0  0  0  0  0
  161.1660  203.4080  148.9660 C   0  0  0  0  0  0  0  0  0  0  0  0
  160.9500  205.3960  151.0040 C   0  0  1  0  0  3  0  0  0  0  0  0
  161.1270  205.5470  154.4940 O   0  0  0  0  0  0  0  0  0  0  0  0
  161.1320  206.1910  152.2140 N   0  0  0  0  0  0  0  0  0  0  0  0
  160.8400  209.6480  153.3030 O   0  0  0  0  0  0  0  0  0  0  0  0
  163.1600  208.1870  151.0440 C   0  0  0  0  0  1  0  0  0  0  0  0
  161.0000  201.6590  150.6640 C   0  0  0  0  0  3  0  0  0  0  0  0
  161.1590  203.0070  150.3270 C   0  0  0  0  0  0  0  0  0  0  0  0
  161.8140  208.2840  150.3310 C   0  0  2  0  0  3  0  0  0  0  0  0
  160.3250  206.3460  146.2300 C   0  0  0  0  0  2  0  0  0  0  0  0
  161.1810  205.3930  144.4350 C   0  0  0  0  0  1  0  0  0  0  0  0
  160.5030  206.5350  144.8590 O   0  0  0  0  0  0  0  0  0  0  0  0
  1  5  1  6  0  0  0
  1 19  1  0  0  0  0
  1  4  1  0  0  0  0
  2 13  2  0  0  0  0
  2 19  1  0  0  0  0
  3 10  1  0  0  0  0
  4 12  1  6  0  0  0
  4 20  1  0  0  0  0
  6  8  2  0  0  0  0
  7 15  1  1  0  0  0
  7  9  1  0  0  0  0
  8 12  1  0  0  0  0
  9 14  1  1  0  0  0
 10 21  2  0  0  0  0
 11 28  1  1  0  0  0
 11  5  1  0  0  0  0
 11  8  1  0  0  0  0
 12 27  1  0  0  0  0
 13 18  1  0  0  0  0
 15 23  1  0  0  0  0
 16  2  1  0  0  0  0
 17  3  1  1  0  0  0
 18 25  2  0  0  0  0
 19 26  2  0  0  0  0
 20 17  1  0  0  0  0
 20 22  1  1  0  0  0
 22  9  1  0  0  0  0
 22 10  1  0  0  0  0
 23 14  1  0  0  0  0
 26 25  1  0  0  0  0
 26 17  1  0  0  0  0
 27 24  1  1  0  0  0
 27  7  1  0  0  0  0
 29 30  1  0  0  0  0
 30 28  1  0  0  0  0
M  END
>  <MODEL>
2

>  <REMARK>
 VINA RESULT:      -7.0      1.592      2.286
  Name = 
  2 active torsions:
  status: ('A' for Active; 'I' for Inactive)
    1  A    between atoms: C_11  and  C_28
    2  A    between atoms: C_28  and  O_30
                            x       y       z     vdW  Elec       q    Type
                         _______ _______ _______ _____ _____    ______ ____

>  <TORSDO>
F 2

$$$$
=
 OpenBabel11122412323D

 30 35  0  0  1  0  0  0  0  0999 V2000
  161.5970  208.1960  149.5490 C   0  0  1  0  0  3  0  0  0  0  0  0
  161.4810  206.1500  148.0160 C   0  0  0  0  0  0  0  0  0  0  0  0
  160.9240  205.6550  153.0040 C   0  0  0  0  0  2  0  0  0  0  0  0
  161.8580  208.6110  151.0130 C   0  0  1  0  0  3  0  0  0  0  0  0
  162.5280  208.8400  148.7110 O   0  0  0  0  0  0  0  0  0  0  0  0
  162.0570  212.1240  150.0580 O   0  0  0  0  0  0  0  0  0  0  0  0
  160.3500  210.5450  153.1410 C   0  0  1  0  0  3  0  0  0  0  0  0
  161.9900  210.8680  149.9700 C   0  0  0  0  0  0  0  0  0  0  0  0
  160.1220  209.2320  153.8480 C   0  0  2  0  0  3  0  0  0  0  0  0
  160.7840  206.8030  153.9350 C   0  0  0  0  0  0  0  0  0  0  0  0
  162.1690  210.2110  148.6200 C   0  0  2  0  0  3  0  0  0  0  0  0
  161.7160  210.0660  151.1340 N   0  0  0  0  0  0  0  0  0  0  0  0
  161.3230  204.7740  147.8290 C   0  0  0  0  0  3  0  0  0  0  0  0
  160.5210  209.5570  155.2660 C   0  0  0  0  0  2  0  0  0  0  0  0
  160.2230  211.5600  154.2590 C   0  0  0  0  0  2  0  0  0  0  0  0
  161.5790  206.9730  146.9020 O   0  0  0  0  0  1  0  0  0  0  0  0
  161.4720  206.3870  151.8030 C   0  0  2  0  0  3  0  0  0  0  0  0
  161.1940  203.9190  148.9250 C   0  0  0  0  0  3  0  0  0  0  0  0
  161.5320  206.6850  149.3190 C   0  0  0  0  0  0  0  0  0  0  0  0
  160.9060  207.7910  151.8760 C   0  0  1  0  0  3  0  0  0  0  0  0
  160.5550  206.6540  155.1650 O   0  0  0  0  0  0  0  0  0  0  0  0
  160.8640  208.0870  153.3040 N   0  0  0  0  0  0  0  0  0  0  0  0
  160.2230  210.9070  155.5090 O   0  0  0  0  0  0  0  0  0  0  0  0
  162.9290  210.3670  153.2720 C   0  0  0  0  0  1  0  0  0  0  0  0
  161.2120  204.4370  150.2210 C   0  0  0  0  0  3  0  0  0  0  0  0
  161.3450  205.8140  150.4240 C   0  0  0  0  0  0  0  0  0  0  0  0
  161.7010  210.7220  152.4390 C   0  0  2  0  0  3  0  0  0  0  0  0
  160.9460  210.4240  147.7350 C   0  0  0  0  0  2  0  0  0  0  0  0
  159.8720  212.2640  147.1670 C   0  0  0  0  0  1  0  0  0  0  0  0
  161.0890  211.6040  147.0050 O   0  0  0  0  0  0  0  0  0  0  0  0
  1  5  1  6  0  0  0
  1  4  1  0  0  0  0
  2 19  1  0  0  0  0
  3 10  1  0  0  0  0
  4 12  1  6  0  0  0
  4 20  1  0  0  0  0
  7  9  1  0  0  0  0
  7 15  1  1  0  0  0
  8  6  2  0  0  0  0
  8 12  1  0  0  0  0
  9 14  1  1  0  0  0
 10 21  2  0  0  0  0
 11 28  1  6  0  0  0
 11  5  1  0  0  0  0
 11  8  1  0  0  0  0
 12 27  1  0  0  0  0
 13  2  2  0  0  0  0
 13 18  1  0  0  0  0
 14 23  1  0  0  0  0
 15 23  1  0  0  0  0
 16  2  1  0  0  0  0
 17 20  1  0  0  0  0
 17  3  1  1  0  0  0
 18 25  2  0  0  0  0
 19  1  1  0  0  0  0
 19 26  2  0  0  0  0
 20 22  1  1  0  0  0
 22  9  1  0  0  0  0
 22 10  1  0  0  0  0
 25 26  1  0  0  0  0
 26 17  1  0  0  0  0
 27  7  1  0  0  0  0
 27 24  1  1  0  0  0
 30 29  1  0  0  0  0
 30 28  1  0  0  0  0
M  END
>  <MODEL>
3

>  <REMARK>
 VINA RESULT:      -6.2      1.599      2.539
  Name = 
  2 active torsions:
  status: ('A' for Active; 'I' for Inactive)
    1  A    between atoms: C_11  and  C_28
    2  A    between atoms: C_28  and  O_30
                            x       y       z     vdW  Elec       q    Type
                         _______ _______ _______ _____ _____    ______ ____

>  <TORSDO>
F 2

$$$$
