=
 OpenBabel11122414313D

 34 40  0  0  1  0  0  0  0  0999 V2000
  160.7450  206.9840  154.0770 C   0  0  0  0  0  0  0  0  0  0  0  0
  161.4770  204.6970  152.9880 C   0  0  0  0  0  2  0  0  0  0  0  0
  158.8020  213.2730  153.7560 C   0  0  2  0  0  3  0  0  0  0  0  0
  160.0970  209.1880  154.9200 C   0  0  0  0  0  0  0  0  0  0  0  0
  160.0630  211.0780  153.3740 C   0  0  0  0  0  0  0  0  0  0  0  0
  159.7860  212.6830  151.6230 O   0  0  0  0  0  1  0  0  0  0  0  0
  158.2430  214.4530  152.9760 C   0  0  0  0  0  1  0  0  0  0  0  0
  160.0630  212.7540  155.9120 C   0  0  0  0  0  2  0  0  0  0  0  0
  161.4040  206.6740  151.7570 C   0  0  0  0  0  0  0  0  0  0  0  0
  161.9010  206.7350  148.6250 C   0  0  0  0  0  2  0  0  0  0  0  0
  160.4890  210.2350  152.3890 N   0  0  0  0  0  0  0  0  0  0  0  0
  159.3730  211.4050  155.8410 C   0  0  0  0  0  2  0  0  0  0  0  0
  161.1490  208.0710  151.4920 N   0  0  0  0  0  0  0  0  0  0  0  0
  161.7170  204.3430  151.5220 C   0  0  0  0  0  2  0  0  0  0  0  0
  159.8770  210.5640  154.6920 C   0  0  0  0  0  0  0  0  0  0  0  0
  159.2850  213.7920  155.1100 C   0  0  0  0  0  2  0  0  0  0  0  0
  161.2000  205.7890  149.5050 N   0  0  0  0  0  0  0  0  0  0  0  0
  160.5220  208.3600  153.8620 C   0  0  0  0  0  0  0  0  0  0  0  0
  159.9340  212.5490  153.0090 C   0  0  1  0  0  3  0  0  0  0  0  0
  160.7160  208.9110  152.5860 C   0  0  0  0  0  0  0  0  0  0  0  0
  160.1230  207.2510  156.4010 C   0  0  0  0  0  3  0  0  0  0  0  0
  162.2250  208.0840  149.2770 C   0  0  0  0  0  2  0  0  0  0  0  0
  159.9020  208.6150  156.1890 C   0  0  0  0  0  3  0  0  0  0  0  0
  161.0710  208.5920  150.1250 C   0  0  0  0  0  2  0  0  0  0  0  0
  161.9310  205.6780  150.7800 C   0  0  1  0  0  3  0  0  0  0  0  0
  160.5440  206.4370  155.3480 C   0  0  0  0  0  3  0  0  0  0  0  0
  161.2010  206.1510  152.9500 C   0  0  0  0  0  0  0  0  0  0  0  0
  161.2230  204.5250  148.7770 C   0  0  0  0  0  2  0  0  0  0  0  0
  161.2540  204.7980  147.2840 C   0  0  0  0  0  2  0  0  0  0  0  0
  160.4800  201.7750  146.8230 O   0  0  0  0  0  0  0  0  0  0  0  0
  161.0810  203.3930  145.2510 C   0  0  0  0  0  2  0  0  0  0  0  0
  161.8150  203.5980  146.5390 C   0  0  2  0  0  3  0  0  0  0  0  0
  160.4930  202.0270  145.4450 C   0  0  0  0  0  2  0  0  0  0  0  0
  161.5910  202.3910  147.3210 N   0  0  0  0  0  2  0  0  0  0  0  0
  1 26  1  0  0  0  0
  3  7  1  6  0  0  0
  3 16  1  0  0  0  0
  4 23  2  0  0  0  0
  5 15  2  0  0  0  0
  9 27  2  0  0  0  0
 10 22  1  0  0  0  0
 10 17  1  0  0  0  0
 11 20  2  0  0  0  0
 11  5  1  0  0  0  0
 12  8  1  0  0  0  0
 13  9  1  0  0  0  0
 13 20  1  0  0  0  0
 14  2  1  0  0  0  0
 15  4  1  0  0  0  0
 15 12  1  0  0  0  0
 16  8  1  0  0  0  0
 17 25  1  0  0  0  0
 18  1  2  0  0  0  0
 18  4  1  0  0  0  0
 19  6  1  6  0  0  0
 19  5  1  0  0  0  0
 19  3  1  0  0  0  0
 20 18  1  0  0  0  0
 22 24  1  0  0  0  0
 23 21  1  0  0  0  0
 24 13  1  0  0  0  0
 25 14  1  1  0  0  0
 25  9  1  0  0  0  0
 26 21  2  0  0  0  0
 27  2  1  0  0  0  0
 27  1  1  0  0  0  0
 28 17  1  0  0  0  0
 29 28  1  0  0  0  0
 30 34  1  0  0  0  0
 31 33  1  0  0  0  0
 31 32  1  0  0  0  0
 32 29  1  1  0  0  0
 32 34  1  0  0  0  0
 33 30  1  0  0  0  0
M  END
>  <MODEL>
1

>  <REMARK>
 VINA RESULT:      -9.1      0.000      0.000
  Name = 
  3 active torsions:
  status: ('A' for Active; 'I' for Inactive)
    1  A    between atoms: N_17  and  C_28
    2  A    between atoms: C_28  and  C_29
    3  A    between atoms: C_29  and  C_32
                            x       y       z     vdW  Elec       q    Type
                         _______ _______ _______ _____ _____    ______ ____

>  <TORSDO>
F 3

$$$$
=
 OpenBabel11122414313D

 34 40  0  0  1  0  0  0  0  0999 V2000
  161.4900  209.0970  150.9510 C   0  0  0  0  0  0  0  0  0  0  0  0
  161.4790  211.0810  152.6880 C   0  0  0  0  0  2  0  0  0  0  0  0
  160.3450  202.8550  149.1750 C   0  0  2  0  0  3  0  0  0  0  0  0
  161.4750  207.1380  149.4840 C   0  0  0  0  0  0  0  0  0  0  0  0
  161.0960  204.9340  150.4660 C   0  0  0  0  0  0  0  0  0  0  0  0
  160.3840  202.9500  151.5950 O   0  0  0  0  0  1  0  0  0  0  0  0
  159.6840  201.5060  149.4110 C   0  0  0  0  0  1  0  0  0  0  0  0
  162.2460  203.9120  147.8420 C   0  0  0  0  0  2  0  0  0  0  0  0
  161.1930  208.8660  153.3530 C   0  0  0  0  0  0  0  0  0  0  0  0
  160.4900  208.0760  156.3430 C   0  0  0  0  0  2  0  0  0  0  0  0
  161.0190  205.5310  151.6900 N   0  0  0  0  0  0  0  0  0  0  0  0
  161.4210  205.1820  147.9150 C   0  0  0  0  0  2  0  0  0  0  0  0
  161.0290  207.4380  153.2010 N   0  0  0  0  0  0  0  0  0  0  0  0
  161.1110  211.0820  154.1700 C   0  0  0  0  0  2  0  0  0  0  0  0
  161.3540  205.7410  149.3170 C   0  0  0  0  0  0  0  0  0  0  0  0
  161.3570  202.6890  148.0420 C   0  0  0  0  0  2  0  0  0  0  0  0
  160.0590  209.1820  155.4770 N   0  0  0  0  0  0  0  0  0  0  0  0
  161.3710  207.7030  150.7710 C   0  0  0  0  0  0  0  0  0  0  0  0
  161.0200  203.4150  150.4380 C   0  0  1  0  0  3  0  0  0  0  0  0
  161.1400  206.8700  151.8770 C   0  0  0  0  0  0  0  0  0  0  0  0
  161.8170  209.3710  148.5680 C   0  0  0  0  0  3  0  0  0  0  0  0
  161.1960  206.9320  155.6050 C   0  0  0  0  0  2  0  0  0  0  0  0
  161.6990  207.9900  148.3880 C   0  0  0  0  0  3  0  0  0  0  0  0
  160.5110  206.6050  154.2880 C   0  0  0  0  0  2  0  0  0  0  0  0
  161.1930  209.6160  154.6420 C   0  0  1  0  0  3  0  0  0  0  0  0
  161.7130  209.9240  149.8460 C   0  0  0  0  0  3  0  0  0  0  0  0
  161.3870  209.6510  152.3130 C   0  0  0  0  0  0  0  0  0  0  0  0
  159.6560  210.2370  156.4010 C   0  0  0  0  0  2  0  0  0  0  0  0
  158.1880  210.5620  156.1910 C   0  0  0  0  0  2  0  0  0  0  0  0
  156.1770  212.2010  154.3960 O   0  0  0  0  0  0  0  0  0  0  0  0
  156.9960  212.7070  156.5240 C   0  0  0  0  0  2  0  0  0  0  0  0
  158.0280  211.9940  155.7080 C   0  0  2  0  0  3  0  0  0  0  0  0
  155.9700  213.0560  155.4870 C   0  0  0  0  0  2  0  0  0  0  0  0
  157.5240  211.9930  154.3430 N   0  0  0  0  0  2  0  0  0  0  0  0
  1 27  1  0  0  0  0
  2 14  1  0  0  0  0
  3  7  1  1  0  0  0
  3 19  1  0  0  0  0
  4 18  1  0  0  0  0
  5 11  2  0  0  0  0
  8 12  1  0  0  0  0
  8 16  1  0  0  0  0
  9 25  1  0  0  0  0
 11 20  1  0  0  0  0
 12 15  1  0  0  0  0
 13  9  1  0  0  0  0
 13 24  1  0  0  0  0
 15  4  2  0  0  0  0
 15  5  1  0  0  0  0
 16  3  1  0  0  0  0
 17 10  1  0  0  0  0
 17 28  1  0  0  0  0
 18  1  1  0  0  0  0
 18 20  2  0  0  0  0
 19  5  1  0  0  0  0
 19  6  1  1  0  0  0
 20 13  1  0  0  0  0
 21 26  1  0  0  0  0
 22 10  1  0  0  0  0
 23 21  2  0  0  0  0
 23  4  1  0  0  0  0
 24 22  1  0  0  0  0
 25 14  1  6  0  0  0
 25 17  1  0  0  0  0
 26  1  2  0  0  0  0
 27  2  1  0  0  0  0
 27  9  2  0  0  0  0
 29 28  1  0  0  0  0
 30 33  1  0  0  0  0
 32 29  1  1  0  0  0
 32 31  1  0  0  0  0
 33 31  1  0  0  0  0
 34 30  1  0  0  0  0
 34 32  1  0  0  0  0
M  END
>  <MODEL>
2

>  <REMARK>
 VINA RESULT:      -8.7      2.243      9.113
  Name = 
  3 active torsions:
  status: ('A' for Active; 'I' for Inactive)
    1  A    between atoms: N_17  and  C_28
    2  A    between atoms: C_28  and  C_29
    3  A    between atoms: C_29  and  C_32
                            x       y       z     vdW  Elec       q    Type
                         _______ _______ _______ _____ _____    ______ ____

>  <TORSDO>
F 3

$$$$
=
 OpenBabel11122414313D

 34 40  0  0  1  0  0  0  0  0999 V2000
  161.4950  209.0950  150.9380 C   0  0  0  0  0  0  0  0  0  0  0  0
  161.4740  211.0520  152.7050 C   0  0  0  0  0  2  0  0  0  0  0  0
  160.3720  202.8770  149.0650 C   0  0  2  0  0  3  0  0  0  0  0  0
  161.4890  207.1590  149.4410 C   0  0  0  0  0  0  0  0  0  0  0  0
  161.1140  204.9390  150.3890 C   0  0  0  0  0  0  0  0  0  0  0  0
  160.4050  202.9350  151.4860 O   0  0  0  0  0  1  0  0  0  0  0  0
  159.7140  201.5230  149.2790 C   0  0  0  0  0  1  0  0  0  0  0  0
  162.2730  203.9600  147.7520 C   0  0  0  0  0  2  0  0  0  0  0  0
  161.1930  208.8270  153.3350 C   0  0  0  0  0  0  0  0  0  0  0  0
  160.4850  207.9900  156.3110 C   0  0  0  0  0  2  0  0  0  0  0  0
  161.0320  205.5170  151.6210 N   0  0  0  0  0  0  0  0  0  0  0  0
  161.4440  205.2270  147.8430 C   0  0  0  0  0  2  0  0  0  0  0  0
  161.0330  207.4010  153.1610 N   0  0  0  0  0  0  0  0  0  0  0  0
  161.1020  211.0300  154.1850 C   0  0  0  0  0  2  0  0  0  0  0  0
  161.3730  205.7640  149.2530 C   0  0  0  0  0  0  0  0  0  0  0  0
  161.3880  202.7310  147.9320 C   0  0  0  0  0  2  0  0  0  0  0  0
  160.0530  209.1070  155.4610 N   0  0  0  0  0  0  0  0  0  0  0  0
  161.3800  207.7040  150.7370 C   0  0  0  0  0  0  0  0  0  0  0  0
  161.0430  203.4200  150.3380 C   0  0  1  0  0  3  0  0  0  0  0  0
  161.1490  206.8540  151.8290 C   0  0  0  0  0  0  0  0  0  0  0  0
  161.8260  209.4060  148.5600 C   0  0  0  0  0  3  0  0  0  0  0  0
  161.1960  206.8590  155.5580 C   0  0  0  0  0  2  0  0  0  0  0  0
  161.7130  208.0280  148.3590 C   0  0  0  0  0  3  0  0  0  0  0  0
  160.5160  206.5500  154.2350 C   0  0  0  0  0  2  0  0  0  0  0  0
  161.1870  209.5580  154.6350 C   0  0  1  0  0  3  0  0  0  0  0  0
  161.7170  209.9400  149.8460 C   0  0  0  0  0  3  0  0  0  0  0  0
  161.3870  209.6280  152.3070 C   0  0  0  0  0  0  0  0  0  0  0  0
  159.6440  210.1470  156.4000 C   0  0  0  0  0  2  0  0  0  0  0  0
  158.3410  210.7710  155.9310 C   0  0  0  0  0  2  0  0  0  0  0  0
  159.6010  213.6620  155.9810 O   0  0  0  0  0  0  0  0  0  0  0  0
  157.3620  213.0390  155.7610 C   0  0  0  0  0  2  0  0  0  0  0  0
  158.0980  212.0870  156.6500 C   0  0  2  0  0  3  0  0  0  0  0  0
  158.3400  214.1700  155.6420 C   0  0  0  0  0  2  0  0  0  0  0  0
  159.3730  212.7240  156.9450 N   0  0  0  0  0  2  0  0  0  0  0  0
  1 27  1  0  0  0  0
  2 14  1  0  0  0  0
  3  7  1  1  0  0  0
  3 19  1  0  0  0  0
  4 18  1  0  0  0  0
  5 11  2  0  0  0  0
  8 12  1  0  0  0  0
  8 16  1  0  0  0  0
  9 25  1  0  0  0  0
 11 20  1  0  0  0  0
 12 15  1  0  0  0  0
 13  9  1  0  0  0  0
 13 24  1  0  0  0  0
 15  4  2  0  0  0  0
 15  5  1  0  0  0  0
 16  3  1  0  0  0  0
 17 10  1  0  0  0  0
 17 28  1  0  0  0  0
 18  1  1  0  0  0  0
 18 20  2  0  0  0  0
 19  5  1  0  0  0  0
 19  6  1  1  0  0  0
 20 13  1  0  0  0  0
 21 26  1  0  0  0  0
 22 10  1  0  0  0  0
 23 21  2  0  0  0  0
 23  4  1  0  0  0  0
 24 22  1  0  0  0  0
 25 14  1  6  0  0  0
 25 17  1  0  0  0  0
 26  1  2  0  0  0  0
 27  2  1  0  0  0  0
 27  9  2  0  0  0  0
 29 28  1  0  0  0  0
 30 34  1  0  0  0  0
 31 32  1  0  0  0  0
 32 29  1  6  0  0  0
 32 34  1  0  0  0  0
 33 31  1  0  0  0  0
 33 30  1  0  0  0  0
M  END
>  <MODEL>
3

>  <REMARK>
 VINA RESULT:      -8.7      2.136      9.282
  Name = 
  3 active torsions:
  status: ('A' for Active; 'I' for Inactive)
    1  A    between atoms: N_17  and  C_28
    2  A    between atoms: C_28  and  C_29
    3  A    between atoms: C_29  and  C_32
                            x       y       z     vdW  Elec       q    Type
                         _______ _______ _______ _____ _____    ______ ____

>  <TORSDO>
F 3

$$$$
=
 OpenBabel11122414313D

 34 40  0  0  1  0  0  0  0  0999 V2000
  160.7630  207.2070  154.2810 C   0  0  0  0  0  0  0  0  0  0  0  0
  161.7060  205.2620  152.7720 C   0  0  0  0  0  2  0  0  0  0  0  0
  158.1460  213.1900  155.1750 C   0  0  2  0  0  3  0  0  0  0  0  0
  159.9040  209.1270  155.5330 C   0  0  0  0  0  0  0  0  0  0  0  0
  159.6250  211.2590  154.3750 C   0  0  0  0  0  0  0  0  0  0  0  0
  159.1300  213.1250  152.9630 O   0  0  0  0  0  1  0  0  0  0  0  0
  157.4430  214.4260  154.6390 C   0  0  0  0  0  1  0  0  0  0  0  0
  159.5140  212.4160  157.1850 C   0  0  0  0  0  2  0  0  0  0  0  0
  161.3880  207.4150  151.9410 C   0  0  0  0  0  0  0  0  0  0  0  0
  161.7900  208.1200  148.8750 C   0  0  0  0  0  2  0  0  0  0  0  0
  160.1120  210.6700  153.2450 N   0  0  0  0  0  0  0  0  0  0  0  0
  158.9710  211.0370  156.8630 C   0  0  0  0  0  2  0  0  0  0  0  0
  160.9770  208.8010  151.9480 N   0  0  0  0  0  0  0  0  0  0  0  0
  161.9430  205.2200  151.2640 C   0  0  0  0  0  2  0  0  0  0  0  0
  159.5310  210.4880  155.5720 C   0  0  0  0  0  0  0  0  0  0  0  0
  158.6080  213.4940  156.6000 C   0  0  0  0  0  2  0  0  0  0  0  0
  161.2190  206.9540  149.5620 N   0  0  0  0  0  0  0  0  0  0  0  0
  160.3870  208.5660  154.3330 C   0  0  0  0  0  0  0  0  0  0  0  0
  159.3290  212.7490  154.2970 C   0  0  1  0  0  3  0  0  0  0  0  0
  160.4850  209.3650  153.1850 C   0  0  0  0  0  0  0  0  0  0  0  0
  160.1790  206.9610  156.6180 C   0  0  0  0  0  3  0  0  0  0  0  0
  161.9850  209.3500  149.7700 C   0  0  0  0  0  2  0  0  0  0  0  0
  159.8070  208.3070  156.6710 C   0  0  0  0  0  3  0  0  0  0  0  0
  160.8060  209.5580  150.7060 C   0  0  0  0  0  2  0  0  0  0  0  0
  161.9920  206.6860  150.7890 C   0  0  1  0  0  3  0  0  0  0  0  0
  160.6570  206.4120  155.4260 C   0  0  0  0  0  3  0  0  0  0  0  0
  161.2740  206.6580  153.0130 C   0  0  0  0  0  0  0  0  0  0  0  0
  161.3580  205.8600  148.6070 C   0  0  0  0  0  2  0  0  0  0  0  0
  160.7110  206.2490  147.2910 C   0  0  0  0  0  2  0  0  0  0  0  0
  161.1560  203.6120  145.6180 O   0  0  0  0  0  0  0  0  0  0  0  0
  160.7730  205.7860  144.8580 C   0  0  0  0  0  2  0  0  0  0  0  0
  161.5710  205.7940  146.1240 C   0  0  2  0  0  3  0  0  0  0  0  0
  160.8290  204.3400  144.4660 C   0  0  0  0  0  2  0  0  0  0  0  0
  161.9910  204.4170  146.3370 N   0  0  0  0  0  2  0  0  0  0  0  0
  1 18  2  0  0  0  0
  1 26  1  0  0  0  0
  2 27  1  0  0  0  0
  3  7  1  6  0  0  0
  3 16  1  0  0  0  0
  4 15  1  0  0  0  0
  4 23  2  0  0  0  0
  5 15  2  0  0  0  0
  9 13  1  0  0  0  0
  9 27  2  0  0  0  0
 10 17  1  0  0  0  0
 10 22  1  0  0  0  0
 11  5  1  0  0  0  0
 12  8  1  0  0  0  0
 13 20  1  0  0  0  0
 14  2  1  0  0  0  0
 15 12  1  0  0  0  0
 16  8  1  0  0  0  0
 17 25  1  0  0  0  0
 18  4  1  0  0  0  0
 19  6  1  6  0  0  0
 19  5  1  0  0  0  0
 19  3  1  0  0  0  0
 20 11  2  0  0  0  0
 20 18  1  0  0  0  0
 21 23  1  0  0  0  0
 22 24  1  0  0  0  0
 24 13  1  0  0  0  0
 25 14  1  1  0  0  0
 25  9  1  0  0  0  0
 26 21  2  0  0  0  0
 27  1  1  0  0  0  0
 28 17  1  0  0  0  0
 29 28  1  0  0  0  0
 30 34  1  0  0  0  0
 31 32  1  0  0  0  0
 32 34  1  0  0  0  0
 32 29  1  1  0  0  0
 33 31  1  0  0  0  0
 33 30  1  0  0  0  0
M  END
>  <MODEL>
4

>  <REMARK>
 VINA RESULT:      -8.2      1.254      1.375
  Name = 
  3 active torsions:
  status: ('A' for Active; 'I' for Inactive)
    1  A    between atoms: N_17  and  C_28
    2  A    between atoms: C_28  and  C_29
    3  A    between atoms: C_29  and  C_32
                            x       y       z     vdW  Elec       q    Type
                         _______ _______ _______ _____ _____    ______ ____

>  <TORSDO>
F 3

$$$$
=
 OpenBabel11122414313D

 34 40  0  0  1  0  0  0  0  0999 V2000
  161.6650  208.1170  149.3160 C   0  0  0  0  0  0  0  0  0  0  0  0
  161.6910  206.6020  147.1580 C   0  0  0  0  0  2  0  0  0  0  0  0
  161.5750  209.0200  155.8440 C   0  0  2  0  0  3  0  0  0  0  0  0
  161.5890  209.3710  151.4170 C   0  0  0  0  0  0  0  0  0  0  0  0
  161.0590  208.1780  153.4820 C   0  0  0  0  0  0  0  0  0  0  0  0
  160.8500  206.7530  155.3910 O   0  0  0  0  0  1  0  0  0  0  0  0
  161.7520  208.4970  157.2610 C   0  0  0  0  0  1  0  0  0  0  0  0
  160.5060  210.9610  154.5790 C   0  0  0  0  0  2  0  0  0  0  0  0
  161.1660  205.7380  149.2580 C   0  0  0  0  0  0  0  0  0  0  0  0
  160.7180  202.6370  149.7460 C   0  0  0  0  0  2  0  0  0  0  0  0
  160.9280  207.0360  152.7480 N   0  0  0  0  0  0  0  0  0  0  0  0
  161.5800  210.7070  153.5380 C   0  0  0  0  0  2  0  0  0  0  0  0
  160.9810  205.7360  150.6910 N   0  0  0  0  0  0  0  0  0  0  0  0
  161.5910  205.0840  147.0270 C   0  0  0  0  0  2  0  0  0  0  0  0
  161.3760  209.3990  152.8130 C   0  0  0  0  0  0  0  0  0  0  0  0
  160.9360  210.4060  155.9330 C   0  0  0  0  0  2  0  0  0  0  0  0
  161.6640  203.3870  148.9090 N   0  0  0  0  0  0  0  0  0  0  0  0
  161.4550  208.1580  150.7100 C   0  0  0  0  0  0  0  0  0  0  0  0
  160.7320  208.0820  154.9640 C   0  0  1  0  0  3  0  0  0  0  0  0
  161.1180  206.9860  151.4040 C   0  0  0  0  0  0  0  0  0  0  0  0
  162.1410  210.4910  149.3230 C   0  0  0  0  0  3  0  0  0  0  0  0
  159.9840  203.4870  150.7890 C   0  0  0  0  0  2  0  0  0  0  0  0
  161.9340  210.5330  150.7050 C   0  0  0  0  0  3  0  0  0  0  0  0
  160.9130  204.4880  151.4550 C   0  0  0  0  0  2  0  0  0  0  0  0
  160.9860  204.5700  148.3490 C   0  0  1  0  0  3  0  0  0  0  0  0
  162.0070  209.2860  148.6300 C   0  0  0  0  0  3  0  0  0  0  0  0
  161.5050  206.8340  148.6090 C   0  0  0  0  0  0  0  0  0  0  0  0
  162.0430  202.4530  147.8540 C   0  0  0  0  0  2  0  0  0  0  0  0
  160.8040  201.7470  147.3310 C   0  0  0  0  0  2  0  0  0  0  0  0
  158.8130  201.7960  144.8850 O   0  0  0  0  0  0  0  0  0  0  0  0
  160.8300  202.9390  145.1600 C   0  0  0  0  0  2  0  0  0  0  0  0
  160.8800  201.5970  145.8210 C   0  0  2  0  0  3  0  0  0  0  0  0
  159.5810  202.8320  144.3380 C   0  0  0  0  0  2  0  0  0  0  0  0
  159.7100  200.8760  145.3440 N   0  0  0  0  0  2  0  0  0  0  0  0
  1 18  1  0  0  0  0
  2 27  1  0  0  0  0
  3 16  1  0  0  0  0
  3  7  1  1  0  0  0
  4 15  1  0  0  0  0
  5 19  1  0  0  0  0
  8 16  1  0  0  0  0
  9 13  1  0  0  0  0
 10 22  1  0  0  0  0
 11  5  1  0  0  0  0
 12  8  1  0  0  0  0
 13 20  1  0  0  0  0
 13 24  1  0  0  0  0
 14  2  1  0  0  0  0
 15  5  2  0  0  0  0
 15 12  1  0  0  0  0
 17 10  1  0  0  0  0
 18 20  1  0  0  0  0
 18  4  2  0  0  0  0
 19  6  1  1  0  0  0
 19  3  1  0  0  0  0
 20 11  2  0  0  0  0
 21 23  2  0  0  0  0
 22 24  1  0  0  0  0
 23  4  1  0  0  0  0
 25 14  1  6  0  0  0
 25 17  1  0  0  0  0
 25  9  1  0  0  0  0
 26  1  2  0  0  0  0
 26 21  1  0  0  0  0
 27  9  2  0  0  0  0
 27  1  1  0  0  0  0
 28 17  1  0  0  0  0
 29 28  1  0  0  0  0
 30 34  1  0  0  0  0
 31 32  1  0  0  0  0
 32 29  1  1  0  0  0
 33 30  1  0  0  0  0
 33 31  1  0  0  0  0
 34 32  1  0  0  0  0
M  END
>  <MODEL>
5

>  <REMARK>
 VINA RESULT:      -8.0      2.151      4.387
  Name = 
  3 active torsions:
  status: ('A' for Active; 'I' for Inactive)
    1  A    between atoms: N_17  and  C_28
    2  A    between atoms: C_28  and  C_29
    3  A    between atoms: C_29  and  C_32
                            x       y       z     vdW  Elec       q    Type
                         _______ _______ _______ _____ _____    ______ ____

>  <TORSDO>
F 3

$$$$
=
 OpenBabel11122414313D

 34 40  0  0  1  0  0  0  0  0999 V2000
  161.7220  207.9150  149.2980 C   0  0  0  0  0  0  0  0  0  0  0  0
  161.9510  210.3600  150.2560 C   0  0  0  0  0  2  0  0  0  0  0  0
  160.0610  201.5560  149.7950 C   0  0  2  0  0  3  0  0  0  0  0  0
  161.4860  205.5850  148.5860 C   0  0  0  0  0  0  0  0  0  0  0  0
  161.0270  203.8780  150.2730 C   0  0  0  0  0  0  0  0  0  0  0  0
  160.2590  202.4560  152.0350 O   0  0  0  0  0  1  0  0  0  0  0  0
  159.3290  200.4250  150.5000 C   0  0  0  0  0  1  0  0  0  0  0  0
  161.9380  201.9420  148.1110 C   0  0  0  0  0  2  0  0  0  0  0  0
  161.5640  208.5300  151.6450 C   0  0  0  0  0  0  0  0  0  0  0  0
  161.0010  208.8520  154.7490 C   0  0  0  0  0  2  0  0  0  0  0  0
  161.0660  204.8560  151.2230 N   0  0  0  0  0  0  0  0  0  0  0  0
  161.2050  203.2270  147.7800 C   0  0  0  0  0  2  0  0  0  0  0  0
  161.2970  207.1530  151.9940 N   0  0  0  0  0  0  0  0  0  0  0  0
  161.6780  210.8900  151.6620 C   0  0  0  0  0  2  0  0  0  0  0  0
  161.2640  204.2280  148.9090 C   0  0  0  0  0  0  0  0  0  0  0  0
  160.9860  200.9350  148.7490 C   0  0  0  0  0  2  0  0  0  0  0  0
  160.5890  209.6340  153.5760 N   0  0  0  0  0  0  0  0  0  0  0  0
  161.5010  206.5560  149.6080 C   0  0  0  0  0  0  0  0  0  0  0  0
  160.8500  202.4510  150.7660 C   0  0  1  0  0  3  0  0  0  0  0  0
  161.2870  206.1660  150.9380 C   0  0  0  0  0  0  0  0  0  0  0  0
  161.9140  207.3430  146.9530 C   0  0  0  0  0  3  0  0  0  0  0  0
  161.5820  207.4730  154.4190 C   0  0  0  0  0  2  0  0  0  0  0  0
  161.6950  205.9970  147.2590 C   0  0  0  0  0  3  0  0  0  0  0  0
  160.7960  206.7800  153.3180 C   0  0  0  0  0  2  0  0  0  0  0  0
  161.6940  209.6670  152.6010 C   0  0  1  0  0  3  0  0  0  0  0  0
  161.9280  208.3000  147.9700 C   0  0  0  0  0  3  0  0  0  0  0  0
  161.7420  208.9010  150.3930 C   0  0  0  0  0  0  0  0  0  0  0  0
  160.3150  210.9680  154.1000 C   0  0  0  0  0  2  0  0  0  0  0  0
  158.8150  211.2020  154.1350 C   0  0  0  0  0  2  0  0  0  0  0  0
  156.5920  213.3800  153.6240 O   0  0  0  0  0  0  0  0  0  0  0  0
  157.4640  212.6190  155.6520 C   0  0  0  0  0  2  0  0  0  0  0  0
  158.5130  212.6220  154.5840 C   0  0  2  0  0  3  0  0  0  0  0  0
  156.3650  213.4090  155.0060 C   0  0  0  0  0  2  0  0  0  0  0  0
  157.9470  213.3730  153.4730 N   0  0  0  0  0  2  0  0  0  0  0  0
  1 18  1  0  0  0  0
  1 27  1  0  0  0  0
  2 27  1  0  0  0  0
  2 14  1  0  0  0  0
  3  7  1  1  0  0  0
  3 19  1  0  0  0  0
  4 15  2  0  0  0  0
  4 18  1  0  0  0  0
  5 19  1  0  0  0  0
  5 11  2  0  0  0  0
  8 16  1  0  0  0  0
  9 13  1  0  0  0  0
  9 25  1  0  0  0  0
 12  8  1  0  0  0  0
 12 15  1  0  0  0  0
 13 24  1  0  0  0  0
 15  5  1  0  0  0  0
 16  3  1  0  0  0  0
 17 28  1  0  0  0  0
 17 10  1  0  0  0  0
 18 20  2  0  0  0  0
 19  6  1  1  0  0  0
 20 11  1  0  0  0  0
 20 13  1  0  0  0  0
 21 23  2  0  0  0  0
 21 26  1  0  0  0  0
 22 10  1  0  0  0  0
 23  4  1  0  0  0  0
 24 22  1  0  0  0  0
 25 14  1  6  0  0  0
 25 17  1  0  0  0  0
 26  1  2  0  0  0  0
 27  9  2  0  0  0  0
 28 29  1  0  0  0  0
 30 33  1  0  0  0  0
 32 29  1  6  0  0  0
 32 31  1  0  0  0  0
 33 31  1  0  0  0  0
 34 30  1  0  0  0  0
 34 32  1  0  0  0  0
M  END
>  <MODEL>
6

>  <REMARK>
 VINA RESULT:      -7.1      2.229      9.377
  Name = 
  3 active torsions:
  status: ('A' for Active; 'I' for Inactive)
    1  A    between atoms: N_17  and  C_28
    2  A    between atoms: C_28  and  C_29
    3  A    between atoms: C_29  and  C_32
                            x       y       z     vdW  Elec       q    Type
                         _______ _______ _______ _____ _____    ______ ____

>  <TORSDO>
F 3

$$$$
