=
 OpenBabel11122413213D

 31 35  0  0  1  0  0  0  0  0999 V2000
  160.8160  207.8910  154.1410 C   0  0  0  0  0  0  0  0  0  0  0  0
  161.3600  207.3370  150.4570 C   0  0  0  0  0  0  0  0  0  0  0  0
  161.2410  205.9320  150.2180 C   0  0  0  0  0  0  0  0  0  0  0  0
  160.8590  203.6380  150.9730 C   0  0  0  0  0  0  0  0  0  0  0  0
  161.2200  207.9610  151.7330 C   0  0  0  0  0  0  0  0  0  0  0  0
  160.9580  209.2760  154.2180 C   0  0  0  0  0  3  0  0  0  0  0  0
  160.9690  205.0050  151.2410 C   0  0  0  0  0  3  0  0  0  0  0  0
  161.7670  209.5550  149.5000 C   0  0  0  0  0  0  0  0  0  0  0  0
  160.4750  206.9630  155.5850 Cl  0  0  0  0  0  0  0  0  0  0  0  0
  161.6710  206.3060  147.8590 C   0  0  0  0  0  3  0  0  0  0  0  0
  160.5210  202.5180  152.2730 Cl  0  0  0  0  0  0  0  0  0  0  0  0
  161.6250  210.1100  150.7300 N   0  0  0  0  0  0  0  0  0  0  0  0
  161.6370  208.1700  149.3360 C   0  0  0  0  0  0  0  0  0  0  0  0
  162.0430  210.3850  148.3670 N   0  0  0  0  0  2  0  0  0  0  0  0
  160.9460  207.2440  152.9110 C   0  0  0  0  0  3  0  0  0  0  0  0
  161.0200  203.1680  149.6700 C   0  0  0  0  0  3  0  0  0  0  0  0
  161.3610  209.3680  151.8310 C   0  0  0  0  0  0  0  0  0  0  0  0
  161.2300  210.0120  153.0660 C   0  0  0  0  0  3  0  0  0  0  0  0
  161.7810  207.6350  148.0940 N   0  0  0  0  0  0  0  0  0  0  0  0
  161.4010  205.4320  148.9020 C   0  0  0  0  0  0  0  0  0  0  0  0
  161.2910  204.0650  148.6360 C   0  0  0  0  0  3  0  0  0  0  0  0
  163.4100  212.2130  147.8670 O   0  0  0  0  0  1  0  0  0  0  0  0
  162.2120  211.8280  148.4710 C   0  0  1  0  0  3  0  0  0  0  0  0
  158.8900  213.8120  146.5850 C   0  0  0  0  0  0  0  0  0  0  0  0
  160.8200  212.3600  146.4500 C   0  0  0  0  0  3  0  0  0  0  0  0
  160.3960  213.5570  150.0400 C   0  0  0  0  0  1  0  0  0  0  0  0
  157.8190  214.4480  145.9720 O   0  0  0  0  0  1  0  0  0  0  0  0
  159.7420  212.9990  145.8340 C   0  0  0  0  0  3  0  0  0  0  0  0
  160.1920  213.3470  148.5770 C   0  0  0  0  0  0  0  0  0  0  0  0
  161.0560  212.5300  147.8240 C   0  0  0  0  0  0  0  0  0  0  0  0
  159.1150  213.9850  147.9530 C   0  0  0  0  0  3  0  0  0  0  0  0
  1  6  1  0  0  0  0
  1  9  1  0  0  0  0
  2  5  1  0  0  0  0
  3  2  1  0  0  0  0
  3  7  1  0  0  0  0
  4  7  2  0  0  0  0
  4 11  1  0  0  0  0
  5 17  2  0  0  0  0
  5 15  1  0  0  0  0
  8 12  2  0  0  0  0
 10 19  2  0  0  0  0
 10 20  1  0  0  0  0
 12 17  1  0  0  0  0
 13  8  1  0  0  0  0
 13  2  2  0  0  0  0
 14 23  1  0  0  0  0
 14  8  1  0  0  0  0
 15  1  2  0  0  0  0
 16  4  1  0  0  0  0
 17 18  1  0  0  0  0
 18  6  2  0  0  0  0
 19 13  1  0  0  0  0
 20  3  2  0  0  0  0
 21 20  1  0  0  0  0
 21 16  2  0  0  0  0
 23 22  1  6  0  0  0
 24 31  1  0  0  0  0
 25 30  2  0  0  0  0
 27 24  1  0  0  0  0
 28 25  1  0  0  0  0
 28 24  2  0  0  0  0
 29 26  1  0  0  0  0
 30 23  1  0  0  0  0
 30 29  1  0  0  0  0
 31 29  2  0  0  0  0
M  END
>  <MODEL>
1

>  <REMARK>
 VINA RESULT:     -10.6      0.000      0.000
  Name = 
  2 active torsions:
  status: ('A' for Active; 'I' for Inactive)
    1  A    between atoms: C_5  and  N_16
    2  A    between atoms: C_5  and  C_30
                            x       y       z     vdW  Elec       q    Type
                         _______ _______ _______ _____ _____    ______ ____

>  <TORSDO>
F 2

$$$$
=
 OpenBabel11122413213D

 31 35  0  0  1  0  0  0  0  0999 V2000
  161.0960  206.3330  153.1370 C   0  0  0  0  0  0  0  0  0  0  0  0
  161.4780  206.6190  149.4030 C   0  0  0  0  0  0  0  0  0  0  0  0
  161.3930  205.2970  148.8660 C   0  0  0  0  0  0  0  0  0  0  0  0
  161.1240  202.8790  149.1130 C   0  0  0  0  0  0  0  0  0  0  0  0
  161.3800  206.9430  150.7890 C   0  0  0  0  0  0  0  0  0  0  0  0
  161.1960  207.6720  153.5120 C   0  0  0  0  0  3  0  0  0  0  0  0
  161.2020  204.1580  149.6700 C   0  0  0  0  0  3  0  0  0  0  0  0
  161.7650  209.0080  148.9410 C   0  0  0  0  0  0  0  0  0  0  0  0
  160.8560  205.0980  154.3540 Cl  0  0  0  0  0  0  0  0  0  0  0  0
  161.6950  206.1940  146.6310 C   0  0  0  0  0  3  0  0  0  0  0  0
  160.8860  201.4890  150.1480 Cl  0  0  0  0  0  0  0  0  0  0  0  0
  161.6650  209.2750  150.2680 N   0  0  0  0  0  0  0  0  0  0  0  0
  161.6730  207.6880  148.4820 C   0  0  0  0  0  0  0  0  0  0  0  0
  161.9580  210.0760  148.0090 N   0  0  0  0  0  2  0  0  0  0  0  0
  161.1870  205.9750  151.7920 C   0  0  0  0  0  3  0  0  0  0  0  0
  161.2370  202.7120  147.7340 C   0  0  0  0  0  3  0  0  0  0  0  0
  161.4790  208.3000  151.1880 C   0  0  0  0  0  0  0  0  0  0  0  0
  161.3880  208.6520  152.5390 C   0  0  0  0  0  3  0  0  0  0  0  0
  161.7730  207.4430  147.1480 N   0  0  0  0  0  0  0  0  0  0  0  0
  161.5060  205.1030  147.4670 C   0  0  0  0  0  0  0  0  0  0  0  0
  161.4270  203.8230  146.9110 C   0  0  0  0  0  3  0  0  0  0  0  0
  163.2860  211.9990  147.9450 O   0  0  0  0  0  1  0  0  0  0  0  0
  162.0850  211.4680  148.4200 C   0  0  1  0  0  3  0  0  0  0  0  0
  158.7480  213.7280  146.9090 C   0  0  0  0  0  0  0  0  0  0  0  0
  160.5920  212.2060  146.5420 C   0  0  0  0  0  3  0  0  0  0  0  0
  160.4610  213.1540  150.2270 C   0  0  0  0  0  1  0  0  0  0  0  0
  157.6720  214.4530  146.4170 O   0  0  0  0  0  1  0  0  0  0  0  0
  159.5090  212.9360  146.0470 C   0  0  0  0  0  3  0  0  0  0  0  0
  160.1530  213.0620  148.7700 C   0  0  0  0  0  0  0  0  0  0  0  0
  160.9250  212.2650  147.9040 C   0  0  0  0  0  0  0  0  0  0  0  0
  159.0700  213.7900  148.2680 C   0  0  0  0  0  3  0  0  0  0  0  0
  1  6  1  0  0  0  0
  1  9  1  0  0  0  0
  2  5  1  0  0  0  0
  3  2  1  0  0  0  0
  3  7  1  0  0  0  0
  4  7  2  0  0  0  0
  4 11  1  0  0  0  0
  5 17  2  0  0  0  0
  5 15  1  0  0  0  0
  8 12  2  0  0  0  0
 10 19  2  0  0  0  0
 10 20  1  0  0  0  0
 12 17  1  0  0  0  0
 13  8  1  0  0  0  0
 13  2  2  0  0  0  0
 14 23  1  0  0  0  0
 14  8  1  0  0  0  0
 15  1  2  0  0  0  0
 16  4  1  0  0  0  0
 17 18  1  0  0  0  0
 18  6  2  0  0  0  0
 19 13  1  0  0  0  0
 20  3  2  0  0  0  0
 21 20  1  0  0  0  0
 21 16  2  0  0  0  0
 23 22  1  6  0  0  0
 24 31  1  0  0  0  0
 25 30  2  0  0  0  0
 27 24  1  0  0  0  0
 28 25  1  0  0  0  0
 28 24  2  0  0  0  0
 29 26  1  0  0  0  0
 30 23  1  0  0  0  0
 30 29  1  0  0  0  0
 31 29  2  0  0  0  0
M  END
>  <MODEL>
2

>  <REMARK>
 VINA RESULT:      -9.3      1.013      1.308
  Name = 
  2 active torsions:
  status: ('A' for Active; 'I' for Inactive)
    1  A    between atoms: C_5  and  N_16
    2  A    between atoms: C_5  and  C_30
                            x       y       z     vdW  Elec       q    Type
                         _______ _______ _______ _____ _____    ______ ____

>  <TORSDO>
F 2

$$$$
=
 OpenBabel11122413213D

 31 35  0  0  1  0  0  0  0  0999 V2000
  160.9470  202.6100  151.1630 C   0  0  0  0  0  0  0  0  0  0  0  0
  161.2600  205.9000  149.3590 C   0  0  0  0  0  0  0  0  0  0  0  0
  161.2640  205.6150  147.9580 C   0  0  0  0  0  0  0  0  0  0  0  0
  161.1720  204.0660  146.0690 C   0  0  0  0  0  0  0  0  0  0  0  0
  161.1560  204.9170  150.3890 C   0  0  0  0  0  0  0  0  0  0  0  0
  160.9550  203.0390  152.4890 C   0  0  0  0  0  3  0  0  0  0  0  0
  161.1650  204.3090  147.4440 C   0  0  0  0  0  3  0  0  0  0  0  0
  161.3680  207.6130  151.1070 C   0  0  0  0  0  0  0  0  0  0  0  0
  160.8120  200.9040  150.7950 Cl  0  0  0  0  0  0  0  0  0  0  0  0
  161.4720  207.9870  147.4860 C   0  0  0  0  0  3  0  0  0  0  0  0
  161.0480  202.4260  145.4710 Cl  0  0  0  0  0  0  0  0  0  0  0  0
  161.2660  206.6490  152.0560 N   0  0  0  0  0  0  0  0  0  0  0  0
  161.3650  207.2650  149.7500 C   0  0  0  0  0  0  0  0  0  0  0  0
  161.4720  208.9870  151.4910 N   0  0  0  0  0  2  0  0  0  0  0  0
  161.0460  203.5390  150.1270 C   0  0  0  0  0  3  0  0  0  0  0  0
  161.2790  205.1290  145.1730 C   0  0  0  0  0  3  0  0  0  0  0  0
  161.1630  205.3360  151.7430 C   0  0  0  0  0  0  0  0  0  0  0  0
  161.0630  204.3990  152.7780 C   0  0  0  0  0  3  0  0  0  0  0  0
  161.4660  208.2470  148.8150 N   0  0  0  0  0  0  0  0  0  0  0  0
  161.3720  206.6810  147.0300 C   0  0  0  0  0  0  0  0  0  0  0  0
  161.3790  206.4360  145.6540 C   0  0  0  0  0  3  0  0  0  0  0  0
  162.6850  210.1140  153.1400 O   0  0  0  0  0  1  0  0  0  0  0  0
  161.5030  209.4160  152.8830 C   0  0  1  0  0  3  0  0  0  0  0  0
  158.0800  211.8940  153.7030 C   0  0  0  0  0  0  0  0  0  0  0  0
  159.7910  211.1130  152.1810 C   0  0  0  0  0  3  0  0  0  0  0  0
  160.2210  209.3860  155.5480 C   0  0  0  0  0  1  0  0  0  0  0  0
  156.9750  212.6940  153.9620 O   0  0  0  0  0  1  0  0  0  0  0  0
  158.6790  211.9170  152.4420 C   0  0  0  0  0  3  0  0  0  0  0  0
  159.7060  210.2580  154.4510 C   0  0  0  0  0  0  0  0  0  0  0  0
  160.3150  210.2800  153.1820 C   0  0  0  0  0  0  0  0  0  0  0  0
  158.5930  211.0660  154.7050 C   0  0  0  0  0  3  0  0  0  0  0  0
  1  6  1  0  0  0  0
  2 13  1  0  0  0  0
  2  5  1  0  0  0  0
  3  2  2  0  0  0  0
  4  7  2  0  0  0  0
  5 17  2  0  0  0  0
  6 18  2  0  0  0  0
  7  3  1  0  0  0  0
  8 14  1  0  0  0  0
  8 12  2  0  0  0  0
  9  1  1  0  0  0  0
 10 19  1  0  0  0  0
 11  4  1  0  0  0  0
 13  8  1  0  0  0  0
 14 23  1  0  0  0  0
 15  5  1  0  0  0  0
 15  1  2  0  0  0  0
 16 21  2  0  0  0  0
 16  4  1  0  0  0  0
 17 12  1  0  0  0  0
 17 18  1  0  0  0  0
 19 13  2  0  0  0  0
 20 10  2  0  0  0  0
 20  3  1  0  0  0  0
 21 20  1  0  0  0  0
 23 22  1  6  0  0  0
 23 30  1  0  0  0  0
 24 27  1  0  0  0  0
 24 31  1  0  0  0  0
 25 28  1  0  0  0  0
 25 30  2  0  0  0  0
 28 24  2  0  0  0  0
 29 31  2  0  0  0  0
 29 26  1  0  0  0  0
 30 29  1  0  0  0  0
M  END
>  <MODEL>
3

>  <REMARK>
 VINA RESULT:      -9.2      3.489      5.198
  Name = 
  2 active torsions:
  status: ('A' for Active; 'I' for Inactive)
    1  A    between atoms: C_5  and  N_16
    2  A    between atoms: C_5  and  C_30
                            x       y       z     vdW  Elec       q    Type
                         _______ _______ _______ _____ _____    ______ ____

>  <TORSDO>
F 2

$$$$
=
 OpenBabel11122413213D

 31 35  0  0  1  0  0  0  0  0999 V2000
  161.7840  206.8580  147.2720 C   0  0  0  0  0  0  0  0  0  0  0  0
  161.3020  205.6140  150.7930 C   0  0  0  0  0  0  0  0  0  0  0  0
  161.1110  204.2000  150.7190 C   0  0  0  0  0  0  0  0  0  0  0  0
  160.9270  202.1080  149.4670 C   0  0  0  0  0  0  0  0  0  0  0  0
  161.5200  206.4660  149.6680 C   0  0  0  0  0  0  0  0  0  0  0  0
  161.9570  208.2230  147.5000 C   0  0  0  0  0  3  0  0  0  0  0  0
  161.1170  203.4910  149.5030 C   0  0  0  0  0  3  0  0  0  0  0  0
  161.4550  207.5940  152.2280 C   0  0  0  0  0  0  0  0  0  0  0  0
  161.8370  206.2300  145.6390 Cl  0  0  0  0  0  0  0  0  0  0  0  0
  160.8890  204.1130  153.1340 C   0  0  0  0  0  3  0  0  0  0  0  0
  160.9410  201.2640  147.9340 Cl  0  0  0  0  0  0  0  0  0  0  0  0
  161.6610  208.3700  151.1340 N   0  0  0  0  0  0  0  0  0  0  0  0
  161.2750  206.2120  152.0850 C   0  0  0  0  0  0  0  0  0  0  0  0
  161.4280  208.1860  153.5300 N   0  0  0  0  0  2  0  0  0  0  0  0
  161.5690  205.9920  148.3450 C   0  0  0  0  0  3  0  0  0  0  0  0
  160.7250  201.4000  150.6510 C   0  0  0  0  0  3  0  0  0  0  0  0
  161.6970  207.8570  149.8820 C   0  0  0  0  0  0  0  0  0  0  0  0
  161.9120  208.7200  148.8020 C   0  0  0  0  0  3  0  0  0  0  0  0
  161.0720  205.4530  153.1950 N   0  0  0  0  0  0  0  0  0  0  0  0
  160.9040  203.4610  151.9100 C   0  0  0  0  0  0  0  0  0  0  0  0
  160.7140  202.0760  151.8720 C   0  0  0  0  0  3  0  0  0  0  0  0
  162.2490  210.1950  152.6640 O   0  0  0  0  0  1  0  0  0  0  0  0
  161.5860  209.6180  153.7480 C   0  0  1  0  0  3  0  0  0  0  0  0
  157.7240  211.4520  154.2520 C   0  0  0  0  0  0  0  0  0  0  0  0
  159.5990  210.8570  152.8430 C   0  0  0  0  0  3  0  0  0  0  0  0
  160.2540  209.6340  156.3890 C   0  0  0  0  0  1  0  0  0  0  0  0
  156.4790  212.0440  154.4080 O   0  0  0  0  0  1  0  0  0  0  0  0
  158.3450  211.4520  153.0010 C   0  0  0  0  0  3  0  0  0  0  0  0
  159.6130  210.2600  155.1950 C   0  0  0  0  0  0  0  0  0  0  0  0
  160.2440  210.2600  153.9370 C   0  0  0  0  0  0  0  0  0  0  0  0
  158.3580  210.8580  155.3460 C   0  0  0  0  0  3  0  0  0  0  0  0
  1  6  2  0  0  0  0
  1 15  1  0  0  0  0
  2 13  1  0  0  0  0
  3  2  2  0  0  0  0
  3 20  1  0  0  0  0
  4  7  2  0  0  0  0
  4 16  1  0  0  0  0
  5 17  1  0  0  0  0
  5  2  1  0  0  0  0
  6 18  1  0  0  0  0
  7  3  1  0  0  0  0
  8 14  1  0  0  0  0
  9  1  1  0  0  0  0
 10 19  1  0  0  0  0
 11  4  1  0  0  0  0
 12  8  2  0  0  0  0
 13  8  1  0  0  0  0
 13 19  2  0  0  0  0
 14 23  1  0  0  0  0
 15  5  2  0  0  0  0
 16 21  2  0  0  0  0
 17 12  1  0  0  0  0
 18 17  2  0  0  0  0
 20 10  2  0  0  0  0
 21 20  1  0  0  0  0
 23 22  1  6  0  0  0
 23 30  1  0  0  0  0
 24 27  1  0  0  0  0
 24 31  1  0  0  0  0
 25 28  1  0  0  0  0
 25 30  2  0  0  0  0
 28 24  2  0  0  0  0
 29 31  2  0  0  0  0
 29 26  1  0  0  0  0
 30 29  1  0  0  0  0
M  END
>  <MODEL>
4

>  <REMARK>
 VINA RESULT:      -8.2      3.804      5.591
  Name = 
  2 active torsions:
  status: ('A' for Active; 'I' for Inactive)
    1  A    between atoms: C_5  and  N_16
    2  A    between atoms: C_5  and  C_30
                            x       y       z     vdW  Elec       q    Type
                         _______ _______ _______ _____ _____    ______ ____

>  <TORSDO>
F 2

$$$$
=
 OpenBabel11122413213D

 31 35  0  0  1  0  0  0  0  0999 V2000
  160.8310  202.5280  151.1030 C   0  0  0  0  0  0  0  0  0  0  0  0
  161.2770  205.6320  149.0190 C   0  0  0  0  0  0  0  0  0  0  0  0
  161.2860  205.2240  147.6500 C   0  0  0  0  0  0  0  0  0  0  0  0
  161.1620  203.5170  145.9040 C   0  0  0  0  0  0  0  0  0  0  0  0
  161.1280  204.7490  150.1310 C   0  0  0  0  0  0  0  0  0  0  0  0
  160.8390  203.0730  152.3860 C   0  0  0  0  0  3  0  0  0  0  0  0
  161.1480  203.8820  147.2520 C   0  0  0  0  0  3  0  0  0  0  0  0
  161.4250  207.4900  150.6100 C   0  0  0  0  0  0  0  0  0  0  0  0
  160.6410  200.8020  150.8860 Cl  0  0  0  0  0  0  0  0  0  0  0  0
  161.5810  207.5370  146.9730 C   0  0  0  0  0  3  0  0  0  0  0  0
  160.9880  201.8360  145.4510 Cl  0  0  0  0  0  0  0  0  0  0  0  0
  161.2790  206.6180  151.6400 N   0  0  0  0  0  0  0  0  0  0  0  0
  161.4250  207.0220  149.2900 C   0  0  0  0  0  0  0  0  0  0  0  0
  161.5720  208.8890  150.8730 N   0  0  0  0  0  2  0  0  0  0  0  0
  160.9740  203.3580  149.9900 C   0  0  0  0  0  3  0  0  0  0  0  0
  161.3150  204.4930  144.9190 C   0  0  0  0  0  3  0  0  0  0  0  0
  161.1340  205.2860  151.4430 C   0  0  0  0  0  0  0  0  0  0  0  0
  160.9910  204.4490  152.5550 C   0  0  0  0  0  3  0  0  0  0  0  0
  161.5700  207.9140  148.2730 N   0  0  0  0  0  0  0  0  0  0  0  0
  161.4410  206.1990  146.6330 C   0  0  0  0  0  0  0  0  0  0  0  0
  161.4550  205.8320  145.2840 C   0  0  0  0  0  3  0  0  0  0  0  0
  162.8710  209.9530  152.4980 O   0  0  0  0  0  1  0  0  0  0  0  0
  161.6030  209.4380  152.2210 C   0  0  1  0  0  3  0  0  0  0  0  0
  158.6240  212.5130  152.6730 C   0  0  0  0  0  0  0  0  0  0  0  0
  159.6510  210.4560  153.4280 C   0  0  0  0  0  3  0  0  0  0  0  0
  161.4550  211.6900  150.3100 C   0  0  0  0  0  1  0  0  0  0  0  0
  157.6630  213.5030  152.8240 O   0  0  0  0  0  1  0  0  0  0  0  0
  158.6840  211.4530  153.5800 C   0  0  0  0  0  3  0  0  0  0  0  0
  160.5030  211.5830  151.4540 C   0  0  0  0  0  0  0  0  0  0  0  0
  160.5650  210.5110  152.3640 C   0  0  0  0  0  0  0  0  0  0  0  0
  159.5320  212.5770  151.6130 C   0  0  0  0  0  3  0  0  0  0  0  0
  1  6  1  0  0  0  0
  2 13  1  0  0  0  0
  2  5  1  0  0  0  0
  3  2  2  0  0  0  0
  4  7  2  0  0  0  0
  5 17  2  0  0  0  0
  6 18  2  0  0  0  0
  7  3  1  0  0  0  0
  8 14  1  0  0  0  0
  8 12  2  0  0  0  0
  9  1  1  0  0  0  0
 10 19  1  0  0  0  0
 11  4  1  0  0  0  0
 13  8  1  0  0  0  0
 14 23  1  0  0  0  0
 15  5  1  0  0  0  0
 15  1  2  0  0  0  0
 16 21  2  0  0  0  0
 16  4  1  0  0  0  0
 17 12  1  0  0  0  0
 17 18  1  0  0  0  0
 19 13  2  0  0  0  0
 20 10  2  0  0  0  0
 20  3  1  0  0  0  0
 21 20  1  0  0  0  0
 23 30  1  0  0  0  0
 23 22  1  6  0  0  0
 24 27  1  0  0  0  0
 24 28  1  0  0  0  0
 25 28  2  0  0  0  0
 26 29  1  0  0  0  0
 29 31  1  0  0  0  0
 29 30  2  0  0  0  0
 30 25  1  0  0  0  0
 31 24  2  0  0  0  0
M  END
>  <MODEL>
5

>  <REMARK>
 VINA RESULT:      -7.9      3.021      4.787
  Name = 
  2 active torsions:
  status: ('A' for Active; 'I' for Inactive)
    1  A    between atoms: C_5  and  N_16
    2  A    between atoms: C_5  and  C_30
                            x       y       z     vdW  Elec       q    Type
                         _______ _______ _______ _____ _____    ______ ____

>  <TORSDO>
F 2

$$$$
=
 OpenBabel11122413213D

 31 35  0  0  1  0  0  0  0  0999 V2000
  161.4160  211.5090  150.1470 C   0  0  0  0  0  0  0  0  0  0  0  0
  161.3800  207.8990  151.2140 C   0  0  0  0  0  0  0  0  0  0  0  0
  161.1130  207.8760  152.6180 C   0  0  0  0  0  0  0  0  0  0  0  0
  160.6560  208.9850  154.7480 C   0  0  0  0  0  0  0  0  0  0  0  0
  161.4760  209.0830  150.4230 C   0  0  0  0  0  0  0  0  0  0  0  0
  161.6810  211.3750  148.7850 C   0  0  0  0  0  3  0  0  0  0  0  0
  160.9150  209.0440  153.3770 C   0  0  0  0  0  3  0  0  0  0  0  0
  161.8270  206.5980  149.1870 C   0  0  0  0  0  0  0  0  0  0  0  0
  161.2100  213.1000  150.8460 Cl  0  0  0  0  0  0  0  0  0  0  0  0
  161.2300  205.4510  152.5910 C   0  0  0  0  0  3  0  0  0  0  0  0
  160.4150  210.4620  155.6550 Cl  0  0  0  0  0  0  0  0  0  0  0  0
  161.9090  207.7470  148.4690 N   0  0  0  0  0  0  0  0  0  0  0  0
  161.5620  206.6460  150.5610 C   0  0  0  0  0  0  0  0  0  0  0  0
  162.0060  205.3350  148.5380 N   0  0  0  0  0  2  0  0  0  0  0  0
  161.3150  210.3760  150.9540 C   0  0  0  0  0  3  0  0  0  0  0  0
  160.5890  207.7510  155.3930 C   0  0  0  0  0  3  0  0  0  0  0  0
  161.7450  208.9650  149.0360 C   0  0  0  0  0  0  0  0  0  0  0  0
  161.8460  210.1060  148.2310 C   0  0  0  0  0  3  0  0  0  0  0  0
  161.4820  205.4830  151.2610 N   0  0  0  0  0  0  0  0  0  0  0  0
  161.0420  206.6320  153.2940 C   0  0  0  0  0  0  0  0  0  0  0  0
  160.7820  206.5750  154.6660 C   0  0  0  0  0  3  0  0  0  0  0  0
  163.6870  205.1180  146.9290 O   0  0  0  0  0  1  0  0  0  0  0  0
  162.3060  205.2140  147.1180 C   0  0  1  0  0  3  0  0  0  0  0  0
  160.3200  201.7480  145.5160 C   0  0  0  0  0  0  0  0  0  0  0  0
  161.4710  202.8560  147.3330 C   0  0  0  0  0  3  0  0  0  0  0  0
  161.2320  205.2280  144.3620 C   0  0  0  0  0  1  0  0  0  0  0  0
  159.6790  200.6270  145.0050 O   0  0  0  0  0  1  0  0  0  0  0  0
  160.8250  201.7300  146.8180 C   0  0  0  0  0  3  0  0  0  0  0  0
  161.1060  204.0250  145.2360 C   0  0  0  0  0  0  0  0  0  0  0  0
  161.6190  204.0100  146.5470 C   0  0  0  0  0  0  0  0  0  0  0  0
  160.4600  202.8930  144.7280 C   0  0  0  0  0  3  0  0  0  0  0  0
  1  9  1  0  0  0  0
  1 15  1  0  0  0  0
  2  3  1  0  0  0  0
  3 20  2  0  0  0  0
  3  7  1  0  0  0  0
  4 16  1  0  0  0  0
  4 11  1  0  0  0  0
  5 15  2  0  0  0  0
  5  2  1  0  0  0  0
  6  1  2  0  0  0  0
  7  4  2  0  0  0  0
  8 13  1  0  0  0  0
 10 20  1  0  0  0  0
 12 17  1  0  0  0  0
 12  8  2  0  0  0  0
 13  2  2  0  0  0  0
 13 19  1  0  0  0  0
 14  8  1  0  0  0  0
 17  5  1  0  0  0  0
 18  6  1  0  0  0  0
 18 17  2  0  0  0  0
 19 10  2  0  0  0  0
 20 21  1  0  0  0  0
 21 16  2  0  0  0  0
 23 22  1  1  0  0  0
 23 14  1  0  0  0  0
 24 28  1  0  0  0  0
 26 29  1  0  0  0  0
 27 24  1  0  0  0  0
 28 25  2  0  0  0  0
 29 30  2  0  0  0  0
 30 23  1  0  0  0  0
 30 25  1  0  0  0  0
 31 29  1  0  0  0  0
 31 24  2  0  0  0  0
M  END
>  <MODEL>
6

>  <REMARK>
 VINA RESULT:      -7.7      3.585      7.183
  Name = 
  2 active torsions:
  status: ('A' for Active; 'I' for Inactive)
    1  A    between atoms: C_5  and  N_16
    2  A    between atoms: C_5  and  C_30
                            x       y       z     vdW  Elec       q    Type
                         _______ _______ _______ _____ _____    ______ ____

>  <TORSDO>
F 2

$$$$
