=
 OpenBabel11122414403D

 34 37  0  0  1  0  0  0  0  0999 V2000
  160.8930  207.4260  154.2270 C   0  0  2  0  0  3  0  0  0  0  0  0
  160.8050  205.2850  152.9330 C   0  0  0  0  0  2  0  0  0  0  0  0
  160.5170  209.6880  155.1570 C   0  0  0  0  0  2  0  0  0  0  0  0
  161.9160  207.1920  151.8410 C   0  0  2  0  0  3  0  0  0  0  0  0
  162.4220  207.3820  148.9680 C   0  0  0  0  0  2  0  0  0  0  0  0
  161.1150  208.4660  151.4570 C   0  0  1  0  0  3  0  0  0  0  0  0
  160.6900  205.1470  151.4280 C   0  0  0  0  0  2  0  0  0  0  0  0
  161.4040  206.4670  149.4710 N   0  0  0  0  0  0  0  0  0  0  0  0
  161.1640  208.9100  154.0020 C   0  0  2  0  0  3  0  0  0  0  0  0
  160.5510  209.2810  152.6520 C   0  0  1  0  0  3  0  0  0  0  0  0
  160.6470  207.9880  156.6370 C   0  0  0  0  0  2  0  0  0  0  0  0
  161.9190  208.8120  149.0830 C   0  0  0  0  0  2  0  0  0  0  0  0
  161.0940  209.2970  156.3780 O   0  0  0  0  0  0  0  0  0  0  0  0
  161.9850  209.3070  150.5210 C   0  0  0  0  0  2  0  0  0  0  0  0
  161.7640  206.0440  150.8330 C   0  0  1  0  0  3  0  0  0  0  0  0
  161.2840  207.0130  155.6460 C   0  0  0  0  0  2  0  0  0  0  0  0
  161.6050  206.5490  153.2020 C   0  0  1  0  0  3  0  0  0  0  0  0
  160.3670  210.7880  152.4090 C   0  0  0  0  0  2  0  0  0  0  0  0
  158.9100  211.2160  152.5230 C   0  0  0  0  0  2  0  0  0  0  0  0
  157.7990  213.1440  153.4020 O   0  0  0  0  0  1  0  0  0  0  0  0
  158.8060  212.7310  152.5260 C   0  0  2  0  0  3  0  0  0  0  0  0
  158.5320  213.2400  151.1120 C   0  0  1  0  0  3  0  0  0  0  0  0
  157.3650  214.0060  151.0860 O   0  0  0  0  0  1  0  0  0  0  0  0
  159.6960  214.0720  150.5930 C   0  0  0  0  0  2  0  0  0  0  0  0
  160.1780  213.5600  149.2440 C   0  0  0  0  0  2  0  0  0  0  0  0
  161.1400  212.5650  149.4210 O   0  0  0  0  0  0  0  0  0  0  0  0
  161.8300  212.5260  148.2100 C   0  0  0  0  0  1  0  0  0  0  0  0
  161.4690  205.2970  148.6060 C   0  0  0  0  0  2  0  0  0  0  0  0
  161.8830  205.6980  147.2710 N   0  0  0  0  0  2  0  0  0  0  0  0
  162.0330  204.4810  146.4850 C   0  0  1  0  0  3  0  0  0  0  0  0
  160.9420  202.3300  146.4980 O   0  0  0  0  0  1  0  0  0  0  0  0
  161.6320  203.2500  147.2900 C   0  0  0  0  0  2  0  0  0  0  0  0
  161.1430  204.5860  144.8850 S   0  0  0  0  0  0  0  0  0  0  0  0
  160.3640  206.2020  145.1950 C   0  0  0  0  0  1  0  0  0  0  0  0
  1 16  1  1  0  0  0
  2 17  1  0  0  0  0
  3 13  1  0  0  0  0
  4 17  1  0  0  0  0
  5 12  1  0  0  0  0
  5  8  1  0  0  0  0
  6  4  1  0  0  0  0
  6 10  1  0  0  0  0
  7  2  1  0  0  0  0
  8 15  1  0  0  0  0
  9  1  1  0  0  0  0
  9  3  1  0  0  0  0
 10  9  1  0  0  0  0
 12 14  1  0  0  0  0
 13 11  1  0  0  0  0
 14  6  1  0  0  0  0
 15  7  1  0  0  0  0
 15  4  1  0  0  0  0
 16 11  1  0  0  0  0
 17  1  1  0  0  0  0
 18 19  1  0  0  0  0
 18 10  1  0  0  0  0
 19 21  1  0  0  0  0
 21 20  1  0  0  0  0
 22 21  1  0  0  0  0
 23 22  1  0  0  0  0
 24 22  1  0  0  0  0
 25 26  1  0  0  0  0
 25 24  1  0  0  0  0
 27 26  1  0  0  0  0
 28  8  1  0  0  0  0
 29 28  1  0  0  0  0
 30 29  1  0  0  0  0
 30 32  1  0  0  0  0
 31 32  1  0  0  0  0
 33 34  1  0  0  0  0
 33 30  1  0  0  0  0
M  END
>  <MODEL>
1

>  <REMARK>
 VINA RESULT:      -7.2      0.000      0.000
  Name = 
  12 active torsions:
  status: ('A' for Active; 'I' for Inactive)
    1  A    between atoms: C_3  and  C_16
    2  A    between atoms: C_3  and  C_19
    3  A    between atoms: C_5  and  C_11
    4  A    between atoms: C_5  and  C_19
    5  A    between atoms: C_8  and  O_12
    6  A    between atoms: C_8  and  C_16
    7  A    between atoms: C_11  and  C_20
    8  A    between atoms: N_17  and  C_28
    9  A    between atoms: C_28  and  N_29
   10  A    between atoms: N_29  and  C_32
   11  A    between atoms: S_31  and  C_32
   12  A    between atoms: C_32  and  C_34
                            x       y       z     vdW  Elec       q    Type
                         _______ _______ _______ _____ _____    ______ ____

>  <TORSDO>
F 12

$$$$
=
 OpenBabel11122414403D

 34 37  0  0  1  0  0  0  0  0999 V2000
  160.8330  207.4300  154.2570 C   0  0  2  0  0  3  0  0  0  0  0  0
  160.8140  205.3360  152.8870 C   0  0  0  0  0  2  0  0  0  0  0  0
  160.3950  209.6510  155.2560 C   0  0  0  0  0  2  0  0  0  0  0  0
  161.9160  207.2990  151.8900 C   0  0  2  0  0  3  0  0  0  0  0  0
  162.4860  207.5990  149.0380 C   0  0  0  0  0  2  0  0  0  0  0  0
  161.1020  208.5720  151.5320 C   0  0  1  0  0  3  0  0  0  0  0  0
  160.7380  205.2490  151.3760 C   0  0  0  0  0  2  0  0  0  0  0  0
  161.4740  206.6490  149.4840 N   0  0  0  0  0  0  0  0  0  0  0  0
  161.0830  208.9260  154.0910 C   0  0  2  0  0  3  0  0  0  0  0  0
  160.4950  209.3340  152.7400 C   0  0  1  0  0  3  0  0  0  0  0  0
  160.5210  207.9020  156.6790 C   0  0  0  0  0  2  0  0  0  0  0  0
  161.9540  209.0150  149.1910 C   0  0  0  0  0  2  0  0  0  0  0  0
  160.9500  209.2270  156.4770 O   0  0  0  0  0  0  0  0  0  0  0  0
  161.9780  209.4600  150.6460 C   0  0  0  0  0  2  0  0  0  0  0  0
  161.8090  206.1840  150.8380 C   0  0  1  0  0  3  0  0  0  0  0  0
  161.1980  206.9740  155.6700 C   0  0  0  0  0  2  0  0  0  0  0  0
  161.5850  206.6030  153.2190 C   0  0  1  0  0  3  0  0  0  0  0  0
  160.2900  210.8450  152.5450 C   0  0  0  0  0  2  0  0  0  0  0  0
  158.8300  211.2530  152.7020 C   0  0  0  0  0  2  0  0  0  0  0  0
  159.8250  213.1880  151.7070 O   0  0  0  0  0  1  0  0  0  0  0  0
  158.6100  212.6430  152.1330 C   0  0  2  0  0  3  0  0  0  0  0  0
  157.9560  213.5410  153.1810 C   0  0  1  0  0  3  0  0  0  0  0  0
  156.6900  213.9480  152.7550 O   0  0  0  0  0  1  0  0  0  0  0  0
  157.8360  212.8250  154.5190 C   0  0  0  0  0  2  0  0  0  0  0  0
  156.3790  212.6410  154.9140 C   0  0  0  0  0  2  0  0  0  0  0  0
  156.2530  211.5840  155.8160 O   0  0  0  0  0  0  0  0  0  0  0  0
  155.5640  210.6010  155.1080 C   0  0  0  0  0  1  0  0  0  0  0  0
  161.5800  205.5120  148.5810 C   0  0  0  0  0  2  0  0  0  0  0  0
  161.9900  205.9700  147.2630 N   0  0  0  0  0  2  0  0  0  0  0  0
  162.1850  204.7860  146.4390 C   0  0  1  0  0  3  0  0  0  0  0  0
  161.1670  202.6200  146.1450 O   0  0  0  0  0  1  0  0  0  0  0  0
  161.5880  203.5480  147.0990 C   0  0  0  0  0  2  0  0  0  0  0  0
  161.5660  205.0320  144.7300 S   0  0  0  0  0  0  0  0  0  0  0  0
  160.2490  206.2120  145.1630 C   0  0  0  0  0  1  0  0  0  0  0  0
  1 16  1  1  0  0  0
  2 17  1  0  0  0  0
  3 13  1  0  0  0  0
  4 17  1  0  0  0  0
  5 12  1  0  0  0  0
  5  8  1  0  0  0  0
  6  4  1  0  0  0  0
  6 10  1  0  0  0  0
  7  2  1  0  0  0  0
  8 15  1  0  0  0  0
  9  1  1  0  0  0  0
  9  3  1  0  0  0  0
 10  9  1  0  0  0  0
 12 14  1  0  0  0  0
 13 11  1  0  0  0  0
 14  6  1  0  0  0  0
 15  7  1  0  0  0  0
 15  4  1  0  0  0  0
 16 11  1  0  0  0  0
 17  1  1  0  0  0  0
 18 19  1  0  0  0  0
 18 10  1  0  0  0  0
 20 21  1  0  0  0  0
 21 19  1  0  0  0  0
 21 22  1  0  0  0  0
 22 24  1  0  0  0  0
 23 22  1  0  0  0  0
 24 25  1  0  0  0  0
 25 26  1  0  0  0  0
 27 26  1  0  0  0  0
 28  8  1  0  0  0  0
 29 28  1  0  0  0  0
 30 32  1  0  0  0  0
 30 29  1  0  0  0  0
 31 32  1  0  0  0  0
 33 34  1  0  0  0  0
 33 30  1  0  0  0  0
M  END
>  <MODEL>
2

>  <REMARK>
 VINA RESULT:      -7.1      1.309      2.661
  Name = 
  12 active torsions:
  status: ('A' for Active; 'I' for Inactive)
    1  A    between atoms: C_3  and  C_16
    2  A    between atoms: C_3  and  C_19
    3  A    between atoms: C_5  and  C_11
    4  A    between atoms: C_5  and  C_19
    5  A    between atoms: C_8  and  O_12
    6  A    between atoms: C_8  and  C_16
    7  A    between atoms: C_11  and  C_20
    8  A    between atoms: N_17  and  C_28
    9  A    between atoms: C_28  and  N_29
   10  A    between atoms: N_29  and  C_32
   11  A    between atoms: S_31  and  C_32
   12  A    between atoms: C_32  and  C_34
                            x       y       z     vdW  Elec       q    Type
                         _______ _______ _______ _____ _____    ______ ____

>  <TORSDO>
F 12

$$$$
=
 OpenBabel11122414403D

 34 37  0  0  1  0  0  0  0  0999 V2000
  161.1290  204.2190  150.4880 C   0  0  2  0  0  3  0  0  0  0  0  0
  161.4590  205.5620  152.5740 C   0  0  0  0  0  2  0  0  0  0  0  0
  161.3690  203.0510  148.3200 C   0  0  0  0  0  2  0  0  0  0  0  0
  160.9730  206.8200  150.5140 C   0  0  2  0  0  3  0  0  0  0  0  0
  161.5070  209.6730  150.1590 C   0  0  0  0  0  2  0  0  0  0  0  0
  161.9710  206.8150  149.3240 C   0  0  1  0  0  3  0  0  0  0  0  0
  162.0710  206.9460  152.6670 C   0  0  0  0  0  2  0  0  0  0  0  0
  162.2000  208.9250  151.2010 N   0  0  0  0  0  0  0  0  0  0  0  0
  161.0900  204.4110  148.9750 C   0  0  2  0  0  3  0  0  0  0  0  0
  162.1620  205.4420  148.6250 C   0  0  1  0  0  3  0  0  0  0  0  0
  160.5800  201.8330  150.0500 C   0  0  0  0  0  2  0  0  0  0  0  0
  162.0700  209.2880  148.8000 C   0  0  0  0  0  2  0  0  0  0  0  0
  160.3730  202.1290  148.6900 O   0  0  0  0  0  0  0  0  0  0  0  0
  161.5590  207.9250  148.3560 C   0  0  0  0  0  2  0  0  0  0  0  0
  161.3560  207.8010  151.6330 C   0  0  1  0  0  3  0  0  0  0  0  0
  160.2370  203.0510  150.9090 C   0  0  0  0  0  2  0  0  0  0  0  0
  160.7350  205.4870  151.2400 C   0  0  1  0  0  3  0  0  0  0  0  0
  162.5570  205.4960  147.1400 C   0  0  0  0  0  2  0  0  0  0  0  0
  161.3590  205.7590  146.2350 C   0  0  0  0  0  2  0  0  0  0  0  0
  161.2830  205.6400  143.8470 O   0  0  0  0  0  1  0  0  0  0  0  0
  161.4250  204.8710  145.0060 C   0  0  2  0  0  3  0  0  0  0  0  0
  160.3400  203.7980  145.0760 C   0  0  1  0  0  3  0  0  0  0  0  0
  159.5860  203.7880  143.9010 O   0  0  0  0  0  1  0  0  0  0  0  0
  160.9450  202.4200  145.3020 C   0  0  0  0  0  2  0  0  0  0  0  0
  159.8990  201.3270  145.1350 C   0  0  0  0  0  2  0  0  0  0  0  0
  160.5170  200.0810  145.0290 O   0  0  0  0  0  0  0  0  0  0  0  0
  161.1590  199.9030  146.2540 C   0  0  0  0  0  1  0  0  0  0  0  0
  162.3290  209.8450  152.3220 C   0  0  0  0  0  2  0  0  0  0  0  0
  161.0590  210.5120  152.5560 N   0  0  0  0  0  2  0  0  0  0  0  0
  161.1040  211.0610  153.9040 C   0  0  1  0  0  3  0  0  0  0  0  0
  160.0270  212.6010  155.4160 O   0  0  0  0  0  1  0  0  0  0  0  0
  159.9380  212.0110  154.1530 C   0  0  0  0  0  2  0  0  0  0  0  0
  161.2140  209.7450  155.1760 S   0  0  0  0  0  0  0  0  0  0  0  0
  162.6660  210.4230  156.0400 C   0  0  0  0  0  1  0  0  0  0  0  0
  1 16  1  6  0  0  0
  1 17  1  0  0  0  0
  2  7  1  0  0  0  0
  3 13  1  0  0  0  0
  3  9  1  0  0  0  0
  4 17  1  0  0  0  0
  4 15  1  0  0  0  0
  5  8  1  0  0  0  0
  6  4  1  0  0  0  0
  8 15  1  0  0  0  0
  8 28  1  0  0  0  0
  9  1  1  0  0  0  0
 10  9  1  0  0  0  0
 10  6  1  0  0  0  0
 11 16  1  0  0  0  0
 12  5  1  0  0  0  0
 13 11  1  0  0  0  0
 14 12  1  0  0  0  0
 14  6  1  0  0  0  0
 15  7  1  0  0  0  0
 17  2  1  0  0  0  0
 18 10  1  0  0  0  0
 19 18  1  0  0  0  0
 20 21  1  0  0  0  0
 21 22  1  0  0  0  0
 21 19  1  0  0  0  0
 22 24  1  0  0  0  0
 23 22  1  0  0  0  0
 25 24  1  0  0  0  0
 26 25  1  0  0  0  0
 26 27  1  0  0  0  0
 28 29  1  0  0  0  0
 29 30  1  0  0  0  0
 30 32  1  0  0  0  0
 30 33  1  0  0  0  0
 32 31  1  0  0  0  0
 33 34  1  0  0  0  0
M  END
>  <MODEL>
3

>  <REMARK>
 VINA RESULT:      -6.5      3.333      8.799
  Name = 
  12 active torsions:
  status: ('A' for Active; 'I' for Inactive)
    1  A    between atoms: C_3  and  C_16
    2  A    between atoms: C_3  and  C_19
    3  A    between atoms: C_5  and  C_11
    4  A    between atoms: C_5  and  C_19
    5  A    between atoms: C_8  and  O_12
    6  A    between atoms: C_8  and  C_16
    7  A    between atoms: C_11  and  C_20
    8  A    between atoms: N_17  and  C_28
    9  A    between atoms: C_28  and  N_29
   10  A    between atoms: N_29  and  C_32
   11  A    between atoms: S_31  and  C_32
   12  A    between atoms: C_32  and  C_34
                            x       y       z     vdW  Elec       q    Type
                         _______ _______ _______ _____ _____    ______ ____

>  <TORSDO>
F 12

$$$$
=
 OpenBabel11122414403D

 34 37  0  0  1  0  0  0  0  0999 V2000
  162.0190  208.0880  149.2630 C   0  0  2  0  0  3  0  0  0  0  0  0
  162.3840  206.5460  147.3250 C   0  0  0  0  0  2  0  0  0  0  0  0
  162.0830  209.2750  151.4330 C   0  0  0  0  0  2  0  0  0  0  0  0
  160.9640  205.7070  149.1530 C   0  0  2  0  0  3  0  0  0  0  0  0
  160.3390  202.8850  149.5950 C   0  0  0  0  0  2  0  0  0  0  0  0
  161.5510  205.4660  150.5700 C   0  0  1  0  0  3  0  0  0  0  0  0
  162.4670  205.0340  147.3810 C   0  0  0  0  0  2  0  0  0  0  0  0
  161.4990  203.2590  148.7940 N   0  0  0  0  0  0  0  0  0  0  0  0
  161.5210  208.0460  150.7050 C   0  0  2  0  0  3  0  0  0  0  0  0
  162.0270  206.7400  151.3180 C   0  0  1  0  0  3  0  0  0  0  0  0
  162.2580  210.5440  149.5730 C   0  0  0  0  0  2  0  0  0  0  0  0
  160.6260  203.1620  151.0620 C   0  0  0  0  0  2  0  0  0  0  0  0
  161.6120  210.4500  150.8200 O   0  0  0  0  0  0  0  0  0  0  0  0
  160.5350  204.6490  151.3710 C   0  0  0  0  0  2  0  0  0  0  0  0
  161.2520  204.5660  148.1660 C   0  0  1  0  0  3  0  0  0  0  0  0
  161.7420  209.4530  148.6340 C   0  0  0  0  0  2  0  0  0  0  0  0
  161.4120  206.9760  148.4120 C   0  0  1  0  0  3  0  0  0  0  0  0
  161.9740  206.6760  152.8530 C   0  0  0  0  0  2  0  0  0  0  0  0
  160.8490  207.5270  153.4270 C   0  0  0  0  0  2  0  0  0  0  0  0
  160.0030  206.9180  155.5800 O   0  0  0  0  0  1  0  0  0  0  0  0
  161.0010  207.6520  154.9330 C   0  0  2  0  0  3  0  0  0  0  0  0
  160.9400  209.1210  155.3450 C   0  0  1  0  0  3  0  0  0  0  0  0
  162.2280  209.6450  155.4770 O   0  0  0  0  0  1  0  0  0  0  0  0
  160.1600  209.9450  154.3300 C   0  0  0  0  0  2  0  0  0  0  0  0
  160.6410  211.3870  154.3070 C   0  0  0  0  0  2  0  0  0  0  0  0
  159.9800  212.1000  153.3050 O   0  0  0  0  0  0  0  0  0  0  0  0
  158.9420  211.2600  152.9050 C   0  0  0  0  0  1  0  0  0  0  0  0
  161.5810  202.2620  147.7350 C   0  0  0  0  0  2  0  0  0  0  0  0
  160.2880  202.1320  147.0840 N   0  0  0  0  0  2  0  0  0  0  0  0
  160.5410  201.8880  145.6720 C   0  0  1  0  0  3  0  0  0  0  0  0
  161.2610  199.6010  145.9310 O   0  0  0  0  0  1  0  0  0  0  0  0
  160.3160  200.4230  145.3140 C   0  0  0  0  0  2  0  0  0  0  0  0
  159.5790  203.0220  144.5990 S   0  0  0  0  0  0  0  0  0  0  0  0
  160.8120  204.3600  144.5640 C   0  0  0  0  0  1  0  0  0  0  0  0
  1 16  1  6  0  0  0
  1  9  1  0  0  0  0
  2  7  1  0  0  0  0
  2 17  1  0  0  0  0
  4  6  1  0  0  0  0
  5 12  1  0  0  0  0
  6 10  1  0  0  0  0
  6 14  1  0  0  0  0
  7 15  1  0  0  0  0
  8  5  1  0  0  0  0
  9 10  1  0  0  0  0
  9  3  1  0  0  0  0
 10 18  1  0  0  0  0
 11 13  1  0  0  0  0
 12 14  1  0  0  0  0
 13  3  1  0  0  0  0
 15  8  1  0  0  0  0
 15  4  1  0  0  0  0
 16 11  1  0  0  0  0
 17  4  1  0  0  0  0
 17  1  1  0  0  0  0
 18 19  1  0  0  0  0
 19 21  1  0  0  0  0
 21 22  1  0  0  0  0
 21 20  1  0  0  0  0
 22 23  1  0  0  0  0
 24 22  1  0  0  0  0
 25 24  1  0  0  0  0
 26 25  1  0  0  0  0
 27 26  1  0  0  0  0
 28  8  1  0  0  0  0
 29 28  1  0  0  0  0
 30 29  1  0  0  0  0
 32 30  1  0  0  0  0
 32 31  1  0  0  0  0
 33 30  1  0  0  0  0
 34 33  1  0  0  0  0
M  END
>  <MODEL>
4

>  <REMARK>
 VINA RESULT:      -6.5      1.977      4.907
  Name = 
  12 active torsions:
  status: ('A' for Active; 'I' for Inactive)
    1  A    between atoms: C_3  and  C_16
    2  A    between atoms: C_3  and  C_19
    3  A    between atoms: C_5  and  C_11
    4  A    between atoms: C_5  and  C_19
    5  A    between atoms: C_8  and  O_12
    6  A    between atoms: C_8  and  C_16
    7  A    between atoms: C_11  and  C_20
    8  A    between atoms: N_17  and  C_28
    9  A    between atoms: C_28  and  N_29
   10  A    between atoms: N_29  and  C_32
   11  A    between atoms: S_31  and  C_32
   12  A    between atoms: C_32  and  C_34
                            x       y       z     vdW  Elec       q    Type
                         _______ _______ _______ _____ _____    ______ ____

>  <TORSDO>
F 12

$$$$
=
 OpenBabel11122414403D

 34 37  0  0  1  0  0  0  0  0999 V2000
  160.8270  207.5180  153.9530 C   0  0  2  0  0  3  0  0  0  0  0  0
  160.7310  205.4990  152.4770 C   0  0  0  0  0  2  0  0  0  0  0  0
  160.4710  209.6980  155.0670 C   0  0  0  0  0  2  0  0  0  0  0  0
  161.8990  207.4700  151.5780 C   0  0  2  0  0  3  0  0  0  0  0  0
  162.4720  207.8970  148.7430 C   0  0  0  0  0  2  0  0  0  0  0  0
  161.1290  208.7880  151.2890 C   0  0  1  0  0  3  0  0  0  0  0  0
  160.6470  205.4920  150.9640 C   0  0  0  0  0  2  0  0  0  0  0  0
  161.4270  206.9620  149.1430 N   0  0  0  0  0  0  0  0  0  0  0  0
  161.1300  209.0110  153.8630 C   0  0  2  0  0  3  0  0  0  0  0  0
  160.5530  209.5080  152.5370 C   0  0  1  0  0  3  0  0  0  0  0  0
  160.5390  207.8750  156.3970 C   0  0  0  0  0  2  0  0  0  0  0  0
  161.9910  209.3210  148.9700 C   0  0  0  0  0  2  0  0  0  0  0  0
  161.0130  209.1930  156.2620 O   0  0  0  0  0  0  0  0  0  0  0  0
  162.0340  209.6890  150.4460 C   0  0  0  0  0  2  0  0  0  0  0  0
  161.7490  206.4160  150.4710 C   0  0  1  0  0  3  0  0  0  0  0  0
  161.1800  206.9770  155.3390 C   0  0  0  0  0  2  0  0  0  0  0  0
  161.5470  206.7190  152.8710 C   0  0  1  0  0  3  0  0  0  0  0  0
  160.4010  211.0330  152.4220 C   0  0  0  0  0  2  0  0  0  0  0  0
  158.9430  211.4720  152.4770 C   0  0  0  0  0  2  0  0  0  0  0  0
  157.7740  212.5020  154.2920 O   0  0  0  0  0  1  0  0  0  0  0  0
  158.7980  212.6980  153.3610 C   0  0  2  0  0  3  0  0  0  0  0  0
  158.5170  213.9310  152.5050 C   0  0  1  0  0  3  0  0  0  0  0  0
  159.4270  214.0110  151.4490 O   0  0  0  0  0  1  0  0  0  0  0  0
  157.0990  213.9050  151.9520 C   0  0  0  0  0  2  0  0  0  0  0  0
  157.0550  214.4380  150.5280 C   0  0  0  0  0  2  0  0  0  0  0  0
  156.3230  213.5750  149.7120 O   0  0  0  0  0  0  0  0  0  0  0  0
  157.1880  213.2680  148.6620 C   0  0  0  0  0  1  0  0  0  0  0  0
  161.4910  205.8690  148.1820 C   0  0  0  0  0  2  0  0  0  0  0  0
  160.7880  206.2450  146.9670 N   0  0  0  0  0  2  0  0  0  0  0  0
  160.8080  205.0890  146.0830 C   0  0  1  0  0  3  0  0  0  0  0  0
  162.8350  205.8130  144.9940 O   0  0  0  0  0  1  0  0  0  0  0  0
  161.5180  205.4070  144.7710 C   0  0  0  0  0  2  0  0  0  0  0  0
  161.5060  203.6080  146.9100 S   0  0  0  0  0  0  0  0  0  0  0  0
  160.9440  202.4020  145.6690 C   0  0  0  0  0  1  0  0  0  0  0  0
  1 16  1  1  0  0  0
  2 17  1  0  0  0  0
  3 13  1  0  0  0  0
  4 17  1  0  0  0  0
  5 12  1  0  0  0  0
  5  8  1  0  0  0  0
  6  4  1  0  0  0  0
  6 10  1  0  0  0  0
  7  2  1  0  0  0  0
  8 15  1  0  0  0  0
  9  1  1  0  0  0  0
  9  3  1  0  0  0  0
 10  9  1  0  0  0  0
 12 14  1  0  0  0  0
 13 11  1  0  0  0  0
 14  6  1  0  0  0  0
 15  7  1  0  0  0  0
 15  4  1  0  0  0  0
 16 11  1  0  0  0  0
 17  1  1  0  0  0  0
 18 19  1  0  0  0  0
 18 10  1  0  0  0  0
 19 21  1  0  0  0  0
 21 20  1  0  0  0  0
 22 21  1  0  0  0  0
 23 22  1  0  0  0  0
 24 22  1  0  0  0  0
 25 24  1  0  0  0  0
 26 25  1  0  0  0  0
 27 26  1  0  0  0  0
 28  8  1  0  0  0  0
 29 28  1  0  0  0  0
 30 33  1  0  0  0  0
 30 29  1  0  0  0  0
 32 31  1  0  0  0  0
 32 30  1  0  0  0  0
 34 33  1  0  0  0  0
M  END
>  <MODEL>
5

>  <REMARK>
 VINA RESULT:      -6.5      1.516      1.973
  Name = 
  12 active torsions:
  status: ('A' for Active; 'I' for Inactive)
    1  A    between atoms: C_3  and  C_16
    2  A    between atoms: C_3  and  C_19
    3  A    between atoms: C_5  and  C_11
    4  A    between atoms: C_5  and  C_19
    5  A    between atoms: C_8  and  O_12
    6  A    between atoms: C_8  and  C_16
    7  A    between atoms: C_11  and  C_20
    8  A    between atoms: N_17  and  C_28
    9  A    between atoms: C_28  and  N_29
   10  A    between atoms: N_29  and  C_32
   11  A    between atoms: S_31  and  C_32
   12  A    between atoms: C_32  and  C_34
                            x       y       z     vdW  Elec       q    Type
                         _______ _______ _______ _____ _____    ______ ____

>  <TORSDO>
F 12

$$$$
=
 OpenBabel11122414403D

 34 37  0  0  1  0  0  0  0  0999 V2000
  161.5290  209.0940  150.6690 C   0  0  2  0  0  3  0  0  0  0  0  0
  160.5400  211.0130  151.9350 C   0  0  0  0  0  2  0  0  0  0  0  0
  161.9850  206.9340  149.5500 C   0  0  0  0  0  2  0  0  0  0  0  0
  161.5190  209.1930  153.2730 C   0  0  2  0  0  3  0  0  0  0  0  0
  160.9430  208.7320  156.1020 C   0  0  0  0  0  2  0  0  0  0  0  0
  160.9040  207.7670  153.2480 C   0  0  1  0  0  3  0  0  0  0  0  0
  159.8470  210.9420  153.2820 C   0  0  0  0  0  2  0  0  0  0  0  0
  160.0260  209.5230  155.2910 N   0  0  0  0  0  0  0  0  0  0  0  0
  161.9860  207.6570  150.9040 C   0  0  2  0  0  3  0  0  0  0  0  0
  161.0000  207.0260  151.8870 C   0  0  1  0  0  3  0  0  0  0  0  0
  162.3170  208.8040  148.3280 C   0  0  0  0  0  2  0  0  0  0  0  0
  160.8150  207.2640  155.7260 C   0  0  0  0  0  2  0  0  0  0  0  0
  162.8860  207.5630  148.6720 O   0  0  0  0  0  0  0  0  0  0  0  0
  161.5090  206.9700  154.4050 C   0  0  0  0  0  2  0  0  0  0  0  0
  160.7760  210.1660  154.2010 C   0  0  1  0  0  3  0  0  0  0  0  0
  162.3300  209.7390  149.5380 C   0  0  0  0  0  2  0  0  0  0  0  0
  161.6170  209.9400  151.9340 C   0  0  1  0  0  3  0  0  0  0  0  0
  161.0430  205.4910  151.9610 C   0  0  0  0  0  2  0  0  0  0  0  0
  160.4570  204.8380  150.7160 C   0  0  0  0  0  2  0  0  0  0  0  0
  161.4440  202.9630  151.8250 O   0  0  0  0  0  1  0  0  0  0  0  0
  160.5310  203.3260  150.8320 C   0  0  2  0  0  3  0  0  0  0  0  0
  160.9270  202.7160  149.4890 C   0  0  1  0  0  3  0  0  0  0  0  0
  159.9210  201.8680  149.0210 O   0  0  0  0  0  1  0  0  0  0  0  0
  161.2010  203.7980  148.4540 C   0  0  0  0  0  2  0  0  0  0  0  0
  161.5750  203.1910  147.1100 C   0  0  0  0  0  2  0  0  0  0  0  0
  161.5210  204.1620  146.1100 O   0  0  0  0  0  0  0  0  0  0  0  0
  162.7020  204.8870  146.2630 C   0  0  0  0  0  1  0  0  0  0  0  0
  159.5300  210.5710  156.1720 C   0  0  0  0  0  2  0  0  0  0  0  0
  158.0880  210.6880  156.0290 N   0  0  0  0  0  2  0  0  0  0  0  0
  157.7500  212.0920  156.2170 C   0  0  1  0  0  3  0  0  0  0  0  0
  158.8800  214.0330  155.3400 O   0  0  0  0  0  1  0  0  0  0  0  0
  159.0010  212.9640  156.2290 C   0  0  0  0  0  2  0  0  0  0  0  0
  156.5120  212.6670  154.9930 S   0  0  0  0  0  0  0  0  0  0  0  0
  155.7360  211.0450  154.7150 C   0  0  0  0  0  1  0  0  0  0  0  0
  1 16  1  6  0  0  0
  1  9  1  0  0  0  0
  1 17  1  0  0  0  0
  2  7  1  0  0  0  0
  3  9  1  0  0  0  0
  4 15  1  0  0  0  0
  6  4  1  0  0  0  0
  6 14  1  0  0  0  0
  7 15  1  0  0  0  0
  8  5  1  0  0  0  0
  8 28  1  0  0  0  0
  9 10  1  0  0  0  0
 10 18  1  0  0  0  0
 10  6  1  0  0  0  0
 11 13  1  0  0  0  0
 11 16  1  0  0  0  0
 12  5  1  0  0  0  0
 13  3  1  0  0  0  0
 14 12  1  0  0  0  0
 15  8  1  0  0  0  0
 17  2  1  0  0  0  0
 17  4  1  0  0  0  0
 19 21  1  0  0  0  0
 19 18  1  0  0  0  0
 21 20  1  0  0  0  0
 22 21  1  0  0  0  0
 23 22  1  0  0  0  0
 24 22  1  0  0  0  0
 25 24  1  0  0  0  0
 26 27  1  0  0  0  0
 26 25  1  0  0  0  0
 29 28  1  0  0  0  0
 29 30  1  0  0  0  0
 30 32  1  0  0  0  0
 31 32  1  0  0  0  0
 33 30  1  0  0  0  0
 34 33  1  0  0  0  0
M  END
>  <MODEL>
6

>  <REMARK>
 VINA RESULT:      -6.2      3.761      8.726
  Name = 
  12 active torsions:
  status: ('A' for Active; 'I' for Inactive)
    1  A    between atoms: C_3  and  C_16
    2  A    between atoms: C_3  and  C_19
    3  A    between atoms: C_5  and  C_11
    4  A    between atoms: C_5  and  C_19
    5  A    between atoms: C_8  and  O_12
    6  A    between atoms: C_8  and  C_16
    7  A    between atoms: C_11  and  C_20
    8  A    between atoms: N_17  and  C_28
    9  A    between atoms: C_28  and  N_29
   10  A    between atoms: N_29  and  C_32
   11  A    between atoms: S_31  and  C_32
   12  A    between atoms: C_32  and  C_34
                            x       y       z     vdW  Elec       q    Type
                         _______ _______ _______ _____ _____    ______ ____

>  <TORSDO>
F 12

$$$$
=
 OpenBabel11122414403D

 34 37  0  0  1  0  0  0  0  0999 V2000
  161.0770  204.6730  149.8890 C   0  0  2  0  0  3  0  0  0  0  0  0
  160.8570  206.1660  147.8920 C   0  0  0  0  0  2  0  0  0  0  0  0
  160.8500  203.5370  152.0750 C   0  0  0  0  0  2  0  0  0  0  0  0
  162.1250  207.0580  149.8040 C   0  0  2  0  0  3  0  0  0  0  0  0
  162.6970  209.8940  150.2250 C   0  0  0  0  0  2  0  0  0  0  0  0
  161.4260  207.3290  151.1650 C   0  0  1  0  0  3  0  0  0  0  0  0
  160.7620  207.6780  147.9040 C   0  0  0  0  0  2  0  0  0  0  0  0
  161.6060  209.4930  149.3450 N   0  0  0  0  0  0  0  0  0  0  0  0
  161.4600  204.7530  151.3640 C   0  0  2  0  0  3  0  0  0  0  0  0
  160.9000  206.0690  151.9040 C   0  0  1  0  0  3  0  0  0  0  0  0
  160.8280  202.2240  150.2390 C   0  0  0  0  0  2  0  0  0  0  0  0
  162.2970  209.6500  151.6720 C   0  0  0  0  0  2  0  0  0  0  0  0
  161.3730  202.3520  151.5300 O   0  0  0  0  0  0  0  0  0  0  0  0
  162.3720  208.1710  152.0230 C   0  0  0  0  0  2  0  0  0  0  0  0
  161.9080  208.1730  148.7700 C   0  0  1  0  0  3  0  0  0  0  0  0
  161.4100  203.2960  149.3160 C   0  0  0  0  0  2  0  0  0  0  0  0
  161.7430  205.7690  149.0620 C   0  0  1  0  0  3  0  0  0  0  0  0
  160.8320  206.1700  153.4360 C   0  0  0  0  0  2  0  0  0  0  0  0
  160.4450  207.5670  153.9040 C   0  0  0  0  0  2  0  0  0  0  0  0
  159.9190  207.0190  156.1730 O   0  0  0  0  0  1  0  0  0  0  0  0
  160.8010  207.7480  155.3700 C   0  0  2  0  0  3  0  0  0  0  0  0
  160.7660  209.2290  155.7390 C   0  0  1  0  0  3  0  0  0  0  0  0
  162.0630  209.7310  155.8670 O   0  0  0  0  0  1  0  0  0  0  0  0
  160.0090  210.0380  154.6950 C   0  0  0  0  0  2  0  0  0  0  0  0
  160.6220  211.4180  154.5190 C   0  0  0  0  0  2  0  0  0  0  0  0
  160.0930  212.0410  153.3880 O   0  0  0  0  0  0  0  0  0  0  0  0
  159.1250  211.1520  152.9210 C   0  0  0  0  0  1  0  0  0  0  0  0
  161.6020  210.4640  148.2600 C   0  0  0  0  0  2  0  0  0  0  0  0
  162.1380  211.7290  148.7340 N   0  0  0  0  0  2  0  0  0  0  0  0
  161.6990  212.7580  147.8010 C   0  0  1  0  0  3  0  0  0  0  0  0
  160.8720  212.6990  145.5360 O   0  0  0  0  0  1  0  0  0  0  0  0
  160.6590  212.2140  146.8280 C   0  0  0  0  0  2  0  0  0  0  0  0
  161.1200  214.2660  148.6680 S   0  0  0  0  0  0  0  0  0  0  0  0
  160.4240  213.4090  150.1160 C   0  0  0  0  0  1  0  0  0  0  0  0
  1 16  1  6  0  0  0
  1  9  1  0  0  0  0
  2  7  1  0  0  0  0
  2 17  1  0  0  0  0
  4  6  1  0  0  0  0
  5 12  1  0  0  0  0
  6 10  1  0  0  0  0
  6 14  1  0  0  0  0
  7 15  1  0  0  0  0
  8  5  1  0  0  0  0
  9 10  1  0  0  0  0
  9  3  1  0  0  0  0
 10 18  1  0  0  0  0
 11 13  1  0  0  0  0
 12 14  1  0  0  0  0
 13  3  1  0  0  0  0
 15  8  1  0  0  0  0
 15  4  1  0  0  0  0
 16 11  1  0  0  0  0
 17  4  1  0  0  0  0
 17  1  1  0  0  0  0
 18 19  1  0  0  0  0
 19 21  1  0  0  0  0
 21 22  1  0  0  0  0
 21 20  1  0  0  0  0
 22 23  1  0  0  0  0
 24 22  1  0  0  0  0
 25 24  1  0  0  0  0
 26 25  1  0  0  0  0
 27 26  1  0  0  0  0
 28 29  1  0  0  0  0
 28  8  1  0  0  0  0
 30 33  1  0  0  0  0
 30 29  1  0  0  0  0
 31 32  1  0  0  0  0
 32 30  1  0  0  0  0
 33 34  1  0  0  0  0
M  END
>  <MODEL>
7

>  <REMARK>
 VINA RESULT:      -5.8      2.713      6.115
  Name = 
  12 active torsions:
  status: ('A' for Active; 'I' for Inactive)
    1  A    between atoms: C_3  and  C_16
    2  A    between atoms: C_3  and  C_19
    3  A    between atoms: C_5  and  C_11
    4  A    between atoms: C_5  and  C_19
    5  A    between atoms: C_8  and  O_12
    6  A    between atoms: C_8  and  C_16
    7  A    between atoms: C_11  and  C_20
    8  A    between atoms: N_17  and  C_28
    9  A    between atoms: C_28  and  N_29
   10  A    between atoms: N_29  and  C_32
   11  A    between atoms: S_31  and  C_32
   12  A    between atoms: C_32  and  C_34
                            x       y       z     vdW  Elec       q    Type
                         _______ _______ _______ _____ _____    ______ ____

>  <TORSDO>
F 12

$$$$
=
 OpenBabel11122414403D

 34 37  0  0  1  0  0  0  0  0999 V2000
  161.5890  207.5140  149.3630 C   0  0  2  0  0  3  0  0  0  0  0  0
  161.4100  209.6940  150.5790 C   0  0  0  0  0  2  0  0  0  0  0  0
  161.2030  205.2880  148.3540 C   0  0  0  0  0  2  0  0  0  0  0  0
  161.8750  207.7010  151.9470 C   0  0  2  0  0  3  0  0  0  0  0  0
  161.4690  207.5520  154.8380 C   0  0  0  0  0  2  0  0  0  0  0  0
  160.8300  206.5570  152.0670 C   0  0  1  0  0  3  0  0  0  0  0  0
  160.8720  209.9020  151.9810 C   0  0  0  0  0  2  0  0  0  0  0  0
  160.7830  208.5740  154.0560 N   0  0  0  0  0  0  0  0  0  0  0  0
  161.5760  206.0160  149.6520 C   0  0  2  0  0  3  0  0  0  0  0  0
  160.5430  205.7800  150.7540 C   0  0  1  0  0  3  0  0  0  0  0  0
  162.0000  206.9010  146.9880 C   0  0  0  0  0  2  0  0  0  0  0  0
  160.8340  206.1970  154.5710 C   0  0  0  0  0  2  0  0  0  0  0  0
  162.1660  205.5550  147.3640 O   0  0  0  0  0  0  0  0  0  0  0  0
  161.2580  205.6450  153.2180 C   0  0  0  0  0  2  0  0  0  0  0  0
  161.5870  208.8950  152.8680 C   0  0  1  0  0  3  0  0  0  0  0  0
  162.4370  207.8200  148.1290 C   0  0  0  0  0  2  0  0  0  0  0  0
  162.0750  208.3270  150.5580 C   0  0  1  0  0  3  0  0  0  0  0  0
  160.0920  204.3200  150.9250 C   0  0  0  0  0  2  0  0  0  0  0  0
  161.2070  203.3320  150.6070 C   0  0  0  0  0  2  0  0  0  0  0  0
  160.8770  201.0040  151.0490 O   0  0  0  0  0  1  0  0  0  0  0  0
  160.6210  202.0180  150.1210 C   0  0  2  0  0  3  0  0  0  0  0  0
  161.2040  201.6580  148.7560 C   0  0  1  0  0  3  0  0  0  0  0  0
  161.5680  200.3100  148.7200 O   0  0  0  0  0  1  0  0  0  0  0  0
  160.2080  201.9440  147.6420 C   0  0  0  0  0  2  0  0  0  0  0  0
  160.9200  202.2130  146.3250 C   0  0  0  0  0  2  0  0  0  0  0  0
  160.3020  201.5100  145.2900 O   0  0  0  0  0  0  0  0  0  0  0  0
  159.7080  202.4970  144.5030 C   0  0  0  0  0  1  0  0  0  0  0  0
  160.7450  209.7560  154.9060 C   0  0  0  0  0  2  0  0  0  0  0  0
  159.3850  209.9880  155.3620 N   0  0  0  0  0  2  0  0  0  0  0  0
  159.4420  211.0430  156.3640 C   0  0  1  0  0  3  0  0  0  0  0  0
  160.8340  212.7970  157.2600 O   0  0  0  0  0  1  0  0  0  0  0  0
  160.8190  211.6970  156.4000 C   0  0  0  0  0  2  0  0  0  0  0  0
  158.0950  212.2680  156.1460 S   0  0  0  0  0  0  0  0  0  0  0  0
  156.9280  211.1390  155.3240 C   0  0  0  0  0  1  0  0  0  0  0  0
  1 16  1  6  0  0  0
  1  9  1  0  0  0  0
  1 17  1  0  0  0  0
  2  7  1  0  0  0  0
  3  9  1  0  0  0  0
  4  6  1  0  0  0  0
  4 15  1  0  0  0  0
  6 14  1  0  0  0  0
  7 15  1  0  0  0  0
  8  5  1  0  0  0  0
  8 28  1  0  0  0  0
  9 10  1  0  0  0  0
 10 18  1  0  0  0  0
 10  6  1  0  0  0  0
 11 13  1  0  0  0  0
 11 16  1  0  0  0  0
 12  5  1  0  0  0  0
 13  3  1  0  0  0  0
 14 12  1  0  0  0  0
 15  8  1  0  0  0  0
 17  2  1  0  0  0  0
 17  4  1  0  0  0  0
 19 18  1  0  0  0  0
 21 19  1  0  0  0  0
 21 20  1  0  0  0  0
 22 21  1  0  0  0  0
 23 22  1  0  0  0  0
 24 22  1  0  0  0  0
 25 24  1  0  0  0  0
 26 25  1  0  0  0  0
 27 26  1  0  0  0  0
 28 29  1  0  0  0  0
 29 30  1  0  0  0  0
 30 32  1  0  0  0  0
 32 31  1  0  0  0  0
 33 30  1  0  0  0  0
 34 33  1  0  0  0  0
M  END
>  <MODEL>
8

>  <REMARK>
 VINA RESULT:      -5.7      3.996      9.242
  Name = 
  12 active torsions:
  status: ('A' for Active; 'I' for Inactive)
    1  A    between atoms: C_3  and  C_16
    2  A    between atoms: C_3  and  C_19
    3  A    between atoms: C_5  and  C_11
    4  A    between atoms: C_5  and  C_19
    5  A    between atoms: C_8  and  O_12
    6  A    between atoms: C_8  and  C_16
    7  A    between atoms: C_11  and  C_20
    8  A    between atoms: N_17  and  C_28
    9  A    between atoms: C_28  and  N_29
   10  A    between atoms: N_29  and  C_32
   11  A    between atoms: S_31  and  C_32
   12  A    between atoms: C_32  and  C_34
                            x       y       z     vdW  Elec       q    Type
                         _______ _______ _______ _____ _____    ______ ____

>  <TORSDO>
F 12

$$$$
=
 OpenBabel11122414403D

 34 37  0  0  1  0  0  0  0  0999 V2000
  161.1560  208.2230  153.7490 C   0  0  2  0  0  3  0  0  0  0  0  0
  161.8570  210.4450  152.8350 C   0  0  0  0  0  2  0  0  0  0  0  0
  161.0050  205.8580  154.4610 C   0  0  0  0  0  2  0  0  0  0  0  0
  161.0320  208.7910  151.2090 C   0  0  2  0  0  3  0  0  0  0  0  0
  161.5230  208.9210  148.3290 C   0  0  0  0  0  2  0  0  0  0  0  0
  161.8080  207.4700  150.9540 C   0  0  1  0  0  3  0  0  0  0  0  0
  162.4890  210.7030  151.4820 C   0  0  0  0  0  2  0  0  0  0  0  0
  162.3800  209.6590  149.2500 N   0  0  0  0  0  0  0  0  0  0  0  0
  160.8570  206.8070  153.2640 C   0  0  2  0  0  3  0  0  0  0  0  0
  161.8620  206.4890  152.1570 C   0  0  1  0  0  3  0  0  0  0  0  0
  160.5170  207.4220  156.0150 C   0  0  0  0  0  2  0  0  0  0  0  0
  161.8370  207.4360  148.4250 C   0  0  0  0  0  2  0  0  0  0  0  0
  160.0800  206.2040  155.4620 O   0  0  0  0  0  0  0  0  0  0  0  0
  161.2440  206.8260  149.6860 C   0  0  0  0  0  2  0  0  0  0  0  0
  161.6130  209.9980  150.4580 C   0  0  1  0  0  3  0  0  0  0  0  0
  160.3400  208.5510  154.9990 C   0  0  0  0  0  2  0  0  0  0  0  0
  160.9110  209.2670  152.6650 C   0  0  1  0  0  3  0  0  0  0  0  0
  161.9930  204.9990  151.8020 C   0  0  0  0  0  2  0  0  0  0  0  0
  160.7340  204.4520  151.1410 C   0  0  0  0  0  2  0  0  0  0  0  0
  161.9460  202.4670  151.7010 O   0  0  0  0  0  1  0  0  0  0  0  0
  160.8120  202.9390  151.0350 C   0  0  2  0  0  3  0  0  0  0  0  0
  160.8350  202.5170  149.5680 C   0  0  1  0  0  3  0  0  0  0  0  0
  159.7360  201.7070  149.2750 O   0  0  0  0  0  1  0  0  0  0  0  0
  160.8310  203.7300  148.6470 C   0  0  0  0  0  2  0  0  0  0  0  0
  161.8520  203.5750  147.5310 C   0  0  0  0  0  2  0  0  0  0  0  0
  161.4740  204.3340  146.4230 O   0  0  0  0  0  0  0  0  0  0  0  0
  162.6780  204.7520  145.8580 C   0  0  0  0  0  1  0  0  0  0  0  0
  162.7100  210.9010  148.5650 C   0  0  0  0  0  2  0  0  0  0  0  0
  161.5090  211.4690  147.9750 N   0  0  0  0  0  2  0  0  0  0  0  0
  161.6400  212.9170  148.0430 C   0  0  1  0  0  3  0  0  0  0  0  0
  162.6430  213.1940  145.8670 O   0  0  0  0  0  1  0  0  0  0  0  0
  161.5480  213.5470  146.6580 C   0  0  0  0  0  2  0  0  0  0  0  0
  160.4500  213.6570  149.2250 S   0  0  0  0  0  0  0  0  0  0  0  0
  159.0900  213.8690  148.0340 C   0  0  0  0  0  1  0  0  0  0  0  0
  1 16  1  1  0  0  0
  3 13  1  0  0  0  0
  4 17  1  0  0  0  0
  5 12  1  0  0  0  0
  5  8  1  0  0  0  0
  6  4  1  0  0  0  0
  6 10  1  0  0  0  0
  7  2  1  0  0  0  0
  8 15  1  0  0  0  0
  9  1  1  0  0  0  0
  9  3  1  0  0  0  0
 10  9  1  0  0  0  0
 12 14  1  0  0  0  0
 13 11  1  0  0  0  0
 14  6  1  0  0  0  0
 15  4  1  0  0  0  0
 15  7  1  0  0  0  0
 16 11  1  0  0  0  0
 17  2  1  0  0  0  0
 17  1  1  0  0  0  0
 18 10  1  0  0  0  0
 19 18  1  0  0  0  0
 21 19  1  0  0  0  0
 21 20  1  0  0  0  0
 22 21  1  0  0  0  0
 23 22  1  0  0  0  0
 24 22  1  0  0  0  0
 25 24  1  0  0  0  0
 26 25  1  0  0  0  0
 27 26  1  0  0  0  0
 28  8  1  0  0  0  0
 29 30  1  0  0  0  0
 29 28  1  0  0  0  0
 30 33  1  0  0  0  0
 31 32  1  0  0  0  0
 32 30  1  0  0  0  0
 34 33  1  0  0  0  0
M  END
>  <MODEL>
9

>  <REMARK>
 VINA RESULT:      -5.6      3.194      7.006
  Name = 
  12 active torsions:
  status: ('A' for Active; 'I' for Inactive)
    1  A    between atoms: C_3  and  C_16
    2  A    between atoms: C_3  and  C_19
    3  A    between atoms: C_5  and  C_11
    4  A    between atoms: C_5  and  C_19
    5  A    between atoms: C_8  and  O_12
    6  A    between atoms: C_8  and  C_16
    7  A    between atoms: C_11  and  C_20
    8  A    between atoms: N_17  and  C_28
    9  A    between atoms: C_28  and  N_29
   10  A    between atoms: N_29  and  C_32
   11  A    between atoms: S_31  and  C_32
   12  A    between atoms: C_32  and  C_34
                            x       y       z     vdW  Elec       q    Type
                         _______ _______ _______ _____ _____    ______ ____

>  <TORSDO>
F 12

$$$$
