=
 OpenBabel11122413183D

 31 35  0  0  1  0  0  0  0  0999 V2000
  160.8310  202.2760  150.9580 C   0  0  0  0  0  0  0  0  0  0  0  0
  161.2330  205.7050  149.4580 C   0  0  0  0  0  0  0  0  0  0  0  0
  161.2920  205.5450  148.0430 C   0  0  0  0  0  0  0  0  0  0  0  0
  161.2060  208.1540  154.1330 O   0  0  0  0  0  0  0  0  0  0  0  0
  161.3470  209.0050  153.2160 C   0  0  0  0  0  0  0  0  0  0  0  0
  161.2680  204.1820  146.0170 C   0  0  0  0  0  0  0  0  0  0  0  0
  161.0840  204.6390  150.3940 C   0  0  0  0  0  0  0  0  0  0  0  0
  160.7900  202.5920  152.3160 C   0  0  0  0  0  3  0  0  0  0  0  0
  161.2060  204.2930  147.4060 C   0  0  0  0  0  3  0  0  0  0  0  0
  161.2820  207.2630  151.3470 C   0  0  0  0  0  0  0  0  0  0  0  0
  160.7270  200.9530  150.5500 O   0  0  0  0  0  1  0  0  0  0  0  0
  161.5290  207.9180  147.7980 N   0  0  0  0  0  0  0  0  0  0  0  0
  161.1590  202.6080  145.2610 Cl  0  0  0  0  0  0  0  0  0  0  0  0
  161.1390  206.2220  152.2050 N   0  0  0  0  0  0  0  0  0  0  0  0
  161.3320  207.0270  149.9670 C   0  0  0  0  0  0  0  0  0  0  0  0
  161.3840  208.6060  151.8400 N   0  0  0  0  0  2  0  0  0  0  0  0
  160.9760  203.2910  150.0100 C   0  0  0  0  0  3  0  0  0  0  0  0
  161.4180  205.3250  145.2300 C   0  0  0  0  0  3  0  0  0  0  0  0
  161.0400  204.9400  151.7790 C   0  0  0  0  0  0  0  0  0  0  0  0
  160.8950  203.9210  152.7250 C   0  0  0  0  0  3  0  0  0  0  0  0
  161.4750  208.0780  149.1170 N   0  0  0  0  0  0  0  0  0  0  0  0
  161.4430  206.6930  147.2290 C   0  0  0  0  0  0  0  0  0  0  0  0
  161.5050  206.5780  145.8370 C   0  0  0  0  0  3  0  0  0  0  0  0
  160.1300  211.0920  156.1380 C   0  0  1  0  0  3  0  0  0  0  0  0
  162.2600  210.6520  154.8840 C   0  0  0  0  0  2  0  0  0  0  0  0
  159.3760  210.9610  152.4840 O   0  0  0  0  0  1  0  0  0  0  0  0
  159.3830  210.7330  157.2590 O   0  0  0  0  0  1  0  0  0  0  0  0
  161.4240  210.2850  156.1120 C   0  0  0  0  0  2  0  0  0  0  0  0
  160.1230  211.1980  153.6380 C   0  0  2  0  0  3  0  0  0  0  0  0
  161.4700  210.4560  153.5850 C   0  0  2  0  0  3  0  0  0  0  0  0
  159.3140  210.8230  154.8770 C   0  0  0  0  0  2  0  0  0  0  0  0
  1  8  1  0  0  0  0
  2 15  1  0  0  0  0
  2  7  1  0  0  0  0
  3  2  2  0  0  0  0
  5  4  2  0  0  0  0
  6  9  2  0  0  0  0
  7 19  2  0  0  0  0
  8 20  2  0  0  0  0
  9  3  1  0  0  0  0
 10 16  1  0  0  0  0
 10 14  2  0  0  0  0
 11  1  1  0  0  0  0
 12 21  1  0  0  0  0
 13  6  1  0  0  0  0
 15 10  1  0  0  0  0
 16  5  1  0  0  0  0
 17  7  1  0  0  0  0
 17  1  2  0  0  0  0
 18 23  2  0  0  0  0
 18  6  1  0  0  0  0
 19 14  1  0  0  0  0
 19 20  1  0  0  0  0
 21 15  2  0  0  0  0
 22 12  2  0  0  0  0
 22  3  1  0  0  0  0
 23 22  1  0  0  0  0
 24 27  1  1  0  0  0
 25 28  1  0  0  0  0
 28 24  1  0  0  0  0
 29 26  1  6  0  0  0
 29 31  1  0  0  0  0
 30  5  1  1  0  0  0
 30 29  1  0  0  0  0
 30 25  1  0  0  0  0
 31 24  1  0  0  0  0
M  END
>  <MODEL>
1

>  <REMARK>
 VINA RESULT:     -10.1      0.000      0.000
  Name = 
  1 active torsions:
  status: ('A' for Active; 'I' for Inactive)
    1  A    between atoms: C_5  and  C_30
                            x       y       z     vdW  Elec       q    Type
                         _______ _______ _______ _____ _____    ______ ____

>  <TORSDO>
F 1

$$$$
=
 OpenBabel11122413183D

 31 35  0  0  1  0  0  0  0  0999 V2000
  161.6840  206.8740  147.1920 C   0  0  0  0  0  0  0  0  0  0  0  0
  161.2240  205.1830  150.5240 C   0  0  0  0  0  0  0  0  0  0  0  0
  161.1000  203.7850  150.2770 C   0  0  0  0  0  0  0  0  0  0  0  0
  161.4770  209.6900  153.2570 O   0  0  0  0  0  0  0  0  0  0  0  0
  161.2960  208.7300  154.0510 C   0  0  0  0  0  0  0  0  0  0  0  0
  161.0250  201.8480  148.7910 C   0  0  0  0  0  0  0  0  0  0  0  0
  161.4130  206.1760  149.5160 C   0  0  0  0  0  0  0  0  0  0  0  0
  161.7890  208.2060  147.5910 C   0  0  0  0  0  3  0  0  0  0  0  0
  161.1520  203.2240  148.9870 C   0  0  0  0  0  3  0  0  0  0  0  0
  161.2690  206.9710  152.1960 C   0  0  0  0  0  0  0  0  0  0  0  0
  161.7640  206.5440  145.8460 O   0  0  0  0  0  1  0  0  0  0  0  0
  160.8600  203.4040  152.6310 N   0  0  0  0  0  0  0  0  0  0  0  0
  161.0940  201.1880  147.1720 Cl  0  0  0  0  0  0  0  0  0  0  0  0
  161.4470  207.8850  151.2100 N   0  0  0  0  0  0  0  0  0  0  0  0
  161.1540  205.6130  151.8760 C   0  0  0  0  0  0  0  0  0  0  0  0
  161.1950  207.3840  153.5680 N   0  0  0  0  0  2  0  0  0  0  0  0
  161.4990  205.8720  148.1470 C   0  0  0  0  0  3  0  0  0  0  0  0
  160.8440  201.0000  149.8830 C   0  0  0  0  0  3  0  0  0  0  0  0
  161.5220  207.5360  149.9030 C   0  0  0  0  0  0  0  0  0  0  0  0
  161.7070  208.5350  148.9430 C   0  0  0  0  0  3  0  0  0  0  0  0
  160.9750  204.7060  152.8720 N   0  0  0  0  0  0  0  0  0  0  0  0
  160.9150  202.9090  151.3730 C   0  0  0  0  0  0  0  0  0  0  0  0
  160.7890  201.5310  151.1720 C   0  0  0  0  0  3  0  0  0  0  0  0
  159.5410  211.3870  156.1080 C   0  0  1  0  0  3  0  0  0  0  0  0
  159.7560  208.8870  156.0330 C   0  0  0  0  0  2  0  0  0  0  0  0
  163.1010  210.5000  155.4140 O   0  0  0  0  0  1  0  0  0  0  0  0
  158.7540  212.4670  155.7120 O   0  0  0  0  0  1  0  0  0  0  0  0
  158.9050  210.0900  155.6210 C   0  0  0  0  0  2  0  0  0  0  0  0
  161.8160  210.3580  155.9390 C   0  0  2  0  0  3  0  0  0  0  0  0
  161.1960  209.0130  155.5230 C   0  0  2  0  0  3  0  0  0  0  0  0
  160.9430  211.5400  155.5260 C   0  0  0  0  0  2  0  0  0  0  0  0
  1  8  2  0  0  0  0
  1 17  1  0  0  0  0
  2 15  1  0  0  0  0
  3  2  2  0  0  0  0
  3 22  1  0  0  0  0
  4  5  2  0  0  0  0
  6  9  2  0  0  0  0
  6 18  1  0  0  0  0
  7 19  1  0  0  0  0
  7  2  1  0  0  0  0
  8 20  1  0  0  0  0
  9  3  1  0  0  0  0
 10 16  1  0  0  0  0
 11  1  1  0  0  0  0
 12 21  1  0  0  0  0
 13  6  1  0  0  0  0
 14 10  2  0  0  0  0
 15 10  1  0  0  0  0
 15 21  2  0  0  0  0
 16  5  1  0  0  0  0
 17  7  2  0  0  0  0
 18 23  2  0  0  0  0
 19 14  1  0  0  0  0
 20 19  2  0  0  0  0
 22 12  2  0  0  0  0
 23 22  1  0  0  0  0
 24 27  1  6  0  0  0
 28 25  1  0  0  0  0
 28 24  1  0  0  0  0
 29 26  1  6  0  0  0
 30  5  1  6  0  0  0
 30 29  1  0  0  0  0
 30 25  1  0  0  0  0
 31 29  1  0  0  0  0
 31 24  1  0  0  0  0
M  END
>  <MODEL>
2

>  <REMARK>
 VINA RESULT:      -9.8      2.073      4.088
  Name = 
  1 active torsions:
  status: ('A' for Active; 'I' for Inactive)
    1  A    between atoms: C_5  and  C_30
                            x       y       z     vdW  Elec       q    Type
                         _______ _______ _______ _____ _____    ______ ____

>  <TORSDO>
F 1

$$$$
=
 OpenBabel11122413183D

 31 35  0  0  1  0  0  0  0  0999 V2000
  161.1940  204.8120  152.3950 C   0  0  0  0  0  0  0  0  0  0  0  0
  161.4080  205.9010  148.7980 C   0  0  0  0  0  0  0  0  0  0  0  0
  161.3530  204.7250  147.9940 C   0  0  0  0  0  0  0  0  0  0  0  0
  161.7180  211.0330  149.9880 O   0  0  0  0  0  0  0  0  0  0  0  0
  161.7680  210.8910  148.7380 C   0  0  0  0  0  0  0  0  0  0  0  0
  161.1890  202.3050  147.7080 C   0  0  0  0  0  0  0  0  0  0  0  0
  161.3560  205.9180  150.2230 C   0  0  0  0  0  0  0  0  0  0  0  0
  161.2580  206.0460  153.0420 C   0  0  0  0  0  3  0  0  0  0  0  0
  161.2390  203.4300  148.5320 C   0  0  0  0  0  3  0  0  0  0  0  0
  161.5820  208.3430  148.8450 C   0  0  0  0  0  0  0  0  0  0  0  0
  161.0810  203.6440  153.1370 O   0  0  0  0  0  1  0  0  0  0  0  0
  161.5260  206.0790  146.0240 N   0  0  0  0  0  0  0  0  0  0  0  0
  161.0480  200.7110  148.4150 Cl  0  0  0  0  0  0  0  0  0  0  0  0
  161.5290  208.3180  150.1990 N   0  0  0  0  0  0  0  0  0  0  0  0
  161.5230  207.1450  148.1220 C   0  0  0  0  0  0  0  0  0  0  0  0
  161.6990  209.5880  148.1420 N   0  0  0  0  0  2  0  0  0  0  0  0
  161.2420  204.7520  151.0010 C   0  0  0  0  0  3  0  0  0  0  0  0
  161.2520  202.4510  146.3220 C   0  0  0  0  0  3  0  0  0  0  0  0
  161.4190  207.1630  150.8990 C   0  0  0  0  0  0  0  0  0  0  0  0
  161.3710  207.2180  152.2950 C   0  0  0  0  0  3  0  0  0  0  0  0
  161.5770  207.1820  146.7640 N   0  0  0  0  0  0  0  0  0  0  0  0
  161.4160  204.8530  146.5860 C   0  0  0  0  0  0  0  0  0  0  0  0
  161.3660  203.7240  145.7630 C   0  0  0  0  0  3  0  0  0  0  0  0
  159.7100  214.0470  148.3230 C   0  0  1  0  0  3  0  0  0  0  0  0
  162.1010  213.3830  148.7020 C   0  0  0  0  0  2  0  0  0  0  0  0
  160.5020  211.1030  146.1690 O   0  0  0  0  0  1  0  0  0  0  0  0
  158.5360  214.4530  148.9550 O   0  0  0  0  0  1  0  0  0  0  0  0
  160.8020  213.8400  149.3680 C   0  0  0  0  0  2  0  0  0  0  0  0
  160.7360  212.2850  146.8730 C   0  0  2  0  0  3  0  0  0  0  0  0
  161.8930  212.1110  147.8720 C   0  0  2  0  0  3  0  0  0  0  0  0
  159.4550  212.7510  147.5610 C   0  0  0  0  0  2  0  0  0  0  0  0
  1  8  1  0  0  0  0
  1 11  1  0  0  0  0
  2  7  1  0  0  0  0
  3  9  1  0  0  0  0
  3  2  2  0  0  0  0
  5  4  2  0  0  0  0
  6 13  1  0  0  0  0
  6  9  2  0  0  0  0
  7 19  2  0  0  0  0
  7 17  1  0  0  0  0
 10 14  2  0  0  0  0
 12 22  2  0  0  0  0
 12 21  1  0  0  0  0
 14 19  1  0  0  0  0
 15  2  1  0  0  0  0
 15 10  1  0  0  0  0
 16  5  1  0  0  0  0
 16 10  1  0  0  0  0
 17  1  2  0  0  0  0
 18  6  1  0  0  0  0
 19 20  1  0  0  0  0
 20  8  2  0  0  0  0
 21 15  2  0  0  0  0
 22  3  1  0  0  0  0
 23 18  2  0  0  0  0
 23 22  1  0  0  0  0
 24 27  1  1  0  0  0
 24 28  1  0  0  0  0
 25 28  1  0  0  0  0
 29 26  1  1  0  0  0
 29 31  1  0  0  0  0
 29 30  1  0  0  0  0
 30 25  1  0  0  0  0
 30  5  1  1  0  0  0
 31 24  1  0  0  0  0
M  END
>  <MODEL>
3

>  <REMARK>
 VINA RESULT:      -9.7      3.371      4.535
  Name = 
  1 active torsions:
  status: ('A' for Active; 'I' for Inactive)
    1  A    between atoms: C_5  and  C_30
                            x       y       z     vdW  Elec       q    Type
                         _______ _______ _______ _____ _____    ______ ____

>  <TORSDO>
F 1

$$$$
=
 OpenBabel11122413183D

 31 35  0  0  1  0  0  0  0  0999 V2000
  161.8300  206.7570  147.1670 C   0  0  0  0  0  0  0  0  0  0  0  0
  161.2870  205.6820  150.7340 C   0  0  0  0  0  0  0  0  0  0  0  0
  161.1410  204.2640  150.7320 C   0  0  0  0  0  0  0  0  0  0  0  0
  161.5810  210.5920  152.6440 O   0  0  0  0  0  0  0  0  0  0  0  0
  161.3700  209.7890  153.5900 C   0  0  0  0  0  0  0  0  0  0  0  0
  161.0530  202.0990  149.6060 C   0  0  0  0  0  0  0  0  0  0  0  0
  161.5100  206.4800  149.5730 C   0  0  0  0  0  0  0  0  0  0  0  0
  161.9530  208.1360  147.3300 C   0  0  0  0  0  3  0  0  0  0  0  0
  161.2020  203.4860  149.5620 C   0  0  0  0  0  3  0  0  0  0  0  0
  161.3390  207.7330  152.0690 C   0  0  0  0  0  0  0  0  0  0  0  0
  161.9250  206.1960  145.9010 O   0  0  0  0  0  1  0  0  0  0  0  0
  160.8570  204.3030  153.1120 N   0  0  0  0  0  0  0  0  0  0  0  0
  161.1340  201.1650  148.1280 Cl  0  0  0  0  0  0  0  0  0  0  0  0
  161.5500  208.4580  150.9420 N   0  0  0  0  0  0  0  0  0  0  0  0
  161.2040  206.3420  151.9890 C   0  0  0  0  0  0  0  0  0  0  0  0
  161.2510  208.3800  153.3460 N   0  0  0  0  0  2  0  0  0  0  0  0
  161.6110  205.9410  148.2790 C   0  0  0  0  0  3  0  0  0  0  0  0
  160.8380  201.4580  150.8260 C   0  0  0  0  0  3  0  0  0  0  0  0
  161.6390  207.8850  149.7180 C   0  0  0  0  0  0  0  0  0  0  0  0
  161.8570  208.6980  148.6030 C   0  0  0  0  0  3  0  0  0  0  0  0
  160.9930  205.6260  153.1250 N   0  0  0  0  0  0  0  0  0  0  0  0
  160.9230  203.5950  151.9610 C   0  0  0  0  0  0  0  0  0  0  0  0
  160.7730  202.2070  152.0010 C   0  0  0  0  0  3  0  0  0  0  0  0
  160.4480  208.2550  156.9310 C   0  0  1  0  0  3  0  0  0  0  0  0
  162.2640  209.6750  155.9380 C   0  0  0  0  0  2  0  0  0  0  0  0
  158.8990  210.7830  154.6630 O   0  0  0  0  0  1  0  0  0  0  0  0
  160.0870  206.9490  157.2610 O   0  0  0  0  0  1  0  0  0  0  0  0
  161.8450  208.2540  156.3190 C   0  0  0  0  0  2  0  0  0  0  0  0
  159.8270  210.2540  155.5610 C   0  0  2  0  0  3  0  0  0  0  0  0
  161.2530  210.3260  154.9870 C   0  0  2  0  0  3  0  0  0  0  0  0
  159.4380  208.8280  155.9430 C   0  0  0  0  0  2  0  0  0  0  0  0
  1  8  2  0  0  0  0
  1 17  1  0  0  0  0
  2 15  1  0  0  0  0
  3  2  2  0  0  0  0
  3 22  1  0  0  0  0
  4  5  2  0  0  0  0
  6 18  1  0  0  0  0
  7 19  1  0  0  0  0
  7  2  1  0  0  0  0
  8 20  1  0  0  0  0
  9  6  2  0  0  0  0
  9  3  1  0  0  0  0
 10 16  1  0  0  0  0
 11  1  1  0  0  0  0
 12 21  1  0  0  0  0
 13  6  1  0  0  0  0
 14 10  2  0  0  0  0
 15 10  1  0  0  0  0
 15 21  2  0  0  0  0
 16  5  1  0  0  0  0
 17  7  2  0  0  0  0
 18 23  2  0  0  0  0
 19 14  1  0  0  0  0
 20 19  2  0  0  0  0
 22 23  1  0  0  0  0
 22 12  2  0  0  0  0
 24 27  1  6  0  0  0
 25 28  1  0  0  0  0
 28 24  1  0  0  0  0
 29 26  1  6  0  0  0
 29 31  1  0  0  0  0
 30  5  1  6  0  0  0
 30 29  1  0  0  0  0
 30 25  1  0  0  0  0
 31 24  1  0  0  0  0
M  END
>  <MODEL>
4

>  <REMARK>
 VINA RESULT:      -9.4      2.063      4.119
  Name = 
  1 active torsions:
  status: ('A' for Active; 'I' for Inactive)
    1  A    between atoms: C_5  and  C_30
                            x       y       z     vdW  Elec       q    Type
                         _______ _______ _______ _____ _____    ______ ____

>  <TORSDO>
F 1

$$$$
=
 OpenBabel11122413183D

 31 35  0  0  1  0  0  0  0  0999 V2000
  160.9370  201.9080  150.5920 C   0  0  0  0  0  0  0  0  0  0  0  0
  161.2040  205.5490  149.6700 C   0  0  0  0  0  0  0  0  0  0  0  0
  161.2560  205.6230  148.2470 C   0  0  0  0  0  0  0  0  0  0  0  0
  161.1250  207.2000  154.6810 O   0  0  0  0  0  0  0  0  0  0  0  0
  161.2280  208.1950  153.9160 C   0  0  0  0  0  0  0  0  0  0  0  0
  161.2660  204.6090  146.0260 C   0  0  0  0  0  0  0  0  0  0  0  0
  161.1000  204.3390  150.4200 C   0  0  0  0  0  0  0  0  0  0  0  0
  160.8960  201.9970  151.9830 C   0  0  0  0  0  3  0  0  0  0  0  0
  161.2110  204.4900  147.4150 C   0  0  0  0  0  3  0  0  0  0  0  0
  161.2110  206.7780  151.7870 C   0  0  0  0  0  0  0  0  0  0  0  0
  160.8780  200.6670  149.9730 O   0  0  0  0  0  1  0  0  0  0  0  0
  161.4060  208.0110  148.3920 N   0  0  0  0  0  0  0  0  0  0  0  0
  161.2080  203.1760  145.0240 Cl  0  0  0  0  0  0  0  0  0  0  0  0
  161.1130  205.6080  152.4640 N   0  0  0  0  0  0  0  0  0  0  0  0
  161.2580  206.7730  150.3870 C   0  0  0  0  0  0  0  0  0  0  0  0
  161.2680  208.0270  152.4920 N   0  0  0  0  0  2  0  0  0  0  0  0
  161.0380  203.0690  149.8210 C   0  0  0  0  0  3  0  0  0  0  0  0
  161.3680  205.8690  145.4360 C   0  0  0  0  0  3  0  0  0  0  0  0
  161.0560  204.4100  151.8350 C   0  0  0  0  0  0  0  0  0  0  0  0
  160.9560  203.2450  152.6020 C   0  0  0  0  0  3  0  0  0  0  0  0
  161.3570  207.9530  149.7190 N   0  0  0  0  0  0  0  0  0  0  0  0
  161.3600  206.8930  147.6310 C   0  0  0  0  0  0  0  0  0  0  0  0
  161.4150  207.0090  146.2390 C   0  0  0  0  0  3  0  0  0  0  0  0
  159.2880  211.4080  153.3810 C   0  0  1  0  0  3  0  0  0  0  0  0
  160.0200  209.9310  155.2750 C   0  0  0  0  0  2  0  0  0  0  0  0
  162.8020  210.3040  152.7660 O   0  0  0  0  0  1  0  0  0  0  0  0
  158.2360  211.6970  152.5140 O   0  0  0  0  0  1  0  0  0  0  0  0
  158.8770  210.2780  154.3190 C   0  0  0  0  0  2  0  0  0  0  0  0
  161.6760  210.6680  153.5050 C   0  0  2  0  0  3  0  0  0  0  0  0
  161.3010  209.5700  154.5160 C   0  0  2  0  0  3  0  0  0  0  0  0
  160.5150  211.0020  152.5710 C   0  0  0  0  0  2  0  0  0  0  0  0
  1  8  1  0  0  0  0
  2 15  1  0  0  0  0
  2  7  1  0  0  0  0
  3  2  2  0  0  0  0
  5  4  2  0  0  0  0
  6  9  2  0  0  0  0
  7 19  2  0  0  0  0
  8 20  2  0  0  0  0
  9  3  1  0  0  0  0
 10 14  2  0  0  0  0
 10 16  1  0  0  0  0
 11  1  1  0  0  0  0
 12 21  1  0  0  0  0
 13  6  1  0  0  0  0
 15 10  1  0  0  0  0
 16  5  1  0  0  0  0
 17  7  1  0  0  0  0
 17  1  2  0  0  0  0
 18  6  1  0  0  0  0
 18 23  2  0  0  0  0
 19 14  1  0  0  0  0
 19 20  1  0  0  0  0
 21 15  2  0  0  0  0
 22  3  1  0  0  0  0
 22 12  2  0  0  0  0
 23 22  1  0  0  0  0
 24 27  1  6  0  0  0
 24 28  1  0  0  0  0
 28 25  1  0  0  0  0
 29 26  1  6  0  0  0
 29 30  1  0  0  0  0
 30  5  1  6  0  0  0
 30 25  1  0  0  0  0
 31 24  1  0  0  0  0
 31 29  1  0  0  0  0
M  END
>  <MODEL>
5

>  <REMARK>
 VINA RESULT:      -9.1      1.159      1.614
  Name = 
  1 active torsions:
  status: ('A' for Active; 'I' for Inactive)
    1  A    between atoms: C_5  and  C_30
                            x       y       z     vdW  Elec       q    Type
                         _______ _______ _______ _____ _____    ______ ____

>  <TORSDO>
F 1

$$$$
=
 OpenBabel11122413183D

 31 35  0  0  1  0  0  0  0  0999 V2000
  160.8310  207.5370  154.2670 C   0  0  0  0  0  0  0  0  0  0  0  0
  161.2990  207.7800  150.5390 C   0  0  0  0  0  0  0  0  0  0  0  0
  161.3230  206.4500  150.0270 C   0  0  0  0  0  0  0  0  0  0  0  0
  161.4380  213.0550  150.5320 O   0  0  0  0  0  0  0  0  0  0  0  0
  161.5840  212.6320  149.3550 C   0  0  0  0  0  0  0  0  0  0  0  0
  161.2190  204.0250  150.2960 C   0  0  0  0  0  0  0  0  0  0  0  0
  161.1390  208.1210  151.9150 C   0  0  0  0  0  0  0  0  0  0  0  0
  160.8270  208.8880  154.6150 C   0  0  0  0  0  3  0  0  0  0  0  0
  161.1890  205.3100  150.8400 C   0  0  0  0  0  3  0  0  0  0  0  0
  161.4310  210.1720  150.0340 C   0  0  0  0  0  0  0  0  0  0  0  0
  160.6810  206.5670  155.2480 O   0  0  0  0  0  1  0  0  0  0  0  0
  161.6230  207.3220  147.8140 N   0  0  0  0  0  0  0  0  0  0  0  0
  161.0490  202.6310  151.3400 Cl  0  0  0  0  0  0  0  0  0  0  0  0
  161.2770  210.4560  151.3510 N   0  0  0  0  0  0  0  0  0  0  0  0
  161.4450  208.8390  149.6040 C   0  0  0  0  0  0  0  0  0  0  0  0
  161.5810  211.2270  149.0730 N   0  0  0  0  0  2  0  0  0  0  0  0
  160.9850  207.1610  152.9310 C   0  0  0  0  0  3  0  0  0  0  0  0
  161.3840  203.8520  148.9220 C   0  0  0  0  0  3  0  0  0  0  0  0
  161.1320  209.4890  152.2880 C   0  0  0  0  0  0  0  0  0  0  0  0
  160.9780  209.8610  153.6270 C   0  0  0  0  0  3  0  0  0  0  0  0
  161.6000  208.5660  148.2820 N   0  0  0  0  0  0  0  0  0  0  0  0
  161.4900  206.2540  148.6350 C   0  0  0  0  0  0  0  0  0  0  0  0
  161.5190  204.9660  148.0940 C   0  0  0  0  0  3  0  0  0  0  0  0
  159.9740  213.0780  145.9530 C   0  0  1  0  0  3  0  0  0  0  0  0
  160.4790  214.4400  148.0000 C   0  0  0  0  0  2  0  0  0  0  0  0
  163.3950  212.2090  147.1670 O   0  0  0  0  0  1  0  0  0  0  0  0
  158.9920  212.3260  145.3090 O   0  0  0  0  0  1  0  0  0  0  0  0
  159.4180  213.6180  147.2660 C   0  0  0  0  0  2  0  0  0  0  0  0
  162.2750  213.0070  146.9330 C   0  0  2  0  0  3  0  0  0  0  0  0
  161.7560  213.6260  148.2420 C   0  0  2  0  0  3  0  0  0  0  0  0
  161.1940  212.2010  146.2160 C   0  0  0  0  0  2  0  0  0  0  0  0
  1  8  1  0  0  0  0
  1 11  1  0  0  0  0
  2  7  1  0  0  0  0
  3  2  1  0  0  0  0
  3  9  1  0  0  0  0
  5  4  2  0  0  0  0
  6  9  2  0  0  0  0
  6 13  1  0  0  0  0
  7 19  2  0  0  0  0
  7 17  1  0  0  0  0
 10 14  2  0  0  0  0
 12 21  2  0  0  0  0
 12 22  1  0  0  0  0
 14 19  1  0  0  0  0
 15 10  1  0  0  0  0
 15  2  2  0  0  0  0
 16  5  1  0  0  0  0
 16 10  1  0  0  0  0
 17  1  2  0  0  0  0
 18  6  1  0  0  0  0
 19 20  1  0  0  0  0
 20  8  2  0  0  0  0
 21 15  1  0  0  0  0
 22  3  2  0  0  0  0
 23 22  1  0  0  0  0
 23 18  2  0  0  0  0
 24 27  1  1  0  0  0
 24 31  1  0  0  0  0
 24 28  1  0  0  0  0
 25 30  1  0  0  0  0
 28 25  1  0  0  0  0
 29 26  1  1  0  0  0
 29 30  1  0  0  0  0
 30  5  1  1  0  0  0
 31 29  1  0  0  0  0
M  END
>  <MODEL>
6

>  <REMARK>
 VINA RESULT:      -7.7      3.867      5.900
  Name = 
  1 active torsions:
  status: ('A' for Active; 'I' for Inactive)
    1  A    between atoms: C_5  and  C_30
                            x       y       z     vdW  Elec       q    Type
                         _______ _______ _______ _____ _____    ______ ____

>  <TORSDO>
F 1

$$$$
=
 OpenBabel11122413183D

 31 35  0  0  1  0  0  0  0  0999 V2000
  161.4320  204.0270  146.0450 C   0  0  0  0  0  0  0  0  0  0  0  0
  161.3680  205.7670  149.3830 C   0  0  0  0  0  0  0  0  0  0  0  0
  161.2150  204.7620  150.3820 C   0  0  0  0  0  0  0  0  0  0  0  0
  161.9440  210.5800  147.2970 O   0  0  0  0  0  0  0  0  0  0  0  0
  161.8580  210.6760  148.5490 C   0  0  0  0  0  0  0  0  0  0  0  0
  160.9640  202.4400  151.0960 C   0  0  0  0  0  0  0  0  0  0  0  0
  161.4370  205.5180  147.9800 C   0  0  0  0  0  0  0  0  0  0  0  0
  161.5840  205.1180  145.1890 C   0  0  0  0  0  3  0  0  0  0  0  0
  161.1140  203.3910  150.0850 C   0  0  0  0  0  3  0  0  0  0  0  0
  161.6110  208.1550  148.9000 C   0  0  0  0  0  0  0  0  0  0  0  0
  161.3530  202.7430  145.5260 O   0  0  0  0  0  1  0  0  0  0  0  0
  161.2540  206.4590  152.0750 N   0  0  0  0  0  0  0  0  0  0  0  0
  160.8410  200.7430  150.6870 Cl  0  0  0  0  0  0  0  0  0  0  0  0
  161.6720  207.8780  147.5740 N   0  0  0  0  0  0  0  0  0  0  0  0
  161.4590  207.1140  149.8250 C   0  0  0  0  0  0  0  0  0  0  0  0
  161.7000  209.5090  149.3670 N   0  0  0  0  0  2  0  0  0  0  0  0
  161.3600  204.2290  147.4250 C   0  0  0  0  0  3  0  0  0  0  0  0
  160.9120  202.8420  152.4310 C   0  0  0  0  0  3  0  0  0  0  0  0
  161.5920  206.6140  147.0940 C   0  0  0  0  0  0  0  0  0  0  0  0
  161.6630  206.4080  145.7130 C   0  0  0  0  0  3  0  0  0  0  0  0
  161.3980  207.4040  151.1510 N   0  0  0  0  0  0  0  0  0  0  0  0
  161.1600  205.1510  151.7430 C   0  0  0  0  0  0  0  0  0  0  0  0
  161.0100  204.1960  152.7520 C   0  0  0  0  0  3  0  0  0  0  0  0
  160.3830  214.0610  147.6930 C   0  0  1  0  0  3  0  0  0  0  0  0
  160.5600  212.5180  149.6650 C   0  0  0  0  0  2  0  0  0  0  0  0
  163.8270  212.6260  147.7980 O   0  0  0  0  0  1  0  0  0  0  0  0
  159.5660  214.4520  146.6330 O   0  0  0  0  0  1  0  0  0  0  0  0
  159.6800  212.9740  148.5000 C   0  0  0  0  0  2  0  0  0  0  0  0
  162.6110  213.0950  148.2950 C   0  0  2  0  0  3  0  0  0  0  0  0
  161.9330  212.0360  149.1810 C   0  0  2  0  0  3  0  0  0  0  0  0
  161.7080  213.5400  147.1470 C   0  0  0  0  0  2  0  0  0  0  0  0
  1 17  1  0  0  0  0
  2 15  2  0  0  0  0
  2  3  1  0  0  0  0
  3 22  1  0  0  0  0
  4  5  2  0  0  0  0
  5 16  1  0  0  0  0
  6 18  2  0  0  0  0
  7  2  1  0  0  0  0
  8 20  1  0  0  0  0
  8  1  2  0  0  0  0
  9  3  2  0  0  0  0
  9  6  1  0  0  0  0
 10 16  1  0  0  0  0
 10 15  1  0  0  0  0
 11  1  1  0  0  0  0
 13  6  1  0  0  0  0
 14 10  2  0  0  0  0
 15 21  1  0  0  0  0
 17  7  2  0  0  0  0
 18 23  1  0  0  0  0
 19 14  1  0  0  0  0
 19  7  1  0  0  0  0
 20 19  2  0  0  0  0
 21 12  2  0  0  0  0
 22 12  1  0  0  0  0
 22 23  2  0  0  0  0
 24 27  1  6  0  0  0
 24 28  1  0  0  0  0
 28 25  1  0  0  0  0
 29 26  1  6  0  0  0
 29 30  1  0  0  0  0
 30  5  1  6  0  0  0
 30 25  1  0  0  0  0
 31 24  1  0  0  0  0
 31 29  1  0  0  0  0
M  END
>  <MODEL>
7

>  <REMARK>
 VINA RESULT:      -7.7      3.894      5.816
  Name = 
  1 active torsions:
  status: ('A' for Active; 'I' for Inactive)
    1  A    between atoms: C_5  and  C_30
                            x       y       z     vdW  Elec       q    Type
                         _______ _______ _______ _____ _____    ______ ____

>  <TORSDO>
F 1

$$$$
=
 OpenBabel11122413183D

 31 35  0  0  1  0  0  0  0  0999 V2000
  161.3300  205.5000  151.7830 C   0  0  0  0  0  0  0  0  0  0  0  0
  160.9960  209.1040  152.8190 C   0  0  0  0  0  0  0  0  0  0  0  0
  160.6810  209.1180  154.2090 C   0  0  0  0  0  0  0  0  0  0  0  0
  162.0540  210.9690  147.9970 O   0  0  0  0  0  0  0  0  0  0  0  0
  161.8370  211.9320  148.7790 C   0  0  0  0  0  0  0  0  0  0  0  0
  160.2290  208.0090  156.3370 C   0  0  0  0  0  0  0  0  0  0  0  0
  161.2040  207.9250  152.0420 C   0  0  0  0  0  0  0  0  0  0  0  0
  161.6330  205.6480  150.4300 C   0  0  0  0  0  3  0  0  0  0  0  0
  160.5390  207.9490  154.9780 C   0  0  0  0  0  3  0  0  0  0  0  0
  161.4180  210.4240  150.8010 C   0  0  0  0  0  0  0  0  0  0  0  0
  161.2390  204.2320  152.3400 O   0  0  0  0  0  1  0  0  0  0  0  0
  160.6260  211.5140  154.1580 N   0  0  0  0  0  0  0  0  0  0  0  0
  160.0600  206.5320  157.2610 Cl  0  0  0  0  0  0  0  0  0  0  0  0
  161.6090  209.2820  150.0960 N   0  0  0  0  0  0  0  0  0  0  0  0
  161.1100  210.3600  152.1660 C   0  0  0  0  0  0  0  0  0  0  0  0
  161.5280  211.7030  150.1600 N   0  0  0  0  0  2  0  0  0  0  0  0
  161.1190  206.6290  152.5780 C   0  0  0  0  0  3  0  0  0  0  0  0
  160.0540  209.2450  156.9600 C   0  0  0  0  0  3  0  0  0  0  0  0
  161.5140  208.0560  150.6650 C   0  0  0  0  0  0  0  0  0  0  0  0
  161.7240  206.9230  149.8730 C   0  0  0  0  0  3  0  0  0  0  0  0
  160.9210  211.5120  152.8620 N   0  0  0  0  0  0  0  0  0  0  0  0
  160.4990  210.3630  154.8580 C   0  0  0  0  0  0  0  0  0  0  0  0
  160.1890  210.4200  156.2200 C   0  0  0  0  0  3  0  0  0  0  0  0
  159.9110  213.8550  146.1400 C   0  0  1  0  0  3  0  0  0  0  0  0
  160.6340  214.1260  148.5280 C   0  0  0  0  0  2  0  0  0  0  0  0
  163.4200  212.6290  146.4870 O   0  0  0  0  0  1  0  0  0  0  0  0
  158.8600  213.4570  145.3150 O   0  0  0  0  0  1  0  0  0  0  0  0
  159.4940  213.7060  147.5990 C   0  0  0  0  0  2  0  0  0  0  0  0
  162.2950  213.4090  146.7560 C   0  0  2  0  0  3  0  0  0  0  0  0
  161.9150  213.3330  148.2440 C   0  0  2  0  0  3  0  0  0  0  0  0
  161.1370  212.9950  145.8500 C   0  0  0  0  0  2  0  0  0  0  0  0
  1 11  1  0  0  0  0
  1 17  1  0  0  0  0
  2  3  1  0  0  0  0
  3 22  2  0  0  0  0
  3  9  1  0  0  0  0
  4  5  2  0  0  0  0
  5 16  1  0  0  0  0
  6 18  1  0  0  0  0
  6 13  1  0  0  0  0
  7 17  2  0  0  0  0
  7  2  1  0  0  0  0
  8  1  2  0  0  0  0
  9  6  2  0  0  0  0
 10 15  1  0  0  0  0
 12 22  1  0  0  0  0
 14 19  1  0  0  0  0
 14 10  2  0  0  0  0
 15  2  2  0  0  0  0
 15 21  1  0  0  0  0
 16 10  1  0  0  0  0
 19  7  1  0  0  0  0
 20  8  1  0  0  0  0
 20 19  2  0  0  0  0
 21 12  2  0  0  0  0
 22 23  1  0  0  0  0
 23 18  2  0  0  0  0
 24 27  1  6  0  0  0
 24 28  1  0  0  0  0
 28 25  1  0  0  0  0
 29 26  1  1  0  0  0
 29 30  1  0  0  0  0
 30 25  1  0  0  0  0
 30  5  1  6  0  0  0
 31 24  1  0  0  0  0
 31 29  1  0  0  0  0
M  END
>  <MODEL>
8

>  <REMARK>
 VINA RESULT:      -7.7      4.653      7.463
  Name = 
  1 active torsions:
  status: ('A' for Active; 'I' for Inactive)
    1  A    between atoms: C_5  and  C_30
                            x       y       z     vdW  Elec       q    Type
                         _______ _______ _______ _____ _____    ______ ____

>  <TORSDO>
F 1

$$$$
=
 OpenBabel11122413183D

 31 35  0  0  1  0  0  0  0  0999 V2000
  161.0160  203.2010  150.9180 C   0  0  0  0  0  0  0  0  0  0  0  0
  161.4400  206.9210  151.3100 C   0  0  0  0  0  0  0  0  0  0  0  0
  161.7390  207.4530  150.0220 C   0  0  0  0  0  0  0  0  0  0  0  0
  160.4920  206.8510  156.5010 O   0  0  0  0  0  0  0  0  0  0  0  0
  160.7270  208.0330  156.1360 C   0  0  0  0  0  0  0  0  0  0  0  0
  162.1350  207.2190  147.6230 C   0  0  0  0  0  0  0  0  0  0  0  0
  161.2080  205.5420  151.5890 C   0  0  0  0  0  0  0  0  0  0  0  0
  160.7340  202.8340  152.2330 C   0  0  0  0  0  3  0  0  0  0  0  0
  161.8390  206.6570  148.8660 C   0  0  0  0  0  3  0  0  0  0  0  0
  161.0800  207.3910  153.6860 C   0  0  0  0  0  0  0  0  0  0  0  0
  161.0650  202.2350  149.9220 O   0  0  0  0  0  1  0  0  0  0  0  0
  161.8630  209.6500  150.9710 N   0  0  0  0  0  0  0  0  0  0  0  0
  162.2510  206.1970  146.2080 Cl  0  0  0  0  0  0  0  0  0  0  0  0
  160.8650  206.0720  153.9110 N   0  0  0  0  0  0  0  0  0  0  0  0
  161.3700  207.8400  152.3910 C   0  0  0  0  0  0  0  0  0  0  0  0
  161.0140  208.3360  154.7640 N   0  0  0  0  0  2  0  0  0  0  0  0
  161.2500  204.5420  150.6030 C   0  0  0  0  0  3  0  0  0  0  0  0
  162.3380  208.5940  147.5090 C   0  0  0  0  0  3  0  0  0  0  0  0
  160.9180  205.1490  152.9210 C   0  0  0  0  0  0  0  0  0  0  0  0
  160.6860  203.8060  153.2320 C   0  0  0  0  0  3  0  0  0  0  0  0
  161.5830  209.1650  152.1770 N   0  0  0  0  0  0  0  0  0  0  0  0
  161.9490  208.8460  149.8860 C   0  0  0  0  0  0  0  0  0  0  0  0
  162.2450  209.4060  148.6400 C   0  0  0  0  0  3  0  0  0  0  0  0
  160.2580  211.7900  155.9560 C   0  0  1  0  0  3  0  0  0  0  0  0
  159.3300  209.8250  157.2130 C   0  0  0  0  0  2  0  0  0  0  0  0
  163.0680  209.5160  156.8890 O   0  0  0  0  0  1  0  0  0  0  0  0
  160.0590  212.6280  154.8600 O   0  0  0  0  0  1  0  0  0  0  0  0
  159.1300  210.7650  156.0230 C   0  0  0  0  0  2  0  0  0  0  0  0
  161.8330  210.1550  157.0080 C   0  0  2  0  0  3  0  0  0  0  0  0
  160.6950  209.1300  157.1600 C   0  0  2  0  0  3  0  0  0  0  0  0
  161.6040  211.0870  155.8200 C   0  0  0  0  0  2  0  0  0  0  0  0
  1  8  1  0  0  0  0
  2  7  1  0  0  0  0
  2 15  1  0  0  0  0
  3  2  2  0  0  0  0
  5  4  2  0  0  0  0
  6  9  2  0  0  0  0
  7 19  2  0  0  0  0
  8 20  2  0  0  0  0
  9  3  1  0  0  0  0
 10 14  2  0  0  0  0
 10 16  1  0  0  0  0
 11  1  1  0  0  0  0
 12 21  1  0  0  0  0
 13  6  1  0  0  0  0
 15 10  1  0  0  0  0
 16  5  1  0  0  0  0
 17  1  2  0  0  0  0
 17  7  1  0  0  0  0
 18  6  1  0  0  0  0
 18 23  2  0  0  0  0
 19 20  1  0  0  0  0
 19 14  1  0  0  0  0
 21 15  2  0  0  0  0
 22  3  1  0  0  0  0
 22 12  2  0  0  0  0
 23 22  1  0  0  0  0
 24 27  1  6  0  0  0
 24 28  1  0  0  0  0
 28 25  1  0  0  0  0
 29 26  1  6  0  0  0
 29 30  1  0  0  0  0
 30  5  1  6  0  0  0
 30 25  1  0  0  0  0
 31 24  1  0  0  0  0
 31 29  1  0  0  0  0
M  END
>  <MODEL>
9

>  <REMARK>
 VINA RESULT:      -7.2      2.016      2.952
  Name = 
  1 active torsions:
  status: ('A' for Active; 'I' for Inactive)
    1  A    between atoms: C_5  and  C_30
                            x       y       z     vdW  Elec       q    Type
                         _______ _______ _______ _____ _____    ______ ____

>  <TORSDO>
F 1

$$$$
