=
 OpenBabel11122414183D

 34 40  0  0  1  0  0  0  0  0999 V2000
  161.8570  208.9080  151.1530 C   0  0  0  0  0  0  0  0  0  0  0  0
  161.7220  210.9360  152.6690 C   0  0  0  0  0  2  0  0  0  0  0  0
  160.1710  202.5890  149.9220 C   0  0  0  0  0  3  0  0  0  0  0  0
  161.6050  206.9600  149.7760 C   0  0  0  0  0  0  0  0  0  0  0  0
  160.4320  204.9290  150.6230 N   0  0  1  0  0  0  0  0  0  0  0  0
  161.5740  203.5560  148.0780 C   0  0  0  0  0  2  0  0  0  0  0  0
  161.8200  208.7280  153.6680 C   0  0  2  0  0  3  0  0  0  0  0  0
  159.5980  208.2970  156.0290 C   0  0  0  0  0  2  0  0  0  0  0  0
  160.2150  205.6850  151.8760 C   0  0  0  0  0  2  0  0  0  0  0  0
  161.1500  205.0060  148.2580 C   0  0  0  0  0  2  0  0  0  0  0  0
  160.9320  207.4760  153.4830 C   0  0  1  0  0  3  0  0  0  0  0  0
  161.5890  211.1070  154.1740 C   0  0  0  0  0  2  0  0  0  0  0  0
  161.4500  205.4640  149.6830 C   0  0  1  0  0  3  0  0  0  0  0  0
  160.5550  202.6070  148.6370 C   0  0  0  0  0  3  0  0  0  0  0  0
  159.8750  209.5550  155.1850 C   0  0  1  0  0  3  0  0  0  0  0  0
  161.5950  207.5400  151.0400 C   0  0  0  0  0  0  0  0  0  0  0  0
  160.6910  203.5270  150.9800 C   0  0  2  0  0  3  0  0  0  0  0  0
  161.3350  206.6680  152.2360 C   0  0  2  0  0  3  0  0  0  0  0  0
  162.0830  209.0660  148.8060 C   0  0  0  0  0  3  0  0  0  0  0  0
  160.7430  207.2830  156.0500 C   0  0  0  0  0  2  0  0  0  0  0  0
  161.8620  207.7300  148.6820 N   0  0  0  0  0  0  0  0  0  0  0  0
  160.9340  206.5600  154.7150 C   0  0  0  0  0  2  0  0  0  0  0  0
  161.3500  209.7140  154.7520 C   0  0  1  0  0  3  0  0  0  0  0  0
  162.0790  209.6490  150.0350 N   0  0  0  0  0  0  0  0  0  0  0  0
  161.8700  209.5130  152.4490 N   0  0  0  0  0  0  0  0  0  0  0  0
  162.1490  203.2480  151.3680 C   0  0  0  0  0  2  0  0  0  0  0  0
  162.3170  201.8030  151.7930 C   0  0  0  0  0  1  0  0  0  0  0  0
  159.0100  209.5910  154.0860 O   0  0  0  0  0  0  0  0  0  0  0  0
  158.4380  210.8640  154.1120 C   0  0  0  0  0  2  0  0  0  0  0  0
  156.6210  213.1400  156.0090 C   0  0  0  0  0  2  0  0  0  0  0  0
  156.2780  210.9500  155.3490 C   0  0  0  0  0  2  0  0  0  0  0  0
  157.7810  211.1060  155.4590 C   0  0  2  0  0  3  0  0  0  0  0  0
  155.6650  212.0460  156.0820 N   0  0  0  0  0  2  0  0  0  0  0  0
  158.0030  212.5350  155.8880 C   0  0  0  0  0  2  0  0  0  0  0  0
  1 25  1  0  0  0  0
  2 12  1  0  0  0  0
  3 17  1  0  0  0  0
  4 16  2  0  0  0  0
  5 17  1  0  0  0  0
  5  9  1  1  0  0  0
  6 10  1  0  0  0  0
  6 14  1  0  0  0  0
  7 25  1  6  0  0  0
  7 23  1  0  0  0  0
  8 20  1  0  0  0  0
 11  7  1  0  0  0  0
 11 22  1  1  0  0  0
 13 10  1  6  0  0  0
 13  4  1  0  0  0  0
 13  5  1  0  0  0  0
 14  3  2  0  0  0  0
 15 28  1  6  0  0  0
 15  8  1  0  0  0  0
 16  1  1  0  0  0  0
 16 18  1  0  0  0  0
 17 26  1  6  0  0  0
 18  9  1  6  0  0  0
 18 11  1  0  0  0  0
 19 24  1  0  0  0  0
 21 19  2  0  0  0  0
 21  4  1  0  0  0  0
 22 20  1  0  0  0  0
 23 12  1  6  0  0  0
 23 15  1  0  0  0  0
 24  1  2  0  0  0  0
 25  2  1  0  0  0  0
 26 27  1  0  0  0  0
 28 29  1  0  0  0  0
 30 33  1  0  0  0  0
 31 32  1  0  0  0  0
 31 33  1  0  0  0  0
 32 29  1  6  0  0  0
 32 34  1  0  0  0  0
 34 30  1  0  0  0  0
M  END
>  <MODEL>
1

>  <REMARK>
 VINA RESULT:      -6.0      0.000      0.000
  Name = 
  4 active torsions:
  status: ('A' for Active; 'I' for Inactive)
    1  A    between atoms: C_6  and  C_19
    2  A    between atoms: C_17  and  O_28
    3  A    between atoms: O_28  and  C_29
    4  A    between atoms: C_29  and  C_32
                            x       y       z     vdW  Elec       q    Type
                         _______ _______ _______ _____ _____    ______ ____

>  <TORSDO>
F 4

$$$$
