=
 OpenBabel11122414063D

 28 32  0  0  1  0  0  0  0  0999 V2000
  161.2410  208.6550  155.5650 C   0  0  0  0  0  0  0  0  0  0  0  0
  157.7760  210.4310  153.6580 O   0  0  0  0  0  0  0  0  0  0  0  0
  160.8580  208.5990  149.3540 O   0  0  0  0  0  1  0  0  0  0  0  0
  162.8820  210.6890  156.5800 C   0  0  0  0  0  3  0  0  0  0  0  0
  161.8580  210.5860  150.2200 C   0  0  1  0  0  3  0  0  0  0  0  0
  160.4360  207.5150  155.0310 C   0  0  0  0  0  2  0  0  0  0  0  0
  158.3450  212.2970  155.1520 O   0  0  0  0  0  0  0  0  0  0  0  0
  158.5160  211.7370  153.7690 S   0  0  0  0  0  0  0  0  0  0  0  0
  158.3940  212.8920  151.4440 C   0  0  0  0  0  0  0  0  0  0  0  0
  160.2180  211.5240  153.4460 N   0  0  2  0  0  0  0  0  0  0  0  0
  162.4100  205.9010  152.4030 O   0  0  0  0  0  0  0  0  0  0  0  0
  161.4650  209.8270  152.4260 C   0  0  2  0  0  3  0  0  0  0  0  0
  159.4890  211.9470  151.0480 C   0  0  0  0  0  2  0  0  0  0  0  0
  157.8900  212.8460  152.6240 N   0  0  0  0  0  0  0  0  0  0  0  0
  161.5180  206.6230  152.9190 C   0  0  0  0  0  0  0  0  0  0  0  0
  161.3360  209.8840  154.8780 C   0  0  0  0  0  0  0  0  0  0  0  0
  161.8160  209.0570  150.2600 C   0  0  1  0  0  3  0  0  0  0  0  0
  157.8810  213.8830  150.4580 C   0  0  0  0  0  1  0  0  0  0  0  0
  160.6760  207.4900  152.0410 C   0  0  0  0  0  2  0  0  0  0  0  0
  162.1730  210.8890  155.3930 C   0  0  0  0  0  3  0  0  0  0  0  0
  161.9560  208.4630  156.7510 C   0  0  0  0  0  3  0  0  0  0  0  0
  162.7700  209.4770  157.2610 C   0  0  0  0  0  3  0  0  0  0  0  0
  161.3120  206.5840  154.3330 N   0  0  0  0  0  2  0  0  0  0  0  0
  161.7960  211.0400  151.6830 C   0  0  2  0  0  3  0  0  0  0  0  0
  161.4010  208.7470  151.6590 C   0  0  2  0  0  3  0  0  0  0  0  0
  160.6330  211.9610  152.0830 C   0  0  2  0  0  3  0  0  0  0  0  0
  163.1560  211.0480  149.5920 C   0  0  0  0  0  1  0  0  0  0  0  0
  160.5900  210.1110  153.5880 C   0  0  1  0  0  3  0  0  0  0  0  0
  1 21  1  0  0  0  0
  2  8  2  0  0  0  0
  3 17  1  0  0  0  0
  4 22  1  0  0  0  0
  5 27  1  1  0  0  0
  5 17  1  0  0  0  0
  5 24  1  0  0  0  0
  6  1  1  0  0  0  0
  8  7  2  0  0  0  0
  9 14  2  0  0  0  0
 10 28  1  0  0  0  0
 10  8  1  6  0  0  0
 11 15  2  0  0  0  0
 12 28  1  0  0  0  0
 13  9  1  0  0  0  0
 13 26  1  0  0  0  0
 14  8  1  0  0  0  0
 15 23  1  0  0  0  0
 16 20  1  0  0  0  0
 16  1  2  0  0  0  0
 17 25  1  0  0  0  0
 18  9  1  0  0  0  0
 19 15  1  0  0  0  0
 20  4  2  0  0  0  0
 21 22  2  0  0  0  0
 23  6  1  0  0  0  0
 24 26  1  0  0  0  0
 24 12  1  0  0  0  0
 25 19  1  0  0  0  0
 25 12  1  0  0  0  0
 26 10  1  0  0  0  0
 28 16  1  0  0  0  0
M  END
>  <MODEL>
1

>  <REMARK>
 VINA RESULT:      -2.1      0.000      0.000
  Name = 
  0 active torsions:
  status: ('A' for Active; 'I' for Inactive)
                            x       y       z     vdW  Elec       q    Type
                         _______ _______ _______ _____ _____    ______ ____

>  <TORSDO>
F 0

$$$$
=
 OpenBabel11122414063D

 28 32  0  0  1  0  0  0  0  0999 V2000
  157.1780  213.5170  152.9910 C   0  0  0  0  0  0  0  0  0  0  0  0
  160.6160  213.6030  155.6310 O   0  0  0  0  0  0  0  0  0  0  0  0
  162.4390  210.7310  151.1810 O   0  0  0  0  0  1  0  0  0  0  0  0
  155.2610  211.7530  154.0260 C   0  0  0  0  0  3  0  0  0  0  0  0
  161.0190  209.3150  152.4750 C   0  0  1  0  0  3  0  0  0  0  0  0
  158.1580  214.4530  152.3600 C   0  0  0  0  0  2  0  0  0  0  0  0
  158.9450  212.8350  157.2610 O   0  0  0  0  0  0  0  0  0  0  0  0
  160.0060  212.3960  156.2920 S   0  0  0  0  0  0  0  0  0  0  0  0
  161.8820  210.6120  156.5230 C   0  0  0  0  0  0  0  0  0  0  0  0
  159.2930  211.3260  155.1120 N   0  0  2  0  0  0  0  0  0  0  0  0
  159.2510  212.9500  149.2060 O   0  0  0  0  0  0  0  0  0  0  0  0
  159.5110  211.1100  152.7910 C   0  0  2  0  0  3  0  0  0  0  0  0
  161.6310  210.3310  155.0720 C   0  0  0  0  0  2  0  0  0  0  0  0
  161.2210  211.5300  157.1310 N   0  0  0  0  0  0  0  0  0  0  0  0
  159.3020  213.3030  150.4120 C   0  0  0  0  0  0  0  0  0  0  0  0
  157.5950  212.3610  153.6830 C   0  0  0  0  0  0  0  0  0  0  0  0
  161.1170  210.3060  151.3140 C   0  0  1  0  0  3  0  0  0  0  0  0
  162.9100  209.8280  157.2600 C   0  0  0  0  0  1  0  0  0  0  0  0
  160.4440  212.8500  151.2630 C   0  0  0  0  0  2  0  0  0  0  0  0
  156.6210  211.4800  154.1850 C   0  0  0  0  0  3  0  0  0  0  0  0
  155.8140  213.7820  152.8340 C   0  0  0  0  0  3  0  0  0  0  0  0
  154.8570  212.9060  153.3540 C   0  0  0  0  0  3  0  0  0  0  0  0
  158.2780  214.1490  150.9410 N   0  0  0  0  0  2  0  0  0  0  0  0
  159.8380  209.7920  153.3280 C   0  0  2  0  0  3  0  0  0  0  0  0
  160.2440  211.4410  151.7370 C   0  0  2  0  0  3  0  0  0  0  0  0
  160.1260  210.1310  154.7980 C   0  0  2  0  0  3  0  0  0  0  0  0
  160.7410  207.9240  151.9420 C   0  0  0  0  0  1  0  0  0  0  0  0
  159.0590  212.0420  153.8510 C   0  0  1  0  0  3  0  0  0  0  0  0
  1 16  1  0  0  0  0
  2  8  2  0  0  0  0
  3 17  1  0  0  0  0
  4 20  1  0  0  0  0
  5 27  1  6  0  0  0
  5 24  1  0  0  0  0
  6  1  1  0  0  0  0
  8 14  1  0  0  0  0
  8  7  2  0  0  0  0
  9 14  2  0  0  0  0
  9 18  1  0  0  0  0
 10  8  1  1  0  0  0
 11 15  2  0  0  0  0
 12 24  1  0  0  0  0
 12 28  1  0  0  0  0
 13  9  1  0  0  0  0
 15 23  1  0  0  0  0
 15 19  1  0  0  0  0
 16 28  1  0  0  0  0
 16 20  2  0  0  0  0
 17 25  1  0  0  0  0
 17  5  1  0  0  0  0
 19 25  1  0  0  0  0
 21  1  2  0  0  0  0
 21 22  1  0  0  0  0
 22  4  2  0  0  0  0
 23  6  1  0  0  0  0
 24 26  1  0  0  0  0
 25 12  1  0  0  0  0
 26 13  1  0  0  0  0
 26 10  1  0  0  0  0
 28 10  1  0  0  0  0
M  END
>  <MODEL>
2

>  <REMARK>
 VINA RESULT:      -2.0      2.415      5.795
  Name = 
  0 active torsions:
  status: ('A' for Active; 'I' for Inactive)
                            x       y       z     vdW  Elec       q    Type
                         _______ _______ _______ _____ _____    ______ ____

>  <TORSDO>
F 0

$$$$
