=
 OpenBabel11122414123D

 28 32  0  0  1  0  0  0  0  0999 V2000
  158.4290  212.2190  152.9370 C   0  0  0  0  0  0  0  0  0  0  0  0
  161.2730  210.4060  150.1130 O   0  0  0  0  0  0  0  0  0  0  0  0
  162.6600  210.6060  157.0760 O   0  0  0  0  0  1  0  0  0  0  0  0
  159.8130  213.6690  150.9740 C   0  0  0  0  0  3  0  0  0  0  0  0
  161.5670  208.9120  155.8970 N   0  0  0  0  0  0  0  0  0  0  0  0
  157.6580  211.6040  154.0670 C   0  0  0  0  0  2  0  0  0  0  0  0
  163.1060  210.0200  151.7060 O   0  0  0  0  0  0  0  0  0  0  0  0
  161.7630  209.5350  151.2340 S   0  0  0  0  0  0  0  0  0  0  0  0
  162.0500  206.7660  152.1450 C   0  0  2  0  0  3  0  0  0  0  0  0
  160.6110  209.5230  152.5350 N   0  0  1  0  0  0  0  0  0  0  0  0
  159.4060  214.0340  155.6430 O   0  0  0  0  0  0  0  0  0  0  0  0
  160.1140  210.3700  154.6760 C   0  0  1  0  0  3  0  0  0  0  0  0
  160.9200  207.1550  153.0890 C   0  0  0  0  0  2  0  0  0  0  0  0
  161.9080  207.5680  150.5050 S   0  0  0  0  0  0  0  0  0  0  0  0
  158.9350  212.8820  155.8280 C   0  0  0  0  0  0  0  0  0  0  0  0
  159.7810  211.8810  152.6330 C   0  0  0  0  0  0  0  0  0  0  0  0
  161.4100  210.1470  156.6610 C   0  0  2  0  0  3  0  0  0  0  0  0
  162.0560  205.2630  151.9630 C   0  0  0  0  0  1  0  0  0  0  0  0
  159.7210  211.8890  156.4900 N   0  0  0  0  0  2  0  0  0  0  0  0
  160.4530  212.6400  151.6660 C   0  0  0  0  0  3  0  0  0  0  0  0
  157.7970  213.2520  152.2300 C   0  0  0  0  0  3  0  0  0  0  0  0
  158.4800  213.9670  151.2470 C   0  0  0  0  0  3  0  0  0  0  0  0
  157.5810  212.5370  155.2840 C   0  0  0  0  0  2  0  0  0  0  0  0
  160.5430  208.9400  154.8590 C   0  0  1  0  0  3  0  0  0  0  0  0
  160.7620  211.1790  155.7630 C   0  0  2  0  0  3  0  0  0  0  0  0
  161.1460  208.5900  153.5170 C   0  0  2  0  0  3  0  0  0  0  0  0
  161.2330  207.8160  156.7910 C   0  0  0  0  0  1  0  0  0  0  0  0
  160.5920  210.7720  153.2920 C   0  0  2  0  0  3  0  0  0  0  0  0
  1  6  1  0  0  0  0
  2  8  2  0  0  0  0
  4 22  2  0  0  0  0
  4 20  1  0  0  0  0
  5 17  1  0  0  0  0
  5 27  1  0  0  0  0
  6 23  1  0  0  0  0
  8  7  2  0  0  0  0
  9 18  1  6  0  0  0
  9 13  1  0  0  0  0
 10  8  1  6  0  0  0
 10 28  1  0  0  0  0
 10 26  1  0  0  0  0
 11 15  2  0  0  0  0
 12 24  1  0  0  0  0
 12 25  1  0  0  0  0
 13 26  1  0  0  0  0
 14  8  1  0  0  0  0
 14  9  1  0  0  0  0
 15 19  1  0  0  0  0
 16  1  1  0  0  0  0
 16 28  1  0  0  0  0
 17  3  1  0  0  0  0
 20 16  2  0  0  0  0
 21  1  2  0  0  0  0
 22 21  1  0  0  0  0
 23 15  1  0  0  0  0
 24  5  1  0  0  0  0
 25 19  1  0  0  0  0
 25 17  1  0  0  0  0
 26 24  1  0  0  0  0
 28 12  1  0  0  0  0
M  END
>  <MODEL>
1

>  <REMARK>
 VINA RESULT:      -6.4      0.000      0.000
  Name = 
  0 active torsions:
  status: ('A' for Active; 'I' for Inactive)
                            x       y       z     vdW  Elec       q    Type
                         _______ _______ _______ _____ _____    ______ ____

>  <TORSDO>
F 0

$$$$
=
 OpenBabel11122414123D

 28 32  0  0  1  0  0  0  0  0999 V2000
  160.6750  209.4780  154.4750 C   0  0  0  0  0  0  0  0  0  0  0  0
  159.1010  212.4980  157.2610 O   0  0  0  0  0  0  0  0  0  0  0  0
  160.5640  214.1600  150.5120 O   0  0  0  0  0  1  0  0  0  0  0  0
  162.0850  210.4210  156.7100 C   0  0  0  0  0  3  0  0  0  0  0  0
  158.5320  213.3960  151.3750 N   0  0  0  0  0  0  0  0  0  0  0  0
  160.0810  208.9150  153.2180 C   0  0  0  0  0  2  0  0  0  0  0  0
  159.3280  214.4490  155.7810 O   0  0  0  0  0  0  0  0  0  0  0  0
  158.5170  213.2180  156.0790 S   0  0  0  0  0  0  0  0  0  0  0  0
  156.0220  214.1350  154.8490 C   0  0  2  0  0  3  0  0  0  0  0  0
  158.4530  212.1630  154.7010 N   0  0  1  0  0  0  0  0  0  0  0  0
  163.0150  210.1820  152.1080 O   0  0  0  0  0  0  0  0  0  0  0  0
  159.4750  211.6050  152.6530 C   0  0  1  0  0  3  0  0  0  0  0  0
  156.3010  212.9980  153.8760 C   0  0  0  0  0  2  0  0  0  0  0  0
  156.5380  213.7430  156.5610 S   0  0  0  0  0  0  0  0  0  0  0  0
  161.8290  209.9770  151.7410 C   0  0  0  0  0  0  0  0  0  0  0  0
  160.5810  210.8550  154.8390 C   0  0  0  0  0  0  0  0  0  0  0  0
  159.8040  213.0180  150.7650 C   0  0  2  0  0  3  0  0  0  0  0  0
  154.5420  214.4530  154.8380 C   0  0  0  0  0  1  0  0  0  0  0  0
  161.1220  210.9890  151.0220 N   0  0  0  0  0  2  0  0  0  0  0  0
  161.3170  211.3000  155.9450 C   0  0  0  0  0  3  0  0  0  0  0  0
  161.4460  208.6060  155.2550 C   0  0  0  0  0  3  0  0  0  0  0  0
  162.1400  209.0710  156.3720 C   0  0  0  0  0  3  0  0  0  0  0  0
  161.1410  208.7030  152.1280 C   0  0  0  0  0  2  0  0  0  0  0  0
  158.2040  212.3390  152.3230 C   0  0  1  0  0  3  0  0  0  0  0  0
  160.5440  212.1200  151.7330 C   0  0  2  0  0  3  0  0  0  0  0  0
  157.7980  212.9340  153.6540 C   0  0  2  0  0  3  0  0  0  0  0  0
  157.5290  213.3500  150.3250 C   0  0  0  0  0  1  0  0  0  0  0  0
  159.7660  211.9160  154.1100 C   0  0  2  0  0  3  0  0  0  0  0  0
  1 16  2  0  0  0  0
  1 21  1  0  0  0  0
  3 17  1  0  0  0  0
  5 24  1  0  0  0  0
  6  1  1  0  0  0  0
  7  8  2  0  0  0  0
  8 14  1  0  0  0  0
  8  2  2  0  0  0  0
  9 18  1  1  0  0  0
  9 14  1  0  0  0  0
 10  8  1  1  0  0  0
 12 28  1  0  0  0  0
 13  9  1  0  0  0  0
 15 11  2  0  0  0  0
 15 23  1  0  0  0  0
 16 20  1  0  0  0  0
 17  5  1  0  0  0  0
 17 25  1  0  0  0  0
 19 25  1  0  0  0  0
 19 15  1  0  0  0  0
 20  4  2  0  0  0  0
 21 22  2  0  0  0  0
 22  4  1  0  0  0  0
 23  6  1  0  0  0  0
 24 12  1  0  0  0  0
 24 26  1  0  0  0  0
 25 12  1  0  0  0  0
 26 13  1  0  0  0  0
 26 10  1  0  0  0  0
 27  5  1  0  0  0  0
 28 10  1  0  0  0  0
 28 16  1  0  0  0  0
M  END
>  <MODEL>
2

>  <REMARK>
 VINA RESULT:      -4.7      2.801      6.705
  Name = 
  0 active torsions:
  status: ('A' for Active; 'I' for Inactive)
                            x       y       z     vdW  Elec       q    Type
                         _______ _______ _______ _____ _____    ______ ____

>  <TORSDO>
F 0

$$$$
