=
 OpenBabel11122413193D

 31 35  0  0  1  0  0  0  0  0999 V2000
  160.9280  202.0740  150.7660 C   0  0  0  0  0  0  0  0  0  0  0  0
  161.1960  205.4590  149.1380 C   0  0  0  0  0  0  0  0  0  0  0  0
  161.2380  205.2490  147.7270 C   0  0  0  0  0  0  0  0  0  0  0  0
  161.1440  208.0720  153.7200 O   0  0  0  0  0  0  0  0  0  0  0  0
  161.2550  208.8940  152.7720 C   0  0  0  0  0  0  0  0  0  0  0  0
  161.2290  203.8140  145.7510 C   0  0  0  0  0  0  0  0  0  0  0  0
  161.0960  204.4220  150.1130 C   0  0  0  0  0  0  0  0  0  0  0  0
  160.8980  202.4380  152.1110 C   0  0  0  0  0  3  0  0  0  0  0  0
  161.1840  203.9740  147.1380 C   0  0  0  0  0  3  0  0  0  0  0  0
  161.2220  207.0840  150.9670 C   0  0  0  0  0  0  0  0  0  0  0  0
  160.8630  200.7680  150.4160 F   0  0  0  0  0  0  0  0  0  0  0  0
  161.3930  207.6180  147.3940 N   0  0  0  0  0  0  0  0  0  0  0  0
  161.1730  202.5420  145.1970 O   0  0  0  0  0  1  0  0  0  0  0  0
  161.1260  206.0720  151.8650 N   0  0  0  0  0  0  0  0  0  0  0  0
  161.2580  206.8000  149.5960 C   0  0  0  0  0  0  0  0  0  0  0  0
  161.2870  208.4470  151.4110 N   0  0  0  0  0  2  0  0  0  0  0  0
  161.0260  203.0570  149.7800 C   0  0  0  0  0  3  0  0  0  0  0  0
  161.3280  204.9320  144.9230 C   0  0  0  0  0  3  0  0  0  0  0  0
  161.0630  204.7730  151.4870 C   0  0  0  0  0  0  0  0  0  0  0  0
  160.9650  203.7840  152.4710 C   0  0  0  0  0  3  0  0  0  0  0  0
  161.3550  207.8240  148.7070 N   0  0  0  0  0  0  0  0  0  0  0  0
  161.3390  206.3710  146.8710 C   0  0  0  0  0  0  0  0  0  0  0  0
  161.3830  206.2090  145.4830 C   0  0  0  0  0  3  0  0  0  0  0  0
  160.5180  210.9720  155.8060 C   0  0  1  0  0  3  0  0  0  0  0  0
  162.3060  210.6470  154.1490 N   0  0  0  0  0  2  0  0  0  0  0  0
  159.0370  210.6690  152.4130 F   0  0  0  0  0  0  0  0  0  0  0  0
  160.0740  210.5710  157.0510 F   0  0  0  0  0  0  0  0  0  0  0  0
  161.8010  210.2230  155.4580 C   0  0  0  0  0  2  0  0  0  0  0  0
  159.9690  211.0200  153.3730 C   0  0  2  0  0  3  0  0  0  0  0  0
  161.3300  210.3610  153.0890 C   0  0  2  0  0  3  0  0  0  0  0  0
  159.4530  210.6630  154.7640 C   0  0  0  0  0  2  0  0  0  0  0  0
  1  8  1  0  0  0  0
  2 15  1  0  0  0  0
  2  7  1  0  0  0  0
  3  2  2  0  0  0  0
  5  4  2  0  0  0  0
  6  9  2  0  0  0  0
  7 19  2  0  0  0  0
  8 20  2  0  0  0  0
  9  3  1  0  0  0  0
 10 16  1  0  0  0  0
 10 14  2  0  0  0  0
 11  1  1  0  0  0  0
 12 21  1  0  0  0  0
 13  6  1  0  0  0  0
 15 10  1  0  0  0  0
 16  5  1  0  0  0  0
 17  7  1  0  0  0  0
 17  1  2  0  0  0  0
 18 23  2  0  0  0  0
 18  6  1  0  0  0  0
 19 14  1  0  0  0  0
 19 20  1  0  0  0  0
 21 15  2  0  0  0  0
 22 12  2  0  0  0  0
 22  3  1  0  0  0  0
 23 22  1  0  0  0  0
 24 27  1  1  0  0  0
 25 28  1  0  0  0  0
 28 24  1  0  0  0  0
 29 26  1  6  0  0  0
 29 31  1  0  0  0  0
 30  5  1  1  0  0  0
 30 29  1  0  0  0  0
 30 25  1  0  0  0  0
 31 24  1  0  0  0  0
M  END
>  <MODEL>
1

>  <REMARK>
 VINA RESULT:     -11.2      0.000      0.000
  Name = 
  1 active torsions:
  status: ('A' for Active; 'I' for Inactive)
    1  A    between atoms: C_5  and  C_30
                            x       y       z     vdW  Elec       q    Type
                         _______ _______ _______ _____ _____    ______ ____

>  <TORSDO>
F 1

$$$$
=
 OpenBabel11122413193D

 31 35  0  0  1  0  0  0  0  0999 V2000
  160.8700  202.0090  150.6830 C   0  0  0  0  0  0  0  0  0  0  0  0
  161.2010  205.4530  149.1970 C   0  0  0  0  0  0  0  0  0  0  0  0
  161.2270  205.3030  147.7780 C   0  0  0  0  0  0  0  0  0  0  0  0
  161.2480  207.8700  153.8860 O   0  0  0  0  0  0  0  0  0  0  0  0
  161.3700  208.7280  152.9730 C   0  0  0  0  0  0  0  0  0  0  0  0
  161.1680  203.9530  145.7440 C   0  0  0  0  0  0  0  0  0  0  0  0
  161.0850  204.3780  150.1290 C   0  0  0  0  0  0  0  0  0  0  0  0
  160.8590  202.3160  152.0430 C   0  0  0  0  0  3  0  0  0  0  0  0
  161.1380  204.0550  147.1360 C   0  0  0  0  0  3  0  0  0  0  0  0
  161.2810  206.9980  151.0930 C   0  0  0  0  0  0  0  0  0  0  0  0
  160.7720  200.7210  150.2780 F   0  0  0  0  0  0  0  0  0  0  0  0
  161.4340  207.6800  147.5440 N   0  0  0  0  0  0  0  0  0  0  0  0
  161.0790  202.7080  145.1360 O   0  0  0  0  0  1  0  0  0  0  0  0
  161.1690  205.9510  151.9480 N   0  0  0  0  0  0  0  0  0  0  0  0
  161.2980  206.7720  149.7110 C   0  0  0  0  0  0  0  0  0  0  0  0
  161.3810  208.3390  151.5930 N   0  0  0  0  0  2  0  0  0  0  0  0
  160.9820  203.0310  149.7380 C   0  0  0  0  0  3  0  0  0  0  0  0
  161.2850  205.1030  144.9630 C   0  0  0  0  0  3  0  0  0  0  0  0
  161.0720  204.6710  151.5160 C   0  0  0  0  0  0  0  0  0  0  0  0
  160.9600  203.6430  152.4580 C   0  0  0  0  0  3  0  0  0  0  0  0
  161.4110  207.8300  148.8650 N   0  0  0  0  0  0  0  0  0  0  0  0
  161.3460  206.4580  146.9690 C   0  0  0  0  0  0  0  0  0  0  0  0
  161.3750  206.3540  145.5760 C   0  0  0  0  0  3  0  0  0  0  0  0
  158.9400  211.3400  154.1290 C   0  0  1  0  0  3  0  0  0  0  0  0
  161.1280  210.4110  154.7570 N   0  0  0  0  0  2  0  0  0  0  0  0
  161.0110  210.8500  151.0840 F   0  0  0  0  0  0  0  0  0  0  0  0
  157.5820  211.2290  154.3550 F   0  0  0  0  0  0  0  0  0  0  0  0
  159.6810  210.2990  154.9620 C   0  0  0  0  0  2  0  0  0  0  0  0
  160.7350  211.1390  152.4090 C   0  0  2  0  0  3  0  0  0  0  0  0
  161.4820  210.1790  153.3510 C   0  0  2  0  0  3  0  0  0  0  0  0
  159.2300  211.1070  152.6540 C   0  0  0  0  0  2  0  0  0  0  0  0
  1  8  1  0  0  0  0
  2 15  1  0  0  0  0
  2  7  1  0  0  0  0
  3  2  2  0  0  0  0
  5  4  2  0  0  0  0
  6  9  2  0  0  0  0
  7 19  2  0  0  0  0
  8 20  2  0  0  0  0
  9  3  1  0  0  0  0
 10 16  1  0  0  0  0
 10 14  2  0  0  0  0
 11  1  1  0  0  0  0
 12 21  1  0  0  0  0
 13  6  1  0  0  0  0
 15 10  1  0  0  0  0
 16  5  1  0  0  0  0
 17  7  1  0  0  0  0
 17  1  2  0  0  0  0
 18 23  2  0  0  0  0
 18  6  1  0  0  0  0
 19 14  1  0  0  0  0
 19 20  1  0  0  0  0
 21 15  2  0  0  0  0
 22 12  2  0  0  0  0
 22  3  1  0  0  0  0
 23 22  1  0  0  0  0
 24 27  1  6  0  0  0
 24 28  1  0  0  0  0
 25 28  1  0  0  0  0
 29 26  1  6  0  0  0
 29 31  1  0  0  0  0
 29 30  1  0  0  0  0
 30  5  1  6  0  0  0
 30 25  1  0  0  0  0
 31 24  1  0  0  0  0
M  END
>  <MODEL>
2

>  <REMARK>
 VINA RESULT:     -11.0      0.981      1.115
  Name = 
  1 active torsions:
  status: ('A' for Active; 'I' for Inactive)
    1  A    between atoms: C_5  and  C_30
                            x       y       z     vdW  Elec       q    Type
                         _______ _______ _______ _____ _____    ______ ____

>  <TORSDO>
F 1

$$$$
=
 OpenBabel11122413193D

 31 35  0  0  1  0  0  0  0  0999 V2000
  161.1230  204.6790  152.4040 C   0  0  0  0  0  0  0  0  0  0  0  0
  161.3950  205.7470  148.8030 C   0  0  0  0  0  0  0  0  0  0  0  0
  161.3280  204.5670  148.0040 C   0  0  0  0  0  0  0  0  0  0  0  0
  161.7670  210.8780  149.9730 O   0  0  0  0  0  0  0  0  0  0  0  0
  161.8380  210.7280  148.7240 C   0  0  0  0  0  0  0  0  0  0  0  0
  161.1250  202.1490  147.7280 C   0  0  0  0  0  0  0  0  0  0  0  0
  161.3270  205.7710  150.2280 C   0  0  0  0  0  0  0  0  0  0  0  0
  161.2020  205.9140  153.0450 C   0  0  0  0  0  3  0  0  0  0  0  0
  161.1850  203.2780  148.5470 C   0  0  0  0  0  3  0  0  0  0  0  0
  161.6110  208.1840  148.8410 C   0  0  0  0  0  0  0  0  0  0  0  0
  160.9860  203.5450  153.1310 F   0  0  0  0  0  0  0  0  0  0  0  0
  161.5440  205.9090  146.0290 N   0  0  0  0  0  0  0  0  0  0  0  0
  160.9840  200.8880  148.2920 O   0  0  0  0  0  1  0  0  0  0  0  0
  161.5430  208.1680  150.1950 N   0  0  0  0  0  0  0  0  0  0  0  0
  161.5380  206.9840  148.1230 C   0  0  0  0  0  0  0  0  0  0  0  0
  161.7570  209.4250  148.1340 N   0  0  0  0  0  2  0  0  0  0  0  0
  161.1840  204.6110  151.0110 C   0  0  0  0  0  3  0  0  0  0  0  0
  161.2040  202.2880  146.3420 C   0  0  0  0  0  3  0  0  0  0  0  0
  161.4060  207.0180  150.8980 C   0  0  0  0  0  0  0  0  0  0  0  0
  161.3440  207.0810  152.2940 C   0  0  0  0  0  3  0  0  0  0  0  0
  161.6070  207.0140  146.7660 N   0  0  0  0  0  0  0  0  0  0  0  0
  161.4070  204.6880  146.5960 C   0  0  0  0  0  0  0  0  0  0  0  0
  161.3460  203.5560  145.7780 C   0  0  0  0  0  3  0  0  0  0  0  0
  160.0130  213.9900  148.4250 C   0  0  1  0  0  3  0  0  0  0  0  0
  162.3120  213.1450  148.6380 N   0  0  0  0  0  2  0  0  0  0  0  0
  160.4640  211.0270  146.2310 F   0  0  0  0  0  0  0  0  0  0  0  0
  158.9310  214.4530  149.1470 F   0  0  0  0  0  0  0  0  0  0  0  0
  161.1420  213.6190  149.3820 C   0  0  0  0  0  2  0  0  0  0  0  0
  160.8130  212.1890  146.8960 C   0  0  2  0  0  3  0  0  0  0  0  0
  161.9890  211.9450  147.8550 C   0  0  2  0  0  3  0  0  0  0  0  0
  159.6020  212.7610  147.6270 C   0  0  0  0  0  2  0  0  0  0  0  0
  1  8  1  0  0  0  0
  1 11  1  0  0  0  0
  2  7  1  0  0  0  0
  3  9  1  0  0  0  0
  3  2  2  0  0  0  0
  5  4  2  0  0  0  0
  6 13  1  0  0  0  0
  6  9  2  0  0  0  0
  7 19  2  0  0  0  0
  7 17  1  0  0  0  0
 10 14  2  0  0  0  0
 12 22  2  0  0  0  0
 12 21  1  0  0  0  0
 14 19  1  0  0  0  0
 15  2  1  0  0  0  0
 15 10  1  0  0  0  0
 16  5  1  0  0  0  0
 16 10  1  0  0  0  0
 17  1  2  0  0  0  0
 18  6  1  0  0  0  0
 19 20  1  0  0  0  0
 20  8  2  0  0  0  0
 21 15  2  0  0  0  0
 22  3  1  0  0  0  0
 23 18  2  0  0  0  0
 23 22  1  0  0  0  0
 24 27  1  1  0  0  0
 24 28  1  0  0  0  0
 25 28  1  0  0  0  0
 29 26  1  1  0  0  0
 29 31  1  0  0  0  0
 29 30  1  0  0  0  0
 30 25  1  0  0  0  0
 30  5  1  1  0  0  0
 31 24  1  0  0  0  0
M  END
>  <MODEL>
3

>  <REMARK>
 VINA RESULT:     -10.9      3.365      4.321
  Name = 
  1 active torsions:
  status: ('A' for Active; 'I' for Inactive)
    1  A    between atoms: C_5  and  C_30
                            x       y       z     vdW  Elec       q    Type
                         _______ _______ _______ _____ _____    ______ ____

>  <TORSDO>
F 1

$$$$
=
 OpenBabel11122413193D

 31 35  0  0  1  0  0  0  0  0999 V2000
  161.8470  206.9720  147.2870 C   0  0  0  0  0  0  0  0  0  0  0  0
  161.2470  205.0800  150.4870 C   0  0  0  0  0  0  0  0  0  0  0  0
  161.1120  203.7010  150.1460 C   0  0  0  0  0  0  0  0  0  0  0  0
  161.4810  209.3960  153.5110 O   0  0  0  0  0  0  0  0  0  0  0  0
  161.2490  208.3920  154.2340 C   0  0  0  0  0  0  0  0  0  0  0  0
  161.0620  201.8650  148.5370 C   0  0  0  0  0  0  0  0  0  0  0  0
  161.4850  206.1320  149.5520 C   0  0  0  0  0  0  0  0  0  0  0  0
  161.9560  208.2730  147.7740 C   0  0  0  0  0  3  0  0  0  0  0  0
  161.2010  203.2240  148.8260 C   0  0  0  0  0  3  0  0  0  0  0  0
  161.2580  206.7560  152.2700 C   0  0  0  0  0  0  0  0  0  0  0  0
  161.9660  206.7330  145.9600 F   0  0  0  0  0  0  0  0  0  0  0  0
  160.7850  203.1750  152.4620 N   0  0  0  0  0  0  0  0  0  0  0  0
  161.1540  201.4210  147.2250 O   0  0  0  0  0  1  0  0  0  0  0  0
  161.4840  207.7290  151.3520 N   0  0  0  0  0  0  0  0  0  0  0  0
  161.1360  205.4230  151.8590 C   0  0  0  0  0  0  0  0  0  0  0  0
  161.1410  207.0820  153.6620 N   0  0  0  0  0  2  0  0  0  0  0  0
  161.6140  205.9140  148.1680 C   0  0  0  0  0  3  0  0  0  0  0  0
  160.8310  200.9520  149.5670 C   0  0  0  0  0  3  0  0  0  0  0  0
  161.6000  207.4610  150.0290 C   0  0  0  0  0  0  0  0  0  0  0  0
  161.8320  208.5180  149.1420 C   0  0  0  0  0  3  0  0  0  0  0  0
  160.9100  204.4580  152.7890 N   0  0  0  0  0  0  0  0  0  0  0  0
  160.8770  202.7610  151.1770 C   0  0  0  0  0  0  0  0  0  0  0  0
  160.7390  201.4010  150.8850 C   0  0  0  0  0  3  0  0  0  0  0  0
  159.5560  210.9370  156.4070 C   0  0  1  0  0  3  0  0  0  0  0  0
  159.7060  208.4960  156.1540 N   0  0  0  0  0  2  0  0  0  0  0  0
  163.0840  209.9610  155.7730 F   0  0  0  0  0  0  0  0  0  0  0  0
  158.8200  212.0470  156.0390 F   0  0  0  0  0  0  0  0  0  0  0  0
  158.9560  209.6920  155.7610 C   0  0  0  0  0  2  0  0  0  0  0  0
  161.7950  209.8460  156.2630 C   0  0  2  0  0  3  0  0  0  0  0  0
  161.1060  208.5840  155.7180 C   0  0  2  0  0  3  0  0  0  0  0  0
  160.9950  211.1050  155.9420 C   0  0  0  0  0  2  0  0  0  0  0  0
  1  8  2  0  0  0  0
  1 17  1  0  0  0  0
  2 15  1  0  0  0  0
  3  2  2  0  0  0  0
  3 22  1  0  0  0  0
  4  5  2  0  0  0  0
  6  9  2  0  0  0  0
  6 18  1  0  0  0  0
  7 19  1  0  0  0  0
  7  2  1  0  0  0  0
  8 20  1  0  0  0  0
  9  3  1  0  0  0  0
 10 16  1  0  0  0  0
 11  1  1  0  0  0  0
 12 21  1  0  0  0  0
 13  6  1  0  0  0  0
 14 10  2  0  0  0  0
 15 10  1  0  0  0  0
 15 21  2  0  0  0  0
 16  5  1  0  0  0  0
 17  7  2  0  0  0  0
 18 23  2  0  0  0  0
 19 14  1  0  0  0  0
 20 19  2  0  0  0  0
 22 12  2  0  0  0  0
 23 22  1  0  0  0  0
 24 27  1  6  0  0  0
 28 25  1  0  0  0  0
 28 24  1  0  0  0  0
 29 26  1  6  0  0  0
 30  5  1  6  0  0  0
 30 25  1  0  0  0  0
 30 29  1  0  0  0  0
 31 29  1  0  0  0  0
 31 24  1  0  0  0  0
M  END
>  <MODEL>
4

>  <REMARK>
 VINA RESULT:     -10.2      2.410      4.178
  Name = 
  1 active torsions:
  status: ('A' for Active; 'I' for Inactive)
    1  A    between atoms: C_5  and  C_30
                            x       y       z     vdW  Elec       q    Type
                         _______ _______ _______ _____ _____    ______ ____

>  <TORSDO>
F 1

$$$$
=
 OpenBabel11122413193D

 31 35  0  0  1  0  0  0  0  0999 V2000
  161.8960  206.9860  147.2480 C   0  0  0  0  0  0  0  0  0  0  0  0
  161.3030  205.6780  150.7290 C   0  0  0  0  0  0  0  0  0  0  0  0
  161.1490  204.2640  150.6310 C   0  0  0  0  0  0  0  0  0  0  0  0
  161.6120  210.4460  152.9660 O   0  0  0  0  0  0  0  0  0  0  0  0
  161.3740  209.5840  153.8530 C   0  0  0  0  0  0  0  0  0  0  0  0
  161.0640  202.1790  149.3620 C   0  0  0  0  0  0  0  0  0  0  0  0
  161.5440  206.5510  149.6260 C   0  0  0  0  0  0  0  0  0  0  0  0
  162.0240  208.3500  147.5040 C   0  0  0  0  0  3  0  0  0  0  0  0
  161.2210  203.5660  149.4120 C   0  0  0  0  0  3  0  0  0  0  0  0
  161.3480  207.6350  152.1980 C   0  0  0  0  0  0  0  0  0  0  0  0
  162.0010  206.5220  145.9810 F   0  0  0  0  0  0  0  0  0  0  0  0
  160.8360  204.1470  153.0050 N   0  0  0  0  0  0  0  0  0  0  0  0
  161.1400  201.5160  148.1440 O   0  0  0  0  0  1  0  0  0  0  0  0
  161.5770  208.4330  151.1250 N   0  0  0  0  0  0  0  0  0  0  0  0
  161.2080  206.2530  152.0230 C   0  0  0  0  0  0  0  0  0  0  0  0
  161.2470  208.1970  153.5150 N   0  0  0  0  0  2  0  0  0  0  0  0
  161.6590  206.0980  148.2990 C   0  0  0  0  0  3  0  0  0  0  0  0
  160.8330  201.4600  150.5340 C   0  0  0  0  0  3  0  0  0  0  0  0
  161.6780  207.9420  149.8670 C   0  0  0  0  0  0  0  0  0  0  0  0
  161.9150  208.8270  148.8110 C   0  0  0  0  0  3  0  0  0  0  0  0
  160.9780  205.4650  153.1070 N   0  0  0  0  0  0  0  0  0  0  0  0
  160.9130  203.5170  151.8090 C   0  0  0  0  0  0  0  0  0  0  0  0
  160.7570  202.1290  151.7560 C   0  0  0  0  0  3  0  0  0  0  0  0
  160.3460  207.9100  157.0480 C   0  0  1  0  0  3  0  0  0  0  0  0
  162.1690  209.3070  156.1700 N   0  0  0  0  0  2  0  0  0  0  0  0
  158.9370  210.6230  154.9370 F   0  0  0  0  0  0  0  0  0  0  0  0
  159.9550  206.6030  157.2610 F   0  0  0  0  0  0  0  0  0  0  0  0
  161.7210  207.9290  156.3870 C   0  0  0  0  0  2  0  0  0  0  0  0
  159.8080  210.0170  155.8250 C   0  0  2  0  0  3  0  0  0  0  0  0
  161.2470  210.0290  155.2830 C   0  0  2  0  0  3  0  0  0  0  0  0
  159.3390  208.6000  156.1390 C   0  0  0  0  0  2  0  0  0  0  0  0
  1  8  2  0  0  0  0
  1 17  1  0  0  0  0
  2 15  1  0  0  0  0
  3  2  2  0  0  0  0
  3 22  1  0  0  0  0
  4  5  2  0  0  0  0
  6  9  2  0  0  0  0
  6 18  1  0  0  0  0
  7 19  1  0  0  0  0
  7  2  1  0  0  0  0
  8 20  1  0  0  0  0
  9  3  1  0  0  0  0
 10 16  1  0  0  0  0
 11  1  1  0  0  0  0
 12 21  1  0  0  0  0
 13  6  1  0  0  0  0
 14 10  2  0  0  0  0
 15 10  1  0  0  0  0
 15 21  2  0  0  0  0
 16  5  1  0  0  0  0
 17  7  2  0  0  0  0
 18 23  2  0  0  0  0
 19 14  1  0  0  0  0
 20 19  2  0  0  0  0
 22 12  2  0  0  0  0
 23 22  1  0  0  0  0
 24 27  1  6  0  0  0
 25 28  1  0  0  0  0
 28 24  1  0  0  0  0
 29 26  1  6  0  0  0
 29 31  1  0  0  0  0
 30  5  1  6  0  0  0
 30 29  1  0  0  0  0
 30 25  1  0  0  0  0
 31 24  1  0  0  0  0
M  END
>  <MODEL>
5

>  <REMARK>
 VINA RESULT:      -9.5      2.281      4.225
  Name = 
  1 active torsions:
  status: ('A' for Active; 'I' for Inactive)
    1  A    between atoms: C_5  and  C_30
                            x       y       z     vdW  Elec       q    Type
                         _______ _______ _______ _____ _____    ______ ____

>  <TORSDO>
F 1

$$$$
=
 OpenBabel11122413193D

 31 35  0  0  1  0  0  0  0  0999 V2000
  161.1990  205.0850  151.8850 C   0  0  0  0  0  0  0  0  0  0  0  0
  161.1340  208.6720  153.0270 C   0  0  0  0  0  0  0  0  0  0  0  0
  160.8850  208.6660  154.4320 C   0  0  0  0  0  0  0  0  0  0  0  0
  162.0880  210.6040  148.2120 O   0  0  0  0  0  0  0  0  0  0  0  0
  161.9560  211.5570  149.0250 C   0  0  0  0  0  0  0  0  0  0  0  0
  160.4680  207.5250  156.5510 C   0  0  0  0  0  0  0  0  0  0  0  0
  161.2330  207.5050  152.2120 C   0  0  0  0  0  0  0  0  0  0  0  0
  161.4460  205.2520  150.5230 C   0  0  0  0  0  3  0  0  0  0  0  0
  160.7100  207.4860  155.1760 C   0  0  0  0  0  3  0  0  0  0  0  0
  161.5380  210.0210  151.0260 C   0  0  0  0  0  0  0  0  0  0  0  0
  161.0610  203.8400  152.4000 F   0  0  0  0  0  0  0  0  0  0  0  0
  160.9750  211.0610  154.4440 N   0  0  0  0  0  0  0  0  0  0  0  0
  160.2980  206.3440  157.2610 O   0  0  0  0  0  1  0  0  0  0  0  0
  161.6270  208.8890  150.2830 N   0  0  0  0  0  0  0  0  0  0  0  0
  161.2920  209.9360  152.4020 C   0  0  0  0  0  0  0  0  0  0  0  0
  161.6950  211.3090  150.4130 N   0  0  0  0  0  2  0  0  0  0  0  0
  161.0950  206.2000  152.7180 C   0  0  0  0  0  3  0  0  0  0  0  0
  160.3990  208.7520  157.2120 C   0  0  0  0  0  3  0  0  0  0  0  0
  161.4840  207.6560  150.8250 C   0  0  0  0  0  0  0  0  0  0  0  0
  161.5880  206.5350  149.9940 C   0  0  0  0  0  3  0  0  0  0  0  0
  161.2060  211.0770  153.1350 N   0  0  0  0  0  0  0  0  0  0  0  0
  160.8110  209.9000  155.1200 C   0  0  0  0  0  0  0  0  0  0  0  0
  160.5700  209.9380  156.4960 C   0  0  0  0  0  3  0  0  0  0  0  0
  160.0750  213.6760  146.5700 C   0  0  1  0  0  3  0  0  0  0  0  0
  160.9380  213.7960  148.8690 N   0  0  0  0  0  2  0  0  0  0  0  0
  163.4890  212.2200  146.7010 F   0  0  0  0  0  0  0  0  0  0  0  0
  158.9590  213.3600  145.8190 F   0  0  0  0  0  0  0  0  0  0  0  0
  159.7750  213.4450  148.0480 C   0  0  0  0  0  2  0  0  0  0  0  0
  162.4510  213.0730  147.0290 C   0  0  2  0  0  3  0  0  0  0  0  0
  162.0990  212.9660  148.5220 C   0  0  2  0  0  3  0  0  0  0  0  0
  161.2400  212.7940  146.1450 C   0  0  0  0  0  2  0  0  0  0  0  0
  1 11  1  0  0  0  0
  1 17  1  0  0  0  0
  2  3  1  0  0  0  0
  3 22  2  0  0  0  0
  3  9  1  0  0  0  0
  4  5  2  0  0  0  0
  5 16  1  0  0  0  0
  6 18  1  0  0  0  0
  6 13  1  0  0  0  0
  7 17  2  0  0  0  0
  7  2  1  0  0  0  0
  8  1  2  0  0  0  0
  9  6  2  0  0  0  0
 10 15  1  0  0  0  0
 12 22  1  0  0  0  0
 14 19  1  0  0  0  0
 14 10  2  0  0  0  0
 15  2  2  0  0  0  0
 15 21  1  0  0  0  0
 16 10  1  0  0  0  0
 19  7  1  0  0  0  0
 20  8  1  0  0  0  0
 20 19  2  0  0  0  0
 21 12  2  0  0  0  0
 22 23  1  0  0  0  0
 23 18  2  0  0  0  0
 24 27  1  6  0  0  0
 24 28  1  0  0  0  0
 28 25  1  0  0  0  0
 29 26  1  6  0  0  0
 29 30  1  0  0  0  0
 30 25  1  0  0  0  0
 30  5  1  6  0  0  0
 31 24  1  0  0  0  0
 31 29  1  0  0  0  0
M  END
>  <MODEL>
6

>  <REMARK>
 VINA RESULT:      -9.1      3.968      7.350
  Name = 
  1 active torsions:
  status: ('A' for Active; 'I' for Inactive)
    1  A    between atoms: C_5  and  C_30
                            x       y       z     vdW  Elec       q    Type
                         _______ _______ _______ _____ _____    ______ ____

>  <TORSDO>
F 1

$$$$
=
 OpenBabel11122413193D

 31 35  0  0  1  0  0  0  0  0999 V2000
  161.3230  203.9240  145.9830 C   0  0  0  0  0  0  0  0  0  0  0  0
  161.3380  205.7000  149.3030 C   0  0  0  0  0  0  0  0  0  0  0  0
  161.1660  204.7090  150.3150 C   0  0  0  0  0  0  0  0  0  0  0  0
  162.0390  210.4700  147.1620 O   0  0  0  0  0  0  0  0  0  0  0  0
  161.9560  210.5820  148.4140 C   0  0  0  0  0  0  0  0  0  0  0  0
  160.8580  202.4020  151.0550 C   0  0  0  0  0  0  0  0  0  0  0  0
  161.3870  205.4340  147.9020 C   0  0  0  0  0  0  0  0  0  0  0  0
  161.4970  205.0010  145.1140 C   0  0  0  0  0  3  0  0  0  0  0  0
  161.0250  203.3390  150.0330 C   0  0  0  0  0  3  0  0  0  0  0  0
  161.6400  208.0740  148.7930 C   0  0  0  0  0  0  0  0  0  0  0  0
  161.2070  202.6690  145.4900 F   0  0  0  0  0  0  0  0  0  0  0  0
  161.2680  206.4220  151.9900 N   0  0  0  0  0  0  0  0  0  0  0  0
  160.7220  201.0550  150.7480 O   0  0  0  0  0  1  0  0  0  0  0  0
  161.6820  207.7830  147.4690 N   0  0  0  0  0  0  0  0  0  0  0  0
  161.4680  207.0470  149.7300 C   0  0  0  0  0  0  0  0  0  0  0  0
  161.7690  209.4300  149.2450 N   0  0  0  0  0  2  0  0  0  0  0  0
  161.2700  204.1410  147.3610 C   0  0  0  0  0  3  0  0  0  0  0  0
  160.8310  202.8200  152.3860 C   0  0  0  0  0  3  0  0  0  0  0  0
  161.5630  206.5170  147.0040 C   0  0  0  0  0  0  0  0  0  0  0  0
  161.6160  206.2940  145.6240 C   0  0  0  0  0  3  0  0  0  0  0  0
  161.4280  207.3520  151.0530 N   0  0  0  0  0  0  0  0  0  0  0  0
  161.1350  205.1130  151.6710 C   0  0  0  0  0  0  0  0  0  0  0  0
  160.9690  204.1740  152.6930 C   0  0  0  0  0  3  0  0  0  0  0  0
  160.9700  214.0420  147.3560 C   0  0  1  0  0  3  0  0  0  0  0  0
  160.7660  212.5510  149.3000 N   0  0  0  0  0  2  0  0  0  0  0  0
  164.1980  212.2980  147.9370 F   0  0  0  0  0  0  0  0  0  0  0  0
  160.3330  214.4530  146.2010 F   0  0  0  0  0  0  0  0  0  0  0  0
  160.1210  212.9880  148.0580 C   0  0  0  0  0  2  0  0  0  0  0  0
  163.0000  212.9100  148.2610 C   0  0  2  0  0  3  0  0  0  0  0  0
  162.0780  211.9480  149.0290 C   0  0  2  0  0  3  0  0  0  0  0  0
  162.3260  213.4480  147.0030 C   0  0  0  0  0  2  0  0  0  0  0  0
  1 17  1  0  0  0  0
  2 15  2  0  0  0  0
  2  3  1  0  0  0  0
  3 22  1  0  0  0  0
  4  5  2  0  0  0  0
  5 16  1  0  0  0  0
  6 18  2  0  0  0  0
  7  2  1  0  0  0  0
  8 20  1  0  0  0  0
  8  1  2  0  0  0  0
  9  3  2  0  0  0  0
  9  6  1  0  0  0  0
 10 16  1  0  0  0  0
 10 15  1  0  0  0  0
 11  1  1  0  0  0  0
 13  6  1  0  0  0  0
 14 10  2  0  0  0  0
 15 21  1  0  0  0  0
 17  7  2  0  0  0  0
 18 23  1  0  0  0  0
 19 14  1  0  0  0  0
 19  7  1  0  0  0  0
 20 19  2  0  0  0  0
 21 12  2  0  0  0  0
 22 12  1  0  0  0  0
 22 23  2  0  0  0  0
 24 27  1  6  0  0  0
 24 28  1  0  0  0  0
 28 25  1  0  0  0  0
 29 26  1  6  0  0  0
 29 30  1  0  0  0  0
 30  5  1  6  0  0  0
 30 25  1  0  0  0  0
 31 24  1  0  0  0  0
 31 29  1  0  0  0  0
M  END
>  <MODEL>
7

>  <REMARK>
 VINA RESULT:      -8.3      3.931      5.816
  Name = 
  1 active torsions:
  status: ('A' for Active; 'I' for Inactive)
    1  A    between atoms: C_5  and  C_30
                            x       y       z     vdW  Elec       q    Type
                         _______ _______ _______ _____ _____    ______ ____

>  <TORSDO>
F 1

$$$$
