=
 OpenBabel11122412593D

 32 37  0  0  1  0  0  0  0  0999 V2000
  161.6230  207.1840  149.6880 C   0  0  0  0  0  0  0  0  0  0  0  0
  160.9300  203.8150  153.0830 C   0  0  0  0  0  3  0  0  0  0  0  0
  160.7910  202.8450  152.0920 C   0  0  0  0  0  3  0  0  0  0  0  0
  161.5840  206.5250  147.2610 C   0  0  0  0  0  0  0  0  0  0  0  0
  161.4320  205.4930  146.3460 C   0  0  0  0  0  0  0  0  0  0  0  0
  161.9990  209.4670  150.3500 N   0  0  0  0  0  0  0  0  0  0  0  0
  161.6600  207.7770  151.9890 C   0  0  0  0  0  3  0  0  0  0  0  0
  161.1010  203.4720  145.6320 C   0  0  0  0  0  0  0  0  0  0  0  0
  161.1740  205.1430  152.7270 C   0  0  0  0  0  3  0  0  0  0  0  0
  161.5210  206.8250  151.0160 N   0  0  0  0  0  0  0  0  0  0  0  0
  161.2820  205.5240  151.3730 C   0  0  0  0  0  0  0  0  0  0  0  0
  161.2440  204.8900  149.0220 C   0  0  0  0  0  0  0  0  0  0  0  0
  161.2760  204.2870  144.5650 N   0  0  0  0  0  0  0  0  0  0  0  0
  161.9150  209.1100  151.6660 C   0  0  0  0  0  0  0  0  0  0  0  0
  161.4810  205.5310  145.0010 N   0  0  0  0  0  0  0  0  0  0  0  0
  160.8950  203.2020  150.7480 C   0  0  0  0  0  3  0  0  0  0  0  0
  161.1400  204.5350  150.3760 C   0  0  0  0  0  0  0  0  0  0  0  0
  161.1020  203.9100  148.0700 N   0  0  0  0  0  0  0  0  0  0  0  0
  161.8610  208.5320  149.3750 C   0  0  0  0  0  3  0  0  0  0  0  0
  161.8020  207.6940  146.8420 O   0  0  0  0  0  0  0  0  0  0  0  0
  160.8470  202.0090  145.5520 C   0  0  0  0  0  1  0  0  0  0  0  0
  161.4840  206.2040  148.6600 C   0  0  0  0  0  0  0  0  0  0  0  0
  161.1990  204.2350  146.7640 C   0  0  0  0  0  0  0  0  0  0  0  0
  160.7570  210.7120  153.0130 O   0  0  0  0  0  0  0  0  0  0  0  0
  162.0180  210.1290  152.7670 C   0  0  1  0  0  3  0  0  0  0  0  0
  161.1810  209.7290  153.9230 C   0  0  1  0  0  3  0  0  0  0  0  0
  161.6860  210.4070  155.1820 C   0  0  0  0  0  2  0  0  0  0  0  0
  162.0250  209.3840  156.2090 C   0  0  0  0  0  0  0  0  0  0  0  0
  161.5440  208.0880  156.0840 O   0  0  0  0  0  0  0  0  0  0  0  0
  162.7730  209.6860  157.1750 O   0  0  0  0  0  1  0  0  0  0  0  0
  162.0260  211.0000  148.4480 C   0  0  0  0  0  1  0  0  0  0  0  0
  162.2300  210.8500  149.9450 C   0  0  0  0  0  2  0  0  0  0  0  0
  1 10  1  0  0  0  0
  3  2  2  0  0  0  0
  4 22  1  0  0  0  0
  5 23  1  0  0  0  0
  5  4  1  0  0  0  0
  6 14  1  0  0  0  0
  8 23  1  0  0  0  0
  9  2  1  0  0  0  0
 10 11  1  0  0  0  0
 10  7  1  0  0  0  0
 11  9  2  0  0  0  0
 12 17  1  0  0  0  0
 13 15  1  0  0  0  0
 13  8  2  0  0  0  0
 14  7  2  0  0  0  0
 15  5  2  0  0  0  0
 16  3  1  0  0  0  0
 17 16  2  0  0  0  0
 17 11  1  0  0  0  0
 18 12  1  0  0  0  0
 19  1  2  0  0  0  0
 19  6  1  0  0  0  0
 20  4  2  0  0  0  0
 21  8  1  0  0  0  0
 22 12  2  0  0  0  0
 22  1  1  0  0  0  0
 23 18  2  0  0  0  0
 24 26  1  0  0  0  0
 25 14  1  6  0  0  0
 25 24  1  0  0  0  0
 25 26  1  0  0  0  0
 26 27  1  1  0  0  0
 27 28  1  0  0  0  0
 28 30  1  0  0  0  0
 29 28  2  0  0  0  0
 31 32  1  0  0  0  0
 32  6  1  0  0  0  0
M  END
>  <MODEL>
1

>  <REMARK>
 VINA RESULT:      -9.1      0.000      0.000
  Name = 
  4 active torsions:
  status: ('A' for Active; 'I' for Inactive)
    1  A    between atoms: N_7  and  C_19
    2  A    between atoms: C_10  and  C_17
    3  A    between atoms: C_20  and  C_29
    4  A    between atoms: C_29  and  C_30
                            x       y       z     vdW  Elec       q    Type
                         _______ _______ _______ _____ _____    ______ ____

>  <TORSDO>
F 4

$$$$
=
 OpenBabel11122412593D

 32 37  0  0  1  0  0  0  0  0999 V2000
  161.2550  207.1610  152.5170 C   0  0  0  0  0  0  0  0  0  0  0  0
  162.1210  210.7790  149.4320 C   0  0  0  0  0  3  0  0  0  0  0  0
  162.1220  209.8740  148.3710 C   0  0  0  0  0  3  0  0  0  0  0  0
  161.0320  204.8130  151.6430 C   0  0  0  0  0  0  0  0  0  0  0  0
  161.0510  203.9890  150.5280 C   0  0  0  0  0  0  0  0  0  0  0  0
  161.0450  207.6380  154.8660 N   0  0  0  0  0  0  0  0  0  0  0  0
  161.4650  209.3900  153.3130 C   0  0  0  0  0  3  0  0  0  0  0  0
  161.2230  203.4390  148.4370 C   0  0  0  0  0  0  0  0  0  0  0  0
  161.9030  210.3240  150.7330 C   0  0  0  0  0  3  0  0  0  0  0  0
  161.4670  208.5020  152.2730 N   0  0  0  0  0  0  0  0  0  0  0  0
  161.6820  208.9560  150.9980 C   0  0  0  0  0  0  0  0  0  0  0  0
  161.4670  206.6810  150.1560 C   0  0  0  0  0  0  0  0  0  0  0  0
  160.9820  202.3210  149.1620 N   0  0  0  0  0  0  0  0  0  0  0  0
  161.2390  208.9680  154.6240 C   0  0  0  0  0  0  0  0  0  0  0  0
  160.8750  202.6550  150.4480 N   0  0  0  0  0  2  0  0  0  0  0  0
  161.9060  208.5180  148.6120 C   0  0  0  0  0  3  0  0  0  0  0  0
  161.6850  208.0470  149.9180 C   0  0  0  0  0  0  0  0  0  0  0  0
  161.4750  205.8150  149.0890 N   0  0  0  0  0  2  0  0  0  0  0  0
  161.0470  206.7470  153.8430 C   0  0  0  0  0  3  0  0  0  0  0  0
  160.8260  204.3080  152.7810 O   0  0  0  0  0  0  0  0  0  0  0  0
  161.4030  203.4730  146.9610 C   0  0  0  0  0  1  0  0  0  0  0  0
  161.2510  206.2210  151.4430 C   0  0  0  0  0  0  0  0  0  0  0  0
  161.2670  204.4990  149.3010 C   0  0  0  0  0  0  0  0  0  0  0  0
  161.1670  211.2820  155.2250 O   0  0  0  0  0  0  0  0  0  0  0  0
  161.2860  209.9750  155.7400 C   0  0  1  0  0  3  0  0  0  0  0  0
  160.0150  210.7320  155.8110 C   0  0  1  0  0  3  0  0  0  0  0  0
  159.8400  211.3160  157.1990 C   0  0  0  0  0  2  0  0  0  0  0  0
  158.7300  212.3080  157.1980 C   0  0  0  0  0  0  0  0  0  0  0  0
  157.4110  211.8760  157.2390 O   0  0  0  0  0  1  0  0  0  0  0  0
  158.9870  213.5400  157.1910 O   0  0  0  0  0  0  0  0  0  0  0  0
  159.3530  206.9580  156.4930 C   0  0  0  0  0  1  0  0  0  0  0  0
  160.8370  207.1290  156.2180 C   0  0  0  0  0  2  0  0  0  0  0  0
  1 19  2  0  0  0  0
  2  9  1  0  0  0  0
  3 16  1  0  0  0  0
  3  2  2  0  0  0  0
  4 20  2  0  0  0  0
  5  4  1  0  0  0  0
  6 32  1  0  0  0  0
  7 14  2  0  0  0  0
  8 13  2  0  0  0  0
  8 23  1  0  0  0  0
  9 11  2  0  0  0  0
 10  1  1  0  0  0  0
 10  7  1  0  0  0  0
 11 10  1  0  0  0  0
 12 22  2  0  0  0  0
 13 15  1  0  0  0  0
 14  6  1  0  0  0  0
 15  5  1  0  0  0  0
 16 17  2  0  0  0  0
 17 12  1  0  0  0  0
 17 11  1  0  0  0  0
 18 23  1  0  0  0  0
 18 12  1  0  0  0  0
 19  6  1  0  0  0  0
 21  8  1  0  0  0  0
 22  4  1  0  0  0  0
 22  1  1  0  0  0  0
 23  5  2  0  0  0  0
 24 25  1  0  0  0  0
 24 26  1  0  0  0  0
 25 14  1  6  0  0  0
 25 26  1  0  0  0  0
 26 27  1  1  0  0  0
 28 27  1  0  0  0  0
 28 29  1  0  0  0  0
 30 28  2  0  0  0  0
 32 31  1  0  0  0  0
M  END
>  <MODEL>
2

>  <REMARK>
 VINA RESULT:      -9.0      2.437      4.799
  Name = 
  4 active torsions:
  status: ('A' for Active; 'I' for Inactive)
    1  A    between atoms: N_7  and  C_19
    2  A    between atoms: C_10  and  C_17
    3  A    between atoms: C_20  and  C_29
    4  A    between atoms: C_29  and  C_30
                            x       y       z     vdW  Elec       q    Type
                         _______ _______ _______ _____ _____    ______ ____

>  <TORSDO>
F 4

$$$$
=
 OpenBabel11122412593D

 32 37  0  0  1  0  0  0  0  0999 V2000
  161.1840  206.7600  151.2600 C   0  0  0  0  0  0  0  0  0  0  0  0
  162.0870  210.6080  148.4810 C   0  0  0  0  0  3  0  0  0  0  0  0
  162.1670  211.4110  149.6180 C   0  0  0  0  0  3  0  0  0  0  0  0
  161.0800  207.0320  153.7580 C   0  0  0  0  0  0  0  0  0  0  0  0
  161.1780  207.9060  154.8310 C   0  0  0  0  0  0  0  0  0  0  0  0
  160.8390  204.6130  150.2280 N   0  0  0  0  0  0  0  0  0  0  0  0
  161.2920  206.5320  148.8970 C   0  0  0  0  0  3  0  0  0  0  0  0
  161.4690  209.7870  155.8700 C   0  0  0  0  0  0  0  0  0  0  0  0
  161.8210  209.2440  148.6100 C   0  0  0  0  0  3  0  0  0  0  0  0
  161.3690  207.3190  150.0130 N   0  0  0  0  0  0  0  0  0  0  0  0
  161.6310  208.6570  149.8780 C   0  0  0  0  0  0  0  0  0  0  0  0
  161.5280  208.9160  152.2980 C   0  0  0  0  0  0  0  0  0  0  0  0
  161.2280  208.8180  156.7850 N   0  0  0  0  0  0  0  0  0  0  0  0
  161.0390  205.1630  148.9940 C   0  0  0  0  0  0  0  0  0  0  0  0
  161.0490  207.6590  156.1490 N   0  0  0  0  0  2  0  0  0  0  0  0
  161.9820  210.8500  150.8810 C   0  0  0  0  0  3  0  0  0  0  0  0
  161.7140  209.4770  151.0250 C   0  0  0  0  0  0  0  0  0  0  0  0
  161.6130  209.7350  153.3980 N   0  0  0  0  0  2  0  0  0  0  0  0
  160.9110  205.3840  151.3430 C   0  0  0  0  0  3  0  0  0  0  0  0
  160.8360  205.8130  153.9760 O   0  0  0  0  0  0  0  0  0  0  0  0
  161.7190  211.2170  156.1930 C   0  0  0  0  0  1  0  0  0  0  0  0
  161.2630  207.5650  152.4350 C   0  0  0  0  0  0  0  0  0  0  0  0
  161.4380  209.2110  154.6290 C   0  0  0  0  0  0  0  0  0  0  0  0
  162.1910  204.1750  147.1460 O   0  0  0  0  0  0  0  0  0  0  0  0
  160.9220  204.3450  147.7380 C   0  0  1  0  0  3  0  0  0  0  0  0
  161.6850  203.0810  147.8680 C   0  0  1  0  0  3  0  0  0  0  0  0
  161.1460  202.0520  146.8940 C   0  0  0  0  0  2  0  0  0  0  0  0
  161.3400  200.6820  147.4440 C   0  0  0  0  0  0  0  0  0  0  0  0
  161.4680  199.5990  146.5840 O   0  0  0  0  0  0  0  0  0  0  0  0
  161.4200  200.5080  148.6870 O   0  0  0  0  0  1  0  0  0  0  0  0
  161.2190  202.6550  151.6390 C   0  0  0  0  0  1  0  0  0  0  0  0
  160.5360  203.1950  150.3940 C   0  0  0  0  0  2  0  0  0  0  0  0
  1 19  2  0  0  0  0
  1 22  1  0  0  0  0
  2  9  2  0  0  0  0
  2  3  1  0  0  0  0
  3 16  2  0  0  0  0
  4 20  2  0  0  0  0
  4  5  1  0  0  0  0
  5 15  1  0  0  0  0
  6 32  1  0  0  0  0
  6 19  1  0  0  0  0
  7 14  2  0  0  0  0
  7 10  1  0  0  0  0
  8 21  1  0  0  0  0
  8 13  2  0  0  0  0
  9 11  1  0  0  0  0
 10  1  1  0  0  0  0
 11 10  1  0  0  0  0
 11 17  2  0  0  0  0
 12 22  2  0  0  0  0
 12 18  1  0  0  0  0
 14  6  1  0  0  0  0
 15 13  1  0  0  0  0
 16 17  1  0  0  0  0
 17 12  1  0  0  0  0
 18 23  1  0  0  0  0
 22  4  1  0  0  0  0
 23  5  2  0  0  0  0
 23  8  1  0  0  0  0
 24 25  1  0  0  0  0
 24 26  1  0  0  0  0
 25 26  1  0  0  0  0
 25 14  1  1  0  0  0
 26 27  1  6  0  0  0
 27 28  1  0  0  0  0
 28 30  1  0  0  0  0
 29 28  2  0  0  0  0
 32 31  1  0  0  0  0
M  END
>  <MODEL>
3

>  <REMARK>
 VINA RESULT:      -8.5      2.818      8.561
  Name = 
  4 active torsions:
  status: ('A' for Active; 'I' for Inactive)
    1  A    between atoms: N_7  and  C_19
    2  A    between atoms: C_10  and  C_17
    3  A    between atoms: C_20  and  C_29
    4  A    between atoms: C_29  and  C_30
                            x       y       z     vdW  Elec       q    Type
                         _______ _______ _______ _____ _____    ______ ____

>  <TORSDO>
F 4

$$$$
=
 OpenBabel11122412593D

 32 37  0  0  1  0  0  0  0  0999 V2000
  161.3980  206.5050  151.2200 C   0  0  0  0  0  0  0  0  0  0  0  0
  162.1330  210.5550  148.6900 C   0  0  0  0  0  3  0  0  0  0  0  0
  161.9560  211.3110  149.8480 C   0  0  0  0  0  3  0  0  0  0  0  0
  160.9340  206.6510  153.6880 C   0  0  0  0  0  0  0  0  0  0  0  0
  160.7730  207.4830  154.7860 C   0  0  0  0  0  0  0  0  0  0  0  0
  161.4820  204.3790  150.0960 N   0  0  0  0  0  0  0  0  0  0  0  0
  161.8440  206.3960  148.8890 C   0  0  0  0  0  3  0  0  0  0  0  0
  160.6710  209.3390  155.9040 C   0  0  0  0  0  0  0  0  0  0  0  0
  162.0380  209.1640  148.7460 C   0  0  0  0  0  3  0  0  0  0  0  0
  161.6690  207.1370  150.0250 N   0  0  0  0  0  0  0  0  0  0  0  0
  161.7640  208.5030  149.9620 C   0  0  0  0  0  0  0  0  0  0  0  0
  161.3120  208.6410  152.3510 C   0  0  0  0  0  0  0  0  0  0  0  0
  160.4450  208.3080  156.7520 N   0  0  0  0  0  0  0  0  0  0  0  0
  161.7670  205.0030  148.9150 C   0  0  0  0  0  0  0  0  0  0  0  0
  160.5080  207.1650  156.0680 N   0  0  0  0  0  2  0  0  0  0  0  0
  161.6840  210.6760  151.0590 C   0  0  0  0  0  3  0  0  0  0  0  0
  161.5860  209.2760  151.1300 C   0  0  0  0  0  0  0  0  0  0  0  0
  161.1430  209.4140  153.4730 N   0  0  0  0  0  2  0  0  0  0  0  0
  161.3040  205.1030  151.2300 C   0  0  0  0  0  3  0  0  0  0  0  0
  160.8290  205.4030  153.8390 O   0  0  0  0  0  0  0  0  0  0  0  0
  160.6830  210.7740  156.2950 C   0  0  0  0  0  1  0  0  0  0  0  0
  161.2150  207.2620  152.4160 C   0  0  0  0  0  0  0  0  0  0  0  0
  160.8800  208.8190  154.6550 C   0  0  0  0  0  0  0  0  0  0  0  0
  160.8310  203.3620  147.4480 O   0  0  0  0  0  0  0  0  0  0  0  0
  161.9250  204.2320  147.6330 C   0  0  1  0  0  3  0  0  0  0  0  0
  160.8210  204.5490  146.6980 C   0  0  1  0  0  3  0  0  0  0  0  0
  161.2460  204.2380  145.2760 C   0  0  0  0  0  2  0  0  0  0  0  0
  161.0790  205.4440  144.4200 C   0  0  0  0  0  0  0  0  0  0  0  0
  161.5810  205.4530  143.1250 O   0  0  0  0  0  0  0  0  0  0  0  0
  160.4560  206.4450  144.8590 O   0  0  0  0  0  1  0  0  0  0  0  0
  161.2060  202.4990  151.6320 C   0  0  0  0  0  1  0  0  0  0  0  0
  161.3530  202.9280  150.1830 C   0  0  0  0  0  2  0  0  0  0  0  0
  1 19  2  0  0  0  0
  1 22  1  0  0  0  0
  2  9  2  0  0  0  0
  2  3  1  0  0  0  0
  3 16  2  0  0  0  0
  4 20  2  0  0  0  0
  4  5  1  0  0  0  0
  5 15  1  0  0  0  0
  6 32  1  0  0  0  0
  6 19  1  0  0  0  0
  7 14  2  0  0  0  0
  7 10  1  0  0  0  0
  8 21  1  0  0  0  0
  8 13  2  0  0  0  0
  9 11  1  0  0  0  0
 10  1  1  0  0  0  0
 11 10  1  0  0  0  0
 11 17  2  0  0  0  0
 12 22  2  0  0  0  0
 12 18  1  0  0  0  0
 14  6  1  0  0  0  0
 15 13  1  0  0  0  0
 16 17  1  0  0  0  0
 17 12  1  0  0  0  0
 18 23  1  0  0  0  0
 22  4  1  0  0  0  0
 23  5  2  0  0  0  0
 23  8  1  0  0  0  0
 24 25  1  0  0  0  0
 25 14  1  1  0  0  0
 26 27  1  6  0  0  0
 26 24  1  0  0  0  0
 26 25  1  0  0  0  0
 28 30  1  0  0  0  0
 28 27  1  0  0  0  0
 29 28  2  0  0  0  0
 32 31  1  0  0  0  0
M  END
>  <MODEL>
4

>  <REMARK>
 VINA RESULT:      -8.0      2.389      8.543
  Name = 
  4 active torsions:
  status: ('A' for Active; 'I' for Inactive)
    1  A    between atoms: N_7  and  C_19
    2  A    between atoms: C_10  and  C_17
    3  A    between atoms: C_20  and  C_29
    4  A    between atoms: C_29  and  C_30
                            x       y       z     vdW  Elec       q    Type
                         _______ _______ _______ _____ _____    ______ ____

>  <TORSDO>
F 4

$$$$
=
 OpenBabel11122412593D

 32 37  0  0  1  0  0  0  0  0999 V2000
  161.3400  207.2490  150.6050 C   0  0  0  0  0  0  0  0  0  0  0  0
  160.8190  202.4700  151.0950 C   0  0  0  0  0  3  0  0  0  0  0  0
  160.7490  202.6190  152.4790 C   0  0  0  0  0  3  0  0  0  0  0  0
  161.3620  208.7100  152.6520 C   0  0  0  0  0  0  0  0  0  0  0  0
  161.2820  208.7620  154.0350 C   0  0  0  0  0  0  0  0  0  0  0  0
  161.5770  208.1900  148.4030 N   0  0  0  0  0  0  0  0  0  0  0  0
  161.3120  205.8440  148.6880 C   0  0  0  0  0  3  0  0  0  0  0  0
  161.0810  208.0270  156.0660 C   0  0  0  0  0  0  0  0  0  0  0  0
  160.9840  203.5920  150.2820 C   0  0  0  0  0  3  0  0  0  0  0  0
  161.2440  205.9910  150.0460 N   0  0  0  0  0  0  0  0  0  0  0  0
  161.0820  204.8850  150.8380 C   0  0  0  0  0  0  0  0  0  0  0  0
  161.1050  206.3030  152.8180 C   0  0  0  0  0  0  0  0  0  0  0  0
  161.2170  209.3740  156.1030 N   0  0  0  0  0  0  0  0  0  0  0  0
  161.4650  206.9480  147.8480 C   0  0  0  0  0  0  0  0  0  0  0  0
  161.3400  209.8290  154.8550 N   0  0  0  0  0  2  0  0  0  0  0  0
  160.8440  203.8890  153.0480 C   0  0  0  0  0  3  0  0  0  0  0  0
  161.0100  205.0270  152.2410 C   0  0  0  0  0  0  0  0  0  0  0  0
  161.0320  206.4160  154.1850 N   0  0  0  0  0  2  0  0  0  0  0  0
  161.5140  208.3490  149.7490 C   0  0  0  0  0  3  0  0  0  0  0  0
  161.5120  209.7810  152.0020 O   0  0  0  0  0  0  0  0  0  0  0  0
  160.9170  207.1560  157.2610 C   0  0  0  0  0  1  0  0  0  0  0  0
  161.2700  207.4210  152.0200 C   0  0  0  0  0  0  0  0  0  0  0  0
  161.1220  207.6360  154.7550 C   0  0  0  0  0  0  0  0  0  0  0  0
  162.7870  206.0810  146.0530 O   0  0  0  0  0  0  0  0  0  0  0  0
  161.5760  206.7340  146.3630 C   0  0  1  0  0  3  0  0  0  0  0  0
  161.6290  205.2860  146.0510 C   0  0  1  0  0  3  0  0  0  0  0  0
  161.1930  205.0530  144.6170 C   0  0  0  0  0  2  0  0  0  0  0  0
  160.3930  203.8010  144.5260 C   0  0  0  0  0  0  0  0  0  0  0  0
  160.8450  202.6410  145.1410 O   0  0  0  0  0  1  0  0  0  0  0  0
  159.2910  203.8010  143.9190 O   0  0  0  0  0  0  0  0  0  0  0  0
  161.9400  210.6060  148.4620 C   0  0  0  0  0  1  0  0  0  0  0  0
  161.7730  209.3810  147.5810 C   0  0  0  0  0  2  0  0  0  0  0  0
  1 22  1  0  0  0  0
  2  3  1  0  0  0  0
  3 16  2  0  0  0  0
  4  5  1  0  0  0  0
  5 23  2  0  0  0  0
  5 15  1  0  0  0  0
  6 19  1  0  0  0  0
  7 10  1  0  0  0  0
  8 13  2  0  0  0  0
  8 21  1  0  0  0  0
  9 11  1  0  0  0  0
  9  2  2  0  0  0  0
 10  1  1  0  0  0  0
 10 11  1  0  0  0  0
 11 17  2  0  0  0  0
 12 18  1  0  0  0  0
 14  6  1  0  0  0  0
 14  7  2  0  0  0  0
 15 13  1  0  0  0  0
 17 12  1  0  0  0  0
 17 16  1  0  0  0  0
 18 23  1  0  0  0  0
 19  1  2  0  0  0  0
 20  4  2  0  0  0  0
 22  4  1  0  0  0  0
 22 12  2  0  0  0  0
 23  8  1  0  0  0  0
 24 25  1  0  0  0  0
 25 14  1  1  0  0  0
 26 27  1  6  0  0  0
 26 24  1  0  0  0  0
 26 25  1  0  0  0  0
 28 27  1  0  0  0  0
 28 29  1  0  0  0  0
 30 28  2  0  0  0  0
 32  6  1  0  0  0  0
 32 31  1  0  0  0  0
M  END
>  <MODEL>
5

>  <REMARK>
 VINA RESULT:      -6.7      2.303      7.538
  Name = 
  4 active torsions:
  status: ('A' for Active; 'I' for Inactive)
    1  A    between atoms: N_7  and  C_19
    2  A    between atoms: C_10  and  C_17
    3  A    between atoms: C_20  and  C_29
    4  A    between atoms: C_29  and  C_30
                            x       y       z     vdW  Elec       q    Type
                         _______ _______ _______ _____ _____    ______ ____

>  <TORSDO>
F 4

$$$$
