=
 OpenBabel11122413573D

 37 42  0  0  1  0  0  0  0  0999 V2000
  159.4540  211.5160  155.4220 C   0  0  0  0  0  0  0  0  0  0  0  0
  161.5050  208.5770  154.3250 C   0  0  1  0  0  3  0  0  0  0  0  0
  162.6340  208.3240  151.1440 O   0  0  0  0  0  0  0  0  0  0  0  0
  161.1190  210.2270  156.3300 C   0  0  2  0  0  3  0  0  0  0  0  0
  161.0500  208.8890  152.8900 C   0  0  2  0  0  3  0  0  0  0  0  0
  161.7080  209.9740  154.9520 C   0  0  2  0  0  3  0  0  0  0  0  0
  161.4730  207.8850  151.8010 C   0  0  2  0  0  3  0  0  0  0  0  0
  161.4850  209.0930  157.2560 C   0  0  0  0  0  2  0  0  0  0  0  0
  161.1870  211.0100  153.9630 C   0  0  2  0  0  3  0  0  0  0  0  0
  160.1170  212.6700  155.8280 F   0  0  0  0  0  0  0  0  0  0  0  0
  160.5770  206.2210  154.5420 C   0  0  0  0  0  2  0  0  0  0  0  0
  160.5860  207.5590  156.8600 S   0  0  0  0  0  0  0  0  0  0  0  0
  159.7850  211.1750  154.0890 O   0  0  0  0  0  0  0  0  0  0  0  0
  161.5990  209.5040  149.5250 C   0  0  0  0  0  2  0  0  0  0  0  0
  162.3490  208.3400  149.8460 O   0  0  0  0  0  0  0  0  0  0  0  0
  160.4670  207.6680  155.0270 C   0  0  1  0  0  3  0  0  0  0  0  0
  161.5020  210.3290  152.6400 C   0  0  2  0  0  3  0  0  0  0  0  0
  159.7260  210.4320  156.2880 O   0  0  0  0  0  0  0  0  0  0  0  0
  161.5750  206.4260  152.2750 C   0  0  1  0  0  3  0  0  0  0  0  0
  158.0980  211.7730  155.4740 F   0  0  0  0  0  0  0  0  0  0  0  0
  161.9240  210.7340  150.3730 C   0  0  0  0  0  2  0  0  0  0  0  0
  160.9160  210.9120  151.4180 N   0  0  0  0  0  0  0  0  0  0  0  0
  160.3270  206.0370  153.0560 C   0  0  0  0  0  2  0  0  0  0  0  0
  160.8820  205.7250  149.9330 C   0  0  0  0  0  2  0  0  0  0  0  0
  161.7890  205.4270  151.1350 C   0  0  2  0  0  3  0  0  0  0  0  0
  161.7780  203.9490  151.6010 C   0  0  0  0  0  2  0  0  0  0  0  0
  161.2880  201.7080  150.9270 F   0  0  0  0  0  0  0  0  0  0  0  0
  161.0720  203.3740  149.2620 C   0  0  0  0  0  3  0  0  0  0  0  0
  160.9290  203.0250  150.7170 C   0  0  2  0  0  3  0  0  0  0  0  0
  161.0470  204.6580  148.8890 C   0  0  0  0  0  3  0  0  0  0  0  0
  160.7590  212.3650  151.5450 C   0  0  0  0  0  2  0  0  0  0  0  0
  159.8720  212.9430  150.4350 C   0  0  1  0  0  3  0  0  0  0  0  0
  157.6090  213.4380  149.8480 O   0  0  0  0  0  1  0  0  0  0  0  0
  158.4700  213.2630  150.9310 C   0  0  0  0  0  2  0  0  0  0  0  0
  160.4910  214.1810  149.8030 C   0  0  0  0  0  2  0  0  0  0  0  0
  161.0300  213.8670  148.4180 C   0  0  0  0  0  2  0  0  0  0  0  0
  160.4230  212.7140  147.9210 O   0  0  0  0  0  1  0  0  0  0  0  0
  1 20  1  0  0  0  0
  1 10  1  0  0  0  0
  1 18  1  0  0  0  0
  2  6  1  0  0  0  0
  2 16  1  0  0  0  0
  3  7  1  0  0  0  0
  4  8  1  0  0  0  0
  5  2  1  0  0  0  0
  6  4  1  0  0  0  0
  7 19  1  0  0  0  0
  7  5  1  0  0  0  0
  9 13  1  0  0  0  0
  9  6  1  0  0  0  0
 11 16  1  0  0  0  0
 12  8  1  0  0  0  0
 13  1  1  0  0  0  0
 14 15  1  0  0  0  0
 14 21  1  0  0  0  0
 15  3  1  0  0  0  0
 16 12  1  0  0  0  0
 17  5  1  0  0  0  0
 17  9  1  0  0  0  0
 18  4  1  0  0  0  0
 19 23  1  0  0  0  0
 21 22  1  0  0  0  0
 22 31  1  0  0  0  0
 22 17  1  0  0  0  0
 23 11  1  0  0  0  0
 24 25  1  0  0  0  0
 25 26  1  0  0  0  0
 25 19  1  0  0  0  0
 28 29  1  0  0  0  0
 29 27  1  0  0  0  0
 29 26  1  0  0  0  0
 30 28  2  0  0  0  0
 30 24  1  0  0  0  0
 32 34  1  0  0  0  0
 32 31  1  0  0  0  0
 33 34  1  0  0  0  0
 35 32  1  0  0  0  0
 36 35  1  0  0  0  0
 37 36  1  0  0  0  0
M  END
>  <MODEL>
1

>  <REMARK>
 VINA RESULT:      -7.3      0.000      0.000
  Name = 
  6 active torsions:
  status: ('A' for Active; 'I' for Inactive)
    1  A    between atoms: C_1  and  C_4
    2  A    between atoms: C_1  and  N_27
    3  A    between atoms: C_4  and  C_12
    4  A    between atoms: C_4  and  C_37
    5  A    between atoms: C_8  and  C_12
    6  A    between atoms: C_23  and  C_30
                            x       y       z     vdW  Elec       q    Type
                         _______ _______ _______ _____ _____    ______ ____

>  <TORSDO>
F 6

$$$$
=
 OpenBabel11122413573D

 37 42  0  0  1  0  0  0  0  0999 V2000
  159.8090  211.3180  153.6110 C   0  0  0  0  0  0  0  0  0  0  0  0
  161.5840  208.0690  153.0240 C   0  0  1  0  0  3  0  0  0  0  0  0
  162.9140  207.3250  150.0020 O   0  0  0  0  0  0  0  0  0  0  0  0
  161.2420  209.9750  154.7970 C   0  0  2  0  0  3  0  0  0  0  0  0
  161.2780  208.2570  151.5300 C   0  0  2  0  0  3  0  0  0  0  0  0
  161.9000  209.5000  153.5110 C   0  0  2  0  0  3  0  0  0  0  0  0
  161.6630  207.0920  150.5970 C   0  0  2  0  0  3  0  0  0  0  0  0
  161.4030  208.9260  155.8690 C   0  0  0  0  0  2  0  0  0  0  0  0
  161.5780  210.4630  152.3740 C   0  0  2  0  0  3  0  0  0  0  0  0
  160.5690  212.4350  153.9460 F   0  0  0  0  0  0  0  0  0  0  0  0
  160.3760  205.8670  153.4130 C   0  0  0  0  0  2  0  0  0  0  0  0
  160.3650  207.4600  155.5640 S   0  0  0  0  0  0  0  0  0  0  0  0
  160.1990  210.7890  152.3570 O   0  0  0  0  0  0  0  0  0  0  0  0
  162.1470  208.4100  148.1790 C   0  0  0  0  0  2  0  0  0  0  0  0
  162.7310  207.2190  148.6890 O   0  0  0  0  0  0  0  0  0  0  0  0
  160.3980  207.3640  153.7260 C   0  0  1  0  0  3  0  0  0  0  0  0
  161.9110  209.6010  151.1650 C   0  0  2  0  0  3  0  0  0  0  0  0
  159.8890  210.3210  154.6100 O   0  0  0  0  0  0  0  0  0  0  0  0
  161.5590  205.6970  151.2340 C   0  0  1  0  0  3  0  0  0  0  0  0
  158.4920  211.7220  153.5150 F   0  0  0  0  0  0  0  0  0  0  0  0
  162.5460  209.6900  148.9140 C   0  0  0  0  0  2  0  0  0  0  0  0
  161.4900  210.0950  149.8400 N   0  0  0  0  0  0  0  0  0  0  0  0
  160.2200  205.5370  151.9390 C   0  0  0  0  0  2  0  0  0  0  0  0
  161.2410  204.9320  148.8320 C   0  0  0  0  0  2  0  0  0  0  0  0
  161.7420  204.5530  150.2320 C   0  0  2  0  0  3  0  0  0  0  0  0
  161.2270  203.1880  150.7550 C   0  0  0  0  0  2  0  0  0  0  0  0
  160.3090  201.0820  150.0940 F   0  0  0  0  0  0  0  0  0  0  0  0
  160.9300  202.5490  148.3460 C   0  0  0  0  0  3  0  0  0  0  0  0
  160.3780  202.4140  149.7370 C   0  0  2  0  0  3  0  0  0  0  0  0
  161.3370  203.7470  147.9140 C   0  0  0  0  0  3  0  0  0  0  0  0
  161.4930  211.5610  149.7950 C   0  0  0  0  0  2  0  0  0  0  0  0
  161.6840  212.0890  148.3670 C   0  0  1  0  0  3  0  0  0  0  0  0
  160.1220  212.0500  146.5600 O   0  0  0  0  0  1  0  0  0  0  0  0
  160.3960  212.6520  147.7880 C   0  0  0  0  0  2  0  0  0  0  0  0
  162.7860  213.1360  148.2940 C   0  0  0  0  0  2  0  0  0  0  0  0
  162.2640  214.4250  147.6830 C   0  0  0  0  0  2  0  0  0  0  0  0
  162.5360  214.4490  146.3150 O   0  0  0  0  0  1  0  0  0  0  0  0
  1 10  1  0  0  0  0
  1 18  1  0  0  0  0
  2  6  1  0  0  0  0
  2 16  1  0  0  0  0
  3  7  1  0  0  0  0
  4  8  1  0  0  0  0
  5  2  1  0  0  0  0
  6  4  1  0  0  0  0
  7 19  1  0  0  0  0
  7  5  1  0  0  0  0
  9  6  1  0  0  0  0
 11 16  1  0  0  0  0
 12  8  1  0  0  0  0
 13  9  1  0  0  0  0
 13  1  1  0  0  0  0
 14 15  1  0  0  0  0
 14 21  1  0  0  0  0
 15  3  1  0  0  0  0
 16 12  1  0  0  0  0
 17  5  1  0  0  0  0
 17  9  1  0  0  0  0
 18  4  1  0  0  0  0
 19 23  1  0  0  0  0
 20  1  1  0  0  0  0
 21 22  1  0  0  0  0
 22 17  1  0  0  0  0
 23 11  1  0  0  0  0
 24 25  1  0  0  0  0
 25 26  1  0  0  0  0
 25 19  1  0  0  0  0
 28 29  1  0  0  0  0
 29 27  1  0  0  0  0
 29 26  1  0  0  0  0
 30 28  2  0  0  0  0
 30 24  1  0  0  0  0
 31 22  1  0  0  0  0
 32 31  1  0  0  0  0
 33 34  1  0  0  0  0
 34 32  1  0  0  0  0
 35 32  1  0  0  0  0
 36 35  1  0  0  0  0
 37 36  1  0  0  0  0
M  END
>  <MODEL>
2

>  <REMARK>
 VINA RESULT:      -6.1      1.645      1.937
  Name = 
  6 active torsions:
  status: ('A' for Active; 'I' for Inactive)
    1  A    between atoms: C_1  and  C_4
    2  A    between atoms: C_1  and  N_27
    3  A    between atoms: C_4  and  C_12
    4  A    between atoms: C_4  and  C_37
    5  A    between atoms: C_8  and  C_12
    6  A    between atoms: C_23  and  C_30
                            x       y       z     vdW  Elec       q    Type
                         _______ _______ _______ _____ _____    ______ ____

>  <TORSDO>
F 6

$$$$
=
 OpenBabel11122413573D

 37 42  0  0  1  0  0  0  0  0999 V2000
  159.4150  211.6320  155.4550 C   0  0  0  0  0  0  0  0  0  0  0  0
  161.4780  208.7150  154.3220 C   0  0  1  0  0  3  0  0  0  0  0  0
  162.6230  208.5140  151.1430 O   0  0  0  0  0  0  0  0  0  0  0  0
  161.0790  210.3330  156.3510 C   0  0  2  0  0  3  0  0  0  0  0  0
  161.0290  209.0490  152.8900 C   0  0  2  0  0  3  0  0  0  0  0  0
  161.6750  210.1020  154.9720 C   0  0  2  0  0  3  0  0  0  0  0  0
  161.4590  208.0630  151.7870 C   0  0  2  0  0  3  0  0  0  0  0  0
  161.4420  209.1850  157.2600 C   0  0  0  0  0  2  0  0  0  0  0  0
  161.1570  211.1530  153.9960 C   0  0  2  0  0  3  0  0  0  0  0  0
  160.0750  212.7820  155.8820 F   0  0  0  0  0  0  0  0  0  0  0  0
  160.5520  206.3540  154.4970 C   0  0  0  0  0  2  0  0  0  0  0  0
  160.5480  207.6550  156.8360 S   0  0  0  0  0  0  0  0  0  0  0  0
  159.7540  211.3130  154.1190 O   0  0  0  0  0  0  0  0  0  0  0  0
  161.5930  209.7190  149.5380 C   0  0  0  0  0  2  0  0  0  0  0  0
  162.3440  208.5510  149.8440 O   0  0  0  0  0  0  0  0  0  0  0  0
  160.4380  207.7930  155.0040 C   0  0  1  0  0  3  0  0  0  0  0  0
  161.4790  210.4930  152.6640 C   0  0  2  0  0  3  0  0  0  0  0  0
  159.6860  210.5360  156.3050 O   0  0  0  0  0  0  0  0  0  0  0  0
  161.5610  206.5970  152.2380 C   0  0  1  0  0  3  0  0  0  0  0  0
  158.0590  211.8860  155.5050 F   0  0  0  0  0  0  0  0  0  0  0  0
  161.9110  210.9350  150.4060 C   0  0  0  0  0  2  0  0  0  0  0  0
  160.8980  211.0950  151.4490 N   0  0  0  0  0  0  0  0  0  0  0  0
  160.3110  206.1930  153.0060 C   0  0  0  0  0  2  0  0  0  0  0  0
  160.9310  205.9720  149.8570 C   0  0  0  0  0  2  0  0  0  0  0  0
  161.7830  205.6160  151.0830 C   0  0  2  0  0  3  0  0  0  0  0  0
  161.7050  204.1300  151.5140 C   0  0  0  0  0  2  0  0  0  0  0  0
  161.1640  201.9230  150.7710 F   0  0  0  0  0  0  0  0  0  0  0  0
  161.0650  203.6320  149.1380 C   0  0  0  0  0  3  0  0  0  0  0  0
  160.8580  203.2560  150.5790 C   0  0  2  0  0  3  0  0  0  0  0  0
  161.0970  204.9230  148.7950 C   0  0  0  0  0  3  0  0  0  0  0  0
  160.7380  212.5450  151.5980 C   0  0  0  0  0  2  0  0  0  0  0  0
  159.3570  213.0190  151.1270 C   0  0  1  0  0  3  0  0  0  0  0  0
  160.2870  213.5470  148.9900 O   0  0  0  0  0  1  0  0  0  0  0  0
  159.2050  212.9270  149.6170 C   0  0  0  0  0  2  0  0  0  0  0  0
  158.2330  212.2520  151.8070 C   0  0  0  0  0  2  0  0  0  0  0  0
  157.3020  213.2000  152.5440 C   0  0  0  0  0  2  0  0  0  0  0  0
  157.1120  214.3610  151.7950 O   0  0  0  0  0  1  0  0  0  0  0  0
  1 20  1  0  0  0  0
  1 10  1  0  0  0  0
  1 18  1  0  0  0  0
  2  6  1  0  0  0  0
  2 16  1  0  0  0  0
  3  7  1  0  0  0  0
  4  8  1  0  0  0  0
  5  2  1  0  0  0  0
  6  4  1  0  0  0  0
  7 19  1  0  0  0  0
  7  5  1  0  0  0  0
  9 13  1  0  0  0  0
  9  6  1  0  0  0  0
 11 16  1  0  0  0  0
 12  8  1  0  0  0  0
 13  1  1  0  0  0  0
 14 15  1  0  0  0  0
 14 21  1  0  0  0  0
 15  3  1  0  0  0  0
 16 12  1  0  0  0  0
 17  5  1  0  0  0  0
 17  9  1  0  0  0  0
 18  4  1  0  0  0  0
 19 23  1  0  0  0  0
 21 22  1  0  0  0  0
 22 31  1  0  0  0  0
 22 17  1  0  0  0  0
 23 11  1  0  0  0  0
 24 25  1  0  0  0  0
 25 26  1  0  0  0  0
 25 19  1  0  0  0  0
 28 29  1  0  0  0  0
 29 27  1  0  0  0  0
 29 26  1  0  0  0  0
 30 28  2  0  0  0  0
 30 24  1  0  0  0  0
 32 31  1  0  0  0  0
 32 35  1  0  0  0  0
 33 34  1  0  0  0  0
 34 32  1  0  0  0  0
 35 36  1  0  0  0  0
 37 36  1  0  0  0  0
M  END
>  <MODEL>
3

>  <REMARK>
 VINA RESULT:      -6.0      0.705      1.516
  Name = 
  6 active torsions:
  status: ('A' for Active; 'I' for Inactive)
    1  A    between atoms: C_1  and  C_4
    2  A    between atoms: C_1  and  N_27
    3  A    between atoms: C_4  and  C_12
    4  A    between atoms: C_4  and  C_37
    5  A    between atoms: C_8  and  C_12
    6  A    between atoms: C_23  and  C_30
                            x       y       z     vdW  Elec       q    Type
                         _______ _______ _______ _____ _____    ______ ____

>  <TORSDO>
F 6

$$$$
=
 OpenBabel11122413573D

 37 42  0  0  1  0  0  0  0  0999 V2000
  161.6690  208.4370  148.4190 C   0  0  0  0  0  0  0  0  0  0  0  0
  161.4170  210.6900  151.4040 C   0  0  1  0  0  3  0  0  0  0  0  0
  161.2050  209.4240  154.5360 O   0  0  0  0  0  0  0  0  0  0  0  0
  162.5930  210.4330  149.0710 C   0  0  2  0  0  3  0  0  0  0  0  0
  160.7800  209.5070  152.1500 C   0  0  2  0  0  3  0  0  0  0  0  0
  162.5040  210.0240  150.5330 C   0  0  2  0  0  3  0  0  0  0  0  0
  160.2530  209.7930  153.5700 C   0  0  2  0  0  3  0  0  0  0  0  0
  162.5720  211.9380  148.9610 C   0  0  0  0  0  2  0  0  0  0  0  0
  162.3320  208.5140  150.6430 C   0  0  2  0  0  3  0  0  0  0  0  0
  162.9270  207.9690  148.0490 F   0  0  0  0  0  0  0  0  0  0  0  0
  159.5090  212.3600  151.5850 C   0  0  0  0  0  2  0  0  0  0  0  0
  160.9310  212.6360  149.3340 S   0  0  0  0  0  0  0  0  0  0  0  0
  161.3440  208.0470  149.7400 O   0  0  0  0  0  0  0  0  0  0  0  0
  160.5060  207.2960  154.8040 C   0  0  0  0  0  2  0  0  0  0  0  0
  160.5890  208.5960  155.3740 O   0  0  0  0  0  0  0  0  0  0  0  0
  160.3310  211.4840  150.6380 C   0  0  1  0  0  3  0  0  0  0  0  0
  161.8180  208.3860  152.0690 C   0  0  2  0  0  3  0  0  0  0  0  0
  161.5820  209.8420  148.2880 O   0  0  0  0  0  0  0  0  0  0  0  0
  159.7140  211.2160  153.7820 C   0  0  1  0  0  3  0  0  0  0  0  0
  160.7440  207.8710  147.5650 F   0  0  0  0  0  0  0  0  0  0  0  0
  161.6700  206.9190  153.8870 C   0  0  0  0  0  2  0  0  0  0  0  0
  161.2840  207.0760  152.4850 N   0  0  0  0  0  0  0  0  0  0  0  0
  158.7590  211.5910  152.6580 C   0  0  0  0  0  2  0  0  0  0  0  0
  157.5170  211.0580  155.0490 C   0  0  0  0  0  2  0  0  0  0  0  0
  159.0090  211.4080  155.1280 C   0  0  2  0  0  3  0  0  0  0  0  0
  159.3190  212.7720  155.7960 C   0  0  0  0  0  2  0  0  0  0  0  0
  158.4540  214.4520  157.2610 F   0  0  0  0  0  0  0  0  0  0  0  0
  157.1160  212.5230  156.9750 C   0  0  0  0  0  3  0  0  0  0  0  0
  158.0770  213.4910  156.3440 C   0  0  2  0  0  3  0  0  0  0  0  0
  156.8470  211.3680  156.3570 C   0  0  0  0  0  3  0  0  0  0  0  0
  161.9610  205.9790  151.7850 C   0  0  0  0  0  2  0  0  0  0  0  0
  160.9880  204.8550  151.4060 C   0  0  1  0  0  3  0  0  0  0  0  0
  161.6280  204.8880  149.1050 O   0  0  0  0  0  1  0  0  0  0  0  0
  160.5280  204.9590  149.9610 C   0  0  0  0  0  2  0  0  0  0  0  0
  161.5870  203.4800  151.6600 C   0  0  0  0  0  2  0  0  0  0  0  0
  160.6840  202.3890  151.1110 C   0  0  0  0  0  2  0  0  0  0  0  0
  161.4430  201.4440  150.4200 O   0  0  0  0  0  1  0  0  0  0  0  0
  1 13  1  0  0  0  0
  2  5  1  0  0  0  0
  3 15  1  0  0  0  0
  4  6  1  0  0  0  0
  5  7  1  0  0  0  0
  6  9  1  0  0  0  0
  6  2  1  0  0  0  0
  7 19  1  0  0  0  0
  7  3  1  0  0  0  0
  8  4  1  0  0  0  0
  8 12  1  0  0  0  0
  9 17  1  0  0  0  0
 10  1  1  0  0  0  0
 11 23  1  0  0  0  0
 12 16  1  0  0  0  0
 13  9  1  0  0  0  0
 14 15  1  0  0  0  0
 16  2  1  0  0  0  0
 16 11  1  0  0  0  0
 17  5  1  0  0  0  0
 17 22  1  0  0  0  0
 18  1  1  0  0  0  0
 18  4  1  0  0  0  0
 19 25  1  0  0  0  0
 20  1  1  0  0  0  0
 21 14  1  0  0  0  0
 22 21  1  0  0  0  0
 23 19  1  0  0  0  0
 24 25  1  0  0  0  0
 24 30  1  0  0  0  0
 25 26  1  0  0  0  0
 26 29  1  0  0  0  0
 29 28  1  0  0  0  0
 29 27  1  0  0  0  0
 30 28  2  0  0  0  0
 31 22  1  0  0  0  0
 32 35  1  0  0  0  0
 32 31  1  0  0  0  0
 33 34  1  0  0  0  0
 34 32  1  0  0  0  0
 36 35  1  0  0  0  0
 37 36  1  0  0  0  0
M  END
>  <MODEL>
4

>  <REMARK>
 VINA RESULT:      -6.0      3.063      8.084
  Name = 
  6 active torsions:
  status: ('A' for Active; 'I' for Inactive)
    1  A    between atoms: C_1  and  C_4
    2  A    between atoms: C_1  and  N_27
    3  A    between atoms: C_4  and  C_12
    4  A    between atoms: C_4  and  C_37
    5  A    between atoms: C_8  and  C_12
    6  A    between atoms: C_23  and  C_30
                            x       y       z     vdW  Elec       q    Type
                         _______ _______ _______ _____ _____    ______ ____

>  <TORSDO>
F 6

$$$$
=
 OpenBabel11122413573D

 37 42  0  0  1  0  0  0  0  0999 V2000
  159.2990  210.8590  154.8390 C   0  0  0  0  0  0  0  0  0  0  0  0
  161.5690  208.4930  153.0230 C   0  0  1  0  0  3  0  0  0  0  0  0
  162.6380  209.1610  149.8820 O   0  0  0  0  0  0  0  0  0  0  0  0
  161.0910  209.5360  155.3850 C   0  0  2  0  0  3  0  0  0  0  0  0
  161.0540  209.1190  151.7170 C   0  0  2  0  0  3  0  0  0  0  0  0
  161.6660  209.6960  153.9870 C   0  0  2  0  0  3  0  0  0  0  0  0
  161.5340  208.4670  150.4060 C   0  0  2  0  0  3  0  0  0  0  0  0
  161.5750  208.2410  155.9890 C   0  0  0  0  0  2  0  0  0  0  0  0
  161.0340  210.9000  153.2970 C   0  0  2  0  0  3  0  0  0  0  0  0
  159.8700  211.9270  155.5260 F   0  0  0  0  0  0  0  0  0  0  0  0
  160.8520  206.0860  152.6310 C   0  0  0  0  0  2  0  0  0  0  0  0
  160.8020  206.7840  155.2140 S   0  0  0  0  0  0  0  0  0  0  0  0
  159.6260  210.9000  153.4630 O   0  0  0  0  0  0  0  0  0  0  0  0
  161.4660  210.6190  148.6210 C   0  0  0  0  0  2  0  0  0  0  0  0
  162.3210  209.4830  148.6320 O   0  0  0  0  0  0  0  0  0  0  0  0
  160.6300  207.3460  153.4700 C   0  0  1  0  0  3  0  0  0  0  0  0
  161.3740  210.6090  151.8430 C   0  0  2  0  0  3  0  0  0  0  0  0
  159.6850  209.6190  155.3980 O   0  0  0  0  0  0  0  0  0  0  0  0
  161.7730  206.9510  150.4900 C   0  0  1  0  0  3  0  0  0  0  0  0
  157.9280  210.9720  154.9580 F   0  0  0  0  0  0  0  0  0  0  0  0
  161.7040  211.6150  149.7550 C   0  0  0  0  0  2  0  0  0  0  0  0
  160.7100  211.4300  150.8120 N   0  0  0  0  0  0  0  0  0  0  0  0
  160.5830  206.2660  151.1470 C   0  0  0  0  0  2  0  0  0  0  0  0
  161.2100  206.9360  148.0130 C   0  0  0  0  0  2  0  0  0  0  0  0
  162.0450  206.2990  149.1320 C   0  0  2  0  0  3  0  0  0  0  0  0
  161.9970  204.7510  149.1720 C   0  0  0  0  0  2  0  0  0  0  0  0
  161.5300  202.7930  147.8810 F   0  0  0  0  0  0  0  0  0  0  0  0
  161.4210  204.8570  146.7310 C   0  0  0  0  0  3  0  0  0  0  0  0
  161.1930  204.1250  148.0230 C   0  0  2  0  0  3  0  0  0  0  0  0
  161.4260  206.1940  146.7250 C   0  0  0  0  0  3  0  0  0  0  0  0
  160.4320  212.7820  151.3070 C   0  0  0  0  0  2  0  0  0  0  0  0
  159.0710  213.2990  150.8240 C   0  0  1  0  0  3  0  0  0  0  0  0
  159.0200  214.0340  153.0960 O   0  0  0  0  0  1  0  0  0  0  0  0
  158.2260  213.8400  151.9660 C   0  0  0  0  0  2  0  0  0  0  0  0
  159.2200  214.3610  149.7450 C   0  0  0  0  0  2  0  0  0  0  0  0
  159.0000  213.7630  148.3660 C   0  0  0  0  0  2  0  0  0  0  0  0
  160.1530  213.9060  147.5940 O   0  0  0  0  0  1  0  0  0  0  0  0
  1 20  1  0  0  0  0
  1 18  1  0  0  0  0
  1 10  1  0  0  0  0
  2 16  1  0  0  0  0
  2  6  1  0  0  0  0
  3  7  1  0  0  0  0
  4 18  1  0  0  0  0
  4  8  1  0  0  0  0
  5 17  1  0  0  0  0
  5  2  1  0  0  0  0
  6  4  1  0  0  0  0
  7 19  1  0  0  0  0
  7  5  1  0  0  0  0
  9 13  1  0  0  0  0
  9  6  1  0  0  0  0
 11 16  1  0  0  0  0
 12  8  1  0  0  0  0
 13  1  1  0  0  0  0
 14 15  1  0  0  0  0
 14 21  1  0  0  0  0
 15  3  1  0  0  0  0
 16 12  1  0  0  0  0
 17  9  1  0  0  0  0
 19 23  1  0  0  0  0
 21 22  1  0  0  0  0
 22 31  1  0  0  0  0
 22 17  1  0  0  0  0
 23 11  1  0  0  0  0
 24 25  1  0  0  0  0
 25 26  1  0  0  0  0
 25 19  1  0  0  0  0
 27 29  1  0  0  0  0
 28 29  1  0  0  0  0
 29 26  1  0  0  0  0
 30 28  2  0  0  0  0
 30 24  1  0  0  0  0
 32 31  1  0  0  0  0
 32 34  1  0  0  0  0
 34 33  1  0  0  0  0
 35 32  1  0  0  0  0
 36 35  1  0  0  0  0
 37 36  1  0  0  0  0
M  END
>  <MODEL>
5

>  <REMARK>
 VINA RESULT:      -5.7      1.495      1.773
  Name = 
  6 active torsions:
  status: ('A' for Active; 'I' for Inactive)
    1  A    between atoms: C_1  and  C_4
    2  A    between atoms: C_1  and  N_27
    3  A    between atoms: C_4  and  C_12
    4  A    between atoms: C_4  and  C_37
    5  A    between atoms: C_8  and  C_12
    6  A    between atoms: C_23  and  C_30
                            x       y       z     vdW  Elec       q    Type
                         _______ _______ _______ _____ _____    ______ ____

>  <TORSDO>
F 6

$$$$
=
 OpenBabel11122413573D

 37 42  0  0  1  0  0  0  0  0999 V2000
  159.2790  211.4110  154.7500 C   0  0  0  0  0  0  0  0  0  0  0  0
  161.5520  208.9420  153.0790 C   0  0  1  0  0  3  0  0  0  0  0  0
  162.6370  209.4330  149.9110 O   0  0  0  0  0  0  0  0  0  0  0  0
  161.0660  210.1160  155.3770 C   0  0  2  0  0  3  0  0  0  0  0  0
  161.0450  209.4960  151.7380 C   0  0  2  0  0  3  0  0  0  0  0  0
  161.6470  210.1970  153.9750 C   0  0  2  0  0  3  0  0  0  0  0  0
  161.5300  208.7720  150.4670 C   0  0  2  0  0  3  0  0  0  0  0  0
  161.5440  208.8550  156.0540 C   0  0  0  0  0  2  0  0  0  0  0  0
  161.0210  211.3620  153.2160 C   0  0  2  0  0  3  0  0  0  0  0  0
  159.8500  212.5130  155.3790 F   0  0  0  0  0  0  0  0  0  0  0  0
  160.8310  206.5190  152.8170 C   0  0  0  0  0  2  0  0  0  0  0  0
  160.7710  207.3590  155.3580 S   0  0  0  0  0  0  0  0  0  0  0  0
  159.6130  211.3750  153.3750 O   0  0  0  0  0  0  0  0  0  0  0  0
  161.4750  210.8200  148.5650 C   0  0  0  0  0  2  0  0  0  0  0  0
  162.3270  209.6860  148.6430 O   0  0  0  0  0  0  0  0  0  0  0  0
  160.6090  207.8240  153.5840 C   0  0  1  0  0  3  0  0  0  0  0  0
  161.3670  210.9900  151.7820 C   0  0  2  0  0  3  0  0  0  0  0  0
  159.6600  210.2030  155.3790 O   0  0  0  0  0  0  0  0  0  0  0  0
  161.7640  207.2620  150.6370 C   0  0  1  0  0  3  0  0  0  0  0  0
  157.9080  211.5330  154.8550 F   0  0  0  0  0  0  0  0  0  0  0  0
  161.7100  211.8780  149.6430 C   0  0  0  0  0  2  0  0  0  0  0  0
  160.7110  211.7540  150.7040 N   0  0  0  0  0  0  0  0  0  0  0  0
  160.5700  206.6170  151.3240 C   0  0  0  0  0  2  0  0  0  0  0  0
  161.2020  207.1010  148.1640 C   0  0  0  0  0  2  0  0  0  0  0  0
  162.0410  206.5350  149.3180 C   0  0  2  0  0  3  0  0  0  0  0  0
  162.0050  204.9910  149.4470 C   0  0  0  0  0  2  0  0  0  0  0  0
  161.5520  202.9590  148.2710 F   0  0  0  0  0  0  0  0  0  0  0  0
  161.4280  204.9520  147.0030 C   0  0  0  0  0  3  0  0  0  0  0  0
  161.2060  204.2940  148.3360 C   0  0  2  0  0  3  0  0  0  0  0  0
  161.4230  206.2870  146.9210 C   0  0  0  0  0  3  0  0  0  0  0  0
  160.4330  213.1320  151.1220 C   0  0  0  0  0  2  0  0  0  0  0  0
  159.1760  213.6930  150.4440 C   0  0  1  0  0  3  0  0  0  0  0  0
  158.1100  212.9850  148.4270 O   0  0  0  0  0  1  0  0  0  0  0  0
  159.2560  213.6040  148.9280 C   0  0  0  0  0  2  0  0  0  0  0  0
  157.9120  213.0050  150.9370 C   0  0  0  0  0  2  0  0  0  0  0  0
  156.9640  214.0080  151.5700 C   0  0  0  0  0  2  0  0  0  0  0  0
  156.7760  213.7020  152.9180 O   0  0  0  0  0  1  0  0  0  0  0  0
  1 20  1  0  0  0  0
  1 18  1  0  0  0  0
  1 10  1  0  0  0  0
  2 16  1  0  0  0  0
  2  6  1  0  0  0  0
  3  7  1  0  0  0  0
  4 18  1  0  0  0  0
  4  8  1  0  0  0  0
  5 17  1  0  0  0  0
  5  2  1  0  0  0  0
  6  4  1  0  0  0  0
  7 19  1  0  0  0  0
  7  5  1  0  0  0  0
  9 13  1  0  0  0  0
  9  6  1  0  0  0  0
 11 16  1  0  0  0  0
 12  8  1  0  0  0  0
 13  1  1  0  0  0  0
 14 15  1  0  0  0  0
 14 21  1  0  0  0  0
 15  3  1  0  0  0  0
 16 12  1  0  0  0  0
 17  9  1  0  0  0  0
 19 23  1  0  0  0  0
 21 22  1  0  0  0  0
 22 31  1  0  0  0  0
 22 17  1  0  0  0  0
 23 11  1  0  0  0  0
 24 25  1  0  0  0  0
 25 26  1  0  0  0  0
 25 19  1  0  0  0  0
 27 29  1  0  0  0  0
 28 29  1  0  0  0  0
 29 26  1  0  0  0  0
 30 28  2  0  0  0  0
 30 24  1  0  0  0  0
 32 35  1  0  0  0  0
 32 31  1  0  0  0  0
 33 34  1  0  0  0  0
 34 32  1  0  0  0  0
 35 36  1  0  0  0  0
 36 37  1  0  0  0  0
M  END
>  <MODEL>
6

>  <REMARK>
 VINA RESULT:      -5.1      1.461      2.146
  Name = 
  6 active torsions:
  status: ('A' for Active; 'I' for Inactive)
    1  A    between atoms: C_1  and  C_4
    2  A    between atoms: C_1  and  N_27
    3  A    between atoms: C_4  and  C_12
    4  A    between atoms: C_4  and  C_37
    5  A    between atoms: C_8  and  C_12
    6  A    between atoms: C_23  and  C_30
                            x       y       z     vdW  Elec       q    Type
                         _______ _______ _______ _____ _____    ______ ____

>  <TORSDO>
F 6

$$$$
=
 OpenBabel11122413573D

 37 42  0  0  1  0  0  0  0  0999 V2000
  162.6230  205.9290  147.4830 C   0  0  0  0  0  0  0  0  0  0  0  0
  160.7740  206.0350  150.7420 C   0  0  1  0  0  3  0  0  0  0  0  0
  160.3210  208.9500  152.4010 O   0  0  0  0  0  0  0  0  0  0  0  0
  160.7750  204.9020  148.3730 C   0  0  2  0  0  3  0  0  0  0  0  0
  161.5230  207.3440  151.0390 C   0  0  2  0  0  3  0  0  0  0  0  0
  160.4780  206.1230  149.2290 C   0  0  2  0  0  3  0  0  0  0  0  0
  161.3110  207.9540  152.4380 C   0  0  2  0  0  3  0  0  0  0  0  0
  160.1990  203.6710  149.0270 C   0  0  0  0  0  2  0  0  0  0  0  0
  161.2170  207.3380  148.6790 C   0  0  2  0  0  3  0  0  0  0  0  0
  161.9170  206.1990  146.3140 F   0  0  0  0  0  0  0  0  0  0  0  0
  161.5810  204.6470  152.7120 C   0  0  0  0  0  2  0  0  0  0  0  0
  161.1240  203.1820  150.5190 S   0  0  0  0  0  0  0  0  0  0  0  0
  162.5660  207.0220  148.3810 O   0  0  0  0  0  0  0  0  0  0  0  0
  161.6970  210.6810  151.9540 C   0  0  0  0  0  2  0  0  0  0  0  0
  160.8690  210.0450  152.9190 O   0  0  0  0  0  0  0  0  0  0  0  0
  161.6220  204.8210  151.1930 C   0  0  1  0  0  3  0  0  0  0  0  0
  161.1670  208.2730  149.8780 C   0  0  2  0  0  3  0  0  0  0  0  0
  162.1510  204.7540  148.1110 O   0  0  0  0  0  0  0  0  0  0  0  0
  161.0790  206.9290  153.5600 C   0  0  1  0  0  3  0  0  0  0  0  0
  163.9440  205.7270  147.1370 F   0  0  0  0  0  0  0  0  0  0  0  0
  161.2330  210.5270  150.5050 C   0  0  0  0  0  2  0  0  0  0  0  0
  162.0070  209.4850  149.8310 N   0  0  0  0  0  0  0  0  0  0  0  0
  162.1280  205.8280  153.4940 C   0  0  0  0  0  2  0  0  0  0  0  0
  159.6610  207.6930  155.5250 C   0  0  0  0  0  2  0  0  0  0  0  0
  161.0810  207.5460  154.9610 C   0  0  2  0  0  3  0  0  0  0  0  0
  161.9560  208.8200  155.0720 C   0  0  0  0  0  2  0  0  0  0  0  0
  162.2170  210.8960  156.2300 F   0  0  0  0  0  0  0  0  0  0  0  0
  160.4740  209.4870  156.9860 C   0  0  0  0  0  3  0  0  0  0  0  0
  161.2730  209.9790  155.8110 C   0  0  2  0  0  3  0  0  0  0  0  0
  159.7060  208.4020  156.8490 C   0  0  0  0  0  3  0  0  0  0  0  0
  162.1680  209.9670  148.4560 C   0  0  0  0  0  2  0  0  0  0  0  0
  161.9560  211.4830  148.3530 C   0  0  1  0  0  3  0  0  0  0  0  0
  163.0660  212.9290  146.8090 O   0  0  0  0  0  1  0  0  0  0  0  0
  163.2390  212.2170  147.9950 C   0  0  0  0  0  2  0  0  0  0  0  0
  160.8640  211.8340  147.3530 C   0  0  0  0  0  2  0  0  0  0  0  0
  159.9700  212.9350  147.8960 C   0  0  0  0  0  2  0  0  0  0  0  0
  158.7110  212.8650  147.2990 O   0  0  0  0  0  1  0  0  0  0  0  0
  1 18  1  0  0  0  0
  1 13  1  0  0  0  0
  2  5  1  0  0  0  0
  2 16  1  0  0  0  0
  3  7  1  0  0  0  0
  3 15  1  0  0  0  0
  4  8  1  0  0  0  0
  4  6  1  0  0  0  0
  5  7  1  0  0  0  0
  6  2  1  0  0  0  0
  7 19  1  0  0  0  0
  8 12  1  0  0  0  0
  9  6  1  0  0  0  0
  9 17  1  0  0  0  0
 10  1  1  0  0  0  0
 11 23  1  0  0  0  0
 12 16  1  0  0  0  0
 13  9  1  0  0  0  0
 14 15  1  0  0  0  0
 16 11  1  0  0  0  0
 17  5  1  0  0  0  0
 18  4  1  0  0  0  0
 19 25  1  0  0  0  0
 20  1  1  0  0  0  0
 21 14  1  0  0  0  0
 22 17  1  0  0  0  0
 22 21  1  0  0  0  0
 23 19  1  0  0  0  0
 24 30  1  0  0  0  0
 25 26  1  0  0  0  0
 25 24  1  0  0  0  0
 26 29  1  0  0  0  0
 29 27  1  0  0  0  0
 29 28  1  0  0  0  0
 30 28  2  0  0  0  0
 31 22  1  0  0  0  0
 32 31  1  0  0  0  0
 33 34  1  0  0  0  0
 34 32  1  0  0  0  0
 35 36  1  0  0  0  0
 35 32  1  0  0  0  0
 37 36  1  0  0  0  0
M  END
>  <MODEL>
7

>  <REMARK>
 VINA RESULT:      -5.0      2.588      6.508
  Name = 
  6 active torsions:
  status: ('A' for Active; 'I' for Inactive)
    1  A    between atoms: C_1  and  C_4
    2  A    between atoms: C_1  and  N_27
    3  A    between atoms: C_4  and  C_12
    4  A    between atoms: C_4  and  C_37
    5  A    between atoms: C_8  and  C_12
    6  A    between atoms: C_23  and  C_30
                            x       y       z     vdW  Elec       q    Type
                         _______ _______ _______ _____ _____    ______ ____

>  <TORSDO>
F 6

$$$$
