=
 OpenBabel11122414053D

 28 31  0  0  1  0  0  0  0  0999 V2000
  161.1270  208.2700  155.3910 C   0  0  0  0  0  0  0  0  0  0  0  0
  158.5180  210.9660  155.6270 O   0  0  0  0  0  0  0  0  0  0  0  0
  162.6130  210.2920  156.6360 C   0  0  0  0  0  3  0  0  0  0  0  0
  160.4610  207.1310  154.6810 C   0  0  0  0  0  2  0  0  0  0  0  0
  160.1960  212.6470  154.9450 O   0  0  0  0  0  0  0  0  0  0  0  0
  159.0770  211.7580  154.4790 S   0  0  0  0  0  0  0  0  0  0  0  0
  158.2990  213.3100  152.3720 C   0  0  2  0  0  3  0  0  0  0  0  0
  159.5790  210.7110  153.1930 N   0  0  1  0  0  0  0  0  0  0  0  0
  161.7700  205.4130  151.4770 C   0  0  0  0  0  1  0  0  0  0  0  0
  161.6290  209.7930  152.2490 C   0  0  2  0  0  3  0  0  0  0  0  0
  158.8720  212.2320  151.4370 C   0  0  0  0  0  2  0  0  0  0  0  0
  157.8080  212.7600  153.7220 C   0  0  0  0  0  2  0  0  0  0  0  0
  160.9300  206.3660  152.3140 C   0  0  2  0  0  3  0  0  0  0  0  0
  161.2470  209.5330  154.7790 C   0  0  0  0  0  0  0  0  0  0  0  0
  157.2530  213.9730  151.7320 O   0  0  0  0  0  1  0  0  0  0  0  0
  160.7320  207.6080  151.6590 O   0  0  0  0  0  0  0  0  0  0  0  0
  162.0220  210.5260  155.3920 C   0  0  0  0  0  3  0  0  0  0  0  0
  161.7290  208.0390  156.6330 C   0  0  0  0  0  3  0  0  0  0  0  0
  162.4590  209.0510  157.2610 C   0  0  0  0  0  3  0  0  0  0  0  0
  161.4610  206.4590  153.7500 C   0  0  0  0  0  2  0  0  0  0  0  0
  160.9300  210.6910  151.2350 C   0  0  1  0  0  3  0  0  0  0  0  0
  161.9150  208.3770  151.7230 C   0  0  1  0  0  3  0  0  0  0  0  0
  160.0570  211.5610  152.1220 C   0  0  2  0  0  3  0  0  0  0  0  0
  160.6540  209.7380  153.4130 C   0  0  1  0  0  3  0  0  0  0  0  0
  161.5500  207.9770  149.5740 C   0  0  0  0  0  1  0  0  0  0  0  0
  162.5280  208.4220  150.4660 O   0  0  0  0  0  0  0  0  0  0  0  0
  161.9640  211.5370  150.5050 C   0  0  0  0  0  2  0  0  0  0  0  0
  161.6600  211.5790  149.0200 C   0  0  0  0  0  1  0  0  0  0  0  0
  1 18  1  0  0  0  0
  3 19  1  0  0  0  0
  4  1  1  0  0  0  0
  6  5  2  0  0  0  0
  6  2  2  0  0  0  0
  7 15  1  6  0  0  0
  7 12  1  0  0  0  0
  8 24  1  0  0  0  0
  8  6  1  1  0  0  0
  9 13  1  0  0  0  0
 10 24  1  0  0  0  0
 11 23  1  0  0  0  0
 11  7  1  0  0  0  0
 12  6  1  0  0  0  0
 13 20  1  0  0  0  0
 14  1  2  0  0  0  0
 14 17  1  0  0  0  0
 16 22  1  0  0  0  0
 16 13  1  0  0  0  0
 17  3  2  0  0  0  0
 18 19  2  0  0  0  0
 20  4  1  0  0  0  0
 21 23  1  0  0  0  0
 21 10  1  0  0  0  0
 22 10  1  0  0  0  0
 23  8  1  0  0  0  0
 24 14  1  0  0  0  0
 25 26  1  0  0  0  0
 26 22  1  0  0  0  0
 27 21  1  0  0  0  0
 28 27  1  0  0  0  0
M  END
>  <MODEL>
1

>  <REMARK>
 VINA RESULT:      -6.2      0.000      0.000
  Name = 
  2 active torsions:
  status: ('A' for Active; 'I' for Inactive)
    1  A    between atoms: C_5  and  C_24
    2  A    between atoms: O_17  and  C_25
                            x       y       z     vdW  Elec       q    Type
                         _______ _______ _______ _____ _____    ______ ____

>  <TORSDO>
F 2

$$$$
