=
 OpenBabel11122413363D

 37 43  0  0  1  0  0  0  0  0999 V2000
  161.6030  210.2590  154.3170 C   0  0  0  0  0  2  0  0  0  0  0  0
  161.4950  205.4880  152.5600 C   0  0  1  0  0  0  0  0  0  0  0  0
  161.5020  209.3090  150.6970 N   0  0  1  0  0  0  0  0  0  0  0  0
  161.8840  210.4450  155.8140 C   0  0  2  0  0  3  0  0  0  0  0  0
  159.5980  212.1470  152.1690 O   0  0  0  0  0  0  0  0  0  0  0  0
  162.1850  206.8940  150.5230 C   0  0  1  0  0  3  0  0  0  0  0  0
  160.3770  210.0090  151.3390 C   0  0  2  0  0  3  0  0  0  0  0  0
  160.2490  212.3860  155.7930 C   0  0  0  0  0  0  0  0  0  0  0  0
  161.1760  207.9370  151.0180 C   0  0  1  0  0  3  0  0  0  0  0  0
  160.7040  211.4980  151.6060 C   0  0  1  0  0  3  0  0  0  0  0  0
  163.3150  207.5610  149.7370 C   0  0  0  0  0  2  0  0  0  0  0  0
  160.8060  211.2310  156.5770 C   0  0  0  0  0  2  0  0  0  0  0  0
  160.9440  207.9480  152.4790 C   0  0  2  0  0  3  0  0  0  0  0  0
  162.0300  205.0000  153.7510 O   0  0  0  0  0  1  0  0  0  0  0  0
  161.5780  210.7900  148.7000 C   0  0  0  0  0  2  0  0  0  0  0  0
  162.7540  208.5720  148.7090 C   0  0  0  0  0  2  0  0  0  0  0  0
  160.4440  206.5780  152.9020 C   0  0  0  0  0  2  0  0  0  0  0  0
  159.4000  212.1590  154.5670 C   0  0  1  0  0  3  0  0  0  0  0  0
  160.0860  212.7440  153.3340 C   0  0  0  0  0  2  0  0  0  0  0  0
  161.5340  209.3670  149.2340 C   0  0  1  0  0  3  0  0  0  0  0  0
  160.0190  209.1410  152.6070 C   0  0  1  0  0  3  0  0  0  0  0  0
  162.6660  205.9850  151.6650 C   0  0  0  0  0  2  0  0  0  0  0  0
  161.1890  212.2930  150.3710 C   0  0  1  0  0  3  0  0  0  0  0  0
  160.7860  204.3490  151.8530 C   0  0  0  0  0  1  0  0  0  0  0  0
  159.0230  210.6760  154.3870 C   0  0  0  0  0  2  0  0  0  0  0  0
  160.4830  213.5260  156.1630 O   0  0  0  0  0  0  0  0  0  0  0  0
  160.1870  209.7410  154.0140 C   0  0  2  0  0  3  0  0  0  0  0  0
  162.1980  211.6630  149.6070 O   0  0  0  0  0  0  0  0  0  0  0  0
  160.5380  213.7540  148.4340 C   0  0  0  0  0  3  0  0  0  0  0  0
  160.1490  213.0550  149.5820 C   0  0  0  0  0  0  0  0  0  0  0  0
  158.8000  213.0520  149.9670 C   0  0  0  0  0  3  0  0  0  0  0  0
  156.1730  213.7490  149.7020 Cl  0  0  0  0  0  0  0  0  0  0  0  0
  158.2490  214.4530  148.0710 C   0  0  0  0  0  3  0  0  0  0  0  0
  157.8530  213.7520  149.2140 C   0  0  0  0  0  0  0  0  0  0  0  0
  159.5910  214.4530  147.6800 C   0  0  0  0  0  3  0  0  0  0  0  0
  163.5540  210.6770  157.2490 C   0  0  0  0  0  1  0  0  0  0  0  0
  163.1230  211.0640  155.9780 O   0  0  0  0  0  0  0  0  0  0  0  0
  1  4  1  0  0  0  0
  2 24  1  6  0  0  0
  2 17  1  0  0  0  0
  2 14  1  0  0  0  0
  3  9  1  0  0  0  0
  3  7  1  0  0  0  0
  4 37  1  0  0  0  0
  4 12  1  0  0  0  0
  5 19  1  0  0  0  0
  6  9  1  0  0  0  0
  6 22  1  0  0  0  0
  7 10  1  0  0  0  0
  7 21  1  0  0  0  0
  8 26  2  0  0  0  0
  8 12  1  0  0  0  0
  9 13  1  0  0  0  0
 10  5  1  0  0  0  0
 11  6  1  0  0  0  0
 13 21  1  0  0  0  0
 13 17  1  0  0  0  0
 15 20  1  0  0  0  0
 15 28  1  0  0  0  0
 16 20  1  0  0  0  0
 16 11  1  0  0  0  0
 18  8  1  0  0  0  0
 19 18  1  0  0  0  0
 20  3  1  0  0  0  0
 21 27  1  0  0  0  0
 22  2  1  0  0  0  0
 23 10  1  0  0  0  0
 25 18  1  0  0  0  0
 27  1  1  0  0  0  0
 27 25  1  0  0  0  0
 28 23  1  0  0  0  0
 29 30  1  0  0  0  0
 30 31  2  0  0  0  0
 30 23  1  0  0  0  0
 33 34  2  0  0  0  0
 34 32  1  0  0  0  0
 34 31  1  0  0  0  0
 35 33  1  0  0  0  0
 35 29  2  0  0  0  0
 37 36  1  0  0  0  0
M  END
>  <MODEL>
1

>  <REMARK>
 VINA RESULT:      -1.4      0.000      0.000
  Name = 
  2 active torsions:
  status: ('A' for Active; 'I' for Inactive)
    1  A    between atoms: C_4  and  O_37
    2  A    between atoms: C_23  and  C_30
                            x       y       z     vdW  Elec       q    Type
                         _______ _______ _______ _____ _____    ______ ____

>  <TORSDO>
F 2

$$$$
=
 OpenBabel11122413363D

 37 43  0  0  1  0  0  0  0  0999 V2000
  160.8600  207.9310  150.8280 C   0  0  0  0  0  2  0  0  0  0  0  0
  160.9010  209.8920  155.5200 C   0  0  1  0  0  0  0  0  0  0  0  0
  160.3170  211.5440  151.6470 N   0  0  1  0  0  0  0  0  0  0  0  0
  160.8630  206.4000  150.7120 C   0  0  2  0  0  3  0  0  0  0  0  0
  162.3030  210.3320  148.7430 O   0  0  0  0  0  0  0  0  0  0  0  0
  159.7530  211.6940  154.0940 C   0  0  1  0  0  3  0  0  0  0  0  0
  161.5020  211.0960  150.8980 C   0  0  2  0  0  3  0  0  0  0  0  0
  162.3490  206.6430  148.6690 C   0  0  0  0  0  0  0  0  0  0  0  0
  160.7760  211.3530  153.0040 C   0  0  1  0  0  3  0  0  0  0  0  0
  161.1470  210.7030  149.4420 C   0  0  1  0  0  3  0  0  0  0  0  0
  158.4560  212.2200  153.4750 C   0  0  0  0  0  2  0  0  0  0  0  0
  162.0200  205.8210  149.8840 C   0  0  0  0  0  2  0  0  0  0  0  0
  161.2840  209.9640  153.0280 C   0  0  2  0  0  3  0  0  0  0  0  0
  160.6340  208.6450  156.0820 O   0  0  0  0  0  1  0  0  0  0  0  0
  159.7730  213.4200  150.1070 C   0  0  0  0  0  2  0  0  0  0  0  0
  158.7500  213.2890  152.3960 C   0  0  0  0  0  2  0  0  0  0  0  0
  161.9340  209.7070  154.3760 C   0  0  0  0  0  2  0  0  0  0  0  0
  162.9570  208.0170  148.7990 C   0  0  1  0  0  3  0  0  0  0  0  0
  162.0150  209.0690  148.2180 C   0  0  0  0  0  2  0  0  0  0  0  0
  160.0010  212.9700  151.5420 C   0  0  1  0  0  3  0  0  0  0  0  0
  162.1460  209.9600  151.7820 C   0  0  1  0  0  3  0  0  0  0  0  0
  159.5530  210.5250  155.0700 C   0  0  0  0  0  2  0  0  0  0  0  0
  160.3890  211.7860  148.6390 C   0  0  1  0  0  3  0  0  0  0  0  0
  161.5250  210.7730  156.5860 C   0  0  0  0  0  1  0  0  0  0  0  0
  163.3770  208.3330  150.2470 C   0  0  0  0  0  2  0  0  0  0  0  0
  162.1250  206.1840  147.5600 O   0  0  0  0  0  0  0  0  0  0  0  0
  162.2190  208.5200  151.2430 C   0  0  2  0  0  3  0  0  0  0  0  0
  159.2900  212.3720  149.3070 O   0  0  0  0  0  0  0  0  0  0  0  0
  162.1230  213.5890  148.4010 C   0  0  0  0  0  3  0  0  0  0  0  0
  161.2120  212.7230  147.7850 C   0  0  0  0  0  0  0  0  0  0  0  0
  161.0950  212.7210  146.3870 C   0  0  0  0  0  3  0  0  0  0  0  0
  161.7210  213.5830  143.8720 Cl  0  0  0  0  0  0  0  0  0  0  0  0
  162.7800  214.4530  146.2360 C   0  0  0  0  0  3  0  0  0  0  0  0
  161.8750  213.5860  145.6150 C   0  0  0  0  0  0  0  0  0  0  0  0
  162.9040  214.4530  147.6290 C   0  0  0  0  0  3  0  0  0  0  0  0
  159.7440  204.5850  150.1200 C   0  0  0  0  0  1  0  0  0  0  0  0
  159.6440  205.9760  150.1810 O   0  0  0  0  0  0  0  0  0  0  0  0
  1 27  1  0  0  0  0
  2 14  1  0  0  0  0
  2 24  1  1  0  0  0
  3  9  1  0  0  0  0
  4  1  1  0  0  0  0
  5 10  1  0  0  0  0
  6 22  1  0  0  0  0
  7  3  1  0  0  0  0
  7 21  1  0  0  0  0
  8 18  1  0  0  0  0
  8 12  1  0  0  0  0
  9 13  1  0  0  0  0
  9  6  1  0  0  0  0
 10  7  1  0  0  0  0
 11  6  1  0  0  0  0
 12  4  1  0  0  0  0
 13 17  1  0  0  0  0
 15 20  1  0  0  0  0
 16 11  1  0  0  0  0
 17  2  1  0  0  0  0
 18 25  1  0  0  0  0
 19  5  1  0  0  0  0
 19 18  1  0  0  0  0
 20  3  1  0  0  0  0
 20 16  1  0  0  0  0
 21 13  1  0  0  0  0
 22  2  1  0  0  0  0
 23 28  1  0  0  0  0
 23 10  1  0  0  0  0
 25 27  1  0  0  0  0
 26  8  2  0  0  0  0
 27 21  1  0  0  0  0
 28 15  1  0  0  0  0
 30 29  1  0  0  0  0
 30 23  1  0  0  0  0
 31 30  2  0  0  0  0
 32 34  1  0  0  0  0
 33 35  1  0  0  0  0
 34 33  2  0  0  0  0
 34 31  1  0  0  0  0
 35 29  2  0  0  0  0
 36 37  1  0  0  0  0
 37  4  1  0  0  0  0
M  END
>  <MODEL>
2

>  <REMARK>
 VINA RESULT:       0.4      2.459      5.876
  Name = 
  2 active torsions:
  status: ('A' for Active; 'I' for Inactive)
    1  A    between atoms: C_4  and  O_37
    2  A    between atoms: C_23  and  C_30
                            x       y       z     vdW  Elec       q    Type
                         _______ _______ _______ _____ _____    ______ ____

>  <TORSDO>
F 2

$$$$
=
 OpenBabel11122413363D

 37 43  0  0  1  0  0  0  0  0999 V2000
  160.7760  210.5150  147.8410 C   0  0  0  0  0  2  0  0  0  0  0  0
  162.3330  205.8330  146.6080 C   0  0  1  0  0  0  0  0  0  0  0  0
  161.2720  207.7100  150.2710 N   0  0  1  0  0  0  0  0  0  0  0  0
  160.4030  211.4530  146.6850 C   0  0  2  0  0  3  0  0  0  0  0  0
  162.2130  211.2480  150.9390 O   0  0  0  0  0  0  0  0  0  0  0  0
  161.3310  205.5650  148.9580 C   0  0  1  0  0  3  0  0  0  0  0  0
  162.1210  208.9120  150.3020 C   0  0  2  0  0  3  0  0  0  0  0  0
  161.3990  213.3630  148.0270 C   0  0  0  0  0  0  0  0  0  0  0  0
  161.9730  206.9180  149.2860 C   0  0  1  0  0  3  0  0  0  0  0  0
  161.3640  210.1360  150.8740 C   0  0  1  0  0  3  0  0  0  0  0  0
  160.0820  205.3360  149.8120 C   0  0  0  0  0  2  0  0  0  0  0  0
  161.1770  212.7790  146.6590 C   0  0  0  0  0  2  0  0  0  0  0  0
  162.1430  207.8310  148.1350 C   0  0  2  0  0  3  0  0  0  0  0  0
  161.9230  206.0070  145.2870 O   0  0  0  0  0  1  0  0  0  0  0  0
  160.8340  207.6810  152.7200 C   0  0  0  0  0  2  0  0  0  0  0  0
  160.3580  205.6670  151.2980 C   0  0  0  0  0  2  0  0  0  0  0  0
  163.0070  207.1450  147.0920 C   0  0  0  0  0  2  0  0  0  0  0  0
  162.3180  212.6960  149.0190 C   0  0  1  0  0  3  0  0  0  0  0  0
  161.5330  212.2590  150.2550 C   0  0  0  0  0  2  0  0  0  0  0  0
  161.2740  206.9000  151.4910 C   0  0  1  0  0  3  0  0  0  0  0  0
  162.6740  209.0670  148.8330 C   0  0  1  0  0  3  0  0  0  0  0  0
  161.0980  205.3990  147.4490 C   0  0  0  0  0  2  0  0  0  0  0  0
  160.7100  209.9120  152.2580 C   0  0  1  0  0  3  0  0  0  0  0  0
  163.3670  204.7250  146.6460 C   0  0  0  0  0  1  0  0  0  0  0  0
  163.1180  211.5410  148.3870 C   0  0  0  0  0  2  0  0  0  0  0  0
  160.8290  214.3990  148.3320 O   0  0  0  0  0  0  0  0  0  0  0  0
  162.2910  210.3020  147.9990 C   0  0  2  0  0  3  0  0  0  0  0  0
  159.9560  208.7230  152.3820 O   0  0  0  0  0  0  0  0  0  0  0  0
  162.9050  210.3200  153.4100 C   0  0  0  0  0  3  0  0  0  0  0  0
  161.5070  210.3120  153.4780 C   0  0  0  0  0  0  0  0  0  0  0  0
  160.8700  210.6970  154.6670 C   0  0  0  0  0  3  0  0  0  0  0  0
  160.8250  211.5520  157.2610 Cl  0  0  0  0  0  0  0  0  0  0  0  0
  163.0230  211.0780  155.7070 C   0  0  0  0  0  3  0  0  0  0  0  0
  161.6260  211.0770  155.7790 C   0  0  0  0  0  0  0  0  0  0  0  0
  163.6620  210.7010  154.5220 C   0  0  0  0  0  3  0  0  0  0  0  0
  158.7920  212.5440  145.6300 C   0  0  0  0  0  1  0  0  0  0  0  0
  159.0310  211.7080  146.7220 O   0  0  0  0  0  0  0  0  0  0  0  0
  1 27  1  0  0  0  0
  2 24  1  1  0  0  0
  2 17  1  0  0  0  0
  2 22  1  0  0  0  0
  3  7  1  0  0  0  0
  3 20  1  0  0  0  0
  4 37  1  0  0  0  0
  4  1  1  0  0  0  0
  6  9  1  0  0  0  0
  6 11  1  0  0  0  0
  7 10  1  0  0  0  0
  8 26  2  0  0  0  0
  8 18  1  0  0  0  0
  9  3  1  0  0  0  0
 10  5  1  0  0  0  0
 10 23  1  0  0  0  0
 11 16  1  0  0  0  0
 12  4  1  0  0  0  0
 12  8  1  0  0  0  0
 13 21  1  0  0  0  0
 13  9  1  0  0  0  0
 14  2  1  0  0  0  0
 16 20  1  0  0  0  0
 17 13  1  0  0  0  0
 18 19  1  0  0  0  0
 19  5  1  0  0  0  0
 20 15  1  0  0  0  0
 21  7  1  0  0  0  0
 22  6  1  0  0  0  0
 23 28  1  0  0  0  0
 23 30  1  0  0  0  0
 25 18  1  0  0  0  0
 27 25  1  0  0  0  0
 27 21  1  0  0  0  0
 28 15  1  0  0  0  0
 29 30  2  0  0  0  0
 29 35  1  0  0  0  0
 30 31  1  0  0  0  0
 31 34  2  0  0  0  0
 33 34  1  0  0  0  0
 34 32  1  0  0  0  0
 35 33  2  0  0  0  0
 36 37  1  0  0  0  0
M  END
>  <MODEL>
3

>  <REMARK>
 VINA RESULT:       0.9      2.793      6.496
  Name = 
  2 active torsions:
  status: ('A' for Active; 'I' for Inactive)
    1  A    between atoms: C_4  and  O_37
    2  A    between atoms: C_23  and  C_30
                            x       y       z     vdW  Elec       q    Type
                         _______ _______ _______ _____ _____    ______ ____

>  <TORSDO>
F 2

$$$$
