=
 OpenBabel11122413473D

 37 44  0  0  1  0  0  0  0  0999 V2000
  160.5450  207.5740  151.4440 C   0  0  0  0  0  2  0  0  0  0  0  0
  160.2470  207.6330  156.4030 C   0  0  0  0  0  0  0  0  0  0  0  0
  159.8440  211.2080  154.1860 C   0  0  0  0  0  0  0  0  0  0  0  0
  161.2850  206.3970  150.8020 C   0  0  1  0  0  3  0  0  0  0  0  0
  161.3060  211.4780  150.6490 C   0  0  0  0  0  2  0  0  0  0  0  0
  159.7540  210.1390  156.3820 C   0  0  0  0  0  0  0  0  0  0  0  0
  160.3410  210.8260  152.9340 C   0  0  0  0  0  0  0  0  0  0  0  0
  161.9210  208.0330  149.0110 C   0  0  1  0  0  3  0  0  0  0  0  0
  160.0840  210.1090  155.0520 C   0  0  0  0  0  0  0  0  0  0  0  0
  160.3440  211.6690  151.7450 N   0  0  0  0  0  0  0  0  0  0  0  0
  159.1880  211.2460  156.8670 O   0  0  0  0  0  0  0  0  0  0  0  0
  162.3800  206.8390  149.8350 C   0  0  0  0  0  2  0  0  0  0  0  0
  160.6570  209.0830  154.3870 C   0  0  0  0  0  0  0  0  0  0  0  0
  158.8710  207.0890  156.0620 C   0  0  0  0  0  1  0  0  0  0  0  0
  158.8190  213.5610  153.9310 C   0  0  0  0  0  2  0  0  0  0  0  0
  158.9240  212.3190  156.1010 C   0  0  0  0  0  3  0  0  0  0  0  0
  161.0620  207.8230  155.0940 C   0  0  0  0  0  2  0  0  0  0  0  0
  162.3760  209.3620  149.6220 C   0  0  1  0  0  3  0  0  0  0  0  0
  161.2540  210.0380  150.2500 C   0  0  1  0  0  3  0  0  0  0  0  0
  159.2500  212.3620  154.7240 C   0  0  0  0  0  0  0  0  0  0  0  0
  160.8510  209.4920  153.0730 C   0  0  0  0  0  0  0  0  0  0  0  0
  160.0910  208.9410  157.2340 C   0  0  0  0  0  2  0  0  0  0  0  0
  159.3610  212.7560  151.6610 C   0  0  1  0  0  3  0  0  0  0  0  0
  160.9570  206.6070  157.2590 C   0  0  0  0  0  1  0  0  0  0  0  0
  162.2910  209.4400  151.1060 N   0  0  1  0  0  0  0  0  0  0  0  0
  162.4330  207.9250  147.7190 O   0  0  0  0  0  1  0  0  0  0  0  0
  161.5120  208.6110  152.0390 C   0  0  2  0  0  3  0  0  0  0  0  0
  159.6590  213.8260  152.6960 C   0  0  0  0  0  2  0  0  0  0  0  0
  160.2720  213.8940  149.6270 C   0  0  0  0  0  3  0  0  0  0  0  0
  159.1750  213.3200  150.2790 C   0  0  0  0  0  0  0  0  0  0  0  0
  157.9180  213.3220  149.6510 C   0  0  0  0  0  3  0  0  0  0  0  0
  156.4950  213.8770  147.7460 N   0  0  0  0  0  1  0  0  0  0  0  0
  158.8700  214.4460  147.7300 C   0  0  0  0  0  3  0  0  0  0  0  0
  157.7690  213.8800  148.3790 C   0  0  0  0  0  0  0  0  0  0  0  0
  160.1220  214.4530  148.3540 C   0  0  0  0  0  3  0  0  0  0  0  0
  161.5490  204.1520  151.5780 O   0  0  0  0  0  1  0  0  0  0  0  0
  161.8770  205.4790  151.8590 C   0  0  0  0  0  2  0  0  0  0  0  0
  1 27  1  0  0  0  0
  2 22  1  0  0  0  0
  2 24  1  0  0  0  0
  3 20  1  0  0  0  0
  3  9  1  0  0  0  0
  4  1  1  0  0  0  0
  4 37  1  1  0  0  0
  5 10  1  0  0  0  0
  6 11  1  0  0  0  0
  6 22  1  0  0  0  0
  7 21  1  0  0  0  0
  7  3  2  0  0  0  0
  8 26  1  6  0  0  0
  8 18  1  0  0  0  0
  8 12  1  0  0  0  0
  9  6  2  0  0  0  0
 10  7  1  0  0  0  0
 12  4  1  0  0  0  0
 13  9  1  0  0  0  0
 13 17  1  0  0  0  0
 14  2  1  0  0  0  0
 15 20  1  0  0  0  0
 16 11  1  0  0  0  0
 17  2  1  0  0  0  0
 18 19  1  0  0  0  0
 18 25  1  0  0  0  0
 19  5  1  0  0  0  0
 19 25  1  0  0  0  0
 20 16  2  0  0  0  0
 21 13  2  0  0  0  0
 23 10  1  0  0  0  0
 23 28  1  0  0  0  0
 25 27  1  0  0  0  0
 27 21  1  0  0  0  0
 28 15  1  0  0  0  0
 29 30  1  0  0  0  0
 30 23  1  0  0  0  0
 31 30  2  0  0  0  0
 32 34  1  0  0  0  0
 33 35  1  0  0  0  0
 33 34  2  0  0  0  0
 34 31  1  0  0  0  0
 35 29  2  0  0  0  0
 36 37  1  0  0  0  0
M  END
>  <MODEL>
1

>  <REMARK>
 VINA RESULT:      -5.5      0.000      0.000
  Name = 
  2 active torsions:
  status: ('A' for Active; 'I' for Inactive)
    1  A    between atoms: C_4  and  C_37
    2  A    between atoms: C_23  and  C_30
                            x       y       z     vdW  Elec       q    Type
                         _______ _______ _______ _____ _____    ______ ____

>  <TORSDO>
F 2

$$$$
=
 OpenBabel11122413473D

 37 44  0  0  1  0  0  0  0  0999 V2000
  160.7860  208.1090  151.4290 C   0  0  0  0  0  2  0  0  0  0  0  0
  160.8340  209.2100  156.2740 C   0  0  0  0  0  0  0  0  0  0  0  0
  159.9800  212.1920  153.4040 C   0  0  0  0  0  0  0  0  0  0  0  0
  161.5730  206.8730  150.9860 C   0  0  1  0  0  3  0  0  0  0  0  0
  161.1620  211.7930  149.7750 C   0  0  0  0  0  2  0  0  0  0  0  0
  160.1340  211.6150  155.7740 C   0  0  0  0  0  0  0  0  0  0  0  0
  160.4180  211.5840  152.2210 C   0  0  0  0  0  0  0  0  0  0  0  0
  161.9440  208.1260  148.8450 C   0  0  1  0  0  3  0  0  0  0  0  0
  160.3710  211.3230  154.4560 C   0  0  0  0  0  0  0  0  0  0  0  0
  160.2670  212.1510  150.8860 N   0  0  0  0  0  0  0  0  0  0  0  0
  159.5140  212.7600  156.0650 O   0  0  0  0  0  0  0  0  0  0  0  0
  162.5570  207.1690  149.8570 C   0  0  0  0  0  2  0  0  0  0  0  0
  160.9790  210.2180  153.9720 C   0  0  0  0  0  0  0  0  0  0  0  0
  159.4870  208.5160  156.1740 C   0  0  0  0  0  1  0  0  0  0  0  0
  158.7480  214.3620  152.7530 C   0  0  0  0  0  2  0  0  0  0  0  0
  159.1090  213.6240  155.1170 C   0  0  0  0  0  3  0  0  0  0  0  0
  161.5360  209.1690  154.8890 C   0  0  0  0  0  2  0  0  0  0  0  0
  162.3280  209.5810  149.1230 C   0  0  1  0  0  3  0  0  0  0  0  0
  161.2010  210.3020  149.6920 C   0  0  1  0  0  3  0  0  0  0  0  0
  159.3320  213.3920  153.7380 C   0  0  0  0  0  0  0  0  0  0  0  0
  161.0460  210.3480  152.5900 C   0  0  0  0  0  0  0  0  0  0  0  0
  160.6290  210.6520  156.8240 C   0  0  0  0  0  2  0  0  0  0  0  0
  159.1940  213.1270  150.6630 C   0  0  1  0  0  3  0  0  0  0  0  0
  161.6850  208.4410  157.2610 C   0  0  0  0  0  1  0  0  0  0  0  0
  162.3430  209.9710  150.5600 N   0  0  1  0  0  0  0  0  0  0  0  0
  162.3710  207.7780  147.5640 O   0  0  0  0  0  1  0  0  0  0  0  0
  161.7030  209.3110  151.7090 C   0  0  2  0  0  3  0  0  0  0  0  0
  159.4740  214.4110  151.4220 C   0  0  0  0  0  2  0  0  0  0  0  0
  157.5680  213.0990  148.7600 C   0  0  0  0  0  3  0  0  0  0  0  0
  158.8640  213.3680  149.2150 C   0  0  0  0  0  0  0  0  0  0  0  0
  159.8380  213.8130  148.3060 C   0  0  0  0  0  3  0  0  0  0  0  0
  160.5000  214.4530  146.0450 N   0  0  0  0  0  1  0  0  0  0  0  0
  158.2130  213.7360  146.5140 C   0  0  0  0  0  3  0  0  0  0  0  0
  159.5110  213.9990  146.9610 C   0  0  0  0  0  0  0  0  0  0  0  0
  157.2420  213.2850  147.4130 C   0  0  0  0  0  3  0  0  0  0  0  0
  161.4370  206.0430  153.2230 O   0  0  0  0  0  1  0  0  0  0  0  0
  162.3120  206.2440  152.1550 C   0  0  0  0  0  2  0  0  0  0  0  0
  1 27  1  0  0  0  0
  2 22  1  0  0  0  0
  2 24  1  0  0  0  0
  3 20  1  0  0  0  0
  3  9  1  0  0  0  0
  4  1  1  0  0  0  0
  4 37  1  1  0  0  0
  5 10  1  0  0  0  0
  6 11  1  0  0  0  0
  6 22  1  0  0  0  0
  7 21  1  0  0  0  0
  7  3  2  0  0  0  0
  8 26  1  6  0  0  0
  8 18  1  0  0  0  0
  8 12  1  0  0  0  0
  9  6  2  0  0  0  0
 10  7  1  0  0  0  0
 12  4  1  0  0  0  0
 13  9  1  0  0  0  0
 13 17  1  0  0  0  0
 14  2  1  0  0  0  0
 15 20  1  0  0  0  0
 16 11  1  0  0  0  0
 17  2  1  0  0  0  0
 18 19  1  0  0  0  0
 18 25  1  0  0  0  0
 19  5  1  0  0  0  0
 19 25  1  0  0  0  0
 20 16  2  0  0  0  0
 21 13  2  0  0  0  0
 23 10  1  0  0  0  0
 23 28  1  0  0  0  0
 25 27  1  0  0  0  0
 27 21  1  0  0  0  0
 28 15  1  0  0  0  0
 29 30  1  0  0  0  0
 30 23  1  0  0  0  0
 31 30  2  0  0  0  0
 32 34  1  0  0  0  0
 33 34  2  0  0  0  0
 33 35  1  0  0  0  0
 34 31  1  0  0  0  0
 35 29  2  0  0  0  0
 37 36  1  0  0  0  0
M  END
>  <MODEL>
2

>  <REMARK>
 VINA RESULT:      -5.0      1.314      1.662
  Name = 
  2 active torsions:
  status: ('A' for Active; 'I' for Inactive)
    1  A    between atoms: C_4  and  C_37
    2  A    between atoms: C_23  and  C_30
                            x       y       z     vdW  Elec       q    Type
                         _______ _______ _______ _____ _____    ______ ____

>  <TORSDO>
F 2

$$$$
=
 OpenBabel11122413473D

 37 44  0  0  1  0  0  0  0  0999 V2000
  159.2750  209.2380  154.1310 C   0  0  0  0  0  2  0  0  0  0  0  0
  160.2540  213.0420  151.0890 C   0  0  0  0  0  0  0  0  0  0  0  0
  161.4350  209.1170  150.0650 C   0  0  0  0  0  0  0  0  0  0  0  0
  159.0380  209.5670  155.6070 C   0  0  1  0  0  3  0  0  0  0  0  0
  161.9000  206.4530  152.7880 C   0  0  0  0  0  2  0  0  0  0  0  0
  161.2810  211.4550  149.3720 C   0  0  0  0  0  0  0  0  0  0  0  0
  161.3130  208.4520  151.2910 C   0  0  0  0  0  0  0  0  0  0  0  0
  160.0420  207.3150  156.0630 C   0  0  1  0  0  3  0  0  0  0  0  0
  161.2080  210.4900  150.3420 C   0  0  0  0  0  0  0  0  0  0  0  0
  161.5110  207.0210  151.4880 N   0  0  0  0  0  0  0  0  0  0  0  0
  161.5780  211.0770  148.1270 O   0  0  0  0  0  0  0  0  0  0  0  0
  159.9220  208.7520  156.5480 C   0  0  0  0  0  2  0  0  0  0  0  0
  160.9190  210.6800  151.6480 C   0  0  0  0  0  0  0  0  0  0  0  0
  158.7790  212.8380  150.7900 C   0  0  0  0  0  1  0  0  0  0  0  0
  161.9010  207.3360  148.2580 C   0  0  0  0  0  2  0  0  0  0  0  0
  161.7970  209.7920  147.7930 C   0  0  0  0  0  3  0  0  0  0  0  0
  160.6920  212.0550  152.2040 C   0  0  0  0  0  2  0  0  0  0  0  0
  161.2990  207.0950  155.2170 C   0  0  1  0  0  3  0  0  0  0  0  0
  160.9480  206.9800  153.8120 C   0  0  1  0  0  3  0  0  0  0  0  0
  161.7500  208.7460  148.7470 C   0  0  0  0  0  0  0  0  0  0  0  0
  160.9920  209.4430  152.2770 C   0  0  0  0  0  0  0  0  0  0  0  0
  161.0700  212.8940  149.7710 C   0  0  0  0  0  2  0  0  0  0  0  0
  161.3320  206.1300  150.3350 C   0  0  1  0  0  3  0  0  0  0  0  0
  160.4350  214.4530  151.6050 C   0  0  0  0  0  1  0  0  0  0  0  0
  161.6300  208.1990  154.2740 N   0  0  1  0  0  0  0  0  0  0  0  0
  160.0770  206.4590  157.1640 O   0  0  0  0  0  1  0  0  0  0  0  0
  160.7670  209.2750  153.7620 C   0  0  2  0  0  3  0  0  0  0  0  0
  162.4200  206.3670  149.3040 C   0  0  0  0  0  2  0  0  0  0  0  0
  161.3140  204.2870  152.0290 C   0  0  0  0  0  3  0  0  0  0  0  0
  161.1760  204.6760  150.6920 C   0  0  0  0  0  0  0  0  0  0  0  0
  160.9410  203.7010  149.7090 C   0  0  0  0  0  3  0  0  0  0  0  0
  160.5900  201.3720  149.0670 N   0  0  0  0  0  1  0  0  0  0  0  0
  160.9620  201.9740  151.4040 C   0  0  0  0  0  3  0  0  0  0  0  0
  160.8310  202.3560  150.0660 C   0  0  0  0  0  0  0  0  0  0  0  0
  161.2040  202.9400  152.3860 C   0  0  0  0  0  3  0  0  0  0  0  0
  158.5440  211.8060  154.9310 O   0  0  0  0  0  1  0  0  0  0  0  0
  159.2350  211.0500  155.8780 C   0  0  0  0  0  2  0  0  0  0  0  0
  1  4  1  0  0  0  0
  2 24  1  0  0  0  0
  2 17  1  0  0  0  0
  3  9  1  0  0  0  0
  3  7  2  0  0  0  0
  4 37  1  6  0  0  0
  4 12  1  0  0  0  0
  5 19  1  0  0  0  0
  6 22  1  0  0  0  0
  6  9  2  0  0  0  0
  7 10  1  0  0  0  0
  7 21  1  0  0  0  0
  8 12  1  0  0  0  0
  8 26  1  1  0  0  0
  9 13  1  0  0  0  0
 10  5  1  0  0  0  0
 11  6  1  0  0  0  0
 13 17  1  0  0  0  0
 13 21  2  0  0  0  0
 14  2  1  0  0  0  0
 15 20  1  0  0  0  0
 15 28  1  0  0  0  0
 16 11  1  0  0  0  0
 16 20  2  0  0  0  0
 18  8  1  0  0  0  0
 19 25  1  0  0  0  0
 19 18  1  0  0  0  0
 20  3  1  0  0  0  0
 21 27  1  0  0  0  0
 22  2  1  0  0  0  0
 23 30  1  0  0  0  0
 23 10  1  0  0  0  0
 25 18  1  0  0  0  0
 27  1  1  0  0  0  0
 27 25  1  0  0  0  0
 28 23  1  0  0  0  0
 29 35  1  0  0  0  0
 30 29  2  0  0  0  0
 31 34  2  0  0  0  0
 31 30  1  0  0  0  0
 32 34  1  0  0  0  0
 33 35  2  0  0  0  0
 34 33  1  0  0  0  0
 36 37  1  0  0  0  0
M  END
>  <MODEL>
3

>  <REMARK>
 VINA RESULT:      -3.2      2.523      7.880
  Name = 
  2 active torsions:
  status: ('A' for Active; 'I' for Inactive)
    1  A    between atoms: C_4  and  C_37
    2  A    between atoms: C_23  and  C_30
                            x       y       z     vdW  Elec       q    Type
                         _______ _______ _______ _____ _____    ______ ____

>  <TORSDO>
F 2

$$$$
