=
 OpenBabel11122413053D

 32 37  0  0  1  0  0  0  0  0999 V2000
  159.0560  210.8970  155.5170 C   0  0  0  0  0  2  0  0  0  0  0  0
  161.1210  207.9230  152.7360 C   0  0  2  0  0  3  0  0  0  0  0  0
  162.0570  211.2040  149.1600 C   0  0  0  0  0  3  0  0  0  0  0  0
  161.8910  210.2030  148.2030 C   0  0  0  0  0  3  0  0  0  0  0  0
  160.8760  205.5310  152.0570 C   0  0  0  0  0  0  0  0  0  0  0  0
  160.9690  204.5420  151.0830 C   0  0  0  0  0  0  0  0  0  0  0  0
  161.2630  208.5630  155.1790 C   0  0  1  0  0  3  0  0  0  0  0  0
  161.5780  210.3180  153.3200 C   0  0  0  0  0  2  0  0  0  0  0  0
  161.2970  203.6970  149.1530 C   0  0  0  0  0  0  0  0  0  0  0  0
  161.5990  211.1130  155.7210 C   0  0  0  0  0  2  0  0  0  0  0  0
  162.0470  210.8780  150.5180 C   0  0  0  0  0  3  0  0  0  0  0  0
  161.9550  209.1690  152.3810 C   0  0  2  0  0  3  0  0  0  0  0  0
  161.8450  209.5510  150.9330 C   0  0  0  0  0  0  0  0  0  0  0  0
  161.5170  207.1380  150.4060 C   0  0  0  0  0  0  0  0  0  0  0  0
  160.9260  202.6560  149.9330 N   0  0  0  0  0  0  0  0  0  0  0  0
  159.0660  209.5490  154.7910 C   0  0  0  0  0  2  0  0  0  0  0  0
  161.8700  209.9360  154.7730 C   0  0  1  0  0  3  0  0  0  0  0  0
  160.7130  203.1850  151.1650 C   0  0  0  0  0  3  0  0  0  0  0  0
  159.8310  208.5520  155.5360 N   0  0  0  0  0  2  0  0  0  0  0  0
  160.2540  211.0870  156.4540 C   0  0  1  0  0  3  0  0  0  0  0  0
  161.7210  208.8770  148.6060 C   0  0  0  0  0  3  0  0  0  0  0  0
  161.7050  208.5400  149.9710 C   0  0  0  0  0  0  0  0  0  0  0  0
  161.5850  206.1130  149.4420 C   0  0  0  0  0  3  0  0  0  0  0  0
  161.5730  207.4860  154.1380 C   0  0  0  0  0  2  0  0  0  0  0  0
  160.4520  205.2270  153.2070 O   0  0  0  0  0  0  0  0  0  0  0  0
  161.6130  203.5680  147.7030 C   0  0  0  0  0  1  0  0  0  0  0  0
  161.2270  206.8310  151.7290 N   0  0  0  0  0  0  0  0  0  0  0  0
  161.3270  204.8490  149.8390 N   0  0  0  0  0  0  0  0  0  0  0  0
  160.1010  212.3670  157.2610 C   0  0  0  0  0  2  0  0  0  0  0  0
  159.0080  213.2260  156.7110 C   0  0  0  0  0  0  0  0  0  0  0  0
  157.7900  213.1710  157.2400 C   0  0  0  0  0  2  0  0  0  0  0  0
  159.2970  214.2020  155.6220 C   0  0  0  0  0  1  0  0  0  0  0  0
  1 20  1  0  0  0  0
  2 24  1  1  0  0  0
  3 11  1  0  0  0  0
  4 21  1  0  0  0  0
  4  3  2  0  0  0  0
  5 25  2  0  0  0  0
  6 18  2  0  0  0  0
  6  5  1  0  0  0  0
  7 24  1  6  0  0  0
  7 19  1  0  0  0  0
  9 28  1  0  0  0  0
  9 15  2  0  0  0  0
 10 20  1  0  0  0  0
 11 13  2  0  0  0  0
 12  2  1  0  0  0  0
 12  8  1  1  0  0  0
 13 12  1  0  0  0  0
 14 27  1  0  0  0  0
 15 18  1  0  0  0  0
 16  1  1  0  0  0  0
 16 19  1  0  0  0  0
 17  8  1  6  0  0  0
 17  7  1  0  0  0  0
 17 10  1  0  0  0  0
 20 29  1  6  0  0  0
 21 22  2  0  0  0  0
 22 14  1  0  0  0  0
 22 13  1  0  0  0  0
 23 28  1  0  0  0  0
 23 14  2  0  0  0  0
 26  9  1  0  0  0  0
 27  5  1  0  0  0  0
 27  2  1  0  0  0  0
 28  6  1  0  0  0  0
 30 31  2  0  0  0  0
 30 29  1  0  0  0  0
 32 30  1  0  0  0  0
M  END
>  <MODEL>
1

>  <REMARK>
 VINA RESULT:      -6.9      0.000      0.000
  Name = 
  2 active torsions:
  status: ('A' for Active; 'I' for Inactive)
    1  A    between atoms: C_20  and  C_29
    2  A    between atoms: C_29  and  C_30
                            x       y       z     vdW  Elec       q    Type
                         _______ _______ _______ _____ _____    ______ ____

>  <TORSDO>
F 2

$$$$
=
 OpenBabel11122413053D

 32 37  0  0  1  0  0  0  0  0999 V2000
  159.2160  209.1690  155.4610 C   0  0  0  0  0  2  0  0  0  0  0  0
  161.1470  206.5220  152.2820 C   0  0  2  0  0  3  0  0  0  0  0  0
  161.7620  210.1410  148.9740 C   0  0  0  0  0  3  0  0  0  0  0  0
  161.5520  209.2270  147.9410 C   0  0  0  0  0  3  0  0  0  0  0  0
  160.9080  204.1960  151.4010 C   0  0  0  0  0  0  0  0  0  0  0  0
  160.9550  203.3030  150.3350 C   0  0  0  0  0  0  0  0  0  0  0  0
  161.4440  206.9380  154.7590 C   0  0  1  0  0  3  0  0  0  0  0  0
  161.5920  208.8650  153.0550 C   0  0  0  0  0  2  0  0  0  0  0  0
  161.1660  202.6480  148.3170 C   0  0  0  0  0  0  0  0  0  0  0  0
  161.7620  209.4360  155.5130 C   0  0  0  0  0  2  0  0  0  0  0  0
  161.8530  209.6920  150.2930 C   0  0  0  0  0  3  0  0  0  0  0  0
  161.9280  207.8180  151.9900 C   0  0  2  0  0  3  0  0  0  0  0  0
  161.7090  208.3270  150.5950 C   0  0  0  0  0  0  0  0  0  0  0  0
  161.3970  205.9650  149.8680 C   0  0  0  0  0  0  0  0  0  0  0  0
  160.8730  201.5300  149.0190 N   0  0  0  0  0  0  0  0  0  0  0  0
  159.2050  207.8940  154.6130 C   0  0  0  0  0  2  0  0  0  0  0  0
  161.9920  208.3590  154.4430 C   0  0  1  0  0  3  0  0  0  0  0  0
  160.7340  201.9380  150.3060 C   0  0  0  0  0  3  0  0  0  0  0  0
  160.0420  206.8540  155.2090 N   0  0  0  0  0  2  0  0  0  0  0  0
  160.4720  209.3050  156.3290 C   0  0  1  0  0  3  0  0  0  0  0  0
  161.4380  207.8660  148.2290 C   0  0  0  0  0  3  0  0  0  0  0  0
  161.5250  207.4050  149.5540 C   0  0  0  0  0  0  0  0  0  0  0  0
  161.4210  205.0340  148.8100 C   0  0  0  0  0  3  0  0  0  0  0  0
  161.7050  205.9710  153.6040 C   0  0  0  0  0  2  0  0  0  0  0  0
  160.5720  203.7750  152.5430 O   0  0  0  0  0  0  0  0  0  0  0  0
  161.3830  202.6620  146.8430 C   0  0  0  0  0  1  0  0  0  0  0  0
  161.2070  205.5290  151.1730 N   0  0  0  0  0  0  0  0  0  0  0  0
  161.2190  203.7330  149.1040 N   0  0  0  0  0  0  0  0  0  0  0  0
  160.3480  210.5010  157.2600 C   0  0  0  0  0  2  0  0  0  0  0  0
  160.4220  211.7880  156.5030 C   0  0  0  0  0  0  0  0  0  0  0  0
  159.9180  212.9000  157.0300 C   0  0  0  0  0  2  0  0  0  0  0  0
  161.1280  211.8470  155.1910 C   0  0  0  0  0  1  0  0  0  0  0  0
  1 20  1  0  0  0  0
  2 24  1  1  0  0  0
  3 11  1  0  0  0  0
  4 21  1  0  0  0  0
  4  3  2  0  0  0  0
  5 25  2  0  0  0  0
  6  5  1  0  0  0  0
  7 24  1  6  0  0  0
  7 19  1  0  0  0  0
  9 15  2  0  0  0  0
  9 28  1  0  0  0  0
 10 20  1  0  0  0  0
 11 13  2  0  0  0  0
 12  2  1  0  0  0  0
 12  8  1  1  0  0  0
 13 12  1  0  0  0  0
 14 27  1  0  0  0  0
 15 18  1  0  0  0  0
 16 19  1  0  0  0  0
 16  1  1  0  0  0  0
 17  8  1  6  0  0  0
 17  7  1  0  0  0  0
 17 10  1  0  0  0  0
 18  6  2  0  0  0  0
 20 29  1  6  0  0  0
 21 22  2  0  0  0  0
 22 14  1  0  0  0  0
 22 13  1  0  0  0  0
 23 28  1  0  0  0  0
 23 14  2  0  0  0  0
 26  9  1  0  0  0  0
 27  5  1  0  0  0  0
 27  2  1  0  0  0  0
 28  6  1  0  0  0  0
 30 31  2  0  0  0  0
 30 29  1  0  0  0  0
 32 30  1  0  0  0  0
M  END
>  <MODEL>
2

>  <REMARK>
 VINA RESULT:      -4.5      1.178      1.589
  Name = 
  2 active torsions:
  status: ('A' for Active; 'I' for Inactive)
    1  A    between atoms: C_20  and  C_29
    2  A    between atoms: C_29  and  C_30
                            x       y       z     vdW  Elec       q    Type
                         _______ _______ _______ _____ _____    ______ ____

>  <TORSDO>
F 2

$$$$
=
 OpenBabel11122413053D

 32 37  0  0  1  0  0  0  0  0999 V2000
  160.0980  204.8910  149.9530 C   0  0  0  0  0  2  0  0  0  0  0  0
  160.7750  208.7450  152.3060 C   0  0  2  0  0  3  0  0  0  0  0  0
  160.3890  206.6440  156.7620 C   0  0  0  0  0  3  0  0  0  0  0  0
  159.8170  207.8140  157.2600 C   0  0  0  0  0  3  0  0  0  0  0  0
  160.1760  211.1640  152.1260 C   0  0  0  0  0  0  0  0  0  0  0  0
  159.8360  212.3670  152.7360 C   0  0  0  0  0  0  0  0  0  0  0  0
  161.8890  207.5450  150.3770 C   0  0  1  0  0  3  0  0  0  0  0  0
  161.5330  206.3790  152.6460 C   0  0  0  0  0  2  0  0  0  0  0  0
  159.3450  213.7060  154.3210 C   0  0  0  0  0  0  0  0  0  0  0  0
  162.5260  205.0230  150.7560 C   0  0  0  0  0  2  0  0  0  0  0  0
  160.8960  206.6150  155.4610 C   0  0  0  0  0  3  0  0  0  0  0  0
  161.4600  207.7700  153.2830 C   0  0  2  0  0  3  0  0  0  0  0  0
  160.8110  207.7500  154.6360 C   0  0  0  0  0  0  0  0  0  0  0  0
  160.1930  210.1370  154.2860 C   0  0  0  0  0  0  0  0  0  0  0  0
  159.2610  214.4500  153.1940 N   0  0  0  0  0  0  0  0  0  0  0  0
  159.7630  206.3620  150.2110 C   0  0  0  0  0  2  0  0  0  0  0  0
  162.3520  206.4270  151.3540 C   0  0  1  0  0  3  0  0  0  0  0  0
  159.5700  213.6040  152.1790 C   0  0  0  0  0  3  0  0  0  0  0  0
  160.7120  207.2470  149.5390 N   0  0  0  0  0  2  0  0  0  0  0  0
  161.5750  204.6590  149.6120 C   0  0  1  0  0  3  0  0  0  0  0  0
  159.7570  208.9550  156.4570 C   0  0  0  0  0  3  0  0  0  0  0  0
  160.2610  208.9340  155.1450 C   0  0  0  0  0  0  0  0  0  0  0  0
  159.8330  211.3690  154.8690 C   0  0  0  0  0  3  0  0  0  0  0  0
  161.7190  208.8820  151.1000 C   0  0  0  0  0  2  0  0  0  0  0  0
  160.2210  211.1030  150.8660 O   0  0  0  0  0  0  0  0  0  0  0  0
  159.0630  214.2400  155.6830 C   0  0  0  0  0  1  0  0  0  0  0  0
  160.4290  210.0560  152.9190 N   0  0  0  0  0  0  0  0  0  0  0  0
  159.6930  212.4380  154.0570 N   0  0  0  0  0  0  0  0  0  0  0  0
  161.8080  203.2110  149.2120 C   0  0  0  0  0  2  0  0  0  0  0  0
  161.4140  202.9710  147.7890 C   0  0  0  0  0  0  0  0  0  0  0  0
  160.8120  201.8360  147.4490 C   0  0  0  0  0  2  0  0  0  0  0  0
  161.6240  204.0320  146.7640 C   0  0  0  0  0  1  0  0  0  0  0  0
  1 16  1  0  0  0  0
  2 24  1  6  0  0  0
  2 27  1  0  0  0  0
  2 12  1  0  0  0  0
  3  4  1  0  0  0  0
  5  6  1  0  0  0  0
  5 27  1  0  0  0  0
  6 28  1  0  0  0  0
  7 24  1  1  0  0  0
  7 17  1  0  0  0  0
  9 26  1  0  0  0  0
 11  3  2  0  0  0  0
 12  8  1  6  0  0  0
 12 13  1  0  0  0  0
 13 22  2  0  0  0  0
 13 11  1  0  0  0  0
 14 23  2  0  0  0  0
 14 22  1  0  0  0  0
 15  9  2  0  0  0  0
 17 10  1  6  0  0  0
 17  8  1  0  0  0  0
 18  6  2  0  0  0  0
 18 15  1  0  0  0  0
 19 16  1  0  0  0  0
 19  7  1  0  0  0  0
 20 29  1  1  0  0  0
 20  1  1  0  0  0  0
 20 10  1  0  0  0  0
 21  4  2  0  0  0  0
 22 21  1  0  0  0  0
 25  5  2  0  0  0  0
 27 14  1  0  0  0  0
 28  9  1  0  0  0  0
 28 23  1  0  0  0  0
 30 29  1  0  0  0  0
 31 30  2  0  0  0  0
 32 30  1  0  0  0  0
M  END
>  <MODEL>
3

>  <REMARK>
 VINA RESULT:      -4.5      2.409      8.579
  Name = 
  2 active torsions:
  status: ('A' for Active; 'I' for Inactive)
    1  A    between atoms: C_20  and  C_29
    2  A    between atoms: C_29  and  C_30
                            x       y       z     vdW  Elec       q    Type
                         _______ _______ _______ _____ _____    ______ ____

>  <TORSDO>
F 2

$$$$
=
 OpenBabel11122413053D

 32 37  0  0  1  0  0  0  0  0999 V2000
  160.8360  205.9940  148.1580 C   0  0  0  0  0  2  0  0  0  0  0  0
  161.0560  209.2730  151.3270 C   0  0  2  0  0  3  0  0  0  0  0  0
  160.8250  206.2020  155.1910 C   0  0  0  0  0  3  0  0  0  0  0  0
  160.1230  207.1680  155.9120 C   0  0  0  0  0  3  0  0  0  0  0  0
  160.2030  211.5980  151.6600 C   0  0  0  0  0  0  0  0  0  0  0  0
  159.7260  212.5940  152.5070 C   0  0  0  0  0  0  0  0  0  0  0  0
  162.3240  208.6540  149.2270 C   0  0  1  0  0  3  0  0  0  0  0  0
  162.0580  206.9810  151.1670 C   0  0  0  0  0  2  0  0  0  0  0  0
  159.0680  213.4890  154.3270 C   0  0  0  0  0  0  0  0  0  0  0  0
  163.2220  206.1890  149.0660 C   0  0  0  0  0  2  0  0  0  0  0  0
  161.3530  206.5160  153.9370 C   0  0  0  0  0  3  0  0  0  0  0  0
  161.8260  208.1790  152.0910 C   0  0  2  0  0  3  0  0  0  0  0  0
  161.1600  207.7920  153.3800 C   0  0  0  0  0  0  0  0  0  0  0  0
  160.2960  210.1230  153.5400 C   0  0  0  0  0  0  0  0  0  0  0  0
  158.9230  214.4530  153.3900 N   0  0  0  0  0  0  0  0  0  0  0  0
  160.3400  207.3290  148.7200 C   0  0  0  0  0  2  0  0  0  0  0  0
  162.8870  207.3980  149.9510 C   0  0  1  0  0  3  0  0  0  0  0  0
  159.3380  213.8910  152.2260 C   0  0  0  0  0  3  0  0  0  0  0  0
  161.1990  208.4330  148.2970 N   0  0  0  0  0  2  0  0  0  0  0  0
  162.3340  205.9950  147.8330 C   0  0  1  0  0  3  0  0  0  0  0  0
  159.9530  208.4470  155.3790 C   0  0  0  0  0  3  0  0  0  0  0  0
  160.4780  208.7710  154.1150 C   0  0  0  0  0  0  0  0  0  0  0  0
  159.7950  211.1500  154.3650 C   0  0  0  0  0  3  0  0  0  0  0  0
  161.9990  209.7710  150.2200 C   0  0  0  0  0  2  0  0  0  0  0  0
  160.2760  211.8250  150.4210 O   0  0  0  0  0  0  0  0  0  0  0  0
  158.7080  213.6740  155.7610 C   0  0  0  0  0  1  0  0  0  0  0  0
  160.5610  210.3730  152.2000 N   0  0  0  0  0  0  0  0  0  0  0  0
  159.5550  212.3540  153.8040 N   0  0  0  0  0  0  0  0  0  0  0  0
  162.7270  204.7030  147.1330 C   0  0  0  0  0  2  0  0  0  0  0  0
  161.9460  204.5100  145.8730 C   0  0  0  0  0  0  0  0  0  0  0  0
  161.9600  205.4490  144.9320 C   0  0  0  0  0  2  0  0  0  0  0  0
  161.2120  203.2350  145.6330 C   0  0  0  0  0  1  0  0  0  0  0  0
  1 16  1  0  0  0  0
  2 24  1  6  0  0  0
  2 12  1  0  0  0  0
  2 27  1  0  0  0  0
  3  4  1  0  0  0  0
  5 27  1  0  0  0  0
  5  6  1  0  0  0  0
  6 28  1  0  0  0  0
  7 17  1  0  0  0  0
  7 24  1  1  0  0  0
  9 26  1  0  0  0  0
 11  3  2  0  0  0  0
 12  8  1  6  0  0  0
 12 13  1  0  0  0  0
 13 11  1  0  0  0  0
 13 22  2  0  0  0  0
 14 22  1  0  0  0  0
 14 23  2  0  0  0  0
 15  9  2  0  0  0  0
 17 10  1  6  0  0  0
 17  8  1  0  0  0  0
 18  6  2  0  0  0  0
 18 15  1  0  0  0  0
 19 16  1  0  0  0  0
 19  7  1  0  0  0  0
 20 29  1  1  0  0  0
 20  1  1  0  0  0  0
 20 10  1  0  0  0  0
 21  4  2  0  0  0  0
 22 21  1  0  0  0  0
 25  5  2  0  0  0  0
 27 14  1  0  0  0  0
 28  9  1  0  0  0  0
 28 23  1  0  0  0  0
 30 29  1  0  0  0  0
 31 30  2  0  0  0  0
 32 30  1  0  0  0  0
M  END
>  <MODEL>
4

>  <REMARK>
 VINA RESULT:      -4.4      2.637      8.703
  Name = 
  2 active torsions:
  status: ('A' for Active; 'I' for Inactive)
    1  A    between atoms: C_20  and  C_29
    2  A    between atoms: C_29  and  C_30
                            x       y       z     vdW  Elec       q    Type
                         _______ _______ _______ _____ _____    ______ ____

>  <TORSDO>
F 2

$$$$
