=
 OpenBabel11122413273D

 31 35  0  0  1  0  0  0  0  0999 V2000
  161.1890  201.2120  148.7590 C   0  0  0  0  0  0  0  0  0  0  0  0
  162.2700  204.7110  149.7750 C   0  0  2  0  0  3  0  0  0  0  0  0
  161.7530  205.8070  148.8630 C   0  0  0  0  0  0  0  0  0  0  0  0
  160.7510  206.5230  146.7680 C   0  0  0  0  0  0  0  0  0  0  0  0
  161.4900  203.4330  149.6790 C   0  0  0  0  0  0  0  0  0  0  0  0
  160.0230  201.0560  149.5150 C   0  0  0  0  0  3  0  0  0  0  0  0
  161.1830  205.5020  147.6180 C   0  0  0  0  0  3  0  0  0  0  0  0
  160.9740  205.1490  152.0110 C   0  0  1  0  0  3  0  0  0  0  0  0
  161.6200  200.1880  147.9270 O   0  0  0  0  0  1  0  0  0  0  0  0
  162.5280  207.5010  150.4800 N   0  0  0  0  0  2  0  0  0  0  0  0
  160.1360  206.1870  145.4580 C   0  0  0  0  0  1  0  0  0  0  0  0
  159.8360  204.3990  151.2930 C   0  0  0  0  0  2  0  0  0  0  0  0
  162.3340  205.1730  151.2450 C   0  0  2  0  0  3  0  0  0  0  0  0
  161.9220  202.4010  148.8400 C   0  0  0  0  0  3  0  0  0  0  0  0
  160.8980  207.8590  147.1480 C   0  0  0  0  0  3  0  0  0  0  0  0
  160.3260  203.2700  150.4460 C   0  0  0  0  0  0  0  0  0  0  0  0
  159.5880  202.0870  150.3540 C   0  0  0  0  0  3  0  0  0  0  0  0
  163.1150  206.4870  151.3530 C   0  0  0  0  0  2  0  0  0  0  0  0
  161.9300  207.1590  149.2250 C   0  0  0  0  0  0  0  0  0  0  0  0
  161.4880  208.1750  148.3740 C   0  0  0  0  0  3  0  0  0  0  0  0
  161.6120  206.5700  154.4270 O   0  0  0  0  0  0  0  0  0  0  0  0
  160.8530  207.1340  153.5940 C   0  0  0  0  0  0  0  0  0  0  0  0
  160.5200  206.4890  152.3630 N   0  0  0  0  0  2  0  0  0  0  0  0
  162.0560  210.4960  155.1850 C   0  0  1  0  0  3  0  0  0  0  0  0
  161.0350  209.5750  153.1270 C   0  0  0  0  0  2  0  0  0  0  0  0
  159.4940  208.1570  156.1380 O   0  0  0  0  0  0  0  0  0  0  0  0
  163.3490  210.8210  155.9010 C   0  0  0  0  0  1  0  0  0  0  0  0
  162.3530  209.9440  153.7980 C   0  0  0  0  0  2  0  0  0  0  0  0
  160.3180  208.7450  155.3900 C   0  0  0  0  0  0  0  0  0  0  0  0
  160.2940  208.4860  153.9080 C   0  0  2  0  0  3  0  0  0  0  0  0
  161.2980  209.5670  155.9580 O   0  0  0  0  0  0  0  0  0  0  0  0
  1 14  2  0  0  0  0
  1  6  1  0  0  0  0
  2  3  1  6  0  0  0
  2 13  1  0  0  0  0
  3 19  1  0  0  0  0
  4 15  2  0  0  0  0
  4  7  1  0  0  0  0
  5  2  1  0  0  0  0
  5 16  2  0  0  0  0
  6 17  2  0  0  0  0
  7  3  2  0  0  0  0
  8 23  1  6  0  0  0
  9  1  1  0  0  0  0
 10 18  1  0  0  0  0
 11  4  1  0  0  0  0
 12  8  1  0  0  0  0
 13 18  1  6  0  0  0
 13  8  1  0  0  0  0
 14  5  1  0  0  0  0
 15 20  1  0  0  0  0
 16 12  1  0  0  0  0
 17 16  1  0  0  0  0
 19 10  1  0  0  0  0
 20 19  2  0  0  0  0
 22 21  2  0  0  0  0
 23 22  1  0  0  0  0
 24 27  1  1  0  0  0
 24 31  1  0  0  0  0
 25 28  1  0  0  0  0
 25 30  1  0  0  0  0
 28 24  1  0  0  0  0
 29 31  1  0  0  0  0
 29 26  2  0  0  0  0
 30 22  1  1  0  0  0
 30 29  1  0  0  0  0
M  END
>  <MODEL>
1

>  <REMARK>
 VINA RESULT:      -3.9      0.000      0.000
  Name = 
  2 active torsions:
  status: ('A' for Active; 'I' for Inactive)
    1  A    between atoms: C_5  and  C_30
    2  A    between atoms: C_10  and  N_16
                            x       y       z     vdW  Elec       q    Type
                         _______ _______ _______ _____ _____    ______ ____

>  <TORSDO>
F 2

$$$$
=
 OpenBabel11122413273D

 31 35  0  0  1  0  0  0  0  0999 V2000
  158.1410  213.1850  154.6710 C   0  0  0  0  0  0  0  0  0  0  0  0
  160.2950  213.2530  151.5410 C   0  0  2  0  0  3  0  0  0  0  0  0
  160.8410  211.8970  151.1360 C   0  0  0  0  0  0  0  0  0  0  0  0
  161.3250  209.5700  151.6440 C   0  0  0  0  0  0  0  0  0  0  0  0
  159.1020  213.1730  152.4480 C   0  0  0  0  0  0  0  0  0  0  0  0
  156.8650  213.0250  154.1220 C   0  0  0  0  0  3  0  0  0  0  0  0
  160.7790  210.8030  152.0120 C   0  0  0  0  0  3  0  0  0  0  0  0
  158.5990  213.8010  149.6190 C   0  0  1  0  0  3  0  0  0  0  0  0
  158.2990  213.2690  156.0480 O   0  0  0  0  0  1  0  0  0  0  0  0
  161.6010  212.8570  148.9950 N   0  0  0  0  0  2  0  0  0  0  0  0
  161.2410  208.4150  152.5740 C   0  0  0  0  0  1  0  0  0  0  0  0
  157.6640  212.8760  150.4190 C   0  0  0  0  0  2  0  0  0  0  0  0
  159.9590  214.1250  150.3140 C   0  0  2  0  0  3  0  0  0  0  0  0
  159.2600  213.2570  153.8350 C   0  0  0  0  0  3  0  0  0  0  0  0
  161.9490  209.4240  150.4040 C   0  0  0  0  0  3  0  0  0  0  0  0
  157.8200  213.0260  151.8970 C   0  0  0  0  0  0  0  0  0  0  0  0
  156.7050  212.9400  152.7350 C   0  0  0  0  0  3  0  0  0  0  0  0
  161.1670  214.1990  149.3720 C   0  0  0  0  0  2  0  0  0  0  0  0
  161.5040  211.7510  149.9000 C   0  0  0  0  0  0  0  0  0  0  0  0
  162.0400  210.5140  149.5340 C   0  0  0  0  0  3  0  0  0  0  0  0
  156.9250  214.3120  147.3390 O   0  0  0  0  0  0  0  0  0  0  0  0
  157.9020  213.5300  147.1890 C   0  0  0  0  0  0  0  0  0  0  0  0
  158.7850  213.2570  148.2800 N   0  0  0  0  0  2  0  0  0  0  0  0
  160.5740  213.5550  144.3380 C   0  0  1  0  0  3  0  0  0  0  0  0
  159.3950  212.0230  145.8830 C   0  0  0  0  0  2  0  0  0  0  0  0
  157.0910  214.4530  144.3870 O   0  0  0  0  0  0  0  0  0  0  0  0
  161.7760  214.4530  144.1440 C   0  0  0  0  0  1  0  0  0  0  0  0
  160.6460  212.8740  145.6970 C   0  0  0  0  0  2  0  0  0  0  0  0
  158.1600  213.9050  144.7610 C   0  0  0  0  0  0  0  0  0  0  0  0
  158.1250  212.8790  145.8610 C   0  0  2  0  0  3  0  0  0  0  0  0
  159.3770  214.3190  144.2050 O   0  0  0  0  0  0  0  0  0  0  0  0
  1  9  1  0  0  0  0
  2  3  1  6  0  0  0
  2  5  1  0  0  0  0
  3  7  1  0  0  0  0
  4  7  2  0  0  0  0
  4 11  1  0  0  0  0
  5 14  1  0  0  0  0
  6  1  1  0  0  0  0
  8 23  1  6  0  0  0
  8 13  1  0  0  0  0
  8 12  1  0  0  0  0
 10 18  1  0  0  0  0
 10 19  1  0  0  0  0
 12 16  1  0  0  0  0
 13 18  1  6  0  0  0
 13  2  1  0  0  0  0
 14  1  2  0  0  0  0
 15  4  1  0  0  0  0
 16  5  2  0  0  0  0
 16 17  1  0  0  0  0
 17  6  2  0  0  0  0
 19  3  2  0  0  0  0
 20 19  1  0  0  0  0
 20 15  2  0  0  0  0
 22 21  2  0  0  0  0
 22 23  1  0  0  0  0
 24 27  1  1  0  0  0
 24 28  1  0  0  0  0
 26 29  2  0  0  0  0
 28 25  1  0  0  0  0
 29 30  1  0  0  0  0
 30 25  1  0  0  0  0
 30 22  1  1  0  0  0
 31 24  1  0  0  0  0
 31 29  1  0  0  0  0
M  END
>  <MODEL>
2

>  <REMARK>
 VINA RESULT:      -3.2      6.126      9.914
  Name = 
  2 active torsions:
  status: ('A' for Active; 'I' for Inactive)
    1  A    between atoms: C_5  and  C_30
    2  A    between atoms: C_10  and  N_16
                            x       y       z     vdW  Elec       q    Type
                         _______ _______ _______ _____ _____    ______ ____

>  <TORSDO>
F 2

$$$$
=
 OpenBabel11122413273D

 31 35  0  0  1  0  0  0  0  0999 V2000
  162.0870  206.0710  146.4920 C   0  0  0  0  0  0  0  0  0  0  0  0
  162.6450  208.2750  149.5380 C   0  0  2  0  0  3  0  0  0  0  0  0
  162.0420  209.6610  149.4170 C   0  0  0  0  0  0  0  0  0  0  0  0
  161.0750  211.4410  148.0740 C   0  0  0  0  0  0  0  0  0  0  0  0
  162.0430  207.2750  148.5940 C   0  0  0  0  0  0  0  0  0  0  0  0
  160.9100  205.4050  146.8480 C   0  0  0  0  0  3  0  0  0  0  0  0
  161.5880  210.1460  148.1800 C   0  0  0  0  0  3  0  0  0  0  0  0
  161.1780  207.1590  151.4020 C   0  0  1  0  0  3  0  0  0  0  0  0
  162.6930  205.8060  145.2720 O   0  0  0  0  0  1  0  0  0  0  0  0
  162.4980  210.0550  151.8080 N   0  0  0  0  0  2  0  0  0  0  0  0
  160.5830  211.9380  146.7630 C   0  0  0  0  0  1  0  0  0  0  0  0
  160.1900  206.9320  150.2430 C   0  0  0  0  0  2  0  0  0  0  0  0
  162.5650  207.7400  150.9820 C   0  0  2  0  0  3  0  0  0  0  0  0
  162.6530  207.0070  147.3640 C   0  0  0  0  0  3  0  0  0  0  0  0
  161.0250  212.2690  149.1970 C   0  0  0  0  0  3  0  0  0  0  0  0
  160.8700  206.5960  148.9550 C   0  0  0  0  0  0  0  0  0  0  0  0
  160.2980  205.6720  148.0770 C   0  0  0  0  0  3  0  0  0  0  0  0
  163.1610  208.7620  151.9570 C   0  0  0  0  0  2  0  0  0  0  0  0
  162.0200  210.5150  150.5390 C   0  0  0  0  0  0  0  0  0  0  0  0
  161.4980  211.8060  150.4280 C   0  0  0  0  0  3  0  0  0  0  0  0
  161.4340  206.7950  154.2420 O   0  0  0  0  0  0  0  0  0  0  0  0
  160.6830  207.7190  153.8320 C   0  0  0  0  0  0  0  0  0  0  0  0
  160.5350  207.9670  152.4310 N   0  0  0  0  0  2  0  0  0  0  0  0
  161.4730  210.3060  156.6530 C   0  0  1  0  0  3  0  0  0  0  0  0
  160.1720  210.0460  154.5650 C   0  0  0  0  0  2  0  0  0  0  0  0
  159.8650  207.0880  156.7120 O   0  0  0  0  0  0  0  0  0  0  0  0
  162.8020  210.7060  157.2570 C   0  0  0  0  0  1  0  0  0  0  0  0
  161.5030  210.5110  155.1460 C   0  0  0  0  0  2  0  0  0  0  0  0
  160.3000  208.1670  156.2320 C   0  0  0  0  0  0  0  0  0  0  0  0
  159.9370  208.5540  154.8240 C   0  0  2  0  0  3  0  0  0  0  0  0
  161.1840  208.9490  156.9850 O   0  0  0  0  0  0  0  0  0  0  0  0
  1  6  2  0  0  0  0
  1 14  1  0  0  0  0
  2  5  1  6  0  0  0
  2 13  1  0  0  0  0
  3  2  1  0  0  0  0
  3 19  1  0  0  0  0
  4  7  1  0  0  0  0
  4 15  2  0  0  0  0
  5 16  1  0  0  0  0
  6 17  1  0  0  0  0
  7  3  2  0  0  0  0
  8 23  1  1  0  0  0
  9  1  1  0  0  0  0
 10 18  1  0  0  0  0
 11  4  1  0  0  0  0
 12  8  1  0  0  0  0
 13  8  1  0  0  0  0
 13 18  1  1  0  0  0
 14  5  2  0  0  0  0
 15 20  1  0  0  0  0
 16 12  1  0  0  0  0
 17 16  2  0  0  0  0
 19 10  1  0  0  0  0
 20 19  2  0  0  0  0
 22 21  2  0  0  0  0
 23 22  1  0  0  0  0
 24 31  1  0  0  0  0
 24 27  1  6  0  0  0
 25 30  1  0  0  0  0
 25 28  1  0  0  0  0
 28 24  1  0  0  0  0
 29 26  2  0  0  0  0
 29 31  1  0  0  0  0
 30 22  1  6  0  0  0
 30 29  1  0  0  0  0
M  END
>  <MODEL>
3

>  <REMARK>
 VINA RESULT:      -3.0      2.527      3.523
  Name = 
  2 active torsions:
  status: ('A' for Active; 'I' for Inactive)
    1  A    between atoms: C_5  and  C_30
    2  A    between atoms: C_10  and  N_16
                            x       y       z     vdW  Elec       q    Type
                         _______ _______ _______ _____ _____    ______ ____

>  <TORSDO>
F 2

$$$$
=
 OpenBabel11122413273D

 31 35  0  0  1  0  0  0  0  0999 V2000
  162.2130  206.0950  147.2280 C   0  0  0  0  0  0  0  0  0  0  0  0
  162.5860  208.9280  149.7330 C   0  0  2  0  0  3  0  0  0  0  0  0
  161.9010  210.2160  149.3180 C   0  0  0  0  0  0  0  0  0  0  0  0
  160.8460  211.6030  147.6230 C   0  0  0  0  0  0  0  0  0  0  0  0
  162.0630  207.7140  149.0240 C   0  0  0  0  0  0  0  0  0  0  0  0
  161.0740  205.4470  147.7170 C   0  0  0  0  0  3  0  0  0  0  0  0
  161.4360  210.3960  148.0050 C   0  0  0  0  0  3  0  0  0  0  0  0
  161.1630  208.1450  151.7910 C   0  0  1  0  0  3  0  0  0  0  0  0
  162.8530  205.6150  146.0940 O   0  0  0  0  0  1  0  0  0  0  0  0
  162.2950  211.1390  151.5710 N   0  0  0  0  0  2  0  0  0  0  0  0
  160.3450  211.7770  146.2360 C   0  0  0  0  0  1  0  0  0  0  0  0
  160.2090  207.6130  150.7060 C   0  0  0  0  0  2  0  0  0  0  0  0
  162.5180  208.7110  151.2590 C   0  0  2  0  0  3  0  0  0  0  0  0
  162.7060  207.2290  147.8810 C   0  0  0  0  0  3  0  0  0  0  0  0
  160.7280  212.6470  148.5440 C   0  0  0  0  0  3  0  0  0  0  0  0
  160.9280  207.0550  149.5200 C   0  0  0  0  0  0  0  0  0  0  0  0
  160.4280  205.9300  148.8590 C   0  0  0  0  0  3  0  0  0  0  0  0
  163.0340  209.9530  151.9940 C   0  0  0  0  0  2  0  0  0  0  0  0
  161.8090  211.2860  150.2310 C   0  0  0  0  0  0  0  0  0  0  0  0
  161.2100  212.4880  149.8460 C   0  0  0  0  0  3  0  0  0  0  0  0
  161.2080  208.2570  154.6630 O   0  0  0  0  0  0  0  0  0  0  0  0
  160.4990  209.1000  154.0510 C   0  0  0  0  0  0  0  0  0  0  0  0
  160.4560  209.1110  152.6220 N   0  0  0  0  0  2  0  0  0  0  0  0
  159.0570  212.7040  153.6030 C   0  0  1  0  0  3  0  0  0  0  0  0
  158.3670  210.3870  154.1270 C   0  0  0  0  0  2  0  0  0  0  0  0
  161.4110  211.3220  155.9460 O   0  0  0  0  0  0  0  0  0  0  0  0
  159.3030  213.7170  152.5060 C   0  0  0  0  0  1  0  0  0  0  0  0
  158.5500  211.4000  153.0040 C   0  0  0  0  0  2  0  0  0  0  0  0
  160.4830  211.3390  155.0960 C   0  0  0  0  0  0  0  0  0  0  0  0
  159.6920  210.0860  154.8340 C   0  0  2  0  0  3  0  0  0  0  0  0
  160.2570  212.4990  154.3470 O   0  0  0  0  0  0  0  0  0  0  0  0
  1  6  2  0  0  0  0
  1 14  1  0  0  0  0
  2  5  1  6  0  0  0
  2 13  1  0  0  0  0
  3  2  1  0  0  0  0
  3 19  1  0  0  0  0
  4  7  1  0  0  0  0
  4 15  2  0  0  0  0
  5 16  1  0  0  0  0
  6 17  1  0  0  0  0
  7  3  2  0  0  0  0
  8 23  1  6  0  0  0
  9  1  1  0  0  0  0
 10 18  1  0  0  0  0
 11  4  1  0  0  0  0
 12  8  1  0  0  0  0
 13  8  1  0  0  0  0
 13 18  1  1  0  0  0
 14  5  2  0  0  0  0
 15 20  1  0  0  0  0
 16 12  1  0  0  0  0
 17 16  2  0  0  0  0
 19 10  1  0  0  0  0
 20 19  2  0  0  0  0
 22 21  2  0  0  0  0
 23 22  1  0  0  0  0
 24 27  1  6  0  0  0
 24 31  1  0  0  0  0
 25 30  1  0  0  0  0
 28 24  1  0  0  0  0
 28 25  1  0  0  0  0
 29 26  2  0  0  0  0
 30 22  1  6  0  0  0
 30 29  1  0  0  0  0
 31 29  1  0  0  0  0
M  END
>  <MODEL>
4

>  <REMARK>
 VINA RESULT:      -2.0      2.852      4.155
  Name = 
  2 active torsions:
  status: ('A' for Active; 'I' for Inactive)
    1  A    between atoms: C_5  and  C_30
    2  A    between atoms: C_10  and  N_16
                            x       y       z     vdW  Elec       q    Type
                         _______ _______ _______ _____ _____    ______ ____

>  <TORSDO>
F 2

$$$$
=
 OpenBabel11122413273D

 31 35  0  0  1  0  0  0  0  0999 V2000
  161.3120  204.9920  144.4900 C   0  0  0  0  0  0  0  0  0  0  0  0
  160.2880  205.1510  148.1460 C   0  0  2  0  0  3  0  0  0  0  0  0
  160.6880  203.9310  148.9540 C   0  0  0  0  0  0  0  0  0  0  0  0
  161.4500  201.6270  149.0740 C   0  0  0  0  0  0  0  0  0  0  0  0
  161.0750  205.3150  146.8780 C   0  0  0  0  0  0  0  0  0  0  0  0
  162.5540  205.6330  144.5250 C   0  0  0  0  0  3  0  0  0  0  0  0
  161.1270  202.7580  148.3210 C   0  0  0  0  0  3  0  0  0  0  0  0
  161.8080  207.0390  149.1460 C   0  0  1  0  0  3  0  0  0  0  0  0
  160.8120  204.5120  143.2870 O   0  0  0  0  0  1  0  0  0  0  0  0
  160.0610  205.1130  151.0260 N   0  0  0  0  0  2  0  0  0  0  0  0
  161.9280  200.3950  148.3940 C   0  0  0  0  0  1  0  0  0  0  0  0
  162.8740  206.4290  148.2180 C   0  0  0  0  0  2  0  0  0  0  0  0
  160.3730  206.4440  148.9820 C   0  0  2  0  0  3  0  0  0  0  0  0
  160.5730  204.8310  145.6660 C   0  0  0  0  0  3  0  0  0  0  0  0
  161.3230  201.6520  150.4650 C   0  0  0  0  0  3  0  0  0  0  0  0
  162.3160  205.9700  146.9110 C   0  0  0  0  0  0  0  0  0  0  0  0
  163.0590  206.1160  145.7360 C   0  0  0  0  0  3  0  0  0  0  0  0
  159.5870  206.2820  150.2880 C   0  0  0  0  0  2  0  0  0  0  0  0
  160.5290  203.9380  150.3550 C   0  0  0  0  0  0  0  0  0  0  0  0
  160.8620  202.8060  151.1030 C   0  0  0  0  0  3  0  0  0  0  0  0
  161.0290  208.7980  151.2820 O   0  0  0  0  0  0  0  0  0  0  0  0
  161.8670  207.8940  151.5390 C   0  0  0  0  0  0  0  0  0  0  0  0
  162.2740  206.9720  150.5250 N   0  0  0  0  0  2  0  0  0  0  0  0
  160.6080  207.3460  155.1980 C   0  0  1  0  0  3  0  0  0  0  0  0
  162.1710  206.4150  153.5220 C   0  0  0  0  0  2  0  0  0  0  0  0
  162.3450  210.0770  153.6290 O   0  0  0  0  0  0  0  0  0  0  0  0
  159.1960  207.3160  155.7430 C   0  0  0  0  0  1  0  0  0  0  0  0
  160.7580  206.3190  154.0850 C   0  0  0  0  0  2  0  0  0  0  0  0
  161.9230  208.9030  153.7940 C   0  0  0  0  0  0  0  0  0  0  0  0
  162.4420  207.7960  152.9170 C   0  0  2  0  0  3  0  0  0  0  0  0
  160.9170  208.6590  154.7350 O   0  0  0  0  0  0  0  0  0  0  0  0
  1  6  2  0  0  0  0
  1 14  1  0  0  0  0
  2  5  1  6  0  0  0
  2  3  1  0  0  0  0
  2 13  1  0  0  0  0
  3 19  1  0  0  0  0
  4 15  2  0  0  0  0
  5 16  1  0  0  0  0
  6 17  1  0  0  0  0
  7  3  2  0  0  0  0
  7  4  1  0  0  0  0
  8 23  1  1  0  0  0
  9  1  1  0  0  0  0
 11  4  1  0  0  0  0
 12  8  1  0  0  0  0
 13  8  1  0  0  0  0
 13 18  1  1  0  0  0
 14  5  2  0  0  0  0
 15 20  1  0  0  0  0
 16 12  1  0  0  0  0
 17 16  2  0  0  0  0
 18 10  1  0  0  0  0
 19 10  1  0  0  0  0
 19 20  2  0  0  0  0
 21 22  2  0  0  0  0
 23 22  1  0  0  0  0
 24 27  1  6  0  0  0
 25 28  1  0  0  0  0
 26 29  2  0  0  0  0
 28 24  1  0  0  0  0
 29 31  1  0  0  0  0
 30 22  1  6  0  0  0
 30 25  1  0  0  0  0
 30 29  1  0  0  0  0
 31 24  1  0  0  0  0
M  END
>  <MODEL>
5

>  <REMARK>
 VINA RESULT:      -1.5      2.026      4.482
  Name = 
  2 active torsions:
  status: ('A' for Active; 'I' for Inactive)
    1  A    between atoms: C_5  and  C_30
    2  A    between atoms: C_10  and  N_16
                            x       y       z     vdW  Elec       q    Type
                         _______ _______ _______ _____ _____    ______ ____

>  <TORSDO>
F 2

$$$$
=
 OpenBabel11122413273D

 31 35  0  0  1  0  0  0  0  0999 V2000
  156.2960  211.8750  155.8770 C   0  0  0  0  0  0  0  0  0  0  0  0
  159.9220  210.7910  155.5320 C   0  0  2  0  0  3  0  0  0  0  0  0
  160.1150  209.2870  155.4730 C   0  0  0  0  0  0  0  0  0  0  0  0
  159.2750  207.0290  155.7930 C   0  0  0  0  0  0  0  0  0  0  0  0
  158.5280  211.2300  155.1920 C   0  0  0  0  0  0  0  0  0  0  0  0
  155.9350  212.0520  154.5370 C   0  0  0  0  0  3  0  0  0  0  0  0
  159.0710  208.4110  155.8090 C   0  0  0  0  0  3  0  0  0  0  0  0
  160.5860  211.5620  153.1160 C   0  0  1  0  0  3  0  0  0  0  0  0
  155.3670  212.1060  156.8820 O   0  0  0  0  0  1  0  0  0  0  0  0
  162.4750  209.6270  154.8430 N   0  0  0  0  0  2  0  0  0  0  0  0
  158.1580  206.1110  156.1360 C   0  0  0  0  0  1  0  0  0  0  0  0
  159.1550  211.1120  152.7690 C   0  0  0  0  0  2  0  0  0  0  0  0
  160.9350  211.5330  154.6380 C   0  0  2  0  0  3  0  0  0  0  0  0
  157.5910  211.4620  156.2040 C   0  0  0  0  0  3  0  0  0  0  0  0
  160.5270  206.5100  155.4560 C   0  0  0  0  0  3  0  0  0  0  0  0
  158.1680  211.4210  153.8490 C   0  0  0  0  0  0  0  0  0  0  0  0
  156.8690  211.8200  153.5230 C   0  0  0  0  0  3  0  0  0  0  0  0
  162.3620  211.0780  154.9660 C   0  0  0  0  0  2  0  0  0  0  0  0
  161.3850  208.7570  155.1680 C   0  0  0  0  0  0  0  0  0  0  0  0
  161.5800  207.3740  155.1450 C   0  0  0  0  0  3  0  0  0  0  0  0
  160.1640  208.9240  152.0550 O   0  0  0  0  0  0  0  0  0  0  0  0
  161.2770  209.4740  151.8410 C   0  0  0  0  0  0  0  0  0  0  0  0
  161.5370  210.7960  152.3220 N   0  0  0  0  0  2  0  0  0  0  0  0
  161.5070  206.9420  148.8740 C   0  0  1  0  0  3  0  0  0  0  0  0
  162.3450  209.1490  149.6140 C   0  0  0  0  0  2  0  0  0  0  0  0
  162.4520  206.6930  152.3360 O   0  0  0  0  0  0  0  0  0  0  0  0
  160.4070  206.2040  148.1420 C   0  0  0  0  0  1  0  0  0  0  0  0
  161.2520  208.4410  148.8210 C   0  0  0  0  0  2  0  0  0  0  0  0
  162.1540  207.2430  151.2440 C   0  0  0  0  0  0  0  0  0  0  0  0
  162.3320  208.7290  151.0870 C   0  0  2  0  0  3  0  0  0  0  0  0
  161.5840  206.4770  150.2200 O   0  0  0  0  0  0  0  0  0  0  0  0
  1 14  1  0  0  0  0
  1  9  1  0  0  0  0
  2  5  1  6  0  0  0
  3  2  1  0  0  0  0
  3  7  1  0  0  0  0
  4  7  2  0  0  0  0
  4 11  1  0  0  0  0
  5 14  2  0  0  0  0
  6  1  2  0  0  0  0
  8 23  1  6  0  0  0
  8 13  1  0  0  0  0
 10 18  1  0  0  0  0
 10 19  1  0  0  0  0
 12  8  1  0  0  0  0
 12 16  1  0  0  0  0
 13 18  1  6  0  0  0
 13  2  1  0  0  0  0
 15  4  1  0  0  0  0
 16  5  1  0  0  0  0
 17 16  2  0  0  0  0
 17  6  1  0  0  0  0
 19  3  2  0  0  0  0
 20 19  1  0  0  0  0
 20 15  2  0  0  0  0
 22 21  2  0  0  0  0
 22 23  1  0  0  0  0
 24 27  1  6  0  0  0
 24 31  1  0  0  0  0
 25 30  1  0  0  0  0
 28 24  1  0  0  0  0
 28 25  1  0  0  0  0
 29 26  2  0  0  0  0
 30 29  1  0  0  0  0
 30 22  1  1  0  0  0
 31 29  1  0  0  0  0
M  END
>  <MODEL>
6

>  <REMARK>
 VINA RESULT:      -1.2      3.109      8.359
  Name = 
  2 active torsions:
  status: ('A' for Active; 'I' for Inactive)
    1  A    between atoms: C_5  and  C_30
    2  A    between atoms: C_10  and  N_16
                            x       y       z     vdW  Elec       q    Type
                         _______ _______ _______ _____ _____    ______ ____

>  <TORSDO>
F 2

$$$$
=
 OpenBabel11122413273D

 31 35  0  0  1  0  0  0  0  0999 V2000
  162.2260  208.1100  150.6930 C   0  0  0  0  0  0  0  0  0  0  0  0
  161.5360  210.7040  153.3830 C   0  0  2  0  0  3  0  0  0  0  0  0
  160.5240  211.7600  152.9790 C   0  0  0  0  0  0  0  0  0  0  0  0
  159.2250  212.9080  151.2760 C   0  0  0  0  0  0  0  0  0  0  0  0
  161.4600  209.4530  152.5570 C   0  0  0  0  0  0  0  0  0  0  0  0
  161.3050  207.1140  151.0310 C   0  0  0  0  0  3  0  0  0  0  0  0
  160.1250  211.9040  151.6420 C   0  0  0  0  0  3  0  0  0  0  0  0
  160.2710  209.3620  155.2460 C   0  0  1  0  0  3  0  0  0  0  0  0
  163.0630  207.9400  149.5990 O   0  0  0  0  0  1  0  0  0  0  0  0
  160.4520  212.5640  155.3100 N   0  0  0  0  0  2  0  0  0  0  0  0
  158.7980  213.0410  149.8600 C   0  0  0  0  0  1  0  0  0  0  0  0
  159.6060  208.6640  154.0450 C   0  0  0  0  0  2  0  0  0  0  0  0
  161.4250  210.3480  154.8790 C   0  0  2  0  0  3  0  0  0  0  0  0
  162.3020  209.2810  151.4540 C   0  0  0  0  0  3  0  0  0  0  0  0
  158.7280  213.7870  152.2410 C   0  0  0  0  0  3  0  0  0  0  0  0
  160.5450  208.4470  152.9040 C   0  0  0  0  0  0  0  0  0  0  0  0
  160.4610  207.2840  152.1330 C   0  0  0  0  0  3  0  0  0  0  0  0
  161.4840  211.6210  155.7320 C   0  0  0  0  0  2  0  0  0  0  0  0
  160.0450  212.6730  153.9410 C   0  0  0  0  0  0  0  0  0  0  0  0
  159.1390  213.6700  153.5710 C   0  0  0  0  0  3  0  0  0  0  0  0
  157.7800  210.4340  154.2930 O   0  0  0  0  0  0  0  0  0  0  0  0
  158.0340  210.5360  155.5230 C   0  0  0  0  0  0  0  0  0  0  0  0
  159.2450  210.0000  156.0610 N   0  0  0  0  0  2  0  0  0  0  0  0
  155.4100  213.4240  155.2960 C   0  0  1  0  0  3  0  0  0  0  0  0
  155.6250  211.0380  155.9170 C   0  0  0  0  0  2  0  0  0  0  0  0
  158.3980  213.0280  157.2610 O   0  0  0  0  0  0  0  0  0  0  0  0
  155.1420  214.4050  154.1760 C   0  0  0  0  0  1  0  0  0  0  0  0
  155.2950  211.9970  154.7790 C   0  0  0  0  0  2  0  0  0  0  0  0
  157.4090  212.6910  156.5590 C   0  0  0  0  0  0  0  0  0  0  0  0
  157.0600  211.2340  156.4180 C   0  0  2  0  0  3  0  0  0  0  0  0
  156.7010  213.6700  155.8520 O   0  0  0  0  0  0  0  0  0  0  0  0
  1  6  2  0  0  0  0
  1 14  1  0  0  0  0
  2  5  1  6  0  0  0
  2 13  1  0  0  0  0
  3  2  1  0  0  0  0
  3 19  1  0  0  0  0
  4  7  1  0  0  0  0
  4 15  2  0  0  0  0
  5 16  1  0  0  0  0
  6 17  1  0  0  0  0
  7  3  2  0  0  0  0
  8 23  1  6  0  0  0
  9  1  1  0  0  0  0
 10 18  1  0  0  0  0
 11  4  1  0  0  0  0
 12  8  1  0  0  0  0
 13  8  1  0  0  0  0
 13 18  1  1  0  0  0
 14  5  2  0  0  0  0
 15 20  1  0  0  0  0
 16 12  1  0  0  0  0
 17 16  2  0  0  0  0
 19 10  1  0  0  0  0
 20 19  2  0  0  0  0
 21 22  2  0  0  0  0
 22 23  1  0  0  0  0
 24 27  1  6  0  0  0
 24 31  1  0  0  0  0
 25 30  1  0  0  0  0
 28 24  1  0  0  0  0
 28 25  1  0  0  0  0
 29 26  2  0  0  0  0
 30 22  1  6  0  0  0
 30 29  1  0  0  0  0
 31 29  1  0  0  0  0
M  END
>  <MODEL>
7

>  <REMARK>
 VINA RESULT:      -1.0      4.121      6.768
  Name = 
  2 active torsions:
  status: ('A' for Active; 'I' for Inactive)
    1  A    between atoms: C_5  and  C_30
    2  A    between atoms: C_10  and  N_16
                            x       y       z     vdW  Elec       q    Type
                         _______ _______ _______ _____ _____    ______ ____

>  <TORSDO>
F 2

$$$$
