=
 OpenBabel11122413513D

 37 42  0  0  1  0  0  0  0  0999 V2000
  160.8760  208.2160  156.2600 C   0  0  0  0  0  0  0  0  0  0  0  0
  160.0530  211.7180  154.0730 N   0  0  0  0  0  0  0  0  0  0  0  0
  159.3380  210.1320  151.5330 C   0  0  0  0  0  2  0  0  0  0  0  0
  159.6180  210.4030  156.1430 C   0  0  0  0  0  0  0  0  0  0  0  0
  160.9620  211.6170  152.9310 C   0  0  2  0  0  3  0  0  0  0  0  0
  161.2640  207.7720  149.8340 C   0  0  0  0  0  0  0  0  0  0  0  0
  160.4400  210.7340  154.9980 C   0  0  0  0  0  0  0  0  0  0  0  0
  160.1850  211.4100  151.6120 C   0  0  2  0  0  3  0  0  0  0  0  0
  158.4690  211.0750  156.3040 C   0  0  0  0  0  3  0  0  0  0  0  0
  162.3580  207.6960  148.9150 N   0  0  0  0  0  2  0  0  0  0  0  0
  161.4330  210.0120  154.5640 C   0  0  0  0  0  0  0  0  0  0  0  0
  159.9140  207.3620  155.4510 C   0  0  0  0  0  1  0  0  0  0  0  0
  158.2680  213.3330  153.1800 C   0  0  0  0  0  2  0  0  0  0  0  0
  158.0370  212.1030  155.3040 C   0  0  0  0  0  3  0  0  0  0  0  0
  161.9490  208.8150  155.3140 C   0  0  0  0  0  2  0  0  0  0  0  0
  161.2950  208.7170  150.9130 N   0  0  0  0  0  0  0  0  0  0  0  0
  160.1260  208.8430  151.7880 C   0  0  0  0  0  2  0  0  0  0  0  0
  158.7970  212.4000  154.2300 C   0  0  0  0  0  0  0  0  0  0  0  0
  161.8300  210.4730  153.2730 N   0  0  0  0  0  0  0  0  0  0  0  0
  160.0770  209.2930  157.0440 C   0  0  0  0  0  2  0  0  0  0  0  0
  159.3410  212.6250  151.1890 C   0  0  1  0  0  3  0  0  0  0  0  0
  161.5710  207.3170  157.2610 C   0  0  0  0  0  1  0  0  0  0  0  0
  162.4260  209.6480  151.0130 C   0  0  0  0  0  2  0  0  0  0  0  0
  160.2710  207.0060  149.6940 O   0  0  0  0  0  0  0  0  0  0  0  0
  162.8840  209.8750  152.4560 C   0  0  0  0  0  2  0  0  0  0  0  0
  159.2940  213.6780  152.2040 N   0  0  0  0  0  2  0  0  0  0  0  0
  158.9810  213.9410  149.0960 C   0  0  0  0  0  3  0  0  0  0  0  0
  159.8400  213.1750  149.8920 C   0  0  0  0  0  0  0  0  0  0  0  0
  161.1480  212.9180  149.4540 C   0  0  0  0  0  3  0  0  0  0  0  0
  162.9770  213.1550  147.7710 C   0  0  0  0  0  1  0  0  0  0  0  0
  160.7300  214.1960  147.4410 C   0  0  0  0  0  3  0  0  0  0  0  0
  161.5910  213.4300  148.2310 C   0  0  0  0  0  0  0  0  0  0  0  0
  159.4260  214.4520  147.8740 C   0  0  0  0  0  3  0  0  0  0  0  0
  161.2310  206.9660  146.8730 C   0  0  0  0  0  1  0  0  0  0  0  0
  162.4010  206.7410  147.8150 C   0  0  2  0  0  3  0  0  0  0  0  0
  161.4250  204.5470  147.6940 O   0  0  0  0  0  1  0  0  0  0  0  0
  162.3840  205.3180  148.3550 C   0  0  0  0  0  2  0  0  0  0  0  0
  1 20  1  0  0  0  0
  1 22  1  0  0  0  0
  2 18  1  0  0  0  0
  2  7  1  0  0  0  0
  3 17  1  0  0  0  0
  4  9  2  0  0  0  0
  4 20  1  0  0  0  0
  5 19  1  1  0  0  0
  5  2  1  0  0  0  0
  6 16  1  0  0  0  0
  7  4  1  0  0  0  0
  8  3  1  1  0  0  0
  8  5  1  0  0  0  0
 10  6  1  0  0  0  0
 11  7  2  0  0  0  0
 11 15  1  0  0  0  0
 12  1  1  0  0  0  0
 13 18  1  0  0  0  0
 14  9  1  0  0  0  0
 15  1  1  0  0  0  0
 16 23  1  0  0  0  0
 16 17  1  0  0  0  0
 18 14  2  0  0  0  0
 19 11  1  0  0  0  0
 21 28  1  6  0  0  0
 21  8  1  0  0  0  0
 21 26  1  0  0  0  0
 23 25  1  0  0  0  0
 24  6  2  0  0  0  0
 25 19  1  0  0  0  0
 26 13  1  0  0  0  0
 27 28  1  0  0  0  0
 29 28  2  0  0  0  0
 30 32  1  0  0  0  0
 31 33  1  0  0  0  0
 31 32  2  0  0  0  0
 32 29  1  0  0  0  0
 33 27  2  0  0  0  0
 35 34  1  6  0  0  0
 35 37  1  0  0  0  0
 35 10  1  0  0  0  0
 36 37  1  0  0  0  0
M  END
>  <MODEL>
1

>  <REMARK>
 VINA RESULT:      -0.6      0.000      0.000
  Name = 
  3 active torsions:
  status: ('A' for Active; 'I' for Inactive)
    1  A    between atoms: CA_4  and  N_12
    2  A    between atoms: CA_4  and  C_37
    3  A    between atoms: C_23  and  C_30
                            x       y       z     vdW  Elec       q    Type
                         _______ _______ _______ _____ _____    ______ ____

>  <TORSDO>
F 3

$$$$
=
 OpenBabel11122413513D

 37 42  0  0  1  0  0  0  0  0999 V2000
  160.6230  211.8820  156.2520 C   0  0  0  0  0  0  0  0  0  0  0  0
  160.4590  208.0690  154.4760 N   0  0  0  0  0  0  0  0  0  0  0  0
  162.5030  208.8380  152.3050 C   0  0  0  0  0  2  0  0  0  0  0  0
  160.7860  209.3820  156.5670 C   0  0  0  0  0  0  0  0  0  0  0  0
  160.0650  208.3610  153.0980 C   0  0  2  0  0  3  0  0  0  0  0  0
  162.3810  211.5000  150.0560 C   0  0  0  0  0  0  0  0  0  0  0  0
  160.2810  209.2490  155.2160 C   0  0  0  0  0  0  0  0  0  0  0  0
  161.2070  208.0400  152.1070 C   0  0  2  0  0  3  0  0  0  0  0  0
  161.4280  208.3320  157.1020 C   0  0  0  0  0  3  0  0  0  0  0  0
  161.7530  211.8770  148.8260 N   0  0  0  0  0  2  0  0  0  0  0  0
  159.8740  210.2390  154.4760 C   0  0  0  0  0  0  0  0  0  0  0  0
  162.0500  212.1440  155.8010 C   0  0  0  0  0  1  0  0  0  0  0  0
  161.5480  205.7570  154.2300 C   0  0  0  0  0  2  0  0  0  0  0  0
  161.6480  207.0830  156.3040 C   0  0  0  0  0  3  0  0  0  0  0  0
  159.7290  211.6390  155.0080 C   0  0  0  0  0  2  0  0  0  0  0  0
  161.6280  210.8170  151.0690 N   0  0  0  0  0  0  0  0  0  0  0  0
  162.3130  210.3570  152.2810 C   0  0  0  0  0  2  0  0  0  0  0  0
  161.1900  206.9670  155.0420 C   0  0  0  0  0  0  0  0  0  0  0  0
  159.7190  209.7960  153.1290 N   0  0  0  0  0  0  0  0  0  0  0  0
  160.6080  210.7010  157.2610 C   0  0  0  0  0  2  0  0  0  0  0  0
  161.5270  206.5390  151.9930 C   0  0  1  0  0  3  0  0  0  0  0  0
  160.1220  213.1220  156.9630 C   0  0  0  0  0  1  0  0  0  0  0  0
  160.2340  210.4510  150.7950 C   0  0  0  0  0  2  0  0  0  0  0  0
  163.6000  211.7670  150.2460 O   0  0  0  0  0  0  0  0  0  0  0  0
  159.3190  210.6430  152.0070 C   0  0  0  0  0  2  0  0  0  0  0  0
  160.8120  205.7180  152.9710 N   0  0  0  0  0  2  0  0  0  0  0  0
  161.0390  206.9880  149.5840 C   0  0  0  0  0  3  0  0  0  0  0  0
  161.2470  206.0550  150.6060 C   0  0  0  0  0  0  0  0  0  0  0  0
  161.1710  204.6840  150.3210 C   0  0  0  0  0  3  0  0  0  0  0  0
  160.8150  202.7980  148.7240 C   0  0  0  0  0  1  0  0  0  0  0  0
  160.6900  205.1870  148.0030 C   0  0  0  0  0  3  0  0  0  0  0  0
  160.8940  204.2520  149.0210 C   0  0  0  0  0  0  0  0  0  0  0  0
  160.7630  206.5550  148.2840 C   0  0  0  0  0  3  0  0  0  0  0  0
  162.8790  213.9700  148.2560 C   0  0  0  0  0  1  0  0  0  0  0  0
  162.4530  212.5950  147.7700 C   0  0  2  0  0  3  0  0  0  0  0  0
  160.4860  211.8310  146.6140 O   0  0  0  0  0  1  0  0  0  0  0  0
  161.5630  212.7180  146.5400 C   0  0  0  0  0  2  0  0  0  0  0  0
  1 22  1  0  0  0  0
  1 20  1  0  0  0  0
  2 18  1  0  0  0  0
  2  7  1  0  0  0  0
  4  9  2  0  0  0  0
  4 20  1  0  0  0  0
  5 19  1  1  0  0  0
  5  2  1  0  0  0  0
  6 24  2  0  0  0  0
  6 16  1  0  0  0  0
  7  4  1  0  0  0  0
  8  3  1  1  0  0  0
  8  5  1  0  0  0  0
 10  6  1  0  0  0  0
 11 15  1  0  0  0  0
 11  7  2  0  0  0  0
 12  1  1  0  0  0  0
 13 18  1  0  0  0  0
 14  9  1  0  0  0  0
 15  1  1  0  0  0  0
 16 17  1  0  0  0  0
 17  3  1  0  0  0  0
 18 14  2  0  0  0  0
 19 11  1  0  0  0  0
 21 28  1  6  0  0  0
 21  8  1  0  0  0  0
 21 26  1  0  0  0  0
 23 16  1  0  0  0  0
 23 25  1  0  0  0  0
 25 19  1  0  0  0  0
 26 13  1  0  0  0  0
 27 28  1  0  0  0  0
 29 28  2  0  0  0  0
 30 32  1  0  0  0  0
 31 33  1  0  0  0  0
 31 32  2  0  0  0  0
 32 29  1  0  0  0  0
 33 27  2  0  0  0  0
 35 34  1  1  0  0  0
 35 10  1  0  0  0  0
 37 36  1  0  0  0  0
 37 35  1  0  0  0  0
M  END
>  <MODEL>
2

>  <REMARK>
 VINA RESULT:       2.0      2.486      5.796
  Name = 
  3 active torsions:
  status: ('A' for Active; 'I' for Inactive)
    1  A    between atoms: CA_4  and  N_12
    2  A    between atoms: CA_4  and  C_37
    3  A    between atoms: C_23  and  C_30
                            x       y       z     vdW  Elec       q    Type
                         _______ _______ _______ _____ _____    ______ ____

>  <TORSDO>
F 3

$$$$
