=
 OpenBabel11122412413D

 30 35  0  0  1  0  0  0  0  0999 V2000
  161.2210  206.0830  150.2730 C   0  0  0  0  0  0  0  0  0  0  0  0
  160.8400  203.6030  150.1990 C   0  0  0  0  0  0  0  0  0  0  0  0
  161.2080  206.0770  154.4690 N   0  0  0  0  0  0  0  0  0  0  0  0
  161.3950  207.2580  151.0490 C   0  0  0  0  0  0  0  0  0  0  0  0
  161.1520  206.2410  148.7790 C   0  0  0  0  0  2  0  0  0  0  0  0
  162.2340  209.6650  148.4520 O   0  0  0  0  0  0  0  0  0  0  0  0
  160.2930  209.8440  152.0950 C   0  0  1  0  0  3  0  0  0  0  0  0
  161.9810  208.5650  149.0180 C   0  0  0  0  0  0  0  0  0  0  0  0
  160.4960  209.2120  153.4190 N   0  0  2  0  0  0  0  0  0  0  0  0
  161.4190  207.3320  154.7140 C   0  0  0  0  0  0  0  0  0  0  0  0
  162.1570  207.2710  148.2700 C   0  0  2  0  0  3  0  0  0  0  0  0
  161.6040  208.5360  150.4050 N   0  0  0  0  0  0  0  0  0  0  0  0
  160.6460  202.4030  150.8890 C   0  0  0  0  0  3  0  0  0  0  0  0
  160.8460  210.3130  154.3070 C   0  0  0  0  0  2  0  0  0  0  0  0
  159.8920  211.2860  152.3350 C   0  0  0  0  0  2  0  0  0  0  0  0
  160.8560  203.5560  148.8100 O   0  0  0  0  0  1  0  0  0  0  0  0
  161.1700  205.9430  153.0610 C   0  0  0  0  0  0  0  0  0  0  0  0
  160.6280  202.3740  152.2820 C   0  0  0  0  0  3  0  0  0  0  0  0
  161.0180  204.8180  150.9140 C   0  0  0  0  0  0  0  0  0  0  0  0
  161.3630  207.1420  152.4400 C   0  0  0  0  0  0  0  0  0  0  0  0
  161.5740  207.8380  156.1050 C   0  0  0  0  0  1  0  0  0  0  0  0
  161.5610  208.1970  153.4770 C   0  0  1  0  0  3  0  0  0  0  0  0
  160.1160  211.5360  153.8070 C   0  0  0  0  0  2  0  0  0  0  0  0
  162.7050  210.1330  151.7530 O   0  0  0  0  0  1  0  0  0  0  0  0
  160.8030  203.5500  153.0050 C   0  0  0  0  0  3  0  0  0  0  0  0
  160.9960  204.7630  152.3390 C   0  0  0  0  0  0  0  0  0  0  0  0
  161.4970  209.8070  151.1290 C   0  0  2  0  0  3  0  0  0  0  0  0
  161.9770  207.4610  146.7660 C   0  0  0  0  0  2  0  0  0  0  0  0
  160.3260  206.4130  145.3940 O   0  0  0  0  0  1  0  0  0  0  0  0
  161.5040  206.1770  146.1040 C   0  0  0  0  0  2  0  0  0  0  0  0
  1 19  2  0  0  0  0
  1  4  1  0  0  0  0
  2 13  2  0  0  0  0
  2 19  1  0  0  0  0
  3 10  2  0  0  0  0
  4 20  2  0  0  0  0
  5  1  1  0  0  0  0
  6  8  2  0  0  0  0
  7 15  1  1  0  0  0
  7  9  1  0  0  0  0
  8 12  1  0  0  0  0
  9 22  1  0  0  0  0
  9 14  1  1  0  0  0
 10 21  1  0  0  0  0
 11 28  1  6  0  0  0
 11  5  1  0  0  0  0
 11  8  1  0  0  0  0
 12  4  1  0  0  0  0
 12 27  1  0  0  0  0
 13 18  1  0  0  0  0
 15 23  1  0  0  0  0
 16  2  1  0  0  0  0
 17  3  1  0  0  0  0
 18 25  2  0  0  0  0
 19 26  1  0  0  0  0
 20 17  1  0  0  0  0
 22 20  1  6  0  0  0
 22 10  1  0  0  0  0
 23 14  1  0  0  0  0
 26 25  1  0  0  0  0
 26 17  2  0  0  0  0
 27 24  1  1  0  0  0
 27  7  1  0  0  0  0
 29 30  1  0  0  0  0
 30 28  1  0  0  0  0
M  END
>  <MODEL>
1

>  <REMARK>
 VINA RESULT:      -7.8      0.000      0.000
  Name = 
  2 active torsions:
  status: ('A' for Active; 'I' for Inactive)
    1  A    between atoms: C_11  and  C_28
    2  A    between atoms: C_28  and  C_30
                            x       y       z     vdW  Elec       q    Type
                         _______ _______ _______ _____ _____    ______ ____

>  <TORSDO>
F 2

$$$$
=
 OpenBabel11122412413D

 30 35  0  0  1  0  0  0  0  0999 V2000
  161.3390  207.9630  151.4320 C   0  0  0  0  0  0  0  0  0  0  0  0
  161.4270  210.4220  150.9370 C   0  0  0  0  0  0  0  0  0  0  0  0
  162.4490  207.0120  147.4990 N   0  0  0  0  0  0  0  0  0  0  0  0
  161.4880  206.6290  150.9710 C   0  0  0  0  0  0  0  0  0  0  0  0
  160.8440  208.1610  152.8390 C   0  0  0  0  0  2  0  0  0  0  0  0
  161.1320  204.7920  154.0920 O   0  0  0  0  0  0  0  0  0  0  0  0
  160.2380  204.0370  150.1290 C   0  0  1  0  0  3  0  0  0  0  0  0
  161.2510  205.7570  153.2870 C   0  0  0  0  0  0  0  0  0  0  0  0
  160.9030  204.3180  148.8370 N   0  0  2  0  0  0  0  0  0  0  0  0
  162.4760  205.7180  147.5610 C   0  0  0  0  0  0  0  0  0  0  0  0
  161.4630  207.1540  153.8050 C   0  0  2  0  0  3  0  0  0  0  0  0
  161.2720  205.5170  151.8680 N   0  0  0  0  0  0  0  0  0  0  0  0
  161.6560  211.4480  150.0150 C   0  0  0  0  0  3  0  0  0  0  0  0
  161.2630  203.0080  148.3100 C   0  0  0  0  0  2  0  0  0  0  0  0
  159.6500  202.6420  150.0460 C   0  0  0  0  0  2  0  0  0  0  0  0
  161.0800  210.7830  152.2330 O   0  0  0  0  0  1  0  0  0  0  0  0
  162.0620  207.4680  148.7820 C   0  0  0  0  0  0  0  0  0  0  0  0
  162.0160  211.1600  148.7000 C   0  0  0  0  0  3  0  0  0  0  0  0
  161.5570  209.0640  150.5420 C   0  0  0  0  0  0  0  0  0  0  0  0
  161.8510  206.4280  149.6390 C   0  0  0  0  0  0  0  0  0  0  0  0
  162.8990  204.8930  146.3970 C   0  0  0  0  0  1  0  0  0  0  0  0
  162.1170  205.1470  148.9190 C   0  0  1  0  0  3  0  0  0  0  0  0
  160.2080  202.0360  148.7800 C   0  0  0  0  0  2  0  0  0  0  0  0
  162.3700  203.5260  151.2280 O   0  0  0  0  0  1  0  0  0  0  0  0
  162.1530  209.8370  148.2890 C   0  0  0  0  0  3  0  0  0  0  0  0
  161.9280  208.7940  149.1910 C   0  0  0  0  0  0  0  0  0  0  0  0
  161.1230  204.1380  151.3900 C   0  0  2  0  0  3  0  0  0  0  0  0
  160.8550  207.3370  155.1930 C   0  0  0  0  0  2  0  0  0  0  0  0
  162.1610  208.4060  156.8830 O   0  0  0  0  0  1  0  0  0  0  0  0
  161.2970  208.6510  155.8160 C   0  0  0  0  0  2  0  0  0  0  0  0
  1  5  1  0  0  0  0
  2 16  1  0  0  0  0
  3 10  2  0  0  0  0
  3 17  1  0  0  0  0
  4  1  1  0  0  0  0
  4 12  1  0  0  0  0
  5 11  1  0  0  0  0
  7 15  1  6  0  0  0
  7 27  1  0  0  0  0
  8 11  1  0  0  0  0
  8  6  2  0  0  0  0
  9 14  1  1  0  0  0
  9 22  1  0  0  0  0
  9  7  1  0  0  0  0
 11 28  1  1  0  0  0
 12  8  1  0  0  0  0
 13  2  2  0  0  0  0
 14 23  1  0  0  0  0
 17 26  2  0  0  0  0
 17 20  1  0  0  0  0
 18 13  1  0  0  0  0
 19  2  1  0  0  0  0
 19  1  2  0  0  0  0
 20  4  2  0  0  0  0
 21 10  1  0  0  0  0
 22 10  1  6  0  0  0
 22 20  1  0  0  0  0
 23 15  1  0  0  0  0
 25 18  2  0  0  0  0
 25 26  1  0  0  0  0
 26 19  1  0  0  0  0
 27 24  1  6  0  0  0
 27 12  1  0  0  0  0
 28 30  1  0  0  0  0
 30 29  1  0  0  0  0
M  END
>  <MODEL>
2

>  <REMARK>
 VINA RESULT:      -7.0      2.312      7.245
  Name = 
  2 active torsions:
  status: ('A' for Active; 'I' for Inactive)
    1  A    between atoms: C_11  and  C_28
    2  A    between atoms: C_28  and  C_30
                            x       y       z     vdW  Elec       q    Type
                         _______ _______ _______ _____ _____    ______ ____

>  <TORSDO>
F 2

$$$$
=
 OpenBabel11122412413D

 30 35  0  0  1  0  0  0  0  0999 V2000
  161.1860  207.6390  151.0860 C   0  0  0  0  0  0  0  0  0  0  0  0
  161.2890  205.3060  150.1660 C   0  0  0  0  0  0  0  0  0  0  0  0
  160.8150  206.2020  155.0100 N   0  0  0  0  0  0  0  0  0  0  0  0
  161.0660  208.4920  152.2140 C   0  0  0  0  0  0  0  0  0  0  0  0
  161.2160  208.2850  149.7280 C   0  0  0  0  0  2  0  0  0  0  0  0
  161.6540  211.7370  150.6750 O   0  0  0  0  0  0  0  0  0  0  0  0
  159.4090  210.3700  153.8630 C   0  0  1  0  0  3  0  0  0  0  0  0
  161.5660  210.4850  150.8150 C   0  0  0  0  0  0  0  0  0  0  0  0
  159.6150  209.3620  154.9300 N   0  0  2  0  0  0  0  0  0  0  0  0
  160.7620  207.3150  155.6720 C   0  0  0  0  0  0  0  0  0  0  0  0
  162.0480  209.5650  149.7260 C   0  0  2  0  0  3  0  0  0  0  0  0
  161.0840  209.9280  152.0510 N   0  0  0  0  0  0  0  0  0  0  0  0
  161.2680  203.9280  150.4000 C   0  0  0  0  0  3  0  0  0  0  0  0
  159.6720  210.1340  156.1650 C   0  0  0  0  0  2  0  0  0  0  0  0
  158.7230  211.5660  154.4930 C   0  0  0  0  0  2  0  0  0  0  0  0
  161.4330  205.7380  148.8530 O   0  0  0  0  0  1  0  0  0  0  0  0
  160.9240  206.5520  153.6430 C   0  0  0  0  0  0  0  0  0  0  0  0
  161.1360  203.4240  151.6910 C   0  0  0  0  0  3  0  0  0  0  0  0
  161.1720  206.2160  151.2500 C   0  0  0  0  0  0  0  0  0  0  0  0
  160.9380  207.9050  153.4740 C   0  0  0  0  0  0  0  0  0  0  0  0
  160.6990  207.3330  157.1590 C   0  0  0  0  0  1  0  0  0  0  0  0
  160.8440  208.5610  154.8120 C   0  0  1  0  0  3  0  0  0  0  0  0
  158.7690  211.3300  155.9830 C   0  0  0  0  0  2  0  0  0  0  0  0
  161.7430  211.1160  153.9830 O   0  0  0  0  0  1  0  0  0  0  0  0
  161.0230  204.2950  152.7710 C   0  0  0  0  0  3  0  0  0  0  0  0
  161.0390  205.6770  152.5640 C   0  0  0  0  0  0  0  0  0  0  0  0
  160.6760  210.8460  153.1210 C   0  0  2  0  0  3  0  0  0  0  0  0
  161.9650  210.2280  148.3530 C   0  0  0  0  0  2  0  0  0  0  0  0
  162.1950  212.4450  147.4930 O   0  0  0  0  0  1  0  0  0  0  0  0
  162.8110  211.4900  148.3030 C   0  0  0  0  0  2  0  0  0  0  0  0
  1 19  2  0  0  0  0
  1  4  1  0  0  0  0
  2 13  2  0  0  0  0
  2 19  1  0  0  0  0
  3 10  2  0  0  0  0
  4 20  2  0  0  0  0
  5  1  1  0  0  0  0
  6  8  2  0  0  0  0
  7 15  1  1  0  0  0
  7  9  1  0  0  0  0
  8 12  1  0  0  0  0
  9 14  1  1  0  0  0
 10 21  1  0  0  0  0
 11 28  1  6  0  0  0
 11  5  1  0  0  0  0
 11  8  1  0  0  0  0
 12  4  1  0  0  0  0
 12 27  1  0  0  0  0
 13 18  1  0  0  0  0
 15 23  1  0  0  0  0
 16  2  1  0  0  0  0
 17  3  1  0  0  0  0
 18 25  2  0  0  0  0
 19 26  1  0  0  0  0
 20 17  1  0  0  0  0
 22 20  1  6  0  0  0
 22  9  1  0  0  0  0
 22 10  1  0  0  0  0
 23 14  1  0  0  0  0
 26 25  1  0  0  0  0
 26 17  2  0  0  0  0
 27  7  1  0  0  0  0
 27 24  1  1  0  0  0
 29 30  1  0  0  0  0
 30 28  1  0  0  0  0
M  END
>  <MODEL>
3

>  <REMARK>
 VINA RESULT:      -6.7      1.777      2.531
  Name = 
  2 active torsions:
  status: ('A' for Active; 'I' for Inactive)
    1  A    between atoms: C_11  and  C_28
    2  A    between atoms: C_28  and  C_30
                            x       y       z     vdW  Elec       q    Type
                         _______ _______ _______ _____ _____    ______ ____

>  <TORSDO>
F 2

$$$$
=
 OpenBabel11122412413D

 30 35  0  0  1  0  0  0  0  0999 V2000
  161.4130  210.1430  151.1340 C   0  0  0  0  0  0  0  0  0  0  0  0
  161.9890  210.9090  148.8140 C   0  0  0  0  0  0  0  0  0  0  0  0
  159.3290  213.7000  151.9160 N   0  0  0  0  0  0  0  0  0  0  0  0
  160.7770  210.4100  152.3740 C   0  0  0  0  0  0  0  0  0  0  0  0
  162.2060  208.8700  151.0200 C   0  0  0  0  0  2  0  0  0  0  0  0
  161.1470  207.1910  154.0310 O   0  0  0  0  0  0  0  0  0  0  0  0
  160.9850  211.1270  155.2780 C   0  0  1  0  0  3  0  0  0  0  0  0
  161.1760  208.0760  153.1300 C   0  0  0  0  0  0  0  0  0  0  0  0
  160.2020  212.3180  154.8770 N   0  0  2  0  0  0  0  0  0  0  0  0
  158.9190  213.4790  153.1250 C   0  0  0  0  0  0  0  0  0  0  0  0
  161.5070  207.7020  151.7110 C   0  0  2  0  0  3  0  0  0  0  0  0
  160.8100  209.4330  153.4390 N   0  0  0  0  0  0  0  0  0  0  0  0
  161.9130  211.8970  147.8290 C   0  0  0  0  0  3  0  0  0  0  0  0
  159.3630  212.6180  156.0310 C   0  0  0  0  0  2  0  0  0  0  0  0
  161.0890  211.1370  156.7910 C   0  0  0  0  0  2  0  0  0  0  0  0
  162.6730  209.7390  148.5050 O   0  0  0  0  0  1  0  0  0  0  0  0
  160.0770  212.5610  151.5310 C   0  0  0  0  0  0  0  0  0  0  0  0
  161.2350  213.0910  148.0650 C   0  0  0  0  0  3  0  0  0  0  0  0
  161.3760  211.1110  150.0790 C   0  0  0  0  0  0  0  0  0  0  0  0
  160.1190  211.6310  152.5290 C   0  0  0  0  0  0  0  0  0  0  0  0
  158.0470  214.4510  153.8400 C   0  0  0  0  0  1  0  0  0  0  0  0
  159.3400  212.1390  153.6970 C   0  0  1  0  0  3  0  0  0  0  0  0
  160.1390  212.2130  157.2610 C   0  0  0  0  0  2  0  0  0  0  0  0
  159.0520  209.6420  155.0030 O   0  0  0  0  0  1  0  0  0  0  0  0
  160.6240  213.3130  149.2950 C   0  0  0  0  0  3  0  0  0  0  0  0
  160.6870  212.3410  150.2980 C   0  0  0  0  0  0  0  0  0  0  0  0
  160.4330  209.7610  154.8180 C   0  0  2  0  0  3  0  0  0  0  0  0
  162.3970  206.4630  151.6490 C   0  0  0  0  0  2  0  0  0  0  0  0
  161.2400  204.4170  152.0740 O   0  0  0  0  0  1  0  0  0  0  0  0
  161.6480  205.2800  151.0570 C   0  0  0  0  0  2  0  0  0  0  0  0
  1  4  1  0  0  0  0
  2 19  1  0  0  0  0
  3 10  2  0  0  0  0
  4 20  2  0  0  0  0
  4 12  1  0  0  0  0
  5  1  1  0  0  0  0
  5 11  1  0  0  0  0
  7 15  1  1  0  0  0
  8 12  1  0  0  0  0
  8  6  2  0  0  0  0
  9  7  1  0  0  0  0
  9 14  1  1  0  0  0
 10 22  1  0  0  0  0
 10 21  1  0  0  0  0
 11 28  1  1  0  0  0
 11  8  1  0  0  0  0
 12 27  1  0  0  0  0
 13 18  1  0  0  0  0
 13  2  2  0  0  0  0
 14 23  1  0  0  0  0
 15 23  1  0  0  0  0
 16  2  1  0  0  0  0
 17  3  1  0  0  0  0
 17 20  1  0  0  0  0
 18 25  2  0  0  0  0
 19 26  1  0  0  0  0
 19  1  2  0  0  0  0
 22 20  1  6  0  0  0
 22  9  1  0  0  0  0
 25 26  1  0  0  0  0
 26 17  2  0  0  0  0
 27 24  1  6  0  0  0
 27  7  1  0  0  0  0
 30 28  1  0  0  0  0
 30 29  1  0  0  0  0
M  END
>  <MODEL>
4

>  <REMARK>
 VINA RESULT:      -6.1      2.613      6.159
  Name = 
  2 active torsions:
  status: ('A' for Active; 'I' for Inactive)
    1  A    between atoms: C_11  and  C_28
    2  A    between atoms: C_28  and  C_30
                            x       y       z     vdW  Elec       q    Type
                         _______ _______ _______ _____ _____    ______ ____

>  <TORSDO>
F 2

$$$$
=
 OpenBabel11122412413D

 30 35  0  0  1  0  0  0  0  0999 V2000
  161.6170  208.2390  151.1280 C   0  0  0  0  0  0  0  0  0  0  0  0
  161.6290  208.5000  153.6250 C   0  0  0  0  0  0  0  0  0  0  0  0
  160.5700  204.1880  151.4390 N   0  0  0  0  0  0  0  0  0  0  0  0
  161.4320  207.3990  150.0000 C   0  0  0  0  0  0  0  0  0  0  0  0
  162.0840  209.6470  150.8770 C   0  0  0  0  0  2  0  0  0  0  0  0
  161.6460  209.8330  147.3030 O   0  0  0  0  0  0  0  0  0  0  0  0
  162.6100  205.8370  147.7270 C   0  0  1  0  0  3  0  0  0  0  0  0
  161.5810  209.3510  148.4680 C   0  0  0  0  0  0  0  0  0  0  0  0
  161.9860  204.6790  148.4080 N   0  0  2  0  0  0  0  0  0  0  0  0
  160.4960  203.8600  150.1880 C   0  0  0  0  0  0  0  0  0  0  0  0
  161.4070  210.2610  149.6550 C   0  0  2  0  0  3  0  0  0  0  0  0
  161.5870  207.9260  148.6630 N   0  0  0  0  0  0  0  0  0  0  0  0
  161.4590  207.9230  154.8870 C   0  0  0  0  0  3  0  0  0  0  0  0
  161.5930  203.7810  147.3290 C   0  0  0  0  0  2  0  0  0  0  0  0
  163.1490  205.3480  146.3970 C   0  0  0  0  0  2  0  0  0  0  0  0
  161.9570  209.8500  153.5680 O   0  0  0  0  0  1  0  0  0  0  0  0
  160.9420  205.5530  151.4760 C   0  0  0  0  0  0  0  0  0  0  0  0
  161.1210  206.5790  155.0190 C   0  0  0  0  0  3  0  0  0  0  0  0
  161.4610  207.7160  152.4530 C   0  0  0  0  0  0  0  0  0  0  0  0
  161.0950  206.0630  150.2200 C   0  0  0  0  0  0  0  0  0  0  0  0
  160.0720  202.4970  149.7650 C   0  0  0  0  0  1  0  0  0  0  0  0
  160.8010  204.9900  149.2240 C   0  0  1  0  0  3  0  0  0  0  0  0
  162.6010  203.9530  146.2190 C   0  0  0  0  0  2  0  0  0  0  0  0
  160.4340  206.7070  147.0000 O   0  0  0  0  0  1  0  0  0  0  0  0
  160.9480  205.7900  153.8860 C   0  0  0  0  0  3  0  0  0  0  0  0
  161.1130  206.3420  152.6130 C   0  0  0  0  0  0  0  0  0  0  0  0
  161.6970  207.0590  147.4840 C   0  0  2  0  0  3  0  0  0  0  0  0
  161.9870  211.6480  149.3900 C   0  0  0  0  0  2  0  0  0  0  0  0
  160.4550  212.8580  148.0130 O   0  0  0  0  0  1  0  0  0  0  0  0
  160.8880  212.6970  149.3290 C   0  0  0  0  0  2  0  0  0  0  0  0
  1 19  1  0  0  0  0
  2 13  1  0  0  0  0
  3 17  1  0  0  0  0
  4 20  1  0  0  0  0
  4  1  2  0  0  0  0
  5  1  1  0  0  0  0
  6  8  2  0  0  0  0
  7 15  1  6  0  0  0
  7  9  1  0  0  0  0
  8 12  1  0  0  0  0
  8 11  1  0  0  0  0
  9 14  1  6  0  0  0
  9 22  1  0  0  0  0
 10  3  2  0  0  0  0
 11 28  1  6  0  0  0
 11  5  1  0  0  0  0
 12  4  1  0  0  0  0
 13 18  2  0  0  0  0
 16  2  1  0  0  0  0
 17 26  1  0  0  0  0
 19 26  1  0  0  0  0
 19  2  2  0  0  0  0
 20 17  2  0  0  0  0
 21 10  1  0  0  0  0
 22 10  1  1  0  0  0
 22 20  1  0  0  0  0
 23 15  1  0  0  0  0
 23 14  1  0  0  0  0
 25 18  1  0  0  0  0
 26 25  2  0  0  0  0
 27 24  1  1  0  0  0
 27  7  1  0  0  0  0
 27 12  1  0  0  0  0
 29 30  1  0  0  0  0
 30 28  1  0  0  0  0
M  END
>  <MODEL>
5

>  <REMARK>
 VINA RESULT:      -5.9      2.016      5.649
  Name = 
  2 active torsions:
  status: ('A' for Active; 'I' for Inactive)
    1  A    between atoms: C_11  and  C_28
    2  A    between atoms: C_28  and  C_30
                            x       y       z     vdW  Elec       q    Type
                         _______ _______ _______ _____ _____    ______ ____

>  <TORSDO>
F 2

$$$$
=
 OpenBabel11122412413D

 30 35  0  0  1  0  0  0  0  0999 V2000
  161.6720  208.0270  150.8040 C   0  0  0  0  0  0  0  0  0  0  0  0
  162.3100  209.0150  148.5860 C   0  0  0  0  0  0  0  0  0  0  0  0
  160.5600  211.7900  152.2910 N   0  0  0  0  0  0  0  0  0  0  0  0
  161.1780  208.2240  152.1190 C   0  0  0  0  0  0  0  0  0  0  0  0
  162.1230  206.6410  150.4310 C   0  0  0  0  0  2  0  0  0  0  0  0
  160.8260  204.7770  153.2320 O   0  0  0  0  0  0  0  0  0  0  0  0
  161.6910  208.3750  155.0700 C   0  0  1  0  0  3  0  0  0  0  0  0
  161.0300  205.7690  152.4770 C   0  0  0  0  0  0  0  0  0  0  0  0
  161.2050  209.7660  154.9230 N   0  0  2  0  0  0  0  0  0  0  0  0
  160.1650  211.4710  153.4840 C   0  0  0  0  0  0  0  0  0  0  0  0
  161.1930  205.5700  150.9940 C   0  0  2  0  0  3  0  0  0  0  0  0
  161.0210  207.1020  153.0170 N   0  0  0  0  0  0  0  0  0  0  0  0
  162.4320  210.1450  147.7720 C   0  0  0  0  0  3  0  0  0  0  0  0
  160.5190  210.0550  156.1760 C   0  0  0  0  0  2  0  0  0  0  0  0
  161.8640  208.1060  156.5520 C   0  0  0  0  0  2  0  0  0  0  0  0
  162.6720  207.7860  148.0460 O   0  0  0  0  0  1  0  0  0  0  0  0
  160.9880  210.5890  151.6760 C   0  0  0  0  0  0  0  0  0  0  0  0
  162.0790  211.4070  148.2440 C   0  0  0  0  0  3  0  0  0  0  0  0
  161.8240  209.1400  149.9150 C   0  0  0  0  0  0  0  0  0  0  0  0
  160.8480  209.5210  152.5140 C   0  0  0  0  0  0  0  0  0  0  0  0
  159.5910  212.4860  154.4090 C   0  0  0  0  0  1  0  0  0  0  0  0
  160.2720  209.9940  153.8070 C   0  0  1  0  0  3  0  0  0  0  0  0
  161.2290  209.2800  157.2600 C   0  0  0  0  0  2  0  0  0  0  0  0
  159.4430  207.4500  154.7390 O   0  0  0  0  0  1  0  0  0  0  0  0
  161.5980  211.5560  149.5410 C   0  0  0  0  0  3  0  0  0  0  0  0
  161.4680  210.4420  150.3760 C   0  0  0  0  0  0  0  0  0  0  0  0
  160.8010  207.2720  154.4580 C   0  0  2  0  0  3  0  0  0  0  0  0
  161.7490  204.1870  150.6690 C   0  0  0  0  0  2  0  0  0  0  0  0
  161.3460  203.9040  148.3320 O   0  0  0  0  0  1  0  0  0  0  0  0
  160.9180  203.5000  149.5970 C   0  0  0  0  0  2  0  0  0  0  0  0
  1  4  1  0  0  0  0
  2 19  1  0  0  0  0
  3 10  2  0  0  0  0
  4 20  2  0  0  0  0
  4 12  1  0  0  0  0
  5  1  1  0  0  0  0
  5 11  1  0  0  0  0
  7 15  1  1  0  0  0
  8 12  1  0  0  0  0
  8  6  2  0  0  0  0
  9  7  1  0  0  0  0
  9 14  1  1  0  0  0
 10 22  1  0  0  0  0
 10 21  1  0  0  0  0
 11 28  1  1  0  0  0
 11  8  1  0  0  0  0
 12 27  1  0  0  0  0
 13 18  1  0  0  0  0
 13  2  2  0  0  0  0
 14 23  1  0  0  0  0
 15 23  1  0  0  0  0
 16  2  1  0  0  0  0
 17  3  1  0  0  0  0
 17 20  1  0  0  0  0
 18 25  2  0  0  0  0
 19 26  1  0  0  0  0
 19  1  2  0  0  0  0
 22 20  1  6  0  0  0
 22  9  1  0  0  0  0
 25 26  1  0  0  0  0
 26 17  2  0  0  0  0
 27 24  1  6  0  0  0
 27  7  1  0  0  0  0
 29 30  1  0  0  0  0
 30 28  1  0  0  0  0
M  END
>  <MODEL>
6

>  <REMARK>
 VINA RESULT:      -5.8      1.906      5.031
  Name = 
  2 active torsions:
  status: ('A' for Active; 'I' for Inactive)
    1  A    between atoms: C_11  and  C_28
    2  A    between atoms: C_28  and  C_30
                            x       y       z     vdW  Elec       q    Type
                         _______ _______ _______ _____ _____    ______ ____

>  <TORSDO>
F 2

$$$$
=
 OpenBabel11122412413D

 30 35  0  0  1  0  0  0  0  0999 V2000
  161.2580  210.7720  150.6620 C   0  0  0  0  0  0  0  0  0  0  0  0
  161.1930  212.3020  148.6740 C   0  0  0  0  0  0  0  0  0  0  0  0
  159.1010  213.5160  152.9910 N   0  0  0  0  0  0  0  0  0  0  0  0
  160.9120  210.5330  152.0170 C   0  0  0  0  0  0  0  0  0  0  0  0
  162.1140  209.7450  149.9720 C   0  0  0  0  0  2  0  0  0  0  0  0
  161.9600  207.0670  152.3810 O   0  0  0  0  0  0  0  0  0  0  0  0
  161.7390  210.3390  154.8940 C   0  0  1  0  0  3  0  0  0  0  0  0
  161.6930  208.1790  151.8460 C   0  0  0  0  0  0  0  0  0  0  0  0
  160.7760  211.4500  155.0800 N   0  0  2  0  0  0  0  0  0  0  0  0
  159.0130  212.8670  154.1090 C   0  0  0  0  0  0  0  0  0  0  0  0
  161.7100  208.3230  150.3480 C   0  0  2  0  0  3  0  0  0  0  0  0
  161.2880  209.2940  152.6600 N   0  0  0  0  0  0  0  0  0  0  0  0
  160.7940  213.5200  148.1160 C   0  0  0  0  0  3  0  0  0  0  0  0
  160.2120  211.2340  156.4060 C   0  0  0  0  0  2  0  0  0  0  0  0
  162.1970  209.8980  156.2690 C   0  0  0  0  0  2  0  0  0  0  0  0
  161.8890  211.4150  147.8600 O   0  0  0  0  0  1  0  0  0  0  0  0
  159.8380  212.6920  152.1060 C   0  0  0  0  0  0  0  0  0  0  0  0
  160.0860  214.4530  148.8700 C   0  0  0  0  0  3  0  0  0  0  0  0
  160.8820  211.9990  150.0260 C   0  0  0  0  0  0  0  0  0  0  0  0
  160.2020  211.5200  152.7010 C   0  0  0  0  0  0  0  0  0  0  0  0
  158.2500  213.4120  155.2660 C   0  0  0  0  0  1  0  0  0  0  0  0
  159.6790  211.5050  154.1000 C   0  0  1  0  0  3  0  0  0  0  0  0
  161.2920  210.6030  157.2510 C   0  0  0  0  0  2  0  0  0  0  0  0
  159.9400  208.7150  154.5120 O   0  0  0  0  0  1  0  0  0  0  0  0
  159.7660  214.1790  150.1960 C   0  0  0  0  0  3  0  0  0  0  0  0
  160.1550  212.9690  150.7770 C   0  0  0  0  0  0  0  0  0  0  0  0
  161.2210  209.1110  154.1150 C   0  0  2  0  0  3  0  0  0  0  0  0
  162.6700  207.3290  149.6990 C   0  0  0  0  0  2  0  0  0  0  0  0
  160.7610  206.7510  148.3840 O   0  0  0  0  0  1  0  0  0  0  0  0
  162.1510  206.8710  148.3460 C   0  0  0  0  0  2  0  0  0  0  0  0
  1  4  1  0  0  0  0
  2 19  1  0  0  0  0
  3 10  2  0  0  0  0
  4 12  1  0  0  0  0
  4 20  2  0  0  0  0
  5 11  1  0  0  0  0
  5  1  1  0  0  0  0
  7  9  1  0  0  0  0
  7 15  1  1  0  0  0
  8  6  2  0  0  0  0
  8 12  1  0  0  0  0
  9 14  1  1  0  0  0
 10 21  1  0  0  0  0
 11 28  1  6  0  0  0
 11  8  1  0  0  0  0
 12 27  1  0  0  0  0
 13  2  2  0  0  0  0
 13 18  1  0  0  0  0
 14 23  1  0  0  0  0
 15 23  1  0  0  0  0
 16  2  1  0  0  0  0
 17 20  1  0  0  0  0
 17  3  1  0  0  0  0
 18 25  2  0  0  0  0
 19  1  2  0  0  0  0
 19 26  1  0  0  0  0
 22 20  1  6  0  0  0
 22 10  1  0  0  0  0
 22  9  1  0  0  0  0
 25 26  1  0  0  0  0
 26 17  2  0  0  0  0
 27 24  1  1  0  0  0
 27  7  1  0  0  0  0
 30 29  1  0  0  0  0
 30 28  1  0  0  0  0
M  END
>  <MODEL>
7

>  <REMARK>
 VINA RESULT:      -5.6      2.707      6.064
  Name = 
  2 active torsions:
  status: ('A' for Active; 'I' for Inactive)
    1  A    between atoms: C_11  and  C_28
    2  A    between atoms: C_28  and  C_30
                            x       y       z     vdW  Elec       q    Type
                         _______ _______ _______ _____ _____    ______ ____

>  <TORSDO>
F 2

$$$$
=
 OpenBabel11122412413D

 30 35  0  0  1  0  0  0  0  0999 V2000
  160.8480  209.0360  153.2750 C   0  0  0  0  0  0  0  0  0  0  0  0
  161.0240  207.1700  154.9440 C   0  0  0  0  0  0  0  0  0  0  0  0
  159.2540  211.6270  156.1650 N   0  0  0  0  0  0  0  0  0  0  0  0
  160.4780  210.3770  152.9930 C   0  0  0  0  0  0  0  0  0  0  0  0
  161.3180  208.1890  152.1250 C   0  0  0  0  0  2  0  0  0  0  0  0
  161.7390  210.7250  149.5970 O   0  0  0  0  0  0  0  0  0  0  0  0
  158.5730  212.3140  151.7240 C   0  0  1  0  0  3  0  0  0  0  0  0
  161.5150  210.2340  150.7380 C   0  0  0  0  0  0  0  0  0  0  0  0
  158.3820  212.7930  153.1120 N   0  0  2  0  0  0  0  0  0  0  0  0
  159.1020  212.7070  155.4650 C   0  0  0  0  0  0  0  0  0  0  0  0
  162.2140  208.9730  151.1700 C   0  0  2  0  0  3  0  0  0  0  0  0
  160.6560  210.9210  151.6650 N   0  0  0  0  0  0  0  0  0  0  0  0
  160.8270  206.7130  156.2500 C   0  0  0  0  0  3  0  0  0  0  0  0
  158.1450  214.2250  152.9830 C   0  0  0  0  0  2  0  0  0  0  0  0
  157.8320  213.2680  150.8070 C   0  0  0  0  0  2  0  0  0  0  0  0
  161.5720  206.2840  154.0240 O   0  0  0  0  0  1  0  0  0  0  0  0
  159.7770  210.6490  155.2870 C   0  0  0  0  0  0  0  0  0  0  0  0
  160.2910  207.5490  157.2270 C   0  0  0  0  0  3  0  0  0  0  0  0
  160.6730  208.5010  154.5920 C   0  0  0  0  0  0  0  0  0  0  0  0
  159.9470  211.1480  154.0280 C   0  0  0  0  0  0  0  0  0  0  0  0
  158.6170  213.9720  156.0830 C   0  0  0  0  0  1  0  0  0  0  0  0
  159.5260  212.5800  154.0150 C   0  0  1  0  0  3  0  0  0  0  0  0
  157.4300  214.4390  151.6710 C   0  0  0  0  0  2  0  0  0  0  0  0
  160.8260  213.2760  151.5960 O   0  0  0  0  0  1  0  0  0  0  0  0
  159.9420  208.8580  156.9080 C   0  0  0  0  0  3  0  0  0  0  0  0
  160.1270  209.3390  155.6090 C   0  0  0  0  0  0  0  0  0  0  0  0
  160.0330  212.1800  151.2420 C   0  0  2  0  0  3  0  0  0  0  0  0
  162.5810  208.0960  149.9760 C   0  0  0  0  0  2  0  0  0  0  0  0
  161.2220  207.3780  148.1470 O   0  0  0  0  0  1  0  0  0  0  0  0
  161.3940  207.2590  149.5260 C   0  0  0  0  0  2  0  0  0  0  0  0
  1 19  1  0  0  0  0
  2 13  1  0  0  0  0
  4  1  2  0  0  0  0
  4 20  1  0  0  0  0
  5  1  1  0  0  0  0
  6  8  2  0  0  0  0
  7 15  1  6  0  0  0
  7  9  1  0  0  0  0
  8 11  1  0  0  0  0
  8 12  1  0  0  0  0
  9 14  1  6  0  0  0
  9 22  1  0  0  0  0
 10 21  1  0  0  0  0
 10  3  2  0  0  0  0
 11 28  1  6  0  0  0
 11  5  1  0  0  0  0
 12  4  1  0  0  0  0
 13 18  2  0  0  0  0
 15 23  1  0  0  0  0
 16  2  1  0  0  0  0
 17 26  1  0  0  0  0
 17  3  1  0  0  0  0
 19  2  2  0  0  0  0
 19 26  1  0  0  0  0
 20 17  2  0  0  0  0
 22 20  1  1  0  0  0
 22 10  1  0  0  0  0
 23 14  1  0  0  0  0
 25 18  1  0  0  0  0
 26 25  2  0  0  0  0
 27 24  1  1  0  0  0
 27 12  1  0  0  0  0
 27  7  1  0  0  0  0
 29 30  1  0  0  0  0
 30 28  1  0  0  0  0
M  END
>  <MODEL>
8

>  <REMARK>
 VINA RESULT:      -5.3      2.774      4.748
  Name = 
  2 active torsions:
  status: ('A' for Active; 'I' for Inactive)
    1  A    between atoms: C_11  and  C_28
    2  A    between atoms: C_28  and  C_30
                            x       y       z     vdW  Elec       q    Type
                         _______ _______ _______ _____ _____    ______ ____

>  <TORSDO>
F 2

$$$$
=
 OpenBabel11122412413D

 30 35  0  0  1  0  0  0  0  0999 V2000
  161.1280  209.8850  151.3750 C   0  0  0  0  0  0  0  0  0  0  0  0
  162.0470  207.5500  151.4100 C   0  0  0  0  0  0  0  0  0  0  0  0
  159.8640  209.5720  155.3640 N   0  0  0  0  0  0  0  0  0  0  0  0
  160.4640  210.9350  152.0610 C   0  0  0  0  0  0  0  0  0  0  0  0
  161.4410  210.0960  149.9190 C   0  0  0  0  0  2  0  0  0  0  0  0
  160.7560  213.6240  149.6260 O   0  0  0  0  0  0  0  0  0  0  0  0
  157.9870  212.5650  152.5040 C   0  0  1  0  0  3  0  0  0  0  0  0
  160.9150  212.5030  150.1860 C   0  0  0  0  0  0  0  0  0  0  0  0
  158.0650  212.0210  153.8790 N   0  0  2  0  0  0  0  0  0  0  0  0
  159.3520  210.7480  155.5490 C   0  0  0  0  0  0  0  0  0  0  0  0
  161.9150  211.5200  149.6400 C   0  0  2  0  0  3  0  0  0  0  0  0
  160.2050  212.1930  151.3980 N   0  0  0  0  0  0  0  0  0  0  0  0
  162.2680  206.3630  152.1150 C   0  0  0  0  0  3  0  0  0  0  0  0
  157.5490  213.0850  154.7310 C   0  0  0  0  0  2  0  0  0  0  0  0
  156.8820  213.6040  152.4880 C   0  0  0  0  0  2  0  0  0  0  0  0
  162.4990  207.6170  150.0970 O   0  0  0  0  0  1  0  0  0  0  0  0
  160.3200  209.5380  154.0240 C   0  0  0  0  0  0  0  0  0  0  0  0
  161.8500  206.2290  153.4370 C   0  0  0  0  0  3  0  0  0  0  0  0
  161.3870  208.6410  152.0350 C   0  0  0  0  0  0  0  0  0  0  0  0
  160.0790  210.7190  153.3850 C   0  0  0  0  0  0  0  0  0  0  0  0
  158.8160  211.1630  156.8740 C   0  0  0  0  0  1  0  0  0  0  0  0
  159.4160  211.6580  154.3380 C   0  0  1  0  0  3  0  0  0  0  0  0
  156.5030  213.8250  153.9320 C   0  0  0  0  0  2  0  0  0  0  0  0
  159.9260  214.0240  152.8650 O   0  0  0  0  0  1  0  0  0  0  0  0
  161.2030  207.2840  154.0730 C   0  0  0  0  0  3  0  0  0  0  0  0
  160.9690  208.4810  153.3900 C   0  0  0  0  0  0  0  0  0  0  0  0
  159.2800  213.1940  151.9430 C   0  0  2  0  0  3  0  0  0  0  0  0
  162.1250  211.7060  148.1400 C   0  0  0  0  0  2  0  0  0  0  0  0
  163.0100  213.7900  147.3790 O   0  0  0  0  0  1  0  0  0  0  0  0
  163.3710  212.5310  147.8590 C   0  0  0  0  0  2  0  0  0  0  0  0
  1 19  2  0  0  0  0
  1  4  1  0  0  0  0
  2 19  1  0  0  0  0
  2 13  2  0  0  0  0
  3 10  2  0  0  0  0
  4 20  2  0  0  0  0
  5  1  1  0  0  0  0
  6  8  2  0  0  0  0
  7 15  1  1  0  0  0
  7  9  1  0  0  0  0
  8 12  1  0  0  0  0
  9 22  1  0  0  0  0
  9 14  1  1  0  0  0
 10 21  1  0  0  0  0
 11 28  1  6  0  0  0
 11  5  1  0  0  0  0
 11  8  1  0  0  0  0
 12 27  1  0  0  0  0
 12  4  1  0  0  0  0
 13 18  1  0  0  0  0
 15 23  1  0  0  0  0
 16  2  1  0  0  0  0
 17  3  1  0  0  0  0
 18 25  2  0  0  0  0
 19 26  1  0  0  0  0
 20 17  1  0  0  0  0
 22 20  1  6  0  0  0
 22 10  1  0  0  0  0
 23 14  1  0  0  0  0
 26 17  2  0  0  0  0
 26 25  1  0  0  0  0
 27  7  1  0  0  0  0
 27 24  1  1  0  0  0
 29 30  1  0  0  0  0
 30 28  1  0  0  0  0
M  END
>  <MODEL>
9

>  <REMARK>
 VINA RESULT:      -5.3      2.918      4.449
  Name = 
  2 active torsions:
  status: ('A' for Active; 'I' for Inactive)
    1  A    between atoms: C_11  and  C_28
    2  A    between atoms: C_28  and  C_30
                            x       y       z     vdW  Elec       q    Type
                         _______ _______ _______ _____ _____    ______ ____

>  <TORSDO>
F 2

$$$$
