=
 OpenBabel11122412313D

 30 35  0  0  1  0  0  0  0  0999 V2000
  161.5550  208.4380  151.6320 C   0  0  1  0  0  3  0  0  0  0  0  0
  161.2610  208.8370  154.1800 C   0  0  2  0  0  3  0  0  0  0  0  0
  160.9230  204.2450  152.1710 N   0  0  0  0  0  0  0  0  0  0  0  0
  161.0240  207.5690  150.4750 C   0  0  1  0  0  3  0  0  0  0  0  0
  161.2410  209.8820  151.2960 C   0  0  0  0  0  2  0  0  0  0  0  0
  162.4530  209.7000  147.8420 O   0  0  0  0  0  0  0  0  0  0  0  0
  162.4350  205.8790  148.0810 C   0  0  1  0  0  3  0  0  0  0  0  0
  162.0540  209.3300  148.9800 C   0  0  0  0  0  0  0  0  0  0  0  0
  161.9060  204.6860  148.8780 C   0  0  2  0  0  3  0  0  0  0  0  0
  160.6540  203.8510  150.8370 C   0  0  0  0  0  0  0  0  0  0  0  0
  162.1100  210.3160  150.1220 C   0  0  1  0  0  3  0  0  0  0  0  0
  161.6350  207.9610  149.1880 N   0  0  0  0  0  0  0  0  0  0  0  0
  160.7390  208.1280  155.4380 C   0  0  0  0  0  2  0  0  0  0  0  0
  161.5300  203.6820  147.9710 O   0  0  0  0  0  0  0  0  0  0  0  0
  162.6790  205.3160  146.7120 C   0  0  0  0  0  2  0  0  0  0  0  0
  160.6270  210.0750  154.0770 O   0  0  0  0  0  1  0  0  0  0  0  0
  161.1470  205.6420  152.0580 C   0  0  0  0  0  0  0  0  0  0  0  0
  161.3390  206.8610  155.5860 O   0  0  0  0  0  0  0  0  0  0  0  0
  160.9380  207.9640  152.9580 C   0  0  2  0  0  3  0  0  0  0  0  0
  161.1180  206.0880  150.7980 C   0  0  1  0  0  3  0  0  0  0  0  0
  160.3370  202.6710  150.5290 O   0  0  0  0  0  0  0  0  0  0  0  0
  160.7660  204.9730  149.8600 C   0  0  1  0  0  3  0  0  0  0  0  0
  162.3850  203.8430  146.8720 C   0  0  0  0  0  2  0  0  0  0  0  0
  160.0880  206.8580  147.5810 C   0  0  0  0  0  1  0  0  0  0  0  0
  160.8590  206.0480  154.5430 C   0  0  0  0  0  2  0  0  0  0  0  0
  161.4440  206.5410  153.2230 C   0  0  1  0  0  3  0  0  0  0  0  0
  161.5340  207.1170  147.9940 C   0  0  2  0  0  3  0  0  0  0  0  0
  161.7050  211.5820  149.6900 O   0  0  0  0  0  0  0  0  0  0  0  0
  160.1750  213.3180  150.2300 C   0  0  0  0  0  1  0  0  0  0  0  0
  160.8630  212.0530  150.6990 C   0  0  0  0  0  2  0  0  0  0  0  0
  1  5  1  6  0  0  0
  1 19  1  0  0  0  0
  2 16  1  6  0  0  0
  2 13  1  0  0  0  0
  4 12  1  6  0  0  0
  4 20  1  0  0  0  0
  4  1  1  0  0  0  0
  6  8  2  0  0  0  0
  7 15  1  6  0  0  0
  7  9  1  0  0  0  0
  8 12  1  0  0  0  0
  8 11  1  0  0  0  0
  9 14  1  6  0  0  0
  9 22  1  0  0  0  0
 10  3  1  0  0  0  0
 11 28  1  6  0  0  0
 11  5  1  0  0  0  0
 13 18  1  0  0  0  0
 15 23  1  0  0  0  0
 17  3  2  0  0  0  0
 17 26  1  0  0  0  0
 19 26  1  0  0  0  0
 19  2  1  0  0  0  0
 20 17  1  0  0  0  0
 21 10  2  0  0  0  0
 22 20  1  0  0  0  0
 22 10  1  0  0  0  0
 23 14  1  0  0  0  0
 24 27  1  0  0  0  0
 25 18  1  0  0  0  0
 26 25  1  0  0  0  0
 27  7  1  0  0  0  0
 27 12  1  0  0  0  0
 28 30  1  0  0  0  0
 29 30  1  0  0  0  0
M  END
>  <MODEL>
1

>  <REMARK>
 VINA RESULT:      -6.2      0.000      0.000
  Name = 
  2 active torsions:
  status: ('A' for Active; 'I' for Inactive)
    1  A    between atoms: C_11  and  O_28
    2  A    between atoms: O_28  and  C_30
                            x       y       z     vdW  Elec       q    Type
                         _______ _______ _______ _____ _____    ______ ____

>  <TORSDO>
F 2

$$$$
=
 OpenBabel11122412313D

 30 35  0  0  1  0  0  0  0  0999 V2000
  161.4520  208.0920  149.4950 C   0  0  1  0  0  3  0  0  0  0  0  0
  161.5680  206.1000  147.8340 C   0  0  2  0  0  3  0  0  0  0  0  0
  160.8030  205.3980  152.7490 N   0  0  0  0  0  0  0  0  0  0  0  0
  161.8370  208.4910  150.9330 C   0  0  1  0  0  3  0  0  0  0  0  0
  162.1980  209.0160  148.5530 C   0  0  0  0  0  2  0  0  0  0  0  0
  161.3690  212.0930  150.3620 O   0  0  0  0  0  0  0  0  0  0  0  0
  160.2720  209.9840  153.3630 C   0  0  1  0  0  3  0  0  0  0  0  0
  161.5200  210.8650  150.1180 C   0  0  0  0  0  0  0  0  0  0  0  0
  160.3510  208.5970  154.0020 C   0  0  2  0  0  3  0  0  0  0  0  0
  161.0920  206.2460  153.8480 C   0  0  0  0  0  0  0  0  0  0  0  0
  161.6230  210.4210  148.6790 C   0  0  1  0  0  3  0  0  0  0  0  0
  161.5070  209.9070  151.2020 N   0  0  0  0  0  0  0  0  0  0  0  0
  161.7270  204.5740  147.8250 C   0  0  0  0  0  2  0  0  0  0  0  0
  160.5220  208.7580  155.3870 O   0  0  0  0  0  0  0  0  0  0  0  0
  160.0290  210.9010  154.5250 C   0  0  0  0  0  2  0  0  0  0  0  0
  162.5350  206.6490  146.9930 O   0  0  0  0  0  1  0  0  0  0  0  0
  160.9990  206.2440  151.6260 C   0  0  0  0  0  0  0  0  0  0  0  0
  160.7790  203.9650  148.6720 O   0  0  0  0  0  0  0  0  0  0  0  0
  161.7610  206.6020  149.2740 C   0  0  2  0  0  3  0  0  0  0  0  0
  161.2910  207.5070  151.9530 C   0  0  1  0  0  3  0  0  0  0  0  0
  161.0920  205.8360  155.0390 O   0  0  0  0  0  0  0  0  0  0  0  0
  161.4110  207.6450  153.4400 C   0  0  1  0  0  3  0  0  0  0  0  0
  159.8720  209.9610  155.6970 C   0  0  0  0  0  2  0  0  0  0  0  0
  162.8410  210.3160  153.2620 C   0  0  0  0  0  1  0  0  0  0  0  0
  161.1180  204.3100  149.9930 C   0  0  0  0  0  2  0  0  0  0  0  0
  160.8450  205.7960  150.2020 C   0  0  1  0  0  3  0  0  0  0  0  0
  161.4930  210.4540  152.5620 C   0  0  2  0  0  3  0  0  0  0  0  0
  162.4150  211.3120  147.9510 O   0  0  0  0  0  0  0  0  0  0  0  0
  162.2530  213.3350  146.7140 C   0  0  0  0  0  1  0  0  0  0  0  0
  161.5080  212.1610  147.3130 C   0  0  0  0  0  2  0  0  0  0  0  0
  1  5  1  6  0  0  0
  1  4  1  0  0  0  0
  2 16  1  6  0  0  0
  2 19  1  0  0  0  0
  3 10  1  0  0  0  0
  4 12  1  1  0  0  0
  4 20  1  0  0  0  0
  5 11  1  0  0  0  0
  7  9  1  0  0  0  0
  7 15  1  1  0  0  0
  8  6  2  0  0  0  0
  8 12  1  0  0  0  0
  9 14  1  1  0  0  0
 10 21  2  0  0  0  0
 11 28  1  6  0  0  0
 11  8  1  0  0  0  0
 12 27  1  0  0  0  0
 13  2  1  0  0  0  0
 13 18  1  0  0  0  0
 14 23  1  0  0  0  0
 15 23  1  0  0  0  0
 17 20  1  0  0  0  0
 17  3  2  0  0  0  0
 18 25  1  0  0  0  0
 19  1  1  0  0  0  0
 19 26  1  0  0  0  0
 20 22  1  0  0  0  0
 22 10  1  0  0  0  0
 22  9  1  0  0  0  0
 25 26  1  0  0  0  0
 26 17  1  0  0  0  0
 27 24  1  0  0  0  0
 27  7  1  0  0  0  0
 29 30  1  0  0  0  0
 30 28  1  0  0  0  0
M  END
>  <MODEL>
2

>  <REMARK>
 VINA RESULT:      -6.1      1.737      5.533
  Name = 
  2 active torsions:
  status: ('A' for Active; 'I' for Inactive)
    1  A    between atoms: C_11  and  O_28
    2  A    between atoms: O_28  and  C_30
                            x       y       z     vdW  Elec       q    Type
                         _______ _______ _______ _____ _____    ______ ____

>  <TORSDO>
F 2

$$$$
=
 OpenBabel11122412313D

 30 35  0  0  1  0  0  0  0  0999 V2000
  161.0450  205.1070  149.2480 C   0  0  1  0  0  3  0  0  0  0  0  0
  160.8500  202.5370  148.9350 C   0  0  2  0  0  3  0  0  0  0  0  0
  160.8670  204.6470  153.4940 N   0  0  0  0  0  0  0  0  0  0  0  0
  161.6640  206.1680  150.1800 C   0  0  1  0  0  3  0  0  0  0  0  0
  161.6510  205.3020  147.8730 C   0  0  0  0  0  2  0  0  0  0  0  0
  161.1900  208.9370  147.8080 O   0  0  0  0  0  0  0  0  0  0  0  0
  160.5420  208.8800  151.5810 C   0  0  1  0  0  3  0  0  0  0  0  0
  161.2720  207.7600  148.2540 C   0  0  0  0  0  0  0  0  0  0  0  0
  160.6910  208.0480  152.8550 C   0  0  2  0  0  3  0  0  0  0  0  0
  161.3460  205.9130  153.9110 C   0  0  0  0  0  0  0  0  0  0  0  0
  161.1340  206.6090  147.2850 C   0  0  1  0  0  3  0  0  0  0  0  0
  161.4120  207.5340  149.6750 N   0  0  0  0  0  0  0  0  0  0  0  0
  160.9720  201.2340  149.7360 C   0  0  0  0  0  2  0  0  0  0  0  0
  161.0850  208.9030  153.8970 O   0  0  0  0  0  0  0  0  0  0  0  0
  160.5080  210.2950  152.0790 C   0  0  0  0  0  2  0  0  0  0  0  0
  161.6820  202.4480  147.8180 O   0  0  0  0  0  1  0  0  0  0  0  0
  160.8990  204.7380  152.0770 C   0  0  0  0  0  0  0  0  0  0  0  0
  160.1590  201.2730  150.8860 O   0  0  0  0  0  0  0  0  0  0  0  0
  161.2820  203.7060  149.8350 C   0  0  2  0  0  3  0  0  0  0  0  0
  161.2670  205.9420  151.6280 C   0  0  1  0  0  3  0  0  0  0  0  0
  161.5280  206.2040  155.1230 O   0  0  0  0  0  0  0  0  0  0  0  0
  161.6260  206.8380  152.7740 C   0  0  1  0  0  3  0  0  0  0  0  0
  160.5200  210.1470  153.5820 C   0  0  0  0  0  2  0  0  0  0  0  0
  163.0680  208.8350  151.0010 C   0  0  0  0  0  1  0  0  0  0  0  0
  160.7130  202.2310  151.7560 C   0  0  0  0  0  2  0  0  0  0  0  0
  160.5090  203.6190  151.1560 C   0  0  1  0  0  3  0  0  0  0  0  0
  161.6280  208.7200  150.5100 C   0  0  2  0  0  3  0  0  0  0  0  0
  161.8190  206.8870  146.0990 O   0  0  0  0  0  0  0  0  0  0  0  0
  161.3180  205.4330  144.2880 C   0  0  0  0  0  1  0  0  0  0  0  0
  162.1190  205.6360  145.5560 C   0  0  0  0  0  2  0  0  0  0  0  0
  1  5  1  6  0  0  0
  1 19  1  0  0  0  0
  1  4  1  0  0  0  0
  2 16  1  6  0  0  0
  2 13  1  0  0  0  0
  2 19  1  0  0  0  0
  3 10  1  0  0  0  0
  4 12  1  6  0  0  0
  4 20  1  0  0  0  0
  6  8  2  0  0  0  0
  7 15  1  1  0  0  0
  7  9  1  0  0  0  0
  8 12  1  0  0  0  0
  9 14  1  1  0  0  0
 10 21  2  0  0  0  0
 11 28  1  6  0  0  0
 11  5  1  0  0  0  0
 11  8  1  0  0  0  0
 12 27  1  0  0  0  0
 13 18  1  0  0  0  0
 15 23  1  0  0  0  0
 17  3  2  0  0  0  0
 18 25  1  0  0  0  0
 19 26  1  0  0  0  0
 20 17  1  0  0  0  0
 20 22  1  0  0  0  0
 22  9  1  0  0  0  0
 22 10  1  0  0  0  0
 23 14  1  0  0  0  0
 26 25  1  0  0  0  0
 26 17  1  0  0  0  0
 27 24  1  0  0  0  0
 27  7  1  0  0  0  0
 29 30  1  0  0  0  0
 30 28  1  0  0  0  0
M  END
>  <MODEL>
3

>  <REMARK>
 VINA RESULT:      -5.7      1.532      5.803
  Name = 
  2 active torsions:
  status: ('A' for Active; 'I' for Inactive)
    1  A    between atoms: C_11  and  O_28
    2  A    between atoms: O_28  and  C_30
                            x       y       z     vdW  Elec       q    Type
                         _______ _______ _______ _____ _____    ______ ____

>  <TORSDO>
F 2

$$$$
=
 OpenBabel11122412313D

 30 35  0  0  1  0  0  0  0  0999 V2000
  161.4070  207.5040  151.3000 C   0  0  1  0  0  3  0  0  0  0  0  0
  161.8030  210.0060  150.7330 C   0  0  2  0  0  3  0  0  0  0  0  0
  161.8570  206.4530  147.1820 N   0  0  0  0  0  0  0  0  0  0  0  0
  161.8580  206.0860  150.8970 C   0  0  1  0  0  3  0  0  0  0  0  0
  161.7770  207.7000  152.7570 C   0  0  0  0  0  2  0  0  0  0  0  0
  160.4460  204.4780  153.8860 O   0  0  0  0  0  0  0  0  0  0  0  0
  160.2900  203.3120  150.2430 C   0  0  1  0  0  3  0  0  0  0  0  0
  160.8640  205.3830  153.1140 C   0  0  0  0  0  0  0  0  0  0  0  0
  160.7880  203.5950  148.8250 C   0  0  2  0  0  3  0  0  0  0  0  0
  162.0630  205.0550  147.2930 C   0  0  0  0  0  0  0  0  0  0  0  0
  160.8930  206.8070  153.6170 C   0  0  1  0  0  3  0  0  0  0  0  0
  161.2240  205.0590  151.7510 N   0  0  0  0  0  0  0  0  0  0  0  0
  162.3310  210.8930  149.5980 C   0  0  0  0  0  2  0  0  0  0  0  0
  161.0860  202.3690  148.2090 O   0  0  0  0  0  0  0  0  0  0  0  0
  159.9750  201.8450  150.2260 C   0  0  0  0  0  2  0  0  0  0  0  0
  162.4910  210.3280  151.9030 O   0  0  0  0  0  1  0  0  0  0  0  0
  161.6960  206.8660  148.5310 C   0  0  0  0  0  0  0  0  0  0  0  0
  161.6780  210.6000  148.3850 O   0  0  0  0  0  0  0  0  0  0  0  0
  162.0440  208.5360  150.3560 C   0  0  2  0  0  3  0  0  0  0  0  0
  161.7050  205.8530  149.4040 C   0  0  1  0  0  3  0  0  0  0  0  0
  162.3130  204.3250  146.2980 O   0  0  0  0  0  0  0  0  0  0  0  0
  161.9720  204.5590  148.6970 C   0  0  1  0  0  3  0  0  0  0  0  0
  160.2040  201.4460  148.7880 C   0  0  0  0  0  2  0  0  0  0  0  0
  162.6640  203.0900  151.2610 C   0  0  0  0  0  1  0  0  0  0  0  0
  162.0840  209.3110  147.9930 C   0  0  0  0  0  2  0  0  0  0  0  0
  161.4800  208.2900  148.9520 C   0  0  1  0  0  3  0  0  0  0  0  0
  161.2460  203.6370  151.3980 C   0  0  2  0  0  3  0  0  0  0  0  0
  161.3420  206.8450  154.9400 O   0  0  0  0  0  0  0  0  0  0  0  0
  160.0800  206.9550  156.9500 C   0  0  0  0  0  1  0  0  0  0  0  0
  160.3910  207.6080  155.6200 C   0  0  0  0  0  2  0  0  0  0  0  0
  1  5  1  1  0  0  0
  2 16  1  1  0  0  0
  3 10  1  0  0  0  0
  3 17  2  0  0  0  0
  4  1  1  0  0  0  0
  4 12  1  1  0  0  0
  5 11  1  0  0  0  0
  7 15  1  6  0  0  0
  7 27  1  0  0  0  0
  8 11  1  0  0  0  0
  8  6  2  0  0  0  0
  9 14  1  1  0  0  0
  9  7  1  0  0  0  0
 10 22  1  0  0  0  0
 11 28  1  1  0  0  0
 12  8  1  0  0  0  0
 13  2  1  0  0  0  0
 14 23  1  0  0  0  0
 17 26  1  0  0  0  0
 17 20  1  0  0  0  0
 18 13  1  0  0  0  0
 19  2  1  0  0  0  0
 19  1  1  0  0  0  0
 20  4  1  0  0  0  0
 21 10  2  0  0  0  0
 22  9  1  0  0  0  0
 22 20  1  0  0  0  0
 23 15  1  0  0  0  0
 24 27  1  0  0  0  0
 25 18  1  0  0  0  0
 25 26  1  0  0  0  0
 26 19  1  0  0  0  0
 27 12  1  0  0  0  0
 28 30  1  0  0  0  0
 30 29  1  0  0  0  0
M  END
>  <MODEL>
4

>  <REMARK>
 VINA RESULT:      -5.5      1.553      5.053
  Name = 
  2 active torsions:
  status: ('A' for Active; 'I' for Inactive)
    1  A    between atoms: C_11  and  O_28
    2  A    between atoms: O_28  and  C_30
                            x       y       z     vdW  Elec       q    Type
                         _______ _______ _______ _____ _____    ______ ____

>  <TORSDO>
F 2

$$$$
=
 OpenBabel11122412313D

 30 35  0  0  1  0  0  0  0  0999 V2000
  161.3650  208.7990  152.0920 C   0  0  1  0  0  3  0  0  0  0  0  0
  162.1140  208.6770  149.6090 C   0  0  2  0  0  3  0  0  0  0  0  0
  160.3680  212.9300  151.6340 N   0  0  0  0  0  0  0  0  0  0  0  0
  160.3150  209.4590  153.0070 C   0  0  1  0  0  3  0  0  0  0  0  0
  161.1650  207.2990  152.1820 C   0  0  0  0  0  2  0  0  0  0  0  0
  160.9470  207.2000  155.8380 O   0  0  0  0  0  0  0  0  0  0  0  0
  160.4560  210.9970  155.8700 C   0  0  1  0  0  3  0  0  0  0  0  0
  160.9550  207.6580  154.6630 C   0  0  0  0  0  0  0  0  0  0  0  0
  160.0940  212.2110  155.0130 C   0  0  2  0  0  3  0  0  0  0  0  0
  159.5620  213.1300  152.7830 C   0  0  0  0  0  0  0  0  0  0  0  0
  161.5820  206.8270  153.5690 C   0  0  1  0  0  3  0  0  0  0  0  0
  160.4480  208.9860  154.4020 N   0  0  0  0  0  0  0  0  0  0  0  0
  162.0040  209.4680  148.2990 C   0  0  0  0  0  2  0  0  0  0  0  0
  159.2610  213.0520  155.7670 O   0  0  0  0  0  0  0  0  0  0  0  0
  160.0800  211.4160  157.2610 C   0  0  0  0  0  2  0  0  0  0  0  0
  161.6780  207.3720  149.3750 O   0  0  0  0  0  1  0  0  0  0  0  0
  160.7380  211.5620  151.7310 C   0  0  0  0  0  0  0  0  0  0  0  0
  162.4210  210.8020  148.4810 O   0  0  0  0  0  0  0  0  0  0  0  0
  161.2290  209.3560  150.6660 C   0  0  2  0  0  3  0  0  0  0  0  0
  160.3030  210.9700  152.8470 C   0  0  1  0  0  3  0  0  0  0  0  0
  158.9820  214.2220  153.0220 O   0  0  0  0  0  0  0  0  0  0  0  0
  159.4630  211.9190  153.6480 C   0  0  1  0  0  3  0  0  0  0  0  0
  159.6540  212.8560  157.0990 C   0  0  0  0  0  2  0  0  0  0  0  0
  158.2650  209.7110  155.3510 C   0  0  0  0  0  1  0  0  0  0  0  0
  161.4690  211.4270  149.3090 C   0  0  0  0  0  2  0  0  0  0  0  0
  161.5810  210.8470  150.7150 C   0  0  1  0  0  3  0  0  0  0  0  0
  159.7810  209.6650  155.5160 C   0  0  2  0  0  3  0  0  0  0  0  0
  161.2380  205.4810  153.7220 O   0  0  0  0  0  0  0  0  0  0  0  0
  160.7970  203.5710  152.3790 C   0  0  0  0  0  1  0  0  0  0  0  0
  161.5270  204.8930  152.4900 C   0  0  0  0  0  2  0  0  0  0  0  0
  1  5  1  6  0  0  0
  1  4  1  0  0  0  0
  2 16  1  6  0  0  0
  2 19  1  0  0  0  0
  3 17  2  0  0  0  0
  3 10  1  0  0  0  0
  4 12  1  1  0  0  0
  5 11  1  0  0  0  0
  7 15  1  1  0  0  0
  8  6  2  0  0  0  0
  9 14  1  1  0  0  0
  9  7  1  0  0  0  0
 10 21  2  0  0  0  0
 10 22  1  0  0  0  0
 11 28  1  1  0  0  0
 11  8  1  0  0  0  0
 12  8  1  0  0  0  0
 12 27  1  0  0  0  0
 13 18  1  0  0  0  0
 13  2  1  0  0  0  0
 14 23  1  0  0  0  0
 17 20  1  0  0  0  0
 18 25  1  0  0  0  0
 19 26  1  0  0  0  0
 19  1  1  0  0  0  0
 20  4  1  0  0  0  0
 20 22  1  0  0  0  0
 22  9  1  0  0  0  0
 23 15  1  0  0  0  0
 24 27  1  0  0  0  0
 25 26  1  0  0  0  0
 26 17  1  0  0  0  0
 27  7  1  0  0  0  0
 29 30  1  0  0  0  0
 30 28  1  0  0  0  0
M  END
>  <MODEL>
5

>  <REMARK>
 VINA RESULT:      -5.1      2.777      7.995
  Name = 
  2 active torsions:
  status: ('A' for Active; 'I' for Inactive)
    1  A    between atoms: C_11  and  O_28
    2  A    between atoms: O_28  and  C_30
                            x       y       z     vdW  Elec       q    Type
                         _______ _______ _______ _____ _____    ______ ____

>  <TORSDO>
F 2

$$$$
=
 OpenBabel11122412313D

 30 35  0  0  1  0  0  0  0  0999 V2000
  161.6860  207.4290  151.0120 C   0  0  1  0  0  3  0  0  0  0  0  0
  162.0950  208.0900  148.5360 C   0  0  2  0  0  3  0  0  0  0  0  0
  161.1580  211.5370  152.0680 N   0  0  0  0  0  0  0  0  0  0  0  0
  160.8490  207.8210  152.2460 C   0  0  1  0  0  3  0  0  0  0  0  0
  161.3160  206.0050  150.6480 C   0  0  0  0  0  2  0  0  0  0  0  0
  161.5490  204.7030  154.0650 O   0  0  0  0  0  0  0  0  0  0  0  0
  161.5380  208.2950  155.3900 C   0  0  1  0  0  3  0  0  0  0  0  0
  161.4650  205.5260  153.1120 C   0  0  0  0  0  0  0  0  0  0  0  0
  161.2240  209.7490  155.0360 C   0  0  2  0  0  3  0  0  0  0  0  0
  160.5340  211.4000  153.3330 C   0  0  0  0  0  0  0  0  0  0  0  0
  161.8420  205.0650  151.7250 C   0  0  1  0  0  3  0  0  0  0  0  0
  161.0970  206.8990  153.3750 N   0  0  0  0  0  0  0  0  0  0  0  0
  161.9210  209.2810  147.5840 C   0  0  0  0  0  2  0  0  0  0  0  0
  160.6030  210.3490  156.1430 O   0  0  0  0  0  0  0  0  0  0  0  0
  161.3950  208.2510  156.8830 C   0  0  0  0  0  2  0  0  0  0  0  0
  161.4760  206.9760  147.9680 O   0  0  0  0  0  1  0  0  0  0  0  0
  161.3650  210.1920  151.6610 C   0  0  0  0  0  0  0  0  0  0  0  0
  162.5180  210.4410  148.1140 O   0  0  0  0  0  0  0  0  0  0  0  0
  161.4410  208.4400  149.8810 C   0  0  2  0  0  3  0  0  0  0  0  0
  161.0040  209.2940  152.5820 C   0  0  1  0  0  3  0  0  0  0  0  0
  160.1270  212.3890  153.9990 O   0  0  0  0  0  0  0  0  0  0  0  0
  160.3960  209.9800  153.7680 C   0  0  1  0  0  3  0  0  0  0  0  0
  161.1330  209.6890  157.2610 C   0  0  0  0  0  2  0  0  0  0  0  0
  159.1580  207.4260  154.8430 C   0  0  0  0  0  1  0  0  0  0  0  0
  161.7630  210.8220  149.2390 C   0  0  0  0  0  2  0  0  0  0  0  0
  161.9780  209.7980  150.3490 C   0  0  1  0  0  3  0  0  0  0  0  0
  160.6650  207.2140  154.7400 C   0  0  2  0  0  3  0  0  0  0  0  0
  161.3560  203.7760  151.4920 O   0  0  0  0  0  0  0  0  0  0  0  0
  160.7900  202.4790  149.5830 C   0  0  0  0  0  1  0  0  0  0  0  0
  160.7460  203.8430  150.2380 C   0  0  0  0  0  2  0  0  0  0  0  0
  1  5  1  6  0  0  0
  1  4  1  0  0  0  0
  2 16  1  6  0  0  0
  2 19  1  0  0  0  0
  3 10  1  0  0  0  0
  4 20  1  0  0  0  0
  4 12  1  1  0  0  0
  5 11  1  0  0  0  0
  7 15  1  1  0  0  0
  8 12  1  0  0  0  0
  8  6  2  0  0  0  0
  9  7  1  0  0  0  0
  9 14  1  1  0  0  0
 10 22  1  0  0  0  0
 10 21  2  0  0  0  0
 11 28  1  6  0  0  0
 11  8  1  0  0  0  0
 12 27  1  0  0  0  0
 13 18  1  0  0  0  0
 13  2  1  0  0  0  0
 14 23  1  0  0  0  0
 15 23  1  0  0  0  0
 17  3  2  0  0  0  0
 17 20  1  0  0  0  0
 18 25  1  0  0  0  0
 19 26  1  0  0  0  0
 19  1  1  0  0  0  0
 20 22  1  0  0  0  0
 22  9  1  0  0  0  0
 25 26  1  0  0  0  0
 26 17  1  0  0  0  0
 27 24  1  0  0  0  0
 27  7  1  0  0  0  0
 29 30  1  0  0  0  0
 30 28  1  0  0  0  0
M  END
>  <MODEL>
6

>  <REMARK>
 VINA RESULT:      -4.0      2.039      7.311
  Name = 
  2 active torsions:
  status: ('A' for Active; 'I' for Inactive)
    1  A    between atoms: C_11  and  O_28
    2  A    between atoms: O_28  and  C_30
                            x       y       z     vdW  Elec       q    Type
                         _______ _______ _______ _____ _____    ______ ____

>  <TORSDO>
F 2

$$$$
=
 OpenBabel11122412313D

 30 35  0  0  1  0  0  0  0  0999 V2000
  161.5970  206.5610  148.2020 C   0  0  1  0  0  3  0  0  0  0  0  0
  161.4810  205.4170  145.8750 C   0  0  2  0  0  3  0  0  0  0  0  0
  160.8590  202.8180  150.1280 N   0  0  0  0  0  0  0  0  0  0  0  0
  162.0710  206.3150  149.6480 C   0  0  1  0  0  3  0  0  0  0  0  0
  162.3790  207.7430  147.6630 C   0  0  0  0  0  2  0  0  0  0  0  0
  161.8800  209.8580  150.6140 O   0  0  0  0  0  0  0  0  0  0  0  0
  160.7350  206.7770  152.5770 C   0  0  1  0  0  3  0  0  0  0  0  0
  161.9190  208.8290  149.8850 C   0  0  0  0  0  0  0  0  0  0  0  0
  160.7230  205.2480  152.5950 C   0  0  2  0  0  3  0  0  0  0  0  0
  161.2610  203.1250  151.4520 C   0  0  0  0  0  0  0  0  0  0  0  0
  161.9270  209.0060  148.3850 C   0  0  1  0  0  3  0  0  0  0  0  0
  161.8700  207.5150  150.4880 N   0  0  0  0  0  0  0  0  0  0  0  0
  161.5110  204.0200  145.2390 C   0  0  0  0  0  2  0  0  0  0  0  0
  160.9630  204.8200  153.9110 O   0  0  0  0  0  0  0  0  0  0  0  0
  160.6150  207.1530  154.0250 C   0  0  0  0  0  2  0  0  0  0  0  0
  162.4550  206.2030  145.2600 O   0  0  0  0  0  1  0  0  0  0  0  0
  161.0790  204.0350  149.4310 C   0  0  0  0  0  0  0  0  0  0  0  0
  160.5520  203.1760  145.8320 O   0  0  0  0  0  0  0  0  0  0  0  0
  161.7720  205.2760  147.3770 C   0  0  2  0  0  3  0  0  0  0  0  0
  161.4870  205.0350  150.2190 C   0  0  1  0  0  3  0  0  0  0  0  0
  161.2750  202.2660  152.3730 O   0  0  0  0  0  0  0  0  0  0  0  0
  161.6780  204.5470  151.6230 C   0  0  1  0  0  3  0  0  0  0  0  0
  160.4290  205.8280  154.7250 C   0  0  0  0  0  2  0  0  0  0  0  0
  163.3160  206.9690  152.4380 C   0  0  0  0  0  1  0  0  0  0  0  0
  160.9710  202.9320  147.1530 C   0  0  0  0  0  2  0  0  0  0  0  0
  160.8310  204.2170  147.9620 C   0  0  1  0  0  3  0  0  0  0  0  0
  161.9570  207.4600  151.9500 C   0  0  2  0  0  3  0  0  0  0  0  0
  162.7600  210.0680  148.0260 O   0  0  0  0  0  0  0  0  0  0  0  0
  162.7990  212.4400  147.8860 C   0  0  0  0  0  1  0  0  0  0  0  0
  161.9560  211.2050  148.1250 C   0  0  0  0  0  2  0  0  0  0  0  0
  1  5  1  6  0  0  0
  1  4  1  0  0  0  0
  2 16  1  6  0  0  0
  2 19  1  0  0  0  0
  3 10  1  0  0  0  0
  4 20  1  0  0  0  0
  4 12  1  1  0  0  0
  5 11  1  0  0  0  0
  7  9  1  0  0  0  0
  7 15  1  1  0  0  0
  8 12  1  0  0  0  0
  8  6  2  0  0  0  0
  9 14  1  1  0  0  0
 10 22  1  0  0  0  0
 10 21  2  0  0  0  0
 11 28  1  1  0  0  0
 11  8  1  0  0  0  0
 12 27  1  0  0  0  0
 13 18  1  0  0  0  0
 13  2  1  0  0  0  0
 14 23  1  0  0  0  0
 15 23  1  0  0  0  0
 17  3  2  0  0  0  0
 17 20  1  0  0  0  0
 18 25  1  0  0  0  0
 19 26  1  0  0  0  0
 19  1  1  0  0  0  0
 20 22  1  0  0  0  0
 22  9  1  0  0  0  0
 25 26  1  0  0  0  0
 26 17  1  0  0  0  0
 27 24  1  0  0  0  0
 27  7  1  0  0  0  0
 28 30  1  0  0  0  0
 29 30  1  0  0  0  0
M  END
>  <MODEL>
7

>  <REMARK>
 VINA RESULT:      -3.2      1.798      5.507
  Name = 
  2 active torsions:
  status: ('A' for Active; 'I' for Inactive)
    1  A    between atoms: C_11  and  O_28
    2  A    between atoms: O_28  and  C_30
                            x       y       z     vdW  Elec       q    Type
                         _______ _______ _______ _____ _____    ______ ____

>  <TORSDO>
F 2

$$$$
