=
 OpenBabel11122413523D

 37 43  0  0  1  0  0  0  0  0999 V2000
  161.0880  212.2140  150.9690 C   0  0  0  0  0  2  0  0  0  0  0  0
  158.9450  212.3170  155.1520 C   0  0  0  0  0  0  0  0  0  0  0  0
  161.8310  209.3530  154.5710 C   0  0  1  0  0  3  0  0  0  0  0  0
  160.5760  212.7330  149.6930 N   0  0  0  0  0  0  0  0  0  0  0  0
  162.1510  208.2450  151.0100 C   0  0  0  0  0  2  0  0  0  0  0  0
  160.1180  210.5010  156.0020 C   0  0  1  0  0  3  0  0  0  0  0  0
  161.2760  209.2950  153.1690 C   0  0  0  0  0  0  0  0  0  0  0  0
  162.2210  211.1970  148.5540 C   0  0  0  0  0  0  0  0  0  0  0  0
  161.3330  210.7080  155.1010 C   0  0  2  0  0  3  0  0  0  0  0  0
  161.2620  208.0800  152.2540 C   0  0  2  0  0  3  0  0  0  0  0  0
  160.4840  209.7170  157.2610 C   0  0  0  0  0  2  0  0  0  0  0  0
  160.8650  211.8680  148.5300 C   0  0  0  0  0  2  0  0  0  0  0  0
  160.8690  211.4090  153.9200 N   0  0  0  0  0  0  0  0  0  0  0  0
  158.3500  213.6560  155.5310 C   0  0  0  0  0  1  0  0  0  0  0  0
  160.4110  207.2710  155.1780 C   0  0  0  0  0  3  0  0  0  0  0  0
  161.5100  208.5980  156.9940 C   0  0  0  0  0  2  0  0  0  0  0  0
  160.0030  212.5750  154.0630 C   0  0  0  0  0  2  0  0  0  0  0  0
  162.3290  209.7460  148.9260 C   0  0  0  0  0  2  0  0  0  0  0  0
  161.8480  209.5850  150.3560 C   0  0  1  0  0  3  0  0  0  0  0  0
  161.5770  208.1540  155.5260 C   0  0  2  0  0  3  0  0  0  0  0  0
  160.8200  210.5060  152.8220 C   0  0  0  0  0  0  0  0  0  0  0  0
  159.5160  211.7390  156.3220 O   0  0  0  0  0  0  0  0  0  0  0  0
  161.4160  206.7290  152.9710 C   0  0  1  0  0  3  0  0  0  0  0  0
  157.8120  211.4560  154.5960 C   0  0  0  0  0  1  0  0  0  0  0  0
  160.4780  209.8990  150.4710 O   0  0  0  0  0  0  0  0  0  0  0  0
  163.2260  211.8350  148.2860 O   0  0  0  0  0  0  0  0  0  0  0  0
  160.3610  210.9320  151.4300 C   0  0  2  0  0  3  0  0  0  0  0  0
  160.3530  206.5950  154.0260 C   0  0  0  0  0  3  0  0  0  0  0  0
  161.2900  204.2700  152.5340 C   0  0  0  0  0  3  0  0  0  0  0  0
  161.3300  205.5710  152.0210 C   0  0  0  0  0  0  0  0  0  0  0  0
  161.2900  205.7690  150.6310 C   0  0  0  0  0  3  0  0  0  0  0  0
  161.1740  204.8760  148.3610 N   0  0  0  0  0  1  0  0  0  0  0  0
  161.1760  203.3750  150.2870 C   0  0  0  0  0  3  0  0  0  0  0  0
  161.2130  204.6720  149.7670 C   0  0  0  0  0  0  0  0  0  0  0  0
  161.2140  203.1740  151.6700 C   0  0  0  0  0  3  0  0  0  0  0  0
  160.9810  214.4530  148.0220 C   0  0  0  0  0  1  0  0  0  0  0  0
  161.2090  214.0210  149.4580 C   0  0  0  0  0  2  0  0  0  0  0  0
  2 14  1  0  0  0  0
  2 22  1  0  0  0  0
  3  7  1  6  0  0  0
  3  9  1  0  0  0  0
  3 20  1  0  0  0  0
  4  1  1  0  0  0  0
  6 22  1  0  0  0  0
  6 11  1  1  0  0  0
  8 18  1  0  0  0  0
  9 13  1  6  0  0  0
  9  6  1  0  0  0  0
 10  5  1  6  0  0  0
 10 23  1  0  0  0  0
 10  7  1  0  0  0  0
 12  8  1  0  0  0  0
 12  4  1  0  0  0  0
 13 17  1  0  0  0  0
 16 11  1  0  0  0  0
 17  2  1  0  0  0  0
 19 18  1  6  0  0  0
 19 25  1  0  0  0  0
 19  5  1  0  0  0  0
 20 15  1  6  0  0  0
 20 16  1  0  0  0  0
 21  7  2  0  0  0  0
 21 13  1  0  0  0  0
 23 30  1  6  0  0  0
 23 28  1  0  0  0  0
 24  2  1  0  0  0  0
 25 27  1  0  0  0  0
 26  8  2  0  0  0  0
 27  1  1  6  0  0  0
 27 21  1  0  0  0  0
 28 15  2  0  0  0  0
 30 29  1  0  0  0  0
 31 30  2  0  0  0  0
 32 34  1  0  0  0  0
 33 35  1  0  0  0  0
 34 33  2  0  0  0  0
 34 31  1  0  0  0  0
 35 29  2  0  0  0  0
 36 37  1  0  0  0  0
 37  4  1  0  0  0  0
M  END
>  <MODEL>
1

>  <REMARK>
 VINA RESULT:      -6.4      0.000      0.000
  Name = 
  2 active torsions:
  status: ('A' for Active; 'I' for Inactive)
    1  A    between atoms: N_4  and  C_37
    2  A    between atoms: C_23  and  C_30
                            x       y       z     vdW  Elec       q    Type
                         _______ _______ _______ _____ _____    ______ ____

>  <TORSDO>
F 2

$$$$
=
 OpenBabel11122413523D

 37 43  0  0  1  0  0  0  0  0999 V2000
  161.2270  208.1170  152.2080 C   0  0  0  0  0  2  0  0  0  0  0  0
  160.1300  211.0490  155.7140 C   0  0  0  0  0  0  0  0  0  0  0  0
  158.7010  212.0210  151.9100 C   0  0  1  0  0  3  0  0  0  0  0  0
  162.3710  207.1970  152.1400 N   0  0  0  0  0  0  0  0  0  0  0  0
  160.8970  210.8180  149.1280 C   0  0  0  0  0  2  0  0  0  0  0  0
  158.9240  212.5050  154.3640 C   0  0  1  0  0  3  0  0  0  0  0  0
  160.0310  211.4890  151.4370 C   0  0  0  0  0  0  0  0  0  0  0  0
  162.0590  207.1920  149.6380 C   0  0  0  0  0  0  0  0  0  0  0  0
  158.5650  211.4420  153.3280 C   0  0  2  0  0  3  0  0  0  0  0  0
  160.7840  211.9250  150.1890 C   0  0  2  0  0  3  0  0  0  0  0  0
  157.9340  213.6680  154.3360 C   0  0  0  0  0  2  0  0  0  0  0  0
  163.0120  207.1270  150.8110 C   0  0  0  0  0  2  0  0  0  0  0  0
  159.5880  210.4180  153.4000 N   0  0  0  0  0  0  0  0  0  0  0  0
  160.1660  210.4320  157.0960 C   0  0  0  0  0  1  0  0  0  0  0  0
  159.6400  214.4300  151.7210 C   0  0  0  0  0  3  0  0  0  0  0  0
  157.4730  214.0300  152.9110 C   0  0  0  0  0  2  0  0  0  0  0  0
  160.0020  209.8970  154.6990 C   0  0  0  0  0  2  0  0  0  0  0  0
  161.9190  208.4700  148.8610 C   0  0  0  0  0  2  0  0  0  0  0  0
  161.3790  209.5380  149.7940 C   0  0  1  0  0  3  0  0  0  0  0  0
  158.4260  213.5460  151.8080 C   0  0  2  0  0  3  0  0  0  0  0  0
  160.4470  210.5270  152.2720 C   0  0  0  0  0  0  0  0  0  0  0  0
  159.0160  211.9350  155.6540 O   0  0  0  0  0  0  0  0  0  0  0  0
  160.3750  213.2980  149.6340 C   0  0  1  0  0  3  0  0  0  0  0  0
  161.4500  211.7900  155.5110 C   0  0  0  0  0  1  0  0  0  0  0  0
  162.2980  209.8250  150.8240 O   0  0  0  0  0  0  0  0  0  0  0  0
  161.3950  206.2160  149.3310 O   0  0  0  0  0  0  0  0  0  0  0  0
  161.6380  209.5970  152.0540 C   0  0  2  0  0  3  0  0  0  0  0  0
  160.5120  214.3390  150.7120 C   0  0  0  0  0  3  0  0  0  0  0  0
  162.5430  214.0360  148.6300 C   0  0  0  0  0  3  0  0  0  0  0  0
  161.1980  213.6960  148.4450 C   0  0  0  0  0  0  0  0  0  0  0  0
  160.6450  213.7360  147.1540 C   0  0  0  0  0  3  0  0  0  0  0  0
  160.8690  214.1540  144.7590 N   0  0  0  0  0  1  0  0  0  0  0  0
  162.7750  214.4530  146.2560 C   0  0  0  0  0  3  0  0  0  0  0  0
  161.4340  214.1140  146.0630 C   0  0  0  0  0  0  0  0  0  0  0  0
  163.3300  214.4140  147.5380 C   0  0  0  0  0  3  0  0  0  0  0  0
  161.1820  205.8940  153.8140 C   0  0  0  0  0  1  0  0  0  0  0  0
  161.8850  205.8670  152.4710 C   0  0  0  0  0  2  0  0  0  0  0  0
  2 14  1  0  0  0  0
  3  7  1  1  0  0  0
  3  9  1  0  0  0  0
  4  1  1  0  0  0  0
  4 37  1  0  0  0  0
  5 19  1  0  0  0  0
  6 11  1  1  0  0  0
  6 22  1  0  0  0  0
  7 21  2  0  0  0  0
  8 12  1  0  0  0  0
  9 13  1  6  0  0  0
  9  6  1  0  0  0  0
 10  5  1  6  0  0  0
 10  7  1  0  0  0  0
 12  4  1  0  0  0  0
 13 17  1  0  0  0  0
 16 11  1  0  0  0  0
 17  2  1  0  0  0  0
 18  8  1  0  0  0  0
 19 18  1  6  0  0  0
 19 25  1  0  0  0  0
 20 15  1  1  0  0  0
 20  3  1  0  0  0  0
 20 16  1  0  0  0  0
 21 13  1  0  0  0  0
 22  2  1  0  0  0  0
 23 30  1  6  0  0  0
 23 10  1  0  0  0  0
 23 28  1  0  0  0  0
 24  2  1  0  0  0  0
 25 27  1  0  0  0  0
 26  8  2  0  0  0  0
 27  1  1  6  0  0  0
 27 21  1  0  0  0  0
 28 15  2  0  0  0  0
 30 29  1  0  0  0  0
 31 30  2  0  0  0  0
 32 34  1  0  0  0  0
 33 35  1  0  0  0  0
 34 33  2  0  0  0  0
 34 31  1  0  0  0  0
 35 29  2  0  0  0  0
 37 36  1  0  0  0  0
M  END
>  <MODEL>
2

>  <REMARK>
 VINA RESULT:      -3.7      1.982      6.493
  Name = 
  2 active torsions:
  status: ('A' for Active; 'I' for Inactive)
    1  A    between atoms: N_4  and  C_37
    2  A    between atoms: C_23  and  C_30
                            x       y       z     vdW  Elec       q    Type
                         _______ _______ _______ _____ _____    ______ ____

>  <TORSDO>
F 2

$$$$
