=
 OpenBabel11122413003D

 32 37  0  0  1  0  0  0  0  0999 V2000
  160.2570  201.6310  149.8960 C   0  0  0  0  0  2  0  0  0  0  0  0
  161.3340  206.6510  151.8520 C   0  0  0  0  0  0  0  0  0  0  0  0
  162.1880  210.0450  148.2610 C   0  0  0  0  0  2  0  0  0  0  0  0
  161.5150  210.9080  149.1410 O   0  0  0  0  0  0  0  0  0  0  0  0
  161.0270  207.4360  154.1950 C   0  0  0  0  0  0  0  0  0  0  0  0
  160.8480  208.5290  154.9360 C   0  0  0  0  0  0  0  0  0  0  0  0
  160.8010  204.3050  151.2820 C   0  0  1  0  0  3  0  0  0  0  0  0
  161.5210  205.8560  149.4740 C   0  0  0  0  0  2  0  0  0  0  0  0
  160.4620  210.8410  155.3760 C   0  0  2  0  0  3  0  0  0  0  0  0
  161.5810  203.4300  148.9880 C   0  0  0  0  0  2  0  0  0  0  0  0
  161.7520  208.6020  148.5290 C   0  0  0  0  0  2  0  0  0  0  0  0
  161.6230  206.9310  150.4650 N   0  0  0  0  0  0  0  0  0  0  0  0
  161.7710  208.2920  150.0100 C   0  0  0  0  0  0  0  0  0  0  0  0
  161.9560  208.9990  152.3710 C   0  0  1  0  0  3  0  0  0  0  0  0
  160.1300  209.9750  156.6170 C   0  0  0  0  0  3  0  0  0  0  0  0
  161.1730  201.7400  151.1260 C   0  0  0  0  0  2  0  0  0  0  0  0
  161.7660  204.4830  150.0890 C   0  0  2  0  0  3  0  0  0  0  0  0
  160.3460  208.5710  156.2550 N   0  0  0  0  0  0  0  0  0  0  0  0
  160.8870  202.9570  152.0110 C   0  0  0  0  0  2  0  0  0  0  0  0
  160.2470  202.8330  149.0500 N   0  0  0  0  0  0  0  0  0  0  0  0
  162.0910  210.7030  150.4090 C   0  0  0  0  0  2  0  0  0  0  0  0
  161.8350  209.3000  150.9020 C   0  0  0  0  0  0  0  0  0  0  0  0
  161.4070  210.0870  153.1990 N   0  0  0  0  0  0  0  0  0  0  0  0
  160.9740  205.3530  152.2300 O   0  0  0  0  0  0  0  0  0  0  0  0
  160.8190  206.1750  154.7440 O   0  0  0  0  0  1  0  0  0  0  0  0
  159.1880  211.4800  154.8570 C   0  0  0  0  0  1  0  0  0  0  0  0
  161.4130  207.6300  152.7690 C   0  0  0  0  0  0  0  0  0  0  0  0
  160.9670  209.8480  154.3990 C   0  0  0  0  0  0  0  0  0  0  0  0
  159.9140  202.4030  147.7020 C   0  0  0  0  0  2  0  0  0  0  0  0
  161.1770  202.0490  146.9370 C   0  0  0  0  0  3  0  0  0  0  0  0
  161.2060  202.8220  145.6360 C   0  0  0  0  0  1  0  0  0  0  0  0
  161.2060  200.5630  146.6340 C   0  0  0  0  0  1  0  0  0  0  0  0
  1 16  1  0  0  0  0
  2 24  1  0  0  0  0
  2 27  2  0  0  0  0
  3 11  1  0  0  0  0
  3  4  1  0  0  0  0
  4 21  1  0  0  0  0
  5 25  1  0  0  0  0
  5  6  2  0  0  0  0
  6 18  1  0  0  0  0
  7 19  1  1  0  0  0
  7 24  1  0  0  0  0
  8 17  1  0  0  0  0
  8 12  1  0  0  0  0
  9 26  1  6  0  0  0
  9 15  1  0  0  0  0
 10 20  1  0  0  0  0
 11 13  1  0  0  0  0
 12  2  1  0  0  0  0
 13 12  1  0  0  0  0
 13 22  2  0  0  0  0
 14 22  1  6  0  0  0
 14 27  1  0  0  0  0
 14 23  1  0  0  0  0
 16 19  1  0  0  0  0
 17 10  1  6  0  0  0
 17  7  1  0  0  0  0
 18 15  2  0  0  0  0
 20  1  1  0  0  0  0
 21 22  1  0  0  0  0
 23 28  2  0  0  0  0
 27  5  1  0  0  0  0
 28  6  1  0  0  0  0
 28  9  1  0  0  0  0
 29 20  1  0  0  0  0
 30 29  1  0  0  0  0
 31 30  1  0  0  0  0
 32 30  1  0  0  0  0
M  END
>  <MODEL>
1

>  <REMARK>
 VINA RESULT:      -7.5      0.000      0.000
  Name = 
  2 active torsions:
  status: ('A' for Active; 'I' for Inactive)
    1  A    between atoms: N_20  and  C_29
    2  A    between atoms: C_29  and  C_30
                            x       y       z     vdW  Elec       q    Type
                         _______ _______ _______ _____ _____    ______ ____

>  <TORSDO>
F 2

$$$$
=
 OpenBabel11122413003D

 32 37  0  0  1  0  0  0  0  0999 V2000
  160.9550  209.9110  153.3520 C   0  0  0  0  0  2  0  0  0  0  0  0
  161.5100  205.9550  149.5810 C   0  0  0  0  0  0  0  0  0  0  0  0
  160.8270  201.3400  151.4210 C   0  0  0  0  0  2  0  0  0  0  0  0
  160.2350  201.1040  150.1700 O   0  0  0  0  0  0  0  0  0  0  0  0
  161.6320  206.2540  147.1110 C   0  0  0  0  0  0  0  0  0  0  0  0
  161.4350  205.6280  145.9520 C   0  0  0  0  0  0  0  0  0  0  0  0
  161.3040  207.9440  151.0330 C   0  0  1  0  0  3  0  0  0  0  0  0
  161.2670  205.6820  152.0680 C   0  0  0  0  0  2  0  0  0  0  0  0
  160.7390  203.8650  144.5030 C   0  0  2  0  0  3  0  0  0  0  0  0
  161.6620  207.6160  153.5620 C   0  0  0  0  0  2  0  0  0  0  0  0
  160.7460  202.8330  151.7490 C   0  0  0  0  0  2  0  0  0  0  0  0
  161.4010  205.0920  150.7330 N   0  0  0  0  0  0  0  0  0  0  0  0
  161.1780  203.6760  150.5680 C   0  0  0  0  0  0  0  0  0  0  0  0
  161.7870  203.9180  148.1850 C   0  0  1  0  0  3  0  0  0  0  0  0
  160.8830  205.1990  143.7290 C   0  0  0  0  0  3  0  0  0  0  0  0
  162.1020  210.0430  152.3370 C   0  0  0  0  0  2  0  0  0  0  0  0
  161.9050  207.0640  152.1500 C   0  0  2  0  0  3  0  0  0  0  0  0
  161.2640  206.2370  144.6910 N   0  0  0  0  0  0  0  0  0  0  0  0
  161.8140  209.3920  150.9810 C   0  0  0  0  0  2  0  0  0  0  0  0
  160.5180  208.5260  153.5820 N   0  0  0  0  0  0  0  0  0  0  0  0
  161.1260  201.6190  149.2100 C   0  0  0  0  0  2  0  0  0  0  0  0
  161.2630  203.1160  149.3450 C   0  0  0  0  0  0  0  0  0  0  0  0
  161.2580  203.4300  146.8990 N   0  0  0  0  0  0  0  0  0  0  0  0
  161.5010  207.3420  149.7580 O   0  0  0  0  0  0  0  0  0  0  0  0
  161.8010  207.6340  147.1420 O   0  0  0  0  0  1  0  0  0  0  0  0
  159.2810  203.4450  144.5110 C   0  0  0  0  0  1  0  0  0  0  0  0
  161.6220  205.4260  148.3500 C   0  0  0  0  0  0  0  0  0  0  0  0
  161.1720  204.2250  145.8750 C   0  0  0  0  0  0  0  0  0  0  0  0
  159.9580  208.4730  154.9220 C   0  0  0  0  0  2  0  0  0  0  0  0
  160.9310  207.7960  155.8710 C   0  0  0  0  0  3  0  0  0  0  0  0
  160.1600  206.9370  156.8500 C   0  0  0  0  0  1  0  0  0  0  0  0
  161.7230  208.8380  156.6380 C   0  0  0  0  0  1  0  0  0  0  0  0
  1 20  1  0  0  0  0
  2 24  1  0  0  0  0
  2 12  1  0  0  0  0
  3 11  1  0  0  0  0
  4  3  1  0  0  0  0
  5 25  1  0  0  0  0
  5 27  1  0  0  0  0
  6  5  2  0  0  0  0
  7 19  1  6  0  0  0
  7 17  1  0  0  0  0
  9 26  1  1  0  0  0
  9 28  1  0  0  0  0
 10 20  1  0  0  0  0
 12  8  1  0  0  0  0
 13 12  1  0  0  0  0
 13 11  1  0  0  0  0
 14 23  1  6  0  0  0
 14 27  1  0  0  0  0
 14 22  1  0  0  0  0
 15  9  1  0  0  0  0
 15 18  2  0  0  0  0
 16  1  1  0  0  0  0
 17  8  1  1  0  0  0
 17 10  1  0  0  0  0
 18  6  1  0  0  0  0
 19 16  1  0  0  0  0
 20 29  1  0  0  0  0
 21 22  1  0  0  0  0
 21  4  1  0  0  0  0
 22 13  2  0  0  0  0
 24  7  1  0  0  0  0
 27  2  2  0  0  0  0
 28  6  1  0  0  0  0
 28 23  2  0  0  0  0
 29 30  1  0  0  0  0
 30 32  1  0  0  0  0
 30 31  1  0  0  0  0
M  END
>  <MODEL>
2

>  <REMARK>
 VINA RESULT:      -7.4      2.162      8.584
  Name = 
  2 active torsions:
  status: ('A' for Active; 'I' for Inactive)
    1  A    between atoms: N_20  and  C_29
    2  A    between atoms: C_29  and  C_30
                            x       y       z     vdW  Elec       q    Type
                         _______ _______ _______ _____ _____    ______ ____

>  <TORSDO>
F 2

$$$$
=
 OpenBabel11122413003D

 32 37  0  0  1  0  0  0  0  0999 V2000
  160.8580  202.4440  147.3600 C   0  0  0  0  0  2  0  0  0  0  0  0
  161.5030  206.5970  150.9000 C   0  0  0  0  0  0  0  0  0  0  0  0
  162.3820  210.9990  148.6650 C   0  0  0  0  0  2  0  0  0  0  0  0
  161.6030  211.5050  149.7180 O   0  0  0  0  0  0  0  0  0  0  0  0
  160.9980  206.5700  153.3390 C   0  0  0  0  0  0  0  0  0  0  0  0
  160.7070  207.3570  154.3740 C   0  0  0  0  0  0  0  0  0  0  0  0
  161.1500  204.5440  149.5680 C   0  0  1  0  0  3  0  0  0  0  0  0
  161.8910  206.6220  148.4160 C   0  0  0  0  0  2  0  0  0  0  0  0
  160.1540  209.3870  155.4970 C   0  0  2  0  0  3  0  0  0  0  0  0
  162.1280  204.4860  147.1860 C   0  0  0  0  0  2  0  0  0  0  0  0
  162.0170  209.5320  148.4210 C   0  0  0  0  0  2  0  0  0  0  0  0
  161.8640  207.3210  149.7040 N   0  0  0  0  0  0  0  0  0  0  0  0
  161.9590  208.7610  149.7220 C   0  0  0  0  0  0  0  0  0  0  0  0
  161.9480  208.6720  152.1910 C   0  0  1  0  0  3  0  0  0  0  0  0
  159.7960  208.1550  156.3650 C   0  0  0  0  0  3  0  0  0  0  0  0
  161.6850  202.1830  148.6300 C   0  0  0  0  0  2  0  0  0  0  0  0
  162.1770  205.1330  148.5780 C   0  0  2  0  0  3  0  0  0  0  0  0
  160.1190  206.9520  155.5910 N   0  0  0  0  0  0  0  0  0  0  0  0
  161.2690  203.0370  149.8320 C   0  0  0  0  0  2  0  0  0  0  0  0
  160.8310  203.8540  146.9460 N   0  0  0  0  0  0  0  0  0  0  0  0
  162.1070  210.9230  150.8960 C   0  0  0  0  0  2  0  0  0  0  0  0
  161.9050  209.4270  150.8910 C   0  0  0  0  0  0  0  0  0  0  0  0
  161.2820  209.4120  153.2770 N   0  0  0  0  0  0  0  0  0  0  0  0
  161.1980  205.2340  150.8130 O   0  0  0  0  0  0  0  0  0  0  0  0
  160.8310  205.1930  153.4360 O   0  0  0  0  0  1  0  0  0  0  0  0
  158.8810  210.1140  155.1090 C   0  0  0  0  0  1  0  0  0  0  0  0
  161.4640  207.2290  152.0860 C   0  0  0  0  0  0  0  0  0  0  0  0
  160.7810  208.7820  154.2980 C   0  0  0  0  0  0  0  0  0  0  0  0
  160.6120  203.8720  145.5090 C   0  0  0  0  0  2  0  0  0  0  0  0
  161.0820  205.1910  144.9230 C   0  0  0  0  0  3  0  0  0  0  0  0
  160.0810  206.2740  145.2610 C   0  0  0  0  0  1  0  0  0  0  0  0
  161.2040  205.0790  143.4150 C   0  0  0  0  0  1  0  0  0  0  0  0
  1 16  1  0  0  0  0
  2 27  2  0  0  0  0
  3  4  1  0  0  0  0
  4 21  1  0  0  0  0
  5 25  1  0  0  0  0
  5  6  2  0  0  0  0
  6 18  1  0  0  0  0
  7 19  1  1  0  0  0
  7 24  1  0  0  0  0
  8 17  1  0  0  0  0
  8 12  1  0  0  0  0
  9 26  1  6  0  0  0
  9 15  1  0  0  0  0
 11  3  1  0  0  0  0
 11 13  1  0  0  0  0
 12 13  1  0  0  0  0
 12  2  1  0  0  0  0
 13 22  2  0  0  0  0
 14 22  1  6  0  0  0
 14 23  1  0  0  0  0
 16 19  1  0  0  0  0
 17 10  1  6  0  0  0
 17  7  1  0  0  0  0
 18 15  2  0  0  0  0
 20 10  1  0  0  0  0
 20  1  1  0  0  0  0
 22 21  1  0  0  0  0
 23 28  2  0  0  0  0
 24  2  1  0  0  0  0
 27 14  1  0  0  0  0
 27  5  1  0  0  0  0
 28  6  1  0  0  0  0
 28  9  1  0  0  0  0
 29 20  1  0  0  0  0
 30 31  1  0  0  0  0
 30 29  1  0  0  0  0
 32 30  1  0  0  0  0
M  END
>  <MODEL>
3

>  <REMARK>
 VINA RESULT:      -7.3      1.478      2.009
  Name = 
  2 active torsions:
  status: ('A' for Active; 'I' for Inactive)
    1  A    between atoms: N_20  and  C_29
    2  A    between atoms: C_29  and  C_30
                            x       y       z     vdW  Elec       q    Type
                         _______ _______ _______ _____ _____    ______ ____

>  <TORSDO>
F 2

$$$$
=
 OpenBabel11122413003D

 32 37  0  0  1  0  0  0  0  0999 V2000
  161.2640  207.6200  157.2380 C   0  0  0  0  0  2  0  0  0  0  0  0
  161.0510  207.2550  151.7600 C   0  0  0  0  0  0  0  0  0  0  0  0
  162.3300  211.5080  149.4310 C   0  0  0  0  0  2  0  0  0  0  0  0
  162.9030  210.6320  148.4940 O   0  0  0  0  0  0  0  0  0  0  0  0
  160.8120  205.1750  150.4110 C   0  0  0  0  0  0  0  0  0  0  0  0
  161.0420  204.6560  149.2060 C   0  0  0  0  0  0  0  0  0  0  0  0
  161.0700  207.1030  154.2270 C   0  0  1  0  0  3  0  0  0  0  0  0
  161.4070  209.3200  153.1490 C   0  0  0  0  0  2  0  0  0  0  0  0
  161.8910  204.5770  146.9780 C   0  0  2  0  0  3  0  0  0  0  0  0
  160.8380  209.2960  155.5580 C   0  0  0  0  0  2  0  0  0  0  0  0
  162.2460  210.8130  150.7920 C   0  0  0  0  0  2  0  0  0  0  0  0
  161.2980  208.6760  151.8370 N   0  0  0  0  0  0  0  0  0  0  0  0
  161.6800  209.4170  150.6590 C   0  0  0  0  0  0  0  0  0  0  0  0
  160.9670  207.4880  149.2870 C   0  0  1  0  0  3  0  0  0  0  0  0
  161.5660  203.1550  147.5010 C   0  0  0  0  0  3  0  0  0  0  0  0
  160.0760  206.8690  156.6140 C   0  0  0  0  0  2  0  0  0  0  0  0
  160.6140  208.5780  154.2190 C   0  0  2  0  0  3  0  0  0  0  0  0
  161.0980  203.2830  148.8840 N   0  0  0  0  0  0  0  0  0  0  0  0
  160.3930  206.2040  155.2710 C   0  0  0  0  0  2  0  0  0  0  0  0
  161.8670  208.6240  156.3490 N   0  0  0  0  0  0  0  0  0  0  0  0
  161.9260  209.6570  148.2180 C   0  0  0  0  0  2  0  0  0  0  0  0
  161.6190  208.8340  149.4450 C   0  0  0  0  0  0  0  0  0  0  0  0
  161.5060  206.7500  148.1310 N   0  0  0  0  0  0  0  0  0  0  0  0
  160.9030  206.5180  152.9390 O   0  0  0  0  0  0  0  0  0  0  0  0
  160.4840  204.3470  151.4790 O   0  0  0  0  0  1  0  0  0  0  0  0
  163.3870  204.7020  146.7620 C   0  0  0  0  0  1  0  0  0  0  0  0
  160.9600  206.6500  150.5630 C   0  0  0  0  0  0  0  0  0  0  0  0
  161.4650  205.4520  148.0960 C   0  0  0  0  0  0  0  0  0  0  0  0
  162.4740  209.6340  157.2000 C   0  0  0  0  0  2  0  0  0  0  0  0
  162.5030  210.9740  156.4840 C   0  0  0  0  0  3  0  0  0  0  0  0
  163.9350  211.4490  156.3700 C   0  0  0  0  0  1  0  0  0  0  0  0
  161.6980  211.9990  157.2600 C   0  0  0  0  0  1  0  0  0  0  0  0
  2 12  1  0  0  0  0
  2 24  1  0  0  0  0
  3 11  1  0  0  0  0
  4  3  1  0  0  0  0
  5 27  1  0  0  0  0
  5 25  1  0  0  0  0
  6  5  2  0  0  0  0
  7 19  1  1  0  0  0
  9 26  1  1  0  0  0
  9 15  1  0  0  0  0
  9 28  1  0  0  0  0
 10 20  1  0  0  0  0
 12  8  1  0  0  0  0
 13 11  1  0  0  0  0
 13 12  1  0  0  0  0
 14 23  1  6  0  0  0
 14 22  1  0  0  0  0
 14 27  1  0  0  0  0
 15 18  2  0  0  0  0
 16  1  1  0  0  0  0
 17  8  1  6  0  0  0
 17  7  1  0  0  0  0
 17 10  1  0  0  0  0
 18  6  1  0  0  0  0
 19 16  1  0  0  0  0
 20 29  1  0  0  0  0
 20  1  1  0  0  0  0
 21  4  1  0  0  0  0
 21 22  1  0  0  0  0
 22 13  2  0  0  0  0
 24  7  1  0  0  0  0
 27  2  2  0  0  0  0
 28 23  2  0  0  0  0
 28  6  1  0  0  0  0
 30 29  1  0  0  0  0
 30 32  1  0  0  0  0
 31 30  1  0  0  0  0
M  END
>  <MODEL>
4

>  <REMARK>
 VINA RESULT:      -7.3      1.737      7.629
  Name = 
  2 active torsions:
  status: ('A' for Active; 'I' for Inactive)
    1  A    between atoms: N_20  and  C_29
    2  A    between atoms: C_29  and  C_30
                            x       y       z     vdW  Elec       q    Type
                         _______ _______ _______ _____ _____    ______ ____

>  <TORSDO>
F 2

$$$$
=
 OpenBabel11122413003D

 32 37  0  0  1  0  0  0  0  0999 V2000
  160.5880  202.3110  150.0820 C   0  0  0  0  0  2  0  0  0  0  0  0
  161.2490  207.3870  152.0790 C   0  0  0  0  0  0  0  0  0  0  0  0
  162.3630  210.7810  148.5590 C   0  0  0  0  0  2  0  0  0  0  0  0
  161.5640  211.6240  149.3490 O   0  0  0  0  0  0  0  0  0  0  0  0
  160.6560  208.1800  154.3640 C   0  0  0  0  0  0  0  0  0  0  0  0
  160.3550  209.2710  155.0670 C   0  0  0  0  0  0  0  0  0  0  0  0
  160.8730  205.0170  151.4840 C   0  0  1  0  0  3  0  0  0  0  0  0
  161.7280  206.5790  149.7460 C   0  0  0  0  0  2  0  0  0  0  0  0
  159.8330  211.5700  155.4310 C   0  0  2  0  0  3  0  0  0  0  0  0
  161.9350  204.1530  149.3020 C   0  0  0  0  0  2  0  0  0  0  0  0
  161.9560  209.3240  148.7970 C   0  0  0  0  0  2  0  0  0  0  0  0
  161.6790  207.6660  150.7290 N   0  0  0  0  0  0  0  0  0  0  0  0
  161.8240  209.0280  150.2750 C   0  0  0  0  0  0  0  0  0  0  0  0
  161.7200  209.7630  152.6320 C   0  0  1  0  0  3  0  0  0  0  0  0
  159.4010  210.7020  156.6400 C   0  0  0  0  0  3  0  0  0  0  0  0
  161.3590  202.4680  151.4030 C   0  0  0  0  0  2  0  0  0  0  0  0
  161.9560  205.2230  150.4030 C   0  0  2  0  0  3  0  0  0  0  0  0
  159.7090  209.3050  156.3210 N   0  0  0  0  0  0  0  0  0  0  0  0
  160.9300  203.6790  152.2360 C   0  0  0  0  0  2  0  0  0  0  0  0
  160.6260  203.5050  149.2250 N   0  0  0  0  0  0  0  0  0  0  0  0
  162.0050  211.4530  150.6750 C   0  0  0  0  0  2  0  0  0  0  0  0
  161.7500  210.0460  151.1550 C   0  0  0  0  0  0  0  0  0  0  0  0
  161.0410  210.8350  153.3810 N   0  0  0  0  0  0  0  0  0  0  0  0
  160.9010  206.0790  152.4320 O   0  0  0  0  0  0  0  0  0  0  0  0
  160.4370  206.9160  154.9030 O   0  0  0  0  0  1  0  0  0  0  0  0
  158.6010  212.1530  154.7670 C   0  0  0  0  0  1  0  0  0  0  0  0
  161.1890  208.3760  152.9860 C   0  0  0  0  0  0  0  0  0  0  0  0
  160.4820  210.5890  154.5280 C   0  0  0  0  0  0  0  0  0  0  0  0
  160.4600  203.0500  147.8540 C   0  0  0  0  0  2  0  0  0  0  0  0
  161.4050  203.8020  146.9330 C   0  0  0  0  0  3  0  0  0  0  0  0
  160.8310  205.1710  146.6370 C   0  0  0  0  0  1  0  0  0  0  0  0
  161.5810  203.0430  145.6320 C   0  0  0  0  0  1  0  0  0  0  0  0
  1 16  1  0  0  0  0
  2 24  1  0  0  0  0
  2 27  2  0  0  0  0
  3 11  1  0  0  0  0
  3  4  1  0  0  0  0
  4 21  1  0  0  0  0
  5 25  1  0  0  0  0
  5  6  2  0  0  0  0
  6 18  1  0  0  0  0
  7 19  1  1  0  0  0
  7 24  1  0  0  0  0
  8 17  1  0  0  0  0
  8 12  1  0  0  0  0
  9 26  1  6  0  0  0
  9 15  1  0  0  0  0
 11 13  1  0  0  0  0
 12  2  1  0  0  0  0
 13 12  1  0  0  0  0
 13 22  2  0  0  0  0
 14 22  1  6  0  0  0
 14 27  1  0  0  0  0
 14 23  1  0  0  0  0
 16 19  1  0  0  0  0
 17 10  1  6  0  0  0
 17  7  1  0  0  0  0
 18 15  2  0  0  0  0
 20 10  1  0  0  0  0
 20  1  1  0  0  0  0
 21 22  1  0  0  0  0
 23 28  2  0  0  0  0
 27  5  1  0  0  0  0
 28  6  1  0  0  0  0
 28  9  1  0  0  0  0
 29 20  1  0  0  0  0
 30 29  1  0  0  0  0
 31 30  1  0  0  0  0
 32 30  1  0  0  0  0
M  END
>  <MODEL>
5

>  <REMARK>
 VINA RESULT:      -7.1      0.957      1.079
  Name = 
  2 active torsions:
  status: ('A' for Active; 'I' for Inactive)
    1  A    between atoms: N_20  and  C_29
    2  A    between atoms: C_29  and  C_30
                            x       y       z     vdW  Elec       q    Type
                         _______ _______ _______ _____ _____    ______ ____

>  <TORSDO>
F 2

$$$$
=
 OpenBabel11122413003D

 32 37  0  0  1  0  0  0  0  0999 V2000
  161.9420  205.5120  151.5490 C   0  0  0  0  0  2  0  0  0  0  0  0
  160.0830  210.4400  153.1100 C   0  0  0  0  0  0  0  0  0  0  0  0
  160.5710  213.9630  149.5750 C   0  0  0  0  0  2  0  0  0  0  0  0
  159.3470  214.4190  150.0890 O   0  0  0  0  0  0  0  0  0  0  0  0
  158.7120  210.9480  155.1260 C   0  0  0  0  0  0  0  0  0  0  0  0
  157.8540  211.8300  155.6350 C   0  0  0  0  0  0  0  0  0  0  0  0
  160.8120  208.1150  152.6950 C   0  0  1  0  0  3  0  0  0  0  0  0
  161.3690  209.8740  151.0250 C   0  0  0  0  0  2  0  0  0  0  0  0
  156.4070  213.7270  155.6450 C   0  0  2  0  0  3  0  0  0  0  0  0
  162.6040  207.7330  150.8850 C   0  0  0  0  0  2  0  0  0  0  0  0
  160.7220  212.4690  149.8690 C   0  0  0  0  0  2  0  0  0  0  0  0
  160.6720  210.8570  151.8590 N   0  0  0  0  0  0  0  0  0  0  0  0
  160.3750  212.1580  151.3090 C   0  0  0  0  0  0  0  0  0  0  0  0
  159.4460  212.8090  153.5040 C   0  0  1  0  0  3  0  0  0  0  0  0
  156.0780  212.7690  156.8170 C   0  0  0  0  0  3  0  0  0  0  0  0
  162.2590  205.9780  152.9800 C   0  0  0  0  0  2  0  0  0  0  0  0
  161.9490  208.7300  151.8500 C   0  0  2  0  0  3  0  0  0  0  0  0
  156.9730  211.6120  156.7160 N   0  0  0  0  0  0  0  0  0  0  0  0
  161.2100  206.9210  153.5750 C   0  0  0  0  0  2  0  0  0  0  0  0
  161.7100  206.6110  150.6010 N   0  0  0  0  0  0  0  0  0  0  0  0
  159.4960  214.4530  151.4880 C   0  0  0  0  0  2  0  0  0  0  0  0
  159.7070  213.0670  152.0450 C   0  0  0  0  0  0  0  0  0  0  0  0
  158.2480  213.5230  153.9800 N   0  0  0  0  0  0  0  0  0  0  0  0
  160.2010  209.1060  153.5140 O   0  0  0  0  0  0  0  0  0  0  0  0
  158.8850  209.7080  155.7330 O   0  0  0  0  0  1  0  0  0  0  0  0
  155.2370  213.7570  154.6800 C   0  0  0  0  0  1  0  0  0  0  0  0
  159.4320  211.3300  153.8790 C   0  0  0  0  0  0  0  0  0  0  0  0
  157.5780  213.0830  155.0030 C   0  0  0  0  0  0  0  0  0  0  0  0
  162.0590  206.1150  149.2800 C   0  0  0  0  0  2  0  0  0  0  0  0
  160.8570  205.4500  148.6340 C   0  0  0  0  0  3  0  0  0  0  0  0
  161.2090  204.0240  148.2700 C   0  0  0  0  0  1  0  0  0  0  0  0
  160.4560  206.2000  147.3780 C   0  0  0  0  0  1  0  0  0  0  0  0
  1 16  1  0  0  0  0
  2 24  1  0  0  0  0
  2 27  2  0  0  0  0
  3 11  1  0  0  0  0
  3  4  1  0  0  0  0
  4 21  1  0  0  0  0
  5  6  2  0  0  0  0
  5 25  1  0  0  0  0
  6 18  1  0  0  0  0
  7 24  1  0  0  0  0
  7 19  1  1  0  0  0
  8 17  1  0  0  0  0
  8 12  1  0  0  0  0
  9 26  1  6  0  0  0
  9 15  1  0  0  0  0
 11 13  1  0  0  0  0
 12  2  1  0  0  0  0
 13 12  1  0  0  0  0
 13 22  2  0  0  0  0
 14 22  1  6  0  0  0
 14 27  1  0  0  0  0
 14 23  1  0  0  0  0
 16 19  1  0  0  0  0
 17 10  1  6  0  0  0
 17  7  1  0  0  0  0
 18 15  2  0  0  0  0
 20 10  1  0  0  0  0
 20  1  1  0  0  0  0
 21 22  1  0  0  0  0
 23 28  2  0  0  0  0
 27  5  1  0  0  0  0
 28  6  1  0  0  0  0
 28  9  1  0  0  0  0
 29 20  1  0  0  0  0
 30 29  1  0  0  0  0
 31 30  1  0  0  0  0
 32 30  1  0  0  0  0
M  END
>  <MODEL>
6

>  <REMARK>
 VINA RESULT:      -6.9      2.678      4.462
  Name = 
  2 active torsions:
  status: ('A' for Active; 'I' for Inactive)
    1  A    between atoms: N_20  and  C_29
    2  A    between atoms: C_29  and  C_30
                            x       y       z     vdW  Elec       q    Type
                         _______ _______ _______ _____ _____    ______ ____

>  <TORSDO>
F 2

$$$$
=
 OpenBabel11122413003D

 32 37  0  0  1  0  0  0  0  0999 V2000
  161.3890  204.5330  150.7850 C   0  0  0  0  0  2  0  0  0  0  0  0
  160.7560  209.9100  151.7190 C   0  0  0  0  0  0  0  0  0  0  0  0
  161.7770  212.7580  147.7190 C   0  0  0  0  0  2  0  0  0  0  0  0
  160.7170  213.5400  148.2080 O   0  0  0  0  0  0  0  0  0  0  0  0
  159.6610  210.9630  153.6920 C   0  0  0  0  0  0  0  0  0  0  0  0
  159.0510  212.0730  154.1040 C   0  0  0  0  0  0  0  0  0  0  0  0
  160.9310  207.4470  151.6020 C   0  0  1  0  0  3  0  0  0  0  0  0
  161.7520  208.8110  149.6880 C   0  0  0  0  0  2  0  0  0  0  0  0
  158.0570  214.2330  153.9030 C   0  0  2  0  0  3  0  0  0  0  0  0
  162.4770  206.4470  149.8010 C   0  0  0  0  0  2  0  0  0  0  0  0
  161.6150  211.3180  148.2110 C   0  0  0  0  0  2  0  0  0  0  0  0
  161.3410  210.0230  150.4030 N   0  0  0  0  0  0  0  0  0  0  0  0
  161.3010  211.2770  149.6900 C   0  0  0  0  0  0  0  0  0  0  0  0
  160.6790  212.3920  151.8060 C   0  0  1  0  0  3  0  0  0  0  0  0
  157.6030  213.5300  155.2060 C   0  0  0  0  0  3  0  0  0  0  0  0
  161.8900  205.0920  152.1270 C   0  0  0  0  0  2  0  0  0  0  0  0
  162.1180  207.6790  150.6420 C   0  0  2  0  0  3  0  0  0  0  0  0
  158.2140  212.1980  155.2340 N   0  0  0  0  0  0  0  0  0  0  0  0
  161.1130  206.3150  152.6230 C   0  0  0  0  0  2  0  0  0  0  0  0
  161.3430  205.5280  149.7040 N   0  0  0  0  0  0  0  0  0  0  0  0
  160.9590  213.7150  149.5830 C   0  0  0  0  0  2  0  0  0  0  0  0
  160.8960  212.3980  150.3180 C   0  0  0  0  0  0  0  0  0  0  0  0
  159.6990  213.4120  152.2200 N   0  0  0  0  0  0  0  0  0  0  0  0
  160.6050  208.6460  152.2970 O   0  0  0  0  0  0  0  0  0  0  0  0
  159.5960  209.8030  154.4570 O   0  0  0  0  0  1  0  0  0  0  0  0
  156.8630  214.4050  152.9840 C   0  0  0  0  0  1  0  0  0  0  0  0
  160.3650  211.0130  152.3800 C   0  0  0  0  0  0  0  0  0  0  0  0
  159.0160  213.2660  153.3160 C   0  0  0  0  0  0  0  0  0  0  0  0
  161.4900  204.8040  148.4520 C   0  0  0  0  0  2  0  0  0  0  0  0
  161.8750  205.7600  147.3360 C   0  0  0  0  0  3  0  0  0  0  0  0
  160.6290  206.1820  146.5880 C   0  0  0  0  0  1  0  0  0  0  0  0
  162.8280  205.0800  146.3720 C   0  0  0  0  0  1  0  0  0  0  0  0
  1 16  1  0  0  0  0
  2 24  1  0  0  0  0
  2 27  2  0  0  0  0
  3  4  1  0  0  0  0
  3 11  1  0  0  0  0
  4 21  1  0  0  0  0
  5  6  2  0  0  0  0
  5 25  1  0  0  0  0
  6 18  1  0  0  0  0
  7 24  1  0  0  0  0
  7 19  1  1  0  0  0
  8 12  1  0  0  0  0
  9 26  1  6  0  0  0
  9 15  1  0  0  0  0
 10 17  1  0  0  0  0
 11 13  1  0  0  0  0
 12  2  1  0  0  0  0
 13 22  2  0  0  0  0
 13 12  1  0  0  0  0
 14 22  1  6  0  0  0
 14 23  1  0  0  0  0
 14 27  1  0  0  0  0
 15 18  2  0  0  0  0
 16 19  1  0  0  0  0
 17  8  1  6  0  0  0
 17  7  1  0  0  0  0
 20 10  1  0  0  0  0
 20  1  1  0  0  0  0
 21 22  1  0  0  0  0
 23 28  2  0  0  0  0
 27  5  1  0  0  0  0
 28  9  1  0  0  0  0
 28  6  1  0  0  0  0
 29 20  1  0  0  0  0
 30 29  1  0  0  0  0
 31 30  1  0  0  0  0
 32 30  1  0  0  0  0
M  END
>  <MODEL>
7

>  <REMARK>
 VINA RESULT:      -6.2      2.461      3.577
  Name = 
  2 active torsions:
  status: ('A' for Active; 'I' for Inactive)
    1  A    between atoms: N_20  and  C_29
    2  A    between atoms: C_29  and  C_30
                            x       y       z     vdW  Elec       q    Type
                         _______ _______ _______ _____ _____    ______ ____

>  <TORSDO>
F 2

$$$$
=
 OpenBabel11122413003D

 32 37  0  0  1  0  0  0  0  0999 V2000
  160.8240  213.4310  148.1830 C   0  0  0  0  0  2  0  0  0  0  0  0
  161.6320  208.2650  149.8710 C   0  0  0  0  0  0  0  0  0  0  0  0
  160.9900  207.6610  154.8080 C   0  0  0  0  0  2  0  0  0  0  0  0
  160.4560  206.4200  154.4230 O   0  0  0  0  0  0  0  0  0  0  0  0
  161.8480  206.2420  148.4340 C   0  0  0  0  0  0  0  0  0  0  0  0
  161.7140  204.9170  148.4350 C   0  0  0  0  0  0  0  0  0  0  0  0
  161.3180  210.4760  148.8110 C   0  0  1  0  0  3  0  0  0  0  0  0
  161.2940  210.3110  151.2930 C   0  0  0  0  0  2  0  0  0  0  0  0
  161.1230  202.7740  149.3000 C   0  0  2  0  0  3  0  0  0  0  0  0
  161.5790  212.5600  150.3010 C   0  0  0  0  0  2  0  0  0  0  0  0
  160.8580  208.6530  153.6500 C   0  0  0  0  0  2  0  0  0  0  0  0
  161.4970  208.8640  151.1780 N   0  0  0  0  0  0  0  0  0  0  0  0
  161.3170  208.0360  152.3460 C   0  0  0  0  0  0  0  0  0  0  0  0
  162.0170  206.0860  151.0000 C   0  0  1  0  0  3  0  0  0  0  0  0
  161.2650  202.7330  147.7570 C   0  0  0  0  0  3  0  0  0  0  0  0
  162.0080  212.6560  147.5810 C   0  0  0  0  0  2  0  0  0  0  0  0
  161.8930  211.0690  150.1150 C   0  0  2  0  0  3  0  0  0  0  0  0
  161.5810  204.0890  147.3000 N   0  0  0  0  0  0  0  0  0  0  0  0
  161.7920  211.1420  147.5110 C   0  0  0  0  0  2  0  0  0  0  0  0
  160.4130  212.9540  149.5110 N   0  0  0  0  0  0  0  0  0  0  0  0
  161.3730  205.8640  153.5110 C   0  0  0  0  0  2  0  0  0  0  0  0
  161.4670  206.7000  152.2580 C   0  0  0  0  0  0  0  0  0  0  0  0
  161.5550  204.6980  150.8200 N   0  0  0  0  0  0  0  0  0  0  0  0
  161.5810  209.0790  148.7340 O   0  0  0  0  0  0  0  0  0  0  0  0
  161.9810  206.9320  147.2340 O   0  0  0  0  0  1  0  0  0  0  0  0
  159.6770  202.5120  149.6760 C   0  0  0  0  0  1  0  0  0  0  0  0
  161.8080  206.9380  149.7510 C   0  0  0  0  0  0  0  0  0  0  0  0
  161.4910  204.1710  149.6340 C   0  0  0  0  0  0  0  0  0  0  0  0
  159.7990  214.0800  150.1960 C   0  0  0  0  0  2  0  0  0  0  0  0
  158.6300  213.6060  151.0420 C   0  0  0  0  0  3  0  0  0  0  0  0
  157.3400  213.8330  150.2840 C   0  0  0  0  0  1  0  0  0  0  0  0
  158.5830  214.3780  152.3470 C   0  0  0  0  0  1  0  0  0  0  0  0
  1 20  1  0  0  0  0
  2 12  1  0  0  0  0
  4  3  1  0  0  0  0
  5  6  2  0  0  0  0
  5 27  1  0  0  0  0
  6 28  1  0  0  0  0
  7 19  1  6  0  0  0
  7 17  1  0  0  0  0
  9 28  1  0  0  0  0
  9 26  1  6  0  0  0
 11  3  1  0  0  0  0
 12  8  1  0  0  0  0
 12 13  1  0  0  0  0
 13 11  1  0  0  0  0
 14 27  1  6  0  0  0
 14 22  1  0  0  0  0
 15  9  1  0  0  0  0
 16  1  1  0  0  0  0
 17 10  1  1  0  0  0
 17  8  1  0  0  0  0
 18 15  2  0  0  0  0
 18  6  1  0  0  0  0
 19 16  1  0  0  0  0
 20 29  1  0  0  0  0
 20 10  1  0  0  0  0
 21  4  1  0  0  0  0
 22 13  2  0  0  0  0
 22 21  1  0  0  0  0
 23 14  1  0  0  0  0
 24  7  1  0  0  0  0
 24  2  1  0  0  0  0
 25  5  1  0  0  0  0
 27  2  2  0  0  0  0
 28 23  2  0  0  0  0
 29 30  1  0  0  0  0
 30 32  1  0  0  0  0
 31 30  1  0  0  0  0
M  END
>  <MODEL>
8

>  <REMARK>
 VINA RESULT:      -6.0      2.422      8.413
  Name = 
  2 active torsions:
  status: ('A' for Active; 'I' for Inactive)
    1  A    between atoms: N_20  and  C_29
    2  A    between atoms: C_29  and  C_30
                            x       y       z     vdW  Elec       q    Type
                         _______ _______ _______ _____ _____    ______ ____

>  <TORSDO>
F 2

$$$$
=
 OpenBabel11122413003D

 32 37  0  0  1  0  0  0  0  0999 V2000
  161.1820  213.1750  146.4560 C   0  0  0  0  0  2  0  0  0  0  0  0
  160.2790  211.9680  151.7390 C   0  0  0  0  0  0  0  0  0  0  0  0
  156.2470  214.2610  153.6440 C   0  0  0  0  0  2  0  0  0  0  0  0
  156.0970  213.0570  154.3520 O   0  0  0  0  0  0  0  0  0  0  0  0
  161.3690  210.1630  153.0640 C   0  0  0  0  0  0  0  0  0  0  0  0
  161.2130  209.3870  154.1360 C   0  0  0  0  0  0  0  0  0  0  0  0
  160.9310  212.2980  149.3780 C   0  0  1  0  0  3  0  0  0  0  0  0
  159.1160  213.7030  150.3400 C   0  0  0  0  0  2  0  0  0  0  0  0
  160.0800  208.4330  156.0060 C   0  0  2  0  0  3  0  0  0  0  0  0
  160.1360  214.4530  148.2120 C   0  0  0  0  0  2  0  0  0  0  0  0
  157.0380  214.0020  152.3590 C   0  0  0  0  0  2  0  0  0  0  0  0
  159.2720  212.9950  151.6130 N   0  0  0  0  0  0  0  0  0  0  0  0
  158.2650  213.1600  152.6340 C   0  0  0  0  0  0  0  0  0  0  0  0
  159.6280  211.7370  154.1260 C   0  0  1  0  0  3  0  0  0  0  0  0
  161.2880  207.5610  155.5820 C   0  0  0  0  0  3  0  0  0  0  0  0
  162.3980  213.1100  147.3950 C   0  0  0  0  0  2  0  0  0  0  0  0
  160.4170  213.7440  149.5450 C   0  0  2  0  0  3  0  0  0  0  0  0
  161.9000  208.1840  154.4050 N   0  0  0  0  0  0  0  0  0  0  0  0
  162.2280  212.1430  148.5700 C   0  0  0  0  0  2  0  0  0  0  0  0
  159.9170  213.4850  147.1380 N   0  0  0  0  0  0  0  0  0  0  0  0
  157.3620  212.7590  154.8920 C   0  0  0  0  0  2  0  0  0  0  0  0
  158.3700  212.4940  153.8010 C   0  0  0  0  0  0  0  0  0  0  0  0
  159.3730  210.6230  155.0560 N   0  0  0  0  0  0  0  0  0  0  0  0
  161.1020  211.6750  150.6460 O   0  0  0  0  0  0  0  0  0  0  0  0
  162.3590  209.8760  152.1310 O   0  0  0  0  0  1  0  0  0  0  0  0
  158.7960  207.6610  155.7650 C   0  0  0  0  0  1  0  0  0  0  0  0
  160.4240  211.3030  152.8980 C   0  0  0  0  0  0  0  0  0  0  0  0
  160.1590  209.5890  155.0810 C   0  0  0  0  0  0  0  0  0  0  0  0
  159.0530  214.1260  146.1610 C   0  0  0  0  0  2  0  0  0  0  0  0
  157.8510  213.2460  145.8660 C   0  0  0  0  0  3  0  0  0  0  0  0
  156.6930  214.1120  145.4210 C   0  0  0  0  0  1  0  0  0  0  0  0
  157.4480  212.4780  147.1110 C   0  0  0  0  0  1  0  0  0  0  0  0
  1 20  1  0  0  0  0
  1 16  1  0  0  0  0
  2 27  2  0  0  0  0
  3  4  1  0  0  0  0
  4 21  1  0  0  0  0
  5  6  2  0  0  0  0
  6 18  1  0  0  0  0
  6 28  1  0  0  0  0
  7 19  1  1  0  0  0
  7 17  1  0  0  0  0
  7 24  1  0  0  0  0
  8 12  1  0  0  0  0
  9 26  1  6  0  0  0
 11 13  1  0  0  0  0
 11  3  1  0  0  0  0
 12  2  1  0  0  0  0
 12 13  1  0  0  0  0
 13 22  2  0  0  0  0
 14 27  1  6  0  0  0
 14 23  1  0  0  0  0
 15  9  1  0  0  0  0
 16 19  1  0  0  0  0
 17 10  1  6  0  0  0
 17  8  1  0  0  0  0
 18 15  2  0  0  0  0
 20 10  1  0  0  0  0
 22 14  1  0  0  0  0
 22 21  1  0  0  0  0
 23 28  2  0  0  0  0
 24  2  1  0  0  0  0
 25  5  1  0  0  0  0
 27  5  1  0  0  0  0
 28  9  1  0  0  0  0
 29 20  1  0  0  0  0
 30 29  1  0  0  0  0
 30 32  1  0  0  0  0
 31 30  1  0  0  0  0
M  END
>  <MODEL>
9

>  <REMARK>
 VINA RESULT:      -5.3      5.431      7.885
  Name = 
  2 active torsions:
  status: ('A' for Active; 'I' for Inactive)
    1  A    between atoms: N_20  and  C_29
    2  A    between atoms: C_29  and  C_30
                            x       y       z     vdW  Elec       q    Type
                         _______ _______ _______ _____ _____    ______ ____

>  <TORSDO>
F 2

$$$$
