=
 OpenBabel11122413263D

 31 35  0  0  1  0  0  0  0  0999 V2000
  160.7790  206.4410  146.3740 C   0  0  1  0  0  3  0  0  0  0  0  0
  160.1480  204.9740  149.9470 C   0  0  2  0  0  3  0  0  0  0  0  0
  160.6970  203.5460  149.8800 C   0  0  0  0  0  0  0  0  0  0  0  0
  161.2220  201.5530  148.5770 C   0  0  0  0  0  0  0  0  0  0  0  0
  160.6150  205.9320  148.8330 C   0  0  2  0  0  3  0  0  0  0  0  0
  162.2810  206.6300  146.5310 C   0  0  0  0  0  2  0  0  0  0  0  0
  160.8060  202.8830  148.6470 C   0  0  0  0  0  3  0  0  0  0  0  0
  161.9270  206.0570  151.3930 C   0  0  2  0  0  3  0  0  0  0  0  0
  160.4810  205.9030  144.9900 C   0  0  0  0  0  1  0  0  0  0  0  0
  160.8790  203.4360  152.4270 C   0  0  0  0  0  2  0  0  0  0  0  0
  161.3690  200.7640  147.0220 Cl  0  0  0  0  0  0  0  0  0  0  0  0
  162.2780  206.9630  150.2980 N   0  0  0  0  0  2  0  0  0  0  0  0
  160.4430  205.6420  151.3010 C   0  0  2  0  0  3  0  0  0  0  0  0
  160.2670  205.4590  147.4180 C   0  0  0  0  0  2  0  0  0  0  0  0
  161.5120  200.8510  149.7470 C   0  0  0  0  0  3  0  0  0  0  0  0
  162.1020  206.2850  149.0150 C   0  0  2  0  0  3  0  0  0  0  0  0
  162.5800  207.2180  147.9050 C   0  0  0  0  0  2  0  0  0  0  0  0
  160.0350  204.7060  152.4380 C   0  0  0  0  0  2  0  0  0  0  0  0
  160.9570  202.8100  151.0650 C   0  0  0  0  0  0  0  0  0  0  0  0
  161.3820  201.4800  150.9850 C   0  0  0  0  0  3  0  0  0  0  0  0
  160.5500  208.3580  152.3590 O   0  0  0  0  0  0  0  0  0  0  0  0
  161.4490  207.8640  153.0930 C   0  0  0  0  0  0  0  0  0  0  0  0
  162.1830  206.7160  152.6650 N   0  0  0  0  0  2  0  0  0  0  0  0
  159.7340  210.0380  155.8420 N   0  0  0  0  0  0  0  0  0  0  0  0
  160.8840  207.8990  155.5330 C   0  0  0  0  0  2  0  0  0  0  0  0
  162.6210  210.6500  154.0230 O   0  0  0  0  0  0  0  0  0  0  0  0
  158.4160  210.6290  155.9750 C   0  0  0  0  0  1  0  0  0  0  0  0
  159.5310  208.6100  155.6010 C   0  0  0  0  0  2  0  0  0  0  0  0
  161.6630  209.9780  154.3650 C   0  0  0  0  0  0  0  0  0  0  0  0
  161.7670  208.4780  154.4200 C   0  0  2  0  0  3  0  0  0  0  0  0
  160.3440  210.6340  154.6550 C   0  0  0  0  0  2  0  0  0  0  0  0
  1  9  1  6  0  0  0
  1  6  1  0  0  0  0
  1 14  1  0  0  0  0
  2  3  1  1  0  0  0
  2 13  1  0  0  0  0
  3 19  1  0  0  0  0
  4  7  1  0  0  0  0
  4 15  2  0  0  0  0
  5 14  1  6  0  0  0
  5 16  1  0  0  0  0
  5  2  1  0  0  0  0
  6 17  1  0  0  0  0
  7  3  2  0  0  0  0
  8 23  1  1  0  0  0
 10 18  1  0  0  0  0
 11  4  1  0  0  0  0
 12  8  1  0  0  0  0
 13  8  1  0  0  0  0
 13 18  1  1  0  0  0
 15 20  1  0  0  0  0
 16 17  1  6  0  0  0
 16 12  1  0  0  0  0
 19 10  1  0  0  0  0
 20 19  2  0  0  0  0
 21 22  2  0  0  0  0
 23 22  1  0  0  0  0
 24 27  1  0  0  0  0
 25 28  1  0  0  0  0
 26 29  2  0  0  0  0
 28 24  1  0  0  0  0
 29 30  1  0  0  0  0
 29 31  1  0  0  0  0
 30 22  1  6  0  0  0
 30 25  1  0  0  0  0
 31 24  1  0  0  0  0
M  END
>  <MODEL>
1

>  <REMARK>
 VINA RESULT:      -7.4      0.000      0.000
  Name = 
  2 active torsions:
  status: ('A' for Active; 'I' for Inactive)
    1  A    between atoms: C_5  and  C_30
    2  A    between atoms: C_10  and  N_16
                            x       y       z     vdW  Elec       q    Type
                         _______ _______ _______ _____ _____    ______ ____

>  <TORSDO>
F 2

$$$$
=
 OpenBabel11122413263D

 31 35  0  0  1  0  0  0  0  0999 V2000
  160.9560  204.1630  145.4750 C   0  0  1  0  0  3  0  0  0  0  0  0
  160.3960  205.9300  148.9220 C   0  0  2  0  0  3  0  0  0  0  0  0
  160.8720  204.9100  149.9610 C   0  0  0  0  0  0  0  0  0  0  0  0
  161.2490  202.5910  150.6120 C   0  0  0  0  0  0  0  0  0  0  0  0
  160.8650  205.6910  147.4730 C   0  0  2  0  0  3  0  0  0  0  0  0
  162.4710  204.3130  145.4530 C   0  0  0  0  0  2  0  0  0  0  0  0
  160.9010  203.5410  149.6510 C   0  0  0  0  0  3  0  0  0  0  0  0
  162.2810  207.6190  149.0750 C   0  0  2  0  0  3  0  0  0  0  0  0
  160.5780  202.7870  144.9680 C   0  0  0  0  0  1  0  0  0  0  0  0
  161.1490  206.7440  151.7190 C   0  0  0  0  0  2  0  0  0  0  0  0
  161.2960  200.8950  150.1870 Cl  0  0  0  0  0  0  0  0  0  0  0  0
  162.6320  207.3670  147.6760 N   0  0  0  0  0  2  0  0  0  0  0  0
  160.7770  207.3690  149.3120 C   0  0  2  0  0  3  0  0  0  0  0  0
  160.4380  204.3370  146.8970 C   0  0  0  0  0  2  0  0  0  0  0  0
  161.5510  202.9940  151.9120 C   0  0  0  0  0  3  0  0  0  0  0  0
  162.3730  205.9680  147.3430 C   0  0  2  0  0  3  0  0  0  0  0  0
  162.8520  205.7140  145.9150 C   0  0  0  0  0  2  0  0  0  0  0  0
  160.3680  207.6370  150.7600 C   0  0  0  0  0  2  0  0  0  0  0  0
  161.1420  205.3040  151.2960 C   0  0  0  0  0  0  0  0  0  0  0  0
  161.4990  204.3460  152.2510 C   0  0  0  0  0  3  0  0  0  0  0  0
  161.2560  209.9370  147.7710 O   0  0  0  0  0  0  0  0  0  0  0  0
  162.0610  210.1120  148.7270 C   0  0  0  0  0  0  0  0  0  0  0  0
  162.6180  208.9940  149.4170 N   0  0  0  0  0  2  0  0  0  0  0  0
  161.2350  213.8230  147.8460 N   0  0  0  0  0  0  0  0  0  0  0  0
  161.2610  212.2620  149.7330 C   0  0  0  0  0  2  0  0  0  0  0  0
  164.2800  212.1660  147.7980 O   0  0  0  0  0  0  0  0  0  0  0  0
  160.3510  214.4520  146.8830 C   0  0  0  0  0  1  0  0  0  0  0  0
  160.4120  212.9050  148.6330 C   0  0  0  0  0  2  0  0  0  0  0  0
  163.0810  212.2510  148.0070 C   0  0  0  0  0  0  0  0  0  0  0  0
  162.4530  211.4950  149.1450 C   0  0  2  0  0  3  0  0  0  0  0  0
  162.2070  213.0450  147.0800 C   0  0  0  0  0  2  0  0  0  0  0  0
  1  9  1  1  0  0  0
  1 14  1  0  0  0  0
  2 13  1  0  0  0  0
  2  3  1  1  0  0  0
  3 19  1  0  0  0  0
  4 15  2  0  0  0  0
  5 14  1  1  0  0  0
  5  2  1  0  0  0  0
  6  1  1  0  0  0  0
  6 17  1  0  0  0  0
  7  3  2  0  0  0  0
  7  4  1  0  0  0  0
  8 13  1  0  0  0  0
  8 23  1  6  0  0  0
 11  4  1  0  0  0  0
 12  8  1  0  0  0  0
 13 18  1  1  0  0  0
 15 20  1  0  0  0  0
 16 17  1  6  0  0  0
 16  5  1  0  0  0  0
 16 12  1  0  0  0  0
 18 10  1  0  0  0  0
 19 10  1  0  0  0  0
 19 20  2  0  0  0  0
 21 22  2  0  0  0  0
 22 23  1  0  0  0  0
 24 28  1  0  0  0  0
 26 29  2  0  0  0  0
 27 24  1  0  0  0  0
 28 25  1  0  0  0  0
 29 30  1  0  0  0  0
 30 22  1  6  0  0  0
 30 25  1  0  0  0  0
 31 24  1  0  0  0  0
 31 29  1  0  0  0  0
M  END
>  <MODEL>
2

>  <REMARK>
 VINA RESULT:      -7.4      3.565      4.712
  Name = 
  2 active torsions:
  status: ('A' for Active; 'I' for Inactive)
    1  A    between atoms: C_5  and  C_30
    2  A    between atoms: C_10  and  N_16
                            x       y       z     vdW  Elec       q    Type
                         _______ _______ _______ _____ _____    ______ ____

>  <TORSDO>
F 2

$$$$
=
 OpenBabel11122413263D

 31 35  0  0  1  0  0  0  0  0999 V2000
  160.8050  206.2030  146.3370 C   0  0  1  0  0  3  0  0  0  0  0  0
  160.2980  205.8730  150.2040 C   0  0  2  0  0  3  0  0  0  0  0  0
  160.8610  204.4910  150.5510 C   0  0  0  0  0  0  0  0  0  0  0  0
  161.3690  202.2010  149.8880 C   0  0  0  0  0  0  0  0  0  0  0  0
  160.7210  206.4540  148.8400 C   0  0  2  0  0  3  0  0  0  0  0  0
  162.3090  206.4330  146.3830 C   0  0  0  0  0  2  0  0  0  0  0  0
  160.9400  203.4900  149.5700 C   0  0  0  0  0  3  0  0  0  0  0  0
  162.1080  207.3420  151.2020 C   0  0  2  0  0  3  0  0  0  0  0  0
  160.4710  205.2750  145.1890 C   0  0  0  0  0  1  0  0  0  0  0  0
  161.1210  205.1500  153.0060 C   0  0  0  0  0  2  0  0  0  0  0  0
  161.4780  200.9830  148.6370 Cl  0  0  0  0  0  0  0  0  0  0  0  0
  162.4160  207.8800  149.8750 N   0  0  0  0  0  2  0  0  0  0  0  0
  160.6270  206.9170  151.2860 C   0  0  2  0  0  3  0  0  0  0  0  0
  160.3350  205.5780  147.6440 C   0  0  0  0  0  2  0  0  0  0  0  0
  161.7020  201.8820  151.2040 C   0  0  0  0  0  3  0  0  0  0  0  0
  162.2090  206.8480  148.8610 C   0  0  2  0  0  3  0  0  0  0  0  0
  162.6430  207.4060  147.5070 C   0  0  0  0  0  2  0  0  0  0  0  0
  160.2640  206.3640  152.6640 C   0  0  0  0  0  2  0  0  0  0  0  0
  161.1640  204.1450  151.8930 C   0  0  0  0  0  0  0  0  0  0  0  0
  161.6020  202.8530  152.2010 C   0  0  0  0  0  3  0  0  0  0  0  0
  160.4600  209.5920  151.7910 O   0  0  0  0  0  0  0  0  0  0  0  0
  161.5210  209.4530  152.4600 C   0  0  0  0  0  0  0  0  0  0  0  0
  162.3950  208.3530  152.2100 N   0  0  0  0  0  2  0  0  0  0  0  0
  160.6720  210.2590  156.1820 N   0  0  0  0  0  0  0  0  0  0  0  0
  162.5680  209.7660  154.7140 C   0  0  0  0  0  2  0  0  0  0  0  0
  160.3660  212.2550  153.3640 O   0  0  0  0  0  0  0  0  0  0  0  0
  159.7850  209.6590  157.1610 C   0  0  0  0  0  1  0  0  0  0  0  0
  161.5430  209.1910  155.6940 C   0  0  0  0  0  2  0  0  0  0  0  0
  160.6830  211.2380  153.9580 C   0  0  0  0  0  0  0  0  0  0  0  0
  161.8830  210.4460  153.5200 C   0  0  2  0  0  3  0  0  0  0  0  0
  159.8300  210.7220  155.0810 C   0  0  0  0  0  2  0  0  0  0  0  0
  1  9  1  6  0  0  0
  1  6  1  0  0  0  0
  1 14  1  0  0  0  0
  2  3  1  1  0  0  0
  2 13  1  0  0  0  0
  3 19  1  0  0  0  0
  4 15  2  0  0  0  0
  5 14  1  6  0  0  0
  5 16  1  0  0  0  0
  5  2  1  0  0  0  0
  6 17  1  0  0  0  0
  7  4  1  0  0  0  0
  7  3  2  0  0  0  0
  8 13  1  0  0  0  0
  8 23  1  1  0  0  0
 11  4  1  0  0  0  0
 12  8  1  0  0  0  0
 13 18  1  1  0  0  0
 15 20  1  0  0  0  0
 16 17  1  6  0  0  0
 16 12  1  0  0  0  0
 18 10  1  0  0  0  0
 19 20  2  0  0  0  0
 19 10  1  0  0  0  0
 21 22  2  0  0  0  0
 23 22  1  0  0  0  0
 24 27  1  0  0  0  0
 25 28  1  0  0  0  0
 26 29  2  0  0  0  0
 28 24  1  0  0  0  0
 29 31  1  0  0  0  0
 30 22  1  6  0  0  0
 30 29  1  0  0  0  0
 30 25  1  0  0  0  0
 31 24  1  0  0  0  0
M  END
>  <MODEL>
3

>  <REMARK>
 VINA RESULT:      -6.6      1.242      1.501
  Name = 
  2 active torsions:
  status: ('A' for Active; 'I' for Inactive)
    1  A    between atoms: C_5  and  C_30
    2  A    between atoms: C_10  and  N_16
                            x       y       z     vdW  Elec       q    Type
                         _______ _______ _______ _____ _____    ______ ____

>  <TORSDO>
F 2

$$$$
=
 OpenBabel11122413263D

 31 35  0  0  1  0  0  0  0  0999 V2000
  160.9070  208.0170  156.4410 C   0  0  1  0  0  3  0  0  0  0  0  0
  161.9670  208.9600  152.7930 C   0  0  2  0  0  3  0  0  0  0  0  0
  161.5060  207.7750  151.9380 C   0  0  0  0  0  0  0  0  0  0  0  0
  160.9880  205.4010  151.7400 C   0  0  0  0  0  0  0  0  0  0  0  0
  161.3360  209.0700  154.1950 C   0  0  2  0  0  3  0  0  0  0  0  0
  159.4180  208.2710  156.2550 C   0  0  0  0  0  2  0  0  0  0  0  0
  161.3230  206.5100  152.5180 C   0  0  0  0  0  3  0  0  0  0  0  0
  160.2690  210.7000  152.0760 C   0  0  2  0  0  3  0  0  0  0  0  0
  161.1060  206.7600  157.2610 C   0  0  0  0  0  1  0  0  0  0  0  0
  161.5750  209.2030  149.8200 C   0  0  0  0  0  2  0  0  0  0  0  0
  160.7440  203.8430  152.4970 Cl  0  0  0  0  0  0  0  0  0  0  0  0
  159.7580  210.7800  153.4460 N   0  0  0  0  0  2  0  0  0  0  0  0
  161.7600  210.3040  152.0730 C   0  0  2  0  0  3  0  0  0  0  0  0
  161.5780  207.8460  155.0840 C   0  0  0  0  0  2  0  0  0  0  0  0
  160.8550  205.5350  150.3580 C   0  0  0  0  0  3  0  0  0  0  0  0
  159.8540  209.4700  154.0880 C   0  0  2  0  0  3  0  0  0  0  0  0
  159.2140  209.5620  155.4720 C   0  0  0  0  0  2  0  0  0  0  0  0
  162.3330  210.2260  150.6580 C   0  0  0  0  0  2  0  0  0  0  0  0
  161.4080  207.8910  150.5280 C   0  0  0  0  0  0  0  0  0  0  0  0
  161.0630  206.7760  149.7560 C   0  0  0  0  0  3  0  0  0  0  0  0
  157.9730  212.3720  152.3250 O   0  0  0  0  0  0  0  0  0  0  0  0
  158.9190  212.7810  151.5950 C   0  0  0  0  0  0  0  0  0  0  0  0
  160.0930  211.9890  151.4210 N   0  0  0  0  0  2  0  0  0  0  0  0
  157.7650  214.2350  148.1620 N   0  0  0  0  0  0  0  0  0  0  0  0
  157.3620  214.4530  150.5670 C   0  0  0  0  0  2  0  0  0  0  0  0
  160.8500  214.4530  149.7300 O   0  0  0  0  0  0  0  0  0  0  0  0
  157.2280  213.6420  146.9520 C   0  0  0  0  0  1  0  0  0  0  0  0
  156.9060  213.7970  149.2620 C   0  0  0  0  0  2  0  0  0  0  0  0
  159.6770  214.1260  149.6590 C   0  0  0  0  0  0  0  0  0  0  0  0
  158.8190  214.1000  150.8940 C   0  0  2  0  0  3  0  0  0  0  0  0
  159.0990  213.6670  148.3520 C   0  0  0  0  0  2  0  0  0  0  0  0
  1  9  1  1  0  0  0
  2  3  1  6  0  0  0
  2  5  1  0  0  0  0
  3  7  1  0  0  0  0
  4 11  1  0  0  0  0
  4  7  2  0  0  0  0
  5 14  1  6  0  0  0
  6  1  1  0  0  0  0
  8 23  1  1  0  0  0
  8 12  1  0  0  0  0
 10 19  1  0  0  0  0
 10 18  1  0  0  0  0
 12 16  1  0  0  0  0
 13 18  1  6  0  0  0
 13  8  1  0  0  0  0
 13  2  1  0  0  0  0
 14  1  1  0  0  0  0
 15  4  1  0  0  0  0
 16  5  1  0  0  0  0
 16 17  1  1  0  0  0
 17  6  1  0  0  0  0
 19  3  2  0  0  0  0
 20 15  2  0  0  0  0
 20 19  1  0  0  0  0
 22 21  2  0  0  0  0
 23 22  1  0  0  0  0
 24 31  1  0  0  0  0
 24 28  1  0  0  0  0
 25 30  1  0  0  0  0
 27 24  1  0  0  0  0
 28 25  1  0  0  0  0
 29 26  2  0  0  0  0
 29 30  1  0  0  0  0
 30 22  1  6  0  0  0
 31 29  1  0  0  0  0
M  END
>  <MODEL>
4

>  <REMARK>
 VINA RESULT:      -6.2      4.212      7.095
  Name = 
  2 active torsions:
  status: ('A' for Active; 'I' for Inactive)
    1  A    between atoms: C_5  and  C_30
    2  A    between atoms: C_10  and  N_16
                            x       y       z     vdW  Elec       q    Type
                         _______ _______ _______ _____ _____    ______ ____

>  <TORSDO>
F 2

$$$$
=
 OpenBabel11122413263D

 31 35  0  0  1  0  0  0  0  0999 V2000
  162.3190  213.6850  147.9990 C   0  0  1  0  0  3  0  0  0  0  0  0
  159.5340  214.4310  150.6460 C   0  0  2  0  0  3  0  0  0  0  0  0
  158.2180  214.2420  149.8850 C   0  0  0  0  0  0  0  0  0  0  0  0
  156.9770  214.2840  147.7870 C   0  0  0  0  0  0  0  0  0  0  0  0
  160.7880  213.8170  149.9930 C   0  0  2  0  0  3  0  0  0  0  0  0
  162.1340  212.1750  147.9790 C   0  0  0  0  0  2  0  0  0  0  0  0
  158.1810  214.3670  148.4880 C   0  0  0  0  0  3  0  0  0  0  0  0
  159.4900  212.3610  152.1100 C   0  0  2  0  0  3  0  0  0  0  0  0
  162.5340  214.1860  146.5870 C   0  0  0  0  0  1  0  0  0  0  0  0
  156.9310  213.9380  152.0720 C   0  0  0  0  0  2  0  0  0  0  0  0
  156.9690  214.4230  146.0430 Cl  0  0  0  0  0  0  0  0  0  0  0  0
  160.7130  211.8710  151.4710 N   0  0  0  0  0  2  0  0  0  0  0  0
  159.4450  213.9040  152.0890 C   0  0  2  0  0  3  0  0  0  0  0  0
  161.0830  214.3530  148.5880 C   0  0  0  0  0  2  0  0  0  0  0  0
  155.7800  214.0990  148.4790 C   0  0  0  0  0  3  0  0  0  0  0  0
  160.7370  212.2800  150.0670 C   0  0  2  0  0  3  0  0  0  0  0  0
  161.9660  211.6620  149.4050 C   0  0  0  0  0  2  0  0  0  0  0  0
  158.1890  214.4530  152.7640 C   0  0  0  0  0  2  0  0  0  0  0  0
  156.9910  214.0930  150.5810 C   0  0  0  0  0  0  0  0  0  0  0  0
  155.7890  214.0020  149.8710 C   0  0  0  0  0  3  0  0  0  0  0  0
  159.8250  209.6470  152.9140 O   0  0  0  0  0  0  0  0  0  0  0  0
  159.6240  210.5040  153.8190 C   0  0  0  0  0  0  0  0  0  0  0  0
  159.4390  211.8790  153.4840 N   0  0  0  0  0  2  0  0  0  0  0  0
  161.9340  210.3630  156.9600 N   0  0  0  0  0  0  0  0  0  0  0  0
  159.7990  211.2830  156.1930 C   0  0  0  0  0  2  0  0  0  0  0  0
  160.1990  207.8130  155.3770 O   0  0  0  0  0  0  0  0  0  0  0  0
  163.3210  210.7140  157.2010 C   0  0  0  0  0  1  0  0  0  0  0  0
  161.2920  211.5490  156.3970 C   0  0  0  0  0  2  0  0  0  0  0  0
  160.5320  208.9740  155.5410 C   0  0  0  0  0  0  0  0  0  0  0  0
  159.5650  210.0900  155.2560 C   0  0  2  0  0  3  0  0  0  0  0  0
  161.9380  209.3060  155.9500 C   0  0  0  0  0  2  0  0  0  0  0  0
  1  9  1  6  0  0  0
  1 14  1  0  0  0  0
  2  3  1  6  0  0  0
  2 13  1  0  0  0  0
  3 19  1  0  0  0  0
  4 15  2  0  0  0  0
  4  7  1  0  0  0  0
  5 14  1  6  0  0  0
  5 16  1  0  0  0  0
  5  2  1  0  0  0  0
  6  1  1  0  0  0  0
  6 17  1  0  0  0  0
  7  3  2  0  0  0  0
  8 23  1  1  0  0  0
 10 18  1  0  0  0  0
 11  4  1  0  0  0  0
 12  8  1  0  0  0  0
 13  8  1  0  0  0  0
 13 18  1  6  0  0  0
 15 20  1  0  0  0  0
 16 17  1  1  0  0  0
 16 12  1  0  0  0  0
 19 10  1  0  0  0  0
 20 19  2  0  0  0  0
 21 22  2  0  0  0  0
 23 22  1  0  0  0  0
 24 27  1  0  0  0  0
 25 28  1  0  0  0  0
 26 29  2  0  0  0  0
 28 24  1  0  0  0  0
 29 31  1  0  0  0  0
 30 22  1  6  0  0  0
 30 29  1  0  0  0  0
 30 25  1  0  0  0  0
 31 24  1  0  0  0  0
M  END
>  <MODEL>
5

>  <REMARK>
 VINA RESULT:      -5.1      6.243      8.345
  Name = 
  2 active torsions:
  status: ('A' for Active; 'I' for Inactive)
    1  A    between atoms: C_5  and  C_30
    2  A    between atoms: C_10  and  N_16
                            x       y       z     vdW  Elec       q    Type
                         _______ _______ _______ _____ _____    ______ ____

>  <TORSDO>
F 2

$$$$
=
 OpenBabel11122413263D

 31 35  0  0  1  0  0  0  0  0999 V2000
  160.8590  209.6550  155.0100 C   0  0  1  0  0  3  0  0  0  0  0  0
  162.2550  209.9830  151.3680 C   0  0  2  0  0  3  0  0  0  0  0  0
  161.7780  208.7130  150.6560 C   0  0  0  0  0  0  0  0  0  0  0  0
  161.1100  206.3710  150.7560 C   0  0  0  0  0  0  0  0  0  0  0  0
  161.5290  210.3370  152.6820 C   0  0  2  0  0  3  0  0  0  0  0  0
  159.4090  209.9640  154.6640 C   0  0  0  0  0  2  0  0  0  0  0  0
  161.4630  207.5610  151.3940 C   0  0  0  0  0  3  0  0  0  0  0  0
  160.7410  211.6930  150.2680 C   0  0  2  0  0  3  0  0  0  0  0  0
  160.9070  208.5240  156.0160 C   0  0  0  0  0  1  0  0  0  0  0  0
  162.1060  209.8050  148.3690 C   0  0  0  0  0  2  0  0  0  0  0  0
  160.7010  204.9590  151.7050 Cl  0  0  0  0  0  0  0  0  0  0  0  0
  160.1350  212.0050  151.5640 N   0  0  0  0  0  2  0  0  0  0  0  0
  162.1970  211.2150  150.4490 C   0  0  2  0  0  3  0  0  0  0  0  0
  161.6170  209.2450  153.7540 C   0  0  0  0  0  2  0  0  0  0  0  0
  161.0920  206.3050  149.3630 C   0  0  0  0  0  3  0  0  0  0  0  0
  160.0900  210.8020  152.3940 C   0  0  2  0  0  3  0  0  0  0  0  0
  159.3560  211.1350  153.6910 C   0  0  0  0  0  2  0  0  0  0  0  0
  162.8690  210.8950  149.1140 C   0  0  0  0  0  2  0  0  0  0  0  0
  161.7940  208.6240  149.2410 C   0  0  0  0  0  0  0  0  0  0  0  0
  161.4310  207.4300  148.6100 C   0  0  0  0  0  3  0  0  0  0  0  0
  159.8500  211.7580  147.5610 O   0  0  0  0  0  0  0  0  0  0  0  0
  160.2400  212.8430  148.0750 C   0  0  0  0  0  0  0  0  0  0  0  0
  160.7060  212.8790  149.4230 N   0  0  0  0  0  2  0  0  0  0  0  0
  159.4450  214.0520  144.4510 N   0  0  0  0  0  0  0  0  0  0  0  0
  158.8130  214.4470  146.7830 C   0  0  0  0  0  2  0  0  0  0  0  0
  162.3660  214.3620  146.2930 O   0  0  0  0  0  0  0  0  0  0  0  0
  159.0190  213.3770  143.2390 C   0  0  0  0  0  1  0  0  0  0  0  0
  158.4770  213.7010  145.4890 C   0  0  0  0  0  2  0  0  0  0  0  0
  161.2010  214.0390  146.1310 C   0  0  0  0  0  0  0  0  0  0  0  0
  160.2270  214.1080  147.2750 C   0  0  2  0  0  3  0  0  0  0  0  0
  160.7450  213.4900  144.8100 C   0  0  0  0  0  2  0  0  0  0  0  0
  1  9  1  1  0  0  0
  2  3  1  6  0  0  0
  2  5  1  0  0  0  0
  3  7  1  0  0  0  0
  4  7  2  0  0  0  0
  4 11  1  0  0  0  0
  5 14  1  1  0  0  0
  6  1  1  0  0  0  0
  8 23  1  6  0  0  0
  8 13  1  0  0  0  0
  8 12  1  0  0  0  0
 10 18  1  0  0  0  0
 10 19  1  0  0  0  0
 12 16  1  0  0  0  0
 13 18  1  6  0  0  0
 13  2  1  0  0  0  0
 14  1  1  0  0  0  0
 15  4  1  0  0  0  0
 16  5  1  0  0  0  0
 16 17  1  1  0  0  0
 17  6  1  0  0  0  0
 19  3  2  0  0  0  0
 20 19  1  0  0  0  0
 20 15  2  0  0  0  0
 21 22  2  0  0  0  0
 22 23  1  0  0  0  0
 24 31  1  0  0  0  0
 24 28  1  0  0  0  0
 25 30  1  0  0  0  0
 27 24  1  0  0  0  0
 28 25  1  0  0  0  0
 29 26  2  0  0  0  0
 29 30  1  0  0  0  0
 30 22  1  6  0  0  0
 31 29  1  0  0  0  0
M  END
>  <MODEL>
6

>  <REMARK>
 VINA RESULT:      -4.9      5.026      8.080
  Name = 
  2 active torsions:
  status: ('A' for Active; 'I' for Inactive)
    1  A    between atoms: C_5  and  C_30
    2  A    between atoms: C_10  and  N_16
                            x       y       z     vdW  Elec       q    Type
                         _______ _______ _______ _____ _____    ______ ____

>  <TORSDO>
F 2

$$$$
=
 OpenBabel11122413263D

 31 35  0  0  1  0  0  0  0  0999 V2000
  162.4060  213.7530  147.5590 C   0  0  1  0  0  3  0  0  0  0  0  0
  159.6530  214.4530  150.2510 C   0  0  2  0  0  3  0  0  0  0  0  0
  158.3280  214.2460  149.5120 C   0  0  0  0  0  0  0  0  0  0  0  0
  157.0520  214.2720  147.4350 C   0  0  0  0  0  0  0  0  0  0  0  0
  160.9060  213.8590  149.5770 C   0  0  2  0  0  3  0  0  0  0  0  0
  162.2430  212.2400  147.5390 C   0  0  0  0  0  2  0  0  0  0  0  0
  158.2670  214.3720  148.1160 C   0  0  0  0  0  3  0  0  0  0  0  0
  159.6650  212.3820  151.7140 C   0  0  2  0  0  3  0  0  0  0  0  0
  162.5900  214.2580  146.1430 C   0  0  0  0  0  1  0  0  0  0  0  0
  157.0820  213.9200  151.7190 C   0  0  0  0  0  2  0  0  0  0  0  0
  157.0140  214.4120  145.6920 Cl  0  0  0  0  0  0  0  0  0  0  0  0
  160.8840  211.9110  151.0530 N   0  0  0  0  0  2  0  0  0  0  0  0
  159.5970  213.9230  151.6950 C   0  0  2  0  0  3  0  0  0  0  0  0
  161.1700  214.4010  148.1680 C   0  0  0  0  0  2  0  0  0  0  0  0
  155.8700  214.0680  148.1460 C   0  0  0  0  0  3  0  0  0  0  0  0
  160.8790  212.3220  149.6500 C   0  0  2  0  0  3  0  0  0  0  0  0
  162.1070  211.7230  148.9660 C   0  0  0  0  0  2  0  0  0  0  0  0
  158.3440  214.4530  152.3910 C   0  0  0  0  0  2  0  0  0  0  0  0
  157.1150  214.0780  150.2280 C   0  0  0  0  0  0  0  0  0  0  0  0
  155.9040  213.9690  149.5370 C   0  0  0  0  0  3  0  0  0  0  0  0
  160.5450  209.8070  152.5630 O   0  0  0  0  0  0  0  0  0  0  0  0
  160.1080  210.5960  153.4460 C   0  0  0  0  0  0  0  0  0  0  0  0
  159.6440  211.8980  153.0870 N   0  0  0  0  0  2  0  0  0  0  0  0
  158.6900  211.8520  156.8570 N   0  0  0  0  0  0  0  0  0  0  0  0
  158.6200  209.9270  155.3470 C   0  0  0  0  0  2  0  0  0  0  0  0
  161.9540  211.0980  155.9650 O   0  0  0  0  0  0  0  0  0  0  0  0
  157.9430  213.0290  157.2610 C   0  0  0  0  0  1  0  0  0  0  0  0
  157.9360  211.2280  155.7720 C   0  0  0  0  0  2  0  0  0  0  0  0
  160.7540  211.1790  155.7650 C   0  0  0  0  0  0  0  0  0  0  0  0
  160.0610  210.1770  154.8820 C   0  0  2  0  0  3  0  0  0  0  0  0
  159.9680  212.3260  156.3310 C   0  0  0  0  0  2  0  0  0  0  0  0
  1  9  1  6  0  0  0
  1 14  1  0  0  0  0
  2  3  1  6  0  0  0
  2 13  1  0  0  0  0
  3 19  1  0  0  0  0
  4  7  1  0  0  0  0
  4 15  2  0  0  0  0
  5 14  1  6  0  0  0
  5 16  1  0  0  0  0
  5  2  1  0  0  0  0
  6  1  1  0  0  0  0
  6 17  1  0  0  0  0
  7  3  2  0  0  0  0
  8 23  1  1  0  0  0
 10 18  1  0  0  0  0
 11  4  1  0  0  0  0
 12  8  1  0  0  0  0
 13  8  1  0  0  0  0
 13 18  1  6  0  0  0
 15 20  1  0  0  0  0
 16 17  1  6  0  0  0
 16 12  1  0  0  0  0
 19 10  1  0  0  0  0
 20 19  2  0  0  0  0
 21 22  2  0  0  0  0
 23 22  1  0  0  0  0
 24 27  1  0  0  0  0
 25 28  1  0  0  0  0
 28 24  1  0  0  0  0
 29 26  2  0  0  0  0
 29 31  1  0  0  0  0
 30 22  1  6  0  0  0
 30 25  1  0  0  0  0
 30 29  1  0  0  0  0
 31 24  1  0  0  0  0
M  END
>  <MODEL>
7

>  <REMARK>
 VINA RESULT:      -4.4      6.375      8.247
  Name = 
  2 active torsions:
  status: ('A' for Active; 'I' for Inactive)
    1  A    between atoms: C_5  and  C_30
    2  A    between atoms: C_10  and  N_16
                            x       y       z     vdW  Elec       q    Type
                         _______ _______ _______ _____ _____    ______ ____

>  <TORSDO>
F 2

$$$$
