=
 OpenBabel11122414033D

 28 32  0  0  1  0  0  0  0  0999 V2000
  158.3430  212.3860  152.4510 C   0  0  0  0  0  0  0  0  0  0  0  0
  161.6450  209.9880  149.9900 O   0  0  0  0  0  0  0  0  0  0  0  0
  161.7510  211.2740  157.2590 O   0  0  0  0  0  0  0  0  0  0  0  0
  159.8920  213.6040  150.4530 C   0  0  0  0  0  3  0  0  0  0  0  0
  161.3460  209.4400  155.8000 C   0  0  1  0  0  3  0  0  0  0  0  0
  157.4650  211.8140  153.5260 C   0  0  0  0  0  2  0  0  0  0  0  0
  163.1060  210.0020  151.9740 O   0  0  0  0  0  0  0  0  0  0  0  0
  161.8910  209.3820  151.3430 S   0  0  0  0  0  0  0  0  0  0  0  0
  161.8410  206.9100  152.1820 C   0  0  0  0  0  0  0  0  0  0  0  0
  160.4480  209.5860  152.3730 C   0  0  1  0  0  3  0  0  0  0  0  0
  158.8110  214.4530  155.3060 O   0  0  0  0  0  0  0  0  0  0  0  0
  159.8050  210.7020  154.3870 N   0  0  1  0  0  0  0  0  0  0  0  0
  161.4760  207.4590  153.5360 C   0  0  0  0  0  2  0  0  0  0  0  0
  162.1010  207.6890  151.1910 N   0  0  0  0  0  0  0  0  0  0  0  0
  158.4680  213.2440  155.3560 C   0  0  0  0  0  0  0  0  0  0  0  0
  159.7010  211.9980  152.2730 C   0  0  0  0  0  0  0  0  0  0  0  0
  161.1950  210.8280  156.2680 C   0  0  0  0  0  0  0  0  0  0  0  0
  161.9720  205.4370  152.0100 C   0  0  0  0  0  1  0  0  0  0  0  0
  159.2870  212.3060  156.0550 N   0  0  0  0  0  2  0  0  0  0  0  0
  160.4560  212.6250  151.2730 C   0  0  0  0  0  3  0  0  0  0  0  0
  157.7910  213.3680  151.6180 C   0  0  0  0  0  3  0  0  0  0  0  0
  158.5590  213.9730  150.6230 C   0  0  0  0  0  3  0  0  0  0  0  0
  157.2110  212.8050  154.6660 C   0  0  0  0  0  2  0  0  0  0  0  0
  160.1950  209.3450  154.7800 C   0  0  1  0  0  3  0  0  0  0  0  0
  160.3700  211.6400  155.3490 C   0  0  2  0  0  3  0  0  0  0  0  0
  160.3740  208.5370  153.4880 C   0  0  1  0  0  3  0  0  0  0  0  0
  162.6000  209.3310  155.1920 O   0  0  0  0  0  1  0  0  0  0  0  0
  160.4140  210.9300  153.0820 C   0  0  2  0  0  3  0  0  0  0  0  0
  1  6  1  0  0  0  0
  2  8  2  0  0  0  0
  4 22  2  0  0  0  0
  4 20  1  0  0  0  0
  5 27  1  6  0  0  0
  5 17  1  0  0  0  0
  6 23  1  0  0  0  0
  8  7  2  0  0  0  0
  9 13  1  0  0  0  0
 10  8  1  1  0  0  0
 10 28  1  0  0  0  0
 10 26  1  0  0  0  0
 11 15  2  0  0  0  0
 12 24  1  0  0  0  0
 12 25  1  0  0  0  0
 14  8  1  0  0  0  0
 14  9  2  0  0  0  0
 15 19  1  0  0  0  0
 16  1  1  0  0  0  0
 16 28  1  0  0  0  0
 17  3  2  0  0  0  0
 18  9  1  0  0  0  0
 20 16  2  0  0  0  0
 21  1  2  0  0  0  0
 22 21  1  0  0  0  0
 23 15  1  0  0  0  0
 24  5  1  0  0  0  0
 25 19  1  0  0  0  0
 25 17  1  0  0  0  0
 26 13  1  0  0  0  0
 26 24  1  0  0  0  0
 28 12  1  0  0  0  0
M  END
>  <MODEL>
1

>  <REMARK>
 VINA RESULT:      -5.2      0.000      0.000
  Name = 
  0 active torsions:
  status: ('A' for Active; 'I' for Inactive)
                            x       y       z     vdW  Elec       q    Type
                         _______ _______ _______ _____ _____    ______ ____

>  <TORSDO>
F 0

$$$$
=
 OpenBabel11122414033D

 28 32  0  0  1  0  0  0  0  0999 V2000
  160.7350  209.3850  154.5380 C   0  0  0  0  0  0  0  0  0  0  0  0
  158.8600  212.8180  157.2610 O   0  0  0  0  0  0  0  0  0  0  0  0
  160.6740  213.4550  150.1330 O   0  0  0  0  0  0  0  0  0  0  0  0
  162.0840  210.4240  156.7680 C   0  0  0  0  0  3  0  0  0  0  0  0
  158.6940  213.2760  151.4370 C   0  0  1  0  0  3  0  0  0  0  0  0
  160.0820  208.7650  153.3360 C   0  0  0  0  0  2  0  0  0  0  0  0
  159.3080  214.4530  155.4730 O   0  0  0  0  0  0  0  0  0  0  0  0
  158.4160  213.3290  155.9190 S   0  0  0  0  0  0  0  0  0  0  0  0
  156.0510  213.8770  154.9570 C   0  0  0  0  0  0  0  0  0  0  0  0
  158.4070  211.9960  154.7320 C   0  0  1  0  0  3  0  0  0  0  0  0
  163.0590  209.7300  151.8680 O   0  0  0  0  0  0  0  0  0  0  0  0
  159.5200  211.3630  152.7130 N   0  0  1  0  0  0  0  0  0  0  0  0
  156.6160  213.5580  153.5980 C   0  0  0  0  0  2  0  0  0  0  0  0
  156.7910  213.8630  156.0100 N   0  0  0  0  0  0  0  0  0  0  0  0
  161.8120  209.6500  151.7170 C   0  0  0  0  0  0  0  0  0  0  0  0
  160.6100  210.7660  154.8610 C   0  0  0  0  0  0  0  0  0  0  0  0
  160.0550  212.8960  151.0240 C   0  0  0  0  0  0  0  0  0  0  0  0
  154.6240  214.2870  155.0700 C   0  0  0  0  0  1  0  0  0  0  0  0
  161.1090  210.7150  151.0770 N   0  0  0  0  0  2  0  0  0  0  0  0
  161.2980  211.2620  155.9760 C   0  0  0  0  0  3  0  0  0  0  0  0
  161.5250  208.5560  155.3450 C   0  0  0  0  0  3  0  0  0  0  0  0
  162.1940  209.0710  156.4550 C   0  0  0  0  0  3  0  0  0  0  0  0
  161.0850  208.4410  152.2250 C   0  0  0  0  0  2  0  0  0  0  0  0
  158.2990  212.0630  152.3030 C   0  0  1  0  0  3  0  0  0  0  0  0
  160.6200  211.8270  151.8750 C   0  0  2  0  0  3  0  0  0  0  0  0
  157.4490  212.2610  153.5650 C   0  0  1  0  0  3  0  0  0  0  0  0
  158.7890  214.4510  152.1880 O   0  0  0  0  0  1  0  0  0  0  0  0
  159.7670  211.7660  154.0920 C   0  0  2  0  0  3  0  0  0  0  0  0
  1 16  2  0  0  0  0
  1 21  1  0  0  0  0
  3 17  2  0  0  0  0
  5 27  1  1  0  0  0
  5 24  1  0  0  0  0
  6  1  1  0  0  0  0
  7  8  2  0  0  0  0
  8 14  1  0  0  0  0
  8  2  2  0  0  0  0
  9 18  1  0  0  0  0
  9 14  2  0  0  0  0
 10  8  1  1  0  0  0
 12 28  1  0  0  0  0
 13  9  1  0  0  0  0
 15 11  2  0  0  0  0
 15 23  1  0  0  0  0
 16 20  1  0  0  0  0
 17  5  1  0  0  0  0
 17 25  1  0  0  0  0
 19 15  1  0  0  0  0
 19 25  1  0  0  0  0
 20  4  2  0  0  0  0
 21 22  2  0  0  0  0
 22  4  1  0  0  0  0
 23  6  1  0  0  0  0
 24 12  1  0  0  0  0
 24 26  1  0  0  0  0
 25 12  1  0  0  0  0
 26 13  1  0  0  0  0
 26 10  1  0  0  0  0
 28 10  1  0  0  0  0
 28 16  1  0  0  0  0
M  END
>  <MODEL>
2

>  <REMARK>
 VINA RESULT:      -3.3      2.153      6.560
  Name = 
  0 active torsions:
  status: ('A' for Active; 'I' for Inactive)
                            x       y       z     vdW  Elec       q    Type
                         _______ _______ _______ _____ _____    ______ ____

>  <TORSDO>
F 0

$$$$
