=
 OpenBabel11122413213D

 31 35  0  0  1  0  0  0  0  0999 V2000
  161.0550  207.7460  154.3530 C   0  0  0  0  0  0  0  0  0  0  0  0
  161.3700  207.3540  150.6200 C   0  0  0  0  0  0  0  0  0  0  0  0
  161.2460  205.9600  150.3300 C   0  0  0  0  0  0  0  0  0  0  0  0
  160.9260  203.6320  151.0060 C   0  0  0  0  0  0  0  0  0  0  0  0
  161.3070  207.9220  151.9300 C   0  0  0  0  0  0  0  0  0  0  0  0
  161.1940  209.1280  154.4810 C   0  0  0  0  0  3  0  0  0  0  0  0
  161.0430  204.9870  151.3260 C   0  0  0  0  0  3  0  0  0  0  0  0
  161.7020  209.6150  149.7370 C   0  0  0  0  0  0  0  0  0  0  0  0
  160.8600  206.9610  155.4810 O   0  0  0  0  0  1  0  0  0  0  0  0
  161.5270  206.4390  147.9650 C   0  0  0  0  0  3  0  0  0  0  0  0
  160.7270  202.6970  152.0110 O   0  0  0  0  0  1  0  0  0  0  0  0
  161.6380  210.1150  150.9960 N   0  0  0  0  0  0  0  0  0  0  0  0
  161.5730  208.2370  149.5220 C   0  0  0  0  0  0  0  0  0  0  0  0
  161.9080  210.4950  148.6270 N   0  0  0  0  0  2  0  0  0  0  0  0
  161.1110  207.1530  153.0900 C   0  0  0  0  0  3  0  0  0  0  0  0
  161.0090  203.2200  149.6760 C   0  0  0  0  0  3  0  0  0  0  0  0
  161.4470  209.3260  152.0790 C   0  0  0  0  0  0  0  0  0  0  0  0
  161.3910  209.9150  153.3460 C   0  0  0  0  0  3  0  0  0  0  0  0
  161.6430  207.7570  148.2510 N   0  0  0  0  0  0  0  0  0  0  0  0
  161.3280  205.5190  148.9860 C   0  0  0  0  0  0  0  0  0  0  0  0
  161.2100  204.1630  148.6670 C   0  0  0  0  0  3  0  0  0  0  0  0
  161.0420  212.4440  149.8210 C   0  0  0  0  0  1  0  0  0  0  0  0
  162.0200  211.9410  148.7710 C   0  0  2  0  0  3  0  0  0  0  0  0
  161.3050  213.8570  145.0160 C   0  0  0  0  0  0  0  0  0  0  0  0
  160.7770  212.1560  146.5860 C   0  0  0  0  0  3  0  0  0  0  0  0
  163.5180  214.2010  147.8940 F   0  0  0  0  0  0  0  0  0  0  0  0
  161.0660  214.4530  143.8230 F   0  0  0  0  0  0  0  0  0  0  0  0
  160.5660  212.7810  145.3960 N   0  0  0  0  0  0  0  0  0  0  0  0
  162.5440  213.7250  147.0790 C   0  0  0  0  0  0  0  0  0  0  0  0
  161.7760  212.6150  147.4570 C   0  0  0  0  0  0  0  0  0  0  0  0
  162.3080  214.3480  145.8530 C   0  0  0  0  0  3  0  0  0  0  0  0
  1  6  1  0  0  0  0
  1  9  1  0  0  0  0
  2  5  1  0  0  0  0
  3  2  1  0  0  0  0
  3  7  1  0  0  0  0
  4  7  2  0  0  0  0
  4 11  1  0  0  0  0
  5 17  2  0  0  0  0
  5 15  1  0  0  0  0
  8 12  2  0  0  0  0
 10 19  2  0  0  0  0
 10 20  1  0  0  0  0
 12 17  1  0  0  0  0
 13  8  1  0  0  0  0
 13  2  2  0  0  0  0
 14 23  1  0  0  0  0
 14  8  1  0  0  0  0
 15  1  2  0  0  0  0
 16  4  1  0  0  0  0
 17 18  1  0  0  0  0
 18  6  2  0  0  0  0
 19 13  1  0  0  0  0
 20  3  2  0  0  0  0
 21 20  1  0  0  0  0
 21 16  2  0  0  0  0
 23 22  1  1  0  0  0
 24 28  2  0  0  0  0
 24 31  1  0  0  0  0
 25 30  2  0  0  0  0
 27 24  1  0  0  0  0
 28 25  1  0  0  0  0
 29 30  1  0  0  0  0
 29 26  1  0  0  0  0
 30 23  1  0  0  0  0
 31 29  2  0  0  0  0
M  END
>  <MODEL>
1

>  <REMARK>
 VINA RESULT:     -10.3      0.000      0.000
  Name = 
  2 active torsions:
  status: ('A' for Active; 'I' for Inactive)
    1  A    between atoms: C_5  and  N_16
    2  A    between atoms: C_5  and  C_30
                            x       y       z     vdW  Elec       q    Type
                         _______ _______ _______ _____ _____    ______ ____

>  <TORSDO>
F 2

$$$$
=
 OpenBabel11122413213D

 31 35  0  0  1  0  0  0  0  0999 V2000
  160.9700  201.8650  150.5560 C   0  0  0  0  0  0  0  0  0  0  0  0
  161.2150  205.3730  149.2070 C   0  0  0  0  0  0  0  0  0  0  0  0
  161.1960  205.2790  147.7810 C   0  0  0  0  0  0  0  0  0  0  0  0
  161.0850  203.9990  145.7010 C   0  0  0  0  0  0  0  0  0  0  0  0
  161.1420  204.2580  150.0970 C   0  0  0  0  0  0  0  0  0  0  0  0
  161.0000  202.1120  151.9280 C   0  0  0  0  0  3  0  0  0  0  0  0
  161.1010  204.0540  147.0960 C   0  0  0  0  0  3  0  0  0  0  0  0
  161.3370  206.8360  151.1680 C   0  0  0  0  0  0  0  0  0  0  0  0
  160.8710  200.5610  150.0880 O   0  0  0  0  0  1  0  0  0  0  0  0
  161.3730  207.6970  147.6310 C   0  0  0  0  0  3  0  0  0  0  0  0
  160.9900  202.7750  145.0550 O   0  0  0  0  0  1  0  0  0  0  0  0
  161.2670  205.7510  151.9800 N   0  0  0  0  0  0  0  0  0  0  0  0
  161.3150  206.6730  149.7770 C   0  0  0  0  0  0  0  0  0  0  0  0
  161.4410  208.1470  151.7340 N   0  0  0  0  0  2  0  0  0  0  0  0
  161.0400  202.9270  149.6530 C   0  0  0  0  0  3  0  0  0  0  0  0
  161.1660  205.1760  144.9560 C   0  0  0  0  0  3  0  0  0  0  0  0
  161.1710  204.4900  151.4960 C   0  0  0  0  0  0  0  0  0  0  0  0
  161.1010  203.4220  152.3960 C   0  0  0  0  0  3  0  0  0  0  0  0
  161.3900  207.7750  148.9820 N   0  0  0  0  0  0  0  0  0  0  0  0
  161.2770  206.4620  147.0040 C   0  0  0  0  0  0  0  0  0  0  0  0
  161.2610  206.4050  145.6080 C   0  0  0  0  0  3  0  0  0  0  0  0
  160.6560  207.3090  153.8910 C   0  0  0  0  0  1  0  0  0  0  0  0
  161.4390  208.3940  153.1690 C   0  0  2  0  0  3  0  0  0  0  0  0
  159.7770  212.2470  153.9950 C   0  0  0  0  0  0  0  0  0  0  0  0
  159.9910  210.3690  152.5590 C   0  0  0  0  0  3  0  0  0  0  0  0
  162.0190  209.8330  155.5590 F   0  0  0  0  0  0  0  0  0  0  0  0
  159.2430  213.4670  154.2430 F   0  0  0  0  0  0  0  0  0  0  0  0
  159.4730  211.5940  152.8420 N   0  0  0  0  0  0  0  0  0  0  0  0
  161.1830  210.4040  154.6580 C   0  0  0  0  0  0  0  0  0  0  0  0
  160.8620  209.7440  153.4640 C   0  0  0  0  0  0  0  0  0  0  0  0
  160.6390  211.6610  154.9250 C   0  0  0  0  0  3  0  0  0  0  0  0
  1  6  1  0  0  0  0
  2 13  1  0  0  0  0
  2  5  1  0  0  0  0
  3  2  2  0  0  0  0
  4  7  2  0  0  0  0
  5 17  2  0  0  0  0
  6 18  2  0  0  0  0
  7  3  1  0  0  0  0
  8 14  1  0  0  0  0
  8 12  2  0  0  0  0
  9  1  1  0  0  0  0
 10 19  1  0  0  0  0
 11  4  1  0  0  0  0
 13  8  1  0  0  0  0
 14 23  1  0  0  0  0
 15  5  1  0  0  0  0
 15  1  2  0  0  0  0
 16 21  2  0  0  0  0
 16  4  1  0  0  0  0
 17 12  1  0  0  0  0
 17 18  1  0  0  0  0
 19 13  2  0  0  0  0
 20 10  2  0  0  0  0
 20  3  1  0  0  0  0
 21 20  1  0  0  0  0
 23 30  1  0  0  0  0
 23 22  1  1  0  0  0
 24 27  1  0  0  0  0
 24 31  1  0  0  0  0
 25 28  1  0  0  0  0
 25 30  2  0  0  0  0
 28 24  2  0  0  0  0
 29 31  2  0  0  0  0
 29 26  1  0  0  0  0
 30 29  1  0  0  0  0
M  END
>  <MODEL>
2

>  <REMARK>
 VINA RESULT:      -9.8      4.153      6.095
  Name = 
  2 active torsions:
  status: ('A' for Active; 'I' for Inactive)
    1  A    between atoms: C_5  and  N_16
    2  A    between atoms: C_5  and  C_30
                            x       y       z     vdW  Elec       q    Type
                         _______ _______ _______ _____ _____    ______ ____

>  <TORSDO>
F 2

$$$$
=
 OpenBabel11122413213D

 31 35  0  0  1  0  0  0  0  0999 V2000
  161.2230  205.4560  145.8270 C   0  0  0  0  0  0  0  0  0  0  0  0
  161.0900  204.6760  149.5090 C   0  0  0  0  0  0  0  0  0  0  0  0
  161.1040  203.2530  149.6400 C   0  0  0  0  0  0  0  0  0  0  0  0
  161.1700  200.9970  148.7010 C   0  0  0  0  0  0  0  0  0  0  0  0
  161.1280  205.3800  148.2660 C   0  0  0  0  0  0  0  0  0  0  0  0
  161.2030  206.8510  145.8570 C   0  0  0  0  0  3  0  0  0  0  0  0
  161.1580  202.3840  148.5350 C   0  0  0  0  0  3  0  0  0  0  0  0
  161.0180  206.8440  150.6490 C   0  0  0  0  0  0  0  0  0  0  0  0
  161.2790  204.7890  144.6110 O   0  0  0  0  0  1  0  0  0  0  0  0
  161.0050  203.4860  152.0560 C   0  0  0  0  0  3  0  0  0  0  0  0
  161.2240  200.1670  147.5900 O   0  0  0  0  0  1  0  0  0  0  0  0
  161.0540  207.4750  149.4480 N   0  0  0  0  0  0  0  0  0  0  0  0
  161.0320  205.4440  150.7060 C   0  0  0  0  0  0  0  0  0  0  0  0
  160.9570  207.6090  151.8580 N   0  0  0  0  0  2  0  0  0  0  0  0
  161.1860  204.7320  147.0200 C   0  0  0  0  0  3  0  0  0  0  0  0
  161.1270  200.4470  149.9820 C   0  0  0  0  0  3  0  0  0  0  0  0
  161.1090  206.7980  148.2770 C   0  0  0  0  0  0  0  0  0  0  0  0
  161.1450  207.5190  147.0790 C   0  0  0  0  0  3  0  0  0  0  0  0
  160.9930  204.8330  151.9210 N   0  0  0  0  0  0  0  0  0  0  0  0
  161.0600  202.6720  150.9320 C   0  0  0  0  0  0  0  0  0  0  0  0
  161.0720  201.2840  151.0960 C   0  0  0  0  0  3  0  0  0  0  0  0
  162.3700  209.5850  151.5950 C   0  0  0  0  0  1  0  0  0  0  0  0
  160.9690  209.0650  151.8760 C   0  0  2  0  0  3  0  0  0  0  0  0
  159.5670  210.5030  155.6510 C   0  0  0  0  0  0  0  0  0  0  0  0
  160.7670  208.8930  154.3850 C   0  0  0  0  0  3  0  0  0  0  0  0
  159.4040  211.4330  152.1290 F   0  0  0  0  0  0  0  0  0  0  0  0
  159.1300  210.9460  156.8540 F   0  0  0  0  0  0  0  0  0  0  0  0
  160.3120  209.3680  155.5760 N   0  0  0  0  0  0  0  0  0  0  0  0
  159.7080  210.7460  153.2570 C   0  0  0  0  0  0  0  0  0  0  0  0
  160.4740  209.5730  153.1940 C   0  0  0  0  0  0  0  0  0  0  0  0
  159.2520  211.2130  154.4900 C   0  0  0  0  0  3  0  0  0  0  0  0
  1  6  2  0  0  0  0
  1 15  1  0  0  0  0
  2  3  2  0  0  0  0
  2 13  1  0  0  0  0
  3 20  1  0  0  0  0
  4 16  1  0  0  0  0
  5 17  1  0  0  0  0
  5  2  1  0  0  0  0
  6 18  1  0  0  0  0
  7  4  2  0  0  0  0
  7  3  1  0  0  0  0
  8 13  1  0  0  0  0
  8 14  1  0  0  0  0
  9  1  1  0  0  0  0
 11  4  1  0  0  0  0
 12  8  2  0  0  0  0
 13 19  2  0  0  0  0
 14 23  1  0  0  0  0
 15  5  2  0  0  0  0
 16 21  2  0  0  0  0
 17 12  1  0  0  0  0
 18 17  2  0  0  0  0
 19 10  1  0  0  0  0
 20 21  1  0  0  0  0
 20 10  2  0  0  0  0
 23 22  1  1  0  0  0
 23 30  1  0  0  0  0
 24 27  1  0  0  0  0
 25 28  2  0  0  0  0
 26 29  1  0  0  0  0
 28 24  1  0  0  0  0
 29 31  1  0  0  0  0
 30 29  2  0  0  0  0
 30 25  1  0  0  0  0
 31 24  2  0  0  0  0
M  END
>  <MODEL>
3

>  <REMARK>
 VINA RESULT:      -9.8      4.214      6.662
  Name = 
  2 active torsions:
  status: ('A' for Active; 'I' for Inactive)
    1  A    between atoms: C_5  and  N_16
    2  A    between atoms: C_5  and  C_30
                            x       y       z     vdW  Elec       q    Type
                         _______ _______ _______ _____ _____    ______ ____

>  <TORSDO>
F 2

$$$$
=
 OpenBabel11122413213D

 31 35  0  0  1  0  0  0  0  0999 V2000
  161.4730  204.5300  147.3500 C   0  0  0  0  0  0  0  0  0  0  0  0
  161.5000  207.0970  150.1060 C   0  0  0  0  0  0  0  0  0  0  0  0
  161.3220  206.3950  151.3380 C   0  0  0  0  0  0  0  0  0  0  0  0
  161.0000  204.3450  152.6300 C   0  0  0  0  0  0  0  0  0  0  0  0
  161.5470  206.4810  148.8180 C   0  0  0  0  0  0  0  0  0  0  0  0
  161.6520  205.3470  146.2330 C   0  0  0  0  0  3  0  0  0  0  0  0
  161.1730  204.9980  151.4080 C   0  0  0  0  0  3  0  0  0  0  0  0
  161.8180  209.2600  149.0010 C   0  0  0  0  0  0  0  0  0  0  0  0
  161.3460  203.1570  147.1910 O   0  0  0  0  0  1  0  0  0  0  0  0
  161.4340  208.5020  152.5410 C   0  0  0  0  0  3  0  0  0  0  0  0
  160.8560  202.9660  152.6650 O   0  0  0  0  0  1  0  0  0  0  0  0
  161.8550  208.6380  147.7960 N   0  0  0  0  0  0  0  0  0  0  0  0
  161.6390  208.5120  150.1710 C   0  0  0  0  0  0  0  0  0  0  0  0
  161.9540  210.6830  149.0750 N   0  0  0  0  0  2  0  0  0  0  0  0
  161.4220  205.0940  148.6260 C   0  0  0  0  0  3  0  0  0  0  0  0
  160.9730  205.0800  153.8160 C   0  0  0  0  0  3  0  0  0  0  0  0
  161.7280  207.2960  147.6710 C   0  0  0  0  0  0  0  0  0  0  0  0
  161.7790  206.7260  146.3950 C   0  0  0  0  0  3  0  0  0  0  0  0
  161.6020  209.1570  151.3680 N   0  0  0  0  0  0  0  0  0  0  0  0
  161.2900  207.1210  152.5550 C   0  0  0  0  0  0  0  0  0  0  0  0
  161.1190  206.4660  153.7770 C   0  0  0  0  0  3  0  0  0  0  0  0
  163.3540  212.4520  148.1340 C   0  0  0  0  0  1  0  0  0  0  0  0
  162.1730  211.5220  147.9040 C   0  0  2  0  0  3  0  0  0  0  0  0
  158.6420  213.7520  146.9850 C   0  0  0  0  0  0  0  0  0  0  0  0
  160.3070  212.1870  146.3410 C   0  0  0  0  0  3  0  0  0  0  0  0
  160.9670  213.3170  149.7600 F   0  0  0  0  0  0  0  0  0  0  0  0
  157.5230  214.4520  146.6790 F   0  0  0  0  0  0  0  0  0  0  0  0
  159.1840  212.9050  146.0690 N   0  0  0  0  0  0  0  0  0  0  0  0
  160.3890  213.1740  148.5420 C   0  0  0  0  0  0  0  0  0  0  0  0
  160.9380  212.3070  147.5880 C   0  0  0  0  0  0  0  0  0  0  0  0
  159.2360  213.9010  148.2400 C   0  0  0  0  0  3  0  0  0  0  0  0
  1 15  1  0  0  0  0
  2 13  2  0  0  0  0
  2  3  1  0  0  0  0
  3  7  2  0  0  0  0
  3 20  1  0  0  0  0
  4 11  1  0  0  0  0
  4 16  2  0  0  0  0
  5  2  1  0  0  0  0
  6 18  1  0  0  0  0
  6  1  2  0  0  0  0
  7  4  1  0  0  0  0
  8 14  1  0  0  0  0
  8 13  1  0  0  0  0
  9  1  1  0  0  0  0
 10 20  1  0  0  0  0
 12  8  2  0  0  0  0
 13 19  1  0  0  0  0
 15  5  2  0  0  0  0
 17 12  1  0  0  0  0
 17  5  1  0  0  0  0
 18 17  2  0  0  0  0
 19 10  2  0  0  0  0
 20 21  2  0  0  0  0
 21 16  1  0  0  0  0
 23 22  1  1  0  0  0
 23 14  1  0  0  0  0
 24 31  1  0  0  0  0
 25 30  2  0  0  0  0
 27 24  1  0  0  0  0
 28 25  1  0  0  0  0
 28 24  2  0  0  0  0
 29 26  1  0  0  0  0
 30 23  1  0  0  0  0
 30 29  1  0  0  0  0
 31 29  2  0  0  0  0
M  END
>  <MODEL>
4

>  <REMARK>
 VINA RESULT:      -9.5      1.844      4.192
  Name = 
  2 active torsions:
  status: ('A' for Active; 'I' for Inactive)
    1  A    between atoms: C_5  and  N_16
    2  A    between atoms: C_5  and  C_30
                            x       y       z     vdW  Elec       q    Type
                         _______ _______ _______ _____ _____    ______ ____

>  <TORSDO>
F 2

$$$$
=
 OpenBabel11122413213D

 31 35  0  0  1  0  0  0  0  0999 V2000
  161.8590  207.3180  147.5450 C   0  0  0  0  0  0  0  0  0  0  0  0
  161.2880  205.7900  150.9400 C   0  0  0  0  0  0  0  0  0  0  0  0
  161.1370  204.3810  150.7490 C   0  0  0  0  0  0  0  0  0  0  0  0
  161.0540  202.3890  149.3350 C   0  0  0  0  0  0  0  0  0  0  0  0
  161.5210  206.7330  149.8930 C   0  0  0  0  0  0  0  0  0  0  0  0
  161.9840  208.6650  147.8860 C   0  0  0  0  0  3  0  0  0  0  0  0
  161.2060  203.7700  149.4840 C   0  0  0  0  0  3  0  0  0  0  0  0
  161.3370  207.6540  152.5290 C   0  0  0  0  0  0  0  0  0  0  0  0
  161.9610  206.9250  146.2180 O   0  0  0  0  0  1  0  0  0  0  0  0
  160.8310  204.1010  153.1420 C   0  0  0  0  0  3  0  0  0  0  0  0
  161.1270  201.8160  148.0730 O   0  0  0  0  0  1  0  0  0  0  0  0
  161.5560  208.5180  151.5060 N   0  0  0  0  0  0  0  0  0  0  0  0
  161.1970  206.2840  152.2720 C   0  0  0  0  0  0  0  0  0  0  0  0
  161.2410  208.1440  153.8710 N   0  0  0  0  0  2  0  0  0  0  0  0
  161.6300  206.3660  148.5400 C   0  0  0  0  0  3  0  0  0  0  0  0
  160.8290  201.5870  150.4530 C   0  0  0  0  0  3  0  0  0  0  0  0
  161.6510  208.1070  150.2200 C   0  0  0  0  0  0  0  0  0  0  0  0
  161.8800  209.0570  149.2200 C   0  0  0  0  0  3  0  0  0  0  0  0
  160.9750  205.4370  153.3120 N   0  0  0  0  0  0  0  0  0  0  0  0
  160.9070  203.5470  151.8710 C   0  0  0  0  0  0  0  0  0  0  0  0
  160.7560  202.1660  151.7200 C   0  0  0  0  0  3  0  0  0  0  0  0
  162.1280  209.6850  155.5480 C   0  0  0  0  0  1  0  0  0  0  0  0
  161.4060  209.5490  154.2160 C   0  0  2  0  0  3  0  0  0  0  0  0
  157.6030  211.4960  154.3800 C   0  0  0  0  0  0  0  0  0  0  0  0
  159.2250  210.0750  155.3710 C   0  0  0  0  0  3  0  0  0  0  0  0
  160.4520  211.2280  152.1210 F   0  0  0  0  0  0  0  0  0  0  0  0
  156.3950  212.1060  154.4470 F   0  0  0  0  0  0  0  0  0  0  0  0
  158.0200  210.7030  155.4040 N   0  0  0  0  0  0  0  0  0  0  0  0
  159.6590  211.0480  153.2060 C   0  0  0  0  0  0  0  0  0  0  0  0
  160.0750  210.2320  154.2670 C   0  0  0  0  0  0  0  0  0  0  0  0
  158.4180  211.6830  153.2620 C   0  0  0  0  0  3  0  0  0  0  0  0
  1  6  2  0  0  0  0
  1 15  1  0  0  0  0
  2 13  1  0  0  0  0
  3  2  2  0  0  0  0
  3 20  1  0  0  0  0
  4  7  2  0  0  0  0
  4 16  1  0  0  0  0
  5 17  1  0  0  0  0
  5  2  1  0  0  0  0
  6 18  1  0  0  0  0
  7  3  1  0  0  0  0
  8 14  1  0  0  0  0
  9  1  1  0  0  0  0
 10 19  1  0  0  0  0
 11  4  1  0  0  0  0
 12  8  2  0  0  0  0
 13  8  1  0  0  0  0
 13 19  2  0  0  0  0
 14 23  1  0  0  0  0
 15  5  2  0  0  0  0
 16 21  2  0  0  0  0
 17 12  1  0  0  0  0
 18 17  2  0  0  0  0
 20 10  2  0  0  0  0
 21 20  1  0  0  0  0
 23 30  1  0  0  0  0
 23 22  1  1  0  0  0
 24 27  1  0  0  0  0
 24 28  1  0  0  0  0
 25 28  2  0  0  0  0
 26 29  1  0  0  0  0
 29 31  1  0  0  0  0
 29 30  2  0  0  0  0
 30 25  1  0  0  0  0
 31 24  2  0  0  0  0
M  END
>  <MODEL>
5

>  <REMARK>
 VINA RESULT:      -9.4      3.861      6.099
  Name = 
  2 active torsions:
  status: ('A' for Active; 'I' for Inactive)
    1  A    between atoms: C_5  and  N_16
    2  A    between atoms: C_5  and  C_30
                            x       y       z     vdW  Elec       q    Type
                         _______ _______ _______ _____ _____    ______ ____

>  <TORSDO>
F 2

$$$$
=
 OpenBabel11122413213D

 31 35  0  0  1  0  0  0  0  0999 V2000
  160.8540  201.8590  150.4930 C   0  0  0  0  0  0  0  0  0  0  0  0
  161.2810  205.4910  149.5960 C   0  0  0  0  0  0  0  0  0  0  0  0
  161.3190  205.5730  148.1700 C   0  0  0  0  0  0  0  0  0  0  0  0
  161.2500  204.5610  145.9450 C   0  0  0  0  0  0  0  0  0  0  0  0
  161.1310  204.2800  150.3390 C   0  0  0  0  0  0  0  0  0  0  0  0
  160.8350  201.9360  151.8860 C   0  0  0  0  0  3  0  0  0  0  0  0
  161.2080  204.4440  147.3370 C   0  0  0  0  0  3  0  0  0  0  0  0
  161.3730  206.6990  151.7260 C   0  0  0  0  0  0  0  0  0  0  0  0
  160.7280  200.6270  149.8650 O   0  0  0  0  0  1  0  0  0  0  0  0
  161.5880  207.9810  148.3250 C   0  0  0  0  0  3  0  0  0  0  0  0
  161.1380  203.4290  145.1510 O   0  0  0  0  0  1  0  0  0  0  0  0
  161.2300  205.5270  152.3950 N   0  0  0  0  0  0  0  0  0  0  0  0
  161.4040  206.7080  150.3250 C   0  0  0  0  0  0  0  0  0  0  0  0
  161.5010  207.9270  152.4510 N   0  0  0  0  0  2  0  0  0  0  0  0
  161.0000  203.0190  149.7310 C   0  0  0  0  0  3  0  0  0  0  0  0
  161.4040  205.8150  145.3540 C   0  0  0  0  0  3  0  0  0  0  0  0
  161.1090  204.3400  151.7560 C   0  0  0  0  0  0  0  0  0  0  0  0
  160.9630  203.1740  152.5140 C   0  0  0  0  0  3  0  0  0  0  0  0
  161.5510  207.8940  149.6750 N   0  0  0  0  0  0  0  0  0  0  0  0
  161.4750  206.8360  147.5480 C   0  0  0  0  0  0  0  0  0  0  0  0
  161.5160  206.9510  146.1550 C   0  0  0  0  0  3  0  0  0  0  0  0
  160.4550  206.9810  154.4480 C   0  0  0  0  0  1  0  0  0  0  0  0
  161.4470  207.9970  153.9060 C   0  0  2  0  0  3  0  0  0  0  0  0
  160.4070  211.9460  155.1760 C   0  0  0  0  0  0  0  0  0  0  0  0
  161.5700  209.9100  155.5470 C   0  0  0  0  0  3  0  0  0  0  0  0
  159.7370  209.6960  152.3850 F   0  0  0  0  0  0  0  0  0  0  0  0
  160.0860  213.1950  155.5920 F   0  0  0  0  0  0  0  0  0  0  0  0
  161.2270  211.1690  155.9320 N   0  0  0  0  0  0  0  0  0  0  0  0
  160.2330  210.1710  153.5550 C   0  0  0  0  0  0  0  0  0  0  0  0
  161.0780  209.3800  154.3460 C   0  0  0  0  0  0  0  0  0  0  0  0
  159.8950  211.4590  153.9710 C   0  0  0  0  0  3  0  0  0  0  0  0
  1  6  1  0  0  0  0
  2 13  1  0  0  0  0
  2  5  1  0  0  0  0
  3  2  2  0  0  0  0
  4  7  2  0  0  0  0
  5 17  2  0  0  0  0
  6 18  2  0  0  0  0
  7  3  1  0  0  0  0
  8 12  2  0  0  0  0
  8 14  1  0  0  0  0
  9  1  1  0  0  0  0
 10 19  1  0  0  0  0
 11  4  1  0  0  0  0
 13  8  1  0  0  0  0
 14 23  1  0  0  0  0
 15  5  1  0  0  0  0
 15  1  2  0  0  0  0
 16  4  1  0  0  0  0
 16 21  2  0  0  0  0
 17 12  1  0  0  0  0
 17 18  1  0  0  0  0
 19 13  2  0  0  0  0
 20  3  1  0  0  0  0
 20 10  2  0  0  0  0
 21 20  1  0  0  0  0
 23 30  1  0  0  0  0
 23 22  1  6  0  0  0
 24 27  1  0  0  0  0
 24 28  1  0  0  0  0
 25 28  2  0  0  0  0
 26 29  1  0  0  0  0
 29 31  1  0  0  0  0
 29 30  2  0  0  0  0
 30 25  1  0  0  0  0
 31 24  2  0  0  0  0
M  END
>  <MODEL>
6

>  <REMARK>
 VINA RESULT:      -9.2      4.099      6.474
  Name = 
  2 active torsions:
  status: ('A' for Active; 'I' for Inactive)
    1  A    between atoms: C_5  and  N_16
    2  A    between atoms: C_5  and  C_30
                            x       y       z     vdW  Elec       q    Type
                         _______ _______ _______ _____ _____    ______ ____

>  <TORSDO>
F 2

$$$$
=
 OpenBabel11122413213D

 31 35  0  0  1  0  0  0  0  0999 V2000
  161.9700  209.0250  148.7870 C   0  0  0  0  0  0  0  0  0  0  0  0
  161.3600  206.2840  151.2970 C   0  0  0  0  0  0  0  0  0  0  0  0
  161.1880  205.0700  150.5630 C   0  0  0  0  0  0  0  0  0  0  0  0
  161.0790  203.8050  148.4740 C   0  0  0  0  0  0  0  0  0  0  0  0
  161.6130  207.5620  150.7100 C   0  0  0  0  0  0  0  0  0  0  0  0
  162.1160  210.1240  149.6340 C   0  0  0  0  0  3  0  0  0  0  0  0
  161.2520  205.0100  149.1600 C   0  0  0  0  0  3  0  0  0  0  0  0
  161.4320  207.3640  153.4960 C   0  0  0  0  0  0  0  0  0  0  0  0
  162.0720  209.1900  147.4120 O   0  0  0  0  0  1  0  0  0  0  0  0
  160.8670  203.8680  152.6490 C   0  0  0  0  0  3  0  0  0  0  0  0
  161.1480  203.7790  147.0890 O   0  0  0  0  0  1  0  0  0  0  0  0
  161.6690  208.5590  152.8990 N   0  0  0  0  0  0  0  0  0  0  0  0
  161.2710  206.2110  152.7160 C   0  0  0  0  0  0  0  0  0  0  0  0
  161.3380  207.2810  154.9220 N   0  0  0  0  0  2  0  0  0  0  0  0
  161.7220  207.7600  149.3220 C   0  0  0  0  0  3  0  0  0  0  0  0
  160.8360  202.6280  149.1830 C   0  0  0  0  0  3  0  0  0  0  0  0
  161.7640  208.6910  151.5560 C   0  0  0  0  0  0  0  0  0  0  0  0
  162.0120  209.9560  151.0140 C   0  0  0  0  0  3  0  0  0  0  0  0
  161.0310  205.0230  153.3350 N   0  0  0  0  0  0  0  0  0  0  0  0
  160.9390  203.8630  151.2630 C   0  0  0  0  0  0  0  0  0  0  0  0
  160.7660  202.6580  150.5760 C   0  0  0  0  0  3  0  0  0  0  0  0
  161.3990  208.0130  157.2530 C   0  0  0  0  0  1  0  0  0  0  0  0
  161.5250  208.4310  155.7970 C   0  0  2  0  0  3  0  0  0  0  0  0
  158.6700  211.4770  154.8670 C   0  0  0  0  0  0  0  0  0  0  0  0
  159.1540  209.2790  155.6210 C   0  0  0  0  0  3  0  0  0  0  0  0
  162.2860  211.0060  154.8430 F   0  0  0  0  0  0  0  0  0  0  0  0
  157.7540  212.4310  154.5770 F   0  0  0  0  0  0  0  0  0  0  0  0
  158.2630  210.2610  155.3210 N   0  0  0  0  0  0  0  0  0  0  0  0
  160.9640  210.7500  155.0030 C   0  0  0  0  0  0  0  0  0  0  0  0
  160.5300  209.5010  155.4680 C   0  0  0  0  0  0  0  0  0  0  0  0
  160.0310  211.7430  154.7010 C   0  0  0  0  0  3  0  0  0  0  0  0
  1 15  2  0  0  0  0
  1  6  1  0  0  0  0
  2 13  1  0  0  0  0
  3 20  1  0  0  0  0
  3  2  2  0  0  0  0
  4  7  2  0  0  0  0
  4 16  1  0  0  0  0
  5  2  1  0  0  0  0
  5 17  2  0  0  0  0
  6 18  2  0  0  0  0
  7  3  1  0  0  0  0
  8 14  1  0  0  0  0
  9  1  1  0  0  0  0
 10 19  1  0  0  0  0
 11  4  1  0  0  0  0
 12  8  2  0  0  0  0
 13 19  2  0  0  0  0
 13  8  1  0  0  0  0
 14 23  1  0  0  0  0
 15  5  1  0  0  0  0
 16 21  2  0  0  0  0
 17 12  1  0  0  0  0
 18 17  1  0  0  0  0
 20 10  2  0  0  0  0
 21 20  1  0  0  0  0
 23 22  1  1  0  0  0
 24 28  1  0  0  0  0
 26 29  1  0  0  0  0
 27 24  1  0  0  0  0
 28 25  2  0  0  0  0
 29 30  2  0  0  0  0
 30 25  1  0  0  0  0
 30 23  1  0  0  0  0
 31 24  2  0  0  0  0
 31 29  1  0  0  0  0
M  END
>  <MODEL>
7

>  <REMARK>
 VINA RESULT:      -9.0      4.226      6.325
  Name = 
  2 active torsions:
  status: ('A' for Active; 'I' for Inactive)
    1  A    between atoms: C_5  and  N_16
    2  A    between atoms: C_5  and  C_30
                            x       y       z     vdW  Elec       q    Type
                         _______ _______ _______ _____ _____    ______ ____

>  <TORSDO>
F 2

$$$$
=
 OpenBabel11122413213D

 31 35  0  0  1  0  0  0  0  0999 V2000
  161.2220  205.2160  151.4040 C   0  0  0  0  0  0  0  0  0  0  0  0
  161.1190  208.8310  152.4580 C   0  0  0  0  0  0  0  0  0  0  0  0
  160.8290  208.8550  153.8570 C   0  0  0  0  0  0  0  0  0  0  0  0
  160.3520  207.7480  155.9840 C   0  0  0  0  0  0  0  0  0  0  0  0
  161.2440  207.6440  151.6720 C   0  0  0  0  0  0  0  0  0  0  0  0
  161.5080  205.3510  150.0450 C   0  0  0  0  0  3  0  0  0  0  0  0
  160.6340  207.6870  154.6170 C   0  0  0  0  0  3  0  0  0  0  0  0
  161.5830  210.1300  150.4330 C   0  0  0  0  0  0  0  0  0  0  0  0
  161.0660  203.9530  151.9590 O   0  0  0  0  0  1  0  0  0  0  0  0
  160.9140  211.2820  153.8220 C   0  0  0  0  0  3  0  0  0  0  0  0
  160.1640  206.5780  156.7060 O   0  0  0  0  0  1  0  0  0  0  0  0
  161.6910  208.9800  149.7220 N   0  0  0  0  0  0  0  0  0  0  0  0
  161.2950  210.0830  151.8030 C   0  0  0  0  0  0  0  0  0  0  0  0
  161.7550  211.3940  149.7820 N   0  0  0  0  0  2  0  0  0  0  0  0
  161.0920  206.3520  152.2060 C   0  0  0  0  0  3  0  0  0  0  0  0
  160.2580  208.9840  156.6230 C   0  0  0  0  0  3  0  0  0  0  0  0
  161.5350  207.7610  150.2890 C   0  0  0  0  0  0  0  0  0  0  0  0
  161.6630  206.6200  149.4900 C   0  0  0  0  0  3  0  0  0  0  0  0
  161.1880  211.2480  152.4970 N   0  0  0  0  0  0  0  0  0  0  0  0
  160.7290  210.1000  154.5260 C   0  0  0  0  0  0  0  0  0  0  0  0
  160.4470  210.1590  155.8940 C   0  0  0  0  0  3  0  0  0  0  0  0
  163.4480  212.1730  148.2010 C   0  0  0  0  0  1  0  0  0  0  0  0
  162.0860  211.5190  148.3690 C   0  0  2  0  0  3  0  0  0  0  0  0
  159.0700  213.7560  146.3220 C   0  0  0  0  0  0  0  0  0  0  0  0
  160.4510  211.8310  146.4720 C   0  0  0  0  0  3  0  0  0  0  0  0
  161.1390  214.0350  149.3130 F   0  0  0  0  0  0  0  0  0  0  0  0
  158.1140  214.4530  145.6620 F   0  0  0  0  0  0  0  0  0  0  0  0
  159.4930  212.5580  145.8370 N   0  0  0  0  0  0  0  0  0  0  0  0
  160.6040  213.5400  148.1690 C   0  0  0  0  0  0  0  0  0  0  0  0
  161.0320  212.3080  147.6560 C   0  0  0  0  0  0  0  0  0  0  0  0
  159.6200  214.2680  147.4990 C   0  0  0  0  0  3  0  0  0  0  0  0
  1  9  1  0  0  0  0
  1 15  1  0  0  0  0
  2  3  1  0  0  0  0
  3 20  2  0  0  0  0
  3  7  1  0  0  0  0
  4 16  1  0  0  0  0
  4 11  1  0  0  0  0
  5 15  2  0  0  0  0
  5  2  1  0  0  0  0
  6  1  2  0  0  0  0
  7  4  2  0  0  0  0
  8 13  1  0  0  0  0
 10 20  1  0  0  0  0
 12 17  1  0  0  0  0
 12  8  2  0  0  0  0
 13  2  2  0  0  0  0
 13 19  1  0  0  0  0
 14  8  1  0  0  0  0
 17  5  1  0  0  0  0
 18  6  1  0  0  0  0
 18 17  2  0  0  0  0
 19 10  2  0  0  0  0
 20 21  1  0  0  0  0
 21 16  2  0  0  0  0
 23 22  1  1  0  0  0
 23 14  1  0  0  0  0
 24 31  1  0  0  0  0
 25 30  2  0  0  0  0
 27 24  1  0  0  0  0
 28 24  2  0  0  0  0
 28 25  1  0  0  0  0
 29 26  1  0  0  0  0
 30 29  1  0  0  0  0
 30 23  1  0  0  0  0
 31 29  2  0  0  0  0
M  END
>  <MODEL>
8

>  <REMARK>
 VINA RESULT:      -8.5      1.616      4.423
  Name = 
  2 active torsions:
  status: ('A' for Active; 'I' for Inactive)
    1  A    between atoms: C_5  and  N_16
    2  A    between atoms: C_5  and  C_30
                            x       y       z     vdW  Elec       q    Type
                         _______ _______ _______ _____ _____    ______ ____

>  <TORSDO>
F 2

$$$$
=
 OpenBabel11122413213D

 31 35  0  0  1  0  0  0  0  0999 V2000
  161.3320  204.1000  145.9170 C   0  0  0  0  0  0  0  0  0  0  0  0
  161.4030  205.9340  149.2050 C   0  0  0  0  0  0  0  0  0  0  0  0
  161.2430  204.9580  150.2370 C   0  0  0  0  0  0  0  0  0  0  0  0
  160.9380  202.6570  151.0060 C   0  0  0  0  0  0  0  0  0  0  0  0
  161.4290  205.6440  147.8070 C   0  0  0  0  0  0  0  0  0  0  0  0
  161.4950  205.1610  145.0250 C   0  0  0  0  0  3  0  0  0  0  0  0
  161.0930  203.5840  149.9730 C   0  0  0  0  0  3  0  0  0  0  0  0
  161.7060  208.3000  148.6450 C   0  0  0  0  0  0  0  0  0  0  0  0
  161.2010  202.8040  145.4370 O   0  0  0  0  0  1  0  0  0  0  0  0
  161.3740  206.7170  151.9070 C   0  0  0  0  0  3  0  0  0  0  0  0
  160.7930  201.3090  150.7130 O   0  0  0  0  0  1  0  0  0  0  0  0
  161.7240  207.9830  147.3250 N   0  0  0  0  0  0  0  0  0  0  0  0
  161.5440  207.2930  149.6050 C   0  0  0  0  0  0  0  0  0  0  0  0
  161.8440  209.6640  149.0550 N   0  0  0  0  0  2  0  0  0  0  0  0
  161.3010  204.3420  147.2910 C   0  0  0  0  0  3  0  0  0  0  0  0
  160.9300  203.0880  152.3330 C   0  0  0  0  0  3  0  0  0  0  0  0
  161.5950  206.7100  146.8850 C   0  0  0  0  0  0  0  0  0  0  0  0
  161.6260  206.4610  145.5100 C   0  0  0  0  0  3  0  0  0  0  0  0
  161.5250  207.6340  150.9220 N   0  0  0  0  0  0  0  0  0  0  0  0
  161.2300  205.3720  151.5920 C   0  0  0  0  0  0  0  0  0  0  0  0
  161.0760  204.4430  152.6250 C   0  0  0  0  0  3  0  0  0  0  0  0
  163.3760  211.4470  148.3840 C   0  0  0  0  0  1  0  0  0  0  0  0
  162.0470  210.7590  148.1150 C   0  0  2  0  0  3  0  0  0  0  0  0
  158.8300  213.5630  148.3950 C   0  0  0  0  0  0  0  0  0  0  0  0
  160.5840  212.3410  149.4280 C   0  0  0  0  0  3  0  0  0  0  0  0
  160.4720  211.5140  145.8630 F   0  0  0  0  0  0  0  0  0  0  0  0
  157.8140  214.4520  148.4990 F   0  0  0  0  0  0  0  0  0  0  0  0
  159.5570  213.2300  149.4950 N   0  0  0  0  0  0  0  0  0  0  0  0
  160.1790  212.0730  147.0640 C   0  0  0  0  0  0  0  0  0  0  0  0
  160.9180  211.7380  148.2070 C   0  0  0  0  0  0  0  0  0  0  0  0
  159.1300  212.9880  147.1580 C   0  0  0  0  0  3  0  0  0  0  0  0
  1 15  1  0  0  0  0
  2 13  2  0  0  0  0
  2  3  1  0  0  0  0
  3 20  1  0  0  0  0
  4 16  2  0  0  0  0
  5  2  1  0  0  0  0
  6 18  1  0  0  0  0
  6  1  2  0  0  0  0
  7  3  2  0  0  0  0
  7  4  1  0  0  0  0
  8 14  1  0  0  0  0
  8 13  1  0  0  0  0
  9  1  1  0  0  0  0
 11  4  1  0  0  0  0
 12  8  2  0  0  0  0
 13 19  1  0  0  0  0
 15  5  2  0  0  0  0
 16 21  1  0  0  0  0
 17 12  1  0  0  0  0
 17  5  1  0  0  0  0
 18 17  2  0  0  0  0
 19 10  2  0  0  0  0
 20 10  1  0  0  0  0
 20 21  2  0  0  0  0
 23 30  1  0  0  0  0
 23 22  1  1  0  0  0
 23 14  1  0  0  0  0
 24 27  1  0  0  0  0
 24 28  1  0  0  0  0
 25 28  2  0  0  0  0
 26 29  1  0  0  0  0
 29 31  1  0  0  0  0
 29 30  2  0  0  0  0
 30 25  1  0  0  0  0
 31 24  2  0  0  0  0
M  END
>  <MODEL>
9

>  <REMARK>
 VINA RESULT:      -8.4      2.539      4.748
  Name = 
  2 active torsions:
  status: ('A' for Active; 'I' for Inactive)
    1  A    between atoms: C_5  and  N_16
    2  A    between atoms: C_5  and  C_30
                            x       y       z     vdW  Elec       q    Type
                         _______ _______ _______ _____ _____    ______ ____

>  <TORSDO>
F 2

$$$$
