=
 OpenBabel11122414393D

 34 40  0  0  1  0  0  0  0  0999 V2000
  161.0280  204.3150  151.2630 C   0  0  0  0  0  0  0  0  0  0  0  0
  161.0170  206.2040  152.9980 C   0  0  0  0  0  3  0  0  0  0  0  0
  160.2720  202.3100  145.0500 C   0  0  0  0  0  0  0  0  0  0  0  0
  161.0710  202.6870  149.4290 C   0  0  0  0  0  0  0  0  0  0  0  0
  161.1480  203.4610  147.1010 C   0  0  0  0  0  0  0  0  0  0  0  0
  161.4240  204.5210  144.7680 C   0  0  0  0  0  1  0  0  0  0  0  0
  159.2870  202.7300  144.3850 O   0  0  0  0  0  0  0  0  0  0  0  0
  161.4100  200.4830  146.2730 C   0  0  0  0  0  2  0  0  0  0  0  0
  161.0170  206.6800  150.7450 C   0  0  0  0  0  0  0  0  0  0  0  0
  162.0170  209.4110  149.8180 C   0  0  0  0  0  2  0  0  0  0  0  0
  161.1370  204.7810  147.5750 C   0  0  0  0  0  3  0  0  0  0  0  0
  160.9950  200.9110  147.6730 C   0  0  0  0  0  2  0  0  0  0  0  0
  161.0720  206.4290  149.3700 C   0  0  0  0  0  0  0  0  0  0  0  0
  161.0290  207.5310  152.8920 C   0  0  0  0  0  3  0  0  0  0  0  0
  161.1140  202.3860  148.0440 C   0  0  0  0  0  0  0  0  0  0  0  0
  160.4050  200.9210  145.3200 N   0  0  0  0  0  2  0  0  0  0  0  0
  162.2410  208.7520  151.1030 N   0  0  0  0  0  0  0  0  0  0  0  0
  161.0640  204.0240  149.8760 C   0  0  1  0  0  3  0  0  0  0  0  0
  161.2960  203.2480  145.6050 C   0  0  2  0  0  3  0  0  0  0  0  0
  161.0870  205.0830  148.9340 C   0  0  0  0  0  0  0  0  0  0  0  0
  160.9910  201.8410  151.7380 C   0  0  0  0  0  3  0  0  0  0  0  0
  162.3060  208.4750  148.6530 C   0  0  0  0  0  2  0  0  0  0  0  0
  161.0120  201.5980  150.4290 C   0  0  0  0  0  3  0  0  0  0  0  0
  161.1110  207.5690  148.3940 C   0  0  0  0  0  2  0  0  0  0  0  0
  161.0240  208.0010  151.4490 C   0  0  1  0  0  3  0  0  0  0  0  0
  161.0450  203.2290  152.3080 C   0  0  0  0  0  3  0  0  0  0  0  0
  161.0090  205.6550  151.6570 C   0  0  0  0  0  0  0  0  0  0  0  0
  162.4210  209.8450  152.0540 C   0  0  0  0  0  2  0  0  0  0  0  0
  161.1990  210.7440  152.0370 C   0  0  0  0  0  2  0  0  0  0  0  0
  161.0970  210.4660  155.5850 N   0  0  0  0  0  2  0  0  0  0  0  0
  159.5150  210.8190  153.8440 C   0  0  0  0  0  2  0  0  0  0  0  0
  160.8970  211.2460  153.4380 C   0  0  1  0  0  3  0  0  0  0  0  0
  159.7200  210.2010  155.2000 C   0  0  0  0  0  2  0  0  0  0  0  0
  161.8200  210.6520  154.3940 N   0  0  0  0  0  2  0  0  0  0  0  0
  1 27  1  0  0  0  0
  1 26  2  0  0  0  0
  3 16  1  0  0  0  0
  3 19  1  0  0  0  0
  4 18  1  0  0  0  0
  4 23  1  0  0  0  0
  5 11  2  0  0  0  0
  5 15  1  0  0  0  0
  7  3  2  0  0  0  0
  8 12  1  0  0  0  0
  9 25  1  0  0  0  0
  9 27  2  0  0  0  0
 10 17  1  0  0  0  0
 11 20  1  0  0  0  0
 12 15  1  0  0  0  0
 13  9  1  0  0  0  0
 14  2  2  0  0  0  0
 15  4  2  0  0  0  0
 16  8  1  0  0  0  0
 17 25  1  0  0  0  0
 17 28  1  0  0  0  0
 18 20  1  6  0  0  0
 18  1  1  0  0  0  0
 19  6  1  6  0  0  0
 19  5  1  0  0  0  0
 20 13  2  0  0  0  0
 21 26  1  0  0  0  0
 22 10  1  0  0  0  0
 23 21  2  0  0  0  0
 24 22  1  0  0  0  0
 24 13  1  0  0  0  0
 25 14  1  1  0  0  0
 27  2  1  0  0  0  0
 29 28  1  0  0  0  0
 31 33  1  0  0  0  0
 32 29  1  6  0  0  0
 32 31  1  0  0  0  0
 32 34  1  0  0  0  0
 33 30  1  0  0  0  0
 34 30  1  0  0  0  0
M  END
>  <MODEL>
1

>  <REMARK>
 VINA RESULT:     -12.4      0.000      0.000
  Name = 
  3 active torsions:
  status: ('A' for Active; 'I' for Inactive)
    1  A    between atoms: N_17  and  C_28
    2  A    between atoms: C_28  and  C_29
    3  A    between atoms: C_29  and  C_32
                            x       y       z     vdW  Elec       q    Type
                         _______ _______ _______ _____ _____    ______ ____

>  <TORSDO>
F 3

$$$$
