=
 OpenBabel11122412333D

 30 35  0  0  1  0  0  0  0  0999 V2000
  161.3900  210.3360  151.3040 C   0  0  0  0  0  0  0  0  0  0  0  0
  161.8410  211.2820  149.0270 C   0  0  0  0  0  0  0  0  0  0  0  0
  158.8780  214.0040  152.4250 S   0  0  0  0  0  0  0  0  0  0  0  0
  160.7780  210.4710  152.5770 C   0  0  0  0  0  0  0  0  0  0  0  0
  162.1740  209.0900  151.0320 C   0  0  0  0  0  2  0  0  0  0  0  0
  160.4560  206.9580  153.5210 O   0  0  0  0  0  1  0  0  0  0  0  0
  161.2280  211.0750  155.4150 C   0  0  1  0  0  3  0  0  0  0  0  0
  161.3080  207.9600  153.0490 C   0  0  1  0  0  3  0  0  0  0  0  0
  159.7600  211.3060  155.3610 C   0  0  1  0  0  3  0  0  0  0  0  0
  158.6030  213.1860  154.0420 C   0  0  1  0  0  3  0  0  0  0  0  0
  161.3950  207.8870  151.5290 C   0  0  2  0  0  3  0  0  0  0  0  0
  160.8420  209.3280  153.5970 C   0  0  1  0  0  3  0  0  0  0  0  0
  161.6490  212.3110  148.1020 C   0  0  0  0  0  3  0  0  0  0  0  0
  159.5610  212.1760  156.5810 C   0  0  0  0  0  2  0  0  0  0  0  0
  161.6040  211.3090  156.7950 N   0  0  0  0  0  2  0  0  0  0  0  0
  162.6290  210.2060  148.6360 O   0  0  0  0  0  1  0  0  0  0  0  0
  159.8600  212.6100  151.8840 C   0  0  0  0  0  0  0  0  0  0  0  0
  160.8740  213.4210  148.4230 C   0  0  0  0  0  3  0  0  0  0  0  0
  161.2450  211.3550  150.3160 C   0  0  0  0  0  0  0  0  0  0  0  0
  160.0240  211.6390  152.8430 C   0  0  0  0  0  0  0  0  0  0  0  0
  157.1350  212.8270  154.1770 C   0  0  0  0  0  1  0  0  0  0  0  0
  159.4180  211.9730  154.0990 N   0  0  0  0  0  0  0  0  0  0  0  0
  160.7960  212.3100  157.2530 O   0  0  0  0  0  0  0  0  0  0  0  0
  161.3170  208.6150  155.9680 C   0  0  0  0  0  1  0  0  0  0  0  0
  160.2820  213.5140  149.6780 C   0  0  0  0  0  3  0  0  0  0  0  0
  160.4560  212.4980  150.6250 C   0  0  0  0  0  0  0  0  0  0  0  0
  161.5940  209.6760  154.9040 C   0  0  2  0  0  3  0  0  0  0  0  0
  162.1050  206.6090  151.1130 C   0  0  0  0  0  2  0  0  0  0  0  0
  160.8330  204.4920  150.9400 C   0  0  0  0  0  1  0  0  0  0  0  0
  161.2060  205.7720  150.2220 C   0  0  0  0  0  2  0  0  0  0  0  0
  1  4  1  0  0  0  0
  2 19  1  0  0  0  0
  3 10  1  0  0  0  0
  4 20  2  0  0  0  0
  5  1  1  0  0  0  0
  5 11  1  0  0  0  0
  7 15  1  1  0  0  0
  8  6  1  6  0  0  0
  8 12  1  0  0  0  0
  9  7  1  0  0  0  0
  9 14  1  1  0  0  0
 10 22  1  0  0  0  0
 10 21  1  6  0  0  0
 11 28  1  1  0  0  0
 11  8  1  0  0  0  0
 12  4  1  6  0  0  0
 12 27  1  0  0  0  0
 13 18  1  0  0  0  0
 13  2  2  0  0  0  0
 14 23  1  0  0  0  0
 15 23  1  0  0  0  0
 16  2  1  0  0  0  0
 17  3  1  0  0  0  0
 17 20  1  0  0  0  0
 18 25  2  0  0  0  0
 19 26  1  0  0  0  0
 19  1  2  0  0  0  0
 20 22  1  0  0  0  0
 22  9  1  0  0  0  0
 25 26  1  0  0  0  0
 26 17  2  0  0  0  0
 27  7  1  0  0  0  0
 27 24  1  1  0  0  0
 30 29  1  0  0  0  0
 30 28  1  0  0  0  0
M  END
>  <MODEL>
1

>  <REMARK>
 VINA RESULT:      -7.0      0.000      0.000
  Name = 
  2 active torsions:
  status: ('A' for Active; 'I' for Inactive)
    1  A    between atoms: C_11  and  C_28
    2  A    between atoms: C_28  and  C_30
                            x       y       z     vdW  Elec       q    Type
                         _______ _______ _______ _____ _____    ______ ____

>  <TORSDO>
F 2

$$$$
=
 OpenBabel11122412333D

 30 35  0  0  1  0  0  0  0  0999 V2000
  161.4860  208.7800  152.2240 C   0  0  0  0  0  0  0  0  0  0  0  0
  162.1810  208.8580  149.8170 C   0  0  0  0  0  0  0  0  0  0  0  0
  159.9290  213.0880  152.0030 S   0  0  0  0  0  0  0  0  0  0  0  0
  160.9090  209.4330  153.3450 C   0  0  0  0  0  0  0  0  0  0  0  0
  161.9450  207.3670  152.3970 C   0  0  0  0  0  2  0  0  0  0  0  0
  159.7300  206.5470  155.2450 O   0  0  0  0  0  1  0  0  0  0  0  0
  161.4580  210.7540  155.9100 C   0  0  1  0  0  3  0  0  0  0  0  0
  160.8050  207.1350  154.5750 C   0  0  1  0  0  3  0  0  0  0  0  0
  160.0920  211.2870  155.6650 C   0  0  1  0  0  3  0  0  0  0  0  0
  159.4430  212.8870  153.7590 C   0  0  1  0  0  3  0  0  0  0  0  0
  160.8910  206.5840  153.1570 C   0  0  2  0  0  3  0  0  0  0  0  0
  160.6800  208.6730  154.6560 C   0  0  1  0  0  3  0  0  0  0  0  0
  162.2570  209.5710  148.6190 C   0  0  0  0  0  3  0  0  0  0  0  0
  160.0950  212.5080  156.5550 C   0  0  0  0  0  2  0  0  0  0  0  0
  161.8630  211.3060  157.1870 N   0  0  0  0  0  2  0  0  0  0  0  0
  162.6880  207.5640  149.8280 O   0  0  0  0  0  1  0  0  0  0  0  0
  160.5480  211.4100  151.9800 C   0  0  0  0  0  0  0  0  0  0  0  0
  161.7710  210.8730  148.5330 C   0  0  0  0  0  3  0  0  0  0  0  0
  161.6050  209.4550  150.9730 C   0  0  0  0  0  0  0  0  0  0  0  0
  160.4590  210.7670  153.1920 C   0  0  0  0  0  0  0  0  0  0  0  0
  157.9310  212.9310  153.8670 C   0  0  0  0  0  1  0  0  0  0  0  0
  159.9370  211.5970  154.2390 N   0  0  0  0  0  0  0  0  0  0  0  0
  161.3170  212.5550  157.2610 O   0  0  0  0  0  0  0  0  0  0  0  0
  160.9390  208.6280  157.1640 C   0  0  0  0  0  1  0  0  0  0  0  0
  161.2050  211.4760  149.6510 C   0  0  0  0  0  3  0  0  0  0  0  0
  161.1140  210.7860  150.8650 C   0  0  0  0  0  0  0  0  0  0  0  0
  161.4790  209.2210  155.8640 C   0  0  2  0  0  3  0  0  0  0  0  0
  161.2730  205.1130  153.1950 C   0  0  0  0  0  2  0  0  0  0  0  0
  161.2700  203.1560  151.6790 C   0  0  0  0  0  1  0  0  0  0  0  0
  161.6260  204.6220  151.8030 C   0  0  0  0  0  2  0  0  0  0  0  0
  1  5  1  0  0  0  0
  1  4  1  0  0  0  0
  2 16  1  0  0  0  0
  2 19  1  0  0  0  0
  3 10  1  0  0  0  0
  5 11  1  0  0  0  0
  7 15  1  1  0  0  0
  8 12  1  0  0  0  0
  8  6  1  6  0  0  0
  9  7  1  0  0  0  0
  9 14  1  1  0  0  0
 10 21  1  6  0  0  0
 10 22  1  0  0  0  0
 11 28  1  1  0  0  0
 11  8  1  0  0  0  0
 12  4  1  6  0  0  0
 12 27  1  0  0  0  0
 13  2  2  0  0  0  0
 14 23  1  0  0  0  0
 15 23  1  0  0  0  0
 17  3  1  0  0  0  0
 17 20  1  0  0  0  0
 18 13  1  0  0  0  0
 18 25  2  0  0  0  0
 19  1  2  0  0  0  0
 20  4  2  0  0  0  0
 20 22  1  0  0  0  0
 22  9  1  0  0  0  0
 25 26  1  0  0  0  0
 26 19  1  0  0  0  0
 26 17  2  0  0  0  0
 27  7  1  0  0  0  0
 27 24  1  1  0  0  0
 29 30  1  0  0  0  0
 30 28  1  0  0  0  0
M  END
>  <MODEL>
2

>  <REMARK>
 VINA RESULT:      -6.7      1.288      1.744
  Name = 
  2 active torsions:
  status: ('A' for Active; 'I' for Inactive)
    1  A    between atoms: C_11  and  C_28
    2  A    between atoms: C_28  and  C_30
                            x       y       z     vdW  Elec       q    Type
                         _______ _______ _______ _____ _____    ______ ____

>  <TORSDO>
F 2

$$$$
=
 OpenBabel11122412333D

 30 35  0  0  1  0  0  0  0  0999 V2000
  161.0350  207.8900  151.2760 C   0  0  0  0  0  0  0  0  0  0  0  0
  161.2060  205.4970  150.5510 C   0  0  0  0  0  0  0  0  0  0  0  0
  160.7890  206.6310  155.6780 S   0  0  0  0  0  0  0  0  0  0  0  0
  160.9080  208.8370  152.3250 C   0  0  0  0  0  0  0  0  0  0  0  0
  161.1270  208.4070  149.8740 C   0  0  0  0  0  2  0  0  0  0  0  0
  162.4040  211.7680  150.7450 O   0  0  0  0  0  1  0  0  0  0  0  0
  159.0750  210.6630  153.7150 C   0  0  1  0  0  3  0  0  0  0  0  0
  161.4740  210.7340  150.6250 C   0  0  1  0  0  3  0  0  0  0  0  0
  160.1270  210.5550  154.7590 C   0  0  1  0  0  3  0  0  0  0  0  0
  160.7020  208.4190  156.0710 C   0  0  1  0  0  3  0  0  0  0  0  0
  162.0840  209.5830  149.8320 C   0  0  2  0  0  3  0  0  0  0  0  0
  160.9620  210.3400  152.0300 C   0  0  1  0  0  3  0  0  0  0  0  0
  161.2640  204.1450  150.8990 C   0  0  0  0  0  3  0  0  0  0  0  0
  159.3580  210.9830  155.9880 C   0  0  0  0  0  2  0  0  0  0  0  0
  158.0890  211.5780  154.2540 N   0  0  0  0  0  2  0  0  0  0  0  0
  161.2650  205.8150  149.2000 O   0  0  0  0  0  1  0  0  0  0  0  0
  160.9100  207.0180  153.9360 C   0  0  0  0  0  0  0  0  0  0  0  0
  161.2090  203.7510  152.2330 C   0  0  0  0  0  3  0  0  0  0  0  0
  161.0880  206.4930  151.5600 C   0  0  0  0  0  0  0  0  0  0  0  0
  160.8320  208.3620  153.6570 C   0  0  0  0  0  0  0  0  0  0  0  0
  161.9510  208.8260  156.8300 C   0  0  0  0  0  1  0  0  0  0  0  0
  160.6140  209.1720  154.8200 N   0  0  0  0  0  0  0  0  0  0  0  0
  158.0530  211.3600  155.6010 O   0  0  0  0  0  0  0  0  0  0  0  0
  159.9240  212.6140  152.3610 C   0  0  0  0  0  1  0  0  0  0  0  0
  161.0930  204.7080  153.2350 C   0  0  0  0  0  3  0  0  0  0  0  0
  161.0330  206.0700  152.9170 C   0  0  0  0  0  0  0  0  0  0  0  0
  159.6630  211.1090  152.3700 C   0  0  2  0  0  3  0  0  0  0  0  0
  162.3090  210.0110  148.3910 C   0  0  0  0  0  2  0  0  0  0  0  0
  162.5170  212.3130  147.5070 C   0  0  0  0  0  1  0  0  0  0  0  0
  161.5620  211.2990  148.1000 C   0  0  0  0  0  2  0  0  0  0  0  0
  1 19  2  0  0  0  0
  1  4  1  0  0  0  0
  2 13  2  0  0  0  0
  2 19  1  0  0  0  0
  3 10  1  0  0  0  0
  4 20  2  0  0  0  0
  5  1  1  0  0  0  0
  7 15  1  1  0  0  0
  7  9  1  0  0  0  0
  8  6  1  1  0  0  0
  8 12  1  0  0  0  0
  9 22  1  0  0  0  0
  9 14  1  1  0  0  0
 10 21  1  6  0  0  0
 11 28  1  6  0  0  0
 11  5  1  0  0  0  0
 11  8  1  0  0  0  0
 12  4  1  6  0  0  0
 12 27  1  0  0  0  0
 13 18  1  0  0  0  0
 15 23  1  0  0  0  0
 16  2  1  0  0  0  0
 17  3  1  0  0  0  0
 18 25  2  0  0  0  0
 19 26  1  0  0  0  0
 20 17  1  0  0  0  0
 20 22  1  0  0  0  0
 22 10  1  0  0  0  0
 23 14  1  0  0  0  0
 26 25  1  0  0  0  0
 26 17  2  0  0  0  0
 27 24  1  1  0  0  0
 27  7  1  0  0  0  0
 29 30  1  0  0  0  0
 30 28  1  0  0  0  0
M  END
>  <MODEL>
3

>  <REMARK>
 VINA RESULT:      -5.2      2.352      5.451
  Name = 
  2 active torsions:
  status: ('A' for Active; 'I' for Inactive)
    1  A    between atoms: C_11  and  C_28
    2  A    between atoms: C_28  and  C_30
                            x       y       z     vdW  Elec       q    Type
                         _______ _______ _______ _____ _____    ______ ____

>  <TORSDO>
F 2

$$$$
=
 OpenBabel11122412333D

 30 35  0  0  1  0  0  0  0  0999 V2000
  160.4730  209.4540  153.2790 C   0  0  0  0  0  0  0  0  0  0  0  0
  160.9840  207.2930  154.4430 C   0  0  0  0  0  0  0  0  0  0  0  0
  159.3350  211.4280  157.2590 S   0  0  0  0  0  0  0  0  0  0  0  0
  160.0410  210.8030  153.3560 C   0  0  0  0  0  0  0  0  0  0  0  0
  160.8400  208.9110  151.9340 C   0  0  0  0  0  2  0  0  0  0  0  0
  161.6300  212.1670  150.3650 O   0  0  0  0  0  1  0  0  0  0  0  0
  157.8090  212.6490  152.8740 C   0  0  1  0  0  3  0  0  0  0  0  0
  160.8320  211.1510  150.8940 C   0  0  1  0  0  3  0  0  0  0  0  0
  158.6030  213.4890  153.8100 C   0  0  1  0  0  3  0  0  0  0  0  0
  159.0260  212.9520  156.2890 C   0  0  1  0  0  3  0  0  0  0  0  0
  161.6900  209.9270  151.1950 C   0  0  2  0  0  3  0  0  0  0  0  0
  160.0470  211.6950  152.1090 C   0  0  1  0  0  3  0  0  0  0  0  0
  161.0640  206.5680  155.6340 C   0  0  0  0  0  3  0  0  0  0  0  0
  157.5460  214.4500  154.3020 C   0  0  0  0  0  2  0  0  0  0  0  0
  156.6610  213.4570  152.5130 N   0  0  0  0  0  2  0  0  0  0  0  0
  161.3220  206.6340  153.2670 O   0  0  0  0  0  1  0  0  0  0  0  0
  159.8170  210.5710  155.7640 C   0  0  0  0  0  0  0  0  0  0  0  0
  160.7390  207.1610  156.8510 C   0  0  0  0  0  3  0  0  0  0  0  0
  160.5660  208.6530  154.4560 C   0  0  0  0  0  0  0  0  0  0  0  0
  159.7030  211.3330  154.6250 C   0  0  0  0  0  0  0  0  0  0  0  0
  160.0370  214.0110  156.6860 C   0  0  0  0  0  1  0  0  0  0  0  0
  159.1670  212.6410  154.8670 N   0  0  0  0  0  0  0  0  0  0  0  0
  156.3380  214.1890  153.6200 O   0  0  0  0  0  0  0  0  0  0  0  0
  158.7930  213.3260  150.6520 C   0  0  0  0  0  1  0  0  0  0  0  0
  160.3270  208.4890  156.8880 C   0  0  0  0  0  3  0  0  0  0  0  0
  160.2390  209.2400  155.7100 C   0  0  0  0  0  0  0  0  0  0  0  0
  158.6500  212.1990  151.6730 C   0  0  2  0  0  3  0  0  0  0  0  0
  162.2020  209.3220  149.8980 C   0  0  0  0  0  2  0  0  0  0  0  0
  161.9900  207.4330  148.3130 C   0  0  0  0  0  1  0  0  0  0  0  0
  161.5960  207.9480  149.6810 C   0  0  0  0  0  2  0  0  0  0  0  0
  1  4  2  0  0  0  0
  1 19  1  0  0  0  0
  2 19  2  0  0  0  0
  2 13  1  0  0  0  0
  4 20  1  0  0  0  0
  5  1  1  0  0  0  0
  7 15  1  6  0  0  0
  7  9  1  0  0  0  0
  8  6  1  1  0  0  0
  8 11  1  0  0  0  0
  8 12  1  0  0  0  0
  9 14  1  1  0  0  0
  9 22  1  0  0  0  0
 10 21  1  1  0  0  0
 10  3  1  0  0  0  0
 11 28  1  6  0  0  0
 11  5  1  0  0  0  0
 12  4  1  1  0  0  0
 13 18  2  0  0  0  0
 15 23  1  0  0  0  0
 16  2  1  0  0  0  0
 17  3  1  0  0  0  0
 18 25  1  0  0  0  0
 19 26  1  0  0  0  0
 20 22  1  0  0  0  0
 20 17  2  0  0  0  0
 22 10  1  0  0  0  0
 23 14  1  0  0  0  0
 26 17  1  0  0  0  0
 26 25  2  0  0  0  0
 27 24  1  6  0  0  0
 27 12  1  0  0  0  0
 27  7  1  0  0  0  0
 29 30  1  0  0  0  0
 30 28  1  0  0  0  0
M  END
>  <MODEL>
4

>  <REMARK>
 VINA RESULT:      -4.9      2.303      5.205
  Name = 
  2 active torsions:
  status: ('A' for Active; 'I' for Inactive)
    1  A    between atoms: C_11  and  C_28
    2  A    between atoms: C_28  and  C_30
                            x       y       z     vdW  Elec       q    Type
                         _______ _______ _______ _____ _____    ______ ____

>  <TORSDO>
F 2

$$$$
=
 OpenBabel11122412333D

 30 35  0  0  1  0  0  0  0  0999 V2000
  160.9560  210.1110  151.3130 C   0  0  0  0  0  0  0  0  0  0  0  0
  161.8450  207.7720  151.1630 C   0  0  0  0  0  0  0  0  0  0  0  0
  160.1240  209.6000  155.7940 S   0  0  0  0  0  0  0  0  0  0  0  0
  160.3920  211.1490  152.0990 C   0  0  0  0  0  0  0  0  0  0  0  0
  161.2060  210.3870  149.8640 C   0  0  0  0  0  2  0  0  0  0  0  0
  161.4270  214.0680  150.1650 O   0  0  0  0  0  1  0  0  0  0  0  0
  157.9270  212.6020  152.7600 C   0  0  1  0  0  3  0  0  0  0  0  0
  160.8190  212.8110  150.1340 C   0  0  1  0  0  3  0  0  0  0  0  0
  158.7360  212.9700  153.9510 C   0  0  1  0  0  3  0  0  0  0  0  0
  159.5280  211.3330  155.7700 C   0  0  1  0  0  3  0  0  0  0  0  0
  161.8380  211.7570  149.7140 C   0  0  2  0  0  3  0  0  0  0  0  0
  160.1410  212.5350  151.4950 C   0  0  1  0  0  3  0  0  0  0  0  0
  162.1560  206.5690  151.8020 C   0  0  0  0  0  3  0  0  0  0  0  0
  157.6520  213.3700  154.9240 C   0  0  0  0  0  2  0  0  0  0  0  0
  156.6600  213.2860  152.9290 N   0  0  0  0  0  2  0  0  0  0  0  0
  162.1020  207.8590  149.8000 O   0  0  0  0  0  1  0  0  0  0  0  0
  160.5030  209.7030  154.0480 C   0  0  0  0  0  0  0  0  0  0  0  0
  161.9250  206.4080  153.1660 C   0  0  0  0  0  3  0  0  0  0  0  0
  161.2860  208.8530  151.9000 C   0  0  0  0  0  0  0  0  0  0  0  0
  160.1610  210.9050  153.4750 C   0  0  0  0  0  0  0  0  0  0  0  0
  160.4590  212.1930  156.6030 C   0  0  0  0  0  1  0  0  0  0  0  0
  159.5200  211.8080  154.3860 N   0  0  0  0  0  0  0  0  0  0  0  0
  156.4020  213.2980  154.2700 O   0  0  0  0  0  0  0  0  0  0  0  0
  158.5390  214.4530  151.1590 C   0  0  0  0  0  1  0  0  0  0  0  0
  161.3780  207.4510  153.9050 C   0  0  0  0  0  3  0  0  0  0  0  0
  161.0580  208.6680  153.2920 C   0  0  0  0  0  0  0  0  0  0  0  0
  158.6520  212.9590  151.4560 C   0  0  2  0  0  3  0  0  0  0  0  0
  162.2440  211.9790  148.2650 C   0  0  0  0  0  2  0  0  0  0  0  0
  161.2200  213.3100  146.4470 C   0  0  0  0  0  1  0  0  0  0  0  0
  161.0150  212.1450  147.3920 C   0  0  0  0  0  2  0  0  0  0  0  0
  1 19  2  0  0  0  0
  1  4  1  0  0  0  0
  2 13  2  0  0  0  0
  2 19  1  0  0  0  0
  4 20  2  0  0  0  0
  5  1  1  0  0  0  0
  7 15  1  1  0  0  0
  7  9  1  0  0  0  0
  8  6  1  1  0  0  0
  8 12  1  0  0  0  0
  9 22  1  0  0  0  0
  9 14  1  1  0  0  0
 10  3  1  0  0  0  0
 10 21  1  1  0  0  0
 11 28  1  6  0  0  0
 11  5  1  0  0  0  0
 11  8  1  0  0  0  0
 12  4  1  6  0  0  0
 13 18  1  0  0  0  0
 15 23  1  0  0  0  0
 16  2  1  0  0  0  0
 17  3  1  0  0  0  0
 18 25  2  0  0  0  0
 19 26  1  0  0  0  0
 20 17  1  0  0  0  0
 20 22  1  0  0  0  0
 22 10  1  0  0  0  0
 23 14  1  0  0  0  0
 26 25  1  0  0  0  0
 26 17  2  0  0  0  0
 27 24  1  1  0  0  0
 27 12  1  0  0  0  0
 27  7  1  0  0  0  0
 29 30  1  0  0  0  0
 30 28  1  0  0  0  0
M  END
>  <MODEL>
5

>  <REMARK>
 VINA RESULT:      -4.7      2.098      5.235
  Name = 
  2 active torsions:
  status: ('A' for Active; 'I' for Inactive)
    1  A    between atoms: C_11  and  C_28
    2  A    between atoms: C_28  and  C_30
                            x       y       z     vdW  Elec       q    Type
                         _______ _______ _______ _____ _____    ______ ____

>  <TORSDO>
F 2

$$$$
=
 OpenBabel11122412333D

 30 35  0  0  1  0  0  0  0  0999 V2000
  160.9910  207.4430  151.4430 C   0  0  0  0  0  0  0  0  0  0  0  0
  160.8940  204.9570  151.1340 C   0  0  0  0  0  0  0  0  0  0  0  0
  160.8350  206.9700  156.0010 S   0  0  0  0  0  0  0  0  0  0  0  0
  161.0070  208.5590  152.3180 C   0  0  0  0  0  0  0  0  0  0  0  0
  161.0660  207.7050  149.9710 C   0  0  0  0  0  2  0  0  0  0  0  0
  162.7040  211.0140  150.2140 O   0  0  0  0  0  1  0  0  0  0  0  0
  159.4290  210.7720  153.4300 C   0  0  1  0  0  3  0  0  0  0  0  0
  161.6730  210.0760  150.3020 C   0  0  1  0  0  3  0  0  0  0  0  0
  160.5140  210.7320  154.4450 C   0  0  1  0  0  3  0  0  0  0  0  0
  160.9400  208.7980  156.0850 C   0  0  1  0  0  3  0  0  0  0  0  0
  162.1300  208.7520  149.7000 C   0  0  2  0  0  3  0  0  0  0  0  0
  161.1930  209.9780  151.7680 C   0  0  1  0  0  3  0  0  0  0  0  0
  160.8360  203.6840  151.7060 C   0  0  0  0  0  3  0  0  0  0  0  0
  159.8500  211.4370  155.6050 C   0  0  0  0  0  2  0  0  0  0  0  0
  158.5640  211.8620  153.8340 N   0  0  0  0  0  2  0  0  0  0  0  0
  160.9180  205.0370  149.7470 O   0  0  0  0  0  1  0  0  0  0  0  0
  160.9090  207.0450  154.2150 C   0  0  0  0  0  0  0  0  0  0  0  0
  160.8070  203.5260  153.0890 C   0  0  0  0  0  3  0  0  0  0  0  0
  160.9210  206.1150  151.9600 C   0  0  0  0  0  0  0  0  0  0  0  0
  160.9490  208.3250  153.7130 C   0  0  0  0  0  0  0  0  0  0  0  0
  162.2580  209.1930  156.7250 C   0  0  0  0  0  1  0  0  0  0  0  0
  160.8670  209.3360  154.7270 N   0  0  0  0  0  0  0  0  0  0  0  0
  158.5710  211.8780  155.2000 O   0  0  0  0  0  0  0  0  0  0  0  0
  160.3980  212.3710  151.7370 C   0  0  0  0  0  1  0  0  0  0  0  0
  160.8330  204.6440  153.9160 C   0  0  0  0  0  3  0  0  0  0  0  0
  160.8910  205.9320  153.3710 C   0  0  0  0  0  0  0  0  0  0  0  0
  159.9920  210.9240  152.0110 C   0  0  2  0  0  3  0  0  0  0  0  0
  162.3260  208.9070  148.2000 C   0  0  0  0  0  2  0  0  0  0  0  0
  162.3480  206.6620  147.1570 C   0  0  0  0  0  1  0  0  0  0  0  0
  161.4980  207.8800  147.4510 C   0  0  0  0  0  2  0  0  0  0  0  0
  1 19  2  0  0  0  0
  1  4  1  0  0  0  0
  2 13  2  0  0  0  0
  2 19  1  0  0  0  0
  3 10  1  0  0  0  0
  4 20  2  0  0  0  0
  5  1  1  0  0  0  0
  7 15  1  1  0  0  0
  7  9  1  0  0  0  0
  8  6  1  1  0  0  0
  8 12  1  0  0  0  0
  9 22  1  0  0  0  0
  9 14  1  1  0  0  0
 10 21  1  6  0  0  0
 11 28  1  6  0  0  0
 11  5  1  0  0  0  0
 11  8  1  0  0  0  0
 12 27  1  0  0  0  0
 12  4  1  6  0  0  0
 13 18  1  0  0  0  0
 15 23  1  0  0  0  0
 16  2  1  0  0  0  0
 17  3  1  0  0  0  0
 18 25  2  0  0  0  0
 19 26  1  0  0  0  0
 20 17  1  0  0  0  0
 20 22  1  0  0  0  0
 22 10  1  0  0  0  0
 23 14  1  0  0  0  0
 26 25  1  0  0  0  0
 26 17  2  0  0  0  0
 27 24  1  1  0  0  0
 27  7  1  0  0  0  0
 29 30  1  0  0  0  0
 30 28  1  0  0  0  0
M  END
>  <MODEL>
6

>  <REMARK>
 VINA RESULT:      -4.6      2.424      5.364
  Name = 
  2 active torsions:
  status: ('A' for Active; 'I' for Inactive)
    1  A    between atoms: C_11  and  C_28
    2  A    between atoms: C_28  and  C_30
                            x       y       z     vdW  Elec       q    Type
                         _______ _______ _______ _____ _____    ______ ____

>  <TORSDO>
F 2

$$$$
=
 OpenBabel11122412333D

 30 35  0  0  1  0  0  0  0  0999 V2000
  160.6810  210.2810  151.5900 C   0  0  0  0  0  0  0  0  0  0  0  0
  161.8260  208.2140  150.7520 C   0  0  0  0  0  0  0  0  0  0  0  0
  160.5370  208.5800  155.8460 S   0  0  0  0  0  0  0  0  0  0  0  0
  160.1040  210.9980  152.6700 C   0  0  0  0  0  0  0  0  0  0  0  0
  160.6950  210.9340  150.2430 C   0  0  0  0  0  2  0  0  0  0  0  0
  160.4940  214.4210  151.4620 O   0  0  0  0  0  1  0  0  0  0  0  0
  157.5900  211.8480  153.9270 C   0  0  1  0  0  3  0  0  0  0  0  0
  160.0490  213.1300  151.1680 C   0  0  1  0  0  3  0  0  0  0  0  0
  158.5020  212.0390  155.0860 C   0  0  1  0  0  3  0  0  0  0  0  0
  159.7320  210.1540  156.3300 C   0  0  1  0  0  3  0  0  0  0  0  0
  161.1250  212.3810  150.3900 C   0  0  2  0  0  3  0  0  0  0  0  0
  159.6020  212.4330  152.4730 C   0  0  1  0  0  3  0  0  0  0  0  0
  162.3680  206.9560  151.0240 C   0  0  0  0  0  3  0  0  0  0  0  0
  157.5190  212.0180  156.2330 C   0  0  0  0  0  2  0  0  0  0  0  0
  156.2840  212.2660  154.3940 N   0  0  0  0  0  2  0  0  0  0  0  0
  161.8810  208.6670  149.4390 O   0  0  0  0  0  1  0  0  0  0  0  0
  160.6590  209.1590  154.1580 C   0  0  0  0  0  0  0  0  0  0  0  0
  162.3470  206.4360  152.3150 C   0  0  0  0  0  3  0  0  0  0  0  0
  161.2410  208.9850  151.7950 C   0  0  0  0  0  0  0  0  0  0  0  0
  160.0950  210.3970  153.9520 C   0  0  0  0  0  0  0  0  0  0  0  0
  160.6540  210.9210  157.2600 C   0  0  0  0  0  1  0  0  0  0  0  0
  159.4770  210.9420  155.1250 N   0  0  0  0  0  0  0  0  0  0  0  0
  156.2110  211.9150  155.7110 O   0  0  0  0  0  0  0  0  0  0  0  0
  157.7430  214.1030  152.8060 C   0  0  0  0  0  1  0  0  0  0  0  0
  161.7800  207.1720  153.3500 C   0  0  0  0  0  3  0  0  0  0  0  0
  161.2300  208.4360  153.1080 C   0  0  0  0  0  0  0  0  0  0  0  0
  158.0810  212.6180  152.6950 C   0  0  2  0  0  3  0  0  0  0  0  0
  161.2990  213.0060  149.0150 C   0  0  0  0  0  2  0  0  0  0  0  0
  163.3850  212.3570  147.8530 C   0  0  0  0  0  1  0  0  0  0  0  0
  161.9260  212.0100  148.0580 C   0  0  0  0  0  2  0  0  0  0  0  0
  1 19  2  0  0  0  0
  1  4  1  0  0  0  0
  2 13  2  0  0  0  0
  2 19  1  0  0  0  0
  3 10  1  0  0  0  0
  4 20  2  0  0  0  0
  5 11  1  0  0  0  0
  5  1  1  0  0  0  0
  7 15  1  1  0  0  0
  7  9  1  0  0  0  0
  8  6  1  1  0  0  0
  8 12  1  0  0  0  0
  9 22  1  0  0  0  0
  9 14  1  1  0  0  0
 10 21  1  1  0  0  0
 11 28  1  6  0  0  0
 11  8  1  0  0  0  0
 12  4  1  6  0  0  0
 12 27  1  0  0  0  0
 13 18  1  0  0  0  0
 15 23  1  0  0  0  0
 16  2  1  0  0  0  0
 17  3  1  0  0  0  0
 18 25  2  0  0  0  0
 19 26  1  0  0  0  0
 20 17  1  0  0  0  0
 20 22  1  0  0  0  0
 22 10  1  0  0  0  0
 23 14  1  0  0  0  0
 26 25  1  0  0  0  0
 26 17  2  0  0  0  0
 27 24  1  1  0  0  0
 27  7  1  0  0  0  0
 29 30  1  0  0  0  0
 30 28  1  0  0  0  0
M  END
>  <MODEL>
7

>  <REMARK>
 VINA RESULT:      -4.6      2.212      5.085
  Name = 
  2 active torsions:
  status: ('A' for Active; 'I' for Inactive)
    1  A    between atoms: C_11  and  C_28
    2  A    between atoms: C_28  and  C_30
                            x       y       z     vdW  Elec       q    Type
                         _______ _______ _______ _____ _____    ______ ____

>  <TORSDO>
F 2

$$$$
=
 OpenBabel11122412333D

 30 35  0  0  1  0  0  0  0  0999 V2000
  159.2540  212.7530  152.9020 C   0  0  0  0  0  0  0  0  0  0  0  0
  159.4050  212.2730  155.3570 C   0  0  0  0  0  0  0  0  0  0  0  0
  162.5360  209.6780  152.0100 S   0  0  0  0  0  0  0  0  0  0  0  0
  159.7090  212.4970  151.5820 C   0  0  0  0  0  0  0  0  0  0  0  0
  158.1640  213.7630  153.0820 C   0  0  0  0  0  2  0  0  0  0  0  0
  156.7600  213.4860  149.6700 O   0  0  0  0  0  1  0  0  0  0  0  0
  161.3470  213.5010  149.3610 C   0  0  1  0  0  3  0  0  0  0  0  0
  157.6740  213.8460  150.6640 C   0  0  1  0  0  3  0  0  0  0  0  0
  161.2620  212.0730  148.9560 C   0  0  1  0  0  3  0  0  0  0  0  0
  162.3030  210.1040  150.2420 C   0  0  1  0  0  3  0  0  0  0  0  0
  157.0890  213.5360  152.0370 C   0  0  2  0  0  3  0  0  0  0  0  0
  159.0330  213.1660  150.3810 C   0  0  1  0  0  3  0  0  0  0  0  0
  159.9860  211.5450  156.3980 C   0  0  0  0  0  3  0  0  0  0  0  0
  162.4510  211.9650  148.0300 C   0  0  0  0  0  2  0  0  0  0  0  0
  162.1180  214.1500  148.3200 N   0  0  0  0  0  2  0  0  0  0  0  0
  158.4300  213.2050  155.6920 O   0  0  0  0  0  1  0  0  0  0  0  0
  161.2530  210.8400  152.4610 C   0  0  0  0  0  0  0  0  0  0  0  0
  160.9710  210.5950  156.1390 C   0  0  0  0  0  3  0  0  0  0  0  0
  159.8130  212.0540  154.0120 C   0  0  0  0  0  0  0  0  0  0  0  0
  160.7320  211.5350  151.3960 C   0  0  0  0  0  0  0  0  0  0  0  0
  161.7430  208.9000  149.5080 C   0  0  0  0  0  1  0  0  0  0  0  0
  161.3650  211.2220  150.1480 N   0  0  0  0  0  0  0  0  0  0  0  0
  163.0440  213.2400  147.8980 O   0  0  0  0  0  0  0  0  0  0  0  0
  159.3030  214.4530  148.2300 C   0  0  0  0  0  1  0  0  0  0  0  0
  161.3860  210.3650  154.8320 C   0  0  0  0  0  3  0  0  0  0  0  0
  160.8200  211.0790  153.7680 C   0  0  0  0  0  0  0  0  0  0  0  0
  159.9530  214.1090  149.5680 C   0  0  2  0  0  3  0  0  0  0  0  0
  155.9040  214.4490  152.3120 C   0  0  0  0  0  2  0  0  0  0  0  0
  154.9650  214.3360  154.6000 C   0  0  0  0  0  1  0  0  0  0  0  0
  154.8960  213.7500  153.2050 C   0  0  0  0  0  2  0  0  0  0  0  0
  1  5  1  0  0  0  0
  1 19  1  0  0  0  0
  2 16  1  0  0  0  0
  2 13  1  0  0  0  0
  3 17  1  0  0  0  0
  4  1  2  0  0  0  0
  7 15  1  6  0  0  0
  7 27  1  0  0  0  0
  8  6  1  6  0  0  0
  8 11  1  0  0  0  0
  9 14  1  6  0  0  0
  9  7  1  0  0  0  0
  9 22  1  0  0  0  0
 10 21  1  6  0  0  0
 10  3  1  0  0  0  0
 11 28  1  1  0  0  0
 11  5  1  0  0  0  0
 12  8  1  0  0  0  0
 12  4  1  1  0  0  0
 17 26  1  0  0  0  0
 18 13  2  0  0  0  0
 19  2  2  0  0  0  0
 20  4  1  0  0  0  0
 20 17  2  0  0  0  0
 22 10  1  0  0  0  0
 22 20  1  0  0  0  0
 23 14  1  0  0  0  0
 23 15  1  0  0  0  0
 25 18  1  0  0  0  0
 26 19  1  0  0  0  0
 26 25  2  0  0  0  0
 27 24  1  6  0  0  0
 27 12  1  0  0  0  0
 28 30  1  0  0  0  0
 30 29  1  0  0  0  0
M  END
>  <MODEL>
8

>  <REMARK>
 VINA RESULT:      -4.4      2.852      7.301
  Name = 
  2 active torsions:
  status: ('A' for Active; 'I' for Inactive)
    1  A    between atoms: C_11  and  C_28
    2  A    between atoms: C_28  and  C_30
                            x       y       z     vdW  Elec       q    Type
                         _______ _______ _______ _____ _____    ______ ____

>  <TORSDO>
F 2

$$$$
