=
 OpenBabel11122412583D

 32 37  0  0  1  0  0  0  0  0999 V2000
  161.2880  201.4400  150.4380 C   0  0  0  0  0  2  0  0  0  0  0  0
  160.8870  206.9300  152.0280 C   0  0  1  0  0  3  0  0  0  0  0  0
  161.9280  210.1890  148.5200 C   0  0  0  0  0  3  0  0  0  0  0  0
  162.1500  211.1830  149.4740 C   0  0  0  0  0  3  0  0  0  0  0  0
  160.9500  207.7210  154.5210 C   0  0  1  0  0  3  0  0  0  0  0  0
  161.1480  208.8940  155.5000 C   0  0  2  0  0  3  0  0  0  0  0  0
  161.5450  204.5240  151.6080 N   0  0  2  0  0  0  0  0  0  0  0  0
  161.1860  206.1060  149.7040 C   0  0  0  0  0  2  0  0  0  0  0  0
  161.6750  211.0800  155.9180 C   0  0  1  0  0  3  0  0  0  0  0  0
  161.2160  203.6870  149.2750 C   0  0  0  0  0  2  0  0  0  0  0  0
  161.7570  208.8620  148.9200 C   0  0  0  0  0  3  0  0  0  0  0  0
  161.7030  207.0950  150.7460 C   0  0  1  0  0  3  0  0  0  0  0  0
  161.7850  208.5240  150.2820 C   0  0  0  0  0  0  0  0  0  0  0  0
  162.0920  209.1150  152.7040 C   0  0  1  0  0  3  0  0  0  0  0  0
  160.3500  210.8270  156.3440 O   0  0  0  0  0  0  0  0  0  0  0  0
  161.9640  202.1160  151.6330 C   0  0  0  0  0  2  0  0  0  0  0  0
  160.8400  204.7380  150.3200 C   0  0  1  0  0  3  0  0  0  0  0  0
  159.9460  209.6650  155.7490 N   0  0  0  0  0  2  0  0  0  0  0  0
  161.1320  203.2550  152.2030 C   0  0  0  0  0  2  0  0  0  0  0  0
  160.4800  202.3800  149.5400 C   0  0  1  0  0  3  0  0  0  0  0  0
  162.2010  210.8520  150.8300 C   0  0  0  0  0  3  0  0  0  0  0  0
  162.0120  209.5220  151.2470 C   0  0  0  0  0  0  0  0  0  0  0  0
  162.0130  210.3180  153.6370 C   0  0  0  0  0  2  0  0  0  0  0  0
  161.1710  205.5360  152.6130 C   0  0  0  0  0  2  0  0  0  0  0  0
  159.6920  206.9410  154.8850 C   0  0  0  0  0  1  0  0  0  0  0  0
  162.5690  211.2780  157.1270 C   0  0  0  0  0  1  0  0  0  0  0  0
  160.9570  208.1250  153.0310 C   0  0  1  0  0  3  0  0  0  0  0  0
  162.1660  209.9130  155.1000 C   0  0  2  0  0  3  0  0  0  0  0  0
  160.1900  201.7080  148.2840 N   0  0  0  0  0  2  0  0  0  0  0  0
  160.7800  202.1140  147.0480 C   0  0  0  0  0  0  0  0  0  0  0  0
  161.6470  203.1990  147.0010 O   0  0  0  0  0  1  0  0  0  0  0  0
  160.5090  201.4860  145.9910 O   0  0  0  0  0  0  0  0  0  0  0  0
  1 16  1  0  0  0  0
  2 24  1  1  0  0  0
  2 27  1  0  0  0  0
  3 11  2  0  0  0  0
  3  4  1  0  0  0  0
  4 21  2  0  0  0  0
  5 25  1  1  0  0  0
  5  6  1  0  0  0  0
  6 18  1  6  0  0  0
  7 19  1  1  0  0  0
  7 24  1  0  0  0  0
  8 17  1  0  0  0  0
  9 15  1  0  0  0  0
  9 26  1  1  0  0  0
 10 20  1  0  0  0  0
 11 13  1  0  0  0  0
 12  8  1  6  0  0  0
 12  2  1  0  0  0  0
 13 12  1  0  0  0  0
 13 22  2  0  0  0  0
 14 27  1  0  0  0  0
 14 23  1  1  0  0  0
 16 19  1  0  0  0  0
 17 10  1  6  0  0  0
 17  7  1  0  0  0  0
 18 15  1  0  0  0  0
 20 29  1  6  0  0  0
 20  1  1  0  0  0  0
 21 22  1  0  0  0  0
 22 14  1  0  0  0  0
 23 28  1  0  0  0  0
 27  5  1  0  0  0  0
 28  6  1  0  0  0  0
 28  9  1  0  0  0  0
 30 29  1  0  0  0  0
 31 30  1  0  0  0  0
 32 30  2  0  0  0  0
M  END
>  <MODEL>
1

>  <REMARK>
 VINA RESULT:      -9.8      0.000      0.000
  Name = 
  1 active torsions:
  status: ('A' for Active; 'I' for Inactive)
    1  A    between atoms: C_20  and  N_29
                            x       y       z     vdW  Elec       q    Type
                         _______ _______ _______ _____ _____    ______ ____

>  <TORSDO>
F 1

$$$$
=
 OpenBabel11122412583D

 32 37  0  0  1  0  0  0  0  0999 V2000
  161.9620  210.6860  154.2950 C   0  0  0  0  0  2  0  0  0  0  0  0
  161.0190  206.6580  150.3300 C   0  0  1  0  0  3  0  0  0  0  0  0
  160.2240  202.1560  152.0940 C   0  0  0  0  0  3  0  0  0  0  0  0
  160.5400  201.5890  150.8590 C   0  0  0  0  0  3  0  0  0  0  0  0
  161.7180  206.9080  147.8220 C   0  0  1  0  0  3  0  0  0  0  0  0
  161.9840  206.2030  146.4780 C   0  0  2  0  0  3  0  0  0  0  0  0
  161.9680  208.3770  151.9250 N   0  0  2  0  0  0  0  0  0  0  0  0
  160.7170  206.3880  152.7810 C   0  0  0  0  0  2  0  0  0  0  0  0
  162.1770  204.2990  145.2250 C   0  0  1  0  0  3  0  0  0  0  0  0
  161.0830  208.3130  154.2620 C   0  0  0  0  0  2  0  0  0  0  0  0
  160.4540  203.5150  152.3170 C   0  0  0  0  0  3  0  0  0  0  0  0
  161.3350  205.7650  151.5310 C   0  0  1  0  0  3  0  0  0  0  0  0
  160.9820  204.3220  151.2980 C   0  0  0  0  0  0  0  0  0  0  0  0
  161.9240  204.6400  148.9900 C   0  0  1  0  0  3  0  0  0  0  0  0
  161.1330  205.1000  144.7040 O   0  0  0  0  0  0  0  0  0  0  0  0
  162.8380  210.3440  153.0860 C   0  0  0  0  0  2  0  0  0  0  0  0
  160.8610  207.9200  152.8020 C   0  0  1  0  0  3  0  0  0  0  0  0
  160.7980  206.0090  145.6680 N   0  0  0  0  0  2  0  0  0  0  0  0
  162.0240  209.8370  151.9050 C   0  0  0  0  0  2  0  0  0  0  0  0
  160.7410  209.7810  154.4810 C   0  0  1  0  0  3  0  0  0  0  0  0
  161.0860  202.3800  149.8440 C   0  0  0  0  0  3  0  0  0  0  0  0
  161.3040  203.7540  150.0520 C   0  0  0  0  0  0  0  0  0  0  0  0
  161.9110  203.9790  147.6170 C   0  0  0  0  0  2  0  0  0  0  0  0
  161.7440  208.0020  150.5170 C   0  0  0  0  0  2  0  0  0  0  0  0
  160.8210  208.1220  147.6090 C   0  0  0  0  0  1  0  0  0  0  0  0
  163.3520  204.3080  144.2660 C   0  0  0  0  0  1  0  0  0  0  0  0
  161.1700  205.9840  148.9300 C   0  0  1  0  0  3  0  0  0  0  0  0
  162.6000  204.8430  146.5650 C   0  0  2  0  0  3  0  0  0  0  0  0
  160.2040  209.9750  155.8180 N   0  0  0  0  0  2  0  0  0  0  0  0
  159.1450  210.8940  156.0880 C   0  0  0  0  0  0  0  0  0  0  0  0
  158.6000  211.6650  155.0680 O   0  0  0  0  0  0  0  0  0  0  0  0
  158.7040  211.0100  157.2610 O   0  0  0  0  0  1  0  0  0  0  0  0
  1 20  1  0  0  0  0
  2 24  1  6  0  0  0
  2 12  1  0  0  0  0
  3 11  1  0  0  0  0
  4  3  2  0  0  0  0
  5 25  1  6  0  0  0
  5 27  1  0  0  0  0
  6 18  1  1  0  0  0
  6 28  1  0  0  0  0
  6  5  1  0  0  0  0
  7 24  1  6  0  0  0
  7 17  1  0  0  0  0
  9 26  1  6  0  0  0
  9 28  1  0  0  0  0
 10 20  1  0  0  0  0
 12  8  1  1  0  0  0
 13 12  1  0  0  0  0
 13 11  2  0  0  0  0
 14 23  1  6  0  0  0
 14 22  1  0  0  0  0
 15  9  1  0  0  0  0
 15 18  1  0  0  0  0
 16  1  1  0  0  0  0
 17  8  1  1  0  0  0
 17 10  1  0  0  0  0
 19  7  1  0  0  0  0
 19 16  1  0  0  0  0
 20 29  1  1  0  0  0
 21 22  2  0  0  0  0
 21  4  1  0  0  0  0
 22 13  1  0  0  0  0
 27 14  1  0  0  0  0
 27  2  1  0  0  0  0
 28 23  1  0  0  0  0
 29 30  1  0  0  0  0
 30 32  1  0  0  0  0
 31 30  2  0  0  0  0
M  END
>  <MODEL>
2

>  <REMARK>
 VINA RESULT:      -7.1      2.113      8.805
  Name = 
  1 active torsions:
  status: ('A' for Active; 'I' for Inactive)
    1  A    between atoms: C_20  and  N_29
                            x       y       z     vdW  Elec       q    Type
                         _______ _______ _______ _____ _____    ______ ____

>  <TORSDO>
F 1

$$$$
=
 OpenBabel11122412583D

 32 37  0  0  1  0  0  0  0  0999 V2000
  161.2430  201.1360  149.1040 C   0  0  0  0  0  2  0  0  0  0  0  0
  160.8170  206.3180  151.5110 C   0  0  1  0  0  3  0  0  0  0  0  0
  161.9570  210.0710  148.5740 C   0  0  0  0  0  3  0  0  0  0  0  0
  162.1580  210.9050  149.6750 C   0  0  0  0  0  3  0  0  0  0  0  0
  160.8180  206.7150  154.0970 C   0  0  1  0  0  3  0  0  0  0  0  0
  160.9940  207.7220  155.2500 C   0  0  2  0  0  3  0  0  0  0  0  0
  161.4790  204.0000  150.7420 N   0  0  2  0  0  0  0  0  0  0  0  0
  161.1730  205.8600  149.0960 C   0  0  0  0  0  2  0  0  0  0  0  0
  161.5170  209.8140  156.0130 C   0  0  1  0  0  3  0  0  0  0  0  0
  161.2070  203.5360  148.3000 C   0  0  0  0  0  2  0  0  0  0  0  0
  161.7720  208.7000  148.7610 C   0  0  0  0  0  3  0  0  0  0  0  0
  161.6670  206.6730  150.2910 C   0  0  1  0  0  3  0  0  0  0  0  0
  161.7650  208.1550  150.0540 C   0  0  0  0  0  0  0  0  0  0  0  0
  162.0110  208.3640  152.5460 C   0  0  1  0  0  3  0  0  0  0  0  0
  160.1800  209.5080  156.3610 O   0  0  0  0  0  0  0  0  0  0  0  0
  161.8900  201.6150  150.4060 C   0  0  0  0  0  2  0  0  0  0  0  0
  160.8080  204.4160  149.4850 C   0  0  1  0  0  3  0  0  0  0  0  0
  159.7890  208.4530  155.5850 N   0  0  0  0  0  2  0  0  0  0  0  0
  161.0470  202.6580  151.1240 C   0  0  0  0  0  2  0  0  0  0  0  0
  160.4610  202.2080  148.3420 C   0  0  1  0  0  3  0  0  0  0  0  0
  162.1730  210.3680  150.9650 C   0  0  0  0  0  3  0  0  0  0  0  0
  161.9690  208.9920  151.1670 C   0  0  0  0  0  0  0  0  0  0  0  0
  161.9110  209.4100  153.6510 C   0  0  0  0  0  2  0  0  0  0  0  0
  161.0820  204.8480  151.8810 C   0  0  0  0  0  2  0  0  0  0  0  0
  159.5490  205.8960  154.3050 C   0  0  0  0  0  1  0  0  0  0  0  0
  162.3800  209.8170  157.2600 C   0  0  0  0  0  1  0  0  0  0  0  0
  160.8640  207.3440  152.6880 C   0  0  1  0  0  3  0  0  0  0  0  0
  162.0250  208.7830  155.0370 C   0  0  2  0  0  3  0  0  0  0  0  0
  160.2020  201.7400  146.9900 N   0  0  0  0  0  2  0  0  0  0  0  0
  160.8130  200.5620  146.4620 C   0  0  0  0  0  0  0  0  0  0  0  0
  161.7100  199.8260  147.2270 O   0  0  0  0  0  1  0  0  0  0  0  0
  160.5400  200.1900  145.2910 O   0  0  0  0  0  0  0  0  0  0  0  0
  1 16  1  0  0  0  0
  2 24  1  1  0  0  0
  2 27  1  0  0  0  0
  3 11  2  0  0  0  0
  3  4  1  0  0  0  0
  4 21  2  0  0  0  0
  5 25  1  1  0  0  0
  5  6  1  0  0  0  0
  6 18  1  6  0  0  0
  7 19  1  1  0  0  0
  7 24  1  0  0  0  0
  8 17  1  0  0  0  0
  9 15  1  0  0  0  0
  9 26  1  1  0  0  0
 10 20  1  0  0  0  0
 11 13  1  0  0  0  0
 12  8  1  6  0  0  0
 12  2  1  0  0  0  0
 13 12  1  0  0  0  0
 13 22  2  0  0  0  0
 14 27  1  0  0  0  0
 14 23  1  1  0  0  0
 16 19  1  0  0  0  0
 17 10  1  6  0  0  0
 17  7  1  0  0  0  0
 18 15  1  0  0  0  0
 20 29  1  6  0  0  0
 20  1  1  0  0  0  0
 21 22  1  0  0  0  0
 22 14  1  0  0  0  0
 23 28  1  0  0  0  0
 27  5  1  0  0  0  0
 28  6  1  0  0  0  0
 28  9  1  0  0  0  0
 30 29  1  0  0  0  0
 30 31  1  0  0  0  0
 32 30  2  0  0  0  0
M  END
>  <MODEL>
3

>  <REMARK>
 VINA RESULT:      -6.9      1.136      1.193
  Name = 
  1 active torsions:
  status: ('A' for Active; 'I' for Inactive)
    1  A    between atoms: C_20  and  N_29
                            x       y       z     vdW  Elec       q    Type
                         _______ _______ _______ _____ _____    ______ ____

>  <TORSDO>
F 1

$$$$
=
 OpenBabel11122412583D

 32 37  0  0  1  0  0  0  0  0999 V2000
  162.3330  213.3520  146.2620 C   0  0  0  0  0  2  0  0  0  0  0  0
  160.2470  211.4800  151.2590 C   0  0  1  0  0  3  0  0  0  0  0  0
  156.9680  214.4410  153.3790 C   0  0  0  0  0  3  0  0  0  0  0  0
  157.1790  213.8300  154.6160 C   0  0  0  0  0  3  0  0  0  0  0  0
  161.4340  209.6760  152.7360 C   0  0  1  0  0  3  0  0  0  0  0  0
  161.5530  209.0160  154.1220 C   0  0  2  0  0  3  0  0  0  0  0  0
  161.6160  212.4380  149.3590 N   0  0  2  0  0  0  0  0  0  0  0  0
  159.3950  213.4180  149.9600 C   0  0  0  0  0  2  0  0  0  0  0  0
  160.9880  208.9010  156.3360 C   0  0  1  0  0  3  0  0  0  0  0  0
  160.3980  213.9460  147.7810 C   0  0  0  0  0  2  0  0  0  0  0  0
  157.8070  214.1460  152.3030 C   0  0  0  0  0  3  0  0  0  0  0  0
  159.8350  212.9500  151.3460 C   0  0  1  0  0  3  0  0  0  0  0  0
  158.8510  213.2200  152.4510 C   0  0  0  0  0  0  0  0  0  0  0  0
  160.2390  211.6520  153.8390 C   0  0  1  0  0  3  0  0  0  0  0  0
  160.6130  207.6980  155.6930 O   0  0  0  0  0  0  0  0  0  0  0  0
  163.1250  212.9100  147.4950 C   0  0  0  0  0  2  0  0  0  0  0  0
  160.2880  212.8520  148.8420 C   0  0  1  0  0  3  0  0  0  0  0  0
  160.6090  207.9390  154.3480 N   0  0  0  0  0  2  0  0  0  0  0  0
  162.4060  211.8310  148.2900 C   0  0  0  0  0  2  0  0  0  0  0  0
  160.8130  213.3550  146.4400 C   0  0  1  0  0  3  0  0  0  0  0  0
  158.2300  212.9230  154.7790 C   0  0  0  0  0  3  0  0  0  0  0  0
  159.0690  212.6040  153.6970 C   0  0  0  0  0  0  0  0  0  0  0  0
  160.1530  210.8300  155.1190 C   0  0  0  0  0  2  0  0  0  0  0  0
  161.5020  211.3750  150.3760 C   0  0  0  0  0  2  0  0  0  0  0  0
  161.3330  208.6070  151.6530 C   0  0  0  0  0  1  0  0  0  0  0  0
  162.1630  208.6400  157.2600 C   0  0  0  0  0  1  0  0  0  0  0  0
  160.2960  210.7120  152.6180 C   0  0  1  0  0  3  0  0  0  0  0  0
  161.3680  209.9240  155.2960 C   0  0  2  0  0  3  0  0  0  0  0  0
  160.2070  214.1080  145.3540 N   0  0  0  0  0  2  0  0  0  0  0  0
  158.9740  213.7150  144.7500 C   0  0  0  0  0  0  0  0  0  0  0  0
  158.3130  212.5670  145.1710 O   0  0  0  0  0  1  0  0  0  0  0  0
  158.4830  214.4130  143.8240 O   0  0  0  0  0  0  0  0  0  0  0  0
  1 20  1  0  0  0  0
  1 16  1  0  0  0  0
  2 24  1  1  0  0  0
  2 12  1  0  0  0  0
  2 27  1  0  0  0  0
  3  4  1  0  0  0  0
  4 21  2  0  0  0  0
  5 25  1  6  0  0  0
  5  6  1  0  0  0  0
  6 18  1  6  0  0  0
  6 28  1  0  0  0  0
  7 19  1  6  0  0  0
  7 24  1  0  0  0  0
  9 26  1  1  0  0  0
 11 13  1  0  0  0  0
 11  3  2  0  0  0  0
 12  8  1  6  0  0  0
 12 13  1  0  0  0  0
 13 22  2  0  0  0  0
 14 23  1  1  0  0  0
 15  9  1  0  0  0  0
 16 19  1  0  0  0  0
 17 10  1  6  0  0  0
 17  7  1  0  0  0  0
 17  8  1  0  0  0  0
 18 15  1  0  0  0  0
 20 29  1  6  0  0  0
 20 10  1  0  0  0  0
 22 14  1  0  0  0  0
 22 21  1  0  0  0  0
 23 28  1  0  0  0  0
 27  5  1  0  0  0  0
 27 14  1  0  0  0  0
 28  9  1  0  0  0  0
 30 31  1  0  0  0  0
 30 29  1  0  0  0  0
 32 30  2  0  0  0  0
M  END
>  <MODEL>
4

>  <REMARK>
 VINA RESULT:      -6.9      4.812      7.609
  Name = 
  1 active torsions:
  status: ('A' for Active; 'I' for Inactive)
    1  A    between atoms: C_20  and  N_29
                            x       y       z     vdW  Elec       q    Type
                         _______ _______ _______ _____ _____    ______ ____

>  <TORSDO>
F 1

$$$$
