=
 OpenBabel11122413503D

 37 42  0  0  1  0  0  0  0  0999 V2000
  161.3360  205.9980  149.3100 C   0  0  0  0  0  0  0  0  0  0  0  0
  161.3320  207.4070  153.2110 C   0  0  0  0  0  0  0  0  0  0  0  0
  159.8460  210.3650  153.8480 C   0  0  0  0  0  2  0  0  0  0  0  0
  161.2600  205.4530  151.8000 C   0  0  0  0  0  0  0  0  0  0  0  0
  161.5990  208.7510  152.9950 C   0  0  0  0  0  0  0  0  0  0  0  0
  159.5350  212.5140  150.8640 C   0  0  0  0  0  0  0  0  0  0  0  0
  161.5130  206.7870  152.0200 C   0  0  0  0  0  0  0  0  0  0  0  0
  161.2870  209.8640  153.9620 C   0  0  2  0  0  3  0  0  0  0  0  0
  160.8330  204.6870  152.9020 C   0  0  0  0  0  3  0  0  0  0  0  0
  160.3010  213.4480  150.0950 N   0  0  0  0  0  2  0  0  0  0  0  0
  161.8350  207.7130  151.0890 C   0  0  0  0  0  0  0  0  0  0  0  0
  159.8590  206.2640  149.0710 C   0  0  0  0  0  1  0  0  0  0  0  0
  160.6760  207.3690  155.6430 C   0  0  0  0  0  2  0  0  0  0  0  0
  160.6470  205.3120  154.1650 C   0  0  0  0  0  3  0  0  0  0  0  0
  162.0450  207.3400  149.6500 C   0  0  0  0  0  2  0  0  0  0  0  0
  160.1980  211.5260  151.6640 N   0  0  0  0  0  0  0  0  0  0  0  0
  159.3960  210.5380  152.3910 C   0  0  0  0  0  2  0  0  0  0  0  0
  160.8930  206.6950  154.3290 C   0  0  0  0  0  0  0  0  0  0  0  0
  161.8770  208.9380  151.6640 N   0  0  0  0  0  0  0  0  0  0  0  0
  161.4870  204.9080  150.4140 C   0  0  0  0  0  2  0  0  0  0  0  0
  161.7200  209.6850  155.4310 C   0  0  1  0  0  3  0  0  0  0  0  0
  161.9280  205.4600  148.0260 C   0  0  0  0  0  1  0  0  0  0  0  0
  161.6600  211.4470  151.6340 C   0  0  0  0  0  2  0  0  0  0  0  0
  158.2740  212.5670  150.8400 O   0  0  0  0  0  0  0  0  0  0  0  0
  162.1570  210.1810  150.9320 C   0  0  0  0  0  2  0  0  0  0  0  0
  161.8710  208.2550  155.9690 C   0  0  0  0  0  2  0  0  0  0  0  0
  163.1360  211.0360  156.9830 C   0  0  0  0  0  3  0  0  0  0  0  0
  162.9510  210.4830  155.7110 C   0  0  0  0  0  0  0  0  0  0  0  0
  163.9170  210.6940  154.7150 C   0  0  0  0  0  3  0  0  0  0  0  0
  166.0770  211.6730  153.9350 C   0  0  0  0  0  1  0  0  0  0  0  0
  165.2390  212.0020  156.2660 C   0  0  0  0  0  3  0  0  0  0  0  0
  165.0580  211.4510  154.9930 C   0  0  0  0  0  0  0  0  0  0  0  0
  164.2780  211.7940  157.2600 C   0  0  0  0  0  3  0  0  0  0  0  0
  158.1740  214.3710  149.3090 C   0  0  0  0  0  1  0  0  0  0  0  0
  159.6910  214.4530  149.2350 C   0  0  2  0  0  3  0  0  0  0  0  0
  161.5200  213.5820  147.7140 C   0  0  0  0  0  1  0  0  0  0  0  0
  160.1780  214.2960  147.7960 C   0  0  0  0  0  2  0  0  0  0  0  0
  1 15  1  0  0  0  0
  1 20  1  0  0  0  0
  2 18  1  0  0  0  0
  4  7  1  0  0  0  0
  4  9  2  0  0  0  0
  5  2  2  0  0  0  0
  5  8  1  0  0  0  0
  6 16  1  0  0  0  0
  7  2  1  0  0  0  0
  8  3  1  1  0  0  0
  8 21  1  0  0  0  0
  9 14  1  0  0  0  0
 10  6  1  0  0  0  0
 11 19  1  0  0  0  0
 11  7  2  0  0  0  0
 12  1  1  0  0  0  0
 13 26  1  0  0  0  0
 14 18  2  0  0  0  0
 15 11  1  0  0  0  0
 16 17  1  0  0  0  0
 17  3  1  0  0  0  0
 18 13  1  0  0  0  0
 19  5  1  0  0  0  0
 20  4  1  0  0  0  0
 21 28  1  6  0  0  0
 21 26  1  0  0  0  0
 22  1  1  0  0  0  0
 23 16  1  0  0  0  0
 24  6  2  0  0  0  0
 25 23  1  0  0  0  0
 25 19  1  0  0  0  0
 27 33  1  0  0  0  0
 28 27  2  0  0  0  0
 29 32  2  0  0  0  0
 29 28  1  0  0  0  0
 30 32  1  0  0  0  0
 31 33  2  0  0  0  0
 32 31  1  0  0  0  0
 35 34  1  6  0  0  0
 35 10  1  0  0  0  0
 36 37  1  0  0  0  0
 37 35  1  0  0  0  0
M  END
>  <MODEL>
1

>  <REMARK>
 VINA RESULT:      -2.7      0.000      0.000
  Name = 
  3 active torsions:
  status: ('A' for Active; 'I' for Inactive)
    1  A    between atoms: C_4  and  N_12
    2  A    between atoms: C_4  and  C_37
    3  A    between atoms: C_23  and  C_30
                            x       y       z     vdW  Elec       q    Type
                         _______ _______ _______ _____ _____    ______ ____

>  <TORSDO>
F 3

$$$$
