=
 OpenBabel11122414113D

 28 32  0  0  1  0  0  0  0  0999 V2000
  157.7660  213.6060  153.4450 C   0  0  0  0  0  0  0  0  0  0  0  0
  160.4240  212.6940  156.1470 O   0  0  0  0  0  0  0  0  0  0  0  0
  162.3980  211.1310  150.3520 C   0  0  0  0  0  1  0  0  0  0  0  0
  155.5420  212.3710  154.5540 C   0  0  0  0  0  3  0  0  0  0  0  0
  161.2910  209.6110  151.9780 C   0  0  0  0  0  0  0  0  0  0  0  0
  158.8530  214.1970  152.8050 O   0  0  0  0  0  0  0  0  0  0  0  0
  158.6280  211.4460  157.2600 O   0  0  0  0  0  0  0  0  0  0  0  0
  159.8300  211.3300  156.3680 S   0  0  0  0  0  0  0  0  0  0  0  0
  162.2300  210.2230  155.7760 C   0  0  0  0  0  0  0  0  0  0  0  0
  159.3620  210.5870  154.8590 N   0  0  2  0  0  0  0  0  0  0  0  0
  157.3540  212.9290  150.3670 O   0  0  0  0  0  0  0  0  0  0  0  0
  159.2940  210.8060  152.4730 C   0  0  2  0  0  3  0  0  0  0  0  0
  161.7270  210.0430  154.6030 N   0  0  0  0  0  0  0  0  0  0  0  0
  161.2330  210.0760  157.2570 S   0  0  0  0  0  0  0  0  0  0  0  0
  158.5080  213.1860  150.6670 C   0  0  0  0  0  0  0  0  0  0  0  0
  157.8810  212.2970  153.9250 C   0  0  0  0  0  0  0  0  0  0  0  0
  161.3130  210.7440  151.3040 C   0  0  0  0  0  0  0  0  0  0  0  0
  163.6230  210.7330  155.8970 C   0  0  0  0  0  1  0  0  0  0  0  0
  159.5860  212.2090  150.3290 C   0  0  0  0  0  2  0  0  0  0  0  0
  156.7490  211.6750  154.4680 C   0  0  0  0  0  3  0  0  0  0  0  0
  156.5780  214.2650  153.5330 N   0  0  0  0  0  0  0  0  0  0  0  0
  155.4770  213.6830  154.0800 C   0  0  0  0  0  3  0  0  0  0  0  0
  158.8120  214.4530  151.4090 C   0  0  0  0  0  2  0  0  0  0  0  0
  160.0690  209.5280  152.8350 C   0  0  2  0  0  3  0  0  0  0  0  0
  160.1350  211.5160  151.4990 N   0  0  0  0  0  0  0  0  0  0  0  0
  160.3510  209.6260  154.3470 C   0  0  2  0  0  3  0  0  0  0  0  0
  162.3410  208.5540  151.9100 C   0  0  0  0  0  1  0  0  0  0  0  0
  159.1940  211.5710  153.7950 C   0  0  1  0  0  3  0  0  0  0  0  0
  1 21  2  0  0  0  0
  1 16  1  0  0  0  0
  2  8  2  0  0  0  0
  3 17  1  0  0  0  0
  6  1  1  0  0  0  0
  8 14  1  0  0  0  0
  8  7  2  0  0  0  0
  9 18  1  0  0  0  0
  9 14  1  0  0  0  0
 10  8  1  1  0  0  0
 11 15  2  0  0  0  0
 12 25  1  6  0  0  0
 12 24  1  0  0  0  0
 12 28  1  0  0  0  0
 13  9  2  0  0  0  0
 15 23  1  0  0  0  0
 16 20  2  0  0  0  0
 17 25  1  0  0  0  0
 17  5  2  0  0  0  0
 19 15  1  0  0  0  0
 19 25  1  0  0  0  0
 20  4  1  0  0  0  0
 21 22  1  0  0  0  0
 22  4  2  0  0  0  0
 23  6  1  0  0  0  0
 24  5  1  6  0  0  0
 24 26  1  0  0  0  0
 26 13  1  6  0  0  0
 26 10  1  0  0  0  0
 27  5  1  0  0  0  0
 28 16  1  1  0  0  0
 28 10  1  0  0  0  0
M  END
>  <MODEL>
1

>  <REMARK>
 VINA RESULT:      -2.2      0.000      0.000
  Name = 
  0 active torsions:
  status: ('A' for Active; 'I' for Inactive)
                            x       y       z     vdW  Elec       q    Type
                         _______ _______ _______ _____ _____    ______ ____

>  <TORSDO>
F 0

$$$$
=
 OpenBabel11122414113D

 28 32  0  0  1  0  0  0  0  0999 V2000
  160.5150  207.7610  155.0180 C   0  0  0  0  0  0  0  0  0  0  0  0
  158.2510  210.7570  153.9720 O   0  0  0  0  0  0  0  0  0  0  0  0
  161.2350  208.2730  148.9880 C   0  0  0  0  0  1  0  0  0  0  0  0
  161.9540  208.9640  157.0620 C   0  0  0  0  0  3  0  0  0  0  0  0
  161.9820  210.2440  150.3050 C   0  0  0  0  0  0  0  0  0  0  0  0
  159.8700  207.1140  153.9660 O   0  0  0  0  0  0  0  0  0  0  0  0
  159.4640  212.0550  155.6670 O   0  0  0  0  0  0  0  0  0  0  0  0
  159.3530  211.7550  154.1990 S   0  0  0  0  0  0  0  0  0  0  0  0
  159.0820  212.5880  151.6360 C   0  0  0  0  0  0  0  0  0  0  0  0
  160.8840  211.1580  153.6110 N   0  0  2  0  0  0  0  0  0  0  0  0
  162.7950  206.0540  153.6050 O   0  0  0  0  0  0  0  0  0  0  0  0
  162.0260  209.3600  152.5140 C   0  0  2  0  0  3  0  0  0  0  0  0
  160.0870  211.8180  151.4020 N   0  0  0  0  0  0  0  0  0  0  0  0
  158.9460  213.5140  153.1640 S   0  0  0  0  0  0  0  0  0  0  0  0
  161.8410  206.2990  152.8850 C   0  0  0  0  0  0  0  0  0  0  0  0
  161.0590  209.0330  154.8120 C   0  0  0  0  0  0  0  0  0  0  0  0
  161.5810  208.9900  150.2530 C   0  0  0  0  0  0  0  0  0  0  0  0
  157.9260  212.5780  150.6980 C   0  0  0  0  0  1  0  0  0  0  0  0
  162.0710  206.9610  151.5670 C   0  0  0  0  0  2  0  0  0  0  0  0
  161.7990  209.6260  155.8440 C   0  0  0  0  0  3  0  0  0  0  0  0
  160.6830  207.1290  156.2130 N   0  0  0  0  0  0  0  0  0  0  0  0
  161.3780  207.7030  157.2310 C   0  0  0  0  0  3  0  0  0  0  0  0
  160.4560  205.9710  153.3590 C   0  0  0  0  0  2  0  0  0  0  0  0
  162.2530  210.6550  151.7160 C   0  0  2  0  0  3  0  0  0  0  0  0
  161.6140  208.3540  151.5250 N   0  0  0  0  0  0  0  0  0  0  0  0
  161.2440  211.6740  152.2820 C   0  0  2  0  0  3  0  0  0  0  0  0
  162.1390  211.1430  149.1250 C   0  0  0  0  0  1  0  0  0  0  0  0
  160.8880  209.7060  153.4760 C   0  0  1  0  0  3  0  0  0  0  0  0
  1 21  2  0  0  0  0
  2  8  2  0  0  0  0
  3 17  1  0  0  0  0
  4 22  2  0  0  0  0
  6  1  1  0  0  0  0
  8  7  2  0  0  0  0
  9 14  1  0  0  0  0
 10  8  1  6  0  0  0
 12 25  1  6  0  0  0
 12 28  1  0  0  0  0
 13  9  2  0  0  0  0
 14  8  1  0  0  0  0
 15 23  1  0  0  0  0
 15 11  2  0  0  0  0
 16  1  1  0  0  0  0
 16 20  2  0  0  0  0
 17  5  2  0  0  0  0
 17 25  1  0  0  0  0
 18  9  1  0  0  0  0
 19 15  1  0  0  0  0
 20  4  1  0  0  0  0
 21 22  1  0  0  0  0
 23  6  1  0  0  0  0
 24  5  1  6  0  0  0
 24 26  1  0  0  0  0
 24 12  1  0  0  0  0
 25 19  1  0  0  0  0
 26 13  1  6  0  0  0
 26 10  1  0  0  0  0
 27  5  1  0  0  0  0
 28 10  1  0  0  0  0
 28 16  1  1  0  0  0
M  END
>  <MODEL>
2

>  <REMARK>
 VINA RESULT:      -1.8      2.746      5.603
  Name = 
  0 active torsions:
  status: ('A' for Active; 'I' for Inactive)
                            x       y       z     vdW  Elec       q    Type
                         _______ _______ _______ _____ _____    ______ ____

>  <TORSDO>
F 0

$$$$
=
 OpenBabel11122414113D

 28 32  0  0  1  0  0  0  0  0999 V2000
  160.5010  209.5320  153.2400 C   0  0  0  0  0  0  0  0  0  0  0  0
  157.1960  211.5400  152.7470 O   0  0  0  0  0  0  0  0  0  0  0  0
  160.7100  211.5600  147.4960 C   0  0  0  0  0  1  0  0  0  0  0  0
  161.4310  210.7390  155.5580 C   0  0  0  0  0  3  0  0  0  0  0  0
  160.6710  213.3360  149.2350 C   0  0  0  0  0  0  0  0  0  0  0  0
  160.1220  208.9240  152.0450 O   0  0  0  0  0  0  0  0  0  0  0  0
  157.8670  212.8170  154.7330 O   0  0  0  0  0  0  0  0  0  0  0  0
  157.8220  212.8190  153.2320 S   0  0  0  0  0  0  0  0  0  0  0  0
  157.1380  214.0030  150.8940 C   0  0  0  0  0  0  0  0  0  0  0  0
  159.4390  213.0140  152.6040 N   0  0  2  0  0  0  0  0  0  0  0  0
  163.2090  209.2080  151.6060 O   0  0  0  0  0  0  0  0  0  0  0  0
  161.1530  212.0920  151.2050 C   0  0  2  0  0  3  0  0  0  0  0  0
  158.3550  213.7610  150.5490 N   0  0  0  0  0  0  0  0  0  0  0  0
  156.7110  214.4510  152.5750 S   0  0  0  0  0  0  0  0  0  0  0  0
  162.2070  209.2040  150.9100 C   0  0  0  0  0  0  0  0  0  0  0  0
  160.4890  210.9280  153.3340 C   0  0  0  0  0  0  0  0  0  0  0  0
  160.7970  212.0680  148.8990 C   0  0  0  0  0  0  0  0  0  0  0  0
  156.0430  213.7380  149.9220 C   0  0  0  0  0  1  0  0  0  0  0  0
  162.1020  210.1680  149.7750 C   0  0  0  0  0  2  0  0  0  0  0  0
  160.9760  211.5300  154.5020 C   0  0  0  0  0  3  0  0  0  0  0  0
  160.9540  208.7790  154.2800 N   0  0  0  0  0  0  0  0  0  0  0  0
  161.4070  209.3500  155.4290 C   0  0  0  0  0  3  0  0  0  0  0  0
  161.0860  208.2630  151.2380 C   0  0  0  0  0  2  0  0  0  0  0  0
  160.8160  213.5090  150.7130 C   0  0  2  0  0  3  0  0  0  0  0  0
  161.1310  211.2410  150.0070 N   0  0  0  0  0  0  0  0  0  0  0  0
  159.5110  213.9010  151.4330 C   0  0  2  0  0  3  0  0  0  0  0  0
  160.4120  214.4530  148.2810 C   0  0  0  0  0  1  0  0  0  0  0  0
  160.0110  211.7470  152.1640 C   0  0  1  0  0  3  0  0  0  0  0  0
  1 16  1  0  0  0  0
  1 21  2  0  0  0  0
  2  8  2  0  0  0  0
  3 17  1  0  0  0  0
  6  1  1  0  0  0  0
  8  7  2  0  0  0  0
  9 14  1  0  0  0  0
 10  8  1  6  0  0  0
 12 25  1  6  0  0  0
 12 28  1  0  0  0  0
 13  9  2  0  0  0  0
 14  8  1  0  0  0  0
 15 23  1  0  0  0  0
 15 11  2  0  0  0  0
 16 20  2  0  0  0  0
 17  5  2  0  0  0  0
 17 25  1  0  0  0  0
 18  9  1  0  0  0  0
 19 25  1  0  0  0  0
 19 15  1  0  0  0  0
 20  4  1  0  0  0  0
 21 22  1  0  0  0  0
 22  4  2  0  0  0  0
 23  6  1  0  0  0  0
 24  5  1  6  0  0  0
 24 12  1  0  0  0  0
 24 26  1  0  0  0  0
 26 13  1  6  0  0  0
 26 10  1  0  0  0  0
 27  5  1  0  0  0  0
 28 10  1  0  0  0  0
 28 16  1  1  0  0  0
M  END
>  <MODEL>
3

>  <REMARK>
 VINA RESULT:      -1.1      2.721      5.482
  Name = 
  0 active torsions:
  status: ('A' for Active; 'I' for Inactive)
                            x       y       z     vdW  Elec       q    Type
                         _______ _______ _______ _____ _____    ______ ____

>  <TORSDO>
F 0

$$$$
=
 OpenBabel11122414113D

 28 32  0  0  1  0  0  0  0  0999 V2000
  158.7540  212.2040  151.6420 C   0  0  0  0  0  0  0  0  0  0  0  0
  159.9590  208.5330  151.1230 O   0  0  0  0  0  0  0  0  0  0  0  0
  159.4130  209.9340  157.2600 C   0  0  0  0  0  1  0  0  0  0  0  0
  160.6090  213.5250  150.0580 C   0  0  0  0  0  3  0  0  0  0  0  0
  161.5030  210.0370  155.9180 C   0  0  0  0  0  0  0  0  0  0  0  0
  157.8290  211.6100  152.4990 O   0  0  0  0  0  0  0  0  0  0  0  0
  161.7580  209.4890  149.7540 O   0  0  0  0  0  0  0  0  0  0  0  0
  161.4070  208.9410  151.1070 S   0  0  0  0  0  0  0  0  0  0  0  0
  161.8790  207.2280  153.1520 C   0  0  0  0  0  0  0  0  0  0  0  0
  161.7440  210.1430  152.3260 N   0  0  2  0  0  0  0  0  0  0  0  0
  158.5620  214.1870  154.1200 O   0  0  0  0  0  0  0  0  0  0  0  0
  160.8530  211.4560  154.1220 C   0  0  2  0  0  3  0  0  0  0  0  0
  161.7890  208.2760  153.8960 N   0  0  0  0  0  0  0  0  0  0  0  0
  162.6150  207.2970  151.5210 S   0  0  0  0  0  0  0  0  0  0  0  0
  158.2160  213.0450  154.3720 C   0  0  0  0  0  0  0  0  0  0  0  0
  160.1070  211.8710  151.7560 C   0  0  0  0  0  0  0  0  0  0  0  0
  160.2360  210.3590  156.0870 C   0  0  0  0  0  0  0  0  0  0  0  0
  161.2030  205.9740  153.5820 C   0  0  0  0  0  1  0  0  0  0  0  0
  158.8580  212.3200  155.5090 C   0  0  0  0  0  2  0  0  0  0  0  0
  161.0400  212.5550  150.9640 C   0  0  0  0  0  3  0  0  0  0  0  0
  158.3550  213.1580  150.7560 N   0  0  0  0  0  0  0  0  0  0  0  0
  159.2460  213.8130  149.9640 C   0  0  0  0  0  3  0  0  0  0  0  0
  157.1880  212.3780  153.5070 C   0  0  0  0  0  2  0  0  0  0  0  0
  162.0340  210.6250  154.6500 C   0  0  2  0  0  3  0  0  0  0  0  0
  159.7610  211.2470  155.0830 N   0  0  0  0  0  0  0  0  0  0  0  0
  162.3360  209.5870  153.5520 C   0  0  2  0  0  3  0  0  0  0  0  0
  162.3050  209.1960  156.8530 C   0  0  0  0  0  1  0  0  0  0  0  0
  160.5360  210.8340  152.7610 C   0  0  1  0  0  3  0  0  0  0  0  0
  1 16  1  0  0  0  0
  1  6  1  0  0  0  0
  4 20  1  0  0  0  0
  5 17  2  0  0  0  0
  5 27  1  0  0  0  0
  6 23  1  0  0  0  0
  7  8  2  0  0  0  0
  8  2  2  0  0  0  0
  8 14  1  0  0  0  0
  9 18  1  0  0  0  0
  9 13  2  0  0  0  0
 10  8  1  6  0  0  0
 10 28  1  0  0  0  0
 10 26  1  0  0  0  0
 11 15  2  0  0  0  0
 12 24  1  0  0  0  0
 12 25  1  1  0  0  0
 14  9  1  0  0  0  0
 15 19  1  0  0  0  0
 17  3  1  0  0  0  0
 20 16  2  0  0  0  0
 21  1  2  0  0  0  0
 22  4  2  0  0  0  0
 22 21  1  0  0  0  0
 23 15  1  0  0  0  0
 24  5  1  1  0  0  0
 25 19  1  0  0  0  0
 25 17  1  0  0  0  0
 26 13  1  1  0  0  0
 26 24  1  0  0  0  0
 28 16  1  6  0  0  0
 28 12  1  0  0  0  0
M  END
>  <MODEL>
4

>  <REMARK>
 VINA RESULT:      -0.8      2.782      4.744
  Name = 
  0 active torsions:
  status: ('A' for Active; 'I' for Inactive)
                            x       y       z     vdW  Elec       q    Type
                         _______ _______ _______ _____ _____    ______ ____

>  <TORSDO>
F 0

$$$$
=
 OpenBabel11122414113D

 28 32  0  0  1  0  0  0  0  0999 V2000
  160.8460  206.0240  150.6730 C   0  0  0  0  0  0  0  0  0  0  0  0
  159.3910  208.8580  152.9210 O   0  0  0  0  0  0  0  0  0  0  0  0
  160.7840  210.9900  147.1380 C   0  0  0  0  0  1  0  0  0  0  0  0
  162.8510  205.0920  152.3480 C   0  0  0  0  0  3  0  0  0  0  0  0
  162.2430  211.1480  149.1450 C   0  0  0  0  0  0  0  0  0  0  0  0
  159.8970  206.4810  149.7600 O   0  0  0  0  0  0  0  0  0  0  0  0
  161.1570  208.2710  154.5220 O   0  0  0  0  0  0  0  0  0  0  0  0
  160.7510  209.2330  153.4420 S   0  0  0  0  0  0  0  0  0  0  0  0
  160.3510  211.7660  152.5680 C   0  0  0  0  0  0  0  0  0  0  0  0
  161.9470  209.2180  152.1710 N   0  0  2  0  0  0  0  0  0  0  0  0
  162.3170  205.9100  147.8570 O   0  0  0  0  0  0  0  0  0  0  0  0
  162.3610  208.8740  149.8360 C   0  0  2  0  0  3  0  0  0  0  0  0
  161.0520  211.4010  151.5510 N   0  0  0  0  0  0  0  0  0  0  0  0
  160.7080  211.1640  154.2170 S   0  0  0  0  0  0  0  0  0  0  0  0
  161.3760  206.6850  147.8920 C   0  0  0  0  0  0  0  0  0  0  0  0
  161.6900  206.9440  151.3030 C   0  0  0  0  0  0  0  0  0  0  0  0
  161.5010  210.4310  148.3250 C   0  0  0  0  0  0  0  0  0  0  0  0
  159.1140  212.5640  152.3490 C   0  0  0  0  0  1  0  0  0  0  0  0
  161.5870  208.1090  147.4980 C   0  0  0  0  0  2  0  0  0  0  0  0
  162.7110  206.4640  152.1340 C   0  0  0  0  0  3  0  0  0  0  0  0
  161.0030  204.6890  150.8900 N   0  0  0  0  0  0  0  0  0  0  0  0
  161.9740  204.2110  151.7140 C   0  0  0  0  0  3  0  0  0  0  0  0
  160.0410  206.2010  148.3750 C   0  0  0  0  0  2  0  0  0  0  0  0
  162.8240  210.2890  150.2220 C   0  0  2  0  0  3  0  0  0  0  0  0
  161.5400  209.0420  148.6280 N   0  0  0  0  0  0  0  0  0  0  0  0
  162.2380  210.5510  151.6230 C   0  0  2  0  0  3  0  0  0  0  0  0
  162.4720  212.6170  149.0290 C   0  0  0  0  0  1  0  0  0  0  0  0
  161.5210  208.4160  151.0300 C   0  0  1  0  0  3  0  0  0  0  0  0
  1 21  2  0  0  0  0
  1 16  1  0  0  0  0
  2  8  2  0  0  0  0
  3 17  1  0  0  0  0
  6  1  1  0  0  0  0
  8 14  1  0  0  0  0
  8  7  2  0  0  0  0
  9 14  1  0  0  0  0
 10  8  1  1  0  0  0
 11 15  2  0  0  0  0
 12 25  1  6  0  0  0
 12 24  1  0  0  0  0
 12 28  1  0  0  0  0
 13  9  2  0  0  0  0
 15 23  1  0  0  0  0
 16 20  2  0  0  0  0
 17 25  1  0  0  0  0
 17  5  2  0  0  0  0
 18  9  1  0  0  0  0
 19 15  1  0  0  0  0
 19 25  1  0  0  0  0
 20  4  1  0  0  0  0
 21 22  1  0  0  0  0
 22  4  2  0  0  0  0
 23  6  1  0  0  0  0
 24  5  1  6  0  0  0
 24 26  1  0  0  0  0
 26 13  1  6  0  0  0
 26 10  1  0  0  0  0
 27  5  1  0  0  0  0
 28 16  1  1  0  0  0
 28 10  1  0  0  0  0
M  END
>  <MODEL>
5

>  <REMARK>
 VINA RESULT:      -0.2      3.834      6.477
  Name = 
  0 active torsions:
  status: ('A' for Active; 'I' for Inactive)
                            x       y       z     vdW  Elec       q    Type
                         _______ _______ _______ _____ _____    ______ ____

>  <TORSDO>
F 0

$$$$
=
 OpenBabel11122414113D

 28 32  0  0  1  0  0  0  0  0999 V2000
  159.7620  212.0710  145.7720 C   0  0  0  0  0  0  0  0  0  0  0  0
  161.1310  209.9920  148.7720 O   0  0  0  0  0  0  0  0  0  0  0  0
  156.1090  213.4360  150.4560 C   0  0  0  0  0  1  0  0  0  0  0  0
  162.1090  213.3100  144.9620 C   0  0  0  0  0  3  0  0  0  0  0  0
  158.4910  214.0790  150.7610 C   0  0  0  0  0  0  0  0  0  0  0  0
  158.5390  211.5290  146.1620 O   0  0  0  0  0  0  0  0  0  0  0  0
  163.2990  211.0440  148.3020 O   0  0  0  0  0  0  0  0  0  0  0  0
  162.0810  211.0830  149.1820 S   0  0  0  0  0  0  0  0  0  0  0  0
  160.9490  211.1020  151.6420 C   0  0  0  0  0  0  0  0  0  0  0  0
  161.3320  212.6560  149.0660 N   0  0  2  0  0  0  0  0  0  0  0  0
  157.6830  214.4530  145.4400 O   0  0  0  0  0  0  0  0  0  0  0  0
  159.3340  213.8720  148.5450 C   0  0  2  0  0  3  0  0  0  0  0  0
  160.2810  212.1100  151.1990 N   0  0  0  0  0  0  0  0  0  0  0  0
  162.6530  210.8230  151.1660 S   0  0  0  0  0  0  0  0  0  0  0  0
  157.3220  213.5860  146.2190 C   0  0  0  0  0  0  0  0  0  0  0  0
  160.5900  212.6590  146.7340 C   0  0  0  0  0  0  0  0  0  0  0  0
  157.5100  213.6610  149.9860 C   0  0  0  0  0  0  0  0  0  0  0  0
  160.2420  210.0520  152.4250 C   0  0  0  0  0  1  0  0  0  0  0  0
  156.9330  213.9680  147.6090 C   0  0  0  0  0  2  0  0  0  0  0  0
  161.7650  213.2980  146.3150 C   0  0  0  0  0  3  0  0  0  0  0  0
  160.1140  212.0990  144.4570 N   0  0  0  0  0  0  0  0  0  0  0  0
  161.2630  212.6940  144.0380 C   0  0  0  0  0  3  0  0  0  0  0  0
  157.3220  212.1530  145.7770 C   0  0  0  0  0  2  0  0  0  0  0  0
  159.7620  214.2080  149.9840 C   0  0  2  0  0  3  0  0  0  0  0  0
  157.9030  213.5460  148.6240 N   0  0  0  0  0  0  0  0  0  0  0  0
  160.8350  213.1650  150.3530 C   0  0  2  0  0  3  0  0  0  0  0  0
  158.3640  214.3790  152.2170 C   0  0  0  0  0  1  0  0  0  0  0  0
  160.1730  212.6450  148.1820 C   0  0  1  0  0  3  0  0  0  0  0  0
  1  6  1  0  0  0  0
  1 16  1  0  0  0  0
  2  8  2  0  0  0  0
  4 20  1  0  0  0  0
  5 27  1  0  0  0  0
  7  8  2  0  0  0  0
  8 14  1  0  0  0  0
  9 18  1  0  0  0  0
 10  8  1  1  0  0  0
 10 26  1  0  0  0  0
 11 15  2  0  0  0  0
 12 25  1  1  0  0  0
 12 24  1  0  0  0  0
 13  9  2  0  0  0  0
 14  9  1  0  0  0  0
 15 19  1  0  0  0  0
 17  3  1  0  0  0  0
 17  5  2  0  0  0  0
 19 25  1  0  0  0  0
 20 16  2  0  0  0  0
 21  1  2  0  0  0  0
 22 21  1  0  0  0  0
 22  4  2  0  0  0  0
 23  6  1  0  0  0  0
 23 15  1  0  0  0  0
 24 26  1  0  0  0  0
 24  5  1  1  0  0  0
 25 17  1  0  0  0  0
 26 13  1  1  0  0  0
 28 16  1  6  0  0  0
 28 12  1  0  0  0  0
 28 10  1  0  0  0  0
M  END
>  <MODEL>
6

>  <REMARK>
 VINA RESULT:      -0.2      4.240      7.053
  Name = 
  0 active torsions:
  status: ('A' for Active; 'I' for Inactive)
                            x       y       z     vdW  Elec       q    Type
                         _______ _______ _______ _____ _____    ______ ____

>  <TORSDO>
F 0

$$$$
=
 OpenBabel11122414113D

 28 32  0  0  1  0  0  0  0  0999 V2000
  159.2430  213.8500  150.0100 C   0  0  0  0  0  0  0  0  0  0  0  0
  158.8780  214.4520  153.8440 O   0  0  0  0  0  0  0  0  0  0  0  0
  163.3720  210.1890  152.5990 C   0  0  0  0  0  1  0  0  0  0  0  0
  156.5940  213.3270  149.3730 C   0  0  0  0  0  3  0  0  0  0  0  0
  161.0100  209.6920  153.1920 C   0  0  0  0  0  0  0  0  0  0  0  0
  160.5980  214.0450  150.2700 O   0  0  0  0  0  0  0  0  0  0  0  0
  156.5010  213.9240  153.5370 O   0  0  0  0  0  0  0  0  0  0  0  0
  157.8290  213.3820  153.9800 S   0  0  0  0  0  0  0  0  0  0  0  0
  159.3740  212.1480  155.8320 C   0  0  0  0  0  0  0  0  0  0  0  0
  158.2290  211.9750  153.0290 N   0  0  2  0  0  0  0  0  0  0  0  0
  160.7300  211.7050  148.1950 O   0  0  0  0  0  0  0  0  0  0  0  0
  159.8260  210.9560  151.5610 C   0  0  2  0  0  3  0  0  0  0  0  0
  159.7430  211.3960  154.8530 N   0  0  0  0  0  0  0  0  0  0  0  0
  157.6970  212.7620  155.9620 S   0  0  0  0  0  0  0  0  0  0  0  0
  161.3880  212.0880  149.1480 C   0  0  0  0  0  0  0  0  0  0  0  0
  158.5120  212.9640  150.8090 C   0  0  0  0  0  0  0  0  0  0  0  0
  161.8920  210.3270  152.4470 C   0  0  0  0  0  0  0  0  0  0  0  0
  160.4010  212.6610  156.7790 C   0  0  0  0  0  1  0  0  0  0  0  0
  161.9480  211.0840  150.1000 C   0  0  0  0  0  2  0  0  0  0  0  0
  157.1790  212.6930  150.4700 C   0  0  0  0  0  3  0  0  0  0  0  0
  158.6550  214.4530  148.9400 N   0  0  0  0  0  0  0  0  0  0  0  0
  157.3560  214.2180  148.6140 C   0  0  0  0  0  3  0  0  0  0  0  0
  161.5800  213.5590  149.3670 C   0  0  0  0  0  2  0  0  0  0  0  0
  159.6170  210.0430  152.7800 C   0  0  2  0  0  3  0  0  0  0  0  0
  161.2820  211.0820  151.4060 N   0  0  0  0  0  0  0  0  0  0  0  0
  158.8500  210.8950  153.8110 C   0  0  2  0  0  3  0  0  0  0  0  0
  161.3450  208.7540  154.3030 C   0  0  0  0  0  1  0  0  0  0  0  0
  159.1850  212.2830  151.9710 C   0  0  1  0  0  3  0  0  0  0  0  0
  1  6  1  0  0  0  0
  1 16  1  0  0  0  0
  2  8  2  0  0  0  0
  4 20  1  0  0  0  0
  5 27  1  0  0  0  0
  7  8  2  0  0  0  0
  8 14  1  0  0  0  0
  9 14  1  0  0  0  0
  9 18  1  0  0  0  0
 10 26  1  0  0  0  0
 10  8  1  1  0  0  0
 11 15  2  0  0  0  0
 12 25  1  1  0  0  0
 12 28  1  0  0  0  0
 12 24  1  0  0  0  0
 13  9  2  0  0  0  0
 15 23  1  0  0  0  0
 15 19  1  0  0  0  0
 17  3  1  0  0  0  0
 17  5  2  0  0  0  0
 19 25  1  0  0  0  0
 20 16  2  0  0  0  0
 21  1  2  0  0  0  0
 22 21  1  0  0  0  0
 22  4  2  0  0  0  0
 23  6  1  0  0  0  0
 24  5  1  1  0  0  0
 24 26  1  0  0  0  0
 25 17  1  0  0  0  0
 26 13  1  1  0  0  0
 28 16  1  6  0  0  0
 28 10  1  0  0  0  0
M  END
>  <MODEL>
7

>  <REMARK>
 VINA RESULT:      -0.1      2.429      3.413
  Name = 
  0 active torsions:
  status: ('A' for Active; 'I' for Inactive)
                            x       y       z     vdW  Elec       q    Type
                         _______ _______ _______ _____ _____    ______ ____

>  <TORSDO>
F 0

$$$$
=
 OpenBabel11122414113D

 28 32  0  0  1  0  0  0  0  0999 V2000
  161.0230  212.0770  148.1390 C   0  0  0  0  0  0  0  0  0  0  0  0
  160.9450  208.1840  148.3390 O   0  0  0  0  0  0  0  0  0  0  0  0
  158.4830  210.8090  153.5320 C   0  0  0  0  0  1  0  0  0  0  0  0
  163.6980  212.4510  147.5070 C   0  0  0  0  0  3  0  0  0  0  0  0
  160.8250  210.0190  153.2630 C   0  0  0  0  0  0  0  0  0  0  0  0
  159.6850  211.9630  148.5110 O   0  0  0  0  0  0  0  0  0  0  0  0
  163.3560  208.2750  147.8860 O   0  0  0  0  0  0  0  0  0  0  0  0
  162.3150  208.1220  148.9570 S   0  0  0  0  0  0  0  0  0  0  0  0
  161.2700  206.7630  151.0550 C   0  0  0  0  0  0  0  0  0  0  0  0
  162.5290  209.3720  150.1570 N   0  0  2  0  0  0  0  0  0  0  0  0
  160.5560  214.4520  150.2000 O   0  0  0  0  0  0  0  0  0  0  0  0
  161.5140  211.2060  151.3190 C   0  0  2  0  0  3  0  0  0  0  0  0
  161.2640  207.9080  151.6440 N   0  0  0  0  0  0  0  0  0  0  0  0
  162.5790  206.2980  149.9230 S   0  0  0  0  0  0  0  0  0  0  0  0
  159.7560  213.5370  150.3090 C   0  0  0  0  0  0  0  0  0  0  0  0
  161.9970  211.3760  148.8570 C   0  0  0  0  0  0  0  0  0  0  0  0
  159.8050  210.7360  152.8370 C   0  0  0  0  0  0  0  0  0  0  0  0
  160.0810  205.8770  151.1790 C   0  0  0  0  0  1  0  0  0  0  0  0
  159.5770  212.8780  151.6370 C   0  0  0  0  0  2  0  0  0  0  0  0
  163.3470  211.5840  148.5430 C   0  0  0  0  0  3  0  0  0  0  0  0
  161.3870  212.9230  147.1350 N   0  0  0  0  0  0  0  0  0  0  0  0
  162.6920  213.1160  146.8040 C   0  0  0  0  0  3  0  0  0  0  0  0
  159.0070  213.0640  149.0990 C   0  0  0  0  0  2  0  0  0  0  0  0
  161.9970  210.1700  152.3470 C   0  0  2  0  0  3  0  0  0  0  0  0
  160.1290  211.5220  151.6960 N   0  0  0  0  0  0  0  0  0  0  0  0
  162.3300  208.9020  151.5360 C   0  0  2  0  0  3  0  0  0  0  0  0
  160.8200  209.1650  154.4860 C   0  0  0  0  0  1  0  0  0  0  0  0
  161.5800  210.4660  149.9810 C   0  0  1  0  0  3  0  0  0  0  0  0
  1  6  1  0  0  0  0
  1 16  1  0  0  0  0
  2  8  2  0  0  0  0
  4 20  1  0  0  0  0
  5 27  1  0  0  0  0
  6 23  1  0  0  0  0
  7  8  2  0  0  0  0
  8 14  1  0  0  0  0
  9 18  1  0  0  0  0
  9 13  2  0  0  0  0
 10  8  1  6  0  0  0
 10 26  1  0  0  0  0
 11 15  2  0  0  0  0
 12 25  1  1  0  0  0
 12 24  1  0  0  0  0
 14  9  1  0  0  0  0
 15 19  1  0  0  0  0
 17  5  2  0  0  0  0
 17  3  1  0  0  0  0
 19 25  1  0  0  0  0
 20 16  2  0  0  0  0
 21  1  2  0  0  0  0
 22 21  1  0  0  0  0
 22  4  2  0  0  0  0
 23 15  1  0  0  0  0
 24  5  1  1  0  0  0
 25 17  1  0  0  0  0
 26 13  1  6  0  0  0
 26 24  1  0  0  0  0
 28 16  1  6  0  0  0
 28 10  1  0  0  0  0
 28 12  1  0  0  0  0
M  END
>  <MODEL>
8

>  <REMARK>
 VINA RESULT:       0.1      3.705      6.178
  Name = 
  0 active torsions:
  status: ('A' for Active; 'I' for Inactive)
                            x       y       z     vdW  Elec       q    Type
                         _______ _______ _______ _____ _____    ______ ____

>  <TORSDO>
F 0

$$$$
