=
 OpenBabel11122414133D

 28 32  0  0  1  0  0  0  0  0999 V2000
  160.2650  209.5660  155.2850 N   0  0  2  0  0  0  0  0  0  0  0  0
  158.3010  211.0450  152.8050 O   0  0  0  0  0  0  0  0  0  0  0  0
  161.1440  206.7090  149.6220 O   0  0  0  0  0  0  0  0  0  0  0  0
  162.7220  210.6440  156.3990 C   0  0  0  0  0  2  0  0  0  0  0  0
  161.6450  209.0040  149.7230 N   0  0  0  0  0  0  0  0  0  0  0  0
  159.3990  208.4720  154.8070 C   0  0  0  0  0  2  0  0  0  0  0  0
  159.4790  212.8840  153.9460 O   0  0  0  0  0  0  0  0  0  0  0  0
  159.4150  212.0480  152.6990 S   0  0  0  0  0  0  0  0  0  0  0  0
  160.5540  213.4360  150.6520 C   0  0  2  0  0  3  0  0  0  0  0  0
  160.9720  211.2570  152.4060 C   0  0  2  0  0  3  0  0  0  0  0  0
  161.5320  205.3630  153.8780 C   0  0  0  0  0  1  0  0  0  0  0  0
  162.1180  209.1700  152.0560 C   0  0  2  0  0  3  0  0  0  0  0  0
  161.3520  212.2780  150.1910 N   0  0  0  0  0  2  0  0  0  0  0  0
  159.1830  213.0810  151.2580 C   0  0  0  0  0  2  0  0  0  0  0  0
  161.1160  206.8190  153.8320 C   0  0  1  0  0  3  0  0  0  0  0  0
  161.4630  209.7230  154.4400 C   0  0  2  0  0  3  0  0  0  0  0  0
  161.4800  207.7220  150.2930 C   0  0  0  0  0  0  0  0  0  0  0  0
  160.3650  214.4070  149.5060 C   0  0  0  0  0  1  0  0  0  0  0  0
  160.6500  207.1630  152.4920 N   0  0  0  0  0  2  0  0  0  0  0  0
  162.3490  210.8720  154.9400 C   0  0  0  0  0  2  0  0  0  0  0  0
  160.6550  209.2920  156.6710 C   0  0  0  0  0  2  0  0  0  0  0  0
  161.4640  210.4550  157.2350 C   0  0  0  0  0  2  0  0  0  0  0  0
  160.0240  207.0640  154.8720 C   0  0  0  0  0  2  0  0  0  0  0  0
  162.0960  209.9530  150.7230 C   0  0  2  0  0  3  0  0  0  0  0  0
  161.7910  207.6860  151.7380 C   0  0  2  0  0  3  0  0  0  0  0  0
  161.0540  211.0390  150.9200 C   0  0  1  0  0  3  0  0  0  0  0  0
  161.5700  209.2910  148.3000 C   0  0  0  0  0  1  0  0  0  0  0  0
  161.0900  209.8550  152.9540 C   0  0  1  0  0  3  0  0  0  0  0  0
  1  6  1  6  0  0  0
  1 21  1  0  0  0  0
  3 17  2  0  0  0  0
  4 22  1  0  0  0  0
  5 17  1  0  0  0  0
  5 24  1  0  0  0  0
  6 23  1  0  0  0  0
  8  2  2  0  0  0  0
  8  7  2  0  0  0  0
  9 18  1  6  0  0  0
  9 14  1  0  0  0  0
 10  8  1  6  0  0  0
 10 28  1  0  0  0  0
 12 28  1  0  0  0  0
 13  9  1  0  0  0  0
 13 26  1  0  0  0  0
 14  8  1  0  0  0  0
 15 11  1  0  0  0  0
 15 23  1  0  0  0  0
 16 20  1  0  0  0  0
 16  1  1  0  0  0  0
 17 25  1  0  0  0  0
 19 15  1  0  0  0  0
 20  4  1  0  0  0  0
 21 22  1  0  0  0  0
 24 26  1  0  0  0  0
 24 12  1  0  0  0  0
 25 12  1  0  0  0  0
 25 19  1  0  0  0  0
 26 10  1  0  0  0  0
 27  5  1  0  0  0  0
 28 16  1  0  0  0  0
M  END
>  <MODEL>
1

>  <REMARK>
 VINA RESULT:      -3.7      0.000      0.000
  Name = 
  0 active torsions:
  status: ('A' for Active; 'I' for Inactive)
                            x       y       z     vdW  Elec       q    Type
                         _______ _______ _______ _____ _____    ______ ____

>  <TORSDO>
F 0

$$$$
=
 OpenBabel11122414133D

 28 32  0  0  1  0  0  0  0  0999 V2000
  160.5540  209.8390  155.3340 N   0  0  2  0  0  0  0  0  0  0  0  0
  157.0790  209.9860  155.0260 O   0  0  0  0  0  0  0  0  0  0  0  0
  158.8300  212.5770  149.8080 O   0  0  0  0  0  0  0  0  0  0  0  0
  162.2060  211.5680  156.9830 C   0  0  0  0  0  2  0  0  0  0  0  0
  158.0790  213.6260  151.7730 N   0  0  0  0  0  0  0  0  0  0  0  0
  160.2640  209.0560  154.1180 C   0  0  0  0  0  2  0  0  0  0  0  0
  157.6190  210.9070  157.2470 O   0  0  0  0  0  0  0  0  0  0  0  0
  157.1870  211.2400  155.8480 S   0  0  0  0  0  0  0  0  0  0  0  0
  155.8760  213.6270  155.8770 C   0  0  2  0  0  3  0  0  0  0  0  0
  158.3070  212.3980  155.1140 C   0  0  2  0  0  3  0  0  0  0  0  0
  162.4440  210.2960  151.1530 C   0  0  0  0  0  1  0  0  0  0  0  0
  159.7770  212.8610  153.2660 C   0  0  2  0  0  3  0  0  0  0  0  0
  156.6170  214.1510  154.7070 N   0  0  0  0  0  2  0  0  0  0  0  0
  155.6230  212.1070  155.8590 C   0  0  0  0  0  2  0  0  0  0  0  0
  161.4610  210.4300  152.2990 C   0  0  1  0  0  3  0  0  0  0  0  0
  160.6480  211.2810  155.0440 C   0  0  2  0  0  3  0  0  0  0  0  0
  158.9690  212.8110  151.0390 C   0  0  0  0  0  0  0  0  0  0  0  0
  154.5580  214.3590  156.0100 C   0  0  0  0  0  1  0  0  0  0  0  0
  160.1570  210.8470  151.7910 N   0  0  0  0  0  2  0  0  0  0  0  0
  160.9380  212.0860  156.3180 C   0  0  0  0  0  2  0  0  0  0  0  0
  161.8080  209.3580  155.9200 C   0  0  0  0  0  2  0  0  0  0  0  0
  162.0860  210.0720  157.2380 C   0  0  0  0  0  2  0  0  0  0  0  0
  161.3600  209.0940  153.0350 C   0  0  0  0  0  2  0  0  0  0  0  0
  158.5280  213.7660  153.1450 C   0  0  2  0  0  3  0  0  0  0  0  0
  160.0980  212.3090  151.8500 C   0  0  2  0  0  3  0  0  0  0  0  0
  157.5080  213.1590  154.0930 C   0  0  1  0  0  3  0  0  0  0  0  0
  156.9830  214.3840  151.1930 C   0  0  0  0  0  1  0  0  0  0  0  0
  159.4090  211.7850  154.2840 C   0  0  1  0  0  3  0  0  0  0  0  0
  1  6  1  6  0  0  0
  1 21  1  0  0  0  0
  2  8  2  0  0  0  0
  3 17  2  0  0  0  0
  4 22  1  0  0  0  0
  5 24  1  0  0  0  0
  8 14  1  0  0  0  0
  8  7  2  0  0  0  0
  9 18  1  6  0  0  0
 10  8  1  6  0  0  0
 11 15  1  0  0  0  0
 12 28  1  0  0  0  0
 13  9  1  0  0  0  0
 14  9  1  0  0  0  0
 15 23  1  0  0  0  0
 16  1  1  0  0  0  0
 16 20  1  0  0  0  0
 17  5  1  0  0  0  0
 17 25  1  0  0  0  0
 19 25  1  0  0  0  0
 19 15  1  0  0  0  0
 20  4  1  0  0  0  0
 21 22  1  0  0  0  0
 23  6  1  0  0  0  0
 24 12  1  0  0  0  0
 24 26  1  0  0  0  0
 25 12  1  0  0  0  0
 26 13  1  0  0  0  0
 26 10  1  0  0  0  0
 27  5  1  0  0  0  0
 28 16  1  0  0  0  0
 28 10  1  0  0  0  0
M  END
>  <MODEL>
2

>  <REMARK>
 VINA RESULT:      -2.2      3.163      4.740
  Name = 
  0 active torsions:
  status: ('A' for Active; 'I' for Inactive)
                            x       y       z     vdW  Elec       q    Type
                         _______ _______ _______ _____ _____    ______ ____

>  <TORSDO>
F 0

$$$$
=
 OpenBabel11122414133D

 28 32  0  0  1  0  0  0  0  0999 V2000
  162.0320  205.3720  146.4330 N   0  0  2  0  0  0  0  0  0  0  0  0
  163.8190  206.9530  148.9820 O   0  0  0  0  0  0  0  0  0  0  0  0
  161.5620  202.1420  151.9420 O   0  0  0  0  0  0  0  0  0  0  0  0
  159.4510  206.1920  145.3820 C   0  0  0  0  0  2  0  0  0  0  0  0
  160.7810  204.3590  151.9610 N   0  0  0  0  0  0  0  0  0  0  0  0
  163.0300  204.3700  146.8520 C   0  0  0  0  0  2  0  0  0  0  0  0
  162.4130  208.6880  147.9400 O   0  0  0  0  0  0  0  0  0  0  0  0
  162.5900  207.8050  149.1410 S   0  0  0  0  0  0  0  0  0  0  0  0
  161.3070  208.9340  151.2610 C   0  0  2  0  0  3  0  0  0  0  0  0
  161.1460  206.8120  149.3970 C   0  0  2  0  0  3  0  0  0  0  0  0
  161.3060  200.9770  147.6240 C   0  0  0  0  0  1  0  0  0  0  0  0
  160.2700  204.5850  149.6410 C   0  0  2  0  0  3  0  0  0  0  0  0
  160.6620  207.6640  151.6630 N   0  0  0  0  0  2  0  0  0  0  0  0
  162.7060  208.7830  150.6330 C   0  0  0  0  0  2  0  0  0  0  0  0
  161.5390  202.4700  147.7440 C   0  0  1  0  0  3  0  0  0  0  0  0
  160.8310  205.3360  147.2880 C   0  0  2  0  0  3  0  0  0  0  0  0
  161.0970  203.1390  151.3250 C   0  0  0  0  0  0  0  0  0  0  0  0
  161.3840  209.8620  152.4550 C   0  0  0  0  0  1  0  0  0  0  0  0
  161.9710  202.8000  149.0990 N   0  0  0  0  0  2  0  0  0  0  0  0
  159.8050  206.3900  146.8490 C   0  0  0  0  0  2  0  0  0  0  0  0
  161.6660  205.1220  145.0360 C   0  0  0  0  0  2  0  0  0  0  0  0
  160.7160  206.2030  144.5340 C   0  0  0  0  0  2  0  0  0  0  0  0
  162.5840  202.9010  146.7150 C   0  0  0  0  0  2  0  0  0  0  0  0
  160.2070  205.2950  151.0130 C   0  0  2  0  0  3  0  0  0  0  0  0
  160.7810  203.1380  149.8810 C   0  0  2  0  0  3  0  0  0  0  0  0
  161.1050  206.5110  150.8700 C   0  0  1  0  0  3  0  0  0  0  0  0
  160.8310  204.5810  153.3970 C   0  0  0  0  0  1  0  0  0  0  0  0
  161.1970  205.4370  148.7780 C   0  0  1  0  0  3  0  0  0  0  0  0
  1 21  1  6  0  0  0
  1  6  1  0  0  0  0
  1 16  1  0  0  0  0
  2  8  2  0  0  0  0
  4 20  1  0  0  0  0
  5 27  1  0  0  0  0
  7  8  2  0  0  0  0
  8 14  1  0  0  0  0
  9 13  1  0  0  0  0
  9 18  1  1  0  0  0
 10  8  1  1  0  0  0
 10 26  1  0  0  0  0
 11 15  1  0  0  0  0
 12 25  1  0  0  0  0
 12 24  1  0  0  0  0
 14  9  1  0  0  0  0
 15 19  1  0  0  0  0
 16 28  1  0  0  0  0
 17  3  2  0  0  0  0
 17  5  1  0  0  0  0
 19 25  1  0  0  0  0
 20 16  1  0  0  0  0
 22 21  1  0  0  0  0
 22  4  1  0  0  0  0
 23  6  1  0  0  0  0
 23 15  1  0  0  0  0
 24  5  1  0  0  0  0
 25 17  1  0  0  0  0
 26 24  1  0  0  0  0
 26 13  1  0  0  0  0
 28 10  1  0  0  0  0
 28 12  1  0  0  0  0
M  END
>  <MODEL>
3

>  <REMARK>
 VINA RESULT:      -1.3      4.101      7.657
  Name = 
  0 active torsions:
  status: ('A' for Active; 'I' for Inactive)
                            x       y       z     vdW  Elec       q    Type
                         _______ _______ _______ _____ _____    ______ ____

>  <TORSDO>
F 0

$$$$
