=
 OpenBabel11122413533D

 37 43  0  0  1  0  0  0  0  0999 V2000
  160.2750  210.4500  153.5130 C   0  0  0  0  0  0  0  0  0  0  0  0
  161.6280  207.1440  152.6890 C   0  0  1  0  0  3  0  0  0  0  0  0
  162.6640  206.5520  149.3570 C   0  0  0  0  0  2  0  0  0  0  0  0
  161.4970  208.9290  154.5600 C   0  0  2  0  0  3  0  0  0  0  0  0
  161.2920  207.4930  151.2580 C   0  0  2  0  0  3  0  0  0  0  0  0
  162.1330  208.4000  153.2860 C   0  0  2  0  0  3  0  0  0  0  0  0
  161.4040  206.3820  150.1710 C   0  0  2  0  0  3  0  0  0  0  0  0
  161.4240  207.6840  155.4450 C   0  0  0  0  0  2  0  0  0  0  0  0
  161.9590  209.4350  152.1460 C   0  0  2  0  0  3  0  0  0  0  0  0
  161.0100  211.6660  154.1050 C   0  0  0  0  0  1  0  0  0  0  0  0
  160.3600  205.0570  153.0320 N   0  0  0  0  0  2  0  0  0  0  0  0
  160.5020  206.6020  154.8890 C   0  0  0  0  0  2  0  0  0  0  0  0
  160.6350  210.0660  152.2440 O   0  0  0  0  0  0  0  0  0  0  0  0
  161.2620  207.9270  147.8730 O   0  0  0  0  0  0  0  0  0  0  0  0
  162.5240  207.3830  148.0840 C   0  0  1  0  0  3  0  0  0  0  0  0
  160.4000  206.4990  153.3440 C   0  0  1  0  0  3  0  0  0  0  0  0
  162.1190  208.6850  150.9870 N   0  0  2  0  0  0  0  0  0  0  0  0
  160.1880  209.3820  154.3900 O   0  0  0  0  0  0  0  0  0  0  0  0
  161.1580  204.9730  150.7240 C   0  0  1  0  0  3  0  0  0  0  0  0
  158.8950  211.0070  153.4470 C   0  0  0  0  0  1  0  0  0  0  0  0
  162.1670  208.8280  148.4510 C   0  0  2  0  0  3  0  0  0  0  0  0
  161.6290  209.4110  149.7620 C   0  0  2  0  0  3  0  0  0  0  0  0
  159.9500  204.9220  151.6210 C   0  0  0  0  0  2  0  0  0  0  0  0
  161.1010  202.6220  149.8610 C   0  0  0  0  0  3  0  0  0  0  0  0
  161.2650  204.0090  149.6200 C   0  0  0  0  0  0  0  0  0  0  0  0
  161.3860  204.4620  148.2960 C   0  0  0  0  0  3  0  0  0  0  0  0
  161.5680  204.0390  146.0410 F   0  0  0  0  0  0  0  0  0  0  0  0
  161.3060  202.1550  147.5340 C   0  0  0  0  0  3  0  0  0  0  0  0
  161.4150  203.5320  147.2890 C   0  0  0  0  0  0  0  0  0  0  0  0
  161.1620  201.7020  148.7860 C   0  0  0  0  0  3  0  0  0  0  0  0
  161.8720  210.9030  149.8930 C   0  0  0  0  0  2  0  0  0  0  0  0
  161.3700  211.7850  148.8550 N   0  0  0  0  0  0  0  0  0  0  0  0
  160.0280  213.2950  150.6110 O   0  0  0  0  0  1  0  0  0  0  0  0
  160.4640  213.0240  149.2670 C   0  0  0  0  0  2  0  0  0  0  0  0
  162.7530  212.2290  148.2850 C   0  0  0  0  0  2  0  0  0  0  0  0
  162.6240  213.6070  147.4790 C   0  0  0  0  0  2  0  0  0  0  0  0
  162.3830  213.2710  146.0560 C   0  0  0  0  0  1  0  0  0  0  0  0
  1 10  1  0  0  0  0
  1 18  1  0  0  0  0
  2  6  1  0  0  0  0
  2 16  1  0  0  0  0
  3  7  1  0  0  0  0
  4  8  1  0  0  0  0
  5  2  1  0  0  0  0
  6  4  1  0  0  0  0
  7 19  1  0  0  0  0
  7  5  1  0  0  0  0
  9 13  1  0  0  0  0
  9  6  1  0  0  0  0
 11 16  1  0  0  0  0
 12  8  1  0  0  0  0
 13  1  1  0  0  0  0
 14 15  1  0  0  0  0
 14 21  1  0  0  0  0
 15 21  1  0  0  0  0
 15  3  1  0  0  0  0
 16 12  1  0  0  0  0
 17  5  1  0  0  0  0
 17  9  1  0  0  0  0
 18  4  1  0  0  0  0
 19 23  1  0  0  0  0
 20  1  1  0  0  0  0
 21 22  1  0  0  0  0
 22 31  1  0  0  0  0
 22 17  1  0  0  0  0
 23 11  1  0  0  0  0
 25 24  1  0  0  0  0
 25 19  1  0  0  0  0
 26 25  2  0  0  0  0
 27 29  1  0  0  0  0
 28 30  1  0  0  0  0
 29 28  2  0  0  0  0
 29 26  1  0  0  0  0
 30 24  2  0  0  0  0
 32 34  1  0  0  0  0
 32 31  1  0  0  0  0
 34 33  1  0  0  0  0
 35 32  1  0  0  0  0
 36 35  1  0  0  0  0
 37 36  1  0  0  0  0
M  END
>  <MODEL>
1

>  <REMARK>
 VINA RESULT:      -6.4      0.000      0.000
  Name = 
  6 active torsions:
  status: ('A' for Active; 'I' for Inactive)
    1  A    between atoms: C_1  and  N_4
    2  A    between atoms: C_1  and  C_27
    3  A    between atoms: N_4  and  C_12
    4  A    between atoms: N_4  and  C_37
    5  A    between atoms: C_8  and  C_12
    6  A    between atoms: C_23  and  C_30
                            x       y       z     vdW  Elec       q    Type
                         _______ _______ _______ _____ _____    ______ ____

>  <TORSDO>
F 6

$$$$
=
 OpenBabel11122413533D

 37 43  0  0  1  0  0  0  0  0999 V2000
  162.6490  205.9870  147.3920 C   0  0  0  0  0  0  0  0  0  0  0  0
  160.6600  205.9270  150.4700 C   0  0  1  0  0  3  0  0  0  0  0  0
  160.4030  208.9180  152.3450 C   0  0  0  0  0  2  0  0  0  0  0  0
  160.8100  204.9590  148.0740 C   0  0  2  0  0  3  0  0  0  0  0  0
  161.4430  207.1590  150.8610 C   0  0  2  0  0  3  0  0  0  0  0  0
  160.4030  206.0750  149.0210 C   0  0  2  0  0  3  0  0  0  0  0  0
  161.3020  207.7060  152.3120 C   0  0  2  0  0  3  0  0  0  0  0  0
  160.2860  203.7080  148.7790 C   0  0  0  0  0  2  0  0  0  0  0  0
  161.1600  207.3750  148.6520 C   0  0  2  0  0  3  0  0  0  0  0  0
  162.1700  206.2060  145.9450 C   0  0  0  0  0  1  0  0  0  0  0  0
  161.1340  204.3900  152.3390 N   0  0  0  0  0  2  0  0  0  0  0  0
  160.9660  203.4400  150.1190 C   0  0  0  0  0  2  0  0  0  0  0  0
  162.5370  207.0540  148.2500 O   0  0  0  0  0  0  0  0  0  0  0  0
  162.4790  210.1990  152.0150 O   0  0  0  0  0  0  0  0  0  0  0  0
  161.1040  210.2680  152.2110 C   0  0  1  0  0  3  0  0  0  0  0  0
  161.4330  204.6830  150.9230 C   0  0  1  0  0  3  0  0  0  0  0  0
  161.0980  208.1380  149.8120 N   0  0  2  0  0  0  0  0  0  0  0  0
  162.1910  204.8040  147.9470 O   0  0  0  0  0  0  0  0  0  0  0  0
  160.9760  206.6130  153.3380 C   0  0  1  0  0  3  0  0  0  0  0  0
  164.0980  205.7570  147.1360 C   0  0  0  0  0  1  0  0  0  0  0  0
  161.7560  210.3720  150.8270 C   0  0  2  0  0  3  0  0  0  0  0  0
  162.0790  209.2810  149.8010 C   0  0  2  0  0  3  0  0  0  0  0  0
  161.8400  205.3940  153.1570 C   0  0  0  0  0  2  0  0  0  0  0  0
  159.9300  206.7690  155.6090 C   0  0  0  0  0  3  0  0  0  0  0  0
  160.8860  207.2290  154.6690 C   0  0  0  0  0  0  0  0  0  0  0  0
  161.8390  208.1790  155.0740 C   0  0  0  0  0  3  0  0  0  0  0  0
  162.6890  209.6160  156.6570 F   0  0  0  0  0  0  0  0  0  0  0  0
  160.7790  208.2610  157.2600 C   0  0  0  0  0  3  0  0  0  0  0  0
  161.7590  208.6790  156.3480 C   0  0  0  0  0  0  0  0  0  0  0  0
  159.8770  207.3380  156.9050 C   0  0  0  0  0  3  0  0  0  0  0  0
  162.2530  209.8200  148.3930 C   0  0  0  0  0  2  0  0  0  0  0  0
  161.9960  211.2280  148.1500 N   0  0  0  0  0  0  0  0  0  0  0  0
  163.2610  213.5790  147.9650 O   0  0  0  0  0  1  0  0  0  0  0  0
  163.1990  212.1660  147.7030 C   0  0  0  0  0  2  0  0  0  0  0  0
  160.9380  211.0450  147.0180 C   0  0  0  0  0  2  0  0  0  0  0  0
  160.4110  212.4640  146.4920 C   0  0  0  0  0  2  0  0  0  0  0  0
  159.5640  213.0480  147.5590 C   0  0  0  0  0  1  0  0  0  0  0  0
  1 18  1  0  0  0  0
  1 13  1  0  0  0  0
  2  5  1  0  0  0  0
  2 16  1  0  0  0  0
  4  8  1  0  0  0  0
  4  6  1  0  0  0  0
  5  7  1  0  0  0  0
  6  2  1  0  0  0  0
  7  3  1  0  0  0  0
  7 19  1  0  0  0  0
  8 12  1  0  0  0  0
  9  6  1  0  0  0  0
  9 17  1  0  0  0  0
 10  1  1  0  0  0  0
 11 23  1  0  0  0  0
 12 16  1  0  0  0  0
 13  9  1  0  0  0  0
 14 15  1  0  0  0  0
 15  3  1  0  0  0  0
 16 11  1  0  0  0  0
 17  5  1  0  0  0  0
 18  4  1  0  0  0  0
 19 25  1  0  0  0  0
 20  1  1  0  0  0  0
 21 14  1  0  0  0  0
 21 15  1  0  0  0  0
 22 17  1  0  0  0  0
 22 21  1  0  0  0  0
 23 19  1  0  0  0  0
 24 30  1  0  0  0  0
 25 26  1  0  0  0  0
 25 24  2  0  0  0  0
 26 29  2  0  0  0  0
 29 27  1  0  0  0  0
 29 28  1  0  0  0  0
 30 28  2  0  0  0  0
 31 22  1  0  0  0  0
 32 31  1  0  0  0  0
 34 33  1  0  0  0  0
 34 32  1  0  0  0  0
 35 32  1  0  0  0  0
 36 35  1  0  0  0  0
 36 37  1  0  0  0  0
M  END
>  <MODEL>
2

>  <REMARK>
 VINA RESULT:      -6.1      2.583      6.062
  Name = 
  6 active torsions:
  status: ('A' for Active; 'I' for Inactive)
    1  A    between atoms: C_1  and  N_4
    2  A    between atoms: C_1  and  C_27
    3  A    between atoms: N_4  and  C_12
    4  A    between atoms: N_4  and  C_37
    5  A    between atoms: C_8  and  C_12
    6  A    between atoms: C_23  and  C_30
                            x       y       z     vdW  Elec       q    Type
                         _______ _______ _______ _____ _____    ______ ____

>  <TORSDO>
F 6

$$$$
=
 OpenBabel11122413533D

 37 43  0  0  1  0  0  0  0  0999 V2000
  160.1850  210.5610  153.3030 C   0  0  0  0  0  0  0  0  0  0  0  0
  161.6160  207.2570  152.6190 C   0  0  1  0  0  3  0  0  0  0  0  0
  162.6120  206.5280  149.3010 C   0  0  0  0  0  2  0  0  0  0  0  0
  161.4670  209.1270  154.4010 C   0  0  2  0  0  3  0  0  0  0  0  0
  161.2470  207.5250  151.1790 C   0  0  2  0  0  3  0  0  0  0  0  0
  162.0960  208.5530  153.1430 C   0  0  2  0  0  3  0  0  0  0  0  0
  161.3710  206.3650  150.1460 C   0  0  2  0  0  3  0  0  0  0  0  0
  161.4430  207.9270  155.3480 C   0  0  0  0  0  2  0  0  0  0  0  0
  161.8730  209.5260  151.9580 C   0  0  2  0  0  3  0  0  0  0  0  0
  160.8950  211.8240  153.8220 C   0  0  0  0  0  1  0  0  0  0  0  0
  160.4130  205.1550  153.0860 N   0  0  0  0  0  2  0  0  0  0  0  0
  160.5430  206.7940  154.8630 C   0  0  0  0  0  2  0  0  0  0  0  0
  160.5340  210.1250  152.0490 O   0  0  0  0  0  0  0  0  0  0  0  0
  161.1470  207.7890  147.7770 O   0  0  0  0  0  0  0  0  0  0  0  0
  162.4270  207.2910  147.9910 C   0  0  1  0  0  3  0  0  0  0  0  0
  160.4180  206.6120  153.3260 C   0  0  1  0  0  3  0  0  0  0  0  0
  162.0340  208.7240  150.8340 N   0  0  2  0  0  0  0  0  0  0  0  0
  160.1420  209.5360  154.2330 O   0  0  0  0  0  0  0  0  0  0  0  0
  161.1740  204.9790  150.7710 C   0  0  1  0  0  3  0  0  0  0  0  0
  158.7890  211.0760  153.2350 C   0  0  0  0  0  1  0  0  0  0  0  0
  162.0360  208.7420  148.2940 C   0  0  2  0  0  3  0  0  0  0  0  0
  161.5040  209.3740  149.5840 C   0  0  2  0  0  3  0  0  0  0  0  0
  159.9840  204.9390  151.6910 C   0  0  0  0  0  2  0  0  0  0  0  0
  161.0650  202.5960  150.0060 C   0  0  0  0  0  3  0  0  0  0  0  0
  161.2900  203.9650  149.7140 C   0  0  0  0  0  0  0  0  0  0  0  0
  161.4820  204.3550  148.3780 C   0  0  0  0  0  3  0  0  0  0  0  0
  161.7390  203.8280  146.1530 F   0  0  0  0  0  0  0  0  0  0  0  0
  161.3450  202.0210  147.7120 C   0  0  0  0  0  3  0  0  0  0  0  0
  161.5160  203.3820  147.4140 C   0  0  0  0  0  0  0  0  0  0  0  0
  161.1350  201.6280  148.9740 C   0  0  0  0  0  3  0  0  0  0  0  0
  161.7070  210.8770  149.6370 C   0  0  0  0  0  2  0  0  0  0  0  0
  161.8420  211.6080  148.3900 N   0  0  0  0  0  0  0  0  0  0  0  0
  160.3700  212.3820  146.2930 O   0  0  0  0  0  1  0  0  0  0  0  0
  160.7690  211.3760  147.2410 C   0  0  0  0  0  2  0  0  0  0  0  0
  161.7630  213.0450  148.9910 C   0  0  0  0  0  2  0  0  0  0  0  0
  160.4940  213.1930  149.9560 C   0  0  0  0  0  2  0  0  0  0  0  0
  159.6090  214.2310  149.3760 C   0  0  0  0  0  1  0  0  0  0  0  0
  1 10  1  0  0  0  0
  1 18  1  0  0  0  0
  2  6  1  0  0  0  0
  2 16  1  0  0  0  0
  3  7  1  0  0  0  0
  4  8  1  0  0  0  0
  5  2  1  0  0  0  0
  6  4  1  0  0  0  0
  7 19  1  0  0  0  0
  7  5  1  0  0  0  0
  9 13  1  0  0  0  0
  9  6  1  0  0  0  0
 11 16  1  0  0  0  0
 12  8  1  0  0  0  0
 13  1  1  0  0  0  0
 14 15  1  0  0  0  0
 14 21  1  0  0  0  0
 15 21  1  0  0  0  0
 15  3  1  0  0  0  0
 16 12  1  0  0  0  0
 17  5  1  0  0  0  0
 17  9  1  0  0  0  0
 18  4  1  0  0  0  0
 19 23  1  0  0  0  0
 20  1  1  0  0  0  0
 21 22  1  0  0  0  0
 22 31  1  0  0  0  0
 22 17  1  0  0  0  0
 23 11  1  0  0  0  0
 25 24  1  0  0  0  0
 25 19  1  0  0  0  0
 26 25  2  0  0  0  0
 27 29  1  0  0  0  0
 28 30  1  0  0  0  0
 29 28  2  0  0  0  0
 29 26  1  0  0  0  0
 30 24  2  0  0  0  0
 32 35  1  0  0  0  0
 32 31  1  0  0  0  0
 33 34  1  0  0  0  0
 34 32  1  0  0  0  0
 35 36  1  0  0  0  0
 37 36  1  0  0  0  0
M  END
>  <MODEL>
3

>  <REMARK>
 VINA RESULT:      -5.6      0.923      1.283
  Name = 
  6 active torsions:
  status: ('A' for Active; 'I' for Inactive)
    1  A    between atoms: C_1  and  N_4
    2  A    between atoms: C_1  and  C_27
    3  A    between atoms: N_4  and  C_12
    4  A    between atoms: N_4  and  C_37
    5  A    between atoms: C_8  and  C_12
    6  A    between atoms: C_23  and  C_30
                            x       y       z     vdW  Elec       q    Type
                         _______ _______ _______ _____ _____    ______ ____

>  <TORSDO>
F 6

$$$$
=
 OpenBabel11122413533D

 37 43  0  0  1  0  0  0  0  0999 V2000
  160.0790  210.8910  154.4380 C   0  0  0  0  0  0  0  0  0  0  0  0
  161.5930  207.6190  153.7820 C   0  0  1  0  0  3  0  0  0  0  0  0
  162.5990  206.8830  150.4690 C   0  0  0  0  0  2  0  0  0  0  0  0
  161.4000  209.5020  155.5460 C   0  0  2  0  0  3  0  0  0  0  0  0
  161.2130  207.8630  152.3400 C   0  0  2  0  0  3  0  0  0  0  0  0
  162.0410  208.9320  154.2920 C   0  0  2  0  0  3  0  0  0  0  0  0
  161.3650  206.6960  151.3180 C   0  0  2  0  0  3  0  0  0  0  0  0
  161.4100  208.3110  156.5040 C   0  0  0  0  0  2  0  0  0  0  0  0
  161.7900  209.8870  153.0980 C   0  0  2  0  0  3  0  0  0  0  0  0
  160.7570  212.1780  154.9420 C   0  0  0  0  0  1  0  0  0  0  0  0
  160.4470  205.4920  154.2730 N   0  0  0  0  0  2  0  0  0  0  0  0
  160.5390  207.1500  156.0330 C   0  0  0  0  0  2  0  0  0  0  0  0
  160.4360  210.4520  153.1870 O   0  0  0  0  0  0  0  0  0  0  0  0
  161.0990  208.0910  148.9370 O   0  0  0  0  0  0  0  0  0  0  0  0
  162.3920  207.6280  149.1520 C   0  0  1  0  0  3  0  0  0  0  0  0
  160.4150  206.9500  154.4990 C   0  0  1  0  0  3  0  0  0  0  0  0
  161.9690  209.0790  151.9820 N   0  0  2  0  0  0  0  0  0  0  0  0
  160.0650  209.8750  155.3780 O   0  0  0  0  0  0  0  0  0  0  0  0
  161.2060  205.3120  151.9580 C   0  0  1  0  0  3  0  0  0  0  0  0
  158.6700  211.3700  154.3690 C   0  0  0  0  0  1  0  0  0  0  0  0
  161.9640  209.0720  149.4410 C   0  0  2  0  0  3  0  0  0  0  0  0
  161.4180  209.7030  150.7270 C   0  0  2  0  0  3  0  0  0  0  0  0
  160.0190  205.2500  152.8820 C   0  0  0  0  0  2  0  0  0  0  0  0
  161.4880  202.9230  151.2570 C   0  0  0  0  0  3  0  0  0  0  0  0
  161.3450  204.2910  150.9110 C   0  0  0  0  0  0  0  0  0  0  0  0
  161.1930  204.6400  149.5580 C   0  0  0  0  0  3  0  0  0  0  0  0
  161.1420  204.0610  147.3320 F   0  0  0  0  0  0  0  0  0  0  0  0
  161.4570  202.2990  148.9580 C   0  0  0  0  0  3  0  0  0  0  0  0
  161.2630  203.6460  148.6170 C   0  0  0  0  0  0  0  0  0  0  0  0
  161.5780  201.9390  150.2420 C   0  0  0  0  0  3  0  0  0  0  0  0
  161.5830  211.2110  150.7650 C   0  0  0  0  0  2  0  0  0  0  0  0
  160.7640  212.0240  149.8850 N   0  0  0  0  0  0  0  0  0  0  0  0
  158.8640  213.2420  151.3240 O   0  0  0  0  0  1  0  0  0  0  0  0
  160.0260  213.3010  150.4780 C   0  0  0  0  0  2  0  0  0  0  0  0
  161.8830  212.4080  148.8680 C   0  0  0  0  0  2  0  0  0  0  0  0
  161.2720  212.6450  147.4070 C   0  0  0  0  0  2  0  0  0  0  0  0
  162.3270  213.2740  146.5770 C   0  0  0  0  0  1  0  0  0  0  0  0
  1 10  1  0  0  0  0
  1 18  1  0  0  0  0
  2  6  1  0  0  0  0
  2 16  1  0  0  0  0
  3  7  1  0  0  0  0
  4  8  1  0  0  0  0
  5  2  1  0  0  0  0
  6  4  1  0  0  0  0
  7 19  1  0  0  0  0
  7  5  1  0  0  0  0
  9 13  1  0  0  0  0
  9  6  1  0  0  0  0
 11 16  1  0  0  0  0
 12  8  1  0  0  0  0
 13  1  1  0  0  0  0
 14 15  1  0  0  0  0
 14 21  1  0  0  0  0
 15 21  1  0  0  0  0
 15  3  1  0  0  0  0
 16 12  1  0  0  0  0
 17  5  1  0  0  0  0
 17  9  1  0  0  0  0
 18  4  1  0  0  0  0
 19 23  1  0  0  0  0
 20  1  1  0  0  0  0
 21 22  1  0  0  0  0
 22 31  1  0  0  0  0
 22 17  1  0  0  0  0
 23 11  1  0  0  0  0
 25 24  1  0  0  0  0
 25 19  1  0  0  0  0
 26 25  2  0  0  0  0
 27 29  1  0  0  0  0
 28 30  1  0  0  0  0
 29 28  2  0  0  0  0
 29 26  1  0  0  0  0
 30 24  2  0  0  0  0
 32 34  1  0  0  0  0
 32 31  1  0  0  0  0
 34 33  1  0  0  0  0
 35 32  1  0  0  0  0
 36 35  1  0  0  0  0
 37 36  1  0  0  0  0
M  END
>  <MODEL>
4

>  <REMARK>
 VINA RESULT:      -5.3      1.075      1.208
  Name = 
  6 active torsions:
  status: ('A' for Active; 'I' for Inactive)
    1  A    between atoms: C_1  and  N_4
    2  A    between atoms: C_1  and  C_27
    3  A    between atoms: N_4  and  C_12
    4  A    between atoms: N_4  and  C_37
    5  A    between atoms: C_8  and  C_12
    6  A    between atoms: C_23  and  C_30
                            x       y       z     vdW  Elec       q    Type
                         _______ _______ _______ _____ _____    ______ ____

>  <TORSDO>
F 6

$$$$
=
 OpenBabel11122413533D

 37 43  0  0  1  0  0  0  0  0999 V2000
  158.9120  212.4940  156.2060 C   0  0  0  0  0  0  0  0  0  0  0  0
  158.5610  212.4200  152.5580 C   0  0  1  0  0  3  0  0  0  0  0  0
  160.8590  210.4690  150.7040 C   0  0  0  0  0  2  0  0  0  0  0  0
  157.2260  212.5480  154.7720 C   0  0  2  0  0  3  0  0  0  0  0  0
  160.0030  211.9700  152.5460 C   0  0  2  0  0  3  0  0  0  0  0  0
  157.9500  211.7310  153.7160 C   0  0  2  0  0  3  0  0  0  0  0  0
  160.7520  211.8970  151.1820 C   0  0  2  0  0  3  0  0  0  0  0  0
  156.3460  213.4790  153.9370 C   0  0  0  0  0  2  0  0  0  0  0  0
  159.1450  210.9850  154.3620 C   0  0  2  0  0  3  0  0  0  0  0  0
  158.1880  211.6340  157.2570 C   0  0  0  0  0  1  0  0  0  0  0  0
  158.6330  214.4530  151.1650 N   0  0  0  0  0  2  0  0  0  0  0  0
  157.1460  214.4520  153.0750 C   0  0  0  0  0  2  0  0  0  0  0  0
  159.7850  211.8450  155.3670 O   0  0  0  0  0  0  0  0  0  0  0  0
  162.9930  210.4450  151.9300 O   0  0  0  0  0  0  0  0  0  0  0  0
  162.1280  209.7250  151.1140 C   0  0  1  0  0  3  0  0  0  0  0  0
  158.5180  213.9520  152.5490 C   0  0  1  0  0  3  0  0  0  0  0  0
  159.9770  210.6950  153.2880 N   0  0  2  0  0  0  0  0  0  0  0  0
  158.0680  213.3610  155.5320 O   0  0  0  0  0  0  0  0  0  0  0  0
  160.2250  212.9020  150.1510 C   0  0  1  0  0  3  0  0  0  0  0  0
  159.7120  213.3650  157.1130 C   0  0  0  0  0  1  0  0  0  0  0  0
  162.1600  209.5690  152.6390 C   0  0  2  0  0  3  0  0  0  0  0  0
  161.3620  210.3000  153.7250 C   0  0  2  0  0  3  0  0  0  0  0  0
  160.0350  214.2720  150.7450 C   0  0  0  0  0  2  0  0  0  0  0  0
  160.3820  212.8880  147.6510 C   0  0  0  0  0  3  0  0  0  0  0  0
  161.0090  212.7650  148.9160 C   0  0  0  0  0  0  0  0  0  0  0  0
  162.4090  212.6550  148.9770 C   0  0  0  0  0  3  0  0  0  0  0  0
  164.4500  212.4570  147.9340 F   0  0  0  0  0  0  0  0  0  0  0  0
  162.4800  212.6660  146.5460 C   0  0  0  0  0  3  0  0  0  0  0  0
  163.1090  212.5980  147.7990 C   0  0  0  0  0  0  0  0  0  0  0  0
  161.1510  212.7980  146.4650 C   0  0  0  0  0  3  0  0  0  0  0  0
  161.3110  209.5390  155.0370 C   0  0  0  0  0  2  0  0  0  0  0  0
  162.4700  209.5750  155.9110 N   0  0  0  0  0  0  0  0  0  0  0  0
  164.1480  211.1650  157.2590 O   0  0  0  0  0  1  0  0  0  0  0  0
  163.1250  210.9790  156.2650 C   0  0  0  0  0  2  0  0  0  0  0  0
  161.8050  208.9030  157.1520 C   0  0  0  0  0  2  0  0  0  0  0  0
  160.3400  208.3650  156.7950 C   0  0  0  0  0  2  0  0  0  0  0  0
  160.2800  206.9380  157.1910 C   0  0  0  0  0  1  0  0  0  0  0  0
  1 20  1  0  0  0  0
  1 10  1  0  0  0  0
  2  6  1  0  0  0  0
  3 15  1  0  0  0  0
  3  7  1  0  0  0  0
  4 18  1  0  0  0  0
  5  2  1  0  0  0  0
  5 17  1  0  0  0  0
  6  9  1  0  0  0  0
  6  4  1  0  0  0  0
  7  5  1  0  0  0  0
  8  4  1  0  0  0  0
  9 13  1  0  0  0  0
 11 16  1  0  0  0  0
 12  8  1  0  0  0  0
 13  1  1  0  0  0  0
 14 21  1  0  0  0  0
 15 14  1  0  0  0  0
 15 21  1  0  0  0  0
 16  2  1  0  0  0  0
 16 12  1  0  0  0  0
 17 22  1  0  0  0  0
 17  9  1  0  0  0  0
 18  1  1  0  0  0  0
 19 23  1  0  0  0  0
 19  7  1  0  0  0  0
 21 22  1  0  0  0  0
 22 31  1  0  0  0  0
 23 11  1  0  0  0  0
 24 25  1  0  0  0  0
 25 26  2  0  0  0  0
 25 19  1  0  0  0  0
 28 29  2  0  0  0  0
 29 27  1  0  0  0  0
 29 26  1  0  0  0  0
 30 28  1  0  0  0  0
 30 24  2  0  0  0  0
 31 32  1  0  0  0  0
 32 34  1  0  0  0  0
 32 35  1  0  0  0  0
 34 33  1  0  0  0  0
 36 35  1  0  0  0  0
 36 37  1  0  0  0  0
M  END
>  <MODEL>
5

>  <REMARK>
 VINA RESULT:      -5.3      4.267      7.468
  Name = 
  6 active torsions:
  status: ('A' for Active; 'I' for Inactive)
    1  A    between atoms: C_1  and  N_4
    2  A    between atoms: C_1  and  C_27
    3  A    between atoms: N_4  and  C_12
    4  A    between atoms: N_4  and  C_37
    5  A    between atoms: C_8  and  C_12
    6  A    between atoms: C_23  and  C_30
                            x       y       z     vdW  Elec       q    Type
                         _______ _______ _______ _____ _____    ______ ____

>  <TORSDO>
F 6

$$$$
=
 OpenBabel11122413533D

 37 43  0  0  1  0  0  0  0  0999 V2000
  161.5990  208.0380  148.5930 C   0  0  0  0  0  0  0  0  0  0  0  0
  161.6370  210.5790  151.2350 C   0  0  1  0  0  3  0  0  0  0  0  0
  161.1640  209.5130  154.5770 C   0  0  0  0  0  2  0  0  0  0  0  0
  162.6820  209.9350  148.9560 C   0  0  2  0  0  3  0  0  0  0  0  0
  160.8960  209.5580  152.0650 C   0  0  2  0  0  3  0  0  0  0  0  0
  162.6360  209.8030  150.4680 C   0  0  2  0  0  3  0  0  0  0  0  0
  160.3010  209.9980  153.4360 C   0  0  2  0  0  3  0  0  0  0  0  0
  162.6230  211.4480  148.7450 C   0  0  0  0  0  2  0  0  0  0  0  0
  162.3260  208.3350  150.8550 C   0  0  2  0  0  3  0  0  0  0  0  0
  162.7910  207.3060  147.9500 C   0  0  0  0  0  1  0  0  0  0  0  0
  160.0920  212.5000  151.2640 N   0  0  0  0  0  2  0  0  0  0  0  0
  161.3130  212.0730  149.2190 C   0  0  0  0  0  2  0  0  0  0  0  0
  161.3470  207.7680  149.9160 O   0  0  0  0  0  0  0  0  0  0  0  0
  159.7210  207.5200  154.5380 O   0  0  0  0  0  0  0  0  0  0  0  0
  160.7810  208.1590  155.1700 C   0  0  1  0  0  3  0  0  0  0  0  0
  160.6200  211.4000  150.4340 C   0  0  1  0  0  3  0  0  0  0  0  0
  161.8410  208.4270  152.1540 N   0  0  2  0  0  0  0  0  0  0  0  0
  161.5710  209.3930  148.3080 O   0  0  0  0  0  0  0  0  0  0  0  0
  159.9210  211.4830  153.4780 C   0  0  1  0  0  3  0  0  0  0  0  0
  160.4910  207.4530  147.7890 C   0  0  0  0  0  1  0  0  0  0  0  0
  160.9770  207.0640  154.1150 C   0  0  2  0  0  3  0  0  0  0  0  0
  161.1370  207.1720  152.5950 C   0  0  2  0  0  3  0  0  0  0  0  0
  159.1660  211.9070  152.2480 C   0  0  0  0  0  2  0  0  0  0  0  0
  160.0810  212.5730  155.7280 C   0  0  0  0  0  3  0  0  0  0  0  0
  159.3540  211.7860  154.8000 C   0  0  0  0  0  0  0  0  0  0  0  0
  158.0310  211.4210  155.1010 C   0  0  0  0  0  3  0  0  0  0  0  0
  156.2490  211.3670  156.5560 F   0  0  0  0  0  0  0  0  0  0  0  0
  158.2570  212.5170  157.2600 C   0  0  0  0  0  3  0  0  0  0  0  0
  157.5180  211.7820  156.3200 C   0  0  0  0  0  0  0  0  0  0  0  0
  159.5100  212.8980  156.9830 C   0  0  0  0  0  3  0  0  0  0  0  0
  161.7910  205.9490  151.9780 C   0  0  0  0  0  2  0  0  0  0  0  0
  160.9900  205.0800  151.1350 N   0  0  0  0  0  0  0  0  0  0  0  0
  160.7790  204.2360  148.6040 O   0  0  0  0  0  1  0  0  0  0  0  0
  161.5820  204.5960  149.7420 C   0  0  0  0  0  2  0  0  0  0  0  0
  160.8330  203.9060  152.1500 C   0  0  0  0  0  2  0  0  0  0  0  0
  161.6120  202.6020  151.6420 C   0  0  0  0  0  2  0  0  0  0  0  0
  160.6420  201.7650  150.8970 C   0  0  0  0  0  1  0  0  0  0  0  0
  1 13  1  0  0  0  0
  2  5  1  0  0  0  0
  3 15  1  0  0  0  0
  4  6  1  0  0  0  0
  5 17  1  0  0  0  0
  5  7  1  0  0  0  0
  6  9  1  0  0  0  0
  6  2  1  0  0  0  0
  7 19  1  0  0  0  0
  7  3  1  0  0  0  0
  8  4  1  0  0  0  0
  8 12  1  0  0  0  0
  9 17  1  0  0  0  0
 10  1  1  0  0  0  0
 11 23  1  0  0  0  0
 12 16  1  0  0  0  0
 13  9  1  0  0  0  0
 14 15  1  0  0  0  0
 16  2  1  0  0  0  0
 16 11  1  0  0  0  0
 17 22  1  0  0  0  0
 18  1  1  0  0  0  0
 18  4  1  0  0  0  0
 19 25  1  0  0  0  0
 20  1  1  0  0  0  0
 21 14  1  0  0  0  0
 21 15  1  0  0  0  0
 22 21  1  0  0  0  0
 23 19  1  0  0  0  0
 24 30  1  0  0  0  0
 25 26  1  0  0  0  0
 25 24  2  0  0  0  0
 26 29  2  0  0  0  0
 29 27  1  0  0  0  0
 29 28  1  0  0  0  0
 30 28  2  0  0  0  0
 31 22  1  0  0  0  0
 32 31  1  0  0  0  0
 32 35  1  0  0  0  0
 33 34  1  0  0  0  0
 34 32  1  0  0  0  0
 36 35  1  0  0  0  0
 37 36  1  0  0  0  0
M  END
>  <MODEL>
6

>  <REMARK>
 VINA RESULT:      -5.2      2.940      8.230
  Name = 
  6 active torsions:
  status: ('A' for Active; 'I' for Inactive)
    1  A    between atoms: C_1  and  N_4
    2  A    between atoms: C_1  and  C_27
    3  A    between atoms: N_4  and  C_12
    4  A    between atoms: N_4  and  C_37
    5  A    between atoms: C_8  and  C_12
    6  A    between atoms: C_23  and  C_30
                            x       y       z     vdW  Elec       q    Type
                         _______ _______ _______ _____ _____    ______ ____

>  <TORSDO>
F 6

$$$$
=
 OpenBabel11122413533D

 37 43  0  0  1  0  0  0  0  0999 V2000
  159.8880  210.4970  154.0430 C   0  0  0  0  0  0  0  0  0  0  0  0
  161.7490  208.0320  152.0690 C   0  0  1  0  0  3  0  0  0  0  0  0
  162.7040  208.9150  148.7770 C   0  0  0  0  0  2  0  0  0  0  0  0
  161.4050  208.9410  154.4680 C   0  0  2  0  0  3  0  0  0  0  0  0
  161.2870  208.8210  150.8660 C   0  0  2  0  0  3  0  0  0  0  0  0
  162.0590  209.0450  153.1010 C   0  0  2  0  0  3  0  0  0  0  0  0
  161.5350  208.2330  149.4450 C   0  0  2  0  0  3  0  0  0  0  0  0
  161.5920  207.4650  154.8220 C   0  0  0  0  0  2  0  0  0  0  0  0
  161.6510  210.3800  152.4280 C   0  0  2  0  0  3  0  0  0  0  0  0
  160.4290  211.5160  155.0610 C   0  0  0  0  0  1  0  0  0  0  0  0
  160.8790  205.7770  151.5820 N   0  0  0  0  0  2  0  0  0  0  0  0
  160.8450  206.5200  153.8850 C   0  0  0  0  0  2  0  0  0  0  0  0
  160.2450  210.6820  152.7300 O   0  0  0  0  0  0  0  0  0  0  0  0
  161.0140  210.4680  147.8890 O   0  0  0  0  0  0  0  0  0  0  0  0
  162.3600  210.1200  147.9040 C   0  0  1  0  0  3  0  0  0  0  0  0
  160.6860  206.9820  152.4110 C   0  0  1  0  0  3  0  0  0  0  0  0
  161.8800  210.1560  151.0760 N   0  0  2  0  0  0  0  0  0  0  0  0
  160.0300  209.1820  154.4560 O   0  0  0  0  0  0  0  0  0  0  0  0
  161.5640  206.7000  149.4260 C   0  0  1  0  0  3  0  0  0  0  0  0
  158.4310  210.7820  154.1650 C   0  0  0  0  0  1  0  0  0  0  0  0
  161.7770  211.2360  148.7790 C   0  0  2  0  0  3  0  0  0  0  0  0
  161.2120  211.1840  150.2020 C   0  0  2  0  0  3  0  0  0  0  0  0
  160.4290  206.1040  150.2150 C   0  0  0  0  0  2  0  0  0  0  0  0
  162.9020  205.4470  147.7180 C   0  0  0  0  0  3  0  0  0  0  0  0
  161.7810  206.2500  148.0440 C   0  0  0  0  0  0  0  0  0  0  0  0
  160.8060  206.4910  147.0610 C   0  0  0  0  0  3  0  0  0  0  0  0
  160.0510  206.2970  144.8960 F   0  0  0  0  0  0  0  0  0  0  0  0
  162.1530  205.2450  145.4660 C   0  0  0  0  0  3  0  0  0  0  0  0
  161.0160  205.9970  145.8000 C   0  0  0  0  0  0  0  0  0  0  0  0
  163.0820  204.9810  146.3920 C   0  0  0  0  0  3  0  0  0  0  0  0
  161.2000  212.5390  150.8870 C   0  0  0  0  0  2  0  0  0  0  0  0
  160.5360  213.6480  150.2260 N   0  0  0  0  0  0  0  0  0  0  0  0
  161.7150  214.4520  147.9620 O   0  0  0  0  0  1  0  0  0  0  0  0
  160.6420  213.7810  148.6460 C   0  0  0  0  0  2  0  0  0  0  0  0
  159.0840  213.3200  150.6950 C   0  0  0  0  0  2  0  0  0  0  0  0
  158.8090  213.9090  152.1590 C   0  0  0  0  0  2  0  0  0  0  0  0
  157.3660  213.7320  152.4470 C   0  0  0  0  0  1  0  0  0  0  0  0
  1 20  1  0  0  0  0
  1 18  1  0  0  0  0
  1 10  1  0  0  0  0
  2 16  1  0  0  0  0
  2  6  1  0  0  0  0
  3  7  1  0  0  0  0
  4  8  1  0  0  0  0
  5 17  1  0  0  0  0
  5  2  1  0  0  0  0
  6  4  1  0  0  0  0
  7  5  1  0  0  0  0
  9 13  1  0  0  0  0
  9  6  1  0  0  0  0
 11 16  1  0  0  0  0
 12  8  1  0  0  0  0
 13  1  1  0  0  0  0
 14 15  1  0  0  0  0
 14 21  1  0  0  0  0
 15  3  1  0  0  0  0
 15 21  1  0  0  0  0
 16 12  1  0  0  0  0
 17  9  1  0  0  0  0
 18  4  1  0  0  0  0
 19  7  1  0  0  0  0
 19 23  1  0  0  0  0
 21 22  1  0  0  0  0
 22 31  1  0  0  0  0
 22 17  1  0  0  0  0
 23 11  1  0  0  0  0
 24 25  1  0  0  0  0
 25 19  1  0  0  0  0
 26 25  2  0  0  0  0
 27 29  1  0  0  0  0
 28 29  2  0  0  0  0
 28 30  1  0  0  0  0
 29 26  1  0  0  0  0
 30 24  2  0  0  0  0
 32 35  1  0  0  0  0
 32 31  1  0  0  0  0
 33 34  1  0  0  0  0
 34 32  1  0  0  0  0
 35 36  1  0  0  0  0
 36 37  1  0  0  0  0
M  END
>  <MODEL>
7

>  <REMARK>
 VINA RESULT:      -4.7      1.910      2.775
  Name = 
  6 active torsions:
  status: ('A' for Active; 'I' for Inactive)
    1  A    between atoms: C_1  and  N_4
    2  A    between atoms: C_1  and  C_27
    3  A    between atoms: N_4  and  C_12
    4  A    between atoms: N_4  and  C_37
    5  A    between atoms: C_8  and  C_12
    6  A    between atoms: C_23  and  C_30
                            x       y       z     vdW  Elec       q    Type
                         _______ _______ _______ _____ _____    ______ ____

>  <TORSDO>
F 6

$$$$
=
 OpenBabel11122413533D

 37 43  0  0  1  0  0  0  0  0999 V2000
  160.9520  206.1700  146.9590 C   0  0  0  0  0  0  0  0  0  0  0  0
  162.1900  207.5580  150.1180 C   0  0  1  0  0  3  0  0  0  0  0  0
  161.8790  205.5840  153.0390 C   0  0  0  0  0  2  0  0  0  0  0  0
  162.6320  207.4770  147.5690 C   0  0  2  0  0  3  0  0  0  0  0  0
  161.2840  206.5480  150.7810 C   0  0  2  0  0  3  0  0  0  0  0  0
  162.7620  206.8560  148.9490 C   0  0  2  0  0  3  0  0  0  0  0  0
  161.0670  206.6350  152.3210 C   0  0  2  0  0  3  0  0  0  0  0  0
  163.0380  208.9310  147.8110 C   0  0  0  0  0  2  0  0  0  0  0  0
  162.0500  205.4800  148.9710 C   0  0  2  0  0  3  0  0  0  0  0  0
  161.7350  205.4160  145.8710 C   0  0  0  0  0  1  0  0  0  0  0  0
  161.3740  209.6890  151.0540 N   0  0  0  0  0  2  0  0  0  0  0  0
  162.0850  209.6780  148.7400 C   0  0  0  0  0  2  0  0  0  0  0  0
  160.8170  205.5440  148.1740 O   0  0  0  0  0  0  0  0  0  0  0  0
  159.8770  204.1750  152.7910 O   0  0  0  0  0  0  0  0  0  0  0  0
  161.1660  204.2600  153.3030 C   0  0  1  0  0  3  0  0  0  0  0  0
  161.3910  208.8390  149.8470 C   0  0  1  0  0  3  0  0  0  0  0  0
  161.8130  205.2490  150.3210 N   0  0  2  0  0  0  0  0  0  0  0  0
  161.3240  207.4990  147.0810 O   0  0  0  0  0  0  0  0  0  0  0  0
  161.2000  208.0620  152.8680 C   0  0  1  0  0  3  0  0  0  0  0  0
  159.6100  206.2060  146.3130 C   0  0  0  0  0  1  0  0  0  0  0  0
  160.8420  203.5780  151.9680 C   0  0  2  0  0  3  0  0  0  0  0  0
  160.8100  204.1500  150.5470 C   0  0  2  0  0  3  0  0  0  0  0  0
  160.4560  209.0610  152.0230 C   0  0  0  0  0  2  0  0  0  0  0  0
  160.1840  206.9970  154.8950 C   0  0  0  0  0  3  0  0  0  0  0  0
  160.9570  208.0360  154.3170 C   0  0  0  0  0  0  0  0  0  0  0  0
  161.6050  208.9550  155.1590 C   0  0  0  0  0  3  0  0  0  0  0  0
  162.0330  209.7940  157.2580 F   0  0  0  0  0  0  0  0  0  0  0  0
  160.5960  207.8560  157.0790 C   0  0  0  0  0  3  0  0  0  0  0  0
  161.4040  208.8530  156.5110 C   0  0  0  0  0  0  0  0  0  0  0  0
  159.9900  206.9540  156.2980 C   0  0  0  0  0  3  0  0  0  0  0  0
  160.9360  203.0840  149.4750 C   0  0  0  0  0  2  0  0  0  0  0  0
  160.6820  201.7000  149.8330 N   0  0  0  0  0  0  0  0  0  0  0  0
  158.2120  200.9810  149.0980 O   0  0  0  0  0  1  0  0  0  0  0  0
  159.1890  201.2390  150.1210 C   0  0  0  0  0  2  0  0  0  0  0  0
  161.2630  201.0490  148.5400 C   0  0  0  0  0  2  0  0  0  0  0  0
  161.2050  202.0720  147.3090 C   0  0  0  0  0  2  0  0  0  0  0  0
  160.6550  201.3380  146.1440 C   0  0  0  0  0  1  0  0  0  0  0  0
  1 18  1  0  0  0  0
  1 13  1  0  0  0  0
  2  5  1  0  0  0  0
  3 15  1  0  0  0  0
  4  8  1  0  0  0  0
  4  6  1  0  0  0  0
  5  7  1  0  0  0  0
  6  9  1  0  0  0  0
  6  2  1  0  0  0  0
  7 19  1  0  0  0  0
  7  3  1  0  0  0  0
  8 12  1  0  0  0  0
  9 17  1  0  0  0  0
 10  1  1  0  0  0  0
 11 23  1  0  0  0  0
 12 16  1  0  0  0  0
 13  9  1  0  0  0  0
 14 15  1  0  0  0  0
 16  2  1  0  0  0  0
 16 11  1  0  0  0  0
 17 22  1  0  0  0  0
 17  5  1  0  0  0  0
 18  4  1  0  0  0  0
 19 25  1  0  0  0  0
 20  1  1  0  0  0  0
 21 14  1  0  0  0  0
 21 15  1  0  0  0  0
 22 21  1  0  0  0  0
 23 19  1  0  0  0  0
 24 30  1  0  0  0  0
 25 24  2  0  0  0  0
 25 26  1  0  0  0  0
 26 29  2  0  0  0  0
 29 28  1  0  0  0  0
 29 27  1  0  0  0  0
 30 28  2  0  0  0  0
 31 32  1  0  0  0  0
 31 22  1  0  0  0  0
 32 34  1  0  0  0  0
 33 34  1  0  0  0  0
 35 32  1  0  0  0  0
 36 35  1  0  0  0  0
 37 36  1  0  0  0  0
M  END
>  <MODEL>
8

>  <REMARK>
 VINA RESULT:      -4.4      3.268      7.922
  Name = 
  6 active torsions:
  status: ('A' for Active; 'I' for Inactive)
    1  A    between atoms: C_1  and  N_4
    2  A    between atoms: C_1  and  C_27
    3  A    between atoms: N_4  and  C_12
    4  A    between atoms: N_4  and  C_37
    5  A    between atoms: C_8  and  C_12
    6  A    between atoms: C_23  and  C_30
                            x       y       z     vdW  Elec       q    Type
                         _______ _______ _______ _____ _____    ______ ____

>  <TORSDO>
F 6

$$$$
=
 OpenBabel11122413533D

 37 43  0  0  1  0  0  0  0  0999 V2000
  159.3230  211.7320  155.9200 C   0  0  0  0  0  0  0  0  0  0  0  0
  158.6530  212.2220  152.3500 C   0  0  1  0  0  3  0  0  0  0  0  0
  160.8550  210.7190  150.0210 C   0  0  0  0  0  2  0  0  0  0  0  0
  157.5150  211.9230  154.6550 C   0  0  2  0  0  3  0  0  0  0  0  0
  160.1060  211.8580  152.1470 C   0  0  2  0  0  3  0  0  0  0  0  0
  158.1760  211.3260  153.4250 C   0  0  2  0  0  3  0  0  0  0  0  0
  160.7340  212.0440  150.7340 C   0  0  2  0  0  3  0  0  0  0  0  0
  156.5290  212.9280  154.0580 C   0  0  0  0  0  2  0  0  0  0  0  0
  159.4520  210.5510  153.8410 C   0  0  2  0  0  3  0  0  0  0  0  0
  158.7300  210.6770  156.8700 C   0  0  0  0  0  1  0  0  0  0  0  0
  158.5210  214.4530  151.3070 N   0  0  0  0  0  2  0  0  0  0  0  0
  157.2100  214.0670  153.3050 C   0  0  0  0  0  2  0  0  0  0  0  0
  160.1430  211.2730  154.9190 O   0  0  0  0  0  0  0  0  0  0  0  0
  163.0880  210.6140  151.0500 O   0  0  0  0  0  0  0  0  0  0  0  0
  162.1830  209.9880  150.2000 C   0  0  1  0  0  3  0  0  0  0  0  0
  158.5490  213.7320  152.5950 C   0  0  1  0  0  3  0  0  0  0  0  0
  160.1960  210.4810  152.6700 N   0  0  2  0  0  0  0  0  0  0  0  0
  158.3890  212.6490  155.4670 O   0  0  0  0  0  0  0  0  0  0  0  0
  160.0770  213.1710  149.9270 C   0  0  1  0  0  3  0  0  0  0  0  0
  160.1640  212.4880  156.8890 C   0  0  0  0  0  1  0  0  0  0  0  0
  162.3560  209.5930  151.6710 C   0  0  2  0  0  3  0  0  0  0  0  0
  161.6300  210.0960  152.9230 C   0  0  2  0  0  3  0  0  0  0  0  0
  159.8870  214.4170  150.7510 C   0  0  0  0  0  2  0  0  0  0  0  0
  161.9710  213.9930  148.5080 C   0  0  0  0  0  3  0  0  0  0  0  0
  160.7540  213.2760  148.6270 C   0  0  0  0  0  0  0  0  0  0  0  0
  160.2790  212.5490  147.5230 C   0  0  0  0  0  3  0  0  0  0  0  0
  160.4440  211.9220  145.3150 F   0  0  0  0  0  0  0  0  0  0  0  0
  162.1560  213.3740  146.2160 C   0  0  0  0  0  3  0  0  0  0  0  0
  160.9790  212.6210  146.3460 C   0  0  0  0  0  0  0  0  0  0  0  0
  162.6410  214.0540  147.2620 C   0  0  0  0  0  3  0  0  0  0  0  0
  161.7240  209.1340  154.0930 C   0  0  0  0  0  2  0  0  0  0  0  0
  161.2060  207.7870  153.9320 N   0  0  0  0  0  0  0  0  0  0  0  0
  160.7700  206.3950  151.6880 O   0  0  0  0  0  1  0  0  0  0  0  0
  161.6680  206.9270  152.6780 C   0  0  0  0  0  2  0  0  0  0  0  0
  161.7410  207.2060  155.2770 C   0  0  0  0  0  2  0  0  0  0  0  0
  161.0010  207.8800  156.5270 C   0  0  0  0  0  2  0  0  0  0  0  0
  159.9540  206.9370  156.9870 C   0  0  0  0  0  1  0  0  0  0  0  0
  1 10  1  0  0  0  0
  1 20  1  0  0  0  0
  2 16  1  0  0  0  0
  2  6  1  0  0  0  0
  3 15  1  0  0  0  0
  3  7  1  0  0  0  0
  4 18  1  0  0  0  0
  5  2  1  0  0  0  0
  5 17  1  0  0  0  0
  6  9  1  0  0  0  0
  6  4  1  0  0  0  0
  7  5  1  0  0  0  0
  8  4  1  0  0  0  0
  9 13  1  0  0  0  0
 11 16  1  0  0  0  0
 12  8  1  0  0  0  0
 13  1  1  0  0  0  0
 14 21  1  0  0  0  0
 15 14  1  0  0  0  0
 15 21  1  0  0  0  0
 16 12  1  0  0  0  0
 17 22  1  0  0  0  0
 17  9  1  0  0  0  0
 18  1  1  0  0  0  0
 19  7  1  0  0  0  0
 19 23  1  0  0  0  0
 21 22  1  0  0  0  0
 22 31  1  0  0  0  0
 23 11  1  0  0  0  0
 24 25  1  0  0  0  0
 25 19  1  0  0  0  0
 26 25  2  0  0  0  0
 27 29  1  0  0  0  0
 28 29  2  0  0  0  0
 28 30  1  0  0  0  0
 29 26  1  0  0  0  0
 30 24  2  0  0  0  0
 32 31  1  0  0  0  0
 32 35  1  0  0  0  0
 33 34  1  0  0  0  0
 34 32  1  0  0  0  0
 35 36  1  0  0  0  0
 36 37  1  0  0  0  0
M  END
>  <MODEL>
9

>  <REMARK>
 VINA RESULT:      -3.9      3.370      7.291
  Name = 
  6 active torsions:
  status: ('A' for Active; 'I' for Inactive)
    1  A    between atoms: C_1  and  N_4
    2  A    between atoms: C_1  and  C_27
    3  A    between atoms: N_4  and  C_12
    4  A    between atoms: N_4  and  C_37
    5  A    between atoms: C_8  and  C_12
    6  A    between atoms: C_23  and  C_30
                            x       y       z     vdW  Elec       q    Type
                         _______ _______ _______ _____ _____    ______ ____

>  <TORSDO>
F 6

$$$$
