=
 OpenBabel11122414293D

 34 41  0  0  1  0  0  0  0  0999 V2000
  160.7300  207.3640  153.9130 C   0  0  0  0  0  0  0  0  0  0  0  0
  161.3350  204.9850  153.1510 C   0  0  0  0  0  3  0  0  0  0  0  0
  158.5230  213.2990  152.7640 C   0  0  2  0  0  3  0  0  0  0  0  0
  160.1760  209.6700  154.5160 C   0  0  0  0  0  0  0  0  0  0  0  0
  159.9000  211.3320  152.6570 C   0  0  1  0  0  3  0  0  0  0  0  0
  159.6150  213.3200  150.9460 C   0  0  0  0  0  2  0  0  0  0  0  0
  158.3960  214.0750  151.4740 C   0  0  0  0  0  2  0  0  0  0  0  0
  159.4640  213.3320  155.0220 O   0  0  0  0  0  0  0  0  0  0  0  0
  161.5410  206.8480  151.6990 C   0  0  0  0  0  0  0  0  0  0  0  0
  160.7830  206.7140  148.8400 C   0  0  0  0  0  2  0  0  0  0  0  0
  161.0090  210.6180  151.8970 C   0  0  0  0  0  2  0  0  0  0  0  0
  159.1370  211.9530  155.0500 C   0  0  0  0  0  2  0  0  0  0  0  0
  161.4860  208.2030  151.3100 C   0  0  0  0  0  0  0  0  0  0  0  0
  161.9240  204.4940  151.8260 C   0  0  0  0  0  3  0  0  0  0  0  0
  160.1310  211.1440  154.1760 C   0  0  1  0  0  3  0  0  0  0  0  0
  158.6200  214.0190  154.1070 C   0  0  0  0  0  2  0  0  0  0  0  0
  161.0530  205.4530  149.6710 C   0  0  2  0  0  3  0  0  0  0  0  0
  160.6510  208.7350  153.5630 C   0  0  0  0  0  0  0  0  0  0  0  0
  159.8850  212.8170  152.3520 C   0  0  1  0  0  3  0  0  0  0  0  0
  161.0320  209.1520  152.2560 C   0  0  0  0  0  0  0  0  0  0  0  0
  159.9340  207.8780  156.1430 C   0  0  0  0  0  3  0  0  0  0  0  0
  161.9910  207.6420  148.8170 C   0  0  0  0  0  2  0  0  0  0  0  0
  159.8450  209.2290  155.8060 C   0  0  0  0  0  3  0  0  0  0  0  0
  161.9240  208.6840  149.9370 C   0  0  0  0  0  2  0  0  0  0  0  0
  161.9840  205.6920  150.8710 C   0  0  1  0  0  3  0  0  0  0  0  0
  160.3700  206.9480  155.2010 C   0  0  0  0  0  3  0  0  0  0  0  0
  161.1790  206.4470  152.9610 C   0  0  0  0  0  0  0  0  0  0  0  0
  161.5960  204.4640  148.8470 O   0  0  0  0  0  0  0  0  0  0  0  0
  160.8250  204.5030  147.6820 C   0  0  0  0  0  2  0  0  0  0  0  0
  161.6650  205.2040  144.4140 C   0  0  0  0  0  2  0  0  0  0  0  0
  162.8290  205.0060  146.3020 C   0  0  0  0  0  2  0  0  0  0  0  0
  161.6590  204.0640  146.4930 C   0  0  2  0  0  3  0  0  0  0  0  0
  162.5150  205.9110  145.2760 O   0  0  0  0  0  0  0  0  0  0  0  0
  160.8550  204.2320  145.2390 C   0  0  0  0  0  2  0  0  0  0  0  0
  1 26  2  0  0  0  0
  3  7  1  6  0  0  0
  3 16  1  0  0  0  0
  4 23  1  0  0  0  0
  5 11  1  6  0  0  0
  5 15  1  0  0  0  0
  6  7  1  0  0  0  0
  8 12  1  0  0  0  0
  9 27  2  0  0  0  0
 10 17  1  0  0  0  0
 11 20  1  0  0  0  0
 13  9  1  0  0  0  0
 13 20  2  0  0  0  0
 14  2  2  0  0  0  0
 15  4  1  0  0  0  0
 15 12  1  1  0  0  0
 16  8  1  0  0  0  0
 17 28  1  6  0  0  0
 17 25  1  0  0  0  0
 18  1  1  0  0  0  0
 18  4  2  0  0  0  0
 19  6  1  6  0  0  0
 19  5  1  0  0  0  0
 19  3  1  0  0  0  0
 20 18  1  0  0  0  0
 22 10  1  0  0  0  0
 22 24  1  0  0  0  0
 23 21  2  0  0  0  0
 24 13  1  0  0  0  0
 25  9  1  0  0  0  0
 25 14  1  1  0  0  0
 26 21  1  0  0  0  0
 27  2  1  0  0  0  0
 27  1  1  0  0  0  0
 29 28  1  0  0  0  0
 30 34  1  0  0  0  0
 30 33  1  0  0  0  0
 31 32  1  0  0  0  0
 32 29  1  1  0  0  0
 33 31  1  0  0  0  0
 34 32  1  0  0  0  0
M  END
>  <MODEL>
1

>  <REMARK>
 VINA RESULT:     -11.2      0.000      0.000
  Name = 
  3 active torsions:
  status: ('A' for Active; 'I' for Inactive)
    1  A    between atoms: C_17  and  O_28
    2  A    between atoms: O_28  and  C_29
    3  A    between atoms: C_29  and  C_32
                            x       y       z     vdW  Elec       q    Type
                         _______ _______ _______ _____ _____    ______ ____

>  <TORSDO>
F 3

$$$$
=
 OpenBabel11122414293D

 34 41  0  0  1  0  0  0  0  0999 V2000
  160.7680  207.0320  153.8240 C   0  0  0  0  0  0  0  0  0  0  0  0
  161.2610  204.6680  152.9440 C   0  0  0  0  0  3  0  0  0  0  0  0
  158.6990  213.0710  153.0070 C   0  0  2  0  0  3  0  0  0  0  0  0
  160.3170  209.3290  154.5390 C   0  0  0  0  0  0  0  0  0  0  0  0
  160.0070  211.0690  152.7590 C   0  0  1  0  0  3  0  0  0  0  0  0
  159.7060  213.1310  151.1410 C   0  0  0  0  0  2  0  0  0  0  0  0
  158.5380  213.9000  151.7550 C   0  0  0  0  0  2  0  0  0  0  0  0
  159.7470  212.9870  155.2160 O   0  0  0  0  0  0  0  0  0  0  0  0
  161.4580  206.5790  151.5550 C   0  0  0  0  0  0  0  0  0  0  0  0
  160.5630  206.5810  148.7330 C   0  0  0  0  0  2  0  0  0  0  0  0
  161.0560  210.3530  151.9210 C   0  0  0  0  0  2  0  0  0  0  0  0
  159.3770  211.6190  155.2090 C   0  0  0  0  0  2  0  0  0  0  0  0
  161.4280  207.9490  151.2210 C   0  0  0  0  0  0  0  0  0  0  0  0
  161.7710  204.2120  151.5750 C   0  0  0  0  0  3  0  0  0  0  0  0
  160.3030  210.8150  154.2570 C   0  0  1  0  0  3  0  0  0  0  0  0
  158.8820  213.7340  154.3700 C   0  0  0  0  0  2  0  0  0  0  0  0
  160.8310  205.2800  149.5010 C   0  0  2  0  0  3  0  0  0  0  0  0
  160.7160  208.4180  153.5290 C   0  0  0  0  0  0  0  0  0  0  0  0
  160.0250  212.5650  152.5120 C   0  0  1  0  0  3  0  0  0  0  0  0
  161.0490  208.8730  152.2230 C   0  0  0  0  0  0  0  0  0  0  0  0
  160.0940  207.4820  156.1070 C   0  0  0  0  0  3  0  0  0  0  0  0
  161.7970  207.4720  148.6870 C   0  0  0  0  0  2  0  0  0  0  0  0
  160.0330  208.8470  155.8260 C   0  0  0  0  0  3  0  0  0  0  0  0
  161.8170  208.4710  149.8470 C   0  0  0  0  0  2  0  0  0  0  0  0
  161.8250  205.4440  150.6640 C   0  0  1  0  0  3  0  0  0  0  0  0
  160.4560  206.5770  155.1100 C   0  0  0  0  0  3  0  0  0  0  0  0
  161.1430  206.1400  152.8170 C   0  0  0  0  0  0  0  0  0  0  0  0
  161.3040  204.3080  148.6150 O   0  0  0  0  0  0  0  0  0  0  0  0
  161.2040  204.8960  147.3520 C   0  0  0  0  0  2  0  0  0  0  0  0
  160.4560  202.2600  145.2610 C   0  0  0  0  0  2  0  0  0  0  0  0
  161.2140  204.3280  144.9330 C   0  0  0  0  0  2  0  0  0  0  0  0
  161.7530  203.9530  146.2970 C   0  0  2  0  0  3  0  0  0  0  0  0
  160.1520  203.4670  144.6170 O   0  0  0  0  0  0  0  0  0  0  0  0
  161.2060  202.5780  146.5340 C   0  0  0  0  0  2  0  0  0  0  0  0
  1 26  2  0  0  0  0
  3  7  1  6  0  0  0
  3 16  1  0  0  0  0
  4 23  1  0  0  0  0
  5 11  1  6  0  0  0
  5 15  1  0  0  0  0
  6  7  1  0  0  0  0
  9 27  2  0  0  0  0
 10 17  1  0  0  0  0
 11 20  1  0  0  0  0
 12  8  1  0  0  0  0
 13  9  1  0  0  0  0
 13 20  2  0  0  0  0
 14  2  2  0  0  0  0
 15  4  1  0  0  0  0
 15 12  1  1  0  0  0
 16  8  1  0  0  0  0
 17 28  1  6  0  0  0
 17 25  1  0  0  0  0
 18  1  1  0  0  0  0
 18  4  2  0  0  0  0
 19  6  1  6  0  0  0
 19  5  1  0  0  0  0
 19  3  1  0  0  0  0
 20 18  1  0  0  0  0
 22 10  1  0  0  0  0
 22 24  1  0  0  0  0
 23 21  2  0  0  0  0
 24 13  1  0  0  0  0
 25  9  1  0  0  0  0
 25 14  1  1  0  0  0
 26 21  1  0  0  0  0
 27  2  1  0  0  0  0
 27  1  1  0  0  0  0
 29 28  1  0  0  0  0
 30 34  1  0  0  0  0
 31 32  1  0  0  0  0
 32 34  1  0  0  0  0
 32 29  1  1  0  0  0
 33 31  1  0  0  0  0
 33 30  1  0  0  0  0
M  END
>  <MODEL>
2

>  <REMARK>
 VINA RESULT:     -11.1      0.818      1.035
  Name = 
  3 active torsions:
  status: ('A' for Active; 'I' for Inactive)
    1  A    between atoms: C_17  and  O_28
    2  A    between atoms: O_28  and  C_29
    3  A    between atoms: C_29  and  C_32
                            x       y       z     vdW  Elec       q    Type
                         _______ _______ _______ _____ _____    ______ ____

>  <TORSDO>
F 3

$$$$
=
 OpenBabel11122414293D

 34 41  0  0  1  0  0  0  0  0999 V2000
  161.5920  209.1300  151.0020 C   0  0  0  0  0  0  0  0  0  0  0  0
  161.2820  211.0610  152.6700 C   0  0  0  0  0  3  0  0  0  0  0  0
  160.4530  203.1180  149.0100 C   0  0  2  0  0  3  0  0  0  0  0  0
  161.8640  207.2070  149.5130 C   0  0  0  0  0  0  0  0  0  0  0  0
  161.1890  204.9520  150.3790 C   0  0  1  0  0  3  0  0  0  0  0  0
  160.6410  202.4500  151.0150 C   0  0  0  0  0  2  0  0  0  0  0  0
  159.9600  201.9040  149.7620 C   0  0  0  0  0  2  0  0  0  0  0  0
  162.2500  203.9900  147.5980 O   0  0  0  0  0  0  0  0  0  0  0  0
  161.2490  208.7960  153.3690 C   0  0  0  0  0  0  0  0  0  0  0  0
  159.3340  207.7940  155.3930 C   0  0  0  0  0  2  0  0  0  0  0  0
  161.6840  205.3680  151.7560 C   0  0  0  0  0  2  0  0  0  0  0  0
  161.6750  205.2600  147.8550 C   0  0  0  0  0  2  0  0  0  0  0  0
  161.3290  207.3940  153.2310 C   0  0  0  0  0  0  0  0  0  0  0  0
  161.1280  211.0340  154.1930 C   0  0  0  0  0  3  0  0  0  0  0  0
  161.9990  205.7160  149.3030 C   0  0  1  0  0  3  0  0  0  0  0  0
  161.2670  202.9700  147.7270 C   0  0  0  0  0  2  0  0  0  0  0  0
  159.6520  209.2880  155.2410 C   0  0  2  0  0  3  0  0  0  0  0  0
  161.6710  207.7270  150.8170 C   0  0  0  0  0  0  0  0  0  0  0  0
  161.3690  203.4640  150.1500 C   0  0  1  0  0  3  0  0  0  0  0  0
  161.5390  206.8600  151.9380 C   0  0  0  0  0  0  0  0  0  0  0  0
  161.9560  209.4740  148.6310 C   0  0  0  0  0  3  0  0  0  0  0  0
  160.5860  206.9810  155.6940 C   0  0  0  0  0  2  0  0  0  0  0  0
  162.0280  208.0930  148.4370 C   0  0  0  0  0  3  0  0  0  0  0  0
  161.2320  206.4440  154.4140 C   0  0  0  0  0  2  0  0  0  0  0  0
  161.0340  209.5650  154.6250 C   0  0  1  0  0  3  0  0  0  0  0  0
  161.7350  209.9900  149.9070 C   0  0  0  0  0  3  0  0  0  0  0  0
  161.3820  209.6320  152.2880 C   0  0  0  0  0  0  0  0  0  0  0  0
  159.5630  209.9090  156.4890 O   0  0  0  0  0  0  0  0  0  0  0  0
  158.2520  210.3870  156.5590 C   0  0  0  0  0  2  0  0  0  0  0  0
  155.9560  212.4960  155.0880 C   0  0  0  0  0  2  0  0  0  0  0  0
  158.1120  212.6810  155.6140 C   0  0  0  0  0  2  0  0  0  0  0  0
  157.9320  211.2060  155.3220 C   0  0  2  0  0  3  0  0  0  0  0  0
  156.8520  213.2470  155.8610 O   0  0  0  0  0  0  0  0  0  0  0  0
  156.4710  211.0780  155.0110 C   0  0  0  0  0  2  0  0  0  0  0  0
  1 27  1  0  0  0  0
  2 14  2  0  0  0  0
  3 16  1  6  0  0  0
  3  7  1  0  0  0  0
  3 19  1  0  0  0  0
  4 18  1  0  0  0  0
  5 11  1  1  0  0  0
  7  6  1  0  0  0  0
  8 16  1  0  0  0  0
  8 12  1  0  0  0  0
  9 25  1  0  0  0  0
 10 22  1  0  0  0  0
 11 20  1  0  0  0  0
 13  9  1  0  0  0  0
 13 24  1  0  0  0  0
 15 12  1  6  0  0  0
 15  4  1  0  0  0  0
 15  5  1  0  0  0  0
 17 10  1  0  0  0  0
 17 28  1  1  0  0  0
 18  1  2  0  0  0  0
 18 20  1  0  0  0  0
 19  5  1  0  0  0  0
 19  6  1  1  0  0  0
 20 13  2  0  0  0  0
 21 26  2  0  0  0  0
 23 21  1  0  0  0  0
 23  4  2  0  0  0  0
 24 22  1  0  0  0  0
 25 14  1  6  0  0  0
 25 17  1  0  0  0  0
 26  1  1  0  0  0  0
 27  2  1  0  0  0  0
 27  9  2  0  0  0  0
 28 29  1  0  0  0  0
 30 33  1  0  0  0  0
 31 33  1  0  0  0  0
 32 31  1  0  0  0  0
 32 29  1  1  0  0  0
 34 30  1  0  0  0  0
 34 32  1  0  0  0  0
M  END
>  <MODEL>
3

>  <REMARK>
 VINA RESULT:      -9.1      1.833      8.840
  Name = 
  3 active torsions:
  status: ('A' for Active; 'I' for Inactive)
    1  A    between atoms: C_17  and  O_28
    2  A    between atoms: O_28  and  C_29
    3  A    between atoms: C_29  and  C_32
                            x       y       z     vdW  Elec       q    Type
                         _______ _______ _______ _____ _____    ______ ____

>  <TORSDO>
F 3

$$$$
=
 OpenBabel11122414293D

 34 41  0  0  1  0  0  0  0  0999 V2000
  161.5760  208.9800  150.8660 C   0  0  0  0  0  0  0  0  0  0  0  0
  161.2930  210.9550  152.4870 C   0  0  0  0  0  3  0  0  0  0  0  0
  160.4280  202.9100  149.0660 C   0  0  2  0  0  3  0  0  0  0  0  0
  161.8250  207.0190  149.4240 C   0  0  0  0  0  0  0  0  0  0  0  0
  161.1840  204.7850  150.3660 C   0  0  1  0  0  3  0  0  0  0  0  0
  160.6670  202.2990  151.0830 C   0  0  0  0  0  2  0  0  0  0  0  0
  159.9600  201.7140  149.8620 C   0  0  0  0  0  2  0  0  0  0  0  0
  162.1860  203.7530  147.5890 O   0  0  0  0  0  0  0  0  0  0  0  0
  161.2890  208.7100  153.2480 C   0  0  0  0  0  0  0  0  0  0  0  0
  159.4270  207.7540  155.3430 C   0  0  0  0  0  2  0  0  0  0  0  0
  161.7080  205.2410  151.7200 C   0  0  0  0  0  2  0  0  0  0  0  0
  161.6100  205.0260  147.8250 C   0  0  0  0  0  2  0  0  0  0  0  0
  161.3740  207.3050  153.1470 C   0  0  0  0  0  0  0  0  0  0  0  0
  161.1740  210.9680  154.0130 C   0  0  0  0  0  3  0  0  0  0  0  0
  161.9650  205.5230  149.2520 C   0  0  1  0  0  3  0  0  0  0  0  0
  161.2130  202.7310  147.7690 C   0  0  0  0  0  2  0  0  0  0  0  0
  159.7330  209.2440  155.1420 C   0  0  2  0  0  3  0  0  0  0  0  0
  161.6590  207.5730  150.7180 C   0  0  0  0  0  0  0  0  0  0  0  0
  161.3680  203.2920  150.1750 C   0  0  1  0  0  3  0  0  0  0  0  0
  161.5590  206.7370  151.8650 C   0  0  0  0  0  0  0  0  0  0  0  0
  161.8830  209.2610  148.4790 C   0  0  0  0  0  3  0  0  0  0  0  0
  160.6910  206.9560  155.6360 C   0  0  0  0  0  2  0  0  0  0  0  0
  161.9590  207.8760  148.3210 C   0  0  0  0  0  3  0  0  0  0  0  0
  161.3110  206.3870  154.3570 C   0  0  0  0  0  2  0  0  0  0  0  0
  161.0980  209.5120  154.4870 C   0  0  1  0  0  3  0  0  0  0  0  0
  161.6890  209.8110  149.7450 C   0  0  0  0  0  3  0  0  0  0  0  0
  161.3930  209.5170  152.1420 C   0  0  0  0  0  0  0  0  0  0  0  0
  159.6680  209.8990  156.3750 O   0  0  0  0  0  0  0  0  0  0  0  0
  158.4650  210.6090  156.3420 C   0  0  0  0  0  2  0  0  0  0  0  0
  160.1440  213.6070  156.6050 C   0  0  0  0  0  2  0  0  0  0  0  0
  158.0010  213.0490  156.3710 C   0  0  0  0  0  2  0  0  0  0  0  0
  158.5980  211.8910  157.1420 C   0  0  2  0  0  3  0  0  0  0  0  0
  159.0410  213.7630  155.7550 O   0  0  0  0  0  0  0  0  0  0  0  0
  160.0490  212.2490  157.2610 C   0  0  0  0  0  2  0  0  0  0  0  0
  1 27  1  0  0  0  0
  2 14  2  0  0  0  0
  3 16  1  6  0  0  0
  3  7  1  0  0  0  0
  3 19  1  0  0  0  0
  4 18  1  0  0  0  0
  5 11  1  1  0  0  0
  7  6  1  0  0  0  0
  8 16  1  0  0  0  0
  8 12  1  0  0  0  0
  9 25  1  0  0  0  0
 10 22  1  0  0  0  0
 11 20  1  0  0  0  0
 13  9  1  0  0  0  0
 13 24  1  0  0  0  0
 15 12  1  6  0  0  0
 15  4  1  0  0  0  0
 15  5  1  0  0  0  0
 17 10  1  0  0  0  0
 17 28  1  1  0  0  0
 18  1  2  0  0  0  0
 18 20  1  0  0  0  0
 19  5  1  0  0  0  0
 19  6  1  1  0  0  0
 20 13  2  0  0  0  0
 21 26  2  0  0  0  0
 23 21  1  0  0  0  0
 23  4  2  0  0  0  0
 24 22  1  0  0  0  0
 25 14  1  6  0  0  0
 25 17  1  0  0  0  0
 26  1  1  0  0  0  0
 27  2  1  0  0  0  0
 27  9  2  0  0  0  0
 29 28  1  0  0  0  0
 30 34  1  0  0  0  0
 31 32  1  0  0  0  0
 32 29  1  6  0  0  0
 32 34  1  0  0  0  0
 33 31  1  0  0  0  0
 33 30  1  0  0  0  0
M  END
>  <MODEL>
4

>  <REMARK>
 VINA RESULT:      -9.1      1.853      9.077
  Name = 
  3 active torsions:
  status: ('A' for Active; 'I' for Inactive)
    1  A    between atoms: C_17  and  O_28
    2  A    between atoms: O_28  and  C_29
    3  A    between atoms: C_29  and  C_32
                            x       y       z     vdW  Elec       q    Type
                         _______ _______ _______ _____ _____    ______ ____

>  <TORSDO>
F 3

$$$$
=
 OpenBabel11122414293D

 34 41  0  0  1  0  0  0  0  0999 V2000
  160.9140  205.1840  152.3900 C   0  0  0  0  0  0  0  0  0  0  0  0
  160.9590  206.5830  154.5470 C   0  0  0  0  0  3  0  0  0  0  0  0
  162.4760  204.2180  146.2230 C   0  0  2  0  0  3  0  0  0  0  0  0
  160.8850  203.9640  150.2690 C   0  0  0  0  0  0  0  0  0  0  0  0
  161.5220  205.2160  148.1910 C   0  0  1  0  0  3  0  0  0  0  0  0
  162.0680  206.2620  145.8310 C   0  0  0  0  0  2  0  0  0  0  0  0
  162.9120  205.1870  145.1500 C   0  0  0  0  0  2  0  0  0  0  0  0
  160.8360  202.4980  146.8030 O   0  0  0  0  0  0  0  0  0  0  0  0
  160.9800  207.5980  152.4040 C   0  0  0  0  0  0  0  0  0  0  0  0
  162.6660  209.9520  151.7860 C   0  0  0  0  0  2  0  0  0  0  0  0
  160.8510  206.4530  148.7690 C   0  0  0  0  0  2  0  0  0  0  0  0
  161.3350  202.6350  148.1230 C   0  0  0  0  0  2  0  0  0  0  0  0
  160.9610  207.6540  150.9940 C   0  0  0  0  0  0  0  0  0  0  0  0
  160.9290  208.1020  154.7370 C   0  0  0  0  0  3  0  0  0  0  0  0
  160.8240  203.9560  148.7580 C   0  0  1  0  0  3  0  0  0  0  0  0
  161.8280  202.8840  145.8600 C   0  0  0  0  0  2  0  0  0  0  0  0
  162.3220  209.5520  153.2270 C   0  0  2  0  0  3  0  0  0  0  0  0
  160.9030  205.1940  150.9730 C   0  0  0  0  0  0  0  0  0  0  0  0
  161.4180  205.1840  146.6780 C   0  0  1  0  0  3  0  0  0  0  0  0
  160.9250  206.4360  150.2770 C   0  0  0  0  0  0  0  0  0  0  0  0
  160.8290  202.7630  152.3850 C   0  0  0  0  0  3  0  0  0  0  0  0
  161.4130  210.2200  150.9620 C   0  0  0  0  0  2  0  0  0  0  0  0
  160.8250  202.7610  150.9890 C   0  0  0  0  0  3  0  0  0  0  0  0
  160.9440  208.9640  150.2230 C   0  0  0  0  0  2  0  0  0  0  0  0
  161.0170  208.7480  153.3490 C   0  0  1  0  0  3  0  0  0  0  0  0
  160.8770  203.9690  153.0830 C   0  0  0  0  0  3  0  0  0  0  0  0
  160.9510  206.4010  153.0750 C   0  0  0  0  0  0  0  0  0  0  0  0
  162.2400  210.7000  154.0190 O   0  0  0  0  0  0  0  0  0  0  0  0
  160.9150  211.1270  153.8960 C   0  0  0  0  0  2  0  0  0  0  0  0
  159.4150  210.7040  156.9700 C   0  0  0  0  0  2  0  0  0  0  0  0
  161.4020  211.4600  156.3090 C   0  0  0  0  0  2  0  0  0  0  0  0
  160.4750  211.8250  155.1700 C   0  0  2  0  0  3  0  0  0  0  0  0
  160.7900  210.4620  157.0850 O   0  0  0  0  0  0  0  0  0  0  0  0
  159.1470  211.2770  155.5980 C   0  0  0  0  0  2  0  0  0  0  0  0
  1 27  1  0  0  0  0
  1 26  2  0  0  0  0
  2 14  2  0  0  0  0
  3  7  1  6  0  0  0
  3 19  1  0  0  0  0
  4 18  2  0  0  0  0
  4 23  1  0  0  0  0
  5 15  1  0  0  0  0
  5 11  1  1  0  0  0
  7  6  1  0  0  0  0
  8 12  1  0  0  0  0
  9 27  2  0  0  0  0
  9 25  1  0  0  0  0
 10 17  1  0  0  0  0
 11 20  1  0  0  0  0
 13  9  1  0  0  0  0
 15 12  1  6  0  0  0
 15  4  1  0  0  0  0
 16  3  1  0  0  0  0
 16  8  1  0  0  0  0
 17 25  1  0  0  0  0
 17 28  1  1  0  0  0
 18  1  1  0  0  0  0
 19  6  1  6  0  0  0
 19  5  1  0  0  0  0
 20 18  1  0  0  0  0
 20 13  2  0  0  0  0
 21 26  1  0  0  0  0
 22 10  1  0  0  0  0
 23 21  2  0  0  0  0
 24 22  1  0  0  0  0
 24 13  1  0  0  0  0
 25 14  1  1  0  0  0
 27  2  1  0  0  0  0
 29 28  1  0  0  0  0
 30 33  1  0  0  0  0
 31 33  1  0  0  0  0
 32 29  1  6  0  0  0
 32 34  1  0  0  0  0
 32 31  1  0  0  0  0
 34 30  1  0  0  0  0
M  END
>  <MODEL>
5

>  <REMARK>
 VINA RESULT:      -8.8      2.018      8.435
  Name = 
  3 active torsions:
  status: ('A' for Active; 'I' for Inactive)
    1  A    between atoms: C_17  and  O_28
    2  A    between atoms: O_28  and  C_29
    3  A    between atoms: C_29  and  C_32
                            x       y       z     vdW  Elec       q    Type
                         _______ _______ _______ _____ _____    ______ ____

>  <TORSDO>
F 3

$$$$
