=
 OpenBabel11122412523D

 32 37  0  0  1  0  0  0  0  0999 V2000
  160.7850  204.3130  149.0770 O   0  0  0  0  0  0  0  0  0  0  0  0
  160.9640  208.3890  152.1550 N   0  0  0  0  0  0  0  0  0  0  0  0
  160.8840  207.1670  156.9200 C   0  0  0  0  0  3  0  0  0  0  0  0
  160.9470  208.5170  157.2610 C   0  0  0  0  0  3  0  0  0  0  0  0
  160.8040  210.7910  151.4310 C   0  0  1  0  0  3  0  0  0  0  0  0
  160.3260  212.1980  151.8130 C   0  0  1  0  0  3  0  0  0  0  0  0
  161.5910  206.8140  150.4100 C   0  0  0  0  0  0  0  0  0  0  0  0
  161.8680  206.2280  152.8610 C   0  0  0  0  0  2  0  0  0  0  0  0
  158.5130  213.0180  153.0220 C   0  0  0  0  0  0  0  0  0  0  0  0
  160.7080  204.7860  151.3210 O   0  0  0  0  0  0  0  0  0  0  0  0
  160.8360  206.7910  155.5770 C   0  0  0  0  0  3  0  0  0  0  0  0
  160.8050  207.2940  153.1240 C   0  0  1  0  0  3  0  0  0  0  0  0
  160.8580  207.7570  154.5580 C   0  0  0  0  0  0  0  0  0  0  0  0
  160.8760  210.2050  153.8520 C   0  0  2  0  0  3  0  0  0  0  0  0
  158.2200  213.4510  151.6420 C   0  0  0  0  0  2  0  0  0  0  0  0
  161.8980  205.0400  148.6310 C   0  0  0  0  0  2  0  0  0  0  0  0
  161.7600  205.7060  151.4300 C   0  0  1  0  0  3  0  0  0  0  0  0
  159.2800  212.7170  150.8200 C   0  0  0  0  0  2  0  0  0  0  0  0
  161.7210  206.5290  148.9400 C   0  0  0  0  0  2  0  0  0  0  0  0
  161.1250  203.8540  150.3590 C   0  0  1  0  0  3  0  0  0  0  0  0
  160.9420  209.4890  156.2590 C   0  0  0  0  0  3  0  0  0  0  0  0
  160.8610  209.1260  154.9040 C   0  0  0  0  0  0  0  0  0  0  0  0
  159.9790  211.3800  154.2580 C   0  0  0  0  0  2  0  0  0  0  0  0
  161.2020  208.0380  150.7770 C   0  0  0  0  0  3  0  0  0  0  0  0
  162.1880  210.8220  151.2460 O   0  0  0  0  0  1  0  0  0  0  0  0
  157.7640  213.2650  154.0050 O   0  0  0  0  0  0  0  0  0  0  0  0
  160.4230  209.7190  152.4730 C   0  0  2  0  0  3  0  0  0  0  0  0
  159.7080  212.2740  153.1320 N   0  0  0  0  0  0  0  0  0  0  0  0
  160.4510  202.5190  150.6260 C   0  0  0  0  0  2  0  0  0  0  0  0
  160.4080  201.6970  149.3850 C   0  0  0  0  0  0  0  0  0  0  0  0
  161.5850  201.2230  148.8230 O   0  0  0  0  0  0  0  0  0  0  0  0
  159.3010  201.4040  148.8620 O   0  0  0  0  0  1  0  0  0  0  0  0
  1 20  1  0  0  0  0
  2 12  1  0  0  0  0
  3  4  1  0  0  0  0
  5 25  1  1  0  0  0
  5  6  1  0  0  0  0
  5 27  1  0  0  0  0
  6 18  1  6  0  0  0
  6 28  1  0  0  0  0
  7 24  2  0  0  0  0
  7 17  1  0  0  0  0
  9 28  1  0  0  0  0
  9 26  2  0  0  0  0
 10 17  1  0  0  0  0
 11  3  2  0  0  0  0
 12  8  1  1  0  0  0
 12 13  1  0  0  0  0
 13 22  2  0  0  0  0
 13 11  1  0  0  0  0
 14 23  1  1  0  0  0
 14 22  1  0  0  0  0
 15  9  1  0  0  0  0
 16 19  1  0  0  0  0
 16  1  1  0  0  0  0
 17  8  1  1  0  0  0
 18 15  1  0  0  0  0
 19  7  1  0  0  0  0
 20 29  1  1  0  0  0
 20 10  1  0  0  0  0
 21  4  2  0  0  0  0
 22 21  1  0  0  0  0
 24  2  1  0  0  0  0
 27  2  1  6  0  0  0
 27 14  1  0  0  0  0
 28 23  1  0  0  0  0
 30 29  1  0  0  0  0
 31 30  2  0  0  0  0
 32 30  1  0  0  0  0
M  END
>  <MODEL>
1

>  <REMARK>
 VINA RESULT:      -8.1      0.000      0.000
  Name = 
  2 active torsions:
  status: ('A' for Active; 'I' for Inactive)
    1  A    between atoms: C_20  and  C_29
    2  A    between atoms: C_29  and  C_30
                            x       y       z     vdW  Elec       q    Type
                         _______ _______ _______ _____ _____    ______ ____

>  <TORSDO>
F 2

$$$$
=
 OpenBabel11122412523D

 32 37  0  0  1  0  0  0  0  0999 V2000
  161.0890  204.2110  147.2930 O   0  0  0  0  0  0  0  0  0  0  0  0
  161.5760  208.7160  149.6570 N   0  0  0  0  0  0  0  0  0  0  0  0
  160.9760  208.3720  154.5280 C   0  0  0  0  0  3  0  0  0  0  0  0
  161.1920  209.7440  154.6450 C   0  0  0  0  0  3  0  0  0  0  0  0
  161.7900  210.9550  148.5340 C   0  0  1  0  0  3  0  0  0  0  0  0
  161.4760  212.4530  148.6290 C   0  0  1  0  0  3  0  0  0  0  0  0
  162.1170  206.7950  148.2660 C   0  0  0  0  0  0  0  0  0  0  0  0
  162.1290  206.6230  150.7960 C   0  0  0  0  0  2  0  0  0  0  0  0
  159.7010  213.6810  149.5050 C   0  0  0  0  0  0  0  0  0  0  0  0
  160.9070  205.0780  149.4110 O   0  0  0  0  0  0  0  0  0  0  0  0
  160.9800  207.7730  153.2680 C   0  0  0  0  0  3  0  0  0  0  0  0
  161.2000  207.8360  150.7740 C   0  0  1  0  0  3  0  0  0  0  0  0
  161.2060  208.5350  152.1100 C   0  0  0  0  0  0  0  0  0  0  0  0
  161.6010  210.8010  151.0140 C   0  0  2  0  0  3  0  0  0  0  0  0
  159.5720  213.8950  148.0500 C   0  0  0  0  0  2  0  0  0  0  0  0
  162.3190  204.7110  146.8440 C   0  0  0  0  0  2  0  0  0  0  0  0
  162.0610  205.8730  149.4670 C   0  0  1  0  0  3  0  0  0  0  0  0
  160.5850  212.9080  147.4680 C   0  0  0  0  0  2  0  0  0  0  0  0
  162.3180  206.2420  146.8830 C   0  0  0  0  0  2  0  0  0  0  0  0
  161.2680  203.9480  148.6610 C   0  0  1  0  0  3  0  0  0  0  0  0
  161.3910  210.5180  153.5010 C   0  0  0  0  0  3  0  0  0  0  0  0
  161.3650  209.9330  152.2230 C   0  0  0  0  0  0  0  0  0  0  0  0
  160.8410  212.1260  151.1310 C   0  0  0  0  0  2  0  0  0  0  0  0
  161.8670  208.1020  148.3860 C   0  0  0  0  0  3  0  0  0  0  0  0
  163.1760  210.7900  148.4810 O   0  0  0  0  0  1  0  0  0  0  0  0
  158.9210  214.1840  150.3560 O   0  0  0  0  0  0  0  0  0  0  0  0
  161.1930  210.1360  149.6960 C   0  0  2  0  0  3  0  0  0  0  0  0
  160.7760  212.8330  149.8520 N   0  0  0  0  0  0  0  0  0  0  0  0
  160.4050  202.7700  149.0790 C   0  0  0  0  0  2  0  0  0  0  0  0
  161.0000  202.0770  150.2560 C   0  0  0  0  0  0  0  0  0  0  0  0
  161.1610  202.7570  151.4550 O   0  0  0  0  0  1  0  0  0  0  0  0
  161.3280  200.8640  150.1730 O   0  0  0  0  0  0  0  0  0  0  0  0
  1 20  1  0  0  0  0
  2 12  1  0  0  0  0
  3  4  1  0  0  0  0
  5 25  1  1  0  0  0
  5  6  1  0  0  0  0
  5 27  1  0  0  0  0
  6 18  1  6  0  0  0
  6 28  1  0  0  0  0
  7 24  2  0  0  0  0
  7 17  1  0  0  0  0
  9 28  1  0  0  0  0
  9 26  2  0  0  0  0
 10 17  1  0  0  0  0
 11  3  2  0  0  0  0
 12  8  1  1  0  0  0
 12 13  1  0  0  0  0
 13 22  2  0  0  0  0
 13 11  1  0  0  0  0
 14 23  1  1  0  0  0
 14 22  1  0  0  0  0
 15  9  1  0  0  0  0
 16 19  1  0  0  0  0
 16  1  1  0  0  0  0
 17  8  1  1  0  0  0
 18 15  1  0  0  0  0
 19  7  1  0  0  0  0
 20 29  1  1  0  0  0
 20 10  1  0  0  0  0
 21  4  2  0  0  0  0
 22 21  1  0  0  0  0
 24  2  1  0  0  0  0
 27  2  1  1  0  0  0
 27 14  1  0  0  0  0
 28 23  1  0  0  0  0
 29 30  1  0  0  0  0
 30 31  1  0  0  0  0
 32 30  2  0  0  0  0
M  END
>  <MODEL>
2

>  <REMARK>
 VINA RESULT:      -7.0      1.967      2.756
  Name = 
  2 active torsions:
  status: ('A' for Active; 'I' for Inactive)
    1  A    between atoms: C_20  and  C_29
    2  A    between atoms: C_29  and  C_30
                            x       y       z     vdW  Elec       q    Type
                         _______ _______ _______ _____ _____    ______ ____

>  <TORSDO>
F 2

$$$$
=
 OpenBabel11122412523D

 32 37  0  0  1  0  0  0  0  0999 V2000
  158.9490  209.6850  156.8680 O   0  0  0  0  0  0  0  0  0  0  0  0
  161.2200  208.4200  152.4670 N   0  0  0  0  0  0  0  0  0  0  0  0
  161.5720  212.2190  149.3610 C   0  0  0  0  0  3  0  0  0  0  0  0
  162.2010  211.3920  148.4310 C   0  0  0  0  0  3  0  0  0  0  0  0
  161.8440  206.0950  151.7460 C   0  0  1  0  0  3  0  0  0  0  0  0
  162.0120  205.1420  150.5560 C   0  0  1  0  0  3  0  0  0  0  0  0
  160.8710  208.7120  154.8580 C   0  0  0  0  0  0  0  0  0  0  0  0
  161.3570  210.6960  153.3550 C   0  0  0  0  0  2  0  0  0  0  0  0
  160.9000  204.8770  148.5270 C   0  0  0  0  0  0  0  0  0  0  0  0
  159.4750  210.6550  154.8560 O   0  0  0  0  0  0  0  0  0  0  0  0
  161.1370  211.6920  150.5770 C   0  0  0  0  0  3  0  0  0  0  0  0
  160.8430  209.8190  152.2140 C   0  0  1  0  0  3  0  0  0  0  0  0
  161.3310  210.3350  150.8840 C   0  0  0  0  0  0  0  0  0  0  0  0
  162.1390  208.0200  150.1910 C   0  0  2  0  0  3  0  0  0  0  0  0
  160.5410  203.6530  149.2700 C   0  0  0  0  0  2  0  0  0  0  0  0
  160.1500  209.0750  157.2560 C   0  0  0  0  0  2  0  0  0  0  0  0
  160.7960  210.2170  154.6920 C   0  0  1  0  0  3  0  0  0  0  0  0
  161.0740  203.9360  150.6750 C   0  0  0  0  0  2  0  0  0  0  0  0
  160.6080  208.0740  156.1930 C   0  0  0  0  0  2  0  0  0  0  0  0
  159.3240  210.8790  156.2330 C   0  0  1  0  0  3  0  0  0  0  0  0
  162.3770  210.0360  148.7120 C   0  0  0  0  0  3  0  0  0  0  0  0
  161.9150  209.4850  149.9190 C   0  0  0  0  0  0  0  0  0  0  0  0
  161.8440  207.1780  148.9450 C   0  0  0  0  0  2  0  0  0  0  0  0
  161.0470  207.9090  153.8040 C   0  0  0  0  0  3  0  0  0  0  0  0
  163.0780  206.2330  152.3870 O   0  0  0  0  0  1  0  0  0  0  0  0
  160.4970  205.1290  147.3600 O   0  0  0  0  0  0  0  0  0  0  0  0
  161.2890  207.4760  151.3430 C   0  0  2  0  0  3  0  0  0  0  0  0
  161.7250  205.7550  149.2640 N   0  0  0  0  0  0  0  0  0  0  0  0
  158.2580  211.9400  156.4550 C   0  0  0  0  0  2  0  0  0  0  0  0
  157.2180  211.8680  155.3910 C   0  0  0  0  0  0  0  0  0  0  0  0
  156.2940  210.8330  155.3910 O   0  0  0  0  0  1  0  0  0  0  0  0
  157.1570  212.7640  154.5100 O   0  0  0  0  0  0  0  0  0  0  0  0
  1 16  1  0  0  0  0
  2 24  1  0  0  0  0
  3 11  1  0  0  0  0
  4 21  1  0  0  0  0
  4  3  2  0  0  0  0
  5 25  1  6  0  0  0
  6 18  1  1  0  0  0
  6  5  1  0  0  0  0
  7 19  1  0  0  0  0
  9 28  1  0  0  0  0
  9 15  1  0  0  0  0
 10 20  1  0  0  0  0
 11 13  2  0  0  0  0
 12  2  1  0  0  0  0
 12  8  1  1  0  0  0
 13 12  1  0  0  0  0
 14 23  1  6  0  0  0
 14 27  1  0  0  0  0
 15 18  1  0  0  0  0
 17  8  1  6  0  0  0
 17 10  1  0  0  0  0
 17  7  1  0  0  0  0
 19 16  1  0  0  0  0
 20 29  1  6  0  0  0
 20  1  1  0  0  0  0
 21 22  2  0  0  0  0
 22 14  1  0  0  0  0
 22 13  1  0  0  0  0
 23 28  1  0  0  0  0
 24  7  2  0  0  0  0
 26  9  2  0  0  0  0
 27  5  1  0  0  0  0
 27  2  1  1  0  0  0
 28  6  1  0  0  0  0
 30 31  1  0  0  0  0
 30 29  1  0  0  0  0
 32 30  2  0  0  0  0
M  END
>  <MODEL>
3

>  <REMARK>
 VINA RESULT:      -6.6      2.087      7.983
  Name = 
  2 active torsions:
  status: ('A' for Active; 'I' for Inactive)
    1  A    between atoms: C_20  and  C_29
    2  A    between atoms: C_29  and  C_30
                            x       y       z     vdW  Elec       q    Type
                         _______ _______ _______ _____ _____    ______ ____

>  <TORSDO>
F 2

$$$$
=
 OpenBabel11122412523D

 32 37  0  0  1  0  0  0  0  0999 V2000
  160.6560  213.3810  147.3700 O   0  0  0  0  0  0  0  0  0  0  0  0
  161.5250  209.7540  150.8650 N   0  0  0  0  0  0  0  0  0  0  0  0
  161.2040  205.2130  148.9990 C   0  0  0  0  0  3  0  0  0  0  0  0
  161.5000  204.6830  150.2550 C   0  0  0  0  0  3  0  0  0  0  0  0
  161.7890  210.1230  153.3370 C   0  0  1  0  0  3  0  0  0  0  0  0
  161.5620  209.5340  154.7360 C   0  0  1  0  0  3  0  0  0  0  0  0
  161.8780  211.7190  149.4740 C   0  0  0  0  0  0  0  0  0  0  0  0
  162.0340  209.3820  148.5010 C   0  0  0  0  0  2  0  0  0  0  0  0
  159.9120  208.1850  155.6730 C   0  0  0  0  0  0  0  0  0  0  0  0
  160.6500  211.0900  147.5200 O   0  0  0  0  0  0  0  0  0  0  0  0
  161.1000  206.5940  148.8360 C   0  0  0  0  0  3  0  0  0  0  0  0
  161.1710  208.9490  149.6860 C   0  0  1  0  0  3  0  0  0  0  0  0
  161.2960  207.4650  149.9200 C   0  0  0  0  0  0  0  0  0  0  0  0
  161.7440  207.8130  152.4040 C   0  0  2  0  0  3  0  0  0  0  0  0
  159.7060  209.4830  156.3450 C   0  0  0  0  0  2  0  0  0  0  0  0
  161.8820  213.7390  147.9500 C   0  0  0  0  0  2  0  0  0  0  0  0
  161.8450  210.8710  148.2180 C   0  0  1  0  0  3  0  0  0  0  0  0
  160.6280  210.4210  155.5650 C   0  0  0  0  0  2  0  0  0  0  0  0
  161.9650  213.2170  149.3860 C   0  0  0  0  0  2  0  0  0  0  0  0
  160.9040  212.1840  146.6780 C   0  0  1  0  0  3  0  0  0  0  0  0
  161.6700  205.5350  151.3470 C   0  0  0  0  0  3  0  0  0  0  0  0
  161.5350  206.9260  151.2030 C   0  0  0  0  0  0  0  0  0  0  0  0
  161.0630  207.2250  153.6450 C   0  0  0  0  0  2  0  0  0  0  0  0
  161.7060  211.1720  150.6810 C   0  0  0  0  0  3  0  0  0  0  0  0
  163.1590  210.3280  153.1550 O   0  0  0  0  0  1  0  0  0  0  0  0
  159.2120  207.1620  155.9020 O   0  0  0  0  0  0  0  0  0  0  0  0
  161.2220  209.2390  152.2090 C   0  0  2  0  0  3  0  0  0  0  0  0
  160.9580  208.2060  154.7260 N   0  0  0  0  0  0  0  0  0  0  0  0
  160.0060  212.0980  145.4560 C   0  0  0  0  0  2  0  0  0  0  0  0
  160.7260  212.5780  144.2430 C   0  0  0  0  0  0  0  0  0  0  0  0
  162.0550  212.9690  144.3330 O   0  0  0  0  0  1  0  0  0  0  0  0
  160.1400  212.5990  143.1300 O   0  0  0  0  0  0  0  0  0  0  0  0
  1 16  1  0  0  0  0
  3  4  1  0  0  0  0
  4 21  2  0  0  0  0
  5 25  1  6  0  0  0
  5  6  1  0  0  0  0
  6 18  1  1  0  0  0
  7 24  2  0  0  0  0
  9 26  2  0  0  0  0
  9 15  1  0  0  0  0
 10 17  1  0  0  0  0
 11  3  2  0  0  0  0
 11 13  1  0  0  0  0
 12  8  1  6  0  0  0
 12 13  1  0  0  0  0
 12  2  1  0  0  0  0
 13 22  2  0  0  0  0
 14 23  1  1  0  0  0
 16 19  1  0  0  0  0
 17  8  1  1  0  0  0
 17  7  1  0  0  0  0
 18 15  1  0  0  0  0
 19  7  1  0  0  0  0
 20 29  1  6  0  0  0
 20  1  1  0  0  0  0
 20 10  1  0  0  0  0
 22 21  1  0  0  0  0
 22 14  1  0  0  0  0
 23 28  1  0  0  0  0
 24  2  1  0  0  0  0
 27  2  1  6  0  0  0
 27 14  1  0  0  0  0
 27  5  1  0  0  0  0
 28  6  1  0  0  0  0
 28  9  1  0  0  0  0
 30 31  1  0  0  0  0
 30 29  1  0  0  0  0
 32 30  2  0  0  0  0
M  END
>  <MODEL>
4

>  <REMARK>
 VINA RESULT:      -5.8      3.553      6.897
  Name = 
  2 active torsions:
  status: ('A' for Active; 'I' for Inactive)
    1  A    between atoms: C_20  and  C_29
    2  A    between atoms: C_29  and  C_30
                            x       y       z     vdW  Elec       q    Type
                         _______ _______ _______ _____ _____    ______ ____

>  <TORSDO>
F 2

$$$$
=
 OpenBabel11122412523D

 32 37  0  0  1  0  0  0  0  0999 V2000
  161.0240  203.8290  145.6470 O   0  0  0  0  0  0  0  0  0  0  0  0
  161.7630  207.6650  148.9430 N   0  0  0  0  0  0  0  0  0  0  0  0
  161.0040  206.3190  153.6130 C   0  0  0  0  0  3  0  0  0  0  0  0
  161.3140  207.6130  154.0300 C   0  0  0  0  0  3  0  0  0  0  0  0
  162.1660  210.0710  148.3370 C   0  0  1  0  0  3  0  0  0  0  0  0
  161.9560  211.5330  148.7540 C   0  0  1  0  0  3  0  0  0  0  0  0
  162.2060  206.0560  147.1720 C   0  0  0  0  0  0  0  0  0  0  0  0
  162.1340  205.3390  149.6030 C   0  0  0  0  0  2  0  0  0  0  0  0
  160.2490  212.6710  149.8550 C   0  0  0  0  0  0  0  0  0  0  0  0
  160.8460  204.2280  147.9000 O   0  0  0  0  0  0  0  0  0  0  0  0
  161.0010  206.0090  152.2530 C   0  0  0  0  0  3  0  0  0  0  0  0
  161.2950  206.5940  149.8360 C   0  0  1  0  0  3  0  0  0  0  0  0
  161.3130  206.9840  151.2920 C   0  0  0  0  0  0  0  0  0  0  0  0
  161.8980  209.3980  150.7210 C   0  0  2  0  0  3  0  0  0  0  0  0
  160.1770  213.2040  148.4810 C   0  0  0  0  0  2  0  0  0  0  0  0
  162.2990  204.3210  145.3320 C   0  0  0  0  0  2  0  0  0  0  0  0
  162.0500  204.9020  148.1420 C   0  0  1  0  0  3  0  0  0  0  0  0
  161.1330  212.2940  147.7090 C   0  0  0  0  0  2  0  0  0  0  0  0
  162.4060  205.8020  145.7040 C   0  0  0  0  0  2  0  0  0  0  0  0
  161.1470  203.2630  146.9260 C   0  0  1  0  0  3  0  0  0  0  0  0
  161.5990  208.5990  153.0850 C   0  0  0  0  0  3  0  0  0  0  0  0
  161.5670  208.3090  151.7100 C   0  0  0  0  0  0  0  0  0  0  0  0
  161.2300  210.7200  151.1160 C   0  0  0  0  0  2  0  0  0  0  0  0
  162.0460  207.3210  147.5720 C   0  0  0  0  0  3  0  0  0  0  0  0
  163.5380  209.8180  148.2660 O   0  0  0  0  0  1  0  0  0  0  0  0
  159.4830  213.0350  150.7860 O   0  0  0  0  0  0  0  0  0  0  0  0
  161.4810  209.0670  149.2860 C   0  0  2  0  0  3  0  0  0  0  0  0
  161.2510  211.6890  150.0210 N   0  0  0  0  0  0  0  0  0  0  0  0
  160.1900  202.0910  147.0670 C   0  0  0  0  0  2  0  0  0  0  0  0
  160.5870  200.9800  146.1570 C   0  0  0  0  0  0  0  0  0  0  0  0
  160.0850  200.9280  144.8640 O   0  0  0  0  0  0  0  0  0  0  0  0
  161.4040  200.1070  146.5480 O   0  0  0  0  0  1  0  0  0  0  0  0
  1 20  1  0  0  0  0
  2 12  1  0  0  0  0
  3  4  1  0  0  0  0
  5 25  1  1  0  0  0
  5  6  1  0  0  0  0
  5 27  1  0  0  0  0
  6 18  1  6  0  0  0
  6 28  1  0  0  0  0
  7 24  2  0  0  0  0
  7 17  1  0  0  0  0
  9 28  1  0  0  0  0
  9 26  2  0  0  0  0
 10 17  1  0  0  0  0
 11  3  2  0  0  0  0
 12  8  1  1  0  0  0
 12 13  1  0  0  0  0
 13 22  2  0  0  0  0
 13 11  1  0  0  0  0
 14 23  1  1  0  0  0
 14 22  1  0  0  0  0
 15  9  1  0  0  0  0
 16  1  1  0  0  0  0
 16 19  1  0  0  0  0
 17  8  1  1  0  0  0
 18 15  1  0  0  0  0
 19  7  1  0  0  0  0
 20 29  1  6  0  0  0
 20 10  1  0  0  0  0
 21  4  2  0  0  0  0
 22 21  1  0  0  0  0
 24  2  1  0  0  0  0
 27  2  1  6  0  0  0
 27 14  1  0  0  0  0
 28 23  1  0  0  0  0
 30 32  1  0  0  0  0
 30 29  1  0  0  0  0
 31 30  2  0  0  0  0
M  END
>  <MODEL>
5

>  <REMARK>
 VINA RESULT:      -5.7      2.446      3.481
  Name = 
  2 active torsions:
  status: ('A' for Active; 'I' for Inactive)
    1  A    between atoms: C_20  and  C_29
    2  A    between atoms: C_29  and  C_30
                            x       y       z     vdW  Elec       q    Type
                         _______ _______ _______ _____ _____    ______ ____

>  <TORSDO>
F 2

$$$$
