=
 OpenBabel11122413053D

 32 36  0  0  1  0  0  0  0  0999 V2000
  159.9890  210.3930  154.0520 C   0  0  1  0  0  3  0  0  0  0  0  0
  160.1610  213.0700  149.7670 C   0  0  0  0  0  2  0  0  0  0  0  0
  159.9540  214.3380  150.5730 C   0  0  0  0  0  2  0  0  0  0  0  0
  159.1900  211.5390  156.1780 C   0  0  2  0  0  3  0  0  0  0  0  0
  157.9430  212.3040  156.3690 N   0  0  2  0  0  0  0  0  0  0  0  0
  160.4840  208.1970  154.1660 C   0  0  2  0  0  3  0  0  0  0  0  0
  160.8010  209.3610  151.9620 C   0  0  0  0  0  2  0  0  0  0  0  0
  156.4280  213.7620  155.1830 C   0  0  2  0  0  3  0  0  0  0  0  0
  160.9340  212.0660  150.6130 C   0  0  0  0  0  2  0  0  0  0  0  0
  160.8000  210.6510  152.7760 C   0  0  1  0  0  3  0  0  0  0  0  0
  160.3120  211.8480  151.9750 C   0  0  1  0  0  3  0  0  0  0  0  0
  158.9920  212.6220  153.9470 C   0  0  2  0  0  3  0  0  0  0  0  0
  155.9320  212.3490  155.0130 C   0  0  0  0  0  2  0  0  0  0  0  0
  161.2620  208.1870  152.8330 C   0  0  2  0  0  3  0  0  0  0  0  0
  156.8180  211.4940  155.9040 C   0  0  0  0  0  2  0  0  0  0  0  0
  159.0800  214.0220  151.7800 C   0  0  0  0  0  2  0  0  0  0  0  0
  159.5850  212.8380  152.5730 C   0  0  2  0  0  3  0  0  0  0  0  0
  158.8210  213.8210  154.6490 O   0  0  0  0  0  0  0  0  0  0  0  0
  160.6580  209.4310  154.8260 O   0  0  0  0  0  0  0  0  0  0  0  0
  160.1880  211.9020  157.2600 C   0  0  0  0  0  1  0  0  0  0  0  0
  156.3590  214.4530  153.9710 O   0  0  0  0  0  1  0  0  0  0  0  0
  159.8380  211.7050  154.8010 C   0  0  2  0  0  3  0  0  0  0  0  0
  157.8590  213.6130  155.6770 C   0  0  2  0  0  3  0  0  0  0  0  0
  160.2200  207.1070  156.3880 C   0  0  0  0  0  1  0  0  0  0  0  0
  160.9670  207.0750  155.0690 C   0  0  0  0  0  2  0  0  0  0  0  0
  161.0340  206.9880  152.1450 O   0  0  0  0  0  0  0  0  0  0  0  0
  160.3420  206.2180  149.9930 C   0  0  0  0  0  1  0  0  0  0  0  0
  160.9970  207.3330  150.7870 C   0  0  2  0  0  3  0  0  0  0  0  0
  162.4100  207.5340  150.2620 C   0  0  0  0  0  2  0  0  0  0  0  0
  162.3980  208.0250  148.8560 C   0  0  0  0  0  0  0  0  0  0  0  0
  162.1680  209.2380  148.6120 O   0  0  0  0  0  1  0  0  0  0  0  0
  162.6580  207.1460  147.8130 O   0  0  0  0  0  0  0  0  0  0  0  0
  1 22  1  0  0  0  0
  1 19  1  1  0  0  0
  2  3  1  0  0  0  0
  2  9  1  0  0  0  0
  3 16  1  0  0  0  0
  4  5  1  0  0  0  0
  4 20  1  1  0  0  0
  5 15  1  6  0  0  0
  6 19  1  0  0  0  0
  6 25  1  1  0  0  0
  7 14  1  0  0  0  0
  8 21  1  6  0  0  0
  8 23  1  0  0  0  0
 10  7  1  6  0  0  0
 10  1  1  0  0  0  0
 11  9  1  1  0  0  0
 11 17  1  0  0  0  0
 11 10  1  0  0  0  0
 12 18  1  1  0  0  0
 12 22  1  0  0  0  0
 13  8  1  0  0  0  0
 13 15  1  0  0  0  0
 14 26  1  6  0  0  0
 14  6  1  0  0  0  0
 17 16  1  6  0  0  0
 17 12  1  0  0  0  0
 18 23  1  0  0  0  0
 22  4  1  0  0  0  0
 23  5  1  0  0  0  0
 25 24  1  0  0  0  0
 27 28  1  0  0  0  0
 28 26  1  0  0  0  0
 29 28  1  0  0  0  0
 30 29  1  0  0  0  0
 31 30  1  0  0  0  0
 32 30  2  0  0  0  0
M  END
>  <MODEL>
1

>  <REMARK>
 VINA RESULT:      -6.3      0.000      0.000
  Name = 
  5 active torsions:
  status: ('A' for Active; 'I' for Inactive)
    1  A    between atoms: C_7  and  C_19
    2  A    between atoms: O_10  and  C_17
    3  A    between atoms: O_10  and  C_20
    4  A    between atoms: C_20  and  C_29
    5  A    between atoms: C_29  and  C_30
                            x       y       z     vdW  Elec       q    Type
                         _______ _______ _______ _____ _____    ______ ____

>  <TORSDO>
F 5

$$$$
=
 OpenBabel11122413053D

 32 36  0  0  1  0  0  0  0  0999 V2000
  160.9980  209.7450  152.6120 C   0  0  1  0  0  3  0  0  0  0  0  0
  160.8590  212.8840  148.6520 C   0  0  0  0  0  2  0  0  0  0  0  0
  160.7140  214.0530  149.6080 C   0  0  0  0  0  2  0  0  0  0  0  0
  160.3600  210.6410  154.9060 C   0  0  2  0  0  3  0  0  0  0  0  0
  159.1320  211.3720  155.2720 N   0  0  2  0  0  0  0  0  0  0  0  0
  161.4960  207.5530  152.4430 C   0  0  2  0  0  3  0  0  0  0  0  0
  161.6520  208.9580  150.3650 C   0  0  0  0  0  2  0  0  0  0  0  0
  157.5360  212.9430  154.3710 C   0  0  2  0  0  3  0  0  0  0  0  0
  161.6900  211.7970  149.3210 C   0  0  0  0  0  2  0  0  0  0  0  0
  161.7130  210.1480  151.3160 C   0  0  1  0  0  3  0  0  0  0  0  0
  161.1690  211.4250  150.6930 C   0  0  1  0  0  3  0  0  0  0  0  0
  160.0000  211.9660  152.8300 C   0  0  2  0  0  3  0  0  0  0  0  0
  157.0260  211.5560  154.0810 C   0  0  0  0  0  2  0  0  0  0  0  0
  162.1730  207.6960  151.0640 C   0  0  2  0  0  3  0  0  0  0  0  0
  157.9740  210.6120  154.8030 C   0  0  0  0  0  2  0  0  0  0  0  0
  159.9300  213.5990  150.8320 C   0  0  0  0  0  2  0  0  0  0  0  0
  160.4910  212.3370  151.4490 C   0  0  2  0  0  3  0  0  0  0  0  0
  159.8830  213.0780  153.6720 O   0  0  0  0  0  0  0  0  0  0  0  0
  161.7210  208.7070  153.2230 O   0  0  0  0  0  0  0  0  0  0  0  0
  161.4360  210.8870  155.9460 C   0  0  0  0  0  1  0  0  0  0  0  0
  157.3790  213.7650  153.2520 O   0  0  0  0  0  1  0  0  0  0  0  0
  160.9050  210.9640  153.5120 C   0  0  2  0  0  3  0  0  0  0  0  0
  158.9990  212.7500  154.7390 C   0  0  2  0  0  3  0  0  0  0  0  0
  161.1410  205.1410  152.9500 C   0  0  0  0  0  1  0  0  0  0  0  0
  162.0420  206.3410  153.1770 C   0  0  0  0  0  2  0  0  0  0  0  0
  161.8930  206.5800  150.2640 O   0  0  0  0  0  0  0  0  0  0  0  0
  160.1360  206.3270  148.6680 C   0  0  0  0  0  1  0  0  0  0  0  0
  161.3840  207.0940  149.0640 C   0  0  2  0  0  3  0  0  0  0  0  0
  162.4140  206.9460  147.9560 C   0  0  0  0  0  2  0  0  0  0  0  0
  162.0510  205.8380  147.0280 C   0  0  0  0  0  0  0  0  0  0  0  0
  162.3670  204.6520  147.3050 O   0  0  0  0  0  1  0  0  0  0  0  0
  161.3470  206.1140  145.8620 O   0  0  0  0  0  0  0  0  0  0  0  0
  1 19  1  1  0  0  0
  1 22  1  0  0  0  0
  2  9  1  0  0  0  0
  2  3  1  0  0  0  0
  3 16  1  0  0  0  0
  4  5  1  0  0  0  0
  4 20  1  1  0  0  0
  5 15  1  6  0  0  0
  6 25  1  1  0  0  0
  6 19  1  0  0  0  0
  7 14  1  0  0  0  0
  8 21  1  6  0  0  0
  8 23  1  0  0  0  0
 10  7  1  6  0  0  0
 10  1  1  0  0  0  0
 11  9  1  1  0  0  0
 11 10  1  0  0  0  0
 11 17  1  0  0  0  0
 12 22  1  0  0  0  0
 12 18  1  1  0  0  0
 13  8  1  0  0  0  0
 13 15  1  0  0  0  0
 14 26  1  6  0  0  0
 14  6  1  0  0  0  0
 17 16  1  6  0  0  0
 17 12  1  0  0  0  0
 18 23  1  0  0  0  0
 22  4  1  0  0  0  0
 23  5  1  0  0  0  0
 24 25  1  0  0  0  0
 27 28  1  0  0  0  0
 28 26  1  0  0  0  0
 29 28  1  0  0  0  0
 30 31  1  0  0  0  0
 30 29  1  0  0  0  0
 32 30  2  0  0  0  0
M  END
>  <MODEL>
2

>  <REMARK>
 VINA RESULT:      -6.0      1.700      2.119
  Name = 
  5 active torsions:
  status: ('A' for Active; 'I' for Inactive)
    1  A    between atoms: C_7  and  C_19
    2  A    between atoms: O_10  and  C_17
    3  A    between atoms: O_10  and  C_20
    4  A    between atoms: C_20  and  C_29
    5  A    between atoms: C_29  and  C_30
                            x       y       z     vdW  Elec       q    Type
                         _______ _______ _______ _____ _____    ______ ____

>  <TORSDO>
F 5

$$$$
=
 OpenBabel11122413053D

 32 36  0  0  1  0  0  0  0  0999 V2000
  160.3470  211.0920  152.6800 C   0  0  1  0  0  3  0  0  0  0  0  0
  162.4040  206.6990  151.2560 C   0  0  0  0  0  2  0  0  0  0  0  0
  161.7410  206.0260  152.4430 C   0  0  0  0  0  2  0  0  0  0  0  0
  159.2810  211.2530  154.9850 C   0  0  2  0  0  3  0  0  0  0  0  0
  159.8860  210.8850  156.2790 N   0  0  2  0  0  0  0  0  0  0  0  0
  160.4130  212.9610  151.4210 C   0  0  2  0  0  3  0  0  0  0  0  0
  161.3540  210.8480  150.4400 C   0  0  0  0  0  2  0  0  0  0  0  0
  161.4240  209.3030  157.2570 C   0  0  2  0  0  3  0  0  0  0  0  0
  161.5210  207.8460  150.7810 C   0  0  0  0  0  2  0  0  0  0  0  0
  160.5320  210.1260  151.5020 C   0  0  1  0  0  3  0  0  0  0  0  0
  161.1350  208.7880  151.9010 C   0  0  1  0  0  3  0  0  0  0  0  0
  160.6310  209.2790  154.2960 C   0  0  2  0  0  3  0  0  0  0  0  0
  162.2150  210.5190  156.8510 C   0  0  0  0  0  2  0  0  0  0  0  0
  160.7200  212.2050  150.1120 C   0  0  2  0  0  3  0  0  0  0  0  0
  161.1880  211.5420  156.3930 C   0  0  0  0  0  2  0  0  0  0  0  0
  161.6600  207.0180  153.5960 C   0  0  0  0  0  2  0  0  0  0  0  0
  161.0460  208.3380  153.1880 C   0  0  2  0  0  3  0  0  0  0  0  0
  160.0250  208.6100  155.3660 O   0  0  0  0  0  0  0  0  0  0  0  0
  159.5760  212.1850  152.2520 O   0  0  0  0  0  0  0  0  0  0  0  0
  157.7710  211.2990  155.1160 C   0  0  0  0  0  1  0  0  0  0  0  0
  162.1060  208.1360  156.9040 O   0  0  0  0  0  1  0  0  0  0  0  0
  159.6700  210.3440  153.8150 C   0  0  2  0  0  3  0  0  0  0  0  0
  160.1000  209.4380  156.5210 C   0  0  2  0  0  3  0  0  0  0  0  0
  158.3640  214.0420  150.5100 C   0  0  0  0  0  1  0  0  0  0  0  0
  159.7300  214.2840  151.1210 C   0  0  0  0  0  2  0  0  0  0  0  0
  161.6050  212.9450  149.3170 O   0  0  0  0  0  0  0  0  0  0  0  0
  162.6440  212.6080  147.1940 C   0  0  0  0  0  1  0  0  0  0  0  0
  161.3590  212.5380  147.9990 C   0  0  2  0  0  3  0  0  0  0  0  0
  160.3350  213.4580  147.3540 C   0  0  0  0  0  2  0  0  0  0  0  0
  159.2830  212.6790  146.6430 C   0  0  0  0  0  0  0  0  0  0  0  0
  158.1530  212.5120  147.1730 O   0  0  0  0  0  1  0  0  0  0  0  0
  159.5440  212.1500  145.3860 O   0  0  0  0  0  0  0  0  0  0  0  0
  1 19  1  6  0  0  0
  1 22  1  0  0  0  0
  2  3  1  0  0  0  0
  3 16  1  0  0  0  0
  4 20  1  1  0  0  0
  4  5  1  0  0  0  0
  5 15  1  6  0  0  0
  5 23  1  0  0  0  0
  6 25  1  6  0  0  0
  6 19  1  0  0  0  0
  8 21  1  6  0  0  0
  9  2  1  0  0  0  0
 10  7  1  6  0  0  0
 10 11  1  0  0  0  0
 10  1  1  0  0  0  0
 11  9  1  6  0  0  0
 11 17  1  0  0  0  0
 12 18  1  1  0  0  0
 13  8  1  0  0  0  0
 14 26  1  6  0  0  0
 14  7  1  0  0  0  0
 14  6  1  0  0  0  0
 15 13  1  0  0  0  0
 17 16  1  1  0  0  0
 17 12  1  0  0  0  0
 18 23  1  0  0  0  0
 22 12  1  0  0  0  0
 22  4  1  0  0  0  0
 23  8  1  0  0  0  0
 24 25  1  0  0  0  0
 27 28  1  0  0  0  0
 28 26  1  0  0  0  0
 29 28  1  0  0  0  0
 30 31  1  0  0  0  0
 30 29  1  0  0  0  0
 32 30  2  0  0  0  0
M  END
>  <MODEL>
3

>  <REMARK>
 VINA RESULT:      -5.9      2.300      5.694
  Name = 
  5 active torsions:
  status: ('A' for Active; 'I' for Inactive)
    1  A    between atoms: C_7  and  C_19
    2  A    between atoms: O_10  and  C_17
    3  A    between atoms: O_10  and  C_20
    4  A    between atoms: C_20  and  C_29
    5  A    between atoms: C_29  and  C_30
                            x       y       z     vdW  Elec       q    Type
                         _______ _______ _______ _____ _____    ______ ____

>  <TORSDO>
F 5

$$$$
=
 OpenBabel11122413053D

 32 36  0  0  1  0  0  0  0  0999 V2000
  161.3930  205.7310  148.6030 C   0  0  1  0  0  3  0  0  0  0  0  0
  160.2870  201.2450  150.6530 C   0  0  0  0  0  2  0  0  0  0  0  0
  160.8310  200.5640  149.4110 C   0  0  0  0  0  2  0  0  0  0  0  0
  162.0140  205.8290  146.1370 C   0  0  2  0  0  3  0  0  0  0  0  0
  161.2580  205.2690  145.0010 N   0  0  2  0  0  0  0  0  0  0  0  0
  161.2660  207.6780  149.7310 C   0  0  2  0  0  3  0  0  0  0  0  0
  160.8310  205.5530  151.0000 C   0  0  0  0  0  2  0  0  0  0  0  0
  159.8280  203.4130  144.4210 C   0  0  2  0  0  3  0  0  0  0  0  0
  161.0570  202.5380  150.8860 C   0  0  0  0  0  2  0  0  0  0  0  0
  161.5580  204.8580  149.8540 C   0  0  1  0  0  3  0  0  0  0  0  0
  161.1020  203.4200  149.6570 C   0  0  1  0  0  3  0  0  0  0  0  0
  161.1110  203.7600  147.1850 C   0  0  2  0  0  3  0  0  0  0  0  0
  158.9460  204.5420  144.8870 C   0  0  0  0  0  2  0  0  0  0  0  0
  161.3030  207.0070  151.1200 C   0  0  2  0  0  3  0  0  0  0  0  0
  159.8730  205.7310  145.0840 C   0  0  0  0  0  2  0  0  0  0  0  0
  160.5640  201.4520  148.2020 C   0  0  0  0  0  2  0  0  0  0  0  0
  161.0350  202.8740  148.4070 C   0  0  2  0  0  3  0  0  0  0  0  0
  161.6170  203.0860  146.0670 O   0  0  0  0  0  0  0  0  0  0  0  0
  162.0540  206.9520  148.8140 O   0  0  0  0  0  0  0  0  0  0  0  0
  163.4550  206.0670  145.7310 C   0  0  0  0  0  1  0  0  0  0  0  0
  159.3980  202.2000  144.9660 O   0  0  0  0  0  1  0  0  0  0  0  0
  161.9690  204.9840  147.4140 C   0  0  2  0  0  3  0  0  0  0  0  0
  161.2240  203.7900  144.8940 C   0  0  2  0  0  3  0  0  0  0  0  0
  161.9560  209.6830  148.4270 C   0  0  0  0  0  1  0  0  0  0  0  0
  161.7850  209.1030  149.8180 C   0  0  0  0  0  2  0  0  0  0  0  0
  160.4660  207.6880  152.0140 O   0  0  0  0  0  0  0  0  0  0  0  0
  160.9710  206.6370  154.0970 C   0  0  0  0  0  1  0  0  0  0  0  0
  161.2100  207.8320  153.1920 C   0  0  2  0  0  3  0  0  0  0  0  0
  160.7780  209.0900  153.9300 C   0  0  0  0  0  2  0  0  0  0  0  0
  161.3440  210.3110  153.2910 C   0  0  0  0  0  0  0  0  0  0  0  0
  162.5460  210.3280  152.9160 O   0  0  0  0  0  0  0  0  0  0  0  0
  160.5400  211.4260  153.0930 O   0  0  0  0  0  1  0  0  0  0  0  0
  1 19  1  1  0  0  0
  1 10  1  0  0  0  0
  2  9  1  0  0  0  0
  3  2  1  0  0  0  0
  4 20  1  6  0  0  0
  4 22  1  0  0  0  0
  5 15  1  1  0  0  0
  5  4  1  0  0  0  0
  6 25  1  1  0  0  0
  6 14  1  0  0  0  0
  7 14  1  0  0  0  0
  8 13  1  0  0  0  0
  8 23  1  0  0  0  0
  8 21  1  1  0  0  0
 10  7  1  1  0  0  0
 11 10  1  0  0  0  0
 11  9  1  1  0  0  0
 12 18  1  6  0  0  0
 12 22  1  0  0  0  0
 12 17  1  0  0  0  0
 13 15  1  0  0  0  0
 14 26  1  1  0  0  0
 16  3  1  0  0  0  0
 17 16  1  1  0  0  0
 17 11  1  0  0  0  0
 19  6  1  0  0  0  0
 22  1  1  0  0  0  0
 23  5  1  0  0  0  0
 23 18  1  0  0  0  0
 24 25  1  0  0  0  0
 26 28  1  0  0  0  0
 28 29  1  0  0  0  0
 28 27  1  0  0  0  0
 30 29  1  0  0  0  0
 31 30  2  0  0  0  0
 32 30  1  0  0  0  0
M  END
>  <MODEL>
4

>  <REMARK>
 VINA RESULT:      -5.9      4.295      9.980
  Name = 
  5 active torsions:
  status: ('A' for Active; 'I' for Inactive)
    1  A    between atoms: C_7  and  C_19
    2  A    between atoms: O_10  and  C_17
    3  A    between atoms: O_10  and  C_20
    4  A    between atoms: C_20  and  C_29
    5  A    between atoms: C_29  and  C_30
                            x       y       z     vdW  Elec       q    Type
                         _______ _______ _______ _____ _____    ______ ____

>  <TORSDO>
F 5

$$$$
=
 OpenBabel11122413053D

 32 36  0  0  1  0  0  0  0  0999 V2000
  161.0140  207.5280  152.0260 C   0  0  1  0  0  3  0  0  0  0  0  0
  161.9560  210.7670  148.2600 C   0  0  0  0  0  2  0  0  0  0  0  0
  162.3930  211.7990  149.2830 C   0  0  0  0  0  2  0  0  0  0  0  0
  160.9840  208.4050  154.4140 C   0  0  2  0  0  3  0  0  0  0  0  0
  160.2160  209.5500  154.9380 N   0  0  2  0  0  0  0  0  0  0  0  0
  160.5120  205.3550  151.6990 C   0  0  2  0  0  3  0  0  0  0  0  0
  161.1080  206.7400  149.6880 C   0  0  0  0  0  2  0  0  0  0  0  0
  159.3880  211.7210  154.2810 C   0  0  2  0  0  3  0  0  0  0  0  0
  162.2860  209.3770  148.7880 C   0  0  0  0  0  2  0  0  0  0  0  0
  161.7410  207.7040  150.6860 C   0  0  1  0  0  3  0  0  0  0  0  0
  161.7530  209.1400  150.1850 C   0  0  1  0  0  3  0  0  0  0  0  0
  161.0810  209.9340  152.4530 C   0  0  2  0  0  3  0  0  0  0  0  0
  158.3140  210.7090  153.9760 C   0  0  0  0  0  2  0  0  0  0  0  0
  161.0870  205.3200  150.2680 C   0  0  2  0  0  3  0  0  0  0  0  0
  158.8140  209.3940  154.5510 C   0  0  0  0  0  2  0  0  0  0  0  0
  161.5780  211.6130  150.5560 C   0  0  0  0  0  2  0  0  0  0  0  0
  161.5860  210.1840  151.0500 C   0  0  2  0  0  3  0  0  0  0  0  0
  161.5110  210.9130  153.3570 O   0  0  0  0  0  0  0  0  0  0  0  0
  161.2640  206.2330  152.5080 O   0  0  0  0  0  0  0  0  0  0  0  0
  162.1320  208.0810  155.3510 C   0  0  0  0  0  1  0  0  0  0  0  0
  159.5210  212.6270  153.2260 O   0  0  0  0  0  1  0  0  0  0  0  0
  161.5160  208.5880  152.9890 C   0  0  2  0  0  3  0  0  0  0  0  0
  160.6490  210.8960  154.4900 C   0  0  2  0  0  3  0  0  0  0  0  0
  161.8560  203.2820  152.0110 C   0  0  0  0  0  1  0  0  0  0  0  0
  160.5360  203.9660  152.3130 C   0  0  0  0  0  2  0  0  0  0  0  0
  160.3010  204.5020  149.4460 O   0  0  0  0  0  0  0  0  0  0  0  0
  161.7100  204.5790  147.5200 C   0  0  0  0  0  1  0  0  0  0  0  0
  161.2060  203.7490  148.6860 C   0  0  2  0  0  3  0  0  0  0  0  0
  160.5180  202.5100  148.1350 C   0  0  0  0  0  2  0  0  0  0  0  0
  160.8120  201.3130  148.9710 C   0  0  0  0  0  0  0  0  0  0  0  0
  161.7240  200.5130  148.6320 O   0  0  0  0  0  0  0  0  0  0  0  0
  160.0910  201.0870  150.1360 O   0  0  0  0  0  1  0  0  0  0  0  0
  1 19  1  1  0  0  0
  1 22  1  0  0  0  0
  2  9  1  0  0  0  0
  2  3  1  0  0  0  0
  3 16  1  0  0  0  0
  4  5  1  0  0  0  0
  4 20  1  1  0  0  0
  5 15  1  6  0  0  0
  6 25  1  1  0  0  0
  6 19  1  0  0  0  0
  7 14  1  0  0  0  0
  8 21  1  6  0  0  0
  8 23  1  0  0  0  0
 10  7  1  6  0  0  0
 10  1  1  0  0  0  0
 11  9  1  1  0  0  0
 11 10  1  0  0  0  0
 11 17  1  0  0  0  0
 12 22  1  0  0  0  0
 12 18  1  1  0  0  0
 13  8  1  0  0  0  0
 13 15  1  0  0  0  0
 14 26  1  6  0  0  0
 14  6  1  0  0  0  0
 17 16  1  6  0  0  0
 17 12  1  0  0  0  0
 18 23  1  0  0  0  0
 22  4  1  0  0  0  0
 23  5  1  0  0  0  0
 24 25  1  0  0  0  0
 27 28  1  0  0  0  0
 28 26  1  0  0  0  0
 29 28  1  0  0  0  0
 29 30  1  0  0  0  0
 30 32  1  0  0  0  0
 31 30  2  0  0  0  0
M  END
>  <MODEL>
5

>  <REMARK>
 VINA RESULT:      -4.8      2.791      4.426
  Name = 
  5 active torsions:
  status: ('A' for Active; 'I' for Inactive)
    1  A    between atoms: C_7  and  C_19
    2  A    between atoms: O_10  and  C_17
    3  A    between atoms: O_10  and  C_20
    4  A    between atoms: C_20  and  C_29
    5  A    between atoms: C_29  and  C_30
                            x       y       z     vdW  Elec       q    Type
                         _______ _______ _______ _____ _____    ______ ____

>  <TORSDO>
F 5

$$$$
=
 OpenBabel11122413053D

 32 36  0  0  1  0  0  0  0  0999 V2000
  160.8540  209.5370  152.7700 C   0  0  1  0  0  3  0  0  0  0  0  0
  159.9140  213.4330  149.6890 C   0  0  0  0  0  2  0  0  0  0  0  0
  160.0490  214.3750  150.8710 C   0  0  0  0  0  2  0  0  0  0  0  0
  160.8160  209.9290  155.2840 C   0  0  2  0  0  3  0  0  0  0  0  0
  159.7420  210.5570  156.0760 N   0  0  2  0  0  0  0  0  0  0  0  0
  161.2060  207.4330  152.0420 C   0  0  2  0  0  3  0  0  0  0  0  0
  160.9240  209.2420  150.3210 C   0  0  0  0  0  2  0  0  0  0  0  0
  158.0460  212.2680  155.9260 C   0  0  2  0  0  3  0  0  0  0  0  0
  160.8340  212.2370  149.9020 C   0  0  0  0  0  2  0  0  0  0  0  0
  161.2590  210.2080  151.4520 C   0  0  1  0  0  3  0  0  0  0  0  0
  160.6370  211.5820  151.2520 C   0  0  1  0  0  3  0  0  0  0  0  0
  160.0310  211.6550  153.6720 C   0  0  2  0  0  3  0  0  0  0  0  0
  157.4240  210.9670  155.4900 C   0  0  0  0  0  2  0  0  0  0  0  0
  161.5420  207.8670  150.6000 C   0  0  2  0  0  3  0  0  0  0  0  0
  158.4750  209.9010  155.7540 C   0  0  0  0  0  2  0  0  0  0  0  0
  159.5590  213.6680  152.1280 C   0  0  0  0  0  2  0  0  0  0  0  0
  160.1960  212.3110  152.3200 C   0  0  2  0  0  3  0  0  0  0  0  0
  160.1640  212.5650  154.7270 O   0  0  0  0  0  0  0  0  0  0  0  0
  161.6570  208.4000  152.9640 O   0  0  0  0  0  0  0  0  0  0  0  0
  162.1170  209.9620  156.0620 C   0  0  0  0  0  1  0  0  0  0  0  0
  157.6630  213.3040  155.0710 O   0  0  0  0  0  1  0  0  0  0  0  0
  161.0290  210.5410  153.8960 C   0  0  2  0  0  3  0  0  0  0  0  0
  159.5450  212.0150  155.8840 C   0  0  2  0  0  3  0  0  0  0  0  0
  161.2070  205.4740  153.5780 C   0  0  0  0  0  1  0  0  0  0  0  0
  161.8580  206.0990  152.3590 C   0  0  0  0  0  2  0  0  0  0  0  0
  161.0340  206.9400  149.6800 O   0  0  0  0  0  0  0  0  0  0  0  0
  162.7100  208.0780  148.4160 C   0  0  0  0  0  1  0  0  0  0  0  0
  162.0520  206.7480  148.7360 C   0  0  2  0  0  3  0  0  0  0  0  0
  161.4700  206.1750  147.4530 C   0  0  0  0  0  2  0  0  0  0  0  0
  162.1180  204.8810  147.0990 C   0  0  0  0  0  0  0  0  0  0  0  0
  161.9380  203.8660  147.8210 O   0  0  0  0  0  1  0  0  0  0  0  0
  162.9080  204.7910  145.9610 O   0  0  0  0  0  0  0  0  0  0  0  0
  1 19  1  1  0  0  0
  1 22  1  0  0  0  0
  2  9  1  0  0  0  0
  2  3  1  0  0  0  0
  3 16  1  0  0  0  0
  4 20  1  1  0  0  0
  4  5  1  0  0  0  0
  5 15  1  6  0  0  0
  6 25  1  1  0  0  0
  6 19  1  0  0  0  0
  7 14  1  0  0  0  0
  8 21  1  6  0  0  0
 10  7  1  6  0  0  0
 10  1  1  0  0  0  0
 11  9  1  1  0  0  0
 11 10  1  0  0  0  0
 11 17  1  0  0  0  0
 12 22  1  0  0  0  0
 12 18  1  1  0  0  0
 13 15  1  0  0  0  0
 13  8  1  0  0  0  0
 14 26  1  6  0  0  0
 14  6  1  0  0  0  0
 17 16  1  6  0  0  0
 17 12  1  0  0  0  0
 18 23  1  0  0  0  0
 22  4  1  0  0  0  0
 23  8  1  0  0  0  0
 23  5  1  0  0  0  0
 25 24  1  0  0  0  0
 27 28  1  0  0  0  0
 28 26  1  0  0  0  0
 29 28  1  0  0  0  0
 30 29  1  0  0  0  0
 30 31  1  0  0  0  0
 32 30  2  0  0  0  0
M  END
>  <MODEL>
6

>  <REMARK>
 VINA RESULT:      -4.8      1.775      2.426
  Name = 
  5 active torsions:
  status: ('A' for Active; 'I' for Inactive)
    1  A    between atoms: C_7  and  C_19
    2  A    between atoms: O_10  and  C_17
    3  A    between atoms: O_10  and  C_20
    4  A    between atoms: C_20  and  C_29
    5  A    between atoms: C_29  and  C_30
                            x       y       z     vdW  Elec       q    Type
                         _______ _______ _______ _____ _____    ______ ____

>  <TORSDO>
F 5

$$$$
=
 OpenBabel11122413053D

 32 36  0  0  1  0  0  0  0  0999 V2000
  160.1040  210.3320  152.5670 C   0  0  1  0  0  3  0  0  0  0  0  0
  159.7070  207.8280  156.9400 C   0  0  0  0  0  2  0  0  0  0  0  0
  160.9980  207.1000  156.6180 C   0  0  0  0  0  2  0  0  0  0  0  0
  161.8140  209.5430  150.8560 C   0  0  2  0  0  3  0  0  0  0  0  0
  161.9810  208.1780  150.3220 N   0  0  2  0  0  0  0  0  0  0  0  0
  158.7710  212.0590  151.9980 C   0  0  2  0  0  3  0  0  0  0  0  0
  158.5030  211.0720  154.2940 C   0  0  0  0  0  2  0  0  0  0  0  0
  161.7710  205.8620  150.9720 C   0  0  2  0  0  3  0  0  0  0  0  0
  159.7610  209.2230  156.3310 C   0  0  0  0  0  2  0  0  0  0  0  0
  159.8960  210.4900  154.0790 C   0  0  1  0  0  3  0  0  0  0  0  0
  160.1210  209.2060  154.8610 C   0  0  1  0  0  3  0  0  0  0  0  0
  161.2670  208.2060  152.8830 C   0  0  2  0  0  3  0  0  0  0  0  0
  160.4540  206.2940  150.3810 C   0  0  0  0  0  2  0  0  0  0  0  0
  158.3240  212.3390  153.4480 C   0  0  2  0  0  3  0  0  0  0  0  0
  160.6850  207.6970  149.8440 C   0  0  0  0  0  2  0  0  0  0  0  0
  161.0990  206.9120  155.1100 C   0  0  0  0  0  2  0  0  0  0  0  0
  160.8870  208.2000  154.3460 C   0  0  2  0  0  3  0  0  0  0  0  0
  162.4640  207.5220  152.6390 O   0  0  0  0  0  0  0  0  0  0  0  0
  160.1070  211.6070  151.9760 O   0  0  0  0  0  0  0  0  0  0  0  0
  163.0820  210.3440  150.6310 C   0  0  0  0  0  1  0  0  0  0  0  0
  161.5640  205.1040  152.1260 O   0  0  0  0  0  1  0  0  0  0  0  0
  161.4170  209.6070  152.3340 C   0  0  2  0  0  3  0  0  0  0  0  0
  162.5090  207.1600  151.2630 C   0  0  2  0  0  3  0  0  0  0  0  0
  160.0000  213.6630  150.5430 C   0  0  0  0  0  1  0  0  0  0  0  0
  158.6560  213.3180  151.1570 C   0  0  0  0  0  2  0  0  0  0  0  0
  156.9760  212.7220  153.4770 O   0  0  0  0  0  0  0  0  0  0  0  0
  158.2420  214.2430  154.8130 C   0  0  0  0  0  1  0  0  0  0  0  0
  156.9610  214.0090  154.0330 C   0  0  2  0  0  3  0  0  0  0  0  0
  155.7830  214.1510  154.9840 C   0  0  0  0  0  2  0  0  0  0  0  0
  155.9400  213.2670  156.1720 C   0  0  0  0  0  0  0  0  0  0  0  0
  156.3790  213.7350  157.2550 O   0  0  0  0  0  1  0  0  0  0  0  0
  155.5860  211.9270  156.0900 O   0  0  0  0  0  0  0  0  0  0  0  0
  1 19  1  6  0  0  0
  1 10  1  0  0  0  0
  3  2  1  0  0  0  0
  4 20  1  1  0  0  0
  4 22  1  0  0  0  0
  5 15  1  1  0  0  0
  5  4  1  0  0  0  0
  5 23  1  0  0  0  0
  6 25  1  6  0  0  0
  6 14  1  0  0  0  0
  8 23  1  0  0  0  0
  8 21  1  1  0  0  0
  9  2  1  0  0  0  0
 10  7  1  6  0  0  0
 10 11  1  0  0  0  0
 11  9  1  1  0  0  0
 12 18  1  1  0  0  0
 12 17  1  0  0  0  0
 13  8  1  0  0  0  0
 14 26  1  6  0  0  0
 14  7  1  0  0  0  0
 15 13  1  0  0  0  0
 16  3  1  0  0  0  0
 17 11  1  0  0  0  0
 17 16  1  6  0  0  0
 19  6  1  0  0  0  0
 22  1  1  0  0  0  0
 22 12  1  0  0  0  0
 23 18  1  0  0  0  0
 24 25  1  0  0  0  0
 26 28  1  0  0  0  0
 28 27  1  0  0  0  0
 28 29  1  0  0  0  0
 29 30  1  0  0  0  0
 30 31  1  0  0  0  0
 32 30  2  0  0  0  0
M  END
>  <MODEL>
7

>  <REMARK>
 VINA RESULT:      -4.1      2.361      7.839
  Name = 
  5 active torsions:
  status: ('A' for Active; 'I' for Inactive)
    1  A    between atoms: C_7  and  C_19
    2  A    between atoms: O_10  and  C_17
    3  A    between atoms: O_10  and  C_20
    4  A    between atoms: C_20  and  C_29
    5  A    between atoms: C_29  and  C_30
                            x       y       z     vdW  Elec       q    Type
                         _______ _______ _______ _____ _____    ______ ____

>  <TORSDO>
F 5

$$$$
=
 OpenBabel11122413053D

 32 36  0  0  1  0  0  0  0  0999 V2000
  159.5260  211.5930  154.2240 C   0  0  1  0  0  3  0  0  0  0  0  0
  157.4430  213.1730  149.8970 C   0  0  0  0  0  2  0  0  0  0  0  0
  156.9830  214.4350  150.6020 C   0  0  0  0  0  2  0  0  0  0  0  0
  158.9570  212.8240  156.3770 C   0  0  2  0  0  3  0  0  0  0  0  0
  157.6140  213.1360  156.9020 N   0  0  2  0  0  0  0  0  0  0  0  0
  160.8590  209.7810  154.3730 C   0  0  2  0  0  3  0  0  0  0  0  0
  160.0710  210.4780  152.0910 C   0  0  0  0  0  2  0  0  0  0  0  0
  155.3840  213.6910  156.1620 C   0  0  2  0  0  3  0  0  0  0  0  0
  158.7500  212.7040  150.5260 C   0  0  0  0  0  2  0  0  0  0  0  0
  159.7850  211.8320  152.7310 C   0  0  1  0  0  3  0  0  0  0  0  0
  158.6640  212.5850  152.0320 C   0  0  1  0  0  3  0  0  0  0  0  0
  157.7430  213.2650  154.2490 C   0  0  2  0  0  3  0  0  0  0  0  0
  155.4600  212.1930  156.3030 C   0  0  0  0  0  2  0  0  0  0  0  0
  161.1780  209.7510  152.8640 C   0  0  2  0  0  3  0  0  0  0  0  0
  156.8190  211.9080  156.9210 C   0  0  0  0  0  2  0  0  0  0  0  0
  156.6720  214.1060  152.0570 C   0  0  0  0  0  2  0  0  0  0  0  0
  157.8000  213.3690  152.7420 C   0  0  2  0  0  3  0  0  0  0  0  0
  157.3120  214.4530  154.8510 O   0  0  0  0  0  0  0  0  0  0  0  0
  160.7050  211.1110  154.8160 O   0  0  0  0  0  0  0  0  0  0  0  0
  159.9860  213.7330  157.0210 C   0  0  0  0  0  1  0  0  0  0  0  0
  154.7180  214.0380  154.9840 O   0  0  0  0  0  1  0  0  0  0  0  0
  159.0810  212.9020  154.8520 C   0  0  2  0  0  3  0  0  0  0  0  0
  156.8330  214.1540  156.1580 C   0  0  2  0  0  3  0  0  0  0  0  0
  161.6630  209.1660  156.6470 C   0  0  0  0  0  1  0  0  0  0  0  0
  161.9720  209.1170  155.1630 C   0  0  0  0  0  2  0  0  0  0  0  0
  161.2630  208.4280  152.4090 O   0  0  0  0  0  0  0  0  0  0  0  0
  162.8250  209.7950  151.2290 C   0  0  0  0  0  1  0  0  0  0  0  0
  162.0840  208.4710  151.2740 C   0  0  2  0  0  3  0  0  0  0  0  0
  161.2390  208.3480  150.0160 C   0  0  0  0  0  2  0  0  0  0  0  0
  161.8480  207.3900  149.0510 C   0  0  0  0  0  0  0  0  0  0  0  0
  161.6000  206.1590  149.1410 O   0  0  0  0  0  1  0  0  0  0  0  0
  162.6770  207.8580  148.0400 O   0  0  0  0  0  0  0  0  0  0  0  0
  1 19  1  1  0  0  0
  1 22  1  0  0  0  0
  2  9  1  0  0  0  0
  2  3  1  0  0  0  0
  3 16  1  0  0  0  0
  4  5  1  0  0  0  0
  4 20  1  1  0  0  0
  5 15  1  6  0  0  0
  6 19  1  0  0  0  0
  6 25  1  1  0  0  0
  7 14  1  0  0  0  0
  8 21  1  6  0  0  0
  8 13  1  0  0  0  0
 10  7  1  6  0  0  0
 10  1  1  0  0  0  0
 11  9  1  6  0  0  0
 11 10  1  0  0  0  0
 11 17  1  0  0  0  0
 12 18  1  1  0  0  0
 12 22  1  0  0  0  0
 13 15  1  0  0  0  0
 14 26  1  6  0  0  0
 14  6  1  0  0  0  0
 17 16  1  6  0  0  0
 17 12  1  0  0  0  0
 18 23  1  0  0  0  0
 22  4  1  0  0  0  0
 23  8  1  0  0  0  0
 23  5  1  0  0  0  0
 25 24  1  0  0  0  0
 27 28  1  0  0  0  0
 28 26  1  0  0  0  0
 29 28  1  0  0  0  0
 30 31  1  0  0  0  0
 30 29  1  0  0  0  0
 32 30  2  0  0  0  0
M  END
>  <MODEL>
8

>  <REMARK>
 VINA RESULT:      -4.0      1.587      1.954
  Name = 
  5 active torsions:
  status: ('A' for Active; 'I' for Inactive)
    1  A    between atoms: C_7  and  C_19
    2  A    between atoms: O_10  and  C_17
    3  A    between atoms: O_10  and  C_20
    4  A    between atoms: C_20  and  C_29
    5  A    between atoms: C_29  and  C_30
                            x       y       z     vdW  Elec       q    Type
                         _______ _______ _______ _____ _____    ______ ____

>  <TORSDO>
F 5

$$$$
=
 OpenBabel11122413053D

 32 36  0  0  1  0  0  0  0  0999 V2000
  160.6040  209.5470  152.5820 C   0  0  1  0  0  3  0  0  0  0  0  0
  161.4310  211.5800  148.0280 C   0  0  0  0  0  2  0  0  0  0  0  0
  161.5530  212.9440  148.6810 C   0  0  0  0  0  2  0  0  0  0  0  0
  160.1270  211.0940  154.5440 C   0  0  2  0  0  3  0  0  0  0  0  0
  159.1140  212.1640  154.6150 N   0  0  2  0  0  0  0  0  0  0  0  0
  160.5290  207.3250  152.9550 C   0  0  2  0  0  3  0  0  0  0  0  0
  161.1220  208.1090  150.6430 C   0  0  0  0  0  2  0  0  0  0  0  0
  158.0110  213.8090  153.2330 C   0  0  2  0  0  3  0  0  0  0  0  0
  161.9290  210.5200  149.0020 C   0  0  0  0  0  2  0  0  0  0  0  0
  161.4490  209.4430  151.3060 C   0  0  1  0  0  3  0  0  0  0  0  0
  161.2760  210.6240  150.3630 C   0  0  1  0  0  3  0  0  0  0  0  0
  160.2010  211.9270  152.2000 C   0  0  2  0  0  3  0  0  0  0  0  0
  157.1750  212.5560  153.2110 C   0  0  0  0  0  2  0  0  0  0  0  0
  161.2740  206.9660  151.6530 C   0  0  2  0  0  3  0  0  0  0  0  0
  157.8190  211.6140  154.2150 C   0  0  0  0  0  2  0  0  0  0  0  0
  160.6310  213.0000  149.8920 C   0  0  0  0  0  2  0  0  0  0  0  0
  160.8250  211.8270  150.8270 C   0  0  2  0  0  3  0  0  0  0  0  0
  160.3400  213.2040  152.7580 O   0  0  0  0  0  0  0  0  0  0  0  0
  161.0120  208.5440  153.4770 O   0  0  0  0  0  0  0  0  0  0  0  0
  161.1880  211.3180  155.6040 C   0  0  0  0  0  1  0  0  0  0  0  0
  158.1150  214.3500  151.9500 O   0  0  0  0  0  1  0  0  0  0  0  0
  160.7910  210.9320  153.1740 C   0  0  2  0  0  3  0  0  0  0  0  0
  159.3600  213.3640  153.7780 C   0  0  2  0  0  3  0  0  0  0  0  0
  160.4450  206.7720  155.3810 C   0  0  0  0  0  1  0  0  0  0  0  0
  160.7160  206.2300  153.9910 C   0  0  0  0  0  2  0  0  0  0  0  0
  160.7490  205.7910  151.0980 O   0  0  0  0  0  0  0  0  0  0  0  0
  161.9590  204.7000  149.3530 C   0  0  0  0  0  1  0  0  0  0  0  0
  161.8540  204.9670  150.8430 C   0  0  2  0  0  3  0  0  0  0  0  0
  161.6880  203.6380  151.5620 C   0  0  0  0  0  2  0  0  0  0  0  0
  160.9650  202.6520  150.7120 C   0  0  0  0  0  0  0  0  0  0  0  0
  161.4670  201.5190  150.4900 O   0  0  0  0  0  1  0  0  0  0  0  0
  159.7250  202.9770  150.1760 O   0  0  0  0  0  0  0  0  0  0  0  0
  1 22  1  0  0  0  0
  1 19  1  1  0  0  0
  2  3  1  0  0  0  0
  2  9  1  0  0  0  0
  3 16  1  0  0  0  0
  4  5  1  0  0  0  0
  4 20  1  1  0  0  0
  5 15  1  6  0  0  0
  6 19  1  0  0  0  0
  6 25  1  1  0  0  0
  7 14  1  0  0  0  0
  8 21  1  6  0  0  0
  8 23  1  0  0  0  0
 10  7  1  6  0  0  0
 10  1  1  0  0  0  0
 11  9  1  1  0  0  0
 11 17  1  0  0  0  0
 11 10  1  0  0  0  0
 12 18  1  1  0  0  0
 12 22  1  0  0  0  0
 13  8  1  0  0  0  0
 13 15  1  0  0  0  0
 14 26  1  6  0  0  0
 14  6  1  0  0  0  0
 17 16  1  6  0  0  0
 17 12  1  0  0  0  0
 18 23  1  0  0  0  0
 22  4  1  0  0  0  0
 23  5  1  0  0  0  0
 25 24  1  0  0  0  0
 27 28  1  0  0  0  0
 28 26  1  0  0  0  0
 28 29  1  0  0  0  0
 30 29  1  0  0  0  0
 31 30  1  0  0  0  0
 32 30  2  0  0  0  0
M  END
>  <MODEL>
9

>  <REMARK>
 VINA RESULT:      -4.0      2.171      2.943
  Name = 
  5 active torsions:
  status: ('A' for Active; 'I' for Inactive)
    1  A    between atoms: C_7  and  C_19
    2  A    between atoms: O_10  and  C_17
    3  A    between atoms: O_10  and  C_20
    4  A    between atoms: C_20  and  C_29
    5  A    between atoms: C_29  and  C_30
                            x       y       z     vdW  Elec       q    Type
                         _______ _______ _______ _____ _____    ______ ____

>  <TORSDO>
F 5

$$$$
