=
 OpenBabel11122412403D

 30 35  0  0  1  0  0  0  0  0999 V2000
  161.2900  208.2000  151.6960 C   0  0  0  0  0  0  0  0  0  0  0  0
  161.4100  205.9680  150.5530 C   0  0  0  0  0  0  0  0  0  0  0  0
  160.4160  206.4560  155.3560 O   0  0  0  0  0  0  0  0  0  0  0  0
  161.0480  208.9400  152.8790 C   0  0  0  0  0  0  0  0  0  0  0  0
  161.6250  208.9050  150.5330 O   0  0  0  0  0  0  0  0  0  0  0  0
  159.8480  211.1490  151.0940 O   0  0  0  0  0  1  0  0  0  0  0  0
  160.2380  211.2730  154.9520 C   0  0  1  0  0  3  0  0  0  0  0  0
  161.1640  211.0610  151.5600 C   0  0  2  0  0  3  0  0  0  0  0  0
  159.6140  209.9820  155.5100 C   0  0  2  0  0  3  0  0  0  0  0  0
  160.2720  207.5960  156.2080 C   0  0  1  0  0  3  0  0  0  0  0  0
  162.0300  210.2750  150.5730 C   0  0  2  0  0  3  0  0  0  0  0  0
  161.1750  210.3750  152.8490 N   0  0  0  0  0  0  0  0  0  0  0  0
  161.3290  204.5750  150.6510 C   0  0  0  0  0  3  0  0  0  0  0  0
  159.2640  210.2170  156.9770 C   0  0  0  0  0  2  0  0  0  0  0  0
  160.4420  212.2710  156.0730 C   0  0  0  0  0  2  0  0  0  0  0  0
  161.7620  206.6060  148.9510 Cl  0  0  0  0  0  0  0  0  0  0  0  0
  160.7010  206.8900  154.0770 C   0  0  0  0  0  0  0  0  0  0  0  0
  161.0480  203.9560  151.8670 C   0  0  0  0  0  3  0  0  0  0  0  0
  161.2030  206.7730  151.7060 C   0  0  0  0  0  0  0  0  0  0  0  0
  160.7410  208.2450  154.0510 C   0  0  0  0  0  0  0  0  0  0  0  0
  161.3660  207.5770  157.2610 C   0  0  0  0  0  1  0  0  0  0  0  0
  160.4380  208.7770  155.3390 N   0  0  0  0  0  0  0  0  0  0  0  0
  159.1090  212.0000  157.2610 S   0  0  0  0  0  0  0  0  0  0  0  0
  162.7230  210.6830  154.7540 C   0  0  0  0  0  1  0  0  0  0  0  0
  160.8410  204.7240  153.0100 C   0  0  0  0  0  3  0  0  0  0  0  0
  160.9140  206.1170  152.9390 C   0  0  0  0  0  0  0  0  0  0  0  0
  161.4630  211.1650  154.0420 C   0  0  2  0  0  3  0  0  0  0  0  0
  161.9930  210.8750  149.2070 C   0  0  0  0  0  3  0  0  0  0  0  0
  162.3340  212.6750  147.7370 O   0  0  0  0  0  1  0  0  0  0  0  0
  162.3720  212.1290  149.0120 C   0  0  0  0  0  3  0  0  0  0  0  0
  1 19  2  0  0  0  0
  1  4  1  0  0  0  0
  2 13  2  0  0  0  0
  2 19  1  0  0  0  0
  3 10  1  0  0  0  0
  4 20  2  0  0  0  0
  5 11  1  0  0  0  0
  5  1  1  0  0  0  0
  7  9  1  0  0  0  0
  7 15  1  1  0  0  0
  8  6  1  6  0  0  0
  8 12  1  0  0  0  0
  9 14  1  1  0  0  0
 10 21  1  1  0  0  0
 11 28  1  6  0  0  0
 11  8  1  0  0  0  0
 12  4  1  0  0  0  0
 12 27  1  0  0  0  0
 13 18  1  0  0  0  0
 14 23  1  0  0  0  0
 15 23  1  0  0  0  0
 16  2  1  0  0  0  0
 17  3  1  0  0  0  0
 18 25  2  0  0  0  0
 19 26  1  0  0  0  0
 20 17  1  0  0  0  0
 20 22  1  0  0  0  0
 22  9  1  0  0  0  0
 22 10  1  0  0  0  0
 26 25  1  0  0  0  0
 26 17  2  0  0  0  0
 27 24  1  1  0  0  0
 27  7  1  0  0  0  0
 29 30  1  0  0  0  0
 30 28  2  0  0  0  0
M  END
>  <MODEL>
1

>  <REMARK>
 VINA RESULT:      -6.4      0.000      0.000
  Name = 
  1 active torsions:
  status: ('A' for Active; 'I' for Inactive)
    1  A    between atoms: C_11  and  C_28
                            x       y       z     vdW  Elec       q    Type
                         _______ _______ _______ _____ _____    ______ ____

>  <TORSDO>
F 1

$$$$
=
 OpenBabel11122412403D

 30 35  0  0  1  0  0  0  0  0999 V2000
  161.3900  204.4130  148.4110 C   0  0  0  0  0  0  0  0  0  0  0  0
  160.9410  201.9560  148.1590 C   0  0  0  0  0  0  0  0  0  0  0  0
  160.6610  204.2910  152.4910 O   0  0  0  0  0  0  0  0  0  0  0  0
  161.4420  205.5530  149.2500 C   0  0  0  0  0  0  0  0  0  0  0  0
  161.7070  204.5770  147.0560 O   0  0  0  0  0  0  0  0  0  0  0  0
  160.4720  207.2100  146.8390 O   0  0  0  0  0  1  0  0  0  0  0  0
  161.3530  208.5790  150.3600 C   0  0  1  0  0  3  0  0  0  0  0  0
  161.7940  207.0000  147.2420 C   0  0  2  0  0  3  0  0  0  0  0  0
  160.5700  207.7350  151.3810 C   0  0  2  0  0  3  0  0  0  0  0  0
  160.8440  205.6580  152.8730 C   0  0  1  0  0  3  0  0  0  0  0  0
  162.3660  205.7490  146.5720 C   0  0  2  0  0  3  0  0  0  0  0  0
  161.8340  206.8210  148.6910 N   0  0  0  0  0  0  0  0  0  0  0  0
  160.6100  200.7400  148.7650 C   0  0  0  0  0  3  0  0  0  0  0  0
  160.4550  208.5370  152.6740 C   0  0  0  0  0  2  0  0  0  0  0  0
  161.8810  209.8320  151.0270 C   0  0  0  0  0  2  0  0  0  0  0  0
  161.2070  201.9020  146.4210 Cl  0  0  0  0  0  0  0  0  0  0  0  0
  160.8630  204.1790  151.1310 C   0  0  0  0  0  0  0  0  0  0  0  0
  160.3690  200.6610  150.1350 C   0  0  0  0  0  3  0  0  0  0  0  0
  161.0360  203.1360  148.9460 C   0  0  0  0  0  0  0  0  0  0  0  0
  161.1560  205.3950  150.6080 C   0  0  0  0  0  0  0  0  0  0  0  0
  162.0350  205.7640  153.8070 C   0  0  0  0  0  1  0  0  0  0  0  0
  161.1220  206.3950  151.6250 N   0  0  0  0  0  0  0  0  0  0  0  0
  160.6780  210.2940  152.2930 S   0  0  0  0  0  0  0  0  0  0  0  0
  163.6370  207.4210  150.2760 C   0  0  0  0  0  1  0  0  0  0  0  0
  160.4550  201.8040  150.9260 C   0  0  0  0  0  3  0  0  0  0  0  0
  160.7820  203.0310  150.3460 C   0  0  0  0  0  0  0  0  0  0  0  0
  162.4130  207.8920  149.4970 C   0  0  2  0  0  3  0  0  0  0  0  0
  162.2750  205.8290  145.0840 C   0  0  0  0  0  3  0  0  0  0  0  0
  161.2000  205.3290  143.0570 O   0  0  0  0  0  1  0  0  0  0  0  0
  161.2750  205.2460  144.4400 C   0  0  0  0  0  3  0  0  0  0  0  0
  1 19  2  0  0  0  0
  1  4  1  0  0  0  0
  2 13  2  0  0  0  0
  2 19  1  0  0  0  0
  3 10  1  0  0  0  0
  4 20  2  0  0  0  0
  5  1  1  0  0  0  0
  7 15  1  1  0  0  0
  7  9  1  0  0  0  0
  8  6  1  6  0  0  0
  8 12  1  0  0  0  0
  9 22  1  0  0  0  0
  9 14  1  1  0  0  0
 10 21  1  1  0  0  0
 11 28  1  6  0  0  0
 11  5  1  0  0  0  0
 11  8  1  0  0  0  0
 12  4  1  0  0  0  0
 12 27  1  0  0  0  0
 13 18  1  0  0  0  0
 15 23  1  0  0  0  0
 16  2  1  0  0  0  0
 17  3  1  0  0  0  0
 18 25  2  0  0  0  0
 19 26  1  0  0  0  0
 20 17  1  0  0  0  0
 20 22  1  0  0  0  0
 22 10  1  0  0  0  0
 23 14  1  0  0  0  0
 26 25  1  0  0  0  0
 26 17  2  0  0  0  0
 27 24  1  1  0  0  0
 27  7  1  0  0  0  0
 29 30  1  0  0  0  0
 30 28  2  0  0  0  0
M  END
>  <MODEL>
2

>  <REMARK>
 VINA RESULT:      -6.1      3.749      5.302
  Name = 
  1 active torsions:
  status: ('A' for Active; 'I' for Inactive)
    1  A    between atoms: C_11  and  C_28
                            x       y       z     vdW  Elec       q    Type
                         _______ _______ _______ _____ _____    ______ ____

>  <TORSDO>
F 1

$$$$
=
 OpenBabel11122412403D

 30 35  0  0  1  0  0  0  0  0999 V2000
  160.2780  211.5120  151.8220 C   0  0  0  0  0  0  0  0  0  0  0  0
  161.7210  209.7710  150.7300 C   0  0  0  0  0  0  0  0  0  0  0  0
  159.7120  209.1580  155.1890 O   0  0  0  0  0  0  0  0  0  0  0  0
  159.4740  211.8980  152.9220 C   0  0  0  0  0  0  0  0  0  0  0  0
  160.4310  212.4180  150.7650 O   0  0  0  0  0  0  0  0  0  0  0  0
  157.6980  213.4250  150.9180 O   0  0  0  0  0  1  0  0  0  0  0  0
  157.2190  213.2820  154.7650 C   0  0  1  0  0  3  0  0  0  0  0  0
  158.7610  213.9390  151.6660 C   0  0  2  0  0  3  0  0  0  0  0  0
  157.2350  211.7970  155.1670 C   0  0  2  0  0  3  0  0  0  0  0  0
  158.8540  209.9760  155.9900 C   0  0  1  0  0  3  0  0  0  0  0  0
  160.0760  213.7960  150.8970 C   0  0  2  0  0  3  0  0  0  0  0  0
  158.8660  213.2040  152.9240 N   0  0  0  0  0  0  0  0  0  0  0  0
  162.3330  208.5160  150.8050 C   0  0  0  0  0  3  0  0  0  0  0  0
  156.5390  211.6620  156.5180 C   0  0  0  0  0  2  0  0  0  0  0  0
  156.6750  214.1170  155.9060 C   0  0  0  0  0  2  0  0  0  0  0  0
  162.0060  210.6780  149.2490 Cl  0  0  0  0  0  0  0  0  0  0  0  0
  159.9810  209.8190  154.0080 C   0  0  0  0  0  0  0  0  0  0  0  0
  162.1730  207.7040  151.9260 C   0  0  0  0  0  3  0  0  0  0  0  0
  160.9200  210.2340  151.8090 C   0  0  0  0  0  0  0  0  0  0  0  0
  159.3390  211.0130  153.9940 C   0  0  0  0  0  0  0  0  0  0  0  0
  159.5820  210.3740  157.2610 C   0  0  0  0  0  1  0  0  0  0  0  0
  158.5680  211.1780  155.1820 N   0  0  0  0  0  0  0  0  0  0  0  0
  155.4580  213.0950  156.7640 S   0  0  0  0  0  0  0  0  0  0  0  0
  159.6490  214.0100  155.1290 C   0  0  0  0  0  1  0  0  0  0  0  0
  161.3930  208.1360  152.9950 C   0  0  0  0  0  3  0  0  0  0  0  0
  160.7680  209.3840  152.9450 C   0  0  0  0  0  0  0  0  0  0  0  0
  158.4820  213.8920  154.1530 C   0  0  2  0  0  3  0  0  0  0  0  0
  160.0070  214.4530  149.5590 C   0  0  0  0  0  3  0  0  0  0  0  0
  160.1140  214.3690  147.2140 O   0  0  0  0  0  1  0  0  0  0  0  0
  160.1830  213.7470  148.4530 C   0  0  0  0  0  3  0  0  0  0  0  0
  1  4  1  0  0  0  0
  2 13  2  0  0  0  0
  2 19  1  0  0  0  0
  3 10  1  0  0  0  0
  4 12  1  0  0  0  0
  4 20  2  0  0  0  0
  5 11  1  0  0  0  0
  5  1  1  0  0  0  0
  7  9  1  0  0  0  0
  7 15  1  1  0  0  0
  8  6  1  6  0  0  0
  8 12  1  0  0  0  0
  9 22  1  0  0  0  0
  9 14  1  1  0  0  0
 10 21  1  1  0  0  0
 11 28  1  6  0  0  0
 11  8  1  0  0  0  0
 12 27  1  0  0  0  0
 13 18  1  0  0  0  0
 14 23  1  0  0  0  0
 15 23  1  0  0  0  0
 16  2  1  0  0  0  0
 17  3  1  0  0  0  0
 18 25  2  0  0  0  0
 19  1  2  0  0  0  0
 19 26  1  0  0  0  0
 20 17  1  0  0  0  0
 20 22  1  0  0  0  0
 22 10  1  0  0  0  0
 26 25  1  0  0  0  0
 26 17  2  0  0  0  0
 27  7  1  0  0  0  0
 27 24  1  1  0  0  0
 29 30  1  0  0  0  0
 30 28  2  0  0  0  0
M  END
>  <MODEL>
3

>  <REMARK>
 VINA RESULT:      -5.3      2.614      3.546
  Name = 
  1 active torsions:
  status: ('A' for Active; 'I' for Inactive)
    1  A    between atoms: C_11  and  C_28
                            x       y       z     vdW  Elec       q    Type
                         _______ _______ _______ _____ _____    ______ ____

>  <TORSDO>
F 1

$$$$
=
 OpenBabel11122412403D

 30 35  0  0  1  0  0  0  0  0999 V2000
  161.5300  208.1510  150.9280 C   0  0  0  0  0  0  0  0  0  0  0  0
  161.4680  208.5750  153.4010 C   0  0  0  0  0  0  0  0  0  0  0  0
  161.0380  204.0670  151.4540 O   0  0  0  0  0  0  0  0  0  0  0  0
  161.5020  207.2210  149.8600 C   0  0  0  0  0  0  0  0  0  0  0  0
  161.6520  209.5120  150.6150 O   0  0  0  0  0  0  0  0  0  0  0  0
  163.4560  209.0790  148.3650 O   0  0  0  0  0  1  0  0  0  0  0  0
  161.9530  205.7660  147.0180 C   0  0  1  0  0  3  0  0  0  0  0  0
  162.0620  209.0600  148.2610 C   0  0  2  0  0  3  0  0  0  0  0  0
  162.2080  204.6880  148.0860 C   0  0  2  0  0  3  0  0  0  0  0  0
  161.0670  203.5820  150.1080 C   0  0  1  0  0  3  0  0  0  0  0  0
  161.4350  210.0030  149.2910 C   0  0  2  0  0  3  0  0  0  0  0  0
  161.5770  207.7040  148.5050 N   0  0  0  0  0  0  0  0  0  0  0  0
  161.3330  208.0580  154.6930 C   0  0  0  0  0  3  0  0  0  0  0  0
  162.1320  203.3210  147.4110 C   0  0  0  0  0  2  0  0  0  0  0  0
  161.5550  205.1100  145.7120 C   0  0  0  0  0  2  0  0  0  0  0  0
  161.6950  210.3170  153.2910 Cl  0  0  0  0  0  0  0  0  0  0  0  0
  161.2060  205.4370  151.4370 C   0  0  0  0  0  0  0  0  0  0  0  0
  161.1550  206.6920  154.9060 C   0  0  0  0  0  3  0  0  0  0  0  0
  161.4230  207.7020  152.2800 C   0  0  0  0  0  0  0  0  0  0  0  0
  161.3520  205.8650  150.1590 C   0  0  0  0  0  0  0  0  0  0  0  0
  159.7170  202.9830  149.7610 C   0  0  0  0  0  1  0  0  0  0  0  0
  161.3230  204.7600  149.2570 N   0  0  0  0  0  0  0  0  0  0  0  0
  162.4260  203.5300  145.6350 S   0  0  0  0  0  0  0  0  0  0  0  0
  159.5850  206.5780  147.5630 C   0  0  0  0  0  1  0  0  0  0  0  0
  161.1100  205.8170  153.8240 C   0  0  0  0  0  3  0  0  0  0  0  0
  161.2430  206.3080  152.5230 C   0  0  0  0  0  0  0  0  0  0  0  0
  161.0520  206.9510  147.3700 C   0  0  2  0  0  3  0  0  0  0  0  0
  161.9560  211.3950  149.1540 C   0  0  0  0  0  3  0  0  0  0  0  0
  162.1350  213.4210  147.9800 O   0  0  0  0  0  1  0  0  0  0  0  0
  161.6460  212.1280  148.0960 C   0  0  0  0  0  3  0  0  0  0  0  0
  1 19  1  0  0  0  0
  2 13  1  0  0  0  0
  4 20  1  0  0  0  0
  4  1  2  0  0  0  0
  5  1  1  0  0  0  0
  7 15  1  6  0  0  0
  7 27  1  0  0  0  0
  7  9  1  0  0  0  0
  8  6  1  1  0  0  0
  8 12  1  0  0  0  0
  8 11  1  0  0  0  0
  9 14  1  6  0  0  0
  9 22  1  0  0  0  0
 10 21  1  6  0  0  0
 10  3  1  0  0  0  0
 11 28  1  1  0  0  0
 11  5  1  0  0  0  0
 12  4  1  0  0  0  0
 13 18  2  0  0  0  0
 16  2  1  0  0  0  0
 17  3  1  0  0  0  0
 17 26  1  0  0  0  0
 19 26  1  0  0  0  0
 19  2  2  0  0  0  0
 20 17  2  0  0  0  0
 22 10  1  0  0  0  0
 22 20  1  0  0  0  0
 23 15  1  0  0  0  0
 23 14  1  0  0  0  0
 25 18  1  0  0  0  0
 26 25  2  0  0  0  0
 27 24  1  1  0  0  0
 27 12  1  0  0  0  0
 29 30  1  0  0  0  0
 30 28  2  0  0  0  0
M  END
>  <MODEL>
4

>  <REMARK>
 VINA RESULT:      -4.0      3.894      6.512
  Name = 
  1 active torsions:
  status: ('A' for Active; 'I' for Inactive)
    1  A    between atoms: C_11  and  C_28
                            x       y       z     vdW  Elec       q    Type
                         _______ _______ _______ _____ _____    ______ ____

>  <TORSDO>
F 1

$$$$
=
 OpenBabel11122412403D

 30 35  0  0  1  0  0  0  0  0999 V2000
  160.8050  209.9650  152.0760 C   0  0  0  0  0  0  0  0  0  0  0  0
  161.9180  209.8180  149.8310 C   0  0  0  0  0  0  0  0  0  0  0  0
  159.6070  213.8780  151.4030 O   0  0  0  0  0  0  0  0  0  0  0  0
  160.0950  210.7410  153.0240 C   0  0  0  0  0  0  0  0  0  0  0  0
  161.1080  208.6370  152.4040 O   0  0  0  0  0  0  0  0  0  0  0  0
  161.6030  209.1950  155.2240 O   0  0  0  0  0  1  0  0  0  0  0  0
  158.9090  211.9310  155.7770 C   0  0  1  0  0  3  0  0  0  0  0  0
  160.3420  208.9000  154.6980 C   0  0  2  0  0  3  0  0  0  0  0  0
  159.3270  213.1520  154.9380 C   0  0  2  0  0  3  0  0  0  0  0  0
  158.9360  214.2040  152.6240 C   0  0  1  0  0  3  0  0  0  0  0  0
  160.4700  207.9650  153.4920 C   0  0  2  0  0  3  0  0  0  0  0  0
  159.6950  210.1380  154.2700 N   0  0  0  0  0  0  0  0  0  0  0  0
  162.2310  210.4360  148.6160 C   0  0  0  0  0  3  0  0  0  0  0  0
  158.6380  214.3850  155.5150 C   0  0  0  0  0  2  0  0  0  0  0  0
  157.8410  212.3340  156.7720 C   0  0  0  0  0  2  0  0  0  0  0  0
  162.4930  208.1660  150.0240 Cl  0  0  0  0  0  0  0  0  0  0  0  0
  160.0800  212.5840  151.4870 C   0  0  0  0  0  0  0  0  0  0  0  0
  161.8340  211.7450  148.3520 C   0  0  0  0  0  3  0  0  0  0  0  0
  161.1840  210.5290  150.8190 C   0  0  0  0  0  0  0  0  0  0  0  0
  159.7620  212.0570  152.6960 C   0  0  0  0  0  0  0  0  0  0  0  0
  157.4660  214.4530  152.3380 C   0  0  0  0  0  1  0  0  0  0  0  0
  159.0800  213.0210  153.4950 N   0  0  0  0  0  0  0  0  0  0  0  0
  158.1800  214.0470  157.2350 S   0  0  0  0  0  0  0  0  0  0  0  0
  157.2840  210.6920  154.2320 C   0  0  0  0  0  1  0  0  0  0  0  0
  161.1160  212.4620  149.3050 C   0  0  0  0  0  3  0  0  0  0  0  0
  160.7920  211.8700  150.5280 C   0  0  0  0  0  0  0  0  0  0  0  0
  158.5670  210.6260  155.0560 C   0  0  2  0  0  3  0  0  0  0  0  0
  161.2040  206.7130  153.8410 C   0  0  0  0  0  3  0  0  0  0  0  0
  161.9250  204.5370  153.3290 O   0  0  0  0  0  1  0  0  0  0  0  0
  161.2380  205.6960  152.9940 C   0  0  0  0  0  3  0  0  0  0  0  0
  1  5  1  0  0  0  0
  1  4  1  0  0  0  0
  2 16  1  0  0  0  0
  2 19  1  0  0  0  0
  3 17  1  0  0  0  0
  3 10  1  0  0  0  0
  4 12  1  0  0  0  0
  5 11  1  0  0  0  0
  7 15  1  6  0  0  0
  8  6  1  6  0  0  0
  9 14  1  1  0  0  0
  9  7  1  0  0  0  0
 10 21  1  6  0  0  0
 10 22  1  0  0  0  0
 11 28  1  1  0  0  0
 11  8  1  0  0  0  0
 12  8  1  0  0  0  0
 12 27  1  0  0  0  0
 13  2  2  0  0  0  0
 14 23  1  0  0  0  0
 15 23  1  0  0  0  0
 17 20  1  0  0  0  0
 18 13  1  0  0  0  0
 18 25  2  0  0  0  0
 19  1  2  0  0  0  0
 20  4  2  0  0  0  0
 20 22  1  0  0  0  0
 22  9  1  0  0  0  0
 25 26  1  0  0  0  0
 26 19  1  0  0  0  0
 26 17  2  0  0  0  0
 27 24  1  6  0  0  0
 27  7  1  0  0  0  0
 30 29  1  0  0  0  0
 30 28  2  0  0  0  0
M  END
>  <MODEL>
5

>  <REMARK>
 VINA RESULT:      -3.6      2.208      5.503
  Name = 
  1 active torsions:
  status: ('A' for Active; 'I' for Inactive)
    1  A    between atoms: C_11  and  C_28
                            x       y       z     vdW  Elec       q    Type
                         _______ _______ _______ _____ _____    ______ ____

>  <TORSDO>
F 1

$$$$
