=
 OpenBabel11122413393D

 37 43  0  0  1  0  0  0  0  0999 V2000
  161.7980  210.2060  154.1320 C   0  0  0  0  0  2  0  0  0  0  0  0
  161.4650  205.5300  152.3100 C   0  0  1  0  0  0  0  0  0  0  0  0
  161.5350  209.3650  150.4480 N   0  0  1  0  0  0  0  0  0  0  0  0
  162.0700  210.2520  155.6340 C   0  0  2  0  0  3  0  0  0  0  0  0
  159.7420  212.1760  152.1220 O   0  0  0  0  0  0  0  0  0  0  0  0
  162.1340  206.9180  150.2580 C   0  0  1  0  0  3  0  0  0  0  0  0
  160.4430  210.0860  151.1340 C   0  0  2  0  0  3  0  0  0  0  0  0
  160.4490  212.2230  155.7940 C   0  0  1  0  0  3  0  0  0  0  0  0
  161.1800  207.9980  150.7800 C   0  0  1  0  0  3  0  0  0  0  0  0
  160.8010  211.5600  151.4430 C   0  0  1  0  0  3  0  0  0  0  0  0
  163.2520  207.5410  149.4310 C   0  0  0  0  0  2  0  0  0  0  0  0
  160.9600  210.9360  156.4420 C   0  0  0  0  0  2  0  0  0  0  0  0
  160.9810  208.0030  152.2430 C   0  0  2  0  0  3  0  0  0  0  0  0
  162.0180  205.0380  153.4910 O   0  0  0  0  0  1  0  0  0  0  0  0
  161.6390  210.8040  148.3730 C   0  0  0  0  0  2  0  0  0  0  0  0
  162.6680  208.5370  148.4070 C   0  0  0  0  0  2  0  0  0  0  0  0
  160.4490  206.6470  152.6700 C   0  0  0  0  0  2  0  0  0  0  0  0
  159.6630  211.9790  154.4970 C   0  0  1  0  0  3  0  0  0  0  0  0
  160.3060  212.6660  153.2970 C   0  0  0  0  0  2  0  0  0  0  0  0
  161.5220  209.4090  148.9760 C   0  0  1  0  0  3  0  0  0  0  0  0
  160.0970  209.2170  152.4050 C   0  0  1  0  0  3  0  0  0  0  0  0
  162.6240  205.9950  151.3830 C   0  0  0  0  0  2  0  0  0  0  0  0
  161.1700  212.4240  150.2220 C   0  0  1  0  0  3  0  0  0  0  0  0
  160.7130  204.4030  151.6290 C   0  0  0  0  0  1  0  0  0  0  0  0
  159.2870  210.6260  154.2740 O   0  0  0  0  0  0  0  0  0  0  0  0
  159.6380  212.9020  156.7020 O   0  0  0  0  0  1  0  0  0  0  0  0
  160.3470  209.7940  153.8110 C   0  0  2  0  0  3  0  0  0  0  0  0
  162.2420  211.8350  149.3120 C   0  0  0  0  0  2  0  0  0  0  0  0
  160.1660  213.3910  148.1380 C   0  0  0  0  0  3  0  0  0  0  0  0
  160.0050  213.0280  149.4800 C   0  0  0  0  0  0  0  0  0  0  0  0
  158.7610  213.2160  150.1030 C   0  0  0  0  0  3  0  0  0  0  0  0
  156.1480  214.0020  150.1750 Cl  0  0  0  0  0  0  0  0  0  0  0  0
  157.8620  214.1330  148.0510 C   0  0  0  0  0  3  0  0  0  0  0  0
  157.6950  213.7690  149.3900 C   0  0  0  0  0  0  0  0  0  0  0  0
  159.0980  213.9430  147.4250 C   0  0  0  0  0  3  0  0  0  0  0  0
  162.9890  212.1020  157.2610 C   0  0  0  0  0  1  0  0  0  0  0  0
  163.6660  211.0690  155.9300 S   0  0  0  0  0  0  0  0  0  0  0  0
  1  4  1  0  0  0  0
  2 24  1  6  0  0  0
  2 17  1  0  0  0  0
  2 14  1  0  0  0  0
  3  9  1  0  0  0  0
  3  7  1  0  0  0  0
  4 37  1  0  0  0  0
  4 12  1  0  0  0  0
  5 19  1  0  0  0  0
  6  9  1  0  0  0  0
  6 22  1  0  0  0  0
  7 10  1  0  0  0  0
  7 21  1  0  0  0  0
  8 12  1  0  0  0  0
  8 26  1  0  0  0  0
  9 13  1  0  0  0  0
 10  5  1  0  0  0  0
 11  6  1  0  0  0  0
 13 21  1  0  0  0  0
 13 17  1  0  0  0  0
 15 20  1  0  0  0  0
 15 28  1  0  0  0  0
 16 20  1  0  0  0  0
 16 11  1  0  0  0  0
 18  8  1  0  0  0  0
 19 18  1  0  0  0  0
 20  3  1  0  0  0  0
 21 27  1  0  0  0  0
 22  2  1  0  0  0  0
 23 10  1  0  0  0  0
 25 18  1  0  0  0  0
 27  1  1  0  0  0  0
 27 25  1  0  0  0  0
 28 23  1  0  0  0  0
 29 30  1  0  0  0  0
 30 31  2  0  0  0  0
 30 23  1  0  0  0  0
 33 34  2  0  0  0  0
 34 31  1  0  0  0  0
 34 32  1  0  0  0  0
 35 33  1  0  0  0  0
 35 29  2  0  0  0  0
 37 36  1  0  0  0  0
M  END
>  <MODEL>
1

>  <REMARK>
 VINA RESULT:      -0.3      0.000      0.000
  Name = 
  2 active torsions:
  status: ('A' for Active; 'I' for Inactive)
    1  A    between atoms: C_4  and  S_37
    2  A    between atoms: C_23  and  C_30
                            x       y       z     vdW  Elec       q    Type
                         _______ _______ _______ _____ _____    ______ ____

>  <TORSDO>
F 2

$$$$
=
 OpenBabel11122413393D

 37 43  0  0  1  0  0  0  0  0999 V2000
  160.9320  207.8930  150.6310 C   0  0  0  0  0  2  0  0  0  0  0  0
  161.2850  209.9690  155.1990 C   0  0  1  0  0  0  0  0  0  0  0  0
  160.4340  211.5790  151.3430 N   0  0  1  0  0  0  0  0  0  0  0  0
  161.0030  206.3680  150.6520 C   0  0  2  0  0  3  0  0  0  0  0  0
  162.2840  210.2110  148.4070 O   0  0  0  0  0  0  0  0  0  0  0  0
  160.0420  211.7500  153.8330 C   0  0  1  0  0  3  0  0  0  0  0  0
  161.5790  211.1180  150.5310 C   0  0  2  0  0  3  0  0  0  0  0  0
  162.4240  206.4750  148.5290 C   0  0  1  0  0  3  0  0  0  0  0  0
  160.9820  211.4020  152.6740 C   0  0  1  0  0  3  0  0  0  0  0  0
  161.1630  210.6670  149.1110 C   0  0  1  0  0  3  0  0  0  0  0  0
  158.7120  212.2770  153.3070 C   0  0  0  0  0  2  0  0  0  0  0  0
  162.1980  205.7940  149.8790 C   0  0  0  0  0  2  0  0  0  0  0  0
  161.5050  210.0210  152.6880 C   0  0  2  0  0  3  0  0  0  0  0  0
  161.0620  208.7200  155.7750 O   0  0  0  0  0  1  0  0  0  0  0  0
  159.7280  213.5070  149.8690 C   0  0  0  0  0  2  0  0  0  0  0  0
  158.9530  213.3560  152.2300 C   0  0  0  0  0  2  0  0  0  0  0  0
  162.2460  209.7890  153.9930 C   0  0  0  0  0  2  0  0  0  0  0  0
  162.9160  207.9250  148.6570 C   0  0  1  0  0  3  0  0  0  0  0  0
  161.9570  208.9170  148.0090 C   0  0  0  0  0  2  0  0  0  0  0  0
  160.1100  213.0130  151.2600 C   0  0  1  0  0  3  0  0  0  0  0  0
  162.2850  210.0010  151.3940 C   0  0  1  0  0  3  0  0  0  0  0  0
  159.9090  210.5910  154.8310 C   0  0  0  0  0  2  0  0  0  0  0  0
  160.4470  211.7310  148.2580 C   0  0  1  0  0  3  0  0  0  0  0  0
  161.9670  210.8540  156.2230 C   0  0  0  0  0  1  0  0  0  0  0  0
  163.3590  208.2920  149.9580 O   0  0  0  0  0  0  0  0  0  0  0  0
  163.3520  205.7390  147.7940 O   0  0  0  0  0  1  0  0  0  0  0  0
  162.3050  208.5480  150.8820 C   0  0  2  0  0  3  0  0  0  0  0  0
  159.2580  212.4080  148.9310 C   0  0  0  0  0  2  0  0  0  0  0  0
  162.2390  213.4850  148.2450 C   0  0  0  0  0  3  0  0  0  0  0  0
  161.3520  212.6830  147.5180 C   0  0  0  0  0  0  0  0  0  0  0  0
  161.3340  212.7660  146.1170 C   0  0  0  0  0  3  0  0  0  0  0  0
  162.1590  213.7480  143.7070 Cl  0  0  0  0  0  0  0  0  0  0  0  0
  163.0710  214.4500  146.1850 C   0  0  0  0  0  3  0  0  0  0  0  0
  162.1900  213.6490  145.4540 C   0  0  0  0  0  0  0  0  0  0  0  0
  163.0960  214.3680  147.5800 C   0  0  0  0  0  3  0  0  0  0  0  0
  160.0810  203.9840  150.0340 C   0  0  0  0  0  1  0  0  0  0  0  0
  159.4460  205.6850  150.0130 S   0  0  0  0  0  0  0  0  0  0  0  0
  1  4  1  0  0  0  0
  1 27  1  0  0  0  0
  2 14  1  0  0  0  0
  2 24  1  1  0  0  0
  3  9  1  0  0  0  0
  5 10  1  0  0  0  0
  6 22  1  0  0  0  0
  7  3  1  0  0  0  0
  7 21  1  0  0  0  0
  8 18  1  0  0  0  0
  8 12  1  0  0  0  0
  9 13  1  0  0  0  0
  9  6  1  0  0  0  0
 10  7  1  0  0  0  0
 11  6  1  0  0  0  0
 12  4  1  0  0  0  0
 13 17  1  0  0  0  0
 15 20  1  0  0  0  0
 16 11  1  0  0  0  0
 17  2  1  0  0  0  0
 18 25  1  0  0  0  0
 19  5  1  0  0  0  0
 19 18  1  0  0  0  0
 20  3  1  0  0  0  0
 20 16  1  0  0  0  0
 21 13  1  0  0  0  0
 22  2  1  0  0  0  0
 23 28  1  0  0  0  0
 23 10  1  0  0  0  0
 25 27  1  0  0  0  0
 26  8  1  0  0  0  0
 27 21  1  0  0  0  0
 28 15  1  0  0  0  0
 30 29  2  0  0  0  0
 30 23  1  0  0  0  0
 31 30  1  0  0  0  0
 32 34  1  0  0  0  0
 33 35  2  0  0  0  0
 34 31  2  0  0  0  0
 34 33  1  0  0  0  0
 35 29  1  0  0  0  0
 37 36  1  0  0  0  0
 37  4  1  0  0  0  0
M  END
>  <MODEL>
2

>  <REMARK>
 VINA RESULT:       2.2      3.051      6.059
  Name = 
  2 active torsions:
  status: ('A' for Active; 'I' for Inactive)
    1  A    between atoms: C_4  and  S_37
    2  A    between atoms: C_23  and  C_30
                            x       y       z     vdW  Elec       q    Type
                         _______ _______ _______ _____ _____    ______ ____

>  <TORSDO>
F 2

$$$$
