=
 OpenBabel11122412383D

 30 35  0  0  1  0  0  0  0  0999 V2000
  161.3580  206.2020  150.4010 C   0  0  0  0  0  0  0  0  0  0  0  0
  161.0850  203.6760  150.3280 C   0  0  0  0  0  0  0  0  0  0  0  0
  160.7320  206.2130  154.5130 O   0  0  0  0  0  0  0  0  0  0  0  0
  161.3530  207.4020  151.1810 C   0  0  0  0  0  0  0  0  0  0  0  0
  161.6160  206.3120  149.0300 C   0  0  0  0  0  3  0  0  0  0  0  0
  162.0660  209.9380  148.5600 O   0  0  0  0  0  1  0  0  0  0  0  0
  160.2250  210.1460  152.1140 C   0  0  1  0  0  3  0  0  0  0  0  0
  161.8340  208.7120  149.1780 C   0  0  0  0  0  0  0  0  0  0  0  0
  160.0770  209.3670  153.3650 N   0  0  2  0  0  0  0  0  0  0  0  0
  160.8520  207.5750  154.9060 C   0  0  1  0  0  3  0  0  0  0  0  0
  161.8510  207.5390  148.4190 C   0  0  0  0  0  0  0  0  0  0  0  0
  161.5770  208.6570  150.5580 C   0  0  0  0  0  0  0  0  0  0  0  0
  160.8440  202.4920  151.0290 C   0  0  0  0  0  3  0  0  0  0  0  0
  160.1150  210.3570  154.4380 C   0  0  0  0  0  2  0  0  0  0  0  0
  160.0030  211.6140  152.4250 C   0  0  0  0  0  2  0  0  0  0  0  0
  161.3340  203.4620  148.5970 Cl  0  0  0  0  0  0  0  0  0  0  0  0
  160.8980  206.0880  153.1510 C   0  0  0  0  0  0  0  0  0  0  0  0
  160.6250  202.4960  152.4010 C   0  0  0  0  0  3  0  0  0  0  0  0
  161.1120  204.9280  151.0230 C   0  0  0  0  0  0  0  0  0  0  0  0
  161.1130  207.2950  152.5590 C   0  0  0  0  0  0  0  0  0  0  0  0
  162.0210  207.7290  155.8580 C   0  0  0  0  0  1  0  0  0  0  0  0
  161.1310  208.3680  153.6060 C   0  0  1  0  0  3  0  0  0  0  0  0
  159.5910  211.6520  153.8710 C   0  0  0  0  0  2  0  0  0  0  0  0
  162.8140  210.2610  152.0710 C   0  0  0  0  0  1  0  0  0  0  0  0
  160.6440  203.6970  153.1000 C   0  0  0  0  0  3  0  0  0  0  0  0
  160.8790  204.9000  152.4300 C   0  0  0  0  0  0  0  0  0  0  0  0
  161.5270  209.9580  151.3120 C   0  0  2  0  0  3  0  0  0  0  0  0
  162.1380  207.5760  146.9550 C   0  0  0  0  0  2  0  0  0  0  0  0
  160.5440  206.2030  145.6520 C   0  0  0  0  0  1  0  0  0  0  0  0
  161.8930  206.2110  146.3400 C   0  0  0  0  0  2  0  0  0  0  0  0
  1 19  1  0  0  0  0
  1  4  1  0  0  0  0
  2 19  2  0  0  0  0
  2 13  1  0  0  0  0
  3 10  1  0  0  0  0
  4 20  1  0  0  0  0
  5  1  2  0  0  0  0
  6  8  1  0  0  0  0
  7 15  1  1  0  0  0
  7  9  1  0  0  0  0
  8 12  1  0  0  0  0
  9 22  1  0  0  0  0
  9 14  1  1  0  0  0
 10 21  1  1  0  0  0
 11  5  1  0  0  0  0
 11  8  2  0  0  0  0
 12  4  2  0  0  0  0
 12 27  1  0  0  0  0
 13 18  2  0  0  0  0
 15 23  1  0  0  0  0
 16  2  1  0  0  0  0
 17  3  1  0  0  0  0
 18 25  1  0  0  0  0
 19 26  1  0  0  0  0
 20 17  2  0  0  0  0
 22 20  1  6  0  0  0
 22 10  1  0  0  0  0
 23 14  1  0  0  0  0
 26 25  2  0  0  0  0
 26 17  1  0  0  0  0
 27 24  1  1  0  0  0
 27  7  1  0  0  0  0
 28 11  1  0  0  0  0
 29 30  1  0  0  0  0
 30 28  1  0  0  0  0
M  END
>  <MODEL>
1

>  <REMARK>
 VINA RESULT:      -7.2      0.000      0.000
  Name = 
  2 active torsions:
  status: ('A' for Active; 'I' for Inactive)
    1  A    between atoms: C_11  and  C_28
    2  A    between atoms: C_28  and  C_30
                            x       y       z     vdW  Elec       q    Type
                         _______ _______ _______ _____ _____    ______ ____

>  <TORSDO>
F 2

$$$$
=
 OpenBabel11122412383D

 30 35  0  0  1  0  0  0  0  0999 V2000
  161.4120  207.5890  151.3840 C   0  0  0  0  0  0  0  0  0  0  0  0
  161.5840  210.0760  150.8960 C   0  0  0  0  0  0  0  0  0  0  0  0
  162.1060  206.6910  147.3830 O   0  0  0  0  0  0  0  0  0  0  0  0
  161.4360  206.2480  150.8840 C   0  0  0  0  0  0  0  0  0  0  0  0
  161.2060  207.7720  152.7560 C   0  0  0  0  0  3  0  0  0  0  0  0
  160.8330  204.3280  154.0080 O   0  0  0  0  0  1  0  0  0  0  0  0
  160.1850  203.5000  150.1410 C   0  0  1  0  0  3  0  0  0  0  0  0
  161.0280  205.3940  153.1340 C   0  0  0  0  0  0  0  0  0  0  0  0
  160.5750  203.9780  148.7940 N   0  0  2  0  0  0  0  0  0  0  0  0
  162.0980  205.2700  147.3110 C   0  0  1  0  0  3  0  0  0  0  0  0
  161.0160  206.7030  153.6250 C   0  0  0  0  0  0  0  0  0  0  0  0
  161.2270  205.1550  151.7650 C   0  0  0  0  0  0  0  0  0  0  0  0
  161.7880  211.0850  149.9510 C   0  0  0  0  0  3  0  0  0  0  0  0
  160.7680  202.7690  147.9990 C   0  0  0  0  0  2  0  0  0  0  0  0
  159.8130  202.0310  150.0460 C   0  0  0  0  0  2  0  0  0  0  0  0
  161.3150  210.6590  152.5370 Cl  0  0  0  0  0  0  0  0  0  0  0  0
  161.8590  207.1100  148.6720 C   0  0  0  0  0  0  0  0  0  0  0  0
  162.0110  210.7860  148.6120 C   0  0  0  0  0  3  0  0  0  0  0  0
  161.6020  208.7020  150.4940 C   0  0  0  0  0  0  0  0  0  0  0  0
  161.6600  206.0570  149.5120 C   0  0  0  0  0  0  0  0  0  0  0  0
  163.4580  204.7760  146.8620 C   0  0  0  0  0  1  0  0  0  0  0  0
  161.8120  204.7750  148.7500 C   0  0  1  0  0  3  0  0  0  0  0  0
  159.8720  201.7040  148.5790 C   0  0  0  0  0  2  0  0  0  0  0  0
  162.5680  203.1200  151.0870 C   0  0  0  0  0  1  0  0  0  0  0  0
  162.0310  209.4610  148.1940 C   0  0  0  0  0  3  0  0  0  0  0  0
  161.8280  208.4280  149.1120 C   0  0  0  0  0  0  0  0  0  0  0  0
  161.1840  203.7270  151.2910 C   0  0  2  0  0  3  0  0  0  0  0  0
  160.8220  206.9760  155.0790 C   0  0  0  0  0  2  0  0  0  0  0  0
  161.5810  209.0630  156.1700 C   0  0  0  0  0  1  0  0  0  0  0  0
  160.5100  208.4440  155.2970 C   0  0  0  0  0  2  0  0  0  0  0  0
  1  5  2  0  0  0  0
  2 16  1  0  0  0  0
  3 17  1  0  0  0  0
  4  1  1  0  0  0  0
  4 12  2  0  0  0  0
  5 11  1  0  0  0  0
  7 15  1  6  0  0  0
  7 27  1  0  0  0  0
  8 11  2  0  0  0  0
  8  6  1  0  0  0  0
  9 14  1  6  0  0  0
  9  7  1  0  0  0  0
 10 21  1  1  0  0  0
 10  3  1  0  0  0  0
 10 22  1  0  0  0  0
 11 28  1  0  0  0  0
 12  8  1  0  0  0  0
 13  2  2  0  0  0  0
 14 23  1  0  0  0  0
 17 26  1  0  0  0  0
 17 20  2  0  0  0  0
 18 13  1  0  0  0  0
 19  2  1  0  0  0  0
 19  1  1  0  0  0  0
 20  4  1  0  0  0  0
 22  9  1  0  0  0  0
 22 20  1  1  0  0  0
 23 15  1  0  0  0  0
 25 18  2  0  0  0  0
 25 26  1  0  0  0  0
 26 19  2  0  0  0  0
 27 24  1  6  0  0  0
 27 12  1  0  0  0  0
 28 30  1  0  0  0  0
 30 29  1  0  0  0  0
M  END
>  <MODEL>
2

>  <REMARK>
 VINA RESULT:      -6.4      2.523      7.277
  Name = 
  2 active torsions:
  status: ('A' for Active; 'I' for Inactive)
    1  A    between atoms: C_11  and  C_28
    2  A    between atoms: C_28  and  C_30
                            x       y       z     vdW  Elec       q    Type
                         _______ _______ _______ _____ _____    ______ ____

>  <TORSDO>
F 2

$$$$
=
 OpenBabel11122412383D

 30 35  0  0  1  0  0  0  0  0999 V2000
  160.8740  209.7930  152.2100 C   0  0  0  0  0  0  0  0  0  0  0  0
  161.9560  209.6940  149.9130 C   0  0  0  0  0  0  0  0  0  0  0  0
  159.6820  213.7220  151.5490 O   0  0  0  0  0  0  0  0  0  0  0  0
  160.1630  210.5620  153.1860 C   0  0  0  0  0  0  0  0  0  0  0  0
  161.1930  208.4680  152.5250 C   0  0  0  0  0  3  0  0  0  0  0  0
  159.8320  208.0730  155.9260 O   0  0  0  0  0  1  0  0  0  0  0  0
  159.8390  212.0800  155.8800 C   0  0  1  0  0  3  0  0  0  0  0  0
  160.1680  208.6490  154.7030 C   0  0  0  0  0  0  0  0  0  0  0  0
  159.6940  213.2070  154.9290 N   0  0  2  0  0  0  0  0  0  0  0  0
  158.9730  214.1010  152.7230 C   0  0  1  0  0  3  0  0  0  0  0  0
  160.8520  207.8960  153.7460 C   0  0  0  0  0  0  0  0  0  0  0  0
  159.8270  209.9860  154.4380 C   0  0  0  0  0  0  0  0  0  0  0  0
  162.2530  210.3510  148.7150 C   0  0  0  0  0  3  0  0  0  0  0  0
  158.8920  214.2020  155.6360 C   0  0  0  0  0  2  0  0  0  0  0  0
  159.4210  212.5510  157.2610 C   0  0  0  0  0  2  0  0  0  0  0  0
  162.5390  208.0340  149.9970 Cl  0  0  0  0  0  0  0  0  0  0  0  0
  160.1520  212.4320  151.6640 C   0  0  0  0  0  0  0  0  0  0  0  0
  161.8620  211.6670  148.4980 C   0  0  0  0  0  3  0  0  0  0  0  0
  161.2370  210.3760  150.9460 C   0  0  0  0  0  0  0  0  0  0  0  0
  159.8250  211.8850  152.8680 C   0  0  0  0  0  0  0  0  0  0  0  0
  157.5340  214.4150  152.3700 C   0  0  0  0  0  1  0  0  0  0  0  0
  159.0240  212.8710  153.6630 C   0  0  1  0  0  3  0  0  0  0  0  0
  159.1530  214.0240  157.1100 C   0  0  0  0  0  2  0  0  0  0  0  0
  157.6230  210.8570  155.3220 C   0  0  0  0  0  1  0  0  0  0  0  0
  161.1650  212.3530  149.4850 C   0  0  0  0  0  3  0  0  0  0  0  0
  160.8550  211.7270  150.6940 C   0  0  0  0  0  0  0  0  0  0  0  0
  159.1310  210.7590  155.5260 C   0  0  2  0  0  3  0  0  0  0  0  0
  161.2080  206.4690  154.0030 C   0  0  0  0  0  2  0  0  0  0  0  0
  161.2050  204.6400  152.3370 C   0  0  0  0  0  1  0  0  0  0  0  0
  161.9280  205.8860  152.8020 C   0  0  0  0  0  2  0  0  0  0  0  0
  1  5  2  0  0  0  0
  1  4  1  0  0  0  0
  2 16  1  0  0  0  0
  2 19  1  0  0  0  0
  3 17  1  0  0  0  0
  3 10  1  0  0  0  0
  4 12  2  0  0  0  0
  5 11  1  0  0  0  0
  7 15  1  1  0  0  0
  8  6  1  0  0  0  0
  9 14  1  1  0  0  0
  9  7  1  0  0  0  0
 10 21  1  6  0  0  0
 10 22  1  0  0  0  0
 11 28  1  0  0  0  0
 11  8  2  0  0  0  0
 12  8  1  0  0  0  0
 12 27  1  0  0  0  0
 13  2  2  0  0  0  0
 14 23  1  0  0  0  0
 17 20  2  0  0  0  0
 18 13  1  0  0  0  0
 18 25  2  0  0  0  0
 19  1  1  0  0  0  0
 20  4  1  0  0  0  0
 22 20  1  6  0  0  0
 22  9  1  0  0  0  0
 23 15  1  0  0  0  0
 25 26  1  0  0  0  0
 26 19  2  0  0  0  0
 26 17  1  0  0  0  0
 27 24  1  6  0  0  0
 27  7  1  0  0  0  0
 29 30  1  0  0  0  0
 30 28  1  0  0  0  0
M  END
>  <MODEL>
3

>  <REMARK>
 VINA RESULT:      -6.3      2.632      6.259
  Name = 
  2 active torsions:
  status: ('A' for Active; 'I' for Inactive)
    1  A    between atoms: C_11  and  C_28
    2  A    between atoms: C_28  and  C_30
                            x       y       z     vdW  Elec       q    Type
                         _______ _______ _______ _____ _____    ______ ____

>  <TORSDO>
F 2

$$$$
=
 OpenBabel11122412383D

 30 35  0  0  1  0  0  0  0  0999 V2000
  160.7950  210.5060  151.6660 C   0  0  0  0  0  0  0  0  0  0  0  0
  161.9880  208.5480  150.5700 C   0  0  0  0  0  0  0  0  0  0  0  0
  160.2530  208.3040  155.1530 O   0  0  0  0  0  0  0  0  0  0  0  0
  160.1130  211.0250  152.8130 C   0  0  0  0  0  0  0  0  0  0  0  0
  160.9520  211.3480  150.5600 C   0  0  0  0  0  3  0  0  0  0  0  0
  159.2890  214.4530  151.6380 O   0  0  0  0  0  1  0  0  0  0  0  0
  157.6350  212.0510  154.3860 C   0  0  1  0  0  3  0  0  0  0  0  0
  159.7830  213.1520  151.6600 C   0  0  0  0  0  0  0  0  0  0  0  0
  157.9450  210.8260  155.1620 N   0  0  2  0  0  0  0  0  0  0  0  0
  159.5860  209.1830  156.0510 C   0  0  1  0  0  3  0  0  0  0  0  0
  160.4590  212.6490  150.5450 C   0  0  0  0  0  0  0  0  0  0  0  0
  159.5960  212.3460  152.7950 C   0  0  0  0  0  0  0  0  0  0  0  0
  162.4510  207.2340  150.6770 C   0  0  0  0  0  3  0  0  0  0  0  0
  157.4150  211.0770  156.4990 C   0  0  0  0  0  2  0  0  0  0  0  0
  156.6250  212.8750  155.1620 C   0  0  0  0  0  2  0  0  0  0  0  0
  162.3210  209.3130  149.0180 Cl  0  0  0  0  0  0  0  0  0  0  0  0
  160.4660  208.9240  153.9410 C   0  0  0  0  0  0  0  0  0  0  0  0
  162.2620  206.4950  151.8390 C   0  0  0  0  0  3  0  0  0  0  0  0
  161.3040  209.1600  151.6680 C   0  0  0  0  0  0  0  0  0  0  0  0
  159.9690  210.1910  153.9310 C   0  0  0  0  0  0  0  0  0  0  0  0
  160.4630  209.4370  157.2600 C   0  0  0  0  0  1  0  0  0  0  0  0
  159.3760  210.5050  155.2720 C   0  0  1  0  0  3  0  0  0  0  0  0
  156.2570  212.0310  156.3510 C   0  0  0  0  0  2  0  0  0  0  0  0
  159.7120  213.4410  155.0720 C   0  0  0  0  0  1  0  0  0  0  0  0
  161.5990  207.0640  152.9200 C   0  0  0  0  0  3  0  0  0  0  0  0
  161.1220  208.3740  152.8450 C   0  0  0  0  0  0  0  0  0  0  0  0
  158.8200  212.9300  153.9450 C   0  0  2  0  0  3  0  0  0  0  0  0
  160.6830  213.4940  149.3360 C   0  0  0  0  0  2  0  0  0  0  0  0
  162.6780  213.2550  147.8920 C   0  0  0  0  0  1  0  0  0  0  0  0
  161.3230  212.6720  148.2340 C   0  0  0  0  0  2  0  0  0  0  0  0
  1 19  2  0  0  0  0
  1  4  1  0  0  0  0
  2 13  2  0  0  0  0
  2 19  1  0  0  0  0
  3 10  1  0  0  0  0
  4 20  2  0  0  0  0
  5  1  1  0  0  0  0
  6  8  1  0  0  0  0
  7 15  1  1  0  0  0
  7  9  1  0  0  0  0
  8 12  2  0  0  0  0
  9 22  1  0  0  0  0
  9 14  1  1  0  0  0
 10 21  1  1  0  0  0
 11  5  2  0  0  0  0
 11  8  1  0  0  0  0
 12  4  1  0  0  0  0
 12 27  1  0  0  0  0
 13 18  1  0  0  0  0
 15 23  1  0  0  0  0
 16  2  1  0  0  0  0
 17  3  1  0  0  0  0
 18 25  2  0  0  0  0
 19 26  1  0  0  0  0
 20 17  1  0  0  0  0
 22 20  1  6  0  0  0
 22 10  1  0  0  0  0
 23 14  1  0  0  0  0
 26 25  1  0  0  0  0
 26 17  2  0  0  0  0
 27  7  1  0  0  0  0
 27 24  1  1  0  0  0
 28 11  1  0  0  0  0
 29 30  1  0  0  0  0
 30 28  1  0  0  0  0
M  END
>  <MODEL>
4

>  <REMARK>
 VINA RESULT:      -6.1      2.937      4.688
  Name = 
  2 active torsions:
  status: ('A' for Active; 'I' for Inactive)
    1  A    between atoms: C_11  and  C_28
    2  A    between atoms: C_28  and  C_30
                            x       y       z     vdW  Elec       q    Type
                         _______ _______ _______ _____ _____    ______ ____

>  <TORSDO>
F 2

$$$$
=
 OpenBabel11122412383D

 30 35  0  0  1  0  0  0  0  0999 V2000
  161.3690  207.6690  150.9940 C   0  0  0  0  0  0  0  0  0  0  0  0
  161.3730  205.3400  149.9780 C   0  0  0  0  0  0  0  0  0  0  0  0
  160.4920  206.1000  154.7440 O   0  0  0  0  0  0  0  0  0  0  0  0
  161.1880  208.4880  152.1540 C   0  0  0  0  0  0  0  0  0  0  0  0
  161.6980  208.3010  149.7900 C   0  0  0  0  0  3  0  0  0  0  0  0
  161.7870  211.8650  150.7210 O   0  0  0  0  0  1  0  0  0  0  0  0
  159.7180  210.5930  153.9090 C   0  0  1  0  0  3  0  0  0  0  0  0
  161.6490  210.4830  150.8240 C   0  0  0  0  0  0  0  0  0  0  0  0
  159.5760  209.3940  154.7690 N   0  0  2  0  0  0  0  0  0  0  0  0
  160.4410  207.2230  155.6180 C   0  0  1  0  0  3  0  0  0  0  0  0
  161.8380  209.6820  149.6950 C   0  0  0  0  0  0  0  0  0  0  0  0
  161.3150  209.8980  152.0560 C   0  0  0  0  0  0  0  0  0  0  0  0
  161.2160  203.9640  150.1710 C   0  0  0  0  0  3  0  0  0  0  0  0
  159.4410  209.9130  156.1270 C   0  0  0  0  0  2  0  0  0  0  0  0
  159.3210  211.8180  154.7120 C   0  0  0  0  0  2  0  0  0  0  0  0
  161.7500  205.8050  148.3210 Cl  0  0  0  0  0  0  0  0  0  0  0  0
  160.7540  206.5040  153.4540 C   0  0  0  0  0  0  0  0  0  0  0  0
  160.9130  203.4410  151.4230 C   0  0  0  0  0  3  0  0  0  0  0  0
  161.2220  206.2400  151.0810 C   0  0  0  0  0  0  0  0  0  0  0  0
  160.8750  207.8580  153.3670 C   0  0  0  0  0  0  0  0  0  0  0  0
  161.5250  207.0990  156.6690 C   0  0  0  0  0  1  0  0  0  0  0  0
  160.7140  208.4620  154.7300 C   0  0  1  0  0  3  0  0  0  0  0  0
  158.8180  211.2830  156.0250 C   0  0  0  0  0  2  0  0  0  0  0  0
  162.2770  210.9130  154.1630 C   0  0  0  0  0  1  0  0  0  0  0  0
  160.7600  204.2930  152.5090 C   0  0  0  0  0  3  0  0  0  0  0  0
  160.9070  205.6720  152.3510 C   0  0  0  0  0  0  0  0  0  0  0  0
  161.0790  210.8170  153.2250 C   0  0  2  0  0  3  0  0  0  0  0  0
  162.2110  210.2830  148.3800 C   0  0  0  0  0  2  0  0  0  0  0  0
  161.8820  212.5450  147.4320 C   0  0  0  0  0  1  0  0  0  0  0  0
  161.1790  211.3150  147.9670 C   0  0  0  0  0  2  0  0  0  0  0  0
  1 19  2  0  0  0  0
  1  4  1  0  0  0  0
  2 13  2  0  0  0  0
  2 19  1  0  0  0  0
  3 10  1  0  0  0  0
  4 20  2  0  0  0  0
  5  1  1  0  0  0  0
  6  8  1  0  0  0  0
  7 15  1  1  0  0  0
  7  9  1  0  0  0  0
  8 12  2  0  0  0  0
  9 14  1  1  0  0  0
 10 21  1  1  0  0  0
 11  5  2  0  0  0  0
 11  8  1  0  0  0  0
 12  4  1  0  0  0  0
 12 27  1  0  0  0  0
 13 18  1  0  0  0  0
 15 23  1  0  0  0  0
 16  2  1  0  0  0  0
 17  3  1  0  0  0  0
 18 25  2  0  0  0  0
 19 26  1  0  0  0  0
 20 17  1  0  0  0  0
 22 20  1  6  0  0  0
 22  9  1  0  0  0  0
 22 10  1  0  0  0  0
 23 14  1  0  0  0  0
 26 25  1  0  0  0  0
 26 17  2  0  0  0  0
 27  7  1  0  0  0  0
 27 24  1  1  0  0  0
 28 11  1  0  0  0  0
 29 30  1  0  0  0  0
 30 28  1  0  0  0  0
M  END
>  <MODEL>
5

>  <REMARK>
 VINA RESULT:      -6.1      1.666      2.376
  Name = 
  2 active torsions:
  status: ('A' for Active; 'I' for Inactive)
    1  A    between atoms: C_11  and  C_28
    2  A    between atoms: C_28  and  C_30
                            x       y       z     vdW  Elec       q    Type
                         _______ _______ _______ _____ _____    ______ ____

>  <TORSDO>
F 2

$$$$
=
 OpenBabel11122412383D

 30 35  0  0  1  0  0  0  0  0999 V2000
  161.5790  207.9740  150.9180 C   0  0  0  0  0  0  0  0  0  0  0  0
  162.0660  208.6980  148.5310 C   0  0  0  0  0  0  0  0  0  0  0  0
  160.8250  211.9110  152.0240 O   0  0  0  0  0  0  0  0  0  0  0  0
  161.2310  208.3500  152.2540 C   0  0  0  0  0  0  0  0  0  0  0  0
  161.7750  206.6140  150.6500 C   0  0  0  0  0  3  0  0  0  0  0  0
  161.2080  205.0320  153.9280 O   0  0  0  0  0  1  0  0  0  0  0  0
  161.7630  208.7600  155.2900 C   0  0  1  0  0  3  0  0  0  0  0  0
  161.3250  206.0100  152.9430 C   0  0  0  0  0  0  0  0  0  0  0  0
  161.5580  210.1670  154.8720 N   0  0  2  0  0  0  0  0  0  0  0  0
  160.4710  211.8520  153.4010 C   0  0  1  0  0  3  0  0  0  0  0  0
  161.6530  205.6420  151.6360 C   0  0  0  0  0  0  0  0  0  0  0  0
  161.1210  207.3620  153.2660 C   0  0  0  0  0  0  0  0  0  0  0  0
  162.1620  209.7420  147.6070 C   0  0  0  0  0  3  0  0  0  0  0  0
  161.0910  210.8570  156.0700 C   0  0  0  0  0  2  0  0  0  0  0  0
  161.7510  208.6970  156.8060 C   0  0  0  0  0  2  0  0  0  0  0  0
  162.4150  207.1030  147.8670 Cl  0  0  0  0  0  0  0  0  0  0  0  0
  161.1230  210.6530  151.5490 C   0  0  0  0  0  0  0  0  0  0  0  0
  161.9190  211.0590  147.9790 C   0  0  0  0  0  3  0  0  0  0  0  0
  161.7120  208.9730  149.8910 C   0  0  0  0  0  0  0  0  0  0  0  0
  161.0150  209.7100  152.5240 C   0  0  0  0  0  0  0  0  0  0  0  0
  159.0470  212.3370  153.5820 C   0  0  0  0  0  1  0  0  0  0  0  0
  160.5690  210.3590  153.7990 C   0  0  1  0  0  3  0  0  0  0  0  0
  161.6630  210.1280  157.2600 C   0  0  0  0  0  2  0  0  0  0  0  0
  159.3300  207.9310  154.9590 C   0  0  0  0  0  1  0  0  0  0  0  0
  161.5750  211.3540  149.2930 C   0  0  0  0  0  3  0  0  0  0  0  0
  161.4740  210.3350  150.2420 C   0  0  0  0  0  0  0  0  0  0  0  0
  160.8150  207.6990  154.7000 C   0  0  2  0  0  3  0  0  0  0  0  0
  161.8580  204.2090  151.2700 C   0  0  0  0  0  2  0  0  0  0  0  0
  160.8080  203.4050  149.1780 C   0  0  0  0  0  1  0  0  0  0  0  0
  160.5910  203.6400  150.6590 C   0  0  0  0  0  2  0  0  0  0  0  0
  1  4  1  0  0  0  0
  2 19  1  0  0  0  0
  3 10  1  0  0  0  0
  4 20  1  0  0  0  0
  4 12  2  0  0  0  0
  5  1  2  0  0  0  0
  5 11  1  0  0  0  0
  7 15  1  1  0  0  0
  8 12  1  0  0  0  0
  8  6  1  0  0  0  0
  9  7  1  0  0  0  0
  9 14  1  1  0  0  0
 10 21  1  6  0  0  0
 10 22  1  0  0  0  0
 11  8  2  0  0  0  0
 12 27  1  0  0  0  0
 13 18  1  0  0  0  0
 13  2  2  0  0  0  0
 14 23  1  0  0  0  0
 15 23  1  0  0  0  0
 16  2  1  0  0  0  0
 17  3  1  0  0  0  0
 17 20  2  0  0  0  0
 18 25  2  0  0  0  0
 19 26  2  0  0  0  0
 19  1  1  0  0  0  0
 22 20  1  6  0  0  0
 22  9  1  0  0  0  0
 25 26  1  0  0  0  0
 26 17  1  0  0  0  0
 27 24  1  6  0  0  0
 27  7  1  0  0  0  0
 28 11  1  0  0  0  0
 29 30  1  0  0  0  0
 30 28  1  0  0  0  0
M  END
>  <MODEL>
6

>  <REMARK>
 VINA RESULT:      -5.7      1.846      5.031
  Name = 
  2 active torsions:
  status: ('A' for Active; 'I' for Inactive)
    1  A    between atoms: C_11  and  C_28
    2  A    between atoms: C_28  and  C_30
                            x       y       z     vdW  Elec       q    Type
                         _______ _______ _______ _____ _____    ______ ____

>  <TORSDO>
F 2

$$$$
=
 OpenBabel11122412383D

 30 35  0  0  1  0  0  0  0  0999 V2000
  160.6430  209.6970  152.8370 C   0  0  0  0  0  0  0  0  0  0  0  0
  160.1910  212.1740  152.4890 C   0  0  0  0  0  0  0  0  0  0  0  0
  161.6480  209.2520  148.8260 O   0  0  0  0  0  0  0  0  0  0  0  0
  161.0200  208.4390  152.2680 C   0  0  0  0  0  0  0  0  0  0  0  0
  160.3610  209.7380  154.2070 C   0  0  0  0  0  3  0  0  0  0  0  0
  160.8420  206.2400  155.2590 O   0  0  0  0  0  1  0  0  0  0  0  0
  160.5280  205.5160  151.3300 C   0  0  1  0  0  3  0  0  0  0  0  0
  160.7820  207.3740  154.4520 C   0  0  0  0  0  0  0  0  0  0  0  0
  160.8190  206.1590  150.0270 N   0  0  2  0  0  0  0  0  0  0  0  0
  162.0030  207.8820  148.6790 C   0  0  1  0  0  3  0  0  0  0  0  0
  160.4260  208.6040  155.0090 C   0  0  0  0  0  0  0  0  0  0  0  0
  161.0720  207.2770  153.0810 C   0  0  0  0  0  0  0  0  0  0  0  0
  160.1570  213.2580  151.6070 C   0  0  0  0  0  3  0  0  0  0  0  0
  161.3330  205.0890  149.1790 C   0  0  0  0  0  2  0  0  0  0  0  0
  160.5430  204.0100  151.1430 C   0  0  0  0  0  2  0  0  0  0  0  0
  159.7400  212.5680  154.1460 Cl  0  0  0  0  0  0  0  0  0  0  0  0
  161.2690  209.5150  150.1240 C   0  0  0  0  0  0  0  0  0  0  0  0
  160.4840  213.1070  150.2650 C   0  0  0  0  0  3  0  0  0  0  0  0
  160.5680  210.8760  152.0160 C   0  0  0  0  0  0  0  0  0  0  0  0
  161.3220  208.3960  150.8990 C   0  0  0  0  0  0  0  0  0  0  0  0
  163.4550  207.7740  148.2610 C   0  0  0  0  0  1  0  0  0  0  0  0
  161.8140  207.2430  150.0770 C   0  0  1  0  0  3  0  0  0  0  0  0
  160.7220  203.7980  149.6640 C   0  0  0  0  0  2  0  0  0  0  0  0
  162.9030  205.6910  152.3520 C   0  0  0  0  0  1  0  0  0  0  0  0
  160.8520  211.8580  149.7790 C   0  0  0  0  0  3  0  0  0  0  0  0
  160.8930  210.7530  150.6320 C   0  0  0  0  0  0  0  0  0  0  0  0
  161.4050  205.9160  152.5310 C   0  0  2  0  0  3  0  0  0  0  0  0
  160.1300  208.7300  156.4670 C   0  0  0  0  0  2  0  0  0  0  0  0
  162.3540  209.4710  157.2600 C   0  0  0  0  0  1  0  0  0  0  0  0
  160.9110  209.8870  157.0610 C   0  0  0  0  0  2  0  0  0  0  0  0
  1  5  2  0  0  0  0
  2 16  1  0  0  0  0
  3 17  1  0  0  0  0
  4  1  1  0  0  0  0
  4 12  2  0  0  0  0
  5 11  1  0  0  0  0
  7 15  1  6  0  0  0
  7 27  1  0  0  0  0
  8 11  2  0  0  0  0
  8  6  1  0  0  0  0
  9 14  1  6  0  0  0
  9 22  1  0  0  0  0
  9  7  1  0  0  0  0
 10 21  1  1  0  0  0
 10  3  1  0  0  0  0
 10 22  1  0  0  0  0
 11 28  1  0  0  0  0
 12  8  1  0  0  0  0
 13  2  2  0  0  0  0
 14 23  1  0  0  0  0
 17 26  1  0  0  0  0
 17 20  2  0  0  0  0
 18 13  1  0  0  0  0
 19  2  1  0  0  0  0
 19  1  1  0  0  0  0
 20  4  1  0  0  0  0
 22 20  1  1  0  0  0
 23 15  1  0  0  0  0
 25 18  2  0  0  0  0
 25 26  1  0  0  0  0
 26 19  2  0  0  0  0
 27 24  1  6  0  0  0
 27 12  1  0  0  0  0
 28 30  1  0  0  0  0
 30 29  1  0  0  0  0
M  END
>  <MODEL>
7

>  <REMARK>
 VINA RESULT:      -4.7      2.586      7.354
  Name = 
  2 active torsions:
  status: ('A' for Active; 'I' for Inactive)
    1  A    between atoms: C_11  and  C_28
    2  A    between atoms: C_28  and  C_30
                            x       y       z     vdW  Elec       q    Type
                         _______ _______ _______ _____ _____    ______ ____

>  <TORSDO>
F 2

$$$$
=
 OpenBabel11122412383D

 30 35  0  0  1  0  0  0  0  0999 V2000
  161.2870  210.4620  150.7290 C   0  0  0  0  0  0  0  0  0  0  0  0
  161.1160  212.4050  149.0990 C   0  0  0  0  0  0  0  0  0  0  0  0
  159.3290  212.6680  153.6610 O   0  0  0  0  0  0  0  0  0  0  0  0
  161.0300  209.9510  152.0410 C   0  0  0  0  0  0  0  0  0  0  0  0
  161.9210  209.6190  149.8090 C   0  0  0  0  0  3  0  0  0  0  0  0
  162.4650  206.5350  151.7490 O   0  0  0  0  0  1  0  0  0  0  0  0
  161.8250  208.9570  154.8780 C   0  0  1  0  0  3  0  0  0  0  0  0
  162.0700  207.8300  151.4230 C   0  0  0  0  0  0  0  0  0  0  0  0
  161.0630  210.1760  155.2350 N   0  0  2  0  0  0  0  0  0  0  0  0
  159.2320  211.7970  154.7820 C   0  0  1  0  0  3  0  0  0  0  0  0
  162.3090  208.3250  150.1390 C   0  0  0  0  0  0  0  0  0  0  0  0
  161.4390  208.6370  152.3850 C   0  0  0  0  0  0  0  0  0  0  0  0
  160.6860  213.7130  148.8580 C   0  0  0  0  0  3  0  0  0  0  0  0
  160.5620  209.9310  156.5850 C   0  0  0  0  0  2  0  0  0  0  0  0
  162.0640  208.1450  156.1370 C   0  0  0  0  0  2  0  0  0  0  0  0
  161.9160  211.6370  147.7300 Cl  0  0  0  0  0  0  0  0  0  0  0  0
  159.9900  212.0460  152.6240 C   0  0  0  0  0  0  0  0  0  0  0  0
  160.0400  214.4530  149.8410 C   0  0  0  0  0  3  0  0  0  0  0  0
  160.8940  211.8010  150.3780 C   0  0  0  0  0  0  0  0  0  0  0  0
  160.3790  210.7860  152.9600 C   0  0  0  0  0  0  0  0  0  0  0  0
  157.7730  211.5300  155.0940 C   0  0  0  0  0  1  0  0  0  0  0  0
  159.9230  210.4780  154.3550 C   0  0  1  0  0  3  0  0  0  0  0  0
  161.5310  208.9930  157.2590 C   0  0  0  0  0  2  0  0  0  0  0  0
  159.8390  207.5390  154.0060 C   0  0  0  0  0  1  0  0  0  0  0  0
  159.8130  213.8920  151.0920 C   0  0  0  0  0  3  0  0  0  0  0  0
  160.2320  212.5880  151.3670 C   0  0  0  0  0  0  0  0  0  0  0  0
  161.2500  208.0620  153.7630 C   0  0  2  0  0  3  0  0  0  0  0  0
  162.9630  207.4780  149.0990 C   0  0  0  0  0  2  0  0  0  0  0  0
  160.7960  206.3930  148.5990 C   0  0  0  0  0  1  0  0  0  0  0  0
  161.9710  207.1380  148.0020 C   0  0  0  0  0  2  0  0  0  0  0  0
  1  4  1  0  0  0  0
  2 19  1  0  0  0  0
  3 10  1  0  0  0  0
  4 12  1  0  0  0  0
  4 20  2  0  0  0  0
  5 11  2  0  0  0  0
  5  1  1  0  0  0  0
  7  9  1  0  0  0  0
  7 15  1  1  0  0  0
  8  6  1  0  0  0  0
  8 12  2  0  0  0  0
  9 14  1  1  0  0  0
 10 21  1  6  0  0  0
 11  8  1  0  0  0  0
 12 27  1  0  0  0  0
 13  2  2  0  0  0  0
 13 18  1  0  0  0  0
 14 23  1  0  0  0  0
 15 23  1  0  0  0  0
 16  2  1  0  0  0  0
 17 20  1  0  0  0  0
 17  3  1  0  0  0  0
 18 25  2  0  0  0  0
 19  1  2  0  0  0  0
 19 26  1  0  0  0  0
 22 20  1  6  0  0  0
 22 10  1  0  0  0  0
 22  9  1  0  0  0  0
 25 26  1  0  0  0  0
 26 17  2  0  0  0  0
 27 24  1  1  0  0  0
 27  7  1  0  0  0  0
 28 11  1  0  0  0  0
 30 29  1  0  0  0  0
 30 28  1  0  0  0  0
M  END
>  <MODEL>
8

>  <REMARK>
 VINA RESULT:      -4.7      2.803      5.747
  Name = 
  2 active torsions:
  status: ('A' for Active; 'I' for Inactive)
    1  A    between atoms: C_11  and  C_28
    2  A    between atoms: C_28  and  C_30
                            x       y       z     vdW  Elec       q    Type
                         _______ _______ _______ _____ _____    ______ ____

>  <TORSDO>
F 2

$$$$
=
 OpenBabel11122412383D

 30 35  0  0  1  0  0  0  0  0999 V2000
  161.4500  208.2000  151.2170 C   0  0  0  0  0  0  0  0  0  0  0  0
  161.4230  208.3670  153.7530 C   0  0  0  0  0  0  0  0  0  0  0  0
  160.9810  204.0730  151.4220 O   0  0  0  0  0  0  0  0  0  0  0  0
  161.3980  207.3680  150.0540 C   0  0  0  0  0  0  0  0  0  0  0  0
  161.5740  209.5810  151.0300 C   0  0  0  0  0  3  0  0  0  0  0  0
  161.7070  209.9120  147.3630 O   0  0  0  0  0  1  0  0  0  0  0  0
  162.5700  206.0010  147.5180 C   0  0  1  0  0  3  0  0  0  0  0  0
  161.6190  209.3370  148.6280 C   0  0  0  0  0  0  0  0  0  0  0  0
  162.2910  204.8070  148.3500 N   0  0  2  0  0  0  0  0  0  0  0  0
  160.9290  203.6340  150.0690 C   0  0  1  0  0  3  0  0  0  0  0  0
  161.6570  210.1500  149.7630 C   0  0  0  0  0  0  0  0  0  0  0  0
  161.4990  207.9440  148.7610 C   0  0  0  0  0  0  0  0  0  0  0  0
  161.3270  207.7080  154.9810 C   0  0  0  0  0  3  0  0  0  0  0  0
  162.0970  203.7160  147.3990 C   0  0  0  0  0  2  0  0  0  0  0  0
  162.8810  205.5480  146.1040 C   0  0  0  0  0  2  0  0  0  0  0  0
  161.6090  210.1150  153.8770 Cl  0  0  0  0  0  0  0  0  0  0  0  0
  161.1610  205.4370  151.4800 C   0  0  0  0  0  0  0  0  0  0  0  0
  161.1800  206.3270  155.0500 C   0  0  0  0  0  3  0  0  0  0  0  0
  161.3690  207.6210  152.5320 C   0  0  0  0  0  0  0  0  0  0  0  0
  161.2560  205.9840  150.2360 C   0  0  0  0  0  0  0  0  0  0  0  0
  159.5810  203.0020  149.7900 C   0  0  0  0  0  1  0  0  0  0  0  0
  161.0980  204.9080  149.2050 C   0  0  1  0  0  3  0  0  0  0  0  0
  162.9040  204.0450  146.1680 C   0  0  0  0  0  2  0  0  0  0  0  0
  160.1160  206.6920  147.0540 C   0  0  0  0  0  1  0  0  0  0  0  0
  161.1270  205.5790  153.8800 C   0  0  0  0  0  3  0  0  0  0  0  0
  161.2220  206.2060  152.6360 C   0  0  0  0  0  0  0  0  0  0  0  0
  161.5090  207.1180  147.5030 C   0  0  2  0  0  3  0  0  0  0  0  0
  161.7680  211.6340  149.6420 C   0  0  0  0  0  2  0  0  0  0  0  0
  160.1760  213.5150  149.8690 C   0  0  0  0  0  1  0  0  0  0  0  0
  160.7720  212.3090  150.5650 C   0  0  0  0  0  2  0  0  0  0  0  0
  1 19  1  0  0  0  0
  2 16  1  0  0  0  0
  2 13  1  0  0  0  0
  3 17  1  0  0  0  0
  4 20  1  0  0  0  0
  4  1  2  0  0  0  0
  5  1  1  0  0  0  0
  6  8  1  0  0  0  0
  7 15  1  6  0  0  0
  7  9  1  0  0  0  0
  8 12  2  0  0  0  0
  8 11  1  0  0  0  0
  9 14  1  6  0  0  0
  9 22  1  0  0  0  0
 10 21  1  6  0  0  0
 10  3  1  0  0  0  0
 11  5  2  0  0  0  0
 12  4  1  0  0  0  0
 13 18  2  0  0  0  0
 15 23  1  0  0  0  0
 17 26  1  0  0  0  0
 19 26  1  0  0  0  0
 19  2  2  0  0  0  0
 20 17  2  0  0  0  0
 22 10  1  0  0  0  0
 22 20  1  1  0  0  0
 23 14  1  0  0  0  0
 25 18  1  0  0  0  0
 26 25  2  0  0  0  0
 27 24  1  1  0  0  0
 27  7  1  0  0  0  0
 27 12  1  0  0  0  0
 28 11  1  0  0  0  0
 28 30  1  0  0  0  0
 29 30  1  0  0  0  0
M  END
>  <MODEL>
9

>  <REMARK>
 VINA RESULT:      -4.4      2.552      5.794
  Name = 
  2 active torsions:
  status: ('A' for Active; 'I' for Inactive)
    1  A    between atoms: C_11  and  C_28
    2  A    between atoms: C_28  and  C_30
                            x       y       z     vdW  Elec       q    Type
                         _______ _______ _______ _____ _____    ______ ____

>  <TORSDO>
F 2

$$$$
