=
 OpenBabel11122413203D

 31 35  0  0  0  0  0  0  0  0999 V2000
  161.1500  201.5950  150.2060 C   0  0  0  0  0  0  0  0  0  0  0  0
  161.1510  205.2730  149.3960 C   0  0  0  0  0  0  0  0  0  0  0  0
  161.2330  205.3950  147.9780 C   0  0  0  0  0  0  0  0  0  0  0  0
  160.8370  206.7460  154.4370 O   0  0  0  0  0  0  0  0  0  0  0  0
  160.8660  207.7820  153.7190 C   0  0  0  0  0  0  0  0  0  0  0  0
  161.3770  204.4540  145.7290 C   0  0  0  0  0  0  0  0  0  0  0  0
  161.1250  204.0360  150.1080 C   0  0  0  0  0  0  0  0  0  0  0  0
  161.0680  201.6370  151.5960 C   0  0  0  0  0  3  0  0  0  0  0  0
  161.2970  204.2880  147.1130 C   0  0  0  0  0  3  0  0  0  0  0  0
  161.0100  206.4350  151.5480 C   0  0  0  0  0  0  0  0  0  0  0  0
  161.2040  200.3740  149.5490 O   0  0  0  0  0  1  0  0  0  0  0  0
  161.1900  207.7820  148.1950 N   0  0  0  0  0  0  0  0  0  0  0  0
  161.4400  203.3430  144.9000 O   0  0  0  0  0  1  0  0  0  0  0  0
  160.9870  205.2380  152.1880 N   0  0  0  0  0  0  0  0  0  0  0  0
  161.0920  206.4750  150.1500 C   0  0  0  0  0  0  0  0  0  0  0  0
  160.9510  207.6600  152.2920 N   0  0  0  0  0  2  0  0  0  0  0  0
  161.1780  202.7830  149.4720 C   0  0  0  0  0  3  0  0  0  0  0  0
  161.3930  205.7360  145.1800 C   0  0  0  0  0  3  0  0  0  0  0  0
  161.0420  204.0590  151.5230 C   0  0  0  0  0  0  0  0  0  0  0  0
  161.0140  202.8670  152.2530 C   0  0  0  0  0  3  0  0  0  0  0  0
  161.1130  207.6790  149.5190 N   0  0  0  0  0  0  0  0  0  0  0  0
  161.2500  206.6880  147.4020 C   0  0  0  0  0  0  0  0  0  0  0  0
  161.3290  206.8500  146.0160 C   0  0  0  0  0  3  0  0  0  0  0  0
  160.6460  211.7530  155.3550 C   0  0  0  0  0  0  0  0  0  0  0  0
  160.2740  210.1790  153.5620 C   0  0  0  0  0  3  0  0  0  0  0  0
  161.9720  208.2240  156.7200 Cl  0  0  0  0  0  0  0  0  0  0  0  0
  160.5660  213.0130  155.8460 F   0  0  0  0  0  0  0  0  0  0  0  0
  160.1900  211.4780  154.0670 C   0  0  0  0  0  3  0  0  0  0  0  0
  161.2750  209.4260  155.6420 C   0  0  0  0  0  0  0  0  0  0  0  0
  160.8130  209.1340  154.3310 C   0  0  0  0  0  0  0  0  0  0  0  0
  161.1850  210.7310  156.1360 C   0  0  0  0  0  3  0  0  0  0  0  0
  1  8  1  0  0  0  0
  2  7  1  0  0  0  0
  2 15  1  0  0  0  0
  3  2  2  0  0  0  0
  5 30  1  0  0  0  0
  5  4  2  0  0  0  0
  6  9  2  0  0  0  0
  7 19  2  0  0  0  0
  8 20  2  0  0  0  0
  9  3  1  0  0  0  0
 10 14  2  0  0  0  0
 10 16  1  0  0  0  0
 11  1  1  0  0  0  0
 12 21  1  0  0  0  0
 13  6  1  0  0  0  0
 15 10  1  0  0  0  0
 16  5  1  0  0  0  0
 17  7  1  0  0  0  0
 17  1  2  0  0  0  0
 18  6  1  0  0  0  0
 18 23  2  0  0  0  0
 19 14  1  0  0  0  0
 19 20  1  0  0  0  0
 21 15  2  0  0  0  0
 22  3  1  0  0  0  0
 22 12  2  0  0  0  0
 23 22  1  0  0  0  0
 24 27  1  0  0  0  0
 24 31  1  0  0  0  0
 25 28  1  0  0  0  0
 25 30  2  0  0  0  0
 28 24  2  0  0  0  0
 29 31  2  0  0  0  0
 29 26  1  0  0  0  0
 30 29  1  0  0  0  0
M  END
>  <MODEL>
1

>  <REMARK>
 VINA RESULT:     -10.1      0.000      0.000
  Name = 
  1 active torsions:
  status: ('A' for Active; 'I' for Inactive)
    1  A    between atoms: C_5  and  C_30
                            x       y       z     vdW  Elec       q    Type
                         _______ _______ _______ _____ _____    ______ ____

>  <TORSDO>
F 1

$$$$
=
 OpenBabel11122413203D

 31 35  0  0  0  0  0  0  0  0999 V2000
  161.1780  207.7160  154.1810 C   0  0  0  0  0  0  0  0  0  0  0  0
  161.3510  207.2130  150.4540 C   0  0  0  0  0  0  0  0  0  0  0  0
  161.2560  205.8110  150.2110 C   0  0  0  0  0  0  0  0  0  0  0  0
  161.8090  212.3520  149.4220 O   0  0  0  0  0  0  0  0  0  0  0  0
  161.8220  211.7220  148.3300 C   0  0  0  0  0  0  0  0  0  0  0  0
  161.0340  203.4950  150.9530 C   0  0  0  0  0  0  0  0  0  0  0  0
  161.3250  207.8200  151.7450 C   0  0  0  0  0  0  0  0  0  0  0  0
  161.2810  209.1040  154.2590 C   0  0  0  0  0  3  0  0  0  0  0  0
  161.1240  204.8600  151.2370 C   0  0  0  0  0  3  0  0  0  0  0  0
  161.5800  209.4500  149.4830 C   0  0  0  0  0  0  0  0  0  0  0  0
  161.0540  206.9630  155.3400 O   0  0  0  0  0  1  0  0  0  0  0  0
  161.4230  206.2240  147.8540 N   0  0  0  0  0  0  0  0  0  0  0  0
  160.9050  202.5790  151.9870 O   0  0  0  0  0  1  0  0  0  0  0  0
  161.5510  209.9890  150.7290 N   0  0  0  0  0  0  0  0  0  0  0  0
  161.4810  208.0620  149.3220 C   0  0  0  0  0  0  0  0  0  0  0  0
  161.7110  210.2910  148.3280 N   0  0  0  0  0  2  0  0  0  0  0  0
  161.2000  207.0830  152.9370 C   0  0  0  0  0  3  0  0  0  0  0  0
  161.0750  203.0550  149.6300 C   0  0  0  0  0  3  0  0  0  0  0  0
  161.4290  209.2300  151.8440 C   0  0  0  0  0  0  0  0  0  0  0  0
  161.4060  209.8590  153.0920 C   0  0  0  0  0  3  0  0  0  0  0  0
  161.5120  207.5330  148.0710 N   0  0  0  0  0  0  0  0  0  0  0  0
  161.2950  205.3440  148.8740 C   0  0  0  0  0  0  0  0  0  0  0  0
  161.2060  203.9780  148.5940 C   0  0  0  0  0  3  0  0  0  0  0  0
  162.3570  213.8000  144.6030 C   0  0  0  0  0  0  0  0  0  0  0  0
  163.2470  212.7210  146.5700 C   0  0  0  0  0  3  0  0  0  0  0  0
  159.1680  212.5840  146.7080 Cl  0  0  0  0  0  0  0  0  0  0  0  0
  162.5520  214.4530  143.4330 F   0  0  0  0  0  0  0  0  0  0  0  0
  163.4500  213.3940  145.3640 C   0  0  0  0  0  3  0  0  0  0  0  0
  160.8440  212.8610  146.2540 C   0  0  0  0  0  0  0  0  0  0  0  0
  161.9520  212.4420  147.0380 C   0  0  0  0  0  0  0  0  0  0  0  0
  161.0620  213.5340  145.0470 C   0  0  0  0  0  3  0  0  0  0  0  0
  1  8  1  0  0  0  0
  1 11  1  0  0  0  0
  2  7  1  0  0  0  0
  3  2  1  0  0  0  0
  3  9  1  0  0  0  0
  5  4  2  0  0  0  0
  6  9  2  0  0  0  0
  6 13  1  0  0  0  0
  7 19  2  0  0  0  0
  7 17  1  0  0  0  0
 10 14  2  0  0  0  0
 12 21  2  0  0  0  0
 12 22  1  0  0  0  0
 14 19  1  0  0  0  0
 15 10  1  0  0  0  0
 15  2  2  0  0  0  0
 16  5  1  0  0  0  0
 16 10  1  0  0  0  0
 17  1  2  0  0  0  0
 18  6  1  0  0  0  0
 19 20  1  0  0  0  0
 20  8  2  0  0  0  0
 21 15  1  0  0  0  0
 22  3  2  0  0  0  0
 23 22  1  0  0  0  0
 23 18  2  0  0  0  0
 24 31  2  0  0  0  0
 24 28  1  0  0  0  0
 25 30  1  0  0  0  0
 27 24  1  0  0  0  0
 28 25  2  0  0  0  0
 29 26  1  0  0  0  0
 29 30  2  0  0  0  0
 30  5  1  0  0  0  0
 31 29  1  0  0  0  0
M  END
>  <MODEL>
2

>  <REMARK>
 VINA RESULT:      -9.7      4.685      6.965
  Name = 
  1 active torsions:
  status: ('A' for Active; 'I' for Inactive)
    1  A    between atoms: C_5  and  C_30
                            x       y       z     vdW  Elec       q    Type
                         _______ _______ _______ _____ _____    ______ ____

>  <TORSDO>
F 1

$$$$
=
 OpenBabel11122413203D

 31 35  0  0  0  0  0  0  0  0999 V2000
  161.2140  201.3210  149.2630 C   0  0  0  0  0  0  0  0  0  0  0  0
  161.0610  205.0640  148.8810 C   0  0  0  0  0  0  0  0  0  0  0  0
  161.0290  205.3470  147.4840 C   0  0  0  0  0  0  0  0  0  0  0  0
  161.1070  205.9520  154.0670 O   0  0  0  0  0  0  0  0  0  0  0  0
  161.0540  207.0620  153.4720 C   0  0  0  0  0  0  0  0  0  0  0  0
  161.0190  204.6690  145.1380 C   0  0  0  0  0  0  0  0  0  0  0  0
  161.1210  203.7550  149.4470 C   0  0  0  0  0  0  0  0  0  0  0  0
  161.2400  201.2040  150.6520 C   0  0  0  0  0  3  0  0  0  0  0  0
  161.0520  204.3460  146.4960 C   0  0  0  0  0  3  0  0  0  0  0  0
  161.0610  205.9720  151.1560 C   0  0  0  0  0  0  0  0  0  0  0  0
  161.2460  200.1830  148.4690 O   0  0  0  0  0  1  0  0  0  0  0  0
  160.9440  207.6920  147.9750 N   0  0  0  0  0  0  0  0  0  0  0  0
  161.0440  203.6610  144.1850 O   0  0  0  0  0  1  0  0  0  0  0  0
  161.1180  204.7110  151.6550 N   0  0  0  0  0  0  0  0  0  0  0  0
  161.0320  206.1720  149.7700 C   0  0  0  0  0  0  0  0  0  0  0  0
  161.0300  207.1040  152.0370 N   0  0  0  0  0  2  0  0  0  0  0  0
  161.1550  202.5840  148.6690 C   0  0  0  0  0  3  0  0  0  0  0  0
  160.9600  206.0050  144.7400 C   0  0  0  0  0  3  0  0  0  0  0  0
  161.1490  203.6170  150.8570 C   0  0  0  0  0  0  0  0  0  0  0  0
  161.2070  202.3500  151.4470 C   0  0  0  0  0  3  0  0  0  0  0  0
  160.9740  207.4380  149.2810 N   0  0  0  0  0  0  0  0  0  0  0  0
  160.9690  206.6960  147.0600 C   0  0  0  0  0  0  0  0  0  0  0  0
  160.9350  207.0150  145.6990 C   0  0  0  0  0  3  0  0  0  0  0  0
  161.0290  210.8170  155.5680 C   0  0  0  0  0  0  0  0  0  0  0  0
  161.6560  209.4530  153.6770 C   0  0  0  0  0  3  0  0  0  0  0  0
  159.5310  207.1740  156.3160 Cl  0  0  0  0  0  0  0  0  0  0  0  0
  161.0350  212.0110  156.2080 F   0  0  0  0  0  0  0  0  0  0  0  0
  161.6640  210.6850  154.3340 C   0  0  0  0  0  3  0  0  0  0  0  0
  160.3720  208.4810  155.4930 C   0  0  0  0  0  0  0  0  0  0  0  0
  161.0160  208.3350  154.2360 C   0  0  0  0  0  0  0  0  0  0  0  0
  160.3870  209.7200  156.1420 C   0  0  0  0  0  3  0  0  0  0  0  0
  1  8  1  0  0  0  0
  2  7  1  0  0  0  0
  2 15  1  0  0  0  0
  3  2  2  0  0  0  0
  5  4  2  0  0  0  0
  5 30  1  0  0  0  0
  6  9  2  0  0  0  0
  7 19  2  0  0  0  0
  8 20  2  0  0  0  0
  9  3  1  0  0  0  0
 10 14  2  0  0  0  0
 10 16  1  0  0  0  0
 11  1  1  0  0  0  0
 12 21  1  0  0  0  0
 13  6  1  0  0  0  0
 15 10  1  0  0  0  0
 16  5  1  0  0  0  0
 17  1  2  0  0  0  0
 17  7  1  0  0  0  0
 18  6  1  0  0  0  0
 18 23  2  0  0  0  0
 19 20  1  0  0  0  0
 19 14  1  0  0  0  0
 21 15  2  0  0  0  0
 22  3  1  0  0  0  0
 22 12  2  0  0  0  0
 23 22  1  0  0  0  0
 24 31  1  0  0  0  0
 24 27  1  0  0  0  0
 25 30  2  0  0  0  0
 25 28  1  0  0  0  0
 28 24  2  0  0  0  0
 29 31  2  0  0  0  0
 29 26  1  0  0  0  0
 30 29  1  0  0  0  0
M  END
>  <MODEL>
3

>  <REMARK>
 VINA RESULT:      -9.5      0.960      1.011
  Name = 
  1 active torsions:
  status: ('A' for Active; 'I' for Inactive)
    1  A    between atoms: C_5  and  C_30
                            x       y       z     vdW  Elec       q    Type
                         _______ _______ _______ _____ _____    ______ ____

>  <TORSDO>
F 1

$$$$
=
 OpenBabel11122413203D

 31 35  0  0  0  0  0  0  0  0999 V2000
  161.2060  205.4570  145.6870 C   0  0  0  0  0  0  0  0  0  0  0  0
  161.2060  204.4350  149.3110 C   0  0  0  0  0  0  0  0  0  0  0  0
  161.2060  203.0090  149.3490 C   0  0  0  0  0  0  0  0  0  0  0  0
  161.2050  209.3900  151.0780 O   0  0  0  0  0  0  0  0  0  0  0  0
  161.2050  208.6130  152.0700 C   0  0  0  0  0  0  0  0  0  0  0  0
  161.2060  200.8150  148.2780 C   0  0  0  0  0  0  0  0  0  0  0  0
  161.2060  205.2180  148.1180 C   0  0  0  0  0  0  0  0  0  0  0  0
  161.2070  206.8450  145.8110 C   0  0  0  0  0  3  0  0  0  0  0  0
  161.2070  202.2090  148.1940 C   0  0  0  0  0  3  0  0  0  0  0  0
  161.2050  206.5190  150.5980 C   0  0  0  0  0  0  0  0  0  0  0  0
  161.2070  204.8710  144.4290 O   0  0  0  0  0  1  0  0  0  0  0  0
  161.2050  203.0880  151.7460 N   0  0  0  0  0  0  0  0  0  0  0  0
  161.2060  200.0500  147.1200 O   0  0  0  0  0  1  0  0  0  0  0  0
  161.2060  207.2290  149.4400 N   0  0  0  0  0  0  0  0  0  0  0  0
  161.2060  205.1190  150.5560 C   0  0  0  0  0  0  0  0  0  0  0  0
  161.2050  207.1920  151.8650 N   0  0  0  0  0  2  0  0  0  0  0  0
  161.2060  204.6540  146.8300 C   0  0  0  0  0  3  0  0  0  0  0  0
  161.2060  200.1920  149.5260 C   0  0  0  0  0  3  0  0  0  0  0  0
  161.2060  206.6310  148.2240 C   0  0  0  0  0  0  0  0  0  0  0  0
  161.2060  207.4310  147.0770 C   0  0  0  0  0  3  0  0  0  0  0  0
  161.2060  204.4190  151.7210 N   0  0  0  0  0  0  0  0  0  0  0  0
  161.2060  202.3590  150.6070 C   0  0  0  0  0  0  0  0  0  0  0  0
  161.2060  200.9630  150.6880 C   0  0  0  0  0  3  0  0  0  0  0  0
  161.2460  210.3000  156.0260 C   0  0  0  0  0  0  0  0  0  0  0  0
  161.5250  210.5010  153.6360 C   0  0  0  0  0  3  0  0  0  0  0  0
  160.4810  206.6570  154.5350 Cl  0  0  0  0  0  0  0  0  0  0  0  0
  161.2660  210.8550  157.2610 F   0  0  0  0  0  0  0  0  0  0  0  0
  161.5460  211.0760  154.9080 C   0  0  0  0  0  3  0  0  0  0  0  0
  160.9000  208.3630  154.6020 C   0  0  0  0  0  0  0  0  0  0  0  0
  161.2050  209.1460  153.4560 C   0  0  0  0  0  0  0  0  0  0  0  0
  160.9250  208.9520  155.8710 C   0  0  0  0  0  3  0  0  0  0  0  0
  1  8  2  0  0  0  0
  1 17  1  0  0  0  0
  2  3  2  0  0  0  0
  2 15  1  0  0  0  0
  3 22  1  0  0  0  0
  4  5  2  0  0  0  0
  5 30  1  0  0  0  0
  6 18  1  0  0  0  0
  7 19  1  0  0  0  0
  7  2  1  0  0  0  0
  8 20  1  0  0  0  0
  9  6  2  0  0  0  0
  9  3  1  0  0  0  0
 10 16  1  0  0  0  0
 11  1  1  0  0  0  0
 13  6  1  0  0  0  0
 14 10  2  0  0  0  0
 15 10  1  0  0  0  0
 15 21  2  0  0  0  0
 16  5  1  0  0  0  0
 17  7  2  0  0  0  0
 18 23  2  0  0  0  0
 19 14  1  0  0  0  0
 20 19  2  0  0  0  0
 21 12  1  0  0  0  0
 22 23  1  0  0  0  0
 22 12  2  0  0  0  0
 24 27  1  0  0  0  0
 25 28  1  0  0  0  0
 26 29  1  0  0  0  0
 28 24  2  0  0  0  0
 29 31  2  0  0  0  0
 30 25  2  0  0  0  0
 30 29  1  0  0  0  0
 31 24  1  0  0  0  0
M  END
>  <MODEL>
4

>  <REMARK>
 VINA RESULT:      -9.1      1.540      4.117
  Name = 
  1 active torsions:
  status: ('A' for Active; 'I' for Inactive)
    1  A    between atoms: C_5  and  C_30
                            x       y       z     vdW  Elec       q    Type
                         _______ _______ _______ _____ _____    ______ ____

>  <TORSDO>
F 1

$$$$
=
 OpenBabel11122413203D

 31 35  0  0  0  0  0  0  0  0999 V2000
  161.8280  210.9920  150.0640 C   0  0  0  0  0  0  0  0  0  0  0  0
  161.3070  207.5320  151.4550 C   0  0  0  0  0  0  0  0  0  0  0  0
  161.1570  207.6610  152.8670 C   0  0  0  0  0  0  0  0  0  0  0  0
  161.6140  205.2060  146.7460 O   0  0  0  0  0  0  0  0  0  0  0  0
  161.4210  204.3180  147.6180 C   0  0  0  0  0  0  0  0  0  0  0  0
  161.0540  208.9760  154.9220 C   0  0  0  0  0  0  0  0  0  0  0  0
  161.5240  208.6180  150.5560 C   0  0  0  0  0  0  0  0  0  0  0  0
  161.9560  210.7080  148.7060 C   0  0  0  0  0  3  0  0  0  0  0  0
  161.2060  208.8960  153.5360 C   0  0  0  0  0  3  0  0  0  0  0  0
  161.3740  206.0170  149.5310 C   0  0  0  0  0  0  0  0  0  0  0  0
  161.9120  212.3040  150.5110 O   0  0  0  0  0  1  0  0  0  0  0  0
  160.8900  205.2840  153.0410 N   0  0  0  0  0  0  0  0  0  0  0  0
  161.1080  210.2090  155.5560 O   0  0  0  0  0  1  0  0  0  0  0  0
  161.5790  207.0770  148.7080 N   0  0  0  0  0  0  0  0  0  0  0  0
  161.2350  206.2220  150.9100 C   0  0  0  0  0  0  0  0  0  0  0  0
  161.2980  204.6870  149.0000 N   0  0  0  0  0  2  0  0  0  0  0  0
  161.6140  209.9570  150.9770 C   0  0  0  0  0  3  0  0  0  0  0  0
  160.8470  207.8160  155.6680 C   0  0  0  0  0  3  0  0  0  0  0  0
  161.6580  208.3490  149.1710 C   0  0  0  0  0  0  0  0  0  0  0  0
  161.8710  209.3880  148.2610 C   0  0  0  0  0  3  0  0  0  0  0  0
  161.0290  205.1540  151.7240 N   0  0  0  0  0  0  0  0  0  0  0  0
  160.9450  206.4950  153.6420 C   0  0  0  0  0  0  0  0  0  0  0  0
  160.7920  206.5780  155.0290 C   0  0  0  0  0  3  0  0  0  0  0  0
  161.1690  200.1320  146.6620 C   0  0  0  0  0  0  0  0  0  0  0  0
  161.6520  201.9250  148.2050 C   0  0  0  0  0  3  0  0  0  0  0  0
  160.4480  203.5220  144.6440 Cl  0  0  0  0  0  0  0  0  0  0  0  0
  161.0980  198.8080  146.3860 F   0  0  0  0  0  0  0  0  0  0  0  0
  161.5800  200.5600  147.9230 C   0  0  0  0  0  3  0  0  0  0  0  0
  160.9000  202.4400  145.9550 C   0  0  0  0  0  0  0  0  0  0  0  0
  161.3170  202.8860  147.2370 C   0  0  0  0  0  0  0  0  0  0  0  0
  160.8310  201.0680  145.6850 C   0  0  0  0  0  3  0  0  0  0  0  0
  1 11  1  0  0  0  0
  1 17  1  0  0  0  0
  2  3  1  0  0  0  0
  3  9  2  0  0  0  0
  3 22  1  0  0  0  0
  4  5  2  0  0  0  0
  5 16  1  0  0  0  0
  6 13  1  0  0  0  0
  6 18  2  0  0  0  0
  7 17  2  0  0  0  0
  7  2  1  0  0  0  0
  8  1  2  0  0  0  0
  9  6  1  0  0  0  0
 10 15  1  0  0  0  0
 12 22  1  0  0  0  0
 14 19  1  0  0  0  0
 14 10  2  0  0  0  0
 15  2  2  0  0  0  0
 15 21  1  0  0  0  0
 16 10  1  0  0  0  0
 19  7  1  0  0  0  0
 20  8  1  0  0  0  0
 20 19  2  0  0  0  0
 21 12  2  0  0  0  0
 22 23  2  0  0  0  0
 23 18  1  0  0  0  0
 24 28  1  0  0  0  0
 26 29  1  0  0  0  0
 27 24  1  0  0  0  0
 28 25  2  0  0  0  0
 29 30  2  0  0  0  0
 30  5  1  0  0  0  0
 30 25  1  0  0  0  0
 31 29  1  0  0  0  0
 31 24  2  0  0  0  0
M  END
>  <MODEL>
5

>  <REMARK>
 VINA RESULT:      -8.7      4.597      9.235
  Name = 
  1 active torsions:
  status: ('A' for Active; 'I' for Inactive)
    1  A    between atoms: C_5  and  C_30
                            x       y       z     vdW  Elec       q    Type
                         _______ _______ _______ _____ _____    ______ ____

>  <TORSDO>
F 1

$$$$
=
 OpenBabel11122413203D

 31 35  0  0  0  0  0  0  0  0999 V2000
  161.8340  211.1400  149.9810 C   0  0  0  0  0  0  0  0  0  0  0  0
  161.3220  207.7440  151.5260 C   0  0  0  0  0  0  0  0  0  0  0  0
  161.1790  207.9350  152.9320 C   0  0  0  0  0  0  0  0  0  0  0  0
  161.6040  205.2130  146.9220 O   0  0  0  0  0  0  0  0  0  0  0  0
  161.4160  204.3640  147.8340 C   0  0  0  0  0  0  0  0  0  0  0  0
  161.0870  209.3400  154.9280 C   0  0  0  0  0  0  0  0  0  0  0  0
  161.5340  208.7900  150.5790 C   0  0  0  0  0  0  0  0  0  0  0  0
  161.9550  210.7960  148.6360 C   0  0  0  0  0  3  0  0  0  0  0  0
  161.2320  209.1990  153.5450 C   0  0  0  0  0  3  0  0  0  0  0  0
  161.3800  206.1460  149.6700 C   0  0  0  0  0  0  0  0  0  0  0  0
  161.9200  212.4700  150.3690 O   0  0  0  0  0  1  0  0  0  0  0  0
  160.9150  205.5690  153.2120 N   0  0  0  0  0  0  0  0  0  0  0  0
  161.1440  210.6000  155.5060 O   0  0  0  0  0  1  0  0  0  0  0  0
  161.5800  207.1690  148.8010 N   0  0  0  0  0  0  0  0  0  0  0  0
  161.2480  206.4120  151.0400 C   0  0  0  0  0  0  0  0  0  0  0  0
  161.3010  204.7930  149.1990 N   0  0  0  0  0  2  0  0  0  0  0  0
  161.6250  210.1460  150.9400 C   0  0  0  0  0  3  0  0  0  0  0  0
  160.8850  208.2140  155.7250 C   0  0  0  0  0  3  0  0  0  0  0  0
  161.6600  208.4590  149.2060 C   0  0  0  0  0  0  0  0  0  0  0  0
  161.8680  209.4580  148.2500 C   0  0  0  0  0  3  0  0  0  0  0  0
  161.0470  205.3800  151.9010 N   0  0  0  0  0  0  0  0  0  0  0  0
  160.9720  206.8050  153.7580 C   0  0  0  0  0  0  0  0  0  0  0  0
  160.8270  206.9490  155.1410 C   0  0  0  0  0  3  0  0  0  0  0  0
  161.1030  200.2110  146.7610 C   0  0  0  0  0  0  0  0  0  0  0  0
  161.2060  202.5490  146.1660 C   0  0  0  0  0  3  0  0  0  0  0  0
  161.4340  202.1980  150.2280 Cl  0  0  0  0  0  0  0  0  0  0  0  0
  161.0030  198.9110  146.3970 F   0  0  0  0  0  0  0  0  0  0  0  0
  161.1030  201.2090  145.7880 C   0  0  0  0  0  3  0  0  0  0  0  0
  161.3090  201.8920  148.5010 C   0  0  0  0  0  0  0  0  0  0  0  0
  161.3110  202.9170  147.5170 C   0  0  0  0  0  0  0  0  0  0  0  0
  161.2060  200.5530  148.1090 C   0  0  0  0  0  3  0  0  0  0  0  0
  1 11  1  0  0  0  0
  1 17  1  0  0  0  0
  2  3  1  0  0  0  0
  3  9  2  0  0  0  0
  3 22  1  0  0  0  0
  4  5  2  0  0  0  0
  5 16  1  0  0  0  0
  6 13  1  0  0  0  0
  6 18  2  0  0  0  0
  7 17  2  0  0  0  0
  7  2  1  0  0  0  0
  8  1  2  0  0  0  0
  9  6  1  0  0  0  0
 10 15  1  0  0  0  0
 12 22  1  0  0  0  0
 14 19  1  0  0  0  0
 14 10  2  0  0  0  0
 15  2  2  0  0  0  0
 15 21  1  0  0  0  0
 16 10  1  0  0  0  0
 19  7  1  0  0  0  0
 20  8  1  0  0  0  0
 20 19  2  0  0  0  0
 21 12  2  0  0  0  0
 22 23  2  0  0  0  0
 23 18  1  0  0  0  0
 24 31  1  0  0  0  0
 25 30  2  0  0  0  0
 27 24  1  0  0  0  0
 28 25  1  0  0  0  0
 28 24  2  0  0  0  0
 29 26  1  0  0  0  0
 30  5  1  0  0  0  0
 30 29  1  0  0  0  0
 31 29  2  0  0  0  0
M  END
>  <MODEL>
6

>  <REMARK>
 VINA RESULT:      -8.4      4.263      9.033
  Name = 
  1 active torsions:
  status: ('A' for Active; 'I' for Inactive)
    1  A    between atoms: C_5  and  C_30
                            x       y       z     vdW  Elec       q    Type
                         _______ _______ _______ _____ _____    ______ ____

>  <TORSDO>
F 1

$$$$
