=
 OpenBabel11122414023D

 37 42  0  0  1  0  0  0  0  0999 V2000
  160.7800  206.3650  150.0420 C   0  0  1  0  0  3  0  0  0  0  0  0
  160.4010  208.9540  152.0920 O   0  0  0  0  0  0  0  0  0  0  0  0
  160.9150  205.5500  147.5440 C   0  0  2  0  0  3  0  0  0  0  0  0
  161.5600  207.5570  150.5580 C   0  0  2  0  0  3  0  0  0  0  0  0
  160.6360  206.6850  148.5550 C   0  0  2  0  0  3  0  0  0  0  0  0
  161.3360  207.9110  152.0240 C   0  0  2  0  0  3  0  0  0  0  0  0
  161.8490  204.4620  148.0650 C   0  0  0  0  0  2  0  0  0  0  0  0
  161.3810  207.9960  148.3650 C   0  0  0  0  0  2  0  0  0  0  0  0
  161.2780  204.7310  151.8400 C   0  0  0  0  0  2  0  0  0  0  0  0
  161.3790  203.9920  149.4310 C   0  0  0  0  0  2  0  0  0  0  0  0
  162.5340  210.3600  152.1830 C   0  0  0  0  0  2  0  0  0  0  0  0
  161.0140  210.2440  152.1220 C   0  0  1  0  0  3  0  0  0  0  0  0
  161.6030  205.1310  150.4030 C   0  0  1  0  0  3  0  0  0  0  0  0
  161.2810  208.6730  149.6650 N   0  0  2  0  0  0  0  0  0  0  0  0
  160.9190  206.7030  152.8860 C   0  0  1  0  0  3  0  0  0  0  0  0
  161.8310  210.6440  150.8610 C   0  0  2  0  0  3  0  0  0  0  0  0
  162.3010  209.6310  149.8930 N   0  0  0  0  0  0  0  0  0  0  0  0
  161.8440  205.6530  152.7410 O   0  0  0  0  0  0  0  0  0  0  0  0
  159.7230  206.6220  155.0800 C   0  0  0  0  0  3  0  0  0  0  0  0
  160.8070  207.0880  154.3270 C   0  0  0  0  0  0  0  0  0  0  0  0
  161.7620  207.9220  154.9290 C   0  0  0  0  0  3  0  0  0  0  0  0
  162.5550  209.0870  156.8510 F   0  0  0  0  0  0  0  0  0  0  0  0
  160.5470  207.8120  157.0200 C   0  0  0  0  0  3  0  0  0  0  0  0
  161.6310  208.2810  156.2730 C   0  0  0  0  0  0  0  0  0  0  0  0
  159.5930  206.9820  156.4240 C   0  0  0  0  0  3  0  0  0  0  0  0
  162.5770  210.4070  148.6780 C   0  0  0  0  0  2  0  0  0  0  0  0
  161.7970  211.7200  148.6760 C   0  0  1  0  0  3  0  0  0  0  0  0
  163.5990  212.4590  147.6190 C   0  0  0  0  0  1  0  0  0  0  0  0
  162.6750  212.8070  148.6040 O   0  0  0  0  0  0  0  0  0  0  0  0
  160.8120  211.7510  147.5140 C   0  0  0  0  0  2  0  0  0  0  0  0
  159.9180  212.9780  147.5840 C   0  0  0  0  0  2  0  0  0  0  0  0
  160.3950  213.9650  146.7400 F   0  0  0  0  0  0  0  0  0  0  0  0
  161.3850  206.0520  146.3180 O   0  0  0  0  0  0  0  0  0  0  0  0
  160.5800  205.5250  145.2890 C   0  0  0  0  0  0  0  0  0  0  0  0
  160.5690  204.1390  145.3310 F   0  0  0  0  0  0  0  0  0  0  0  0
  159.2830  206.0070  145.3800 F   0  0  0  0  0  0  0  0  0  0  0  0
  161.1050  205.9190  144.0740 F   0  0  0  0  0  0  0  0  0  0  0  0
  1 13  1  0  0  0  0
  1  4  1  0  0  0  0
  2 12  1  0  0  0  0
  3  7  1  0  0  0  0
  3  5  1  0  0  0  0
  4  6  1  0  0  0  0
  5  1  1  0  0  0  0
  6  2  1  0  0  0  0
  6 15  1  0  0  0  0
  7 10  1  0  0  0  0
  8  5  1  0  0  0  0
  8 14  1  0  0  0  0
  9 18  1  0  0  0  0
 10 13  1  0  0  0  0
 12 11  1  0  0  0  0
 13  9  1  0  0  0  0
 14 17  1  0  0  0  0
 14  4  1  0  0  0  0
 15 20  1  0  0  0  0
 16 12  1  0  0  0  0
 16 11  1  0  0  0  0
 17 16  1  0  0  0  0
 18 15  1  0  0  0  0
 19 25  1  0  0  0  0
 20 21  1  0  0  0  0
 20 19  2  0  0  0  0
 21 24  2  0  0  0  0
 24 22  1  0  0  0  0
 24 23  1  0  0  0  0
 25 23  2  0  0  0  0
 26 17  1  0  0  0  0
 27 26  1  0  0  0  0
 28 29  1  0  0  0  0
 29 27  1  0  0  0  0
 30 31  1  0  0  0  0
 30 27  1  0  0  0  0
 32 31  1  0  0  0  0
 33  3  1  0  0  0  0
 34 35  1  0  0  0  0
 34 36  1  0  0  0  0
 34 33  1  0  0  0  0
 37 34  1  0  0  0  0
M  END
>  <MODEL>
1

>  <REMARK>
 VINA RESULT:      -7.8      0.000      0.000
  Name = 
  8 active torsions:
  status: ('A' for Active; 'I' for Inactive)
    1  A    between atoms: C_1  and  C_4
    2  A    between atoms: C_1  and  N_27
    3  A    between atoms: C_2  and  O_22
    4  A    between atoms: C_4  and  C_12
    5  A    between atoms: C_4  and  O_37
    6  A    between atoms: C_6  and  O_22
    7  A    between atoms: C_8  and  C_12
    8  A    between atoms: C_23  and  C_30
                            x       y       z     vdW  Elec       q    Type
                         _______ _______ _______ _____ _____    ______ ____

>  <TORSDO>
F 8

$$$$
=
 OpenBabel11122414023D

 37 42  0  0  1  0  0  0  0  0999 V2000
  161.5900  211.0840  150.8750 C   0  0  1  0  0  3  0  0  0  0  0  0
  162.4330  208.2300  152.3540 O   0  0  0  0  0  0  0  0  0  0  0  0
  161.6920  212.5250  148.6760 C   0  0  2  0  0  3  0  0  0  0  0  0
  161.1960  209.6220  150.8780 C   0  0  2  0  0  3  0  0  0  0  0  0
  162.1410  211.2730  149.4620 C   0  0  2  0  0  3  0  0  0  0  0  0
  161.2240  208.9300  152.2370 C   0  0  2  0  0  3  0  0  0  0  0  0
  160.3470  213.0940  149.1180 C   0  0  0  0  0  2  0  0  0  0  0  0
  161.9650  209.9200  148.7920 C   0  0  0  0  0  2  0  0  0  0  0  0
  160.1870  211.8990  152.7510 C   0  0  0  0  0  2  0  0  0  0  0  0
  160.3280  213.2540  150.6290 C   0  0  0  0  0  2  0  0  0  0  0  0
  160.9680  206.3080  151.5210 C   0  0  0  0  0  2  0  0  0  0  0  0
  162.3250  206.8690  151.9330 C   0  0  1  0  0  3  0  0  0  0  0  0
  160.3270  211.8650  151.2310 C   0  0  1  0  0  3  0  0  0  0  0  0
  162.0290  208.9490  149.8920 N   0  0  2  0  0  0  0  0  0  0  0  0
  160.9990  209.8960  153.4170 C   0  0  1  0  0  3  0  0  0  0  0  0
  161.9820  206.6420  150.4330 C   0  0  2  0  0  3  0  0  0  0  0  0
  161.3930  207.7150  149.6050 N   0  0  0  0  0  0  0  0  0  0  0  0
  159.8120  210.6300  153.2320 O   0  0  0  0  0  0  0  0  0  0  0  0
  161.8930  209.4240  155.7030 C   0  0  0  0  0  3  0  0  0  0  0  0
  160.9420  209.1520  154.7140 C   0  0  0  0  0  0  0  0  0  0  0  0
  159.9600  208.1770  154.9440 C   0  0  0  0  0  3  0  0  0  0  0  0
  158.9820  206.5410  156.3760 F   0  0  0  0  0  0  0  0  0  0  0  0
  160.8840  207.7590  157.1420 C   0  0  0  0  0  3  0  0  0  0  0  0
  159.9320  207.4830  156.1570 C   0  0  0  0  0  0  0  0  0  0  0  0
  161.8640  208.7290  156.9160 C   0  0  0  0  0  3  0  0  0  0  0  0
  161.6660  207.2870  148.2280 C   0  0  0  0  0  2  0  0  0  0  0  0
  160.8590  206.0410  147.8710 C   0  0  1  0  0  3  0  0  0  0  0  0
  160.7090  206.1210  145.6610 C   0  0  0  0  0  1  0  0  0  0  0  0
  159.9700  206.3200  146.8280 O   0  0  0  0  0  0  0  0  0  0  0  0
  161.7900  204.8970  147.4870 C   0  0  0  0  0  2  0  0  0  0  0  0
  161.3670  203.5970  148.1500 C   0  0  0  0  0  2  0  0  0  0  0  0
  160.6410  203.8610  149.2970 F   0  0  0  0  0  0  0  0  0  0  0  0
  161.6930  212.2940  147.2900 O   0  0  0  0  0  0  0  0  0  0  0  0
  162.3020  213.3990  146.6600 C   0  0  0  0  0  0  0  0  0  0  0  0
  163.0730  214.1170  147.5620 F   0  0  0  0  0  0  0  0  0  0  0  0
  163.0870  212.9890  145.5930 F   0  0  0  0  0  0  0  0  0  0  0  0
  161.3110  214.2310  146.1770 F   0  0  0  0  0  0  0  0  0  0  0  0
  1  4  1  0  0  0  0
  1 13  1  0  0  0  0
  3  7  1  0  0  0  0
  3  5  1  0  0  0  0
  4  6  1  0  0  0  0
  5  1  1  0  0  0  0
  6  2  1  0  0  0  0
  6 15  1  0  0  0  0
  7 10  1  0  0  0  0
  8  5  1  0  0  0  0
  8 14  1  0  0  0  0
  9 18  1  0  0  0  0
 10 13  1  0  0  0  0
 11 12  1  0  0  0  0
 12  2  1  0  0  0  0
 13  9  1  0  0  0  0
 14  4  1  0  0  0  0
 15 20  1  0  0  0  0
 16 11  1  0  0  0  0
 16 12  1  0  0  0  0
 17 14  1  0  0  0  0
 17 16  1  0  0  0  0
 18 15  1  0  0  0  0
 19 25  1  0  0  0  0
 20 21  1  0  0  0  0
 20 19  2  0  0  0  0
 21 24  2  0  0  0  0
 24 22  1  0  0  0  0
 24 23  1  0  0  0  0
 25 23  2  0  0  0  0
 26 17  1  0  0  0  0
 27 26  1  0  0  0  0
 28 29  1  0  0  0  0
 29 27  1  0  0  0  0
 30 27  1  0  0  0  0
 30 31  1  0  0  0  0
 31 32  1  0  0  0  0
 33  3  1  0  0  0  0
 34 33  1  0  0  0  0
 34 35  1  0  0  0  0
 36 34  1  0  0  0  0
 37 34  1  0  0  0  0
M  END
>  <MODEL>
2

>  <REMARK>
 VINA RESULT:      -7.3      1.991      5.875
  Name = 
  8 active torsions:
  status: ('A' for Active; 'I' for Inactive)
    1  A    between atoms: C_1  and  C_4
    2  A    between atoms: C_1  and  N_27
    3  A    between atoms: C_2  and  O_22
    4  A    between atoms: C_4  and  C_12
    5  A    between atoms: C_4  and  O_37
    6  A    between atoms: C_6  and  O_22
    7  A    between atoms: C_8  and  C_12
    8  A    between atoms: C_23  and  C_30
                            x       y       z     vdW  Elec       q    Type
                         _______ _______ _______ _____ _____    ______ ____

>  <TORSDO>
F 8

$$$$
=
 OpenBabel11122414023D

 37 42  0  0  1  0  0  0  0  0999 V2000
  161.7950  207.2950  152.6040 C   0  0  1  0  0  3  0  0  0  0  0  0
  162.6950  206.7100  149.4590 O   0  0  0  0  0  0  0  0  0  0  0  0
  161.8510  208.9840  154.6200 C   0  0  2  0  0  3  0  0  0  0  0  0
  161.4220  207.7120  151.1960 C   0  0  2  0  0  3  0  0  0  0  0  0
  162.3260  208.5960  153.2030 C   0  0  2  0  0  3  0  0  0  0  0  0
  161.4750  206.6110  150.1420 C   0  0  2  0  0  3  0  0  0  0  0  0
  160.5030  208.3870  155.0140 C   0  0  0  0  0  2  0  0  0  0  0  0
  162.1620  209.6280  152.0980 C   0  0  0  0  0  2  0  0  0  0  0  0
  160.4010  205.2540  152.8180 C   0  0  0  0  0  2  0  0  0  0  0  0
  160.4990  206.8950  154.7310 C   0  0  0  0  0  2  0  0  0  0  0  0
  161.2480  208.0540  147.8350 C   0  0  0  0  0  2  0  0  0  0  0  0
  162.6020  207.5070  148.2760 C   0  0  1  0  0  3  0  0  0  0  0  0
  160.5250  206.7200  153.2270 C   0  0  1  0  0  3  0  0  0  0  0  0
  162.2530  208.8570  150.8520 N   0  0  2  0  0  0  0  0  0  0  0  0
  161.2490  205.2010  150.7220 C   0  0  1  0  0  3  0  0  0  0  0  0
  162.2450  209.0050  148.4860 C   0  0  2  0  0  3  0  0  0  0  0  0
  161.6310  209.4830  149.7420 N   0  0  0  0  0  0  0  0  0  0  0  0
  160.0500  205.1580  151.4580 O   0  0  0  0  0  0  0  0  0  0  0  0
  160.8620  202.8570  149.9450 C   0  0  0  0  0  3  0  0  0  0  0  0
  161.2170  204.1750  149.6350 C   0  0  0  0  0  0  0  0  0  0  0  0
  161.5550  204.5100  148.3150 C   0  0  0  0  0  3  0  0  0  0  0  0
  161.8590  203.8600  146.0420 F   0  0  0  0  0  0  0  0  0  0  0  0
  161.1750  202.2190  147.6300 C   0  0  0  0  0  3  0  0  0  0  0  0
  161.5320  203.5330  147.3150 C   0  0  0  0  0  0  0  0  0  0  0  0
  160.8390  201.8810  148.9440 C   0  0  0  0  0  3  0  0  0  0  0  0
  161.8940  210.9280  149.7360 C   0  0  0  0  0  2  0  0  0  0  0  0
  161.6950  211.5150  148.3410 C   0  0  1  0  0  3  0  0  0  0  0  0
  160.5590  212.9960  149.5350 C   0  0  0  0  0  1  0  0  0  0  0  0
  160.5540  212.3240  148.3130 O   0  0  0  0  0  0  0  0  0  0  0  0
  162.9240  212.3100  147.9180 C   0  0  0  0  0  2  0  0  0  0  0  0
  162.6530  213.1110  146.6550 C   0  0  0  0  0  2  0  0  0  0  0  0
  162.5070  214.4510  146.9630 F   0  0  0  0  0  0  0  0  0  0  0  0
  161.8390  210.3780  154.8000 O   0  0  0  0  0  0  0  0  0  0  0  0
  162.6270  210.6820  155.9290 C   0  0  0  0  0  0  0  0  0  0  0  0
  163.9020  211.0750  155.5500 F   0  0  0  0  0  0  0  0  0  0  0  0
  162.0350  211.6790  156.6900 F   0  0  0  0  0  0  0  0  0  0  0  0
  162.7360  209.5470  156.7080 F   0  0  0  0  0  0  0  0  0  0  0  0
  1  5  1  0  0  0  0
  1 13  1  0  0  0  0
  2  6  1  0  0  0  0
  3 33  1  0  0  0  0
  3  7  1  0  0  0  0
  4  1  1  0  0  0  0
  5  3  1  0  0  0  0
  6 15  1  0  0  0  0
  6  4  1  0  0  0  0
  8  5  1  0  0  0  0
  9 13  1  0  0  0  0
 10  7  1  0  0  0  0
 11 12  1  0  0  0  0
 11 16  1  0  0  0  0
 12 16  1  0  0  0  0
 12  2  1  0  0  0  0
 13 10  1  0  0  0  0
 14  4  1  0  0  0  0
 14  8  1  0  0  0  0
 15 18  1  0  0  0  0
 16 17  1  0  0  0  0
 17 14  1  0  0  0  0
 18  9  1  0  0  0  0
 20 19  1  0  0  0  0
 20 15  1  0  0  0  0
 21 20  2  0  0  0  0
 22 24  1  0  0  0  0
 23 25  1  0  0  0  0
 24 23  2  0  0  0  0
 24 21  1  0  0  0  0
 25 19  2  0  0  0  0
 26 17  1  0  0  0  0
 27 26  1  0  0  0  0
 29 27  1  0  0  0  0
 29 28  1  0  0  0  0
 30 27  1  0  0  0  0
 31 32  1  0  0  0  0
 31 30  1  0  0  0  0
 33 34  1  0  0  0  0
 34 36  1  0  0  0  0
 34 37  1  0  0  0  0
 35 34  1  0  0  0  0
M  END
>  <MODEL>
3

>  <REMARK>
 VINA RESULT:      -5.9      1.690      6.756
  Name = 
  8 active torsions:
  status: ('A' for Active; 'I' for Inactive)
    1  A    between atoms: C_1  and  C_4
    2  A    between atoms: C_1  and  N_27
    3  A    between atoms: C_2  and  O_22
    4  A    between atoms: C_4  and  C_12
    5  A    between atoms: C_4  and  O_37
    6  A    between atoms: C_6  and  O_22
    7  A    between atoms: C_8  and  C_12
    8  A    between atoms: C_23  and  C_30
                            x       y       z     vdW  Elec       q    Type
                         _______ _______ _______ _____ _____    ______ ____

>  <TORSDO>
F 8

$$$$
=
 OpenBabel11122414023D

 37 42  0  0  1  0  0  0  0  0999 V2000
  160.6530  204.8680  151.1210 C   0  0  1  0  0  3  0  0  0  0  0  0
  160.4360  208.1740  151.3820 O   0  0  0  0  0  0  0  0  0  0  0  0
  160.7460  202.8000  149.4980 C   0  0  2  0  0  3  0  0  0  0  0  0
  161.5070  206.1030  150.9240 C   0  0  2  0  0  3  0  0  0  0  0  0
  160.5390  204.3170  149.7010 C   0  0  2  0  0  3  0  0  0  0  0  0
  161.3010  207.2210  151.9400 C   0  0  2  0  0  3  0  0  0  0  0  0
  161.6040  202.1360  150.5710 C   0  0  0  0  0  2  0  0  0  0  0  0
  161.3700  205.2620  148.8490 C   0  0  0  0  0  2  0  0  0  0  0  0
  161.0330  204.4800  153.5420 C   0  0  0  0  0  2  0  0  0  0  0  0
  161.0970  202.5260  151.9490 C   0  0  0  0  0  2  0  0  0  0  0  0
  162.6570  209.2810  150.7680 C   0  0  0  0  0  2  0  0  0  0  0  0
  161.1330  209.2310  150.7200 C   0  0  1  0  0  3  0  0  0  0  0  0
  161.3910  204.0000  152.1380 C   0  0  1  0  0  3  0  0  0  0  0  0
  161.3080  206.5500  149.5530 N   0  0  2  0  0  0  0  0  0  0  0  0
  160.8000  206.7170  153.3080 C   0  0  1  0  0  3  0  0  0  0  0  0
  161.9800  208.8220  149.4820 C   0  0  2  0  0  3  0  0  0  0  0  0
  162.3870  207.4190  149.2550 N   0  0  0  0  0  0  0  0  0  0  0  0
  161.6550  205.7160  153.8060 O   0  0  0  0  0  0  0  0  0  0  0  0
  160.1610  207.6020  155.5570 C   0  0  0  0  0  3  0  0  0  0  0  0
  160.7060  207.8410  154.2910 C   0  0  0  0  0  0  0  0  0  0  0  0
  161.1410  209.1330  153.9550 C   0  0  0  0  0  3  0  0  0  0  0  0
  161.4520  211.4180  154.5540 F   0  0  0  0  0  0  0  0  0  0  0  0
  160.4880  209.9280  156.1460 C   0  0  0  0  0  3  0  0  0  0  0  0
  161.0310  210.1730  154.8820 C   0  0  0  0  0  0  0  0  0  0  0  0
  160.0530  208.6430  156.4840 C   0  0  0  0  0  3  0  0  0  0  0  0
  162.7210  207.3760  147.8250 C   0  0  0  0  0  2  0  0  0  0  0  0
  161.8170  206.3970  147.0810 C   0  0  1  0  0  3  0  0  0  0  0  0
  160.1770  206.3610  145.5900 C   0  0  0  0  0  1  0  0  0  0  0  0
  160.6050  207.0110  146.7480 O   0  0  0  0  0  0  0  0  0  0  0  0
  162.5130  205.8770  145.8290 C   0  0  0  0  0  2  0  0  0  0  0  0
  163.1760  204.5340  146.0870 C   0  0  0  0  0  2  0  0  0  0  0  0
  162.4310  203.5170  145.5180 F   0  0  0  0  0  0  0  0  0  0  0  0
  161.2550  202.5130  148.2190 O   0  0  0  0  0  0  0  0  0  0  0  0
  160.5770  201.3840  147.7190 C   0  0  0  0  0  0  0  0  0  0  0  0
  161.3510  200.2410  147.8570 F   0  0  0  0  0  0  0  0  0  0  0  0
  159.3630  201.2090  148.3670 F   0  0  0  0  0  0  0  0  0  0  0  0
  160.3270  201.5800  146.3750 F   0  0  0  0  0  0  0  0  0  0  0  0
  1 13  1  0  0  0  0
  2  6  1  0  0  0  0
  3  5  1  0  0  0  0
  3  7  1  0  0  0  0
  4  1  1  0  0  0  0
  4  6  1  0  0  0  0
  5  1  1  0  0  0  0
  6 15  1  0  0  0  0
  7 10  1  0  0  0  0
  8 14  1  0  0  0  0
  8  5  1  0  0  0  0
  9 18  1  0  0  0  0
 10 13  1  0  0  0  0
 12 11  1  0  0  0  0
 12  2  1  0  0  0  0
 13  9  1  0  0  0  0
 14  4  1  0  0  0  0
 15 18  1  0  0  0  0
 15 20  1  0  0  0  0
 16 12  1  0  0  0  0
 16 11  1  0  0  0  0
 17 16  1  0  0  0  0
 17 14  1  0  0  0  0
 19 25  1  0  0  0  0
 20 19  2  0  0  0  0
 21 20  1  0  0  0  0
 21 24  2  0  0  0  0
 22 24  1  0  0  0  0
 23 25  2  0  0  0  0
 24 23  1  0  0  0  0
 26 17  1  0  0  0  0
 27 26  1  0  0  0  0
 28 29  1  0  0  0  0
 29 27  1  0  0  0  0
 30 31  1  0  0  0  0
 30 27  1  0  0  0  0
 32 31  1  0  0  0  0
 33  3  1  0  0  0  0
 34 35  1  0  0  0  0
 34 33  1  0  0  0  0
 34 36  1  0  0  0  0
 37 34  1  0  0  0  0
M  END
>  <MODEL>
4

>  <REMARK>
 VINA RESULT:      -5.8      2.656      4.050
  Name = 
  8 active torsions:
  status: ('A' for Active; 'I' for Inactive)
    1  A    between atoms: C_1  and  C_4
    2  A    between atoms: C_1  and  N_27
    3  A    between atoms: C_2  and  O_22
    4  A    between atoms: C_4  and  C_12
    5  A    between atoms: C_4  and  O_37
    6  A    between atoms: C_6  and  O_22
    7  A    between atoms: C_8  and  C_12
    8  A    between atoms: C_23  and  C_30
                            x       y       z     vdW  Elec       q    Type
                         _______ _______ _______ _____ _____    ______ ____

>  <TORSDO>
F 8

$$$$
=
 OpenBabel11122414023D

 37 42  0  0  1  0  0  0  0  0999 V2000
  162.0240  206.9620  150.2140 C   0  0  1  0  0  3  0  0  0  0  0  0
  162.6990  209.9680  151.4610 O   0  0  0  0  0  0  0  0  0  0  0  0
  161.7040  204.4010  150.7220 C   0  0  2  0  0  3  0  0  0  0  0  0
  161.3630  208.0490  151.0360 C   0  0  2  0  0  3  0  0  0  0  0  0
  162.1170  205.8070  151.2090 C   0  0  2  0  0  3  0  0  0  0  0  0
  161.6860  209.4810  150.6230 C   0  0  2  0  0  3  0  0  0  0  0  0
  160.7180  204.4060  149.5570 C   0  0  0  0  0  2  0  0  0  0  0  0
  161.4640  206.3330  152.4770 C   0  0  0  0  0  2  0  0  0  0  0  0
  161.4950  207.7840  147.9340 C   0  0  0  0  0  2  0  0  0  0  0  0
  161.2190  205.3340  148.4630 C   0  0  0  0  0  2  0  0  0  0  0  0
  160.6850  210.8960  152.7340 C   0  0  0  0  0  2  0  0  0  0  0  0
  162.1870  210.6650  152.5990 C   0  0  1  0  0  3  0  0  0  0  0  0
  161.1290  206.7490  148.9950 C   0  0  1  0  0  3  0  0  0  0  0  0
  161.6800  207.7850  152.4320 N   0  0  2  0  0  0  0  0  0  0  0  0
  162.0530  209.6180  149.1320 C   0  0  1  0  0  3  0  0  0  0  0  0
  161.3410  209.8220  153.5950 C   0  0  2  0  0  3  0  0  0  0  0  0
  160.7480  208.5280  153.2010 N   0  0  0  0  0  0  0  0  0  0  0  0
  161.0450  209.0590  148.3240 O   0  0  0  0  0  0  0  0  0  0  0  0
  163.4140  211.4140  148.0490 C   0  0  0  0  0  3  0  0  0  0  0  0
  162.2660  211.0520  148.7630 C   0  0  0  0  0  0  0  0  0  0  0  0
  161.3420  212.0390  149.1380 C   0  0  0  0  0  3  0  0  0  0  0  0
  160.6710  214.3260  149.1580 F   0  0  0  0  0  0  0  0  0  0  0  0
  162.7130  213.7310  148.0800 C   0  0  0  0  0  3  0  0  0  0  0  0
  161.5660  213.3750  148.7950 C   0  0  0  0  0  0  0  0  0  0  0  0
  163.6370  212.7510  147.7070 C   0  0  0  0  0  3  0  0  0  0  0  0
  160.4700  207.8630  154.4800 C   0  0  0  0  0  2  0  0  0  0  0  0
  160.6740  208.8220  155.6510 C   0  0  1  0  0  3  0  0  0  0  0  0
  159.2870  210.4530  156.2220 C   0  0  0  0  0  1  0  0  0  0  0  0
  159.4560  209.0700  156.2930 O   0  0  0  0  0  0  0  0  0  0  0  0
  161.6890  208.2520  156.6340 C   0  0  0  0  0  2  0  0  0  0  0  0
  162.5260  209.3540  157.2610 C   0  0  0  0  0  2  0  0  0  0  0  0
  163.0480  210.1750  156.2770 F   0  0  0  0  0  0  0  0  0  0  0  0
  161.2110  203.6110  151.7750 O   0  0  0  0  0  0  0  0  0  0  0  0
  161.3750  202.2560  151.4220 C   0  0  0  0  0  0  0  0  0  0  0  0
  160.2750  201.5070  151.8120 F   0  0  0  0  0  0  0  0  0  0  0  0
  161.5740  202.1210  150.0560 F   0  0  0  0  0  0  0  0  0  0  0  0
  162.4890  201.7630  152.0730 F   0  0  0  0  0  0  0  0  0  0  0  0
  1  4  1  0  0  0  0
  1  5  1  0  0  0  0
  2 12  1  0  0  0  0
  3  5  1  0  0  0  0
  3 33  1  0  0  0  0
  4 14  1  0  0  0  0
  5  8  1  0  0  0  0
  6  4  1  0  0  0  0
  6  2  1  0  0  0  0
  7  3  1  0  0  0  0
  9 18  1  0  0  0  0
  9 13  1  0  0  0  0
 10 13  1  0  0  0  0
 10  7  1  0  0  0  0
 11 16  1  0  0  0  0
 12 11  1  0  0  0  0
 12 16  1  0  0  0  0
 13  1  1  0  0  0  0
 14  8  1  0  0  0  0
 14 17  1  0  0  0  0
 15  6  1  0  0  0  0
 17 16  1  0  0  0  0
 17 26  1  0  0  0  0
 18 15  1  0  0  0  0
 19 20  1  0  0  0  0
 20 15  1  0  0  0  0
 20 21  2  0  0  0  0
 23 24  2  0  0  0  0
 24 21  1  0  0  0  0
 24 22  1  0  0  0  0
 25 19  2  0  0  0  0
 25 23  1  0  0  0  0
 26 27  1  0  0  0  0
 27 29  1  0  0  0  0
 27 30  1  0  0  0  0
 28 29  1  0  0  0  0
 30 31  1  0  0  0  0
 32 31  1  0  0  0  0
 34 33  1  0  0  0  0
 34 35  1  0  0  0  0
 34 37  1  0  0  0  0
 36 34  1  0  0  0  0
M  END
>  <MODEL>
5

>  <REMARK>
 VINA RESULT:      -5.7      2.576      6.680
  Name = 
  8 active torsions:
  status: ('A' for Active; 'I' for Inactive)
    1  A    between atoms: C_1  and  C_4
    2  A    between atoms: C_1  and  N_27
    3  A    between atoms: C_2  and  O_22
    4  A    between atoms: C_4  and  C_12
    5  A    between atoms: C_4  and  O_37
    6  A    between atoms: C_6  and  O_22
    7  A    between atoms: C_8  and  C_12
    8  A    between atoms: C_23  and  C_30
                            x       y       z     vdW  Elec       q    Type
                         _______ _______ _______ _____ _____    ______ ____

>  <TORSDO>
F 8

$$$$
=
 OpenBabel11122414023D

 37 42  0  0  1  0  0  0  0  0999 V2000
  161.8340  207.5080  152.6720 C   0  0  1  0  0  3  0  0  0  0  0  0
  162.7900  207.1520  149.5080 O   0  0  0  0  0  0  0  0  0  0  0  0
  161.8430  209.0510  154.8020 C   0  0  2  0  0  3  0  0  0  0  0  0
  161.4800  208.0200  151.2910 C   0  0  2  0  0  3  0  0  0  0  0  0
  162.3450  208.7680  153.3690 C   0  0  2  0  0  3  0  0  0  0  0  0
  161.5600  206.9960  150.1630 C   0  0  2  0  0  3  0  0  0  0  0  0
  160.4940  208.4180  155.1300 C   0  0  0  0  0  2  0  0  0  0  0  0
  162.1900  209.8730  152.3370 C   0  0  0  0  0  2  0  0  0  0  0  0
  160.4540  205.4470  152.7180 C   0  0  0  0  0  2  0  0  0  0  0  0
  160.5080  206.9490  154.7430 C   0  0  0  0  0  2  0  0  0  0  0  0
  161.3580  208.5960  147.9590 C   0  0  0  0  0  2  0  0  0  0  0  0
  162.7090  208.0290  148.3830 C   0  0  1  0  0  3  0  0  0  0  0  0
  160.5590  206.8810  153.2310 C   0  0  1  0  0  3  0  0  0  0  0  0
  162.3070  209.1920  151.0410 N   0  0  2  0  0  0  0  0  0  0  0  0
  161.3370  205.5470  150.6390 C   0  0  1  0  0  3  0  0  0  0  0  0
  162.3360  209.5060  148.6920 C   0  0  2  0  0  3  0  0  0  0  0  0
  161.6980  209.8900  149.9680 N   0  0  0  0  0  0  0  0  0  0  0  0
  160.1260  205.4440  151.3490 O   0  0  0  0  0  0  0  0  0  0  0  0
  161.6000  205.0840  148.1960 C   0  0  0  0  0  3  0  0  0  0  0  0
  161.3310  204.6000  149.4810 C   0  0  0  0  0  0  0  0  0  0  0  0
  161.0430  203.2390  149.6640 C   0  0  0  0  0  3  0  0  0  0  0  0
  160.7510  201.0580  148.7470 F   0  0  0  0  0  0  0  0  0  0  0  0
  161.3000  202.8610  147.2860 C   0  0  0  0  0  3  0  0  0  0  0  0
  161.0290  202.3720  148.5670 C   0  0  0  0  0  0  0  0  0  0  0  0
  161.5850  204.2160  147.1000 C   0  0  0  0  0  3  0  0  0  0  0  0
  161.9490  211.3330  150.0680 C   0  0  0  0  0  2  0  0  0  0  0  0
  160.8250  212.1320  149.4120 C   0  0  1  0  0  3  0  0  0  0  0  0
  159.6820  212.6010  151.2530 C   0  0  0  0  0  1  0  0  0  0  0  0
  160.4360  213.1920  150.2390 O   0  0  0  0  0  0  0  0  0  0  0  0
  161.2660  212.6520  148.0490 C   0  0  0  0  0  2  0  0  0  0  0  0
  160.3090  212.2080  146.9560 C   0  0  0  0  0  2  0  0  0  0  0  0
  159.0450  212.7150  147.1930 F   0  0  0  0  0  0  0  0  0  0  0  0
  161.8170  210.4290  155.0790 O   0  0  0  0  0  0  0  0  0  0  0  0
  162.7190  210.6830  156.1330 C   0  0  0  0  0  0  0  0  0  0  0  0
  162.2320  211.6740  156.9710 F   0  0  0  0  0  0  0  0  0  0  0  0
  162.9640  209.5290  156.8620 F   0  0  0  0  0  0  0  0  0  0  0  0
  163.9130  211.1180  155.5930 F   0  0  0  0  0  0  0  0  0  0  0  0
  1 13  1  0  0  0  0
  1  5  1  0  0  0  0
  2  6  1  0  0  0  0
  3 33  1  0  0  0  0
  3  7  1  0  0  0  0
  4  1  1  0  0  0  0
  5  3  1  0  0  0  0
  6 15  1  0  0  0  0
  6  4  1  0  0  0  0
  8  5  1  0  0  0  0
  9 13  1  0  0  0  0
 10  7  1  0  0  0  0
 11 12  1  0  0  0  0
 11 16  1  0  0  0  0
 12 16  1  0  0  0  0
 12  2  1  0  0  0  0
 13 10  1  0  0  0  0
 14  4  1  0  0  0  0
 14  8  1  0  0  0  0
 15 18  1  0  0  0  0
 16 17  1  0  0  0  0
 17 26  1  0  0  0  0
 17 14  1  0  0  0  0
 18  9  1  0  0  0  0
 19 20  1  0  0  0  0
 20 21  2  0  0  0  0
 20 15  1  0  0  0  0
 23 24  2  0  0  0  0
 24 22  1  0  0  0  0
 24 21  1  0  0  0  0
 25 23  1  0  0  0  0
 25 19  2  0  0  0  0
 27 26  1  0  0  0  0
 27 29  1  0  0  0  0
 29 28  1  0  0  0  0
 30 27  1  0  0  0  0
 31 32  1  0  0  0  0
 31 30  1  0  0  0  0
 33 34  1  0  0  0  0
 34 36  1  0  0  0  0
 34 35  1  0  0  0  0
 37 34  1  0  0  0  0
M  END
>  <MODEL>
6

>  <REMARK>
 VINA RESULT:      -5.1      2.280      6.825
  Name = 
  8 active torsions:
  status: ('A' for Active; 'I' for Inactive)
    1  A    between atoms: C_1  and  C_4
    2  A    between atoms: C_1  and  N_27
    3  A    between atoms: C_2  and  O_22
    4  A    between atoms: C_4  and  C_12
    5  A    between atoms: C_4  and  O_37
    6  A    between atoms: C_6  and  O_22
    7  A    between atoms: C_8  and  C_12
    8  A    between atoms: C_23  and  C_30
                            x       y       z     vdW  Elec       q    Type
                         _______ _______ _______ _____ _____    ______ ____

>  <TORSDO>
F 8

$$$$
=
 OpenBabel11122414023D

 37 42  0  0  1  0  0  0  0  0999 V2000
  161.0510  208.0210  150.0490 C   0  0  1  0  0  3  0  0  0  0  0  0
  160.2490  204.8410  150.5870 O   0  0  0  0  0  0  0  0  0  0  0  0
  161.1790  210.4480  151.0560 C   0  0  2  0  0  3  0  0  0  0  0  0
  161.5760  206.8020  150.7790 C   0  0  2  0  0  3  0  0  0  0  0  0
  160.7270  208.9780  151.1950 C   0  0  2  0  0  3  0  0  0  0  0  0
  161.3880  205.4690  150.0640 C   0  0  2  0  0  3  0  0  0  0  0  0
  162.3720  210.6510  150.1260 C   0  0  0  0  0  2  0  0  0  0  0  0
  161.1390  208.2310  152.4530 C   0  0  0  0  0  2  0  0  0  0  0  0
  162.0390  207.6230  147.8090 C   0  0  0  0  0  2  0  0  0  0  0  0
  162.1240  209.9370  148.8080 C   0  0  0  0  0  2  0  0  0  0  0  0
  162.0080  203.6950  152.0460 C   0  0  0  0  0  2  0  0  0  0  0  0
  160.5540  203.9490  151.6610 C   0  0  1  0  0  3  0  0  0  0  0  0
  162.1570  208.4490  149.0880 C   0  0  1  0  0  3  0  0  0  0  0  0
  160.9860  206.8110  152.1100 N   0  0  2  0  0  0  0  0  0  0  0  0
  161.3220  205.6040  148.5300 C   0  0  1  0  0  3  0  0  0  0  0  0
  161.1610  204.5970  152.9380 C   0  0  2  0  0  3  0  0  0  0  0  0
  161.7750  205.9400  152.9030 N   0  0  0  0  0  0  0  0  0  0  0  0
  162.4480  206.2970  148.0490 O   0  0  0  0  0  0  0  0  0  0  0  0
  161.3180  204.1660  146.4850 C   0  0  0  0  0  3  0  0  0  0  0  0
  161.2330  204.2600  147.8790 C   0  0  0  0  0  0  0  0  0  0  0  0
  161.0490  203.0970  148.6420 C   0  0  0  0  0  3  0  0  0  0  0  0
  160.7780  200.7320  148.7540 F   0  0  0  0  0  0  0  0  0  0  0  0
  161.0420  201.7650  146.6210 C   0  0  0  0  0  3  0  0  0  0  0  0
  160.9550  201.8530  148.0130 C   0  0  0  0  0  0  0  0  0  0  0  0
  161.2240  202.9210  145.8570 C   0  0  0  0  0  3  0  0  0  0  0  0
  161.7770  206.3620  154.3100 C   0  0  0  0  0  2  0  0  0  0  0  0
  160.5810  207.2620  154.6130 C   0  0  1  0  0  3  0  0  0  0  0  0
  160.0890  206.7700  156.7170 C   0  0  0  0  0  1  0  0  0  0  0  0
  159.6510  206.5810  155.4060 O   0  0  0  0  0  0  0  0  0  0  0  0
  161.0390  208.5400  155.3050 C   0  0  0  0  0  2  0  0  0  0  0  0
  159.9180  209.5640  155.3660 C   0  0  0  0  0  2  0  0  0  0  0  0
  159.7410  210.0010  156.6660 F   0  0  0  0  0  0  0  0  0  0  0  0
  161.4310  211.0350  152.3080 O   0  0  0  0  0  0  0  0  0  0  0  0
  160.3370  211.8610  152.6340 C   0  0  0  0  0  0  0  0  0  0  0  0
  160.4400  212.3250  153.9370 F   0  0  0  0  0  0  0  0  0  0  0  0
  160.2500  212.9340  151.7590 F   0  0  0  0  0  0  0  0  0  0  0  0
  159.1770  211.1180  152.5270 F   0  0  0  0  0  0  0  0  0  0  0  0
  1  4  1  0  0  0  0
  1  5  1  0  0  0  0
  2 12  1  0  0  0  0
  3  5  1  0  0  0  0
  3 33  1  0  0  0  0
  4 14  1  0  0  0  0
  5  8  1  0  0  0  0
  6  2  1  0  0  0  0
  6  4  1  0  0  0  0
  7  3  1  0  0  0  0
  9 18  1  0  0  0  0
  9 13  1  0  0  0  0
 10 13  1  0  0  0  0
 10  7  1  0  0  0  0
 11 16  1  0  0  0  0
 12 11  1  0  0  0  0
 12 16  1  0  0  0  0
 13  1  1  0  0  0  0
 14  8  1  0  0  0  0
 14 17  1  0  0  0  0
 15  6  1  0  0  0  0
 17 16  1  0  0  0  0
 17 26  1  0  0  0  0
 18 15  1  0  0  0  0
 19 20  1  0  0  0  0
 20 15  1  0  0  0  0
 20 21  2  0  0  0  0
 23 24  2  0  0  0  0
 24 21  1  0  0  0  0
 24 22  1  0  0  0  0
 25 19  2  0  0  0  0
 25 23  1  0  0  0  0
 26 27  1  0  0  0  0
 27 30  1  0  0  0  0
 27 29  1  0  0  0  0
 29 28  1  0  0  0  0
 30 31  1  0  0  0  0
 31 32  1  0  0  0  0
 33 34  1  0  0  0  0
 34 35  1  0  0  0  0
 36 34  1  0  0  0  0
 37 34  1  0  0  0  0
M  END
>  <MODEL>
7

>  <REMARK>
 VINA RESULT:      -5.1      2.706      7.728
  Name = 
  8 active torsions:
  status: ('A' for Active; 'I' for Inactive)
    1  A    between atoms: C_1  and  C_4
    2  A    between atoms: C_1  and  N_27
    3  A    between atoms: C_2  and  O_22
    4  A    between atoms: C_4  and  C_12
    5  A    between atoms: C_4  and  O_37
    6  A    between atoms: C_6  and  O_22
    7  A    between atoms: C_8  and  C_12
    8  A    between atoms: C_23  and  C_30
                            x       y       z     vdW  Elec       q    Type
                         _______ _______ _______ _____ _____    ______ ____

>  <TORSDO>
F 8

$$$$
