=
 OpenBabel11122413413D

 37 44  0  0  1  0  0  0  0  0999 V2000
  161.7590  210.1160  155.3320 O   0  0  0  0  0  0  0  0  0  0  0  0
  161.3330  206.4250  151.7700 C   0  0  1  0  0  0  0  0  0  0  0  0
  161.4360  210.6420  151.8210 C   0  0  1  0  0  3  0  0  0  0  0  0
  161.8540  210.3290  156.7170 C   0  0  2  0  0  3  0  0  0  0  0  0
  157.9240  211.1250  153.5460 C   0  0  0  0  0  2  0  0  0  0  0  0
  161.6290  208.4970  150.4430 C   0  0  1  0  0  3  0  0  0  0  0  0
  160.4080  210.7360  152.9450 C   0  0  1  0  0  3  0  0  0  0  0  0
  160.1840  212.2330  156.2740 C   0  0  0  0  0  0  0  0  0  0  0  0
  161.8700  209.1840  151.7930 C   0  0  2  0  0  3  0  0  0  0  0  0
  159.0450  211.3260  152.5150 C   0  0  2  0  0  3  0  0  0  0  0  0
  162.3210  209.2540  149.3160 C   0  0  0  0  0  2  0  0  0  0  0  0
  161.3700  211.7380  157.0720 C   0  0  0  0  0  2  0  0  0  0  0  0
  161.2610  208.4320  152.9100 N   0  0  2  0  0  0  0  0  0  0  0  0
  162.8430  206.5790  151.6460 C   0  0  0  0  0  2  0  0  0  0  0  0
  160.7000  212.6510  150.3880 C   0  0  0  0  0  2  0  0  0  0  0  0
  161.9610  210.7530  149.3300 C   0  0  0  0  0  2  0  0  0  0  0  0
  160.5140  207.3720  152.4590 O   0  0  0  0  0  0  0  0  0  0  0  0
  159.2430  211.3460  155.6360 N   0  0  0  0  0  0  0  0  0  0  0  0
  158.1350  211.8930  154.8570 C   0  0  0  0  0  2  0  0  0  0  0  0
  160.9650  211.1430  150.4350 C   0  0  1  0  0  3  0  0  0  0  0  0
  160.3160  209.3360  153.5640 C   0  0  1  0  0  3  0  0  0  0  0  0
  161.9300  206.9920  150.4840 C   0  0  1  0  0  3  0  0  0  0  0  0
  159.1560  212.8150  152.1200 C   0  0  1  0  0  3  0  0  0  0  0  0
  160.7590  205.0370  151.5810 C   0  0  0  0  0  1  0  0  0  0  0  0
  159.3360  209.8990  155.8000 C   0  0  0  0  0  2  0  0  0  0  0  0
  160.0190  213.4790  156.1870 O   0  0  0  0  0  0  0  0  0  0  0  0
  160.5840  209.3670  155.0710 C   0  0  2  0  0  3  0  0  0  0  0  0
  160.4340  213.2130  151.6550 O   0  0  0  0  0  0  0  0  0  0  0  0
  156.9290  213.9460  151.9320 C   0  0  0  0  0  3  0  0  0  0  0  0
  158.0130  213.3360  151.2920 C   0  0  0  0  0  0  0  0  0  0  0  0
  158.0310  213.2470  149.8920 C   0  0  0  0  0  3  0  0  0  0  0  0
  156.9870  213.6540  147.6610 C   0  0  0  0  0  1  0  0  0  0  0  0
  155.8810  214.3560  149.7880 C   0  0  0  0  0  3  0  0  0  0  0  0
  156.9660  213.7540  149.1430 C   0  0  0  0  0  0  0  0  0  0  0  0
  155.8640  214.4530  151.1830 C   0  0  0  0  0  3  0  0  0  0  0  0
  163.9470  211.4490  157.2390 N   0  0  0  0  0  1  0  0  0  0  0  0
  163.2890  210.1550  157.1750 C   0  0  0  0  0  2  0  0  0  0  0  0
  1  4  1  0  0  0  0
  2 24  1  6  0  0  0
  2 17  1  0  0  0  0
  3  7  1  0  0  0  0
  4 12  1  0  0  0  0
  4 37  1  0  0  0  0
  5 19  1  0  0  0  0
  6 22  1  0  0  0  0
  6  9  1  0  0  0  0
  7 21  1  0  0  0  0
  8 12  1  0  0  0  0
  9  3  1  0  0  0  0
  9 13  1  0  0  0  0
 10  7  1  0  0  0  0
 10  5  1  0  0  0  0
 11 16  1  0  0  0  0
 11  6  1  0  0  0  0
 13 21  1  0  0  0  0
 14  2  1  0  0  0  0
 15 20  1  0  0  0  0
 15 28  1  0  0  0  0
 16 20  1  0  0  0  0
 17 13  1  0  0  0  0
 18 25  1  0  0  0  0
 18  8  1  0  0  0  0
 19 18  1  0  0  0  0
 20  3  1  0  0  0  0
 21 27  1  0  0  0  0
 22 14  1  0  0  0  0
 22  2  1  0  0  0  0
 23 10  1  0  0  0  0
 26  8  2  0  0  0  0
 27  1  1  0  0  0  0
 27 25  1  0  0  0  0
 28 23  1  0  0  0  0
 30 29  1  0  0  0  0
 30 23  1  0  0  0  0
 31 30  2  0  0  0  0
 32 34  1  0  0  0  0
 33 35  1  0  0  0  0
 34 33  2  0  0  0  0
 34 31  1  0  0  0  0
 35 29  2  0  0  0  0
 37 36  1  0  0  0  0
M  END
>  <MODEL>
1

>  <REMARK>
 VINA RESULT:      -6.7      0.000      0.000
  Name = 
  2 active torsions:
  status: ('A' for Active; 'I' for Inactive)
    1  A    between atoms: C_4  and  C_37
    2  A    between atoms: C_23  and  C_30
                            x       y       z     vdW  Elec       q    Type
                         _______ _______ _______ _____ _____    ______ ____

>  <TORSDO>
F 2

$$$$
