=
 OpenBabel11122413593D

 37 44  0  0  1  0  0  0  0  0999 V2000
  159.9690  210.8330  153.7040 C   0  0  1  0  0  0  0  0  0  0  0  0
  161.6900  207.6610  152.6850 C   0  0  1  0  0  3  0  0  0  0  0  0
  162.9620  207.4450  149.6480 O   0  0  0  0  0  0  0  0  0  0  0  0
  161.2920  209.2390  154.7180 C   0  0  2  0  0  3  0  0  0  0  0  0
  161.3380  208.1100  151.2680 C   0  0  2  0  0  3  0  0  0  0  0  0
  162.0090  208.9860  153.3870 C   0  0  2  0  0  3  0  0  0  0  0  0
  161.7000  207.1160  150.1640 C   0  0  2  0  0  3  0  0  0  0  0  0
  161.2980  207.9590  155.5390 C   0  0  0  0  0  2  0  0  0  0  0  0
  161.7170  210.0720  152.3560 C   0  0  2  0  0  3  0  0  0  0  0  0
  160.7880  211.8550  154.2090 O   0  0  0  0  0  1  0  0  0  0  0  0
  160.4810  205.4380  152.7900 C   0  0  0  0  0  2  0  0  0  0  0  0
  160.5670  206.8050  154.8410 C   0  0  0  0  0  2  0  0  0  0  0  0
  160.3530  210.4640  152.3960 O   0  0  0  0  0  0  0  0  0  0  0  0
  161.4910  208.5870  147.8980 C   0  0  0  0  0  2  0  0  0  0  0  0
  162.8630  208.1730  148.4280 C   0  0  1  0  0  3  0  0  0  0  0  0
  160.5200  206.8760  153.3050 C   0  0  1  0  0  3  0  0  0  0  0  0
  162.0070  209.4010  151.0830 N   0  0  2  0  0  0  0  0  0  0  0  0
  159.9710  209.7020  154.5500 O   0  0  0  0  0  0  0  0  0  0  0  0
  161.6030  205.6310  150.5620 C   0  0  1  0  0  3  0  0  0  0  0  0
  158.6760  211.3160  153.6450 F   0  0  0  0  0  0  0  0  0  0  0  0
  162.3470  209.6180  148.6150 C   0  0  2  0  0  3  0  0  0  0  0  0
  161.5380  210.0800  149.8560 C   0  0  2  0  0  3  0  0  0  0  0  0
  160.2910  205.3370  151.2820 C   0  0  0  0  0  2  0  0  0  0  0  0
  161.1490  205.2720  148.1010 C   0  0  0  0  0  2  0  0  0  0  0  0
  161.7540  204.6780  149.3700 C   0  0  2  0  0  3  0  0  0  0  0  0
  161.1990  203.2770  149.6570 C   0  0  0  0  0  2  0  0  0  0  0  0
  161.0290  201.1790  148.5360 O   0  0  0  0  0  0  0  0  0  0  0  0
  161.1570  203.0230  147.1230 N   0  0  0  0  0  2  0  0  0  0  0  0
  161.1560  202.4260  148.4240 C   0  0  0  0  0  0  0  0  0  0  0  0
  161.5530  204.4120  146.9110 C   0  0  0  0  0  2  0  0  0  0  0  0
  161.7330  211.6140  149.9290 C   0  0  1  0  0  3  0  0  0  0  0  0
  161.4680  212.3590  148.6610 N   0  0  0  0  0  0  0  0  0  0  0  0
  160.4840  212.3500  149.7510 C   0  0  2  0  0  3  0  0  0  0  0  0
  160.5600  213.6630  150.5030 C   0  0  0  0  0  2  0  0  0  0  0  0
  159.9270  213.5310  151.7240 F   0  0  0  0  0  0  0  0  0  0  0  0
  159.9010  212.3080  146.9510 F   0  0  0  0  0  0  0  0  0  0  0  0
  160.8650  211.5590  147.6000 C   0  0  0  0  0  2  0  0  0  0  0  0
  1 20  1  6  0  0  0
  1 10  1  0  0  0  0
  1 18  1  0  0  0  0
  2 16  1  0  0  0  0
  2  6  1  0  0  0  0
  3  7  1  0  0  0  0
  4  8  1  0  0  0  0
  5  2  1  0  0  0  0
  6  4  1  0  0  0  0
  7 19  1  0  0  0  0
  7  5  1  0  0  0  0
  9 13  1  0  0  0  0
  9  6  1  0  0  0  0
 11 16  1  0  0  0  0
 12  8  1  0  0  0  0
 13  1  1  0  0  0  0
 14 15  1  0  0  0  0
 14 21  1  0  0  0  0
 15 21  1  0  0  0  0
 15  3  1  0  0  0  0
 16 12  1  0  0  0  0
 17  5  1  0  0  0  0
 17  9  1  0  0  0  0
 18  4  1  0  0  0  0
 19 23  1  0  0  0  0
 21 22  1  0  0  0  0
 22 31  1  0  0  0  0
 22 17  1  0  0  0  0
 23 11  1  0  0  0  0
 24 25  1  0  0  0  0
 25 26  1  0  0  0  0
 25 19  1  0  0  0  0
 28 29  1  0  0  0  0
 29 27  2  0  0  0  0
 29 26  1  0  0  0  0
 30 28  1  0  0  0  0
 30 24  1  0  0  0  0
 32 33  1  0  0  0  0
 32 31  1  0  0  0  0
 33 31  1  0  0  0  0
 33 34  1  0  0  0  0
 34 35  1  0  0  0  0
 36 37  1  0  0  0  0
 37 32  1  0  0  0  0
M  END
>  <MODEL>
1

>  <REMARK>
 VINA RESULT:      -6.0      0.000      0.000
  Name = 
  4 active torsions:
  status: ('A' for Active; 'I' for Inactive)
    1  A    between atoms: C_1  and  C_27
    2  A    between atoms: N_4  and  C_37
    3  A    between atoms: C_8  and  C_12
    4  A    between atoms: C_23  and  C_30
                            x       y       z     vdW  Elec       q    Type
                         _______ _______ _______ _____ _____    ______ ____

>  <TORSDO>
F 4

$$$$
=
 OpenBabel11122413593D

 37 44  0  0  1  0  0  0  0  0999 V2000
  159.6990  211.0360  153.9680 C   0  0  1  0  0  0  0  0  0  0  0  0
  161.6830  208.2560  152.4170 C   0  0  1  0  0  3  0  0  0  0  0  0
  162.8490  208.6490  149.3550 O   0  0  0  0  0  0  0  0  0  0  0  0
  161.2120  209.4480  154.6840 C   0  0  2  0  0  3  0  0  0  0  0  0
  161.2330  208.8820  151.0980 C   0  0  2  0  0  3  0  0  0  0  0  0
  161.8970  209.4810  153.3130 C   0  0  2  0  0  3  0  0  0  0  0  0
  161.6460  208.1150  149.8410 C   0  0  2  0  0  3  0  0  0  0  0  0
  161.3770  208.0640  155.2900 C   0  0  0  0  0  2  0  0  0  0  0  0
  161.4590  210.6790  152.4750 C   0  0  2  0  0  3  0  0  0  0  0  0
  160.4330  212.0460  154.6090 O   0  0  0  0  0  1  0  0  0  0  0  0
  160.7040  205.9310  152.1950 C   0  0  0  0  0  2  0  0  0  0  0  0
  160.7360  206.9630  154.4350 C   0  0  0  0  0  2  0  0  0  0  0  0
  160.0660  210.9170  152.6090 O   0  0  0  0  0  0  0  0  0  0  0  0
  161.2050  209.8920  147.8440 C   0  0  0  0  0  2  0  0  0  0  0  0
  162.6300  209.5440  148.2690 C   0  0  1  0  0  3  0  0  0  0  0  0
  160.6210  207.2670  152.9320 C   0  0  1  0  0  3  0  0  0  0  0  0
  161.7640  210.2480  151.1050 N   0  0  2  0  0  0  0  0  0  0  0  0
  159.8460  209.7930  154.6230 O   0  0  0  0  0  0  0  0  0  0  0  0
  161.7130  206.5840  150.0000 C   0  0  1  0  0  3  0  0  0  0  0  0
  158.3640  211.3860  154.0170 F   0  0  0  0  0  0  0  0  0  0  0  0
  161.9820  210.8820  148.6950 C   0  0  2  0  0  3  0  0  0  0  0  0
  161.1820  211.0580  150.0130 C   0  0  2  0  0  3  0  0  0  0  0  0
  160.4650  206.0480  150.6950 C   0  0  0  0  0  2  0  0  0  0  0  0
  161.2020  206.5710  147.5250 C   0  0  0  0  0  2  0  0  0  0  0  0
  161.9100  205.8500  148.6690 C   0  0  2  0  0  3  0  0  0  0  0  0
  161.5020  204.3720  148.7420 C   0  0  0  0  0  2  0  0  0  0  0  0
  161.4930  202.4690  147.3040 O   0  0  0  0  0  0  0  0  0  0  0  0
  161.3900  204.5150  146.2010 N   0  0  0  0  0  2  0  0  0  0  0  0
  161.4950  203.7240  147.3890 C   0  0  0  0  0  0  0  0  0  0  0  0
  161.6420  205.9520  146.2040 C   0  0  0  0  0  2  0  0  0  0  0  0
  161.2270  212.5740  150.3250 C   0  0  1  0  0  3  0  0  0  0  0  0
  160.7430  213.4710  149.2330 N   0  0  0  0  0  0  0  0  0  0  0  0
  159.8980  213.1750  150.3970 C   0  0  2  0  0  3  0  0  0  0  0  0
  159.9270  214.3530  151.3480 C   0  0  0  0  0  2  0  0  0  0  0  0
  159.1210  214.0840  152.4380 F   0  0  0  0  0  0  0  0  0  0  0  0
  158.7470  213.0430  148.1290 F   0  0  0  0  0  0  0  0  0  0  0  0
  160.1040  212.7820  148.1160 C   0  0  0  0  0  2  0  0  0  0  0  0
  1 20  1  1  0  0  0
  1 10  1  0  0  0  0
  1 18  1  0  0  0  0
  2 16  1  0  0  0  0
  2  6  1  0  0  0  0
  3  7  1  0  0  0  0
  4  8  1  0  0  0  0
  5 17  1  0  0  0  0
  5  2  1  0  0  0  0
  6  4  1  0  0  0  0
  7 19  1  0  0  0  0
  7  5  1  0  0  0  0
  9 13  1  0  0  0  0
  9  6  1  0  0  0  0
 11 16  1  0  0  0  0
 12  8  1  0  0  0  0
 13  1  1  0  0  0  0
 14 15  1  0  0  0  0
 14 21  1  0  0  0  0
 15 21  1  0  0  0  0
 15  3  1  0  0  0  0
 16 12  1  0  0  0  0
 17  9  1  0  0  0  0
 18  4  1  0  0  0  0
 19 23  1  0  0  0  0
 21 22  1  0  0  0  0
 22 31  1  0  0  0  0
 22 17  1  0  0  0  0
 23 11  1  0  0  0  0
 24 25  1  0  0  0  0
 25 26  1  0  0  0  0
 25 19  1  0  0  0  0
 27 29  2  0  0  0  0
 28 30  1  0  0  0  0
 28 29  1  0  0  0  0
 29 26  1  0  0  0  0
 30 24  1  0  0  0  0
 31 33  1  0  0  0  0
 32 31  1  0  0  0  0
 32 33  1  0  0  0  0
 33 34  1  0  0  0  0
 34 35  1  0  0  0  0
 37 36  1  0  0  0  0
 37 32  1  0  0  0  0
M  END
>  <MODEL>
2

>  <REMARK>
 VINA RESULT:      -5.1      1.032      1.141
  Name = 
  4 active torsions:
  status: ('A' for Active; 'I' for Inactive)
    1  A    between atoms: C_1  and  C_27
    2  A    between atoms: N_4  and  C_37
    3  A    between atoms: C_8  and  C_12
    4  A    between atoms: C_23  and  C_30
                            x       y       z     vdW  Elec       q    Type
                         _______ _______ _______ _____ _____    ______ ____

>  <TORSDO>
F 4

$$$$
=
 OpenBabel11122413593D

 37 44  0  0  1  0  0  0  0  0999 V2000
  158.7370  210.9050  156.0510 C   0  0  1  0  0  0  0  0  0  0  0  0
  161.3400  208.8640  154.2830 C   0  0  1  0  0  3  0  0  0  0  0  0
  162.4400  209.8870  151.3450 O   0  0  0  0  0  0  0  0  0  0  0  0
  160.5640  209.6290  156.6490 C   0  0  2  0  0  3  0  0  0  0  0  0
  160.7820  209.5290  153.0260 C   0  0  2  0  0  3  0  0  0  0  0  0
  161.2470  209.9860  155.3240 C   0  0  2  0  0  3  0  0  0  0  0  0
  161.3850  209.0370  151.7100 C   0  0  2  0  0  3  0  0  0  0  0  0
  161.0340  208.2540  157.0970 C   0  0  0  0  0  2  0  0  0  0  0  0
  160.5590  211.1460  154.6100 C   0  0  2  0  0  3  0  0  0  0  0  0
  159.2040  211.9690  156.8380 O   0  0  0  0  0  1  0  0  0  0  0  0
  160.9320  206.4230  153.7480 C   0  0  0  0  0  2  0  0  0  0  0  0
  160.6810  207.1510  156.0920 C   0  0  0  0  0  2  0  0  0  0  0  0
  159.1470  211.0410  154.7060 O   0  0  0  0  0  0  0  0  0  0  0  0
  160.5810  210.8980  149.9130 C   0  0  0  0  0  2  0  0  0  0  0  0
  162.0400  210.8350  150.3600 C   0  0  1  0  0  3  0  0  0  0  0  0
  160.5270  207.6040  154.6300 C   0  0  1  0  0  3  0  0  0  0  0  0
  160.9810  210.9680  153.2160 N   0  0  2  0  0  0  0  0  0  0  0  0
  159.1560  209.6580  156.5640 O   0  0  0  0  0  0  0  0  0  0  0  0
  161.8020  207.5540  151.6930 C   0  0  1  0  0  3  0  0  0  0  0  0
  157.3560  210.9320  156.0780 F   0  0  0  0  0  0  0  0  0  0  0  0
  161.0910  211.9270  150.9080 C   0  0  2  0  0  3  0  0  0  0  0  0
  160.2470  211.7530  152.1980 C   0  0  2  0  0  3  0  0  0  0  0  0
  160.7000  206.6660  152.2630 C   0  0  0  0  0  2  0  0  0  0  0  0
  161.7780  208.0480  149.2150 C   0  0  0  0  0  2  0  0  0  0  0  0
  162.1890  207.0540  150.2970 C   0  0  2  0  0  3  0  0  0  0  0  0
  161.6520  205.6460  150.0020 C   0  0  0  0  0  2  0  0  0  0  0  0
  161.7590  204.0490  148.2340 O   0  0  0  0  0  0  0  0  0  0  0  0
  162.0420  206.2580  147.5600 N   0  0  0  0  0  2  0  0  0  0  0  0
  161.8500  205.2590  148.5670 C   0  0  0  0  0  0  0  0  0  0  0  0
  162.4090  207.6310  147.8930 C   0  0  0  0  0  2  0  0  0  0  0  0
  159.9340  213.1880  152.6860 C   0  0  1  0  0  3  0  0  0  0  0  0
  158.8820  213.9150  151.9130 N   0  0  0  0  0  0  0  0  0  0  0  0
  158.5810  213.3190  153.2210 C   0  0  2  0  0  3  0  0  0  0  0  0
  158.5590  214.4090  154.2730 C   0  0  0  0  0  2  0  0  0  0  0  0
  157.5420  214.1580  155.1740 F   0  0  0  0  0  0  0  0  0  0  0  0
  158.4380  213.5340  149.6680 F   0  0  0  0  0  0  0  0  0  0  0  0
  158.1580  213.0940  150.9480 C   0  0  0  0  0  2  0  0  0  0  0  0
  1 20  1  1  0  0  0
  1 18  1  0  0  0  0
  1 10  1  0  0  0  0
  2 16  1  0  0  0  0
  2  6  1  0  0  0  0
  3  7  1  0  0  0  0
  4  8  1  0  0  0  0
  5 17  1  0  0  0  0
  5  2  1  0  0  0  0
  6  4  1  0  0  0  0
  7  5  1  0  0  0  0
  9 13  1  0  0  0  0
  9  6  1  0  0  0  0
 11 16  1  0  0  0  0
 12  8  1  0  0  0  0
 13  1  1  0  0  0  0
 14 15  1  0  0  0  0
 14 21  1  0  0  0  0
 15 21  1  0  0  0  0
 15  3  1  0  0  0  0
 16 12  1  0  0  0  0
 17  9  1  0  0  0  0
 18  4  1  0  0  0  0
 19  7  1  0  0  0  0
 19 23  1  0  0  0  0
 21 22  1  0  0  0  0
 22 31  1  0  0  0  0
 22 17  1  0  0  0  0
 23 11  1  0  0  0  0
 24 25  1  0  0  0  0
 25 19  1  0  0  0  0
 26 25  1  0  0  0  0
 27 29  2  0  0  0  0
 28 30  1  0  0  0  0
 28 29  1  0  0  0  0
 29 26  1  0  0  0  0
 30 24  1  0  0  0  0
 31 33  1  0  0  0  0
 32 31  1  0  0  0  0
 32 33  1  0  0  0  0
 33 34  1  0  0  0  0
 34 35  1  0  0  0  0
 36 37  1  0  0  0  0
 37 32  1  0  0  0  0
M  END
>  <MODEL>
3

>  <REMARK>
 VINA RESULT:      -5.1      2.120      2.977
  Name = 
  4 active torsions:
  status: ('A' for Active; 'I' for Inactive)
    1  A    between atoms: C_1  and  C_27
    2  A    between atoms: N_4  and  C_37
    3  A    between atoms: C_8  and  C_12
    4  A    between atoms: C_23  and  C_30
                            x       y       z     vdW  Elec       q    Type
                         _______ _______ _______ _____ _____    ______ ____

>  <TORSDO>
F 4

$$$$
=
 OpenBabel11122413593D

 37 44  0  0  1  0  0  0  0  0999 V2000
  161.6890  208.5830  148.9570 C   0  0  1  0  0  0  0  0  0  0  0  0
  161.3000  211.7030  151.0040 C   0  0  1  0  0  3  0  0  0  0  0  0
  161.0320  211.4330  154.2810 O   0  0  0  0  0  0  0  0  0  0  0  0
  162.4690  210.7530  148.8790 C   0  0  2  0  0  3  0  0  0  0  0  0
  160.6490  210.7660  152.0200 C   0  0  2  0  0  3  0  0  0  0  0  0
  162.4120  210.8300  150.4080 C   0  0  2  0  0  3  0  0  0  0  0  0
  160.0730  211.4530  153.2580 C   0  0  2  0  0  3  0  0  0  0  0  0
  162.2440  212.1410  148.3010 C   0  0  0  0  0  2  0  0  0  0  0  0
  162.2390  209.4570  151.0520 C   0  0  2  0  0  3  0  0  0  0  0  0
  162.9950  208.0920  148.8070 O   0  0  0  0  0  1  0  0  0  0  0  0
  159.3990  213.3150  150.5610 C   0  0  0  0  0  2  0  0  0  0  0  0
  160.8750  212.7230  148.6750 C   0  0  0  0  0  2  0  0  0  0  0  0
  161.3210  208.6590  150.3190 O   0  0  0  0  0  0  0  0  0  0  0  0
  159.6450  209.4030  154.9760 C   0  0  0  0  0  2  0  0  0  0  0  0
  160.7840  210.3900  155.2190 C   0  0  1  0  0  3  0  0  0  0  0  0
  160.2580  212.1930  149.9820 C   0  0  1  0  0  3  0  0  0  0  0  0
  161.6780  209.7820  152.3690 N   0  0  2  0  0  0  0  0  0  0  0  0
  161.5350  209.8440  148.3400 O   0  0  0  0  0  0  0  0  0  0  0  0
  159.5080  212.8670  153.0200 C   0  0  1  0  0  3  0  0  0  0  0  0
  160.8290  207.6990  148.3350 F   0  0  0  0  0  0  0  0  0  0  0  0
  161.0690  208.9780  154.6580 C   0  0  2  0  0  3  0  0  0  0  0  0
  161.1070  208.6560  153.1400 C   0  0  2  0  0  3  0  0  0  0  0  0
  158.6040  212.8990  151.7920 C   0  0  0  0  0  2  0  0  0  0  0  0
  159.6770  213.6700  155.4110 C   0  0  0  0  0  2  0  0  0  0  0  0
  158.7440  213.4200  154.2290 C   0  0  2  0  0  3  0  0  0  0  0  0
  157.5510  212.5410  154.6290 C   0  0  0  0  0  2  0  0  0  0  0  0
  155.7960  212.5730  156.2430 O   0  0  0  0  0  0  0  0  0  0  0  0
  157.7040  213.7490  156.8660 N   0  0  0  0  0  2  0  0  0  0  0  0
  156.9480  212.9720  155.9320 C   0  0  0  0  0  0  0  0  0  0  0  0
  158.9230  214.4520  156.4780 C   0  0  0  0  0  2  0  0  0  0  0  0
  161.9590  207.3710  153.0110 C   0  0  1  0  0  3  0  0  0  0  0  0
  161.5320  206.2250  153.8700 N   0  0  0  0  0  0  0  0  0  0  0  0
  161.2120  206.2540  152.4370 C   0  0  2  0  0  3  0  0  0  0  0  0
  162.1640  205.3400  151.6940 C   0  0  0  0  0  2  0  0  0  0  0  0
  161.7860  204.0250  151.8900 F   0  0  0  0  0  0  0  0  0  0  0  0
  160.4440  206.3610  155.9140 F   0  0  0  0  0  0  0  0  0  0  0  0
  160.2540  206.4150  154.5470 C   0  0  0  0  0  2  0  0  0  0  0  0
  1 20  1  6  0  0  0
  1 13  1  0  0  0  0
  2  5  1  0  0  0  0
  3 15  1  0  0  0  0
  4  6  1  0  0  0  0
  5 17  1  0  0  0  0
  5  7  1  0  0  0  0
  6  2  1  0  0  0  0
  6  9  1  0  0  0  0
  7  3  1  0  0  0  0
  8 12  1  0  0  0  0
  8  4  1  0  0  0  0
  9 17  1  0  0  0  0
 10  1  1  0  0  0  0
 11 23  1  0  0  0  0
 12 16  1  0  0  0  0
 13  9  1  0  0  0  0
 14 15  1  0  0  0  0
 16 11  1  0  0  0  0
 16  2  1  0  0  0  0
 17 22  1  0  0  0  0
 18  4  1  0  0  0  0
 18  1  1  0  0  0  0
 19  7  1  0  0  0  0
 19 25  1  0  0  0  0
 21 14  1  0  0  0  0
 21 15  1  0  0  0  0
 22 21  1  0  0  0  0
 23 19  1  0  0  0  0
 24 30  1  0  0  0  0
 25 26  1  0  0  0  0
 25 24  1  0  0  0  0
 26 29  1  0  0  0  0
 29 27  2  0  0  0  0
 29 28  1  0  0  0  0
 30 28  1  0  0  0  0
 31 22  1  0  0  0  0
 31 32  1  0  0  0  0
 32 37  1  0  0  0  0
 33 31  1  0  0  0  0
 33 32  1  0  0  0  0
 34 35  1  0  0  0  0
 34 33  1  0  0  0  0
 37 36  1  0  0  0  0
M  END
>  <MODEL>
4

>  <REMARK>
 VINA RESULT:      -4.9      3.133      8.288
  Name = 
  4 active torsions:
  status: ('A' for Active; 'I' for Inactive)
    1  A    between atoms: C_1  and  C_27
    2  A    between atoms: N_4  and  C_37
    3  A    between atoms: C_8  and  C_12
    4  A    between atoms: C_23  and  C_30
                            x       y       z     vdW  Elec       q    Type
                         _______ _______ _______ _____ _____    ______ ____

>  <TORSDO>
F 4

$$$$
=
 OpenBabel11122413593D

 37 44  0  0  1  0  0  0  0  0999 V2000
  162.6230  206.0450  147.4420 C   0  0  1  0  0  0  0  0  0  0  0  0
  160.7040  206.1020  150.6640 C   0  0  1  0  0  3  0  0  0  0  0  0
  160.4410  208.9480  152.3110 O   0  0  0  0  0  0  0  0  0  0  0  0
  160.7520  205.0060  148.3010 C   0  0  2  0  0  3  0  0  0  0  0  0
  161.5690  207.3210  150.9760 C   0  0  2  0  0  3  0  0  0  0  0  0
  160.4570  206.2430  149.1570 C   0  0  2  0  0  3  0  0  0  0  0  0
  161.3810  207.9090  152.3750 C   0  0  2  0  0  3  0  0  0  0  0  0
  160.2260  203.7700  149.0130 C   0  0  0  0  0  2  0  0  0  0  0  0
  161.2740  207.4560  148.7240 C   0  0  2  0  0  3  0  0  0  0  0  0
  161.9130  206.4000  146.2840 O   0  0  0  0  0  1  0  0  0  0  0  0
  161.3380  204.5700  152.5780 C   0  0  0  0  0  2  0  0  0  0  0  0
  160.8890  203.5470  150.3780 C   0  0  0  0  0  2  0  0  0  0  0  0
  162.6050  207.0870  148.3960 O   0  0  0  0  0  0  0  0  0  0  0  0
  162.5890  210.3280  152.2100 C   0  0  0  0  0  2  0  0  0  0  0  0
  161.0670  210.2280  152.2780 C   0  0  1  0  0  3  0  0  0  0  0  0
  161.4320  204.8080  151.0710 C   0  0  1  0  0  3  0  0  0  0  0  0
  161.2710  208.2990  149.9260 N   0  0  2  0  0  0  0  0  0  0  0  0
  162.1240  204.8540  148.0120 O   0  0  0  0  0  0  0  0  0  0  0  0
  161.0410  206.8860  153.4750 C   0  0  1  0  0  3  0  0  0  0  0  0
  163.9380  205.8240  147.0810 F   0  0  0  0  0  0  0  0  0  0  0  0
  161.7800  210.5280  150.9390 C   0  0  2  0  0  3  0  0  0  0  0  0
  162.2320  209.4230  149.9480 C   0  0  2  0  0  3  0  0  0  0  0  0
  161.9700  205.6780  153.4100 C   0  0  0  0  0  2  0  0  0  0  0  0
  159.8700  207.0620  155.7090 C   0  0  0  0  0  2  0  0  0  0  0  0
  161.0840  207.4850  154.8860 C   0  0  2  0  0  3  0  0  0  0  0  0
  161.2540  209.0110  154.8760 C   0  0  0  0  0  2  0  0  0  0  0  0
  161.4870  210.7720  156.4670 O   0  0  0  0  0  0  0  0  0  0  0  0
  160.3640  208.8960  157.2610 N   0  0  0  0  0  2  0  0  0  0  0  0
  161.0780  209.6040  156.2420 C   0  0  0  0  0  0  0  0  0  0  0  0
  160.0920  207.4650  157.1600 C   0  0  0  0  0  2  0  0  0  0  0  0
  162.3410  210.1220  148.5700 C   0  0  1  0  0  3  0  0  0  0  0  0
  161.4170  211.2780  148.3600 N   0  0  0  0  0  0  0  0  0  0  0  0
  162.8360  211.4930  148.6710 C   0  0  2  0  0  3  0  0  0  0  0  0
  163.5770  211.8560  147.4020 C   0  0  0  0  0  2  0  0  0  0  0  0
  162.9230  212.8950  146.7680 F   0  0  0  0  0  0  0  0  0  0  0  0
  160.5540  213.0830  149.5340 F   0  0  0  0  0  0  0  0  0  0  0  0
  160.6980  211.7090  149.5540 C   0  0  0  0  0  2  0  0  0  0  0  0
  1 10  1  6  0  0  0
  1 18  1  0  0  0  0
  1 13  1  0  0  0  0
  2  5  1  0  0  0  0
  2 16  1  0  0  0  0
  3  7  1  0  0  0  0
  4  8  1  0  0  0  0
  4  6  1  0  0  0  0
  5  7  1  0  0  0  0
  6  2  1  0  0  0  0
  7 19  1  0  0  0  0
  8 12  1  0  0  0  0
  9  6  1  0  0  0  0
  9 17  1  0  0  0  0
 11 23  1  0  0  0  0
 12 16  1  0  0  0  0
 13  9  1  0  0  0  0
 14 15  1  0  0  0  0
 15  3  1  0  0  0  0
 16 11  1  0  0  0  0
 17 22  1  0  0  0  0
 17  5  1  0  0  0  0
 18  4  1  0  0  0  0
 19 25  1  0  0  0  0
 20  1  1  0  0  0  0
 21 14  1  0  0  0  0
 21 15  1  0  0  0  0
 22 21  1  0  0  0  0
 23 19  1  0  0  0  0
 24 30  1  0  0  0  0
 25 24  1  0  0  0  0
 26 25  1  0  0  0  0
 26 29  1  0  0  0  0
 29 27  2  0  0  0  0
 29 28  1  0  0  0  0
 30 28  1  0  0  0  0
 31 33  1  0  0  0  0
 31 22  1  0  0  0  0
 32 31  1  0  0  0  0
 32 33  1  0  0  0  0
 32 37  1  0  0  0  0
 34 33  1  0  0  0  0
 35 34  1  0  0  0  0
 36 37  1  0  0  0  0
M  END
>  <MODEL>
5

>  <REMARK>
 VINA RESULT:      -4.9      2.293      6.251
  Name = 
  4 active torsions:
  status: ('A' for Active; 'I' for Inactive)
    1  A    between atoms: C_1  and  C_27
    2  A    between atoms: N_4  and  C_37
    3  A    between atoms: C_8  and  C_12
    4  A    between atoms: C_23  and  C_30
                            x       y       z     vdW  Elec       q    Type
                         _______ _______ _______ _____ _____    ______ ____

>  <TORSDO>
F 4

$$$$
=
 OpenBabel11122413593D

 37 44  0  0  1  0  0  0  0  0999 V2000
  161.4830  208.1890  148.4080 C   0  0  1  0  0  0  0  0  0  0  0  0
  161.6350  210.6320  151.2510 C   0  0  1  0  0  3  0  0  0  0  0  0
  161.6960  209.4770  154.3400 O   0  0  0  0  0  0  0  0  0  0  0  0
  162.4660  210.2370  148.8140 C   0  0  2  0  0  3  0  0  0  0  0  0
  161.0060  209.4950  152.0540 C   0  0  2  0  0  3  0  0  0  0  0  0
  162.5820  209.8870  150.3010 C   0  0  2  0  0  3  0  0  0  0  0  0
  160.6390  209.8460  153.4960 C   0  0  2  0  0  3  0  0  0  0  0  0
  162.3200  211.7420  148.6650 C   0  0  0  0  0  2  0  0  0  0  0  0
  162.3410  208.4040  150.5700 C   0  0  2  0  0  3  0  0  0  0  0  0
  162.7090  207.6720  147.9610 O   0  0  0  0  0  1  0  0  0  0  0  0
  159.8700  212.4280  151.5120 C   0  0  0  0  0  2  0  0  0  0  0  0
  161.0660  212.2870  149.3590 C   0  0  0  0  0  2  0  0  0  0  0  0
  161.2740  207.9060  149.7760 O   0  0  0  0  0  0  0  0  0  0  0  0
  160.1940  207.4310  154.6400 C   0  0  0  0  0  2  0  0  0  0  0  0
  161.4470  208.2320  154.9880 C   0  0  1  0  0  3  0  0  0  0  0  0
  160.5440  211.4570  150.5440 C   0  0  1  0  0  3  0  0  0  0  0  0
  161.9620  208.3850  151.9870 N   0  0  2  0  0  0  0  0  0  0  0  0
  161.3910  209.5790  148.1790 O   0  0  0  0  0  0  0  0  0  0  0  0
  160.1970  211.3050  153.7230 C   0  0  1  0  0  3  0  0  0  0  0  0
  160.4760  207.5730  147.6900 F   0  0  0  0  0  0  0  0  0  0  0  0
  161.5250  207.0170  154.0350 C   0  0  2  0  0  3  0  0  0  0  0  0
  161.3660  207.1300  152.4960 C   0  0  2  0  0  3  0  0  0  0  0  0
  159.1740  211.7390  152.6790 C   0  0  0  0  0  2  0  0  0  0  0  0
  158.3750  210.7150  155.3730 C   0  0  0  0  0  2  0  0  0  0  0  0
  159.6290  211.5490  155.1260 C   0  0  2  0  0  3  0  0  0  0  0  0
  159.3820  213.0360  155.4150 C   0  0  0  0  0  2  0  0  0  0  0  0
  158.6220  214.3810  157.2310 O   0  0  0  0  0  0  0  0  0  0  0  0
  157.8450  212.1880  157.2610 N   0  0  0  0  0  2  0  0  0  0  0  0
  158.6310  213.2430  156.6960 C   0  0  0  0  0  0  0  0  0  0  0  0
  158.0090  210.7970  156.8480 C   0  0  0  0  0  2  0  0  0  0  0  0
  162.0660  205.8770  151.9140 C   0  0  1  0  0  3  0  0  0  0  0  0
  161.5880  204.5670  152.4480 N   0  0  0  0  0  0  0  0  0  0  0  0
  161.1620  205.0420  151.1260 C   0  0  2  0  0  3  0  0  0  0  0  0
  161.9510  204.3160  150.0570 C   0  0  0  0  0  2  0  0  0  0  0  0
  161.3830  204.5590  148.8210 F   0  0  0  0  0  0  0  0  0  0  0  0
  159.5910  203.5470  153.0460 F   0  0  0  0  0  0  0  0  0  0  0  0
  160.3930  204.6480  153.2820 C   0  0  0  0  0  2  0  0  0  0  0  0
  1 20  1  6  0  0  0
  1 13  1  0  0  0  0
  2  5  1  0  0  0  0
  3 15  1  0  0  0  0
  4  6  1  0  0  0  0
  5  7  1  0  0  0  0
  6  9  1  0  0  0  0
  6  2  1  0  0  0  0
  7 19  1  0  0  0  0
  7  3  1  0  0  0  0
  8  4  1  0  0  0  0
  8 12  1  0  0  0  0
  9 17  1  0  0  0  0
 10  1  1  0  0  0  0
 11 23  1  0  0  0  0
 12 16  1  0  0  0  0
 13  9  1  0  0  0  0
 14 15  1  0  0  0  0
 16  2  1  0  0  0  0
 16 11  1  0  0  0  0
 17  5  1  0  0  0  0
 17 22  1  0  0  0  0
 18  1  1  0  0  0  0
 18  4  1  0  0  0  0
 19 25  1  0  0  0  0
 21 14  1  0  0  0  0
 21 15  1  0  0  0  0
 22 21  1  0  0  0  0
 23 19  1  0  0  0  0
 24 30  1  0  0  0  0
 25 24  1  0  0  0  0
 25 26  1  0  0  0  0
 26 29  1  0  0  0  0
 29 27  2  0  0  0  0
 29 28  1  0  0  0  0
 30 28  1  0  0  0  0
 31 32  1  0  0  0  0
 31 22  1  0  0  0  0
 32 37  1  0  0  0  0
 33 31  1  0  0  0  0
 33 32  1  0  0  0  0
 34 33  1  0  0  0  0
 35 34  1  0  0  0  0
 36 37  1  0  0  0  0
M  END
>  <MODEL>
6

>  <REMARK>
 VINA RESULT:      -4.2      3.079      8.067
  Name = 
  4 active torsions:
  status: ('A' for Active; 'I' for Inactive)
    1  A    between atoms: C_1  and  C_27
    2  A    between atoms: N_4  and  C_37
    3  A    between atoms: C_8  and  C_12
    4  A    between atoms: C_23  and  C_30
                            x       y       z     vdW  Elec       q    Type
                         _______ _______ _______ _____ _____    ______ ____

>  <TORSDO>
F 4

$$$$
=
 OpenBabel11122413593D

 37 44  0  0  1  0  0  0  0  0999 V2000
  158.0680  210.8210  155.4660 C   0  0  1  0  0  0  0  0  0  0  0  0
  160.9450  211.3740  153.1230 C   0  0  1  0  0  3  0  0  0  0  0  0
  160.6410  213.6270  150.7320 O   0  0  0  0  0  0  0  0  0  0  0  0
  160.3710  210.8080  155.6000 C   0  0  2  0  0  3  0  0  0  0  0  0
  159.8660  211.8840  152.1700 C   0  0  2  0  0  3  0  0  0  0  0  0
  160.4430  211.8600  154.4880 C   0  0  2  0  0  3  0  0  0  0  0  0
  160.3600  212.2530  150.7700 C   0  0  2  0  0  3  0  0  0  0  0  0
  161.6200  209.9430  155.5490 C   0  0  0  0  0  2  0  0  0  0  0  0
  159.0890  212.5080  154.2150 C   0  0  2  0  0  3  0  0  0  0  0  0
  157.9930  211.6750  156.5770 O   0  0  0  0  0  1  0  0  0  0  0  0
  161.9040  209.4590  151.7720 C   0  0  0  0  0  2  0  0  0  0  0  0
  161.7650  209.1900  154.2210 C   0  0  0  0  0  2  0  0  0  0  0  0
  158.0440  211.5480  154.2550 O   0  0  0  0  0  0  0  0  0  0  0  0
  158.2940  213.6580  149.7230 C   0  0  0  0  0  2  0  0  0  0  0  0
  159.5820  214.3680  150.1340 C   0  0  1  0  0  3  0  0  0  0  0  0
  161.0870  209.8450  153.0050 C   0  0  1  0  0  3  0  0  0  0  0  0
  159.2430  213.0230  152.8490 N   0  0  2  0  0  0  0  0  0  0  0  0
  159.2170  210.0020  155.5180 O   0  0  0  0  0  0  0  0  0  0  0  0
  161.5340  211.4050  150.2450 C   0  0  1  0  0  3  0  0  0  0  0  0
  156.9590  209.9980  155.4880 F   0  0  0  0  0  0  0  0  0  0  0  0
  158.3150  214.4530  151.0180 C   0  0  2  0  0  3  0  0  0  0  0  0
  158.0050  213.4490  152.1600 C   0  0  2  0  0  3  0  0  0  0  0  0
  161.2790  209.9170  150.4610 C   0  0  0  0  0  2  0  0  0  0  0  0
  163.0450  212.5850  148.5970 C   0  0  0  0  0  2  0  0  0  0  0  0
  161.8440  211.6600  148.7650 C   0  0  2  0  0  3  0  0  0  0  0  0
  160.6250  212.1710  147.9850 C   0  0  0  0  0  2  0  0  0  0  0  0
  160.0870  212.7650  145.7380 O   0  0  0  0  0  0  0  0  0  0  0  0
  162.3390  212.9740  146.2810 N   0  0  0  0  0  2  0  0  0  0  0  0
  160.9910  212.6180  146.6010 C   0  0  0  0  0  0  0  0  0  0  0  0
  163.4620  212.5940  147.1330 C   0  0  0  0  0  2  0  0  0  0  0  0
  157.0360  214.1920  153.1110 C   0  0  1  0  0  3  0  0  0  0  0  0
  155.6460  214.3790  152.5970 N   0  0  0  0  0  0  0  0  0  0  0  0
  155.9500  213.3390  153.5890 C   0  0  2  0  0  3  0  0  0  0  0  0
  155.5050  213.8080  154.9580 C   0  0  0  0  0  2  0  0  0  0  0  0
  155.0770  212.7240  155.6990 F   0  0  0  0  0  0  0  0  0  0  0  0
  154.5750  214.4460  150.5400 F   0  0  0  0  0  0  0  0  0  0  0  0
  155.3480  213.6530  151.3670 C   0  0  0  0  0  2  0  0  0  0  0  0
  1 20  1  1  0  0  0
  1 18  1  0  0  0  0
  1 10  1  0  0  0  0
  2  6  1  0  0  0  0
  3  7  1  0  0  0  0
  5 17  1  0  0  0  0
  5  2  1  0  0  0  0
  6  4  1  0  0  0  0
  7  5  1  0  0  0  0
  8  4  1  0  0  0  0
  9 13  1  0  0  0  0
  9  6  1  0  0  0  0
 11 16  1  0  0  0  0
 12  8  1  0  0  0  0
 13  1  1  0  0  0  0
 14 15  1  0  0  0  0
 14 21  1  0  0  0  0
 15  3  1  0  0  0  0
 15 21  1  0  0  0  0
 16  2  1  0  0  0  0
 16 12  1  0  0  0  0
 17  9  1  0  0  0  0
 18  4  1  0  0  0  0
 19 23  1  0  0  0  0
 19  7  1  0  0  0  0
 21 22  1  0  0  0  0
 22 17  1  0  0  0  0
 22 31  1  0  0  0  0
 23 11  1  0  0  0  0
 24 25  1  0  0  0  0
 25 19  1  0  0  0  0
 26 25  1  0  0  0  0
 27 29  2  0  0  0  0
 28 29  1  0  0  0  0
 28 30  1  0  0  0  0
 29 26  1  0  0  0  0
 30 24  1  0  0  0  0
 31 33  1  0  0  0  0
 32 31  1  0  0  0  0
 32 33  1  0  0  0  0
 33 34  1  0  0  0  0
 34 35  1  0  0  0  0
 36 37  1  0  0  0  0
 37 32  1  0  0  0  0
M  END
>  <MODEL>
7

>  <REMARK>
 VINA RESULT:      -4.0      4.441      6.113
  Name = 
  4 active torsions:
  status: ('A' for Active; 'I' for Inactive)
    1  A    between atoms: C_1  and  C_27
    2  A    between atoms: N_4  and  C_37
    3  A    between atoms: C_8  and  C_12
    4  A    between atoms: C_23  and  C_30
                            x       y       z     vdW  Elec       q    Type
                         _______ _______ _______ _____ _____    ______ ____

>  <TORSDO>
F 4

$$$$
=
 OpenBabel11122413593D

 37 44  0  0  1  0  0  0  0  0999 V2000
  161.9570  200.9460  147.8240 C   0  0  1  0  0  0  0  0  0  0  0  0
  160.2570  203.5290  149.9480 C   0  0  1  0  0  3  0  0  0  0  0  0
  160.3190  206.6810  148.9760 O   0  0  0  0  0  0  0  0  0  0  0  0
  160.0700  201.0570  149.1450 C   0  0  2  0  0  3  0  0  0  0  0  0
  161.2320  204.4950  149.2770 C   0  0  2  0  0  3  0  0  0  0  0  0
  159.9260  202.5470  148.8170 C   0  0  2  0  0  3  0  0  0  0  0  0
  161.1780  205.9330  149.7940 C   0  0  2  0  0  3  0  0  0  0  0  0
  159.4970  200.7950  150.5290 C   0  0  0  0  0  2  0  0  0  0  0  0
  160.8050  202.9700  147.6430 C   0  0  2  0  0  3  0  0  0  0  0  0
  161.2050  200.4110  146.7680 O   0  0  0  0  0  1  0  0  0  0  0  0
  160.8920  203.8290  152.3810 C   0  0  0  0  0  2  0  0  0  0  0  0
  160.2260  201.5760  151.6290 C   0  0  0  0  0  2  0  0  0  0  0  0
  162.0800  202.3490  147.7090 O   0  0  0  0  0  0  0  0  0  0  0  0
  162.5560  207.3270  147.9240 C   0  0  0  0  0  2  0  0  0  0  0  0
  161.0380  207.4590  148.0240 C   0  0  1  0  0  3  0  0  0  0  0  0
  160.9080  202.8800  151.1830 C   0  0  1  0  0  3  0  0  0  0  0  0
  160.9430  204.4180  147.8420 N   0  0  2  0  0  0  0  0  0  0  0  0
  161.4050  200.6080  149.0790 O   0  0  0  0  0  0  0  0  0  0  0  0
  160.8320  206.0790  151.2880 C   0  0  1  0  0  3  0  0  0  0  0  0
  163.2260  200.4030  147.7590 F   0  0  0  0  0  0  0  0  0  0  0  0
  161.6860  206.6140  146.9030 C   0  0  2  0  0  3  0  0  0  0  0  0
  161.9870  205.0980  147.0450 C   0  0  2  0  0  3  0  0  0  0  0  0
  161.6590  205.1230  152.1420 C   0  0  0  0  0  2  0  0  0  0  0  0
  162.3280  208.1170  151.3340 C   0  0  0  0  0  2  0  0  0  0  0  0
  161.0100  207.5110  151.8080 C   0  0  2  0  0  3  0  0  0  0  0  0
  160.8610  207.6100  153.3330 C   0  0  0  0  0  2  0  0  0  0  0  0
  160.8930  209.3100  155.0050 O   0  0  0  0  0  0  0  0  0  0  0  0
  162.0970  209.8230  153.0810 N   0  0  0  0  0  2  0  0  0  0  0  0
  161.2480  208.9630  153.8480 C   0  0  0  0  0  0  0  0  0  0  0  0
  162.3320  209.6050  151.6570 C   0  0  0  0  0  2  0  0  0  0  0  0
  162.0620  204.5530  145.5980 C   0  0  1  0  0  3  0  0  0  0  0  0
  160.7490  204.3790  144.9070 N   0  0  0  0  0  0  0  0  0  0  0  0
  161.6130  205.5270  144.6050 C   0  0  2  0  0  3  0  0  0  0  0  0
  162.3330  205.2800  143.2960 C   0  0  0  0  0  2  0  0  0  0  0  0
  161.6040  205.8300  142.2590 F   0  0  0  0  0  0  0  0  0  0  0  0
  159.3310  206.2030  145.1220 F   0  0  0  0  0  0  0  0  0  0  0  0
  159.6060  204.9430  145.6180 C   0  0  0  0  0  2  0  0  0  0  0  0
  1 10  1  6  0  0  0
  1 18  1  0  0  0  0
  2 16  1  0  0  0  0
  3  7  1  0  0  0  0
  4  8  1  0  0  0  0
  5  7  1  0  0  0  0
  5  2  1  0  0  0  0
  6  4  1  0  0  0  0
  6  2  1  0  0  0  0
  7 19  1  0  0  0  0
  8 12  1  0  0  0  0
  9 13  1  0  0  0  0
  9 17  1  0  0  0  0
  9  6  1  0  0  0  0
 13  1  1  0  0  0  0
 14 15  1  0  0  0  0
 15  3  1  0  0  0  0
 16 12  1  0  0  0  0
 16 11  1  0  0  0  0
 17  5  1  0  0  0  0
 18  4  1  0  0  0  0
 19 25  1  0  0  0  0
 19 23  1  0  0  0  0
 20  1  1  0  0  0  0
 21 22  1  0  0  0  0
 21 14  1  0  0  0  0
 21 15  1  0  0  0  0
 22 17  1  0  0  0  0
 23 11  1  0  0  0  0
 24 30  1  0  0  0  0
 24 25  1  0  0  0  0
 25 26  1  0  0  0  0
 26 29  1  0  0  0  0
 28 29  1  0  0  0  0
 29 27  2  0  0  0  0
 30 28  1  0  0  0  0
 31 22  1  0  0  0  0
 32 31  1  0  0  0  0
 32 37  1  0  0  0  0
 33 32  1  0  0  0  0
 33 31  1  0  0  0  0
 34 33  1  0  0  0  0
 35 34  1  0  0  0  0
 36 37  1  0  0  0  0
M  END
>  <MODEL>
8

>  <REMARK>
 VINA RESULT:      -3.6      3.273      7.707
  Name = 
  4 active torsions:
  status: ('A' for Active; 'I' for Inactive)
    1  A    between atoms: C_1  and  C_27
    2  A    between atoms: N_4  and  C_37
    3  A    between atoms: C_8  and  C_12
    4  A    between atoms: C_23  and  C_30
                            x       y       z     vdW  Elec       q    Type
                         _______ _______ _______ _____ _____    ______ ____

>  <TORSDO>
F 4

$$$$
