=
 OpenBabel11122412423D

 30 35  0  0  1  0  0  0  0  0999 V2000
  161.6810  205.9400  149.9270 C   0  0  2  0  0  3  0  0  0  0  0  0
  161.0270  203.4770  149.8630 C   0  0  0  0  0  0  0  0  0  0  0  0
  161.2050  205.7870  154.2040 N   0  0  0  0  0  2  0  0  0  0  0  0
  161.9160  207.1970  150.8430 C   0  0  1  0  0  3  0  0  0  0  0  0
  160.7480  206.2290  148.9120 O   0  0  0  0  0  0  0  0  0  0  0  0
  163.1000  208.8710  148.3240 C   0  0  0  0  0  1  0  0  0  0  0  0
  160.7010  210.0240  151.9630 C   0  0  0  0  0  0  0  0  0  0  0  0
  161.6630  208.4650  148.6170 C   0  0  1  0  0  3  0  0  0  0  0  0
  160.6190  209.2190  153.0700 C   0  0  0  0  0  0  0  0  0  0  0  0
  161.1590  207.1800  154.4830 C   0  0  0  0  0  0  0  0  0  0  0  0
  161.4100  207.0790  148.0050 C   0  0  2  0  0  3  0  0  0  0  0  0
  161.3630  208.4600  150.1260 C   0  0  2  0  0  3  0  0  0  0  0  0
  160.6610  202.2840  150.4940 C   0  0  0  0  0  3  0  0  0  0  0  0
  159.6540  209.7620  153.8970 C   0  0  0  0  0  3  0  0  0  0  0  0
  159.8440  211.0050  152.0730 O   0  0  0  0  0  0  0  0  0  0  0  0
  161.1190  203.5020  148.4760 O   0  0  0  0  0  1  0  0  0  0  0  0
  161.6950  205.7100  152.8380 C   0  0  2  0  0  3  0  0  0  0  0  0
  160.5860  202.2150  151.8850 C   0  0  0  0  0  3  0  0  0  0  0  0
  161.3010  204.6300  150.6260 C   0  0  0  0  0  0  0  0  0  0  0  0
  161.2340  206.9940  152.1950 C   0  0  1  0  0  3  0  0  0  0  0  0
  160.9380  207.6340  155.6360 O   0  0  0  0  0  0  0  0  0  0  0  0
  161.4830  208.0180  153.2900 C   0  0  1  0  0  3  0  0  0  0  0  0
  159.1980  210.8830  153.2150 C   0  0  0  0  0  3  0  0  0  0  0  0
  162.9510  209.9370  151.2020 O   0  0  0  0  0  1  0  0  0  0  0  0
  160.8840  203.3390  152.6560 C   0  0  0  0  0  3  0  0  0  0  0  0
  161.2260  204.5460  152.0360 C   0  0  0  0  0  0  0  0  0  0  0  0
  161.6190  209.8180  150.7980 C   0  0  2  0  0  3  0  0  0  0  0  0
  160.5900  207.2230  146.7360 C   0  0  0  0  0  2  0  0  0  0  0  0
  162.2310  205.8240  145.7350 O   0  0  0  0  0  1  0  0  0  0  0  0
  160.8590  206.0580  145.8030 C   0  0  0  0  0  2  0  0  0  0  0  0
  1  5  1  6  0  0  0
  1 19  1  0  0  0  0
  1  4  1  0  0  0  0
  2 13  2  0  0  0  0
  2 19  1  0  0  0  0
  3 10  1  0  0  0  0
  4 20  1  0  0  0  0
  6  8  1  0  0  0  0
  7 15  1  0  0  0  0
  7  9  2  0  0  0  0
  8 12  1  0  0  0  0
  9 22  1  0  0  0  0
  9 14  1  0  0  0  0
 10 21  2  0  0  0  0
 11  8  1  0  0  0  0
 11  5  1  0  0  0  0
 12 27  1  0  0  0  0
 12  4  1  0  0  0  0
 13 18  1  0  0  0  0
 15 23  1  0  0  0  0
 16  2  1  0  0  0  0
 17  3  1  0  0  0  0
 18 25  2  0  0  0  0
 19 26  2  0  0  0  0
 20 17  1  0  0  0  0
 20 22  1  0  0  0  0
 22 10  1  0  0  0  0
 23 14  2  0  0  0  0
 26 25  1  0  0  0  0
 26 17  1  0  0  0  0
 27 24  1  0  0  0  0
 27  7  1  0  0  0  0
 28 11  1  0  0  0  0
 29 30  1  0  0  0  0
 30 28  1  0  0  0  0
M  END
>  <MODEL>
1

>  <REMARK>
 VINA RESULT:      -6.9      0.000      0.000
  Name = 
  2 active torsions:
  status: ('A' for Active; 'I' for Inactive)
    1  A    between atoms: C_11  and  C_28
    2  A    between atoms: C_28  and  C_30
                            x       y       z     vdW  Elec       q    Type
                         _______ _______ _______ _____ _____    ______ ____

>  <TORSDO>
F 2

$$$$
=
 OpenBabel11122412423D

 30 35  0  0  1  0  0  0  0  0999 V2000
  160.9290  210.2840  152.8360 C   0  0  2  0  0  3  0  0  0  0  0  0
  160.1620  212.5520  151.9630 C   0  0  0  0  0  0  0  0  0  0  0  0
  162.2030  209.3540  148.8300 N   0  0  0  0  0  2  0  0  0  0  0  0
  161.5850  208.9040  152.4630 C   0  0  1  0  0  3  0  0  0  0  0  0
  159.6850  210.0910  153.4690 O   0  0  0  0  0  0  0  0  0  0  0  0
  161.7520  208.0810  155.6010 C   0  0  0  0  0  1  0  0  0  0  0  0
  161.0890  205.7340  151.8100 C   0  0  0  0  0  0  0  0  0  0  0  0
  160.5330  208.1670  154.6950 C   0  0  1  0  0  3  0  0  0  0  0  0
  161.4120  206.2320  150.5750 C   0  0  0  0  0  0  0  0  0  0  0  0
  162.3550  207.9460  148.9540 C   0  0  0  0  0  0  0  0  0  0  0  0
  159.9750  209.5970  154.7550 C   0  0  2  0  0  3  0  0  0  0  0  0
  160.8640  207.7700  153.2460 C   0  0  2  0  0  3  0  0  0  0  0  0
  160.0110  213.4880  150.9350 C   0  0  0  0  0  3  0  0  0  0  0  0
  160.8940  205.3610  149.6350 C   0  0  0  0  0  3  0  0  0  0  0  0
  160.4070  204.6270  151.6690 O   0  0  0  0  0  0  0  0  0  0  0  0
  159.6900  212.8670  153.2320 O   0  0  0  0  0  1  0  0  0  0  0  0
  162.0980  209.8260  150.2000 C   0  0  2  0  0  3  0  0  0  0  0  0
  160.4980  213.2170  149.6560 C   0  0  0  0  0  3  0  0  0  0  0  0
  160.7860  211.3140  151.7100 C   0  0  0  0  0  0  0  0  0  0  0  0
  161.4930  208.6700  150.9560 C   0  0  1  0  0  3  0  0  0  0  0  0
  162.6420  207.2050  147.9780 O   0  0  0  0  0  0  0  0  0  0  0  0
  162.2200  207.4740  150.3650 C   0  0  1  0  0  3  0  0  0  0  0  0
  160.2680  204.3710  150.3840 C   0  0  0  0  0  3  0  0  0  0  0  0
  162.8340  206.3630  153.2950 O   0  0  0  0  0  1  0  0  0  0  0  0
  161.1450  212.0090  149.3970 C   0  0  0  0  0  3  0  0  0  0  0  0
  161.2790  211.0530  150.4100 C   0  0  0  0  0  0  0  0  0  0  0  0
  161.4470  206.3530  153.1250 C   0  0  2  0  0  3  0  0  0  0  0  0
  158.7250  209.6210  155.6150 C   0  0  0  0  0  2  0  0  0  0  0  0
  156.8800  211.0320  155.1090 O   0  0  0  0  0  1  0  0  0  0  0  0
  158.1540  211.0250  155.6710 C   0  0  0  0  0  2  0  0  0  0  0  0
  1 19  1  6  0  0  0
  1  5  1  0  0  0  0
  2 16  1  0  0  0  0
  3 10  1  0  0  0  0
  3 17  1  0  0  0  0
  4  1  1  0  0  0  0
  4 12  1  0  0  0  0
  5 11  1  0  0  0  0
  7 27  1  0  0  0  0
  8 11  1  0  0  0  0
  8  6  1  0  0  0  0
  9  7  2  0  0  0  0
 10 22  1  0  0  0  0
 11 28  1  0  0  0  0
 12  8  1  0  0  0  0
 13  2  2  0  0  0  0
 14 23  2  0  0  0  0
 14  9  1  0  0  0  0
 15  7  1  0  0  0  0
 17 26  1  0  0  0  0
 17 20  1  0  0  0  0
 18 13  1  0  0  0  0
 19  2  1  0  0  0  0
 20  4  1  0  0  0  0
 21 10  2  0  0  0  0
 22  9  1  0  0  0  0
 22 20  1  0  0  0  0
 23 15  1  0  0  0  0
 25 18  2  0  0  0  0
 25 26  1  0  0  0  0
 26 19  2  0  0  0  0
 27 12  1  0  0  0  0
 27 24  1  0  0  0  0
 28 30  1  0  0  0  0
 29 30  1  0  0  0  0
M  END
>  <MODEL>
2

>  <REMARK>
 VINA RESULT:      -6.4      2.330      7.289
  Name = 
  2 active torsions:
  status: ('A' for Active; 'I' for Inactive)
    1  A    between atoms: C_11  and  C_28
    2  A    between atoms: C_28  and  C_30
                            x       y       z     vdW  Elec       q    Type
                         _______ _______ _______ _____ _____    ______ ____

>  <TORSDO>
F 2

$$$$
=
 OpenBabel11122412423D

 30 35  0  0  1  0  0  0  0  0999 V2000
  159.0470  212.2970  153.8820 C   0  0  2  0  0  3  0  0  0  0  0  0
  157.8230  213.8550  152.2790 C   0  0  0  0  0  0  0  0  0  0  0  0
  161.3930  210.9570  150.5290 N   0  0  0  0  0  2  0  0  0  0  0  0
  160.1650  211.2000  154.0250 C   0  0  1  0  0  3  0  0  0  0  0  0
  157.8190  211.8270  154.3860 O   0  0  0  0  0  0  0  0  0  0  0  0
  159.8890  211.2720  157.2610 C   0  0  0  0  0  1  0  0  0  0  0  0
  160.8380  208.0070  154.3000 C   0  0  0  0  0  0  0  0  0  0  0  0
  158.9340  210.6920  156.2290 C   0  0  1  0  0  3  0  0  0  0  0  0
  161.2520  208.2770  153.0220 C   0  0  0  0  0  0  0  0  0  0  0  0
  161.9440  209.7720  151.0890 C   0  0  0  0  0  0  0  0  0  0  0  0
  157.9590  211.7950  155.7870 C   0  0  2  0  0  3  0  0  0  0  0  0
  159.6810  210.1070  155.0180 C   0  0  2  0  0  3  0  0  0  0  0  0
  157.6170  214.3980  151.0070 C   0  0  0  0  0  3  0  0  0  0  0  0
  161.2500  207.0790  152.3320 C   0  0  0  0  0  3  0  0  0  0  0  0
  160.5830  206.7300  154.4160 O   0  0  0  0  0  0  0  0  0  0  0  0
  157.0100  214.2740  153.3270 O   0  0  0  0  0  1  0  0  0  0  0  0
  160.8480  211.6730  151.6700 C   0  0  2  0  0  3  0  0  0  0  0  0
  158.4310  214.0220  149.9390 C   0  0  0  0  0  3  0  0  0  0  0  0
  158.8410  212.9040  152.4900 C   0  0  0  0  0  0  0  0  0  0  0  0
  160.4840  210.5950  152.6590 C   0  0  1  0  0  3  0  0  0  0  0  0
  162.6540  208.9740  150.4240 O   0  0  0  0  0  0  0  0  0  0  0  0
  161.6580  209.6370  152.5490 C   0  0  1  0  0  3  0  0  0  0  0  0
  160.8160  206.1410  153.2610 C   0  0  0  0  0  3  0  0  0  0  0  0
  161.9300  209.5600  155.7300 O   0  0  0  0  0  1  0  0  0  0  0  0
  159.4630  213.1040  150.1370 C   0  0  0  0  0  3  0  0  0  0  0  0
  159.6630  212.5340  151.3990 C   0  0  0  0  0  0  0  0  0  0  0  0
  160.6890  209.0100  155.4020 C   0  0  2  0  0  3  0  0  0  0  0  0
  156.6070  211.5720  156.4390 C   0  0  0  0  0  2  0  0  0  0  0  0
  155.2130  209.9910  155.3400 O   0  0  0  0  0  1  0  0  0  0  0  0
  155.5460  211.3430  155.3810 C   0  0  0  0  0  2  0  0  0  0  0  0
  1 19  1  6  0  0  0
  1  4  1  0  0  0  0
  1  5  1  0  0  0  0
  2 19  1  0  0  0  0
  2 16  1  0  0  0  0
  3 10  1  0  0  0  0
  3 17  1  0  0  0  0
  4 12  1  0  0  0  0
  5 11  1  0  0  0  0
  7 15  1  0  0  0  0
  7 27  1  0  0  0  0
  8  6  1  0  0  0  0
  9  7  2  0  0  0  0
 10 22  1  0  0  0  0
 11  8  1  0  0  0  0
 11 28  1  0  0  0  0
 12 27  1  0  0  0  0
 12  8  1  0  0  0  0
 13  2  2  0  0  0  0
 14  9  1  0  0  0  0
 14 23  2  0  0  0  0
 17 20  1  0  0  0  0
 18 25  2  0  0  0  0
 18 13  1  0  0  0  0
 20  4  1  0  0  0  0
 21 10  2  0  0  0  0
 22 20  1  0  0  0  0
 22  9  1  0  0  0  0
 23 15  1  0  0  0  0
 25 26  1  0  0  0  0
 26 17  1  0  0  0  0
 26 19  2  0  0  0  0
 27 24  1  0  0  0  0
 29 30  1  0  0  0  0
 30 28  1  0  0  0  0
M  END
>  <MODEL>
3

>  <REMARK>
 VINA RESULT:      -6.0      3.374      8.131
  Name = 
  2 active torsions:
  status: ('A' for Active; 'I' for Inactive)
    1  A    between atoms: C_11  and  C_28
    2  A    between atoms: C_28  and  C_30
                            x       y       z     vdW  Elec       q    Type
                         _______ _______ _______ _____ _____    ______ ____

>  <TORSDO>
F 2

$$$$
=
 OpenBabel11122412423D

 30 35  0  0  1  0  0  0  0  0999 V2000
  158.6660  212.5990  153.1690 C   0  0  2  0  0  3  0  0  0  0  0  0
  156.9030  213.8870  151.8550 C   0  0  0  0  0  0  0  0  0  0  0  0
  160.8250  212.1050  149.4770 N   0  0  0  0  0  2  0  0  0  0  0  0
  160.0290  211.8170  153.0920 C   0  0  1  0  0  3  0  0  0  0  0  0
  157.6650  211.8010  153.7580 O   0  0  0  0  0  0  0  0  0  0  0  0
  160.1550  211.6210  156.3320 C   0  0  0  0  0  1  0  0  0  0  0  0
  161.4950  208.8900  153.0050 C   0  0  0  0  0  0  0  0  0  0  0  0
  159.2490  210.8800  155.3610 C   0  0  1  0  0  3  0  0  0  0  0  0
  161.6640  209.3330  151.7180 C   0  0  0  0  0  0  0  0  0  0  0  0
  161.7170  211.0680  149.8650 C   0  0  0  0  0  0  0  0  0  0  0  0
  157.9860  211.7220  155.1270 C   0  0  2  0  0  3  0  0  0  0  0  0
  159.9580  210.5780  154.0290 C   0  0  2  0  0  3  0  0  0  0  0  0
  156.4110  214.4350  150.6660 C   0  0  0  0  0  3  0  0  0  0  0  0
  161.8700  208.2180  150.9280 C   0  0  0  0  0  3  0  0  0  0  0  0
  161.5780  207.5850  153.0320 O   0  0  0  0  0  0  0  0  0  0  0  0
  156.1520  214.0210  153.0170 O   0  0  0  0  0  1  0  0  0  0  0  0
  160.2700  212.5890  150.7290 C   0  0  2  0  0  3  0  0  0  0  0  0
  157.1510  214.3440  149.4870 C   0  0  0  0  0  3  0  0  0  0  0  0
  158.1430  213.2150  151.8680 C   0  0  0  0  0  0  0  0  0  0  0  0
  160.3100  211.3960  151.6510 C   0  0  1  0  0  3  0  0  0  0  0  0
  162.5120  210.5190  149.0580 O   0  0  0  0  0  0  0  0  0  0  0  0
  161.6600  210.7780  151.3290 C   0  0  1  0  0  3  0  0  0  0  0  0
  161.8010  207.1460  151.8100 C   0  0  0  0  0  3  0  0  0  0  0  0
  162.3440  210.5810  154.4420 O   0  0  0  0  0  1  0  0  0  0  0  0
  158.3930  213.7090  149.4900 C   0  0  0  0  0  3  0  0  0  0  0  0
  158.8850  213.1340  150.6660 C   0  0  0  0  0  0  0  0  0  0  0  0
  161.2440  209.7540  154.2010 C   0  0  2  0  0  3  0  0  0  0  0  0
  156.8240  211.1230  155.8980 C   0  0  0  0  0  2  0  0  0  0  0  0
  155.0290  209.7730  155.1210 O   0  0  0  0  0  1  0  0  0  0  0  0
  155.5950  211.0410  155.0140 C   0  0  0  0  0  2  0  0  0  0  0  0
  1 19  1  6  0  0  0
  1  5  1  0  0  0  0
  2 19  1  0  0  0  0
  2 16  1  0  0  0  0
  3 10  1  0  0  0  0
  3 17  1  0  0  0  0
  4  1  1  0  0  0  0
  4 12  1  0  0  0  0
  5 11  1  0  0  0  0
  7 15  1  0  0  0  0
  7 27  1  0  0  0  0
  8  6  1  0  0  0  0
  9  7  2  0  0  0  0
 10 22  1  0  0  0  0
 11  8  1  0  0  0  0
 11 28  1  0  0  0  0
 12 27  1  0  0  0  0
 12  8  1  0  0  0  0
 13  2  2  0  0  0  0
 14  9  1  0  0  0  0
 14 23  2  0  0  0  0
 17 20  1  0  0  0  0
 18 25  2  0  0  0  0
 18 13  1  0  0  0  0
 20  4  1  0  0  0  0
 21 10  2  0  0  0  0
 22 20  1  0  0  0  0
 22  9  1  0  0  0  0
 23 15  1  0  0  0  0
 25 26  1  0  0  0  0
 26 17  1  0  0  0  0
 26 19  2  0  0  0  0
 27 24  1  0  0  0  0
 30 29  1  0  0  0  0
 30 28  1  0  0  0  0
M  END
>  <MODEL>
4

>  <REMARK>
 VINA RESULT:      -5.1      3.527      8.237
  Name = 
  2 active torsions:
  status: ('A' for Active; 'I' for Inactive)
    1  A    between atoms: C_11  and  C_28
    2  A    between atoms: C_28  and  C_30
                            x       y       z     vdW  Elec       q    Type
                         _______ _______ _______ _____ _____    ______ ____

>  <TORSDO>
F 2

$$$$
=
 OpenBabel11122412423D

 30 35  0  0  1  0  0  0  0  0999 V2000
  161.9460  207.4460  150.9360 C   0  0  2  0  0  3  0  0  0  0  0  0
  161.4940  205.1770  149.8660 C   0  0  0  0  0  0  0  0  0  0  0  0
  160.6700  205.7510  154.6830 N   0  0  0  0  0  2  0  0  0  0  0  0
  161.9100  208.2840  152.2670 C   0  0  1  0  0  3  0  0  0  0  0  0
  161.2070  208.0880  149.9230 O   0  0  0  0  0  0  0  0  0  0  0  0
  163.4330  210.7550  150.8090 C   0  0  0  0  0  1  0  0  0  0  0  0
  160.3040  210.5150  154.0460 C   0  0  0  0  0  0  0  0  0  0  0  0
  161.9990  210.2750  150.6370 C   0  0  1  0  0  3  0  0  0  0  0  0
  160.0690  209.3630  154.7520 C   0  0  0  0  0  0  0  0  0  0  0  0
  160.4720  206.9480  155.4250 C   0  0  0  0  0  0  0  0  0  0  0  0
  161.9680  209.2060  149.5340 C   0  0  2  0  0  3  0  0  0  0  0  0
  161.4160  209.7230  151.9490 C   0  0  2  0  0  3  0  0  0  0  0  0
  161.1000  203.8380  149.9420 C   0  0  0  0  0  3  0  0  0  0  0  0
  158.9260  209.5720  155.5020 C   0  0  0  0  0  3  0  0  0  0  0  0
  159.3730  211.3920  154.3200 O   0  0  0  0  0  0  0  0  0  0  0  0
  161.8490  205.7040  148.6290 O   0  0  0  0  0  1  0  0  0  0  0  0
  161.4170  206.1750  153.5110 C   0  0  2  0  0  3  0  0  0  0  0  0
  160.7650  203.2680  151.1700 C   0  0  0  0  0  3  0  0  0  0  0  0
  161.5340  205.9730  151.0290 C   0  0  0  0  0  0  0  0  0  0  0  0
  160.9980  207.6060  153.2880 C   0  0  1  0  0  3  0  0  0  0  0  0
  160.0010  206.9530  156.5920 O   0  0  0  0  0  0  0  0  0  0  0  0
  160.9580  208.1610  154.7020 C   0  0  1  0  0  3  0  0  0  0  0  0
  158.5310  210.8660  155.1850 C   0  0  0  0  0  3  0  0  0  0  0  0
  162.6580  210.7030  153.7820 O   0  0  0  0  0  1  0  0  0  0  0  0
  160.8270  204.0340  152.3350 C   0  0  0  0  0  3  0  0  0  0  0  0
  161.1950  205.3830  152.2690 C   0  0  0  0  0  0  0  0  0  0  0  0
  161.4400  210.7440  153.0990 C   0  0  2  0  0  3  0  0  0  0  0  0
  161.3990  209.8050  148.2610 C   0  0  0  0  0  2  0  0  0  0  0  0
  160.8330  211.8730  147.2350 O   0  0  0  0  0  1  0  0  0  0  0  0
  161.5950  211.3090  148.2560 C   0  0  0  0  0  2  0  0  0  0  0  0
  1  5  1  6  0  0  0
  1 19  1  0  0  0  0
  1  4  1  0  0  0  0
  2 13  2  0  0  0  0
  2 19  1  0  0  0  0
  3 10  1  0  0  0  0
  4 20  1  0  0  0  0
  7 15  1  0  0  0  0
  7  9  2  0  0  0  0
  8  6  1  0  0  0  0
  8 12  1  0  0  0  0
  9 14  1  0  0  0  0
 10 21  2  0  0  0  0
 11  5  1  0  0  0  0
 11  8  1  0  0  0  0
 12  4  1  0  0  0  0
 12 27  1  0  0  0  0
 13 18  1  0  0  0  0
 15 23  1  0  0  0  0
 16  2  1  0  0  0  0
 17  3  1  0  0  0  0
 18 25  2  0  0  0  0
 19 26  2  0  0  0  0
 20 17  1  0  0  0  0
 20 22  1  0  0  0  0
 22  9  1  0  0  0  0
 22 10  1  0  0  0  0
 23 14  2  0  0  0  0
 26 25  1  0  0  0  0
 26 17  1  0  0  0  0
 27 24  1  0  0  0  0
 27  7  1  0  0  0  0
 28 11  1  0  0  0  0
 29 30  1  0  0  0  0
 30 28  1  0  0  0  0
M  END
>  <MODEL>
5

>  <REMARK>
 VINA RESULT:      -5.0      1.702      2.482
  Name = 
  2 active torsions:
  status: ('A' for Active; 'I' for Inactive)
    1  A    between atoms: C_11  and  C_28
    2  A    between atoms: C_28  and  C_30
                            x       y       z     vdW  Elec       q    Type
                         _______ _______ _______ _____ _____    ______ ____

>  <TORSDO>
F 2

$$$$
=
 OpenBabel11122412423D

 30 35  0  0  1  0  0  0  0  0999 V2000
  161.7200  209.9060  151.3430 C   0  0  2  0  0  3  0  0  0  0  0  0
  161.5810  207.9550  152.9780 C   0  0  0  0  0  0  0  0  0  0  0  0
  159.3320  212.1830  154.1080 N   0  0  0  0  0  2  0  0  0  0  0  0
  161.2930  211.3920  151.0560 C   0  0  1  0  0  3  0  0  0  0  0  0
  161.3370  209.0620  150.2810 O   0  0  0  0  0  0  0  0  0  0  0  0
  163.2280  211.4960  148.4490 C   0  0  0  0  0  1  0  0  0  0  0  0
  159.2560  213.3820  149.4400 C   0  0  0  0  0  0  0  0  0  0  0  0
  161.9090  210.7620  148.6360 C   0  0  1  0  0  3  0  0  0  0  0  0
  158.7970  213.4890  150.7280 C   0  0  0  0  0  0  0  0  0  0  0  0
  158.9360  213.2470  153.2520 C   0  0  0  0  0  0  0  0  0  0  0  0
  162.1990  209.3670  149.2100 C   0  0  2  0  0  3  0  0  0  0  0  0
  160.9430  211.5380  149.5480 C   0  0  2  0  0  3  0  0  0  0  0  0
  161.1610  207.3900  154.1860 C   0  0  0  0  0  3  0  0  0  0  0  0
  157.4840  213.9130  150.6590 C   0  0  0  0  0  3  0  0  0  0  0  0
  158.3000  213.7090  148.6090 O   0  0  0  0  0  0  0  0  0  0  0  0
  162.3050  207.1720  152.0860 O   0  0  0  0  0  1  0  0  0  0  0  0
  160.4090  211.5250  153.3870 C   0  0  2  0  0  3  0  0  0  0  0  0
  160.4570  208.1540  155.1160 C   0  0  0  0  0  3  0  0  0  0  0  0
  161.2760  209.2980  152.6770 C   0  0  0  0  0  0  0  0  0  0  0  0
  160.1010  211.7720  151.9320 C   0  0  1  0  0  3  0  0  0  0  0  0
  158.1310  214.1450  153.6130 O   0  0  0  0  0  0  0  0  0  0  0  0
  159.6400  213.2200  151.9350 C   0  0  1  0  0  3  0  0  0  0  0  0
  157.2250  214.0320  149.2990 C   0  0  0  0  0  3  0  0  0  0  0  0
  161.5800  213.8730  149.4850 O   0  0  0  0  0  1  0  0  0  0  0  0
  160.1730  209.4930  154.8470 C   0  0  0  0  0  3  0  0  0  0  0  0
  160.5640  210.0640  153.6310 C   0  0  0  0  0  0  0  0  0  0  0  0
  160.6310  212.9530  149.0340 C   0  0  2  0  0  3  0  0  0  0  0  0
  162.0570  208.3260  148.1160 C   0  0  0  0  0  2  0  0  0  0  0  0
  160.7540  206.4300  147.5160 O   0  0  0  0  0  1  0  0  0  0  0  0
  161.2190  207.1600  148.6070 C   0  0  0  0  0  2  0  0  0  0  0  0
  1  5  1  6  0  0  0
  1 19  1  0  0  0  0
  2 13  1  0  0  0  0
  4  1  1  0  0  0  0
  4 20  1  0  0  0  0
  6  8  1  0  0  0  0
  7  9  2  0  0  0  0
  8 11  1  0  0  0  0
  8 12  1  0  0  0  0
  9 22  1  0  0  0  0
 10 21  2  0  0  0  0
 10  3  1  0  0  0  0
 11  5  1  0  0  0  0
 12  4  1  0  0  0  0
 13 18  2  0  0  0  0
 14  9  1  0  0  0  0
 15 23  1  0  0  0  0
 15  7  1  0  0  0  0
 16  2  1  0  0  0  0
 17 26  1  0  0  0  0
 17  3  1  0  0  0  0
 19  2  2  0  0  0  0
 19 26  1  0  0  0  0
 20 22  1  0  0  0  0
 20 17  1  0  0  0  0
 22 10  1  0  0  0  0
 23 14  2  0  0  0  0
 25 18  1  0  0  0  0
 26 25  2  0  0  0  0
 27  7  1  0  0  0  0
 27 24  1  0  0  0  0
 27 12  1  0  0  0  0
 28 30  1  0  0  0  0
 28 11  1  0  0  0  0
 29 30  1  0  0  0  0
M  END
>  <MODEL>
6

>  <REMARK>
 VINA RESULT:      -4.9      2.910      4.969
  Name = 
  2 active torsions:
  status: ('A' for Active; 'I' for Inactive)
    1  A    between atoms: C_11  and  C_28
    2  A    between atoms: C_28  and  C_30
                            x       y       z     vdW  Elec       q    Type
                         _______ _______ _______ _____ _____    ______ ____

>  <TORSDO>
F 2

$$$$
=
 OpenBabel11122412423D

 30 35  0  0  1  0  0  0  0  0999 V2000
  161.4300  205.0120  149.3260 C   0  0  2  0  0  3  0  0  0  0  0  0
  160.5970  202.6030  149.2760 C   0  0  0  0  0  0  0  0  0  0  0  0
  161.3130  204.7910  153.6240 N   0  0  0  0  0  2  0  0  0  0  0  0
  161.8330  206.2270  150.2390 C   0  0  1  0  0  3  0  0  0  0  0  0
  160.4370  205.3900  148.4010 O   0  0  0  0  0  0  0  0  0  0  0  0
  162.9140  207.8720  147.6560 C   0  0  0  0  0  1  0  0  0  0  0  0
  160.9260  209.1050  151.5100 C   0  0  0  0  0  0  0  0  0  0  0  0
  161.4820  207.5620  148.0660 C   0  0  1  0  0  3  0  0  0  0  0  0
  160.8820  208.2830  152.6060 C   0  0  0  0  0  0  0  0  0  0  0  0
  161.3920  206.1780  153.9310 C   0  0  0  0  0  0  0  0  0  0  0  0
  161.0780  206.2110  147.4550 C   0  0  2  0  0  3  0  0  0  0  0  0
  161.3130  207.5420  149.5950 C   0  0  2  0  0  3  0  0  0  0  0  0
  160.2010  201.4240  149.9150 C   0  0  0  0  0  3  0  0  0  0  0  0
  160.0320  208.8730  153.5230 C   0  0  0  0  0  3  0  0  0  0  0  0
  160.1540  210.1420  151.7110 O   0  0  0  0  0  0  0  0  0  0  0  0
  160.5700  202.6540  147.8870 O   0  0  0  0  0  1  0  0  0  0  0  0
  161.6770  204.7130  152.2200 C   0  0  2  0  0  3  0  0  0  0  0  0
  160.2410  201.3280  151.3070 C   0  0  0  0  0  3  0  0  0  0  0  0
  161.0180  203.7160  150.0320 C   0  0  0  0  0  0  0  0  0  0  0  0
  161.2570  206.0410  151.6420 C   0  0  1  0  0  3  0  0  0  0  0  0
  161.3030  206.6190  155.1060 O   0  0  0  0  0  0  0  0  0  0  0  0
  161.6720  207.0180  152.7280 C   0  0  1  0  0  3  0  0  0  0  0  0
  159.6020  210.0390  152.9020 C   0  0  0  0  0  3  0  0  0  0  0  0
  163.0900  208.8780  150.5540 O   0  0  0  0  0  1  0  0  0  0  0  0
  160.6840  202.4100  152.0680 C   0  0  0  0  0  3  0  0  0  0  0  0
  161.0580  203.6040  151.4420 C   0  0  0  0  0  0  0  0  0  0  0  0
  161.7230  208.8630  150.2660 C   0  0  2  0  0  3  0  0  0  0  0  0
  160.1650  206.4430  146.2650 C   0  0  0  0  0  2  0  0  0  0  0  0
  161.6070  205.1220  144.9130 O   0  0  0  0  0  1  0  0  0  0  0  0
  160.9550  206.3520  144.9730 C   0  0  0  0  0  2  0  0  0  0  0  0
  1  5  1  1  0  0  0
  1 19  1  0  0  0  0
  1  4  1  0  0  0  0
  2 13  2  0  0  0  0
  2 19  1  0  0  0  0
  3 10  1  0  0  0  0
  4 20  1  0  0  0  0
  6  8  1  0  0  0  0
  7 15  1  0  0  0  0
  7  9  2  0  0  0  0
  8 12  1  0  0  0  0
  9 22  1  0  0  0  0
  9 14  1  0  0  0  0
 10 21  2  0  0  0  0
 11  8  1  0  0  0  0
 11  5  1  0  0  0  0
 12  4  1  0  0  0  0
 12 27  1  0  0  0  0
 13 18  1  0  0  0  0
 15 23  1  0  0  0  0
 16  2  1  0  0  0  0
 17  3  1  0  0  0  0
 18 25  2  0  0  0  0
 19 26  2  0  0  0  0
 20 17  1  0  0  0  0
 20 22  1  0  0  0  0
 22 10  1  0  0  0  0
 23 14  2  0  0  0  0
 26 25  1  0  0  0  0
 26 17  1  0  0  0  0
 27 24  1  0  0  0  0
 27  7  1  0  0  0  0
 28 11  1  0  0  0  0
 29 30  1  0  0  0  0
 30 28  1  0  0  0  0
M  END
>  <MODEL>
7

>  <REMARK>
 VINA RESULT:      -4.8      0.986      1.111
  Name = 
  2 active torsions:
  status: ('A' for Active; 'I' for Inactive)
    1  A    between atoms: C_11  and  C_28
    2  A    between atoms: C_28  and  C_30
                            x       y       z     vdW  Elec       q    Type
                         _______ _______ _______ _____ _____    ______ ____

>  <TORSDO>
F 2

$$$$
=
 OpenBabel11122412423D

 30 35  0  0  1  0  0  0  0  0999 V2000
  160.6450  212.2970  140.8240 C   0  0  2  0  0  3  0  0  0  0  0  0
  161.4290  212.9270  143.1660 C   0  0  0  0  0  0  0  0  0  0  0  0
  156.9960  214.4280  141.6470 N   0  0  0  0  0  2  0  0  0  0  0  0
  159.4790  212.4000  139.7740 C   0  0  1  0  0  3  0  0  0  0  0  0
  160.9910  210.9510  141.0550 O   0  0  0  0  0  0  0  0  0  0  0  0
  161.3530  211.0500  137.4890 C   0  0  0  0  0  1  0  0  0  0  0  0
  156.9330  210.8990  138.3650 C   0  0  0  0  0  0  0  0  0  0  0  0
  160.7000  210.4030  138.7020 C   0  0  1  0  0  3  0  0  0  0  0  0
  156.3130  211.8270  139.1610 C   0  0  0  0  0  0  0  0  0  0  0  0
  156.1870  213.9190  140.5940 C   0  0  0  0  0  0  0  0  0  0  0  0
  161.6610  210.5160  139.8960 C   0  0  2  0  0  3  0  0  0  0  0  0
  159.3400  211.0410  139.0330 C   0  0  2  0  0  3  0  0  0  0  0  0
  161.2430  213.5690  144.3950 C   0  0  0  0  0  3  0  0  0  0  0  0
  155.0270  211.3740  139.3890 C   0  0  0  0  0  3  0  0  0  0  0  0
  156.1050  209.9200  138.1110 O   0  0  0  0  0  0  0  0  0  0  0  0
  162.5970  212.2040  142.9570 O   0  0  0  0  0  1  0  0  0  0  0  0
  158.3470  214.0390  141.2810 C   0  0  2  0  0  3  0  0  0  0  0  0
  160.0950  214.3270  144.6300 C   0  0  0  0  0  3  0  0  0  0  0  0
  160.4450  213.0200  142.1600 C   0  0  0  0  0  0  0  0  0  0  0  0
  158.1750  212.7760  140.4750 C   0  0  1  0  0  3  0  0  0  0  0  0
  154.9660  214.2040  140.4790 O   0  0  0  0  0  0  0  0  0  0  0  0
  156.9610  213.0950  139.6190 C   0  0  1  0  0  3  0  0  0  0  0  0
  154.9550  210.1660  138.7050 C   0  0  0  0  0  3  0  0  0  0  0  0
  158.4940  212.0720  137.0110 O   0  0  0  0  0  1  0  0  0  0  0  0
  159.1270  214.4530  143.6340 C   0  0  0  0  0  3  0  0  0  0  0  0
  159.2880  213.7950  142.4090 C   0  0  0  0  0  0  0  0  0  0  0  0
  158.3420  210.9770  137.8650 C   0  0  2  0  0  3  0  0  0  0  0  0
  162.3190  209.1720  140.1490 C   0  0  0  0  0  2  0  0  0  0  0  0
  162.0610  206.8270  139.8570 O   0  0  0  0  0  1  0  0  0  0  0  0
  161.4770  208.0570  139.5600 C   0  0  0  0  0  2  0  0  0  0  0  0
  1  5  1  1  0  0  0
  1 19  1  0  0  0  0
  2 13  1  0  0  0  0
  4 20  1  0  0  0  0
  4  1  1  0  0  0  0
  6  8  1  0  0  0  0
  7  9  2  0  0  0  0
  8 12  1  0  0  0  0
  8 11  1  0  0  0  0
  9 14  1  0  0  0  0
  9 22  1  0  0  0  0
 10  3  1  0  0  0  0
 11 28  1  0  0  0  0
 11  5  1  0  0  0  0
 12  4  1  0  0  0  0
 13 18  2  0  0  0  0
 15  7  1  0  0  0  0
 15 23  1  0  0  0  0
 16  2  1  0  0  0  0
 17  3  1  0  0  0  0
 17 26  1  0  0  0  0
 19 26  1  0  0  0  0
 19  2  2  0  0  0  0
 20 17  1  0  0  0  0
 21 10  2  0  0  0  0
 22 20  1  0  0  0  0
 22 10  1  0  0  0  0
 23 14  2  0  0  0  0
 24 27  1  0  0  0  0
 25 18  1  0  0  0  0
 26 25  2  0  0  0  0
 27  7  1  0  0  0  0
 27 12  1  0  0  0  0
 30 29  1  0  0  0  0
 30 28  1  0  0  0  0
M  END
>  <MODEL>
8

>  <REMARK>
 VINA RESULT:      -4.8     10.095     12.935
  Name = 
  2 active torsions:
  status: ('A' for Active; 'I' for Inactive)
    1  A    between atoms: C_11  and  C_28
    2  A    between atoms: C_28  and  C_30
                            x       y       z     vdW  Elec       q    Type
                         _______ _______ _______ _____ _____    ______ ____

>  <TORSDO>
F 2

$$$$
=
 OpenBabel11122412423D

 30 35  0  0  1  0  0  0  0  0999 V2000
  160.5300  214.1460  145.1880 C   0  0  2  0  0  3  0  0  0  0  0  0
  158.6670  214.3230  146.9180 C   0  0  0  0  0  0  0  0  0  0  0  0
  157.4780  214.0380  142.1520 N   0  0  0  0  0  2  0  0  0  0  0  0
  160.8730  214.0230  143.6580 C   0  0  1  0  0  3  0  0  0  0  0  0
  161.1310  213.1020  145.9190 O   0  0  0  0  0  0  0  0  0  0  0  0
  164.0350  214.4250  144.2840 C   0  0  0  0  0  1  0  0  0  0  0  0
  161.7610  212.0360  141.2110 C   0  0  0  0  0  0  0  0  0  0  0  0
  163.1470  213.2210  144.5610 C   0  0  1  0  0  3  0  0  0  0  0  0
  160.4490  212.2950  140.9060 C   0  0  0  0  0  0  0  0  0  0  0  0
  158.2540  213.5620  141.0590 C   0  0  0  0  0  0  0  0  0  0  0  0
  162.5090  213.3900  145.9480 C   0  0  2  0  0  3  0  0  0  0  0  0
  162.0660  213.0420  143.4810 C   0  0  2  0  0  3  0  0  0  0  0  0
  157.3160  214.4070  147.2680 C   0  0  0  0  0  3  0  0  0  0  0  0
  160.0070  211.2650  140.0980 C   0  0  0  0  0  3  0  0  0  0  0  0
  162.1270  210.9170  140.6430 O   0  0  0  0  0  0  0  0  0  0  0  0
  159.6220  214.3060  147.9290 O   0  0  0  0  0  1  0  0  0  0  0  0
  158.4630  214.4320  143.1460 C   0  0  2  0  0  3  0  0  0  0  0  0
  156.3330  214.4530  146.2790 C   0  0  0  0  0  3  0  0  0  0  0  0
  159.0490  214.2600  145.5630 C   0  0  0  0  0  0  0  0  0  0  0  0
  159.6480  213.5370  142.8840 C   0  0  1  0  0  3  0  0  0  0  0  0
  157.7490  213.2850  139.9400 O   0  0  0  0  0  0  0  0  0  0  0  0
  159.7150  213.5150  141.3670 C   0  0  1  0  0  3  0  0  0  0  0  0
  161.1070  210.4250  139.9690 C   0  0  0  0  0  3  0  0  0  0  0  0
  162.8450  214.1350  141.4660 O   0  0  0  0  0  1  0  0  0  0  0  0
  156.6950  214.4220  144.9320 C   0  0  0  0  0  3  0  0  0  0  0  0
  158.0420  214.3120  144.5700 C   0  0  0  0  0  0  0  0  0  0  0  0
  162.6450  212.8890  142.0650 C   0  0  2  0  0  3  0  0  0  0  0  0
  163.2080  212.4830  146.9450 C   0  0  0  0  0  2  0  0  0  0  0  0
  162.0870  211.1770  148.5840 O   0  0  0  0  0  1  0  0  0  0  0  0
  162.4600  212.4800  148.2640 C   0  0  0  0  0  2  0  0  0  0  0  0
  1 19  1  6  0  0  0
  1  5  1  0  0  0  0
  2 13  1  0  0  0  0
  2 16  1  0  0  0  0
  3 17  1  0  0  0  0
  4  1  1  0  0  0  0
  5 11  1  0  0  0  0
  6  8  1  0  0  0  0
  7 27  1  0  0  0  0
  8 11  1  0  0  0  0
  9  7  2  0  0  0  0
  9 22  1  0  0  0  0
 10 22  1  0  0  0  0
 10  3  1  0  0  0  0
 11 28  1  0  0  0  0
 12  4  1  0  0  0  0
 12  8  1  0  0  0  0
 14  9  1  0  0  0  0
 15  7  1  0  0  0  0
 17 26  1  0  0  0  0
 18 13  2  0  0  0  0
 19  2  2  0  0  0  0
 20 17  1  0  0  0  0
 20  4  1  0  0  0  0
 21 10  2  0  0  0  0
 22 20  1  0  0  0  0
 23 14  2  0  0  0  0
 23 15  1  0  0  0  0
 24 27  1  0  0  0  0
 25 18  1  0  0  0  0
 26 25  2  0  0  0  0
 26 19  1  0  0  0  0
 27 12  1  0  0  0  0
 28 30  1  0  0  0  0
 30 29  1  0  0  0  0
M  END
>  <MODEL>
9

>  <REMARK>
 VINA RESULT:      -4.8      7.598     11.388
  Name = 
  2 active torsions:
  status: ('A' for Active; 'I' for Inactive)
    1  A    between atoms: C_11  and  C_28
    2  A    between atoms: C_28  and  C_30
                            x       y       z     vdW  Elec       q    Type
                         _______ _______ _______ _____ _____    ______ ____

>  <TORSDO>
F 2

$$$$
