=
 OpenBabel11122413483D

 37 42  0  0  1  0  0  0  0  0999 V2000
  161.6190  205.3770  146.3470 C   0  0  0  0  0  0  0  0  0  0  0  0
  160.8190  205.4280  150.5110 C   0  0  0  0  0  0  0  0  0  0  0  0
  160.4360  208.9330  152.3410 C   0  0  0  0  0  2  0  0  0  0  0  0
  161.4130  204.0990  148.5660 C   0  0  0  0  0  0  0  0  0  0  0  0
  160.4980  206.8640  150.8320 C   0  0  1  0  0  3  0  0  0  0  0  0
  161.0390  205.3020  149.1600 C   0  0  0  0  0  0  0  0  0  0  0  0
  160.9650  207.4810  152.1830 C   0  0  2  0  0  3  0  0  0  0  0  0
  161.4840  202.9570  149.3720 C   0  0  0  0  0  3  0  0  0  0  0  0
  160.8410  206.5660  148.4360 C   0  0  2  0  0  3  0  0  0  0  0  0
  160.2260  205.3280  145.7410 C   0  0  0  0  0  1  0  0  0  0  0  0
  160.4380  204.3050  152.7530 C   0  0  0  0  0  2  0  0  0  0  0  0
  161.1620  203.0420  150.7380 C   0  0  0  0  0  3  0  0  0  0  0  0
  161.7750  206.6360  147.2220 C   0  0  0  0  0  2  0  0  0  0  0  0
  161.8610  210.1700  151.0580 C   0  0  1  0  0  3  0  0  0  0  0  0
  160.5380  209.6930  151.1640 O   0  0  0  0  0  0  0  0  0  0  0  0
  160.8210  204.2760  151.3200 C   0  0  0  0  0  0  0  0  0  0  0  0
  161.0000  207.6160  149.5480 C   0  0  2  0  0  3  0  0  0  0  0  0
  161.8840  204.0720  147.1340 C   0  0  0  0  0  2  0  0  0  0  0  0
  160.5830  206.6700  153.4420 C   0  0  1  0  0  3  0  0  0  0  0  0
  162.6200  205.4580  145.2130 C   0  0  0  0  0  1  0  0  0  0  0  0
  162.8600  209.0380  150.7560 C   0  0  0  0  0  2  0  0  0  0  0  0
  162.4700  208.1130  149.5980 C   0  0  0  0  0  2  0  0  0  0  0  0
  161.2730  205.3180  153.4960 C   0  0  0  0  0  2  0  0  0  0  0  0
  160.4230  206.8720  155.9350 C   0  0  0  0  0  3  0  0  0  0  0  0
  160.8850  207.4010  154.7220 C   0  0  0  0  0  0  0  0  0  0  0  0
  161.6250  208.5950  154.7240 C   0  0  0  0  0  3  0  0  0  0  0  0
  162.6740  210.5200  155.9270 C   0  0  0  0  0  1  0  0  0  0  0  0
  161.4270  208.7220  157.1360 C   0  0  0  0  0  3  0  0  0  0  0  0
  161.8910  209.2540  155.9290 C   0  0  0  0  0  0  0  0  0  0  0  0
  160.6920  207.5320  157.1390 C   0  0  0  0  0  3  0  0  0  0  0  0
  161.9520  211.2420  150.0140 C   0  0  0  0  0  0  0  0  0  0  0  0
  160.8780  212.1770  149.8690 N   0  0  0  0  0  2  0  0  0  0  0  0
  162.9620  211.3120  149.2580 O   0  0  0  0  0  0  0  0  0  0  0  0
  160.0950  214.4530  149.4070 C   0  0  0  0  0  1  0  0  0  0  0  0
  160.9020  213.2620  148.8970 C   0  0  2  0  0  3  0  0  0  0  0  0
  161.3810  212.6130  146.6280 O   0  0  0  0  0  1  0  0  0  0  0  0
  160.3520  212.7750  147.5610 C   0  0  0  0  0  2  0  0  0  0  0  0
  1 18  1  0  0  0  0
  1 13  1  0  0  0  0
  2 16  1  0  0  0  0
  4  6  1  0  0  0  0
  4  8  2  0  0  0  0
  5  2  1  6  0  0  0
  5  7  1  0  0  0  0
  6  2  2  0  0  0  0
  7  3  1  1  0  0  0
  7 19  1  0  0  0  0
  8 12  1  0  0  0  0
  9 13  1  6  0  0  0
  9  6  1  0  0  0  0
  9 17  1  0  0  0  0
 10  1  1  0  0  0  0
 11 23  1  0  0  0  0
 12 16  2  0  0  0  0
 14 31  1  6  0  0  0
 14 15  1  0  0  0  0
 15  3  1  0  0  0  0
 16 11  1  0  0  0  0
 17 22  1  1  0  0  0
 17  5  1  0  0  0  0
 18  4  1  0  0  0  0
 19 23  1  0  0  0  0
 19 25  1  1  0  0  0
 20  1  1  0  0  0  0
 21 14  1  0  0  0  0
 22 21  1  0  0  0  0
 24 30  1  0  0  0  0
 25 26  1  0  0  0  0
 25 24  2  0  0  0  0
 26 29  2  0  0  0  0
 27 29  1  0  0  0  0
 28 30  2  0  0  0  0
 29 28  1  0  0  0  0
 32 31  1  0  0  0  0
 33 31  2  0  0  0  0
 35 34  1  1  0  0  0
 35 32  1  0  0  0  0
 36 37  1  0  0  0  0
 37 35  1  0  0  0  0
M  END
>  <MODEL>
1

>  <REMARK>
 VINA RESULT:      -8.9      0.000      0.000
  Name = 
  4 active torsions:
  status: ('A' for Active; 'I' for Inactive)
    1  A    between atoms: CA_4  and  N_12
    2  A    between atoms: CA_4  and  C_37
    3  A    between atoms: C_8  and  C_18
    4  A    between atoms: C_23  and  C_30
                            x       y       z     vdW  Elec       q    Type
                         _______ _______ _______ _____ _____    ______ ____

>  <TORSDO>
F 4

$$$$
=
 OpenBabel11122413483D

 37 42  0  0  1  0  0  0  0  0999 V2000
  161.0430  203.6560  151.9330 C   0  0  0  0  0  0  0  0  0  0  0  0
  161.8520  207.0740  149.5560 C   0  0  0  0  0  0  0  0  0  0  0  0
  162.7020  210.5050  151.3680 C   0  0  0  0  0  2  0  0  0  0  0  0
  161.0820  204.7700  149.6190 C   0  0  0  0  0  0  0  0  0  0  0  0
  162.3620  208.1120  150.5210 C   0  0  1  0  0  3  0  0  0  0  0  0
  161.6150  205.9020  150.2330 C   0  0  0  0  0  0  0  0  0  0  0  0
  161.9850  209.6090  150.3230 C   0  0  2  0  0  3  0  0  0  0  0  0
  160.8610  204.8110  148.2370 C   0  0  0  0  0  3  0  0  0  0  0  0
  161.9770  205.9880  151.6550 C   0  0  2  0  0  3  0  0  0  0  0  0
  162.4160  203.0210  152.0810 C   0  0  0  0  0  1  0  0  0  0  0  0
  162.0850  208.2800  147.3370 C   0  0  0  0  0  2  0  0  0  0  0  0
  161.1950  205.9650  147.5070 C   0  0  0  0  0  3  0  0  0  0  0  0
  161.0580  205.0920  152.4950 C   0  0  0  0  0  2  0  0  0  0  0  0
  161.4530  210.2370  153.2580 C   0  0  1  0  0  3  0  0  0  0  0  0
  162.7000  209.9600  152.6640 O   0  0  0  0  0  0  0  0  0  0  0  0
  161.6980  207.1060  148.1580 C   0  0  0  0  0  0  0  0  0  0  0  0
  161.9620  207.5040  151.9130 C   0  0  2  0  0  3  0  0  0  0  0  0
  160.6090  203.6050  150.4500 C   0  0  0  0  0  2  0  0  0  0  0  0
  162.2580  210.1730  148.9100 C   0  0  1  0  0  3  0  0  0  0  0  0
  160.0600  202.8380  152.7440 C   0  0  0  0  0  1  0  0  0  0  0  0
  160.3110  209.4360  152.6070 C   0  0  0  0  0  2  0  0  0  0  0  0
  160.5710  207.9320  152.4530 C   0  0  0  0  0  2  0  0  0  0  0  0
  161.3940  209.5210  147.8450 C   0  0  0  0  0  2  0  0  0  0  0  0
  162.9590  212.4300  148.0760 C   0  0  0  0  0  3  0  0  0  0  0  0
  162.0580  211.6630  148.8260 C   0  0  0  0  0  0  0  0  0  0  0  0
  160.9850  212.2930  149.4780 C   0  0  0  0  0  3  0  0  0  0  0  0
  159.6880  214.3440  150.0780 C   0  0  0  0  0  1  0  0  0  0  0  0
  161.7270  214.4410  148.6350 C   0  0  0  0  0  3  0  0  0  0  0  0
  160.8240  213.6800  149.3840 C   0  0  0  0  0  0  0  0  0  0  0  0
  162.7950  213.8170  147.9820 C   0  0  0  0  0  3  0  0  0  0  0  0
  161.5030  209.9740  154.7340 C   0  0  0  0  0  0  0  0  0  0  0  0
  160.7510  208.8860  155.2810 N   0  0  0  0  0  2  0  0  0  0  0  0
  162.1900  210.7160  155.4910 O   0  0  0  0  0  0  0  0  0  0  0  0
  162.2030  208.4450  157.2070 C   0  0  0  0  0  1  0  0  0  0  0  0
  160.7670  208.5490  156.6990 C   0  0  2  0  0  3  0  0  0  0  0  0
  159.1800  206.9480  155.8510 O   0  0  0  0  0  1  0  0  0  0  0  0
  160.0210  207.2400  156.9300 C   0  0  0  0  0  2  0  0  0  0  0  0
  1 10  1  0  0  0  0
  1 13  1  0  0  0  0
  1 20  1  0  0  0  0
  2  6  1  0  0  0  0
  3 15  1  0  0  0  0
  4  6  2  0  0  0  0
  4 18  1  0  0  0  0
  5  2  1  6  0  0  0
  5 17  1  0  0  0  0
  6  9  1  0  0  0  0
  7  5  1  0  0  0  0
  7  3  1  1  0  0  0
  8  4  1  0  0  0  0
  9 17  1  0  0  0  0
  9 13  1  1  0  0  0
 11 23  1  0  0  0  0
 11 16  1  0  0  0  0
 12 16  1  0  0  0  0
 12  8  2  0  0  0  0
 14 31  1  1  0  0  0
 15 14  1  0  0  0  0
 16  2  2  0  0  0  0
 17 22  1  6  0  0  0
 18  1  1  0  0  0  0
 19 25  1  1  0  0  0
 19  7  1  0  0  0  0
 21 14  1  0  0  0  0
 22 21  1  0  0  0  0
 23 19  1  0  0  0  0
 24 25  1  0  0  0  0
 25 26  2  0  0  0  0
 28 29  2  0  0  0  0
 29 26  1  0  0  0  0
 29 27  1  0  0  0  0
 30 24  2  0  0  0  0
 30 28  1  0  0  0  0
 31 32  1  0  0  0  0
 31 33  2  0  0  0  0
 32 35  1  0  0  0  0
 35 37  1  0  0  0  0
 35 34  1  6  0  0  0
 36 37  1  0  0  0  0
M  END
>  <MODEL>
2

>  <REMARK>
 VINA RESULT:      -6.2      2.109      6.443
  Name = 
  4 active torsions:
  status: ('A' for Active; 'I' for Inactive)
    1  A    between atoms: CA_4  and  N_12
    2  A    between atoms: CA_4  and  C_37
    3  A    between atoms: C_8  and  C_18
    4  A    between atoms: C_23  and  C_30
                            x       y       z     vdW  Elec       q    Type
                         _______ _______ _______ _____ _____    ______ ____

>  <TORSDO>
F 4

$$$$
