=
 OpenBabel11122413213D

 31 35  0  0  0  0  0  0  0  0999 V2000
  161.1640  201.4670  149.8710 C   0  0  0  0  0  0  0  0  0  0  0  0
  161.1580  205.1940  149.3180 C   0  0  0  0  0  0  0  0  0  0  0  0
  161.1500  205.4040  147.9080 C   0  0  0  0  0  0  0  0  0  0  0  0
  161.1360  204.6030  145.5990 C   0  0  0  0  0  0  0  0  0  0  0  0
  161.1630  203.9110  149.9500 C   0  0  0  0  0  0  0  0  0  0  0  0
  161.1720  201.4080  151.2650 C   0  0  0  0  0  3  0  0  0  0  0  0
  161.1450  204.3520  146.9720 C   0  0  0  0  0  3  0  0  0  0  0  0
  161.1700  206.2430  151.5480 C   0  0  0  0  0  0  0  0  0  0  0  0
  161.1600  200.2950  149.1270 O   0  0  0  0  0  1  0  0  0  0  0  0
  161.1500  207.7730  148.2700 N   0  0  0  0  0  0  0  0  0  0  0  0
  161.1330  203.5440  144.7010 O   0  0  0  0  0  1  0  0  0  0  0  0
  161.1750  204.9810  152.1400 C   0  0  0  0  0  3  0  0  0  0  0  0
  161.1620  206.3510  150.1480 C   0  0  0  0  0  0  0  0  0  0  0  0
  161.1600  202.7040  149.2250 C   0  0  0  0  0  3  0  0  0  0  0  0
  161.1330  205.9160  145.1300 C   0  0  0  0  0  3  0  0  0  0  0  0
  161.1710  203.8280  151.3670 C   0  0  0  0  0  0  0  0  0  0  0  0
  161.1760  202.5870  152.0100 C   0  0  0  0  0  3  0  0  0  0  0  0
  161.1580  207.5900  149.5870 N   0  0  0  0  0  0  0  0  0  0  0  0
  161.1450  206.7290  147.4110 C   0  0  0  0  0  0  0  0  0  0  0  0
  161.1370  206.9770  146.0350 C   0  0  0  0  0  3  0  0  0  0  0  0
  160.4810  206.5380  154.3950 O   0  0  0  0  0  0  0  0  0  0  0  0
  160.8320  207.5550  153.7370 C   0  0  0  0  0  0  0  0  0  0  0  0
  161.1730  207.4380  152.3470 N   0  0  0  0  0  2  0  0  0  0  0  0
  161.0560  211.3640  155.7020 C   0  0  0  0  0  0  0  0  0  0  0  0
  161.4670  208.9820  155.6710 C   0  0  0  0  0  3  0  0  0  0  0  0
  159.8420  210.0100  152.5380 F   0  0  0  0  0  0  0  0  0  0  0  0
  161.1320  212.5610  156.3320 F   0  0  0  0  0  0  0  0  0  0  0  0
  161.5470  210.2150  156.3220 C   0  0  0  0  0  3  0  0  0  0  0  0
  160.4020  210.0490  153.7720 C   0  0  0  0  0  0  0  0  0  0  0  0
  160.8970  208.8810  154.3920 C   0  0  0  0  0  0  0  0  0  0  0  0
  160.4850  211.2800  154.4290 C   0  0  0  0  0  3  0  0  0  0  0  0
  1  6  1  0  0  0  0
  2  5  2  0  0  0  0
  2 13  1  0  0  0  0
  3  2  1  0  0  0  0
  4  7  1  0  0  0  0
  5 16  1  0  0  0  0
  6 17  2  0  0  0  0
  7  3  2  0  0  0  0
  8 12  1  0  0  0  0
  8 23  1  0  0  0  0
  9  1  1  0  0  0  0
 10 18  2  0  0  0  0
 11  4  1  0  0  0  0
 13  8  2  0  0  0  0
 14  1  2  0  0  0  0
 14  5  1  0  0  0  0
 15  4  2  0  0  0  0
 15 20  1  0  0  0  0
 16 17  1  0  0  0  0
 16 12  2  0  0  0  0
 18 13  1  0  0  0  0
 19  3  1  0  0  0  0
 19 10  1  0  0  0  0
 20 19  2  0  0  0  0
 22 30  1  0  0  0  0
 22 21  2  0  0  0  0
 23 22  1  0  0  0  0
 24 28  1  0  0  0  0
 24 27  1  0  0  0  0
 25 28  2  0  0  0  0
 26 29  1  0  0  0  0
 29 30  2  0  0  0  0
 29 31  1  0  0  0  0
 30 25  1  0  0  0  0
 31 24  2  0  0  0  0
M  END
>  <MODEL>
1

>  <REMARK>
 VINA RESULT:      -9.9      0.000      0.000
  Name = 
  2 active torsions:
  status: ('A' for Active; 'I' for Inactive)
    1  A    between atoms: C_5  and  C_30
    2  A    between atoms: C_10  and  N_16
                            x       y       z     vdW  Elec       q    Type
                         _______ _______ _______ _____ _____    ______ ____

>  <TORSDO>
F 2

$$$$
=
 OpenBabel11122413213D

 31 35  0  0  0  0  0  0  0  0999 V2000
  161.2010  207.9840  154.5480 C   0  0  0  0  0  0  0  0  0  0  0  0
  161.3920  207.4840  150.8180 C   0  0  0  0  0  0  0  0  0  0  0  0
  161.2230  206.0880  150.5780 C   0  0  0  0  0  0  0  0  0  0  0  0
  160.8650  203.7890  151.3250 C   0  0  0  0  0  0  0  0  0  0  0  0
  161.3840  208.0930  152.1120 C   0  0  0  0  0  0  0  0  0  0  0  0
  161.3790  209.3640  154.6380 C   0  0  0  0  0  3  0  0  0  0  0  0
  161.0270  205.1470  151.6060 C   0  0  0  0  0  3  0  0  0  0  0  0
  161.7560  209.7080  149.8220 C   0  0  0  0  0  0  0  0  0  0  0  0
  161.0220  207.2310  155.7000 O   0  0  0  0  0  1  0  0  0  0  0  0
  161.4370  206.4780  148.2230 N   0  0  0  0  0  0  0  0  0  0  0  0
  160.6750  202.8850  152.3620 O   0  0  0  0  0  1  0  0  0  0  0  0
  161.7440  210.2780  151.0930 C   0  0  0  0  0  3  0  0  0  0  0  0
  161.5810  208.3220  149.6820 C   0  0  0  0  0  0  0  0  0  0  0  0
  161.2050  207.3590  153.3000 C   0  0  0  0  0  3  0  0  0  0  0  0
  160.8970  203.3410  150.0060 C   0  0  0  0  0  3  0  0  0  0  0  0
  161.5630  209.4960  152.2260 C   0  0  0  0  0  0  0  0  0  0  0  0
  161.5590  210.1180  153.4780 C   0  0  0  0  0  3  0  0  0  0  0  0
  161.5950  207.7810  148.4340 N   0  0  0  0  0  0  0  0  0  0  0  0
  161.2510  205.6130  149.2450 C   0  0  0  0  0  0  0  0  0  0  0  0
  161.0890  204.2530  148.9670 C   0  0  0  0  0  3  0  0  0  0  0  0
  160.9490  212.5050  149.3800 O   0  0  0  0  0  0  0  0  0  0  0  0
  161.5400  211.8800  148.4570 C   0  0  0  0  0  0  0  0  0  0  0  0
  161.9440  210.5150  148.6470 N   0  0  0  0  0  2  0  0  0  0  0  0
  162.2800  213.8350  144.7080 C   0  0  0  0  0  0  0  0  0  0  0  0
  160.7540  213.0650  146.4180 C   0  0  0  0  0  3  0  0  0  0  0  0
  164.2060  212.2080  147.3470 F   0  0  0  0  0  0  0  0  0  0  0  0
  162.5010  214.4530  143.5240 F   0  0  0  0  0  0  0  0  0  0  0  0
  160.9800  213.7030  145.1970 C   0  0  0  0  0  3  0  0  0  0  0  0
  163.1360  212.6870  146.6660 C   0  0  0  0  0  0  0  0  0  0  0  0
  161.8230  212.5500  147.1670 C   0  0  0  0  0  0  0  0  0  0  0  0
  163.3550  213.3270  145.4420 C   0  0  0  0  0  3  0  0  0  0  0  0
  1  6  1  0  0  0  0
  1  9  1  0  0  0  0
  2  5  1  0  0  0  0
  3  2  1  0  0  0  0
  3  7  2  0  0  0  0
  4  7  1  0  0  0  0
  4 11  1  0  0  0  0
  5 16  2  0  0  0  0
  5 14  1  0  0  0  0
  8 12  2  0  0  0  0
 10 18  2  0  0  0  0
 10 19  1  0  0  0  0
 12 16  1  0  0  0  0
 13  8  1  0  0  0  0
 13  2  2  0  0  0  0
 14  1  2  0  0  0  0
 15  4  2  0  0  0  0
 16 17  1  0  0  0  0
 17  6  2  0  0  0  0
 18 13  1  0  0  0  0
 19  3  1  0  0  0  0
 20 19  2  0  0  0  0
 20 15  1  0  0  0  0
 22 23  1  0  0  0  0
 22 21  2  0  0  0  0
 23  8  1  0  0  0  0
 24 28  2  0  0  0  0
 24 31  1  0  0  0  0
 25 30  2  0  0  0  0
 27 24  1  0  0  0  0
 28 25  1  0  0  0  0
 29 30  1  0  0  0  0
 29 26  1  0  0  0  0
 30 22  1  0  0  0  0
 31 29  2  0  0  0  0
M  END
>  <MODEL>
2

>  <REMARK>
 VINA RESULT:      -9.8      4.274      7.096
  Name = 
  2 active torsions:
  status: ('A' for Active; 'I' for Inactive)
    1  A    between atoms: C_5  and  C_30
    2  A    between atoms: C_10  and  N_16
                            x       y       z     vdW  Elec       q    Type
                         _______ _______ _______ _____ _____    ______ ____

>  <TORSDO>
F 2

$$$$
=
 OpenBabel11122413213D

 31 35  0  0  0  0  0  0  0  0999 V2000
  161.3540  205.2920  145.7000 C   0  0  0  0  0  0  0  0  0  0  0  0
  161.0670  204.4900  149.3710 C   0  0  0  0  0  0  0  0  0  0  0  0
  161.0950  203.0690  149.4880 C   0  0  0  0  0  0  0  0  0  0  0  0
  161.2340  200.8200  148.5430 C   0  0  0  0  0  0  0  0  0  0  0  0
  161.1520  205.2060  148.1360 C   0  0  0  0  0  0  0  0  0  0  0  0
  161.3140  206.6860  145.7320 C   0  0  0  0  0  3  0  0  0  0  0  0
  161.2100  202.2060  148.3820 C   0  0  0  0  0  3  0  0  0  0  0  0
  160.9110  206.6440  150.5580 C   0  0  0  0  0  0  0  0  0  0  0  0
  161.4730  204.6280  144.4870 O   0  0  0  0  0  1  0  0  0  0  0  0
  160.8890  203.2710  151.8670 N   0  0  0  0  0  0  0  0  0  0  0  0
  161.3480  199.9950  147.4320 O   0  0  0  0  0  1  0  0  0  0  0  0
  160.9950  207.3190  149.3410 C   0  0  0  0  0  3  0  0  0  0  0  0
  160.9460  205.2400  150.5750 C   0  0  0  0  0  0  0  0  0  0  0  0
  161.2730  204.5640  146.8890 C   0  0  0  0  0  3  0  0  0  0  0  0
  161.1410  200.2640  149.8180 C   0  0  0  0  0  3  0  0  0  0  0  0
  161.1130  206.6250  148.1450 C   0  0  0  0  0  0  0  0  0  0  0  0
  161.1940  207.3500  146.9520 C   0  0  0  0  0  3  0  0  0  0  0  0
  160.8630  204.5970  151.7710 N   0  0  0  0  0  0  0  0  0  0  0  0
  161.0030  202.4850  150.7740 C   0  0  0  0  0  0  0  0  0  0  0  0
  161.0260  201.0950  150.9310 C   0  0  0  0  0  3  0  0  0  0  0  0
  162.3430  209.0690  151.4150 O   0  0  0  0  0  0  0  0  0  0  0  0
  161.5010  208.5430  152.1920 C   0  0  0  0  0  0  0  0  0  0  0  0
  160.7880  207.3600  151.7980 N   0  0  0  0  0  2  0  0  0  0  0  0
  160.7540  210.3550  156.0110 C   0  0  0  0  0  0  0  0  0  0  0  0
  161.3950  210.5270  153.6860 C   0  0  0  0  0  3  0  0  0  0  0  0
  160.6610  207.0240  154.5240 F   0  0  0  0  0  0  0  0  0  0  0  0
  160.5210  210.9380  157.2110 F   0  0  0  0  0  0  0  0  0  0  0  0
  161.1550  211.1300  154.9230 C   0  0  0  0  0  3  0  0  0  0  0  0
  160.8300  208.3650  154.6270 C   0  0  0  0  0  0  0  0  0  0  0  0
  161.2360  209.1430  153.5200 C   0  0  0  0  0  0  0  0  0  0  0  0
  160.5920  208.9750  155.8620 C   0  0  0  0  0  3  0  0  0  0  0  0
  1  6  2  0  0  0  0
  1 14  1  0  0  0  0
  2  3  2  0  0  0  0
  2 13  1  0  0  0  0
  3 19  1  0  0  0  0
  4 15  1  0  0  0  0
  5 16  1  0  0  0  0
  5  2  1  0  0  0  0
  6 17  1  0  0  0  0
  7  4  2  0  0  0  0
  7  3  1  0  0  0  0
  8 13  1  0  0  0  0
  8 23  1  0  0  0  0
  9  1  1  0  0  0  0
 11  4  1  0  0  0  0
 12  8  2  0  0  0  0
 13 18  2  0  0  0  0
 14  5  2  0  0  0  0
 15 20  2  0  0  0  0
 16 12  1  0  0  0  0
 17 16  2  0  0  0  0
 18 10  1  0  0  0  0
 19 20  1  0  0  0  0
 19 10  2  0  0  0  0
 21 22  2  0  0  0  0
 22 30  1  0  0  0  0
 23 22  1  0  0  0  0
 24 27  1  0  0  0  0
 25 28  1  0  0  0  0
 26 29  1  0  0  0  0
 28 24  2  0  0  0  0
 29 31  2  0  0  0  0
 30 25  2  0  0  0  0
 30 29  1  0  0  0  0
 31 24  1  0  0  0  0
M  END
>  <MODEL>
3

>  <REMARK>
 VINA RESULT:      -9.6      1.684      4.163
  Name = 
  2 active torsions:
  status: ('A' for Active; 'I' for Inactive)
    1  A    between atoms: C_5  and  C_30
    2  A    between atoms: C_10  and  N_16
                            x       y       z     vdW  Elec       q    Type
                         _______ _______ _______ _____ _____    ______ ____

>  <TORSDO>
F 2

$$$$
=
 OpenBabel11122413213D

 31 35  0  0  0  0  0  0  0  0999 V2000
  161.8480  210.7550  150.0040 C   0  0  0  0  0  0  0  0  0  0  0  0
  161.3680  207.2600  151.3270 C   0  0  0  0  0  0  0  0  0  0  0  0
  161.1900  207.3720  152.7380 C   0  0  0  0  0  0  0  0  0  0  0  0
  161.0280  208.6650  154.8050 C   0  0  0  0  0  0  0  0  0  0  0  0
  161.5810  208.3640  150.4450 C   0  0  0  0  0  0  0  0  0  0  0  0
  162.0060  210.5010  148.6420 C   0  0  0  0  0  3  0  0  0  0  0  0
  161.2070  208.6020  153.4220 C   0  0  0  0  0  3  0  0  0  0  0  0
  161.4930  205.7430  149.3890 C   0  0  0  0  0  0  0  0  0  0  0  0
  161.8980  212.0590  150.4770 O   0  0  0  0  0  1  0  0  0  0  0  0
  160.9640  204.9900  152.8880 N   0  0  0  0  0  0  0  0  0  0  0  0
  161.0500  209.8940  155.4510 O   0  0  0  0  0  1  0  0  0  0  0  0
  161.7000  206.8360  148.5490 C   0  0  0  0  0  3  0  0  0  0  0  0
  161.3280  205.9510  150.7680 C   0  0  0  0  0  0  0  0  0  0  0  0
  161.6390  209.6980  150.8910 C   0  0  0  0  0  3  0  0  0  0  0  0
  160.8300  207.4950  155.5370 C   0  0  0  0  0  3  0  0  0  0  0  0
  161.7460  208.1280  149.0550 C   0  0  0  0  0  0  0  0  0  0  0  0
  161.9560  209.1890  148.1690 C   0  0  0  0  0  3  0  0  0  0  0  0
  161.1280  204.8740  151.5740 N   0  0  0  0  0  0  0  0  0  0  0  0
  160.9870  206.1960  153.4990 C   0  0  0  0  0  0  0  0  0  0  0  0
  160.8080  206.2630  154.8840 C   0  0  0  0  0  3  0  0  0  0  0  0
  161.0340  204.8800  146.6120 O   0  0  0  0  0  0  0  0  0  0  0  0
  161.2200  204.0100  147.5060 C   0  0  0  0  0  0  0  0  0  0  0  0
  161.4450  204.4040  148.8680 N   0  0  0  0  0  2  0  0  0  0  0  0
  161.2060  199.8190  146.5760 C   0  0  0  0  0  0  0  0  0  0  0  0
  161.5800  201.6310  148.1330 C   0  0  0  0  0  3  0  0  0  0  0  0
  160.4580  202.9730  144.8990 F   0  0  0  0  0  0  0  0  0  0  0  0
  161.2060  198.4950  146.2950 F   0  0  0  0  0  0  0  0  0  0  0  0
  161.5810  200.2650  147.8440 C   0  0  0  0  0  3  0  0  0  0  0  0
  160.8290  202.1110  145.8780 C   0  0  0  0  0  0  0  0  0  0  0  0
  161.2060  202.5700  147.1590 C   0  0  0  0  0  0  0  0  0  0  0  0
  160.8310  200.7410  145.5960 C   0  0  0  0  0  3  0  0  0  0  0  0
  1  9  1  0  0  0  0
  1 14  1  0  0  0  0
  2  3  1  0  0  0  0
  3  7  2  0  0  0  0
  3 19  1  0  0  0  0
  4 11  1  0  0  0  0
  4 15  2  0  0  0  0
  5 14  2  0  0  0  0
  5  2  1  0  0  0  0
  6  1  2  0  0  0  0
  7  4  1  0  0  0  0
  8 13  1  0  0  0  0
 10 19  1  0  0  0  0
 12 16  1  0  0  0  0
 12  8  2  0  0  0  0
 13  2  2  0  0  0  0
 13 18  1  0  0  0  0
 16  5  1  0  0  0  0
 17  6  1  0  0  0  0
 17 16  2  0  0  0  0
 18 10  2  0  0  0  0
 19 20  2  0  0  0  0
 20 15  1  0  0  0  0
 21 22  2  0  0  0  0
 22 23  1  0  0  0  0
 23  8  1  0  0  0  0
 24 28  1  0  0  0  0
 26 29  1  0  0  0  0
 27 24  1  0  0  0  0
 28 25  2  0  0  0  0
 29 30  2  0  0  0  0
 30 22  1  0  0  0  0
 30 25  1  0  0  0  0
 31 29  1  0  0  0  0
 31 24  2  0  0  0  0
M  END
>  <MODEL>
4

>  <REMARK>
 VINA RESULT:      -8.6      4.005      9.094
  Name = 
  2 active torsions:
  status: ('A' for Active; 'I' for Inactive)
    1  A    between atoms: C_5  and  C_30
    2  A    between atoms: C_10  and  N_16
                            x       y       z     vdW  Elec       q    Type
                         _______ _______ _______ _____ _____    ______ ____

>  <TORSDO>
F 2

$$$$
=
 OpenBabel11122413213D

 31 35  0  0  0  0  0  0  0  0999 V2000
  161.5680  212.5310  149.7790 C   0  0  0  0  0  0  0  0  0  0  0  0
  161.1740  209.2950  151.6680 C   0  0  0  0  0  0  0  0  0  0  0  0
  160.8990  209.6380  153.0250 C   0  0  0  0  0  0  0  0  0  0  0  0
  160.5380  211.2570  154.8190 C   0  0  0  0  0  0  0  0  0  0  0  0
  161.3910  210.2410  150.6180 C   0  0  0  0  0  0  0  0  0  0  0  0
  161.8280  212.0560  148.4930 C   0  0  0  0  0  3  0  0  0  0  0  0
  160.8100  210.9660  153.4810 C   0  0  0  0  0  3  0  0  0  0  0  0
  161.5010  207.4770  150.0380 C   0  0  0  0  0  0  0  0  0  0  0  0
  161.5230  213.8980  150.0170 O   0  0  0  0  0  1  0  0  0  0  0  0
  160.7810  207.3090  153.5790 N   0  0  0  0  0  0  0  0  0  0  0  0
  160.4570  212.5780  155.2390 O   0  0  0  0  0  1  0  0  0  0  0  0
  161.7090  208.4180  149.0310 C   0  0  0  0  0  3  0  0  0  0  0  0
  161.2360  207.9090  151.3470 C   0  0  0  0  0  0  0  0  0  0  0  0
  161.3530  211.6330  150.8250 C   0  0  0  0  0  3  0  0  0  0  0  0
  160.3500  210.2210  155.7330 C   0  0  0  0  0  3  0  0  0  0  0  0
  161.6580  209.7790  149.3030 C   0  0  0  0  0  0  0  0  0  0  0  0
  161.8730  210.6820  148.2570 C   0  0  0  0  0  3  0  0  0  0  0  0
  161.0360  206.9770  152.3170 N   0  0  0  0  0  0  0  0  0  0  0  0
  160.7040  208.6010  153.9680 C   0  0  0  0  0  0  0  0  0  0  0  0
  160.4320  208.8960  155.3080 C   0  0  0  0  0  3  0  0  0  0  0  0
  160.0810  205.9760  147.9400 O   0  0  0  0  0  0  0  0  0  0  0  0
  160.8490  205.3590  148.7270 C   0  0  0  0  0  0  0  0  0  0  0  0
  161.5540  206.0680  149.7590 N   0  0  0  0  0  2  0  0  0  0  0  0
  161.4020  201.1280  148.2620 C   0  0  0  0  0  0  0  0  0  0  0  0
  161.4080  203.3670  147.3490 C   0  0  0  0  0  3  0  0  0  0  0  0
  160.4810  203.4700  150.9050 F   0  0  0  0  0  0  0  0  0  0  0  0
  161.5790  199.7950  148.1030 F   0  0  0  0  0  0  0  0  0  0  0  0
  161.5910  201.9930  147.1830 C   0  0  0  0  0  3  0  0  0  0  0  0
  160.8430  203.0140  149.6800 C   0  0  0  0  0  0  0  0  0  0  0  0
  161.0330  203.8960  148.5940 C   0  0  0  0  0  0  0  0  0  0  0  0
  161.0290  201.6390  149.5070 C   0  0  0  0  0  3  0  0  0  0  0  0
  1  9  1  0  0  0  0
  1 14  1  0  0  0  0
  2  3  1  0  0  0  0
  3  7  2  0  0  0  0
  3 19  1  0  0  0  0
  4 11  1  0  0  0  0
  4 15  2  0  0  0  0
  5 14  2  0  0  0  0
  5  2  1  0  0  0  0
  6  1  2  0  0  0  0
  7  4  1  0  0  0  0
  8 13  1  0  0  0  0
 10 19  1  0  0  0  0
 12 16  1  0  0  0  0
 12  8  2  0  0  0  0
 13  2  2  0  0  0  0
 13 18  1  0  0  0  0
 16  5  1  0  0  0  0
 17  6  1  0  0  0  0
 17 16  2  0  0  0  0
 18 10  2  0  0  0  0
 19 20  2  0  0  0  0
 20 15  1  0  0  0  0
 21 22  2  0  0  0  0
 22 23  1  0  0  0  0
 23  8  1  0  0  0  0
 24 31  1  0  0  0  0
 25 30  2  0  0  0  0
 27 24  1  0  0  0  0
 28 25  1  0  0  0  0
 28 24  2  0  0  0  0
 29 26  1  0  0  0  0
 30 22  1  0  0  0  0
 30 29  1  0  0  0  0
 31 29  2  0  0  0  0
M  END
>  <MODEL>
5

>  <REMARK>
 VINA RESULT:      -8.1      3.790      8.971
  Name = 
  2 active torsions:
  status: ('A' for Active; 'I' for Inactive)
    1  A    between atoms: C_5  and  C_30
    2  A    between atoms: C_10  and  N_16
                            x       y       z     vdW  Elec       q    Type
                         _______ _______ _______ _____ _____    ______ ____

>  <TORSDO>
F 2

$$$$
=
 OpenBabel11122413213D

 31 35  0  0  0  0  0  0  0  0999 V2000
  160.9390  210.6160  154.4890 C   0  0  0  0  0  0  0  0  0  0  0  0
  161.3620  209.3950  150.9500 C   0  0  0  0  0  0  0  0  0  0  0  0
  161.4220  210.5510  150.1160 C   0  0  0  0  0  0  0  0  0  0  0  0
  161.3970  212.9680  149.7610 C   0  0  0  0  0  0  0  0  0  0  0  0
  161.2040  209.4240  152.3710 C   0  0  0  0  0  0  0  0  0  0  0  0
  160.8950  209.4060  155.1810 C   0  0  0  0  0  3  0  0  0  0  0  0
  161.3320  211.8650  150.6130 C   0  0  0  0  0  3  0  0  0  0  0  0
  161.4160  206.9330  151.0500 C   0  0  0  0  0  0  0  0  0  0  0  0
  160.8310  211.8150  155.1800 O   0  0  0  0  0  1  0  0  0  0  0  0
  161.6710  209.1400  148.1950 N   0  0  0  0  0  0  0  0  0  0  0  0
  161.3050  214.2520  150.2820 O   0  0  0  0  0  1  0  0  0  0  0  0
  161.2620  206.9880  152.4340 C   0  0  0  0  0  3  0  0  0  0  0  0
  161.4660  208.1260  150.3110 C   0  0  0  0  0  0  0  0  0  0  0  0
  161.0910  210.6210  153.1010 C   0  0  0  0  0  3  0  0  0  0  0  0
  161.5530  212.7810  148.3890 C   0  0  0  0  0  3  0  0  0  0  0  0
  161.1560  208.2040  153.0950 C   0  0  0  0  0  0  0  0  0  0  0  0
  161.0030  208.2030  154.4840 C   0  0  0  0  0  3  0  0  0  0  0  0
  161.6160  208.0550  148.9610 N   0  0  0  0  0  0  0  0  0  0  0  0
  161.5810  210.3830  148.7200 C   0  0  0  0  0  0  0  0  0  0  0  0
  161.6450  211.4900  147.8690 C   0  0  0  0  0  3  0  0  0  0  0  0
  159.7050  204.5520  151.3170 O   0  0  0  0  0  0  0  0  0  0  0  0
  160.6760  204.5270  150.5120 C   0  0  0  0  0  0  0  0  0  0  0  0
  161.5260  205.6750  150.3630 N   0  0  0  0  0  2  0  0  0  0  0  0
  161.4590  200.9580  148.2600 C   0  0  0  0  0  0  0  0  0  0  0  0
  160.9530  202.0610  150.3510 C   0  0  0  0  0  3  0  0  0  0  0  0
  161.2150  204.5490  147.6560 F   0  0  0  0  0  0  0  0  0  0  0  0
  161.7050  199.8250  147.5600 F   0  0  0  0  0  0  0  0  0  0  0  0
  161.2060  200.8920  149.6310 C   0  0  0  0  0  3  0  0  0  0  0  0
  161.2060  203.3690  148.3240 C   0  0  0  0  0  0  0  0  0  0  0  0
  160.9490  203.3110  149.7120 C   0  0  0  0  0  0  0  0  0  0  0  0
  161.4590  202.1940  147.6100 C   0  0  0  0  0  3  0  0  0  0  0  0
  1  9  1  0  0  0  0
  1  6  1  0  0  0  0
  2  5  1  0  0  0  0
  3  7  2  0  0  0  0
  3  2  1  0  0  0  0
  4 11  1  0  0  0  0
  4  7  1  0  0  0  0
  5 16  2  0  0  0  0
  5 14  1  0  0  0  0
  8 12  2  0  0  0  0
 10 19  1  0  0  0  0
 10 18  2  0  0  0  0
 12 16  1  0  0  0  0
 13  2  2  0  0  0  0
 13  8  1  0  0  0  0
 14  1  2  0  0  0  0
 15  4  2  0  0  0  0
 16 17  1  0  0  0  0
 17  6  2  0  0  0  0
 18 13  1  0  0  0  0
 19  3  1  0  0  0  0
 20 15  1  0  0  0  0
 20 19  2  0  0  0  0
 22 21  2  0  0  0  0
 23 22  1  0  0  0  0
 23  8  1  0  0  0  0
 24 28  1  0  0  0  0
 26 29  1  0  0  0  0
 27 24  1  0  0  0  0
 28 25  2  0  0  0  0
 29 30  2  0  0  0  0
 30 25  1  0  0  0  0
 30 22  1  0  0  0  0
 31 24  2  0  0  0  0
 31 29  1  0  0  0  0
M  END
>  <MODEL>
6

>  <REMARK>
 VINA RESULT:      -8.0      3.920      7.945
  Name = 
  2 active torsions:
  status: ('A' for Active; 'I' for Inactive)
    1  A    between atoms: C_5  and  C_30
    2  A    between atoms: C_10  and  N_16
                            x       y       z     vdW  Elec       q    Type
                         _______ _______ _______ _____ _____    ______ ____

>  <TORSDO>
F 2

$$$$
=
 OpenBabel11122413213D

 31 35  0  0  0  0  0  0  0  0999 V2000
  160.9850  208.9400  154.3760 C   0  0  0  0  0  0  0  0  0  0  0  0
  161.4710  208.1550  150.7240 C   0  0  0  0  0  0  0  0  0  0  0  0
  161.5810  209.4030  150.0420 C   0  0  0  0  0  0  0  0  0  0  0  0
  161.6220  211.8450  149.9900 C   0  0  0  0  0  0  0  0  0  0  0  0
  161.2770  208.0110  152.1330 C   0  0  0  0  0  0  0  0  0  0  0  0
  160.8940  207.6550  154.9120 C   0  0  0  0  0  3  0  0  0  0  0  0
  161.5090  210.6470  150.6960 C   0  0  0  0  0  3  0  0  0  0  0  0
  161.4650  205.6990  150.5180 C   0  0  0  0  0  0  0  0  0  0  0  0
  160.8870  210.0460  155.2080 O   0  0  0  0  0  1  0  0  0  0  0  0
  161.8470  208.2350  147.9660 N   0  0  0  0  0  0  0  0  0  0  0  0
  161.5460  213.0570  150.6640 O   0  0  0  0  0  1  0  0  0  0  0  0
  161.2760  205.5860  151.8940 C   0  0  0  0  0  3  0  0  0  0  0  0
  161.5620  206.9720  149.9340 C   0  0  0  0  0  0  0  0  0  0  0  0
  161.1730  209.1120  153.0040 C   0  0  0  0  0  3  0  0  0  0  0  0
  161.8090  211.8260  148.6080 C   0  0  0  0  0  3  0  0  0  0  0  0
  161.1820  206.7130  152.6980 C   0  0  0  0  0  0  0  0  0  0  0  0
  160.9930  206.5440  154.0730 C   0  0  0  0  0  3  0  0  0  0  0  0
  161.7470  207.0650  148.5900 N   0  0  0  0  0  0  0  0  0  0  0  0
  161.7720  209.4040  148.6400 C   0  0  0  0  0  0  0  0  0  0  0  0
  161.8850  210.6070  147.9350 C   0  0  0  0  0  3  0  0  0  0  0  0
  159.7210  203.3270  150.4810 O   0  0  0  0  0  0  0  0  0  0  0  0
  160.6980  203.3870  149.6850 C   0  0  0  0  0  0  0  0  0  0  0  0
  161.5640  204.5330  149.6830 N   0  0  0  0  0  2  0  0  0  0  0  0
  161.4430  200.2150  146.8920 C   0  0  0  0  0  0  0  0  0  0  0  0
  160.8310  202.5050  147.3650 C   0  0  0  0  0  3  0  0  0  0  0  0
  161.4780  200.7100  150.5070 F   0  0  0  0  0  0  0  0  0  0  0  0
  161.6750  199.2220  146.0010 F   0  0  0  0  0  0  0  0  0  0  0  0
  161.0700  201.4830  146.4440 C   0  0  0  0  0  3  0  0  0  0  0  0
  161.3380  200.9890  149.1880 C   0  0  0  0  0  0  0  0  0  0  0  0
  160.9600  202.2750  148.7430 C   0  0  0  0  0  0  0  0  0  0  0  0
  161.5760  199.9700  148.2610 C   0  0  0  0  0  3  0  0  0  0  0  0
  1  6  1  0  0  0  0
  1  9  1  0  0  0  0
  2  5  1  0  0  0  0
  3  7  2  0  0  0  0
  3  2  1  0  0  0  0
  4 11  1  0  0  0  0
  4  7  1  0  0  0  0
  5 16  2  0  0  0  0
  5 14  1  0  0  0  0
  8 12  2  0  0  0  0
 10 18  2  0  0  0  0
 10 19  1  0  0  0  0
 12 16  1  0  0  0  0
 13  8  1  0  0  0  0
 13  2  2  0  0  0  0
 14  1  2  0  0  0  0
 15  4  2  0  0  0  0
 16 17  1  0  0  0  0
 17  6  2  0  0  0  0
 18 13  1  0  0  0  0
 19  3  1  0  0  0  0
 20 15  1  0  0  0  0
 20 19  2  0  0  0  0
 22 21  2  0  0  0  0
 23 22  1  0  0  0  0
 23  8  1  0  0  0  0
 24 31  1  0  0  0  0
 25 30  2  0  0  0  0
 27 24  1  0  0  0  0
 28 24  2  0  0  0  0
 28 25  1  0  0  0  0
 29 26  1  0  0  0  0
 30 29  1  0  0  0  0
 30 22  1  0  0  0  0
 31 29  2  0  0  0  0
M  END
>  <MODEL>
7

>  <REMARK>
 VINA RESULT:      -7.6      3.964      8.068
  Name = 
  2 active torsions:
  status: ('A' for Active; 'I' for Inactive)
    1  A    between atoms: C_5  and  C_30
    2  A    between atoms: C_10  and  N_16
                            x       y       z     vdW  Elec       q    Type
                         _______ _______ _______ _____ _____    ______ ____

>  <TORSDO>
F 2

$$$$
=
 OpenBabel11122413213D

 31 35  0  0  0  0  0  0  0  0999 V2000
  159.1330  212.2480  154.2940 C   0  0  0  0  0  0  0  0  0  0  0  0
  160.9250  210.4300  151.5230 C   0  0  0  0  0  0  0  0  0  0  0  0
  161.2200  209.1210  152.0080 C   0  0  0  0  0  0  0  0  0  0  0  0
  161.1740  207.3890  153.7310 C   0  0  0  0  0  0  0  0  0  0  0  0
  160.2470  211.4410  152.2720 C   0  0  0  0  0  0  0  0  0  0  0  0
  158.9110  213.4880  153.6940 C   0  0  0  0  0  3  0  0  0  0  0  0
  160.8670  208.6800  153.2970 C   0  0  0  0  0  3  0  0  0  0  0  0
  161.0960  212.0040  149.6350 C   0  0  0  0  0  0  0  0  0  0  0  0
  158.6980  212.0170  155.5920 O   0  0  0  0  0  1  0  0  0  0  0  0
  162.2590  208.5900  149.9150 N   0  0  0  0  0  0  0  0  0  0  0  0
  160.8140  206.9840  155.0090 O   0  0  0  0  0  1  0  0  0  0  0  0
  160.4320  212.9730  150.3850 C   0  0  0  0  0  3  0  0  0  0  0  0
  161.3420  210.7410  150.1970 C   0  0  0  0  0  0  0  0  0  0  0  0
  159.7930  211.2400  153.5890 C   0  0  0  0  0  3  0  0  0  0  0  0
  161.8450  206.5090  152.8830 C   0  0  0  0  0  3  0  0  0  0  0  0
  160.0100  212.7100  151.6810 C   0  0  0  0  0  0  0  0  0  0  0  0
  159.3490  213.7170  152.3900 C   0  0  0  0  0  3  0  0  0  0  0  0
  161.9900  209.8060  149.4520 N   0  0  0  0  0  0  0  0  0  0  0  0
  161.8980  208.2120  151.1620 C   0  0  0  0  0  0  0  0  0  0  0  0
  162.2050  206.9200  151.6000 C   0  0  0  0  0  3  0  0  0  0  0  0
  159.4530  212.5810  147.2600 O   0  0  0  0  0  0  0  0  0  0  0  0
  160.7090  212.5530  147.1490 C   0  0  0  0  0  0  0  0  0  0  0  0
  161.5330  212.2740  148.2920 N   0  0  0  0  0  2  0  0  0  0  0  0
  162.6260  213.3240  143.3870 C   0  0  0  0  0  0  0  0  0  0  0  0
  162.6340  213.3700  145.8050 C   0  0  0  0  0  3  0  0  0  0  0  0
  159.4620  211.9630  144.5910 F   0  0  0  0  0  0  0  0  0  0  0  0
  163.2410  213.5720  142.2060 F   0  0  0  0  0  0  0  0  0  0  0  0
  163.2700  213.6270  144.5880 C   0  0  0  0  0  3  0  0  0  0  0  0
  160.7030  212.5060  144.6180 C   0  0  0  0  0  0  0  0  0  0  0  0
  161.3480  212.8090  145.8380 C   0  0  0  0  0  0  0  0  0  0  0  0
  161.3460  212.7650  143.4040 C   0  0  0  0  0  3  0  0  0  0  0  0
  1  9  1  0  0  0  0
  2  3  1  0  0  0  0
  2  5  1  0  0  0  0
  3  7  2  0  0  0  0
  4 11  1  0  0  0  0
  5 14  1  0  0  0  0
  6  1  1  0  0  0  0
  7  4  1  0  0  0  0
  8 13  1  0  0  0  0
  8 12  2  0  0  0  0
 10 19  1  0  0  0  0
 12 16  1  0  0  0  0
 13  2  2  0  0  0  0
 14  1  2  0  0  0  0
 15  4  2  0  0  0  0
 16  5  2  0  0  0  0
 16 17  1  0  0  0  0
 17  6  2  0  0  0  0
 18 10  2  0  0  0  0
 18 13  1  0  0  0  0
 19 20  2  0  0  0  0
 19  3  1  0  0  0  0
 20 15  1  0  0  0  0
 22 21  2  0  0  0  0
 22 23  1  0  0  0  0
 23  8  1  0  0  0  0
 24 31  2  0  0  0  0
 24 28  1  0  0  0  0
 25 30  1  0  0  0  0
 26 29  1  0  0  0  0
 27 24  1  0  0  0  0
 28 25  2  0  0  0  0
 29 30  2  0  0  0  0
 30 22  1  0  0  0  0
 31 29  1  0  0  0  0
M  END
>  <MODEL>
8

>  <REMARK>
 VINA RESULT:      -7.3      4.904      9.166
  Name = 
  2 active torsions:
  status: ('A' for Active; 'I' for Inactive)
    1  A    between atoms: C_5  and  C_30
    2  A    between atoms: C_10  and  N_16
                            x       y       z     vdW  Elec       q    Type
                         _______ _______ _______ _____ _____    ______ ____

>  <TORSDO>
F 2

$$$$
=
 OpenBabel11122413213D

 31 35  0  0  0  0  0  0  0  0999 V2000
  161.1140  200.7970  147.8790 C   0  0  0  0  0  0  0  0  0  0  0  0
  160.9160  204.5340  148.3180 C   0  0  0  0  0  0  0  0  0  0  0  0
  161.0230  205.1100  147.0180 C   0  0  0  0  0  0  0  0  0  0  0  0
  161.2720  204.9520  144.5920 C   0  0  0  0  0  0  0  0  0  0  0  0
  160.9460  203.1310  148.5910 C   0  0  0  0  0  0  0  0  0  0  0  0
  160.9990  200.3700  149.2030 C   0  0  0  0  0  3  0  0  0  0  0  0
  161.1720  204.3460  145.8460 C   0  0  0  0  0  3  0  0  0  0  0  0
  160.6570  204.9530  150.7330 C   0  0  0  0  0  0  0  0  0  0  0  0
  161.2550  199.8660  146.8600 O   0  0  0  0  0  1  0  0  0  0  0  0
  160.8360  207.2960  147.9830 N   0  0  0  0  0  0  0  0  0  0  0  0
  161.4190  204.1700  143.4540 O   0  0  0  0  0  1  0  0  0  0  0  0
  160.6890  203.5800  150.9730 C   0  0  0  0  0  3  0  0  0  0  0  0
  160.7690  205.4290  149.4160 C   0  0  0  0  0  0  0  0  0  0  0  0
  161.0880  202.1600  147.5810 C   0  0  0  0  0  3  0  0  0  0  0  0
  161.2260  206.3400  144.4840 C   0  0  0  0  0  3  0  0  0  0  0  0
  160.8310  202.6750  149.9300 C   0  0  0  0  0  0  0  0  0  0  0  0
  160.8580  201.3090  150.2250 C   0  0  0  0  0  3  0  0  0  0  0  0
  160.7350  206.7710  149.2000 N   0  0  0  0  0  0  0  0  0  0  0  0
  160.9770  206.5190  146.8860 C   0  0  0  0  0  0  0  0  0  0  0  0
  161.0780  207.1230  145.6290 C   0  0  0  0  0  3  0  0  0  0  0  0
  162.5810  206.9760  151.6680 O   0  0  0  0  0  0  0  0  0  0  0  0
  161.4650  206.8710  152.2470 C   0  0  0  0  0  0  0  0  0  0  0  0
  160.5090  205.8920  151.8110 N   0  0  0  0  0  2  0  0  0  0  0  0
  160.5020  209.5070  155.4950 C   0  0  0  0  0  0  0  0  0  0  0  0
  161.1060  209.1470  153.1810 C   0  0  0  0  0  3  0  0  0  0  0  0
  160.8420  205.9190  154.9220 F   0  0  0  0  0  0  0  0  0  0  0  0
  160.2000  210.3490  156.5110 F   0  0  0  0  0  0  0  0  0  0  0  0
  160.7950  210.0160  154.2290 C   0  0  0  0  0  3  0  0  0  0  0  0
  160.8340  207.2510  154.6690 C   0  0  0  0  0  0  0  0  0  0  0  0
  161.1300  207.7580  153.3850 C   0  0  0  0  0  0  0  0  0  0  0  0
  160.5220  208.1280  155.7130 C   0  0  0  0  0  3  0  0  0  0  0  0
  1  6  1  0  0  0  0
  2  5  2  0  0  0  0
  2 13  1  0  0  0  0
  3  2  1  0  0  0  0
  4  7  1  0  0  0  0
  5 16  1  0  0  0  0
  6 17  2  0  0  0  0
  7  3  2  0  0  0  0
  8 12  1  0  0  0  0
  8 23  1  0  0  0  0
  9  1  1  0  0  0  0
 10 18  2  0  0  0  0
 11  4  1  0  0  0  0
 13  8  2  0  0  0  0
 14  1  2  0  0  0  0
 14  5  1  0  0  0  0
 15  4  2  0  0  0  0
 15 20  1  0  0  0  0
 16 17  1  0  0  0  0
 16 12  2  0  0  0  0
 18 13  1  0  0  0  0
 19  3  1  0  0  0  0
 19 10  1  0  0  0  0
 20 19  2  0  0  0  0
 21 22  2  0  0  0  0
 22 30  1  0  0  0  0
 23 22  1  0  0  0  0
 24 31  1  0  0  0  0
 24 27  1  0  0  0  0
 25 30  2  0  0  0  0
 25 28  1  0  0  0  0
 28 24  2  0  0  0  0
 29 26  1  0  0  0  0
 29 31  2  0  0  0  0
 30 29  1  0  0  0  0
M  END
>  <MODEL>
9

>  <REMARK>
 VINA RESULT:      -7.3      1.579      2.059
  Name = 
  2 active torsions:
  status: ('A' for Active; 'I' for Inactive)
    1  A    between atoms: C_5  and  C_30
    2  A    between atoms: C_10  and  N_16
                            x       y       z     vdW  Elec       q    Type
                         _______ _______ _______ _____ _____    ______ ____

>  <TORSDO>
F 2

$$$$
