=
 OpenBabel11122412503D

 32 37  0  0  1  0  0  0  0  0999 V2000
  159.1210  214.0520  149.7610 C   0  0  0  0  0  2  0  0  0  0  0  0
  159.8630  210.3320  153.9600 C   0  0  1  0  0  3  0  0  0  0  0  0
  160.8250  205.9460  152.1570 O   0  0  0  0  0  0  0  0  0  0  0  0
  161.7130  205.5660  153.1800 C   0  0  0  0  0  2  0  0  0  0  0  0
  159.3180  210.3650  156.5030 C   0  0  1  0  0  3  0  0  0  0  0  0
  160.6510  210.8950  157.0460 C   0  0  2  0  0  3  0  0  0  0  0  0
  159.2920  212.2410  152.3930 C   0  0  1  0  0  3  0  0  0  0  0  0
  160.5460  210.2280  151.5780 C   0  0  0  0  0  3  0  0  0  0  0  0
  162.9590  210.7370  156.9940 C   0  0  0  0  0  0  0  0  0  0  0  0
  160.8280  212.2300  150.2330 C   0  0  0  0  0  2  0  0  0  0  0  0
  161.1220  207.2870  151.8290 C   0  0  0  0  0  2  0  0  0  0  0  0
  160.0350  209.4150  152.7360 C   0  0  1  0  0  3  0  0  0  0  0  0
  160.9750  208.2430  153.0340 C   0  0  1  0  0  3  0  0  0  0  0  0
  160.4140  208.3830  155.5000 C   0  0  1  0  0  3  0  0  0  0  0  0
  162.6540  212.0440  156.5440 N   0  0  0  0  0  2  0  0  0  0  0  0
  158.0530  213.0870  150.2760 C   0  0  0  0  0  2  0  0  0  0  0  0
  160.1780  211.5020  151.3820 C   0  0  0  0  0  0  0  0  0  0  0  0
  161.2210  212.1240  156.3300 C   0  0  0  0  0  2  0  0  0  0  0  0
  158.0600  212.9460  151.7980 C   0  0  0  0  0  2  0  0  0  0  0  0
  160.5370  213.7280  150.2510 C   0  0  1  0  0  3  0  0  0  0  0  0
  161.3040  206.2060  154.5140 C   0  0  0  0  0  2  0  0  0  0  0  0
  160.4860  207.4780  154.2720 C   0  0  2  0  0  3  0  0  0  0  0  0
  161.8000  208.9270  155.8720 C   0  0  0  0  0  2  0  0  0  0  0  0
  158.8270  211.3820  153.5760 C   0  0  0  0  0  2  0  0  0  0  0  0
  158.2080  211.4040  156.5000 C   0  0  0  0  0  1  0  0  0  0  0  0
  164.1340  210.3720  157.2610 O   0  0  0  0  0  0  0  0  0  0  0  0
  159.4360  209.5340  155.2170 C   0  0  2  0  0  3  0  0  0  0  0  0
  161.7800  209.8510  157.0980 C   0  0  2  0  0  3  0  0  0  0  0  0
  161.5660  214.4530  149.3980 C   0  0  0  0  0  2  0  0  0  0  0  0
  161.7740  213.7440  148.1030 C   0  0  0  0  0  0  0  0  0  0  0  0
  162.9740  213.0150  147.8760 N   0  0  0  0  0  1  0  0  0  0  0  0
  160.8980  213.8090  147.2020 O   0  0  0  0  0  0  0  0  0  0  0  0
  1 20  1  0  0  0  0
  1 16  1  0  0  0  0
  2 24  1  6  0  0  0
  2 27  1  0  0  0  0
  3  4  1  0  0  0  0
  4 21  1  0  0  0  0
  5 25  1  6  0  0  0
  5  6  1  0  0  0  0
  6 18  1  6  0  0  0
  6 28  1  0  0  0  0
  7 19  1  6  0  0  0
  7 24  1  0  0  0  0
  9 28  1  0  0  0  0
  9 26  2  0  0  0  0
 10 20  1  0  0  0  0
 10 17  1  0  0  0  0
 11  3  1  0  0  0  0
 12  8  1  6  0  0  0
 12 13  1  0  0  0  0
 12  2  1  0  0  0  0
 13 11  1  6  0  0  0
 13 22  1  0  0  0  0
 14 23  1  6  0  0  0
 15  9  1  0  0  0  0
 16 19  1  0  0  0  0
 17  8  2  0  0  0  0
 17  7  1  0  0  0  0
 18 15  1  0  0  0  0
 20 29  1  6  0  0  0
 22 21  1  1  0  0  0
 22 14  1  0  0  0  0
 23 28  1  0  0  0  0
 27 14  1  0  0  0  0
 27  5  1  0  0  0  0
 30 29  1  0  0  0  0
 31 30  1  0  0  0  0
 32 30  2  0  0  0  0
M  END
>  <MODEL>
1

>  <REMARK>
 VINA RESULT:      -3.3      0.000      0.000
  Name = 
  2 active torsions:
  status: ('A' for Active; 'I' for Inactive)
    1  A    between atoms: C_20  and  C_29
    2  A    between atoms: C_29  and  C_30
                            x       y       z     vdW  Elec       q    Type
                         _______ _______ _______ _____ _____    ______ ____

>  <TORSDO>
F 2

$$$$
=
 OpenBabel11122412503D

 32 37  0  0  1  0  0  0  0  0999 V2000
  161.9550  205.0980  151.8510 C   0  0  0  0  0  2  0  0  0  0  0  0
  160.2880  210.2420  153.5200 C   0  0  1  0  0  3  0  0  0  0  0  0
  161.0930  213.4790  150.0150 O   0  0  0  0  0  0  0  0  0  0  0  0
  159.9560  214.2610  150.2830 C   0  0  0  0  0  2  0  0  0  0  0  0
  159.6900  211.2720  155.8320 C   0  0  1  0  0  3  0  0  0  0  0  0
  158.1760  211.0310  155.8390 C   0  0  2  0  0  3  0  0  0  0  0  0
  161.0630  207.8470  153.2250 C   0  0  1  0  0  3  0  0  0  0  0  0
  160.7110  209.3460  151.2460 C   0  0  0  0  0  3  0  0  0  0  0  0
  156.1910  211.1750  154.6580 C   0  0  0  0  0  0  0  0  0  0  0  0
  160.6200  206.9680  150.7650 C   0  0  0  0  0  2  0  0  0  0  0  0
  160.6960  212.1270  150.1030 C   0  0  0  0  0  2  0  0  0  0  0  0
  160.8390  210.5640  152.1200 C   0  0  1  0  0  3  0  0  0  0  0  0
  160.1220  211.7620  151.4910 C   0  0  1  0  0  3  0  0  0  0  0  0
  159.5500  212.6620  153.7880 C   0  0  1  0  0  3  0  0  0  0  0  0
  156.3830  209.7970  154.9170 N   0  0  0  0  0  2  0  0  0  0  0  0
  162.8790  206.1790  152.4120 C   0  0  0  0  0  2  0  0  0  0  0  0
  160.8580  208.1030  151.7270 C   0  0  0  0  0  0  0  0  0  0  0  0
  157.7230  209.6200  155.4460 C   0  0  0  0  0  2  0  0  0  0  0  0
  162.2590  206.9460  153.5820 C   0  0  0  0  0  2  0  0  0  0  0  0
  160.5630  205.6110  151.4630 C   0  0  1  0  0  3  0  0  0  0  0  0
  159.6230  214.2350  151.7820 C   0  0  0  0  0  2  0  0  0  0  0  0
  160.1890  212.9710  152.4350 C   0  0  2  0  0  3  0  0  0  0  0  0
  158.0570  212.3380  153.6370 C   0  0  0  0  0  2  0  0  0  0  0  0
  161.1510  209.1170  154.0810 C   0  0  0  0  0  2  0  0  0  0  0  0
  160.4610  210.3160  156.7300 C   0  0  0  0  0  1  0  0  0  0  0  0
  155.1150  211.6300  154.1890 O   0  0  0  0  0  0  0  0  0  0  0  0
  160.2980  211.4890  154.4390 C   0  0  2  0  0  3  0  0  0  0  0  0
  157.3700  212.0120  154.9700 C   0  0  2  0  0  3  0  0  0  0  0  0
  159.8660  204.6060  150.5610 C   0  0  0  0  0  2  0  0  0  0  0  0
  160.8550  203.8840  149.7100 C   0  0  0  0  0  0  0  0  0  0  0  0
  161.3940  204.5140  148.5550 N   0  0  0  0  0  1  0  0  0  0  0  0
  161.1950  202.7080  150.0010 O   0  0  0  0  0  0  0  0  0  0  0  0
  1 16  1  0  0  0  0
  2 24  1  1  0  0  0
  2 27  1  0  0  0  0
  3 11  1  0  0  0  0
  3  4  1  0  0  0  0
  4 21  1  0  0  0  0
  5  6  1  0  0  0  0
  5 25  1  6  0  0  0
  6 18  1  6  0  0  0
  7 19  1  6  0  0  0
  7 24  1  0  0  0  0
  8 17  2  0  0  0  0
  9 15  1  0  0  0  0
  9 28  1  0  0  0  0
 10 20  1  0  0  0  0
 10 17  1  0  0  0  0
 12  8  1  6  0  0  0
 12  2  1  0  0  0  0
 13 11  1  6  0  0  0
 13 12  1  0  0  0  0
 13 22  1  0  0  0  0
 14 23  1  6  0  0  0
 14 27  1  0  0  0  0
 15 18  1  0  0  0  0
 16 19  1  0  0  0  0
 17  7  1  0  0  0  0
 20 29  1  6  0  0  0
 20  1  1  0  0  0  0
 22 21  1  6  0  0  0
 22 14  1  0  0  0  0
 23 28  1  0  0  0  0
 26  9  2  0  0  0  0
 27  5  1  0  0  0  0
 28  6  1  0  0  0  0
 30 32  2  0  0  0  0
 30 29  1  0  0  0  0
 31 30  1  0  0  0  0
M  END
>  <MODEL>
2

>  <REMARK>
 VINA RESULT:      -2.0      2.979      6.589
  Name = 
  2 active torsions:
  status: ('A' for Active; 'I' for Inactive)
    1  A    between atoms: C_20  and  C_29
    2  A    between atoms: C_29  and  C_30
                            x       y       z     vdW  Elec       q    Type
                         _______ _______ _______ _____ _____    ______ ____

>  <TORSDO>
F 2

$$$$
=
 OpenBabel11122412503D

 32 37  0  0  1  0  0  0  0  0999 V2000
  162.5750  208.4130  137.4760 C   0  0  0  0  0  2  0  0  0  0  0  0
  160.0860  212.6040  140.3490 C   0  0  1  0  0  3  0  0  0  0  0  0
  155.6730  213.4660  138.5620 O   0  0  0  0  0  0  0  0  0  0  0  0
  155.0830  213.7870  139.7970 C   0  0  0  0  0  2  0  0  0  0  0  0
  160.9600  214.4130  142.0010 C   0  0  1  0  0  3  0  0  0  0  0  0
  160.7370  213.6790  143.3290 C   0  0  2  0  0  3  0  0  0  0  0  0
  161.5960  210.9120  139.2170 C   0  0  1  0  0  3  0  0  0  0  0  0
  159.1100  210.8540  138.8880 C   0  0  0  0  0  3  0  0  0  0  0  0
  159.2860  212.4260  144.6250 C   0  0  0  0  0  0  0  0  0  0  0  0
  160.2550  208.7570  138.4550 C   0  0  0  0  0  2  0  0  0  0  0  0
  156.5000  212.3420  138.7790 C   0  0  0  0  0  2  0  0  0  0  0  0
  159.0010  212.2960  139.3030 C   0  0  1  0  0  3  0  0  0  0  0  0
  157.5980  212.6030  139.8350 C   0  0  1  0  0  3  0  0  0  0  0  0
  158.5500  214.3140  141.4400 C   0  0  1  0  0  3  0  0  0  0  0  0
  160.4030  211.5910  144.3830 N   0  0  0  0  0  2  0  0  0  0  0  0
  162.5260  209.8730  137.0280 C   0  0  0  0  0  2  0  0  0  0  0  0
  160.2910  210.2240  138.7980 C   0  0  0  0  0  0  0  0  0  0  0  0
  161.2380  212.2320  143.3840 C   0  0  0  0  0  2  0  0  0  0  0  0
  162.7320  210.8580  138.1800 C   0  0  0  0  0  2  0  0  0  0  0  0
  161.6150  208.0830  138.6250 C   0  0  1  0  0  3  0  0  0  0  0  0
  156.1060  214.4530  140.7280 C   0  0  0  0  0  2  0  0  0  0  0  0
  157.5300  214.0530  140.3340 C   0  0  2  0  0  3  0  0  0  0  0  0
  158.2720  213.4410  142.6710 C   0  0  0  0  0  2  0  0  0  0  0  0
  161.4290  212.3690  139.6670 C   0  0  0  0  0  2  0  0  0  0  0  0
  162.4170  214.4530  141.5670 C   0  0  0  0  0  1  0  0  0  0  0  0
  158.3830  212.1240  145.4490 O   0  0  0  0  0  0  0  0  0  0  0  0
  159.9610  214.0490  140.8930 C   0  0  2  0  0  3  0  0  0  0  0  0
  159.2760  213.6600  143.8110 C   0  0  2  0  0  3  0  0  0  0  0  0
  161.4250  206.5790  138.7350 C   0  0  0  0  0  2  0  0  0  0  0  0
  162.2770  206.0170  139.8220 C   0  0  0  0  0  0  0  0  0  0  0  0
  161.9200  206.2210  141.1840 N   0  0  0  0  0  1  0  0  0  0  0  0
  163.3240  205.3820  139.5350 O   0  0  0  0  0  0  0  0  0  0  0  0
  1 20  1  0  0  0  0
  2 24  1  6  0  0  0
  2 27  1  0  0  0  0
  3 11  1  0  0  0  0
  3  4  1  0  0  0  0
  4 21  1  0  0  0  0
  5 25  1  6  0  0  0
  5  6  1  0  0  0  0
  6 18  1  6  0  0  0
  6 28  1  0  0  0  0
  7 19  1  6  0  0  0
  7 24  1  0  0  0  0
  9 26  2  0  0  0  0
 10 20  1  0  0  0  0
 10 17  1  0  0  0  0
 12  8  1  1  0  0  0
 12 13  1  0  0  0  0
 12  2  1  0  0  0  0
 13 11  1  6  0  0  0
 13 22  1  0  0  0  0
 14 23  1  1  0  0  0
 15  9  1  0  0  0  0
 16  1  1  0  0  0  0
 16 19  1  0  0  0  0
 17  8  2  0  0  0  0
 17  7  1  0  0  0  0
 18 15  1  0  0  0  0
 20 29  1  6  0  0  0
 22 21  1  1  0  0  0
 22 14  1  0  0  0  0
 23 28  1  0  0  0  0
 27 14  1  0  0  0  0
 27  5  1  0  0  0  0
 28  9  1  0  0  0  0
 29 30  1  0  0  0  0
 30 31  1  0  0  0  0
 32 30  2  0  0  0  0
M  END
>  <MODEL>
3

>  <REMARK>
 VINA RESULT:      -1.8      9.658     13.996
  Name = 
  2 active torsions:
  status: ('A' for Active; 'I' for Inactive)
    1  A    between atoms: C_20  and  C_29
    2  A    between atoms: C_29  and  C_30
                            x       y       z     vdW  Elec       q    Type
                         _______ _______ _______ _____ _____    ______ ____

>  <TORSDO>
F 2

$$$$
=
 OpenBabel11122412503D

 32 37  0  0  1  0  0  0  0  0999 V2000
  161.3860  206.7480  151.8640 C   0  0  0  0  0  2  0  0  0  0  0  0
  160.8830  212.0220  149.8770 C   0  0  1  0  0  3  0  0  0  0  0  0
  164.1450  212.8140  146.3920 O   0  0  0  0  0  0  0  0  0  0  0  0
  163.3210  213.6510  145.6180 C   0  0  0  0  0  2  0  0  0  0  0  0
  159.6820  214.1600  150.7460 C   0  0  1  0  0  3  0  0  0  0  0  0
  158.3350  214.0080  150.0310 C   0  0  2  0  0  3  0  0  0  0  0  0
  160.9020  209.8290  151.1460 C   0  0  1  0  0  3  0  0  0  0  0  0
  161.9630  210.0240  148.8820 C   0  0  0  0  0  3  0  0  0  0  0  0
  157.2430  213.5500  148.0420 C   0  0  0  0  0  0  0  0  0  0  0  0
  161.3450  207.7690  149.5370 C   0  0  0  0  0  2  0  0  0  0  0  0
  163.3430  211.7390  146.8340 C   0  0  0  0  0  2  0  0  0  0  0  0
  162.0700  211.5170  149.0380 C   0  0  1  0  0  3  0  0  0  0  0  0
  162.1290  212.2030  147.6700 C   0  0  1  0  0  3  0  0  0  0  0  0
  160.9150  214.2220  148.5990 C   0  0  1  0  0  3  0  0  0  0  0  0
  156.8500  212.5280  148.9400 N   0  0  0  0  0  2  0  0  0  0  0  0
  162.2540  207.9310  152.2910 C   0  0  0  0  0  2  0  0  0  0  0  0
  161.4780  209.2370  149.8530 C   0  0  0  0  0  0  0  0  0  0  0  0
  157.6820  212.6250  150.1250 C   0  0  0  0  0  2  0  0  0  0  0  0
  161.4590  209.2280  152.4490 C   0  0  0  0  0  2  0  0  0  0  0  0
  160.5560  207.0110  150.6020 C   0  0  1  0  0  3  0  0  0  0  0  0
  162.3690  214.4520  146.5170 C   0  0  0  0  0  2  0  0  0  0  0  0
  162.1500  213.7280  147.8480 C   0  0  2  0  0  3  0  0  0  0  0  0
  159.6290  213.9140  147.8210 C   0  0  0  0  0  2  0  0  0  0  0  0
  161.0000  211.3560  151.2440 C   0  0  0  0  0  2  0  0  0  0  0  0
  159.6250  213.8200  152.2280 C   0  0  0  0  0  1  0  0  0  0  0  0
  156.6950  213.7100  146.9200 O   0  0  0  0  0  0  0  0  0  0  0  0
  160.8800  213.5680  149.9890 C   0  0  2  0  0  3  0  0  0  0  0  0
  158.3580  214.3850  148.5390 C   0  0  2  0  0  3  0  0  0  0  0  0
  160.0540  205.6990  150.0210 C   0  0  0  0  0  2  0  0  0  0  0  0
  160.9890  205.1910  148.9770 C   0  0  0  0  0  0  0  0  0  0  0  0
  160.9150  205.6970  147.6490 N   0  0  0  0  0  1  0  0  0  0  0  0
  161.8260  204.2970  149.2630 O   0  0  0  0  0  0  0  0  0  0  0  0
  1 16  1  0  0  0  0
  2 27  1  0  0  0  0
  2 24  1  1  0  0  0
  3 11  1  0  0  0  0
  4  3  1  0  0  0  0
  4 21  1  0  0  0  0
  5 25  1  1  0  0  0
  6 18  1  6  0  0  0
  6  5  1  0  0  0  0
  7 24  1  1  0  0  0
  7 19  1  0  0  0  0
  8 17  2  0  0  0  0
  9 28  1  0  0  0  0
  9 15  1  0  0  0  0
 10 17  1  0  0  0  0
 10 20  1  0  0  0  0
 12  8  1  6  0  0  0
 12  2  1  0  0  0  0
 13 11  1  1  0  0  0
 13 22  1  0  0  0  0
 13 12  1  0  0  0  0
 14 23  1  6  0  0  0
 14 27  1  0  0  0  0
 15 18  1  0  0  0  0
 16 19  1  0  0  0  0
 17  7  1  0  0  0  0
 20 29  1  6  0  0  0
 20  1  1  0  0  0  0
 22 21  1  6  0  0  0
 22 14  1  0  0  0  0
 23 28  1  0  0  0  0
 26  9  2  0  0  0  0
 27  5  1  0  0  0  0
 28  6  1  0  0  0  0
 30 32  2  0  0  0  0
 30 29  1  0  0  0  0
 31 30  1  0  0  0  0
M  END
>  <MODEL>
4

>  <REMARK>
 VINA RESULT:      -0.5      3.890      7.950
  Name = 
  2 active torsions:
  status: ('A' for Active; 'I' for Inactive)
    1  A    between atoms: C_20  and  C_29
    2  A    between atoms: C_29  and  C_30
                            x       y       z     vdW  Elec       q    Type
                         _______ _______ _______ _____ _____    ______ ____

>  <TORSDO>
F 2

$$$$
