=
 OpenBabel11122412483D

 32 37  0  0  1  0  0  0  0  0999 V2000
  159.7270  209.2850  156.6280 C   0  0  0  0  0  3  0  0  0  0  0  0
  161.2910  206.2780  152.2840 C   0  0  1  0  0  3  0  0  0  0  0  0
  162.0290  209.7570  148.8060 C   0  0  0  0  0  3  0  0  0  0  0  0
  161.8020  208.8180  147.8030 C   0  0  0  0  0  3  0  0  0  0  0  0
  160.7110  203.9580  151.5200 C   0  0  0  0  0  0  0  0  0  0  0  0
  161.0420  203.0510  150.4720 N   0  0  0  0  0  0  0  0  0  0  0  0
  161.1400  207.1010  154.6530 C   0  0  1  0  0  3  0  0  0  0  0  0
  162.0700  208.5880  152.8960 C   0  0  0  0  0  2  0  0  0  0  0  0
  161.2710  202.4180  148.3270 C   0  0  0  0  0  0  0  0  0  0  0  0
  161.8090  209.4550  155.2200 C   0  0  0  0  0  2  0  0  0  0  0  0
  161.9310  209.3810  150.1460 C   0  0  0  0  0  3  0  0  0  0  0  0
  161.5270  207.6760  151.8850 N   0  0  0  0  0  0  0  0  0  0  0  0
  161.6020  208.0600  150.5010 C   0  0  0  0  0  0  0  0  0  0  0  0
  161.0040  205.7610  149.8340 N   0  0  0  0  0  0  0  0  0  0  0  0
  161.4480  201.1600  149.1190 C   0  0  0  0  0  3  0  0  0  0  0  0
  159.2600  207.9500  156.1210 C   0  0  0  0  0  2  0  0  0  0  0  0
  161.2160  208.5470  154.1540 C   0  0  2  0  0  3  0  0  0  0  0  0
  161.2540  201.6170  150.5740 C   0  0  0  0  0  3  0  0  0  0  0  0
  160.4060  206.9550  155.9890 C   0  0  0  0  0  2  0  0  0  0  0  0
  160.7960  209.9870  156.2030 C   0  0  0  0  0  0  0  0  0  0  0  0
  161.4710  207.5060  148.1430 C   0  0  0  0  0  3  0  0  0  0  0  0
  161.3600  207.1140  149.4910 C   0  0  0  0  0  0  0  0  0  0  0  0
  160.7130  204.8330  148.7310 C   0  0  0  0  0  2  0  0  0  0  0  0
  160.4780  206.2430  153.5850 C   0  0  0  0  0  2  0  0  0  0  0  0
  160.4930  203.5160  152.6800 O   0  0  0  0  0  0  0  0  0  0  0  0
  161.2890  202.4810  146.8390 C   0  0  0  0  0  1  0  0  0  0  0  0
  160.5600  205.4410  151.2130 C   0  0  2  0  0  3  0  0  0  0  0  0
  161.0640  203.4430  149.1260 C   0  0  0  0  0  0  0  0  0  0  0  0
  161.0970  211.2640  156.7880 N   0  0  0  0  0  2  0  0  0  0  0  0
  160.4630  212.5200  156.5110 C   0  0  0  0  0  0  0  0  0  0  0  0
  159.5580  212.6210  155.6420 O   0  0  0  0  0  0  0  0  0  0  0  0
  160.8910  213.7300  157.2610 C   0  0  0  0  0  1  0  0  0  0  0  0
  2 24  1  1  0  0  0
  3 11  1  0  0  0  0
  4 21  1  0  0  0  0
  4  3  2  0  0  0  0
  5 25  2  0  0  0  0
  6 18  1  0  0  0  0
  6  5  1  0  0  0  0
  7 24  1  6  0  0  0
  7 19  1  0  0  0  0
  9 15  1  0  0  0  0
  9 28  2  0  0  0  0
 10 20  1  0  0  0  0
 11 13  2  0  0  0  0
 12  2  1  0  0  0  0
 12  8  1  0  0  0  0
 13 12  1  0  0  0  0
 14 27  1  0  0  0  0
 15 18  2  0  0  0  0
 16  1  1  0  0  0  0
 17  8  1  6  0  0  0
 17  7  1  0  0  0  0
 17 10  1  0  0  0  0
 19 16  1  0  0  0  0
 20  1  2  0  0  0  0
 20 29  1  0  0  0  0
 21 22  2  0  0  0  0
 22 14  1  0  0  0  0
 22 13  1  0  0  0  0
 23 28  1  0  0  0  0
 23 14  1  0  0  0  0
 26  9  1  0  0  0  0
 27  5  1  1  0  0  0
 27  2  1  0  0  0  0
 28  6  1  0  0  0  0
 30 29  1  0  0  0  0
 30 32  1  0  0  0  0
 31 30  2  0  0  0  0
M  END
>  <MODEL>
1

>  <REMARK>
 VINA RESULT:      -8.1      0.000      0.000
  Name = 
  1 active torsions:
  status: ('A' for Active; 'I' for Inactive)
    1  A    between atoms: C_20  and  N_29
                            x       y       z     vdW  Elec       q    Type
                         _______ _______ _______ _____ _____    ______ ____

>  <TORSDO>
F 1

$$$$
=
 OpenBabel11122412483D

 32 37  0  0  1  0  0  0  0  0999 V2000
  161.7340  201.4790  150.1260 C   0  0  0  0  0  3  0  0  0  0  0  0
  160.7360  206.4220  152.3450 C   0  0  1  0  0  3  0  0  0  0  0  0
  161.9260  209.5050  148.6250 C   0  0  0  0  0  3  0  0  0  0  0  0
  162.1760  210.5270  149.5380 C   0  0  0  0  0  3  0  0  0  0  0  0
  160.8910  207.2990  154.6920 C   0  0  0  0  0  0  0  0  0  0  0  0
  160.6460  208.5040  155.4140 N   0  0  0  0  0  0  0  0  0  0  0  0
  160.4220  204.0100  151.7190 C   0  0  1  0  0  3  0  0  0  0  0  0
  160.4380  205.7440  149.9430 C   0  0  0  0  0  2  0  0  0  0  0  0
  160.8750  210.6980  155.8470 C   0  0  0  0  0  0  0  0  0  0  0  0
  160.2480  203.3400  149.3050 C   0  0  0  0  0  2  0  0  0  0  0  0
  161.5430  208.2430  149.0830 C   0  0  0  0  0  3  0  0  0  0  0  0
  160.9900  206.6890  150.9180 N   0  0  0  0  0  0  0  0  0  0  0  0
  161.4070  207.9860  150.4590 C   0  0  0  0  0  0  0  0  0  0  0  0
  161.5570  208.7620  152.7950 N   0  0  0  0  0  0  0  0  0  0  0  0
  160.1660  210.1430  157.0420 C   0  0  0  0  0  3  0  0  0  0  0  0
  161.9650  202.0140  151.5110 C   0  0  0  0  0  2  0  0  0  0  0  0
  160.8630  204.3250  150.2870 C   0  0  2  0  0  3  0  0  0  0  0  0
  160.0530  208.6410  156.7330 C   0  0  0  0  0  3  0  0  0  0  0  0
  160.6880  202.5600  152.1340 C   0  0  0  0  0  2  0  0  0  0  0  0
  161.0460  202.0710  149.1300 C   0  0  0  0  0  0  0  0  0  0  0  0
  162.0490  210.2820  150.9060 C   0  0  0  0  0  3  0  0  0  0  0  0
  161.6730  209.0110  151.3810 C   0  0  0  0  0  0  0  0  0  0  0  0
  161.8980  209.8630  153.7110 C   0  0  0  0  0  2  0  0  0  0  0  0
  161.1130  204.9720  152.6740 C   0  0  0  0  0  2  0  0  0  0  0  0
  160.6530  206.1880  155.2360 O   0  0  0  0  0  0  0  0  0  0  0  0
  161.2940  212.1210  155.7050 C   0  0  0  0  0  1  0  0  0  0  0  0
  161.4980  207.3680  153.2980 C   0  0  2  0  0  3  0  0  0  0  0  0
  161.1060  209.7490  154.9640 C   0  0  0  0  0  0  0  0  0  0  0  0
  160.9310  201.4270  147.8530 N   0  0  0  0  0  2  0  0  0  0  0  0
  161.0190  202.0370  146.5580 C   0  0  0  0  0  0  0  0  0  0  0  0
  161.1700  203.2800  146.4270 O   0  0  0  0  0  0  0  0  0  0  0  0
  160.9180  201.1850  145.3450 C   0  0  0  0  0  1  0  0  0  0  0  0
  1 16  1  0  0  0  0
  2 24  1  1  0  0  0
  2 27  1  0  0  0  0
  3 11  2  0  0  0  0
  3  4  1  0  0  0  0
  4 21  2  0  0  0  0
  5 25  2  0  0  0  0
  5  6  1  0  0  0  0
  6 18  1  0  0  0  0
  7 19  1  1  0  0  0
  7 24  1  0  0  0  0
  8 17  1  0  0  0  0
  8 12  1  0  0  0  0
  9 15  1  0  0  0  0
 11 13  1  0  0  0  0
 12  2  1  0  0  0  0
 13 12  1  0  0  0  0
 13 22  2  0  0  0  0
 14 27  1  0  0  0  0
 14 23  1  0  0  0  0
 16 19  1  0  0  0  0
 17 10  1  6  0  0  0
 17  7  1  0  0  0  0
 18 15  2  0  0  0  0
 20 10  1  0  0  0  0
 20  1  2  0  0  0  0
 21 22  1  0  0  0  0
 22 14  1  0  0  0  0
 23 28  1  0  0  0  0
 26  9  1  0  0  0  0
 27  5  1  1  0  0  0
 28  6  1  0  0  0  0
 28  9  2  0  0  0  0
 29 20  1  0  0  0  0
 30 29  1  0  0  0  0
 31 30  2  0  0  0  0
 32 30  1  0  0  0  0
M  END
>  <MODEL>
2

>  <REMARK>
 VINA RESULT:      -7.2      1.861      8.165
  Name = 
  1 active torsions:
  status: ('A' for Active; 'I' for Inactive)
    1  A    between atoms: C_20  and  N_29
                            x       y       z     vdW  Elec       q    Type
                         _______ _______ _______ _____ _____    ______ ____

>  <TORSDO>
F 1

$$$$
=
 OpenBabel11122412483D

 32 37  0  0  1  0  0  0  0  0999 V2000
  162.7780  210.6060  153.1610 C   0  0  0  0  0  3  0  0  0  0  0  0
  161.0500  206.6900  149.6930 C   0  0  1  0  0  3  0  0  0  0  0  0
  160.8230  202.6930  152.6460 C   0  0  0  0  0  3  0  0  0  0  0  0
  160.9810  201.8560  151.5440 C   0  0  0  0  0  3  0  0  0  0  0  0
  161.3990  206.3160  147.2350 C   0  0  0  0  0  0  0  0  0  0  0  0
  161.0070  205.4000  146.2150 N   0  0  0  0  0  0  0  0  0  0  0  0
  161.2060  208.9120  150.8540 C   0  0  1  0  0  3  0  0  0  0  0  0
  160.5080  206.9050  152.1380 C   0  0  0  0  0  2  0  0  0  0  0  0
  160.7870  203.3670  145.2830 C   0  0  0  0  0  0  0  0  0  0  0  0
  160.7790  209.0830  153.3240 C   0  0  0  0  0  2  0  0  0  0  0  0
  160.8310  204.0780  152.4740 C   0  0  0  0  0  3  0  0  0  0  0  0
  160.9830  206.0720  151.0290 N   0  0  0  0  0  0  0  0  0  0  0  0
  161.0000  204.6450  151.1980 C   0  0  0  0  0  0  0  0  0  0  0  0
  161.3650  204.3640  148.7750 N   0  0  0  0  0  0  0  0  0  0  0  0
  160.4450  204.3280  144.1890 C   0  0  0  0  0  3  0  0  0  0  0  0
  163.1140  210.3310  151.7230 C   0  0  0  0  0  2  0  0  0  0  0  0
  161.3060  208.1970  152.2050 C   0  0  2  0  0  3  0  0  0  0  0  0
  160.6360  205.7070  144.8440 C   0  0  0  0  0  3  0  0  0  0  0  0
  161.8710  210.2910  150.8430 C   0  0  0  0  0  2  0  0  0  0  0  0
  161.8090  210.0250  153.8950 C   0  0  0  0  0  0  0  0  0  0  0  0
  161.1540  202.4080  150.2740 C   0  0  0  0  0  3  0  0  0  0  0  0
  161.1730  203.8030  150.0870 C   0  0  0  0  0  0  0  0  0  0  0  0
  161.5920  203.4300  147.6610 C   0  0  0  0  0  2  0  0  0  0  0  0
  161.8070  208.0220  149.7770 C   0  0  0  0  0  2  0  0  0  0  0  0
  161.5250  207.5380  146.9580 O   0  0  0  0  0  0  0  0  0  0  0  0
  160.8300  201.8870  145.1160 C   0  0  0  0  0  1  0  0  0  0  0  0
  161.7220  205.7970  148.6280 C   0  0  2  0  0  3  0  0  0  0  0  0
  161.0770  204.0120  146.3930 C   0  0  0  0  0  0  0  0  0  0  0  0
  161.6290  210.3940  155.2710 N   0  0  0  0  0  2  0  0  0  0  0  0
  160.8040  211.4460  155.7890 C   0  0  0  0  0  0  0  0  0  0  0  0
  160.1590  212.2120  155.0250 O   0  0  0  0  0  0  0  0  0  0  0  0
  160.7150  211.6420  157.2600 C   0  0  0  0  0  1  0  0  0  0  0  0
  1 20  2  0  0  0  0
  2 24  1  1  0  0  0
  2 12  1  0  0  0  0
  4  3  2  0  0  0  0
  6 28  1  0  0  0  0
  6  5  1  0  0  0  0
  7 24  1  6  0  0  0
  7 17  1  0  0  0  0
  9 28  2  0  0  0  0
 10 20  1  0  0  0  0
 11  3  1  0  0  0  0
 12 13  1  0  0  0  0
 12  8  1  0  0  0  0
 13 11  2  0  0  0  0
 14 22  1  0  0  0  0
 15 18  2  0  0  0  0
 15  9  1  0  0  0  0
 16  1  1  0  0  0  0
 17  8  1  6  0  0  0
 17 10  1  0  0  0  0
 18  6  1  0  0  0  0
 19  7  1  0  0  0  0
 19 16  1  0  0  0  0
 20 29  1  0  0  0  0
 21  4  1  0  0  0  0
 22 21  2  0  0  0  0
 22 13  1  0  0  0  0
 23 14  1  0  0  0  0
 25  5  2  0  0  0  0
 26  9  1  0  0  0  0
 27  5  1  6  0  0  0
 27 14  1  0  0  0  0
 27  2  1  0  0  0  0
 28 23  1  0  0  0  0
 29 30  1  0  0  0  0
 30 32  1  0  0  0  0
 31 30  2  0  0  0  0
M  END
>  <MODEL>
3

>  <REMARK>
 VINA RESULT:      -6.4      2.108      4.403
  Name = 
  1 active torsions:
  status: ('A' for Active; 'I' for Inactive)
    1  A    between atoms: C_20  and  N_29
                            x       y       z     vdW  Elec       q    Type
                         _______ _______ _______ _____ _____    ______ ____

>  <TORSDO>
F 1

$$$$
