=
 OpenBabel11122413323D

 37 43  0  0  1  0  0  0  0  0999 V2000
  159.1950  211.6110  151.4780 C   0  0  0  0  0  2  0  0  0  0  0  0
  161.5540  207.5790  149.6620 C   0  0  0  0  0  0  0  0  0  0  0  0
  161.0490  208.2720  153.7280 C   0  0  0  0  0  0  0  0  0  0  0  0
  158.9400  212.9030  150.8300 N   0  0  0  0  0  0  0  0  0  0  0  0
  160.7200  211.8010  155.1180 O   0  0  0  0  0  0  0  0  0  0  0  0
  161.1660  206.6720  151.9380 C   0  0  0  0  0  0  0  0  0  0  0  0
  160.9250  209.6470  153.8040 C   0  0  0  0  0  0  0  0  0  0  0  0
  158.3310  213.9070  153.1400 C   0  0  2  0  0  3  0  0  0  0  0  0
  161.1820  207.9610  152.4140 C   0  0  0  0  0  0  0  0  0  0  0  0
  160.6110  210.3870  155.1010 C   0  0  2  0  0  3  0  0  0  0  0  0
  161.0270  205.6260  152.8680 C   0  0  0  0  0  3  0  0  0  0  0  0
  158.9720  214.0680  151.7400 C   0  0  0  0  0  2  0  0  0  0  0  0
  161.1460  209.0370  151.6320 N   0  0  0  0  0  0  0  0  0  0  0  0
  160.9500  207.2980  148.3030 C   0  0  0  0  0  1  0  0  0  0  0  0
  160.6360  207.6170  156.1310 C   0  0  0  0  0  2  0  0  0  0  0  0
  160.8800  205.9310  154.2480 C   0  0  0  0  0  3  0  0  0  0  0  0
  161.0140  208.9430  150.1770 C   0  0  0  0  0  2  0  0  0  0  0  0
  159.3490  213.6180  154.2490 C   0  0  0  0  0  2  0  0  0  0  0  0
  160.0630  212.3060  153.9920 C   0  0  1  0  0  3  0  0  0  0  0  0
  160.8690  207.2740  154.6910 C   0  0  0  0  0  0  0  0  0  0  0  0
  160.9570  210.0930  152.4610 C   0  0  0  0  0  0  0  0  0  0  0  0
  161.2400  206.4860  150.5520 O   0  0  0  0  0  0  0  0  0  0  0  0
  159.4270  209.8110  155.8580 C   0  0  0  0  0  0  0  0  0  0  0  0
  163.0600  207.6760  149.5080 C   0  0  0  0  0  1  0  0  0  0  0  0
  160.9790  212.4530  152.9390 O   0  0  0  0  0  0  0  0  0  0  0  0
  157.2740  212.9920  153.1570 O   0  0  0  0  0  1  0  0  0  0  0  0
  160.6500  211.4850  151.9710 C   0  0  2  0  0  3  0  0  0  0  0  0
  159.4600  208.5420  156.3000 C   0  0  0  0  0  3  0  0  0  0  0  0
  158.1360  211.5690  157.0690 C   0  0  0  0  0  3  0  0  0  0  0  0
  158.1910  210.5880  156.0680 C   0  0  0  0  0  0  0  0  0  0  0  0
  157.0730  210.3810  155.2480 C   0  0  0  0  0  3  0  0  0  0  0  0
  154.8020  210.9090  154.6310 O   0  0  0  0  0  1  0  0  0  0  0  0
  155.8560  212.0960  156.4480 C   0  0  0  0  0  3  0  0  0  0  0  0
  155.9080  211.1280  155.4400 C   0  0  0  0  0  0  0  0  0  0  0  0
  156.9710  212.3180  157.2610 C   0  0  0  0  0  3  0  0  0  0  0  0
  157.6840  213.4010  148.8070 C   0  0  0  0  0  1  0  0  0  0  0  0
  157.6230  212.8410  150.2150 C   0  0  0  0  0  2  0  0  0  0  0  0
  2 17  1  0  0  0  0
  2 22  1  0  0  0  0
  3  7  1  0  0  0  0
  3 20  1  0  0  0  0
  4  1  1  0  0  0  0
  4 12  1  0  0  0  0
  6  9  1  0  0  0  0
  6 11  2  0  0  0  0
  8 26  1  6  0  0  0
  8 18  1  0  0  0  0
  9  3  2  0  0  0  0
 10  7  1  6  0  0  0
 10  5  1  0  0  0  0
 10 23  1  0  0  0  0
 11 16  1  0  0  0  0
 12  8  1  0  0  0  0
 13  9  1  0  0  0  0
 13 21  1  0  0  0  0
 14  2  1  0  0  0  0
 15 28  1  0  0  0  0
 16 20  2  0  0  0  0
 17 13  1  0  0  0  0
 19 18  1  1  0  0  0
 19  5  1  0  0  0  0
 20 15  1  0  0  0  0
 21  7  2  0  0  0  0
 22  6  1  0  0  0  0
 23 30  1  0  0  0  0
 23 28  2  0  0  0  0
 24  2  1  0  0  0  0
 25 19  1  0  0  0  0
 27  1  1  1  0  0  0
 27 21  1  0  0  0  0
 27 25  1  0  0  0  0
 29 35  1  0  0  0  0
 30 29  2  0  0  0  0
 31 34  2  0  0  0  0
 31 30  1  0  0  0  0
 32 34  1  0  0  0  0
 33 35  2  0  0  0  0
 34 33  1  0  0  0  0
 36 37  1  0  0  0  0
 37  4  1  0  0  0  0
M  END
>  <MODEL>
1

>  <REMARK>
 VINA RESULT:      -3.4      0.000      0.000
  Name = 
  2 active torsions:
  status: ('A' for Active; 'I' for Inactive)
    1  A    between atoms: N_4  and  C_37
    2  A    between atoms: C_23  and  C_30
                            x       y       z     vdW  Elec       q    Type
                         _______ _______ _______ _____ _____    ______ ____

>  <TORSDO>
F 2

$$$$
=
 OpenBabel11122413323D

 37 43  0  0  1  0  0  0  0  0999 V2000
  160.6650  210.6850  148.0590 C   0  0  0  0  0  2  0  0  0  0  0  0
  161.3040  205.8930  146.7400 C   0  0  0  0  0  0  0  0  0  0  0  0
  161.6730  207.2370  150.6550 C   0  0  0  0  0  0  0  0  0  0  0  0
  160.7400  211.8910  147.2260 N   0  0  0  0  0  0  0  0  0  0  0  0
  162.7060  210.8160  151.4390 O   0  0  0  0  0  0  0  0  0  0  0  0
  160.9980  205.4740  149.1660 C   0  0  0  0  0  0  0  0  0  0  0  0
  162.0080  208.5690  150.5040 C   0  0  0  0  0  0  0  0  0  0  0  0
  160.8440  213.3330  149.3780 C   0  0  2  0  0  3  0  0  0  0  0  0
  161.4980  206.7310  149.4080 C   0  0  0  0  0  0  0  0  0  0  0  0
  162.1490  209.5340  151.6780 C   0  0  2  0  0  3  0  0  0  0  0  0
  160.6750  204.6670  150.2720 C   0  0  0  0  0  3  0  0  0  0  0  0
  161.2820  213.0840  147.9130 C   0  0  0  0  0  2  0  0  0  0  0  0
  161.6890  207.6440  148.4590 N   0  0  0  0  0  0  0  0  0  0  0  0
  160.4430  205.6590  145.5180 C   0  0  0  0  0  1  0  0  0  0  0  0
  161.4440  207.0780  153.1640 C   0  0  0  0  0  2  0  0  0  0  0  0
  160.8450  205.1800  151.5850 C   0  0  0  0  0  3  0  0  0  0  0  0
  161.3140  207.4130  147.0630 C   0  0  0  0  0  2  0  0  0  0  0  0
  161.8720  212.8610  150.4110 C   0  0  0  0  0  2  0  0  0  0  0  0
  162.0820  211.3630  150.3150 C   0  0  1  0  0  3  0  0  0  0  0  0
  161.3330  206.4930  151.7880 C   0  0  0  0  0  0  0  0  0  0  0  0
  161.9760  208.8000  149.1080 C   0  0  0  0  0  0  0  0  0  0  0  0
  160.7960  205.0960  147.8330 O   0  0  0  0  0  0  0  0  0  0  0  0
  160.9730  209.4970  152.6390 C   0  0  0  0  0  0  0  0  0  0  0  0
  162.7200  205.4510  146.4200 C   0  0  0  0  0  1  0  0  0  0  0  0
  162.8240  211.0530  149.1660 O   0  0  0  0  0  0  0  0  0  0  0  0
  159.5660  212.8420  149.6580 O   0  0  0  0  0  1  0  0  0  0  0  0
  162.0600  210.1380  148.4180 C   0  0  2  0  0  3  0  0  0  0  0  0
  160.6650  208.3610  153.2880 C   0  0  0  0  0  3  0  0  0  0  0  0
  159.0000  210.8780  151.9850 C   0  0  0  0  0  3  0  0  0  0  0  0
  160.0980  210.6680  152.8340 C   0  0  0  0  0  0  0  0  0  0  0  0
  160.3310  211.5620  153.8880 C   0  0  0  0  0  3  0  0  0  0  0  0
  159.7380  213.5500  155.1180 O   0  0  0  0  0  1  0  0  0  0  0  0
  158.4080  212.8740  153.2220 C   0  0  0  0  0  3  0  0  0  0  0  0
  159.4930  212.6640  154.0780 C   0  0  0  0  0  0  0  0  0  0  0  0
  158.1610  211.9790  152.1770 C   0  0  0  0  0  3  0  0  0  0  0  0
  159.4190  212.5300  145.2870 C   0  0  0  0  0  1  0  0  0  0  0  0
  159.3960  212.2020  146.7670 C   0  0  0  0  0  2  0  0  0  0  0  0
  2 17  1  0  0  0  0
  2 22  1  0  0  0  0
  3 20  1  0  0  0  0
  4 12  1  0  0  0  0
  4  1  1  0  0  0  0
  5 10  1  0  0  0  0
  6  9  1  0  0  0  0
  6 11  2  0  0  0  0
  7  3  1  0  0  0  0
  8 26  1  1  0  0  0
  8 18  1  0  0  0  0
  9  3  2  0  0  0  0
 10  7  1  6  0  0  0
 10 23  1  0  0  0  0
 11 16  1  0  0  0  0
 12  8  1  0  0  0  0
 13 21  1  0  0  0  0
 13  9  1  0  0  0  0
 14  2  1  0  0  0  0
 15 28  1  0  0  0  0
 16 20  2  0  0  0  0
 17 13  1  0  0  0  0
 19 18  1  1  0  0  0
 19  5  1  0  0  0  0
 20 15  1  0  0  0  0
 21  7  2  0  0  0  0
 22  6  1  0  0  0  0
 23 30  1  0  0  0  0
 23 28  2  0  0  0  0
 24  2  1  0  0  0  0
 25 19  1  0  0  0  0
 27  1  1  1  0  0  0
 27 21  1  0  0  0  0
 27 25  1  0  0  0  0
 29 35  2  0  0  0  0
 29 30  1  0  0  0  0
 30 31  2  0  0  0  0
 31 34  1  0  0  0  0
 33 34  2  0  0  0  0
 34 32  1  0  0  0  0
 35 33  1  0  0  0  0
 36 37  1  0  0  0  0
 37  4  1  0  0  0  0
M  END
>  <MODEL>
2

>  <REMARK>
 VINA RESULT:      -3.2      2.569      3.916
  Name = 
  2 active torsions:
  status: ('A' for Active; 'I' for Inactive)
    1  A    between atoms: N_4  and  C_37
    2  A    between atoms: C_23  and  C_30
                            x       y       z     vdW  Elec       q    Type
                         _______ _______ _______ _____ _____    ______ ____

>  <TORSDO>
F 2

$$$$
=
 OpenBabel11122413323D

 37 43  0  0  1  0  0  0  0  0999 V2000
  160.7100  210.8010  147.8380 C   0  0  0  0  0  2  0  0  0  0  0  0
  161.2910  205.9340  146.7940 C   0  0  0  0  0  0  0  0  0  0  0  0
  161.5890  207.4810  150.6400 C   0  0  0  0  0  0  0  0  0  0  0  0
  160.8290  211.9590  146.9450 N   0  0  0  0  0  0  0  0  0  0  0  0
  162.6700  211.0780  151.2580 O   0  0  0  0  0  0  0  0  0  0  0  0
  160.9170  205.6530  149.2300 C   0  0  0  0  0  0  0  0  0  0  0  0
  161.9530  208.7970  150.4260 C   0  0  0  0  0  0  0  0  0  0  0  0
  160.9070  213.5130  149.0180 C   0  0  2  0  0  3  0  0  0  0  0  0
  161.4350  206.9120  149.4170 C   0  0  0  0  0  0  0  0  0  0  0  0
  162.0830  209.8200  151.5510 C   0  0  2  0  0  3  0  0  0  0  0  0
  160.5530  204.9120  150.3690 C   0  0  0  0  0  3  0  0  0  0  0  0
  161.3760  213.1770  147.5810 C   0  0  0  0  0  2  0  0  0  0  0  0
  161.6670  207.7690  148.4270 N   0  0  0  0  0  0  0  0  0  0  0  0
  160.4560  205.6510  145.5640 C   0  0  0  0  0  1  0  0  0  0  0  0
  161.2960  207.4610  153.1470 C   0  0  0  0  0  2  0  0  0  0  0  0
  160.7000  205.4920  151.6570 C   0  0  0  0  0  3  0  0  0  0  0  0
  161.3210  207.4700  147.0360 C   0  0  0  0  0  2  0  0  0  0  0  0
  161.9010  213.0790  150.1010 C   0  0  0  0  0  2  0  0  0  0  0  0
  162.0840  211.5750  150.0910 C   0  0  1  0  0  3  0  0  0  0  0  0
  161.2070  206.8050  151.8020 C   0  0  0  0  0  0  0  0  0  0  0  0
  161.9600  208.9530  149.0200 C   0  0  0  0  0  0  0  0  0  0  0  0
  160.7420  205.2070  147.9140 O   0  0  0  0  0  0  0  0  0  0  0  0
  160.8830  209.8570  152.4810 C   0  0  0  0  0  0  0  0  0  0  0  0
  162.7060  205.4520  146.5350 C   0  0  0  0  0  1  0  0  0  0  0  0
  162.8490  211.1900  148.9790 O   0  0  0  0  0  0  0  0  0  0  0  0
  159.6130  213.0600  149.2920 O   0  0  0  0  0  1  0  0  0  0  0  0
  162.0850  210.2500  148.2610 C   0  0  2  0  0  3  0  0  0  0  0  0
  160.5390  208.7620  153.1820 C   0  0  0  0  0  3  0  0  0  0  0  0
  160.2220  211.9660  153.6370 C   0  0  0  0  0  3  0  0  0  0  0  0
  160.0260  211.0510  152.5910 C   0  0  0  0  0  0  0  0  0  0  0  0
  159.0330  211.3040  151.6350 C   0  0  0  0  0  3  0  0  0  0  0  0
  157.2430  212.6810  150.7890 O   0  0  0  0  0  1  0  0  0  0  0  0
  158.4230  213.3450  152.7850 C   0  0  0  0  0  3  0  0  0  0  0  0
  158.2300  212.4440  151.7340 C   0  0  0  0  0  0  0  0  0  0  0  0
  159.4210  213.1070  153.7350 C   0  0  0  0  0  3  0  0  0  0  0  0
  159.5030  212.2040  144.9210 C   0  0  0  0  0  1  0  0  0  0  0  0
  159.5020  212.2680  146.4360 C   0  0  0  0  0  2  0  0  0  0  0  0
  2 17  1  0  0  0  0
  2 22  1  0  0  0  0
  3 20  1  0  0  0  0
  4 12  1  0  0  0  0
  4  1  1  0  0  0  0
  5 10  1  0  0  0  0
  6  9  1  0  0  0  0
  6 11  2  0  0  0  0
  7  3  1  0  0  0  0
  8 26  1  1  0  0  0
  8 18  1  0  0  0  0
  9  3  2  0  0  0  0
 10  7  1  6  0  0  0
 10 23  1  0  0  0  0
 11 16  1  0  0  0  0
 12  8  1  0  0  0  0
 13 21  1  0  0  0  0
 13  9  1  0  0  0  0
 14  2  1  0  0  0  0
 15 28  1  0  0  0  0
 16 20  2  0  0  0  0
 17 13  1  0  0  0  0
 19 18  1  1  0  0  0
 19  5  1  0  0  0  0
 20 15  1  0  0  0  0
 21  7  2  0  0  0  0
 22  6  1  0  0  0  0
 23 30  1  0  0  0  0
 23 28  2  0  0  0  0
 24  2  1  0  0  0  0
 25 19  1  0  0  0  0
 27  1  1  1  0  0  0
 27 25  1  0  0  0  0
 27 21  1  0  0  0  0
 29 35  1  0  0  0  0
 30 29  2  0  0  0  0
 31 34  2  0  0  0  0
 31 30  1  0  0  0  0
 32 34  1  0  0  0  0
 33 35  2  0  0  0  0
 34 33  1  0  0  0  0
 36 37  1  0  0  0  0
 37  4  1  0  0  0  0
M  END
>  <MODEL>
3

>  <REMARK>
 VINA RESULT:      -2.4      2.681      3.940
  Name = 
  2 active torsions:
  status: ('A' for Active; 'I' for Inactive)
    1  A    between atoms: N_4  and  C_37
    2  A    between atoms: C_23  and  C_30
                            x       y       z     vdW  Elec       q    Type
                         _______ _______ _______ _____ _____    ______ ____

>  <TORSDO>
F 2

$$$$
=
 OpenBabel11122413323D

 37 43  0  0  1  0  0  0  0  0999 V2000
  161.1440  210.6600  150.1700 C   0  0  0  0  0  2  0  0  0  0  0  0
  160.1650  209.9280  155.0300 C   0  0  0  0  0  0  0  0  0  0  0  0
  158.3780  212.9330  152.7830 C   0  0  0  0  0  0  0  0  0  0  0  0
  162.3080  210.2300  149.3860 N   0  0  0  0  0  0  0  0  0  0  0  0
  160.1160  214.4530  149.7560 O   0  0  0  0  0  0  0  0  0  0  0  0
  158.1660  211.3170  154.5500 C   0  0  0  0  0  0  0  0  0  0  0  0
  159.2940  213.1630  151.7740 C   0  0  0  0  0  0  0  0  0  0  0  0
  161.5970  211.8540  147.4960 C   0  0  2  0  0  3  0  0  0  0  0  0
  158.8780  211.9290  153.5470 C   0  0  0  0  0  0  0  0  0  0  0  0
  159.0370  214.1230  150.6160 C   0  0  2  0  0  3  0  0  0  0  0  0
  156.8620  211.7770  154.8100 C   0  0  0  0  0  3  0  0  0  0  0  0
  162.7150  211.1690  148.3190 C   0  0  0  0  0  2  0  0  0  0  0  0
  160.0500  211.4870  153.0990 N   0  0  0  0  0  0  0  0  0  0  0  0
  160.3780  208.4540  155.3000 C   0  0  0  0  0  1  0  0  0  0  0  0
  156.4900  214.4520  152.0770 C   0  0  0  0  0  2  0  0  0  0  0  0
  156.3180  212.8230  154.0180 C   0  0  0  0  0  3  0  0  0  0  0  0
  160.6620  210.2520  153.5930 C   0  0  0  0  0  2  0  0  0  0  0  0
  161.2770  213.2780  147.9660 C   0  0  0  0  0  2  0  0  0  0  0  0
  160.7650  213.2700  149.3920 C   0  0  1  0  0  3  0  0  0  0  0  0
  157.0750  213.4030  152.9730 C   0  0  0  0  0  0  0  0  0  0  0  0
  160.3190  212.2110  151.9840 C   0  0  0  0  0  0  0  0  0  0  0  0
  158.7670  210.2430  155.2180 O   0  0  0  0  0  0  0  0  0  0  0  0
  157.6970  213.9070  149.9330 C   0  0  0  0  0  0  0  0  0  0  0  0
  160.9910  210.7230  156.0250 C   0  0  0  0  0  1  0  0  0  0  0  0
  161.8200  213.0170  150.2820 O   0  0  0  0  0  0  0  0  0  0  0  0
  160.4420  211.0750  147.3850 O   0  0  0  0  0  1  0  0  0  0  0  0
  161.4530  211.8910  151.0440 C   0  0  2  0  0  3  0  0  0  0  0  0
  156.5550  214.0470  150.6280 C   0  0  0  0  0  3  0  0  0  0  0  0
  156.8040  212.3770  148.1770 C   0  0  0  0  0  3  0  0  0  0  0  0
  157.6070  213.4730  148.5280 C   0  0  0  0  0  0  0  0  0  0  0  0
  158.2920  214.1700  147.5230 C   0  0  0  0  0  3  0  0  0  0  0  0
  158.8850  214.4530  145.2020 O   0  0  0  0  0  1  0  0  0  0  0  0
  157.4020  212.6640  145.8490 C   0  0  0  0  0  3  0  0  0  0  0  0
  158.1940  213.7640  146.1880 C   0  0  0  0  0  0  0  0  0  0  0  0
  156.7050  211.9720  146.8430 C   0  0  0  0  0  3  0  0  0  0  0  0
  161.8120  207.8930  149.8410 C   0  0  0  0  0  1  0  0  0  0  0  0
  161.9840  208.9530  148.7710 C   0  0  0  0  0  2  0  0  0  0  0  0
  2 22  1  0  0  0  0
  2 14  1  0  0  0  0
  2 24  1  0  0  0  0
  3 20  2  0  0  0  0
  3  9  1  0  0  0  0
  4  1  1  0  0  0  0
  6 11  1  0  0  0  0
  6 22  1  0  0  0  0
  7 21  2  0  0  0  0
  7  3  1  0  0  0  0
  8 26  1  1  0  0  0
  8 18  1  0  0  0  0
  8 12  1  0  0  0  0
  9  6  2  0  0  0  0
 10  5  1  6  0  0  0
 10  7  1  0  0  0  0
 12  4  1  0  0  0  0
 13  9  1  0  0  0  0
 13 17  1  0  0  0  0
 15 20  1  0  0  0  0
 16 11  2  0  0  0  0
 17  2  1  0  0  0  0
 19 18  1  6  0  0  0
 19  5  1  0  0  0  0
 19 25  1  0  0  0  0
 20 16  1  0  0  0  0
 21 13  1  0  0  0  0
 23 10  1  0  0  0  0
 23 28  2  0  0  0  0
 25 27  1  0  0  0  0
 27  1  1  6  0  0  0
 27 21  1  0  0  0  0
 28 15  1  0  0  0  0
 29 30  1  0  0  0  0
 30 23  1  0  0  0  0
 31 30  2  0  0  0  0
 32 34  1  0  0  0  0
 33 34  2  0  0  0  0
 33 35  1  0  0  0  0
 34 31  1  0  0  0  0
 35 29  2  0  0  0  0
 37  4  1  0  0  0  0
 37 36  1  0  0  0  0
M  END
>  <MODEL>
4

>  <REMARK>
 VINA RESULT:      -1.1      2.654      6.897
  Name = 
  2 active torsions:
  status: ('A' for Active; 'I' for Inactive)
    1  A    between atoms: N_4  and  C_37
    2  A    between atoms: C_23  and  C_30
                            x       y       z     vdW  Elec       q    Type
                         _______ _______ _______ _____ _____    ______ ____

>  <TORSDO>
F 2

$$$$
=
 OpenBabel11122413323D

 37 43  0  0  1  0  0  0  0  0999 V2000
  161.0870  210.1700  140.4350 C   0  0  0  0  0  2  0  0  0  0  0  0
  161.6090  213.1530  144.4280 C   0  0  0  0  0  0  0  0  0  0  0  0
  158.5830  213.6310  141.6190 C   0  0  0  0  0  0  0  0  0  0  0  0
  162.0820  209.3080  139.7880 N   0  0  0  0  0  0  0  0  0  0  0  0
  159.0280  212.5130  138.0070 O   0  0  0  0  0  0  0  0  0  0  0  0
  159.2620  213.7760  143.9210 C   0  0  0  0  0  0  0  0  0  0  0  0
  159.1170  213.0650  140.4770 C   0  0  0  0  0  0  0  0  0  0  0  0
  160.5110  209.0800  137.7400 C   0  0  2  0  0  3  0  0  0  0  0  0
  159.5070  213.4800  142.6020 C   0  0  0  0  0  0  0  0  0  0  0  0
  158.3300  212.9010  139.1800 C   0  0  2  0  0  3  0  0  0  0  0  0
  157.9940  214.2830  144.2600 C   0  0  0  0  0  3  0  0  0  0  0  0
  161.9420  209.1940  138.3200 C   0  0  0  0  0  2  0  0  0  0  0  0
  160.5990  212.8500  142.1780 N   0  0  0  0  0  0  0  0  0  0  0  0
  162.2640  212.3210  145.5090 C   0  0  0  0  0  1  0  0  0  0  0  0
  156.2460  214.1810  140.8390 C   0  0  0  0  0  2  0  0  0  0  0  0
  157.0110  214.4430  143.2470 C   0  0  0  0  0  3  0  0  0  0  0  0
  161.6190  212.3460  143.0990 C   0  0  0  0  0  2  0  0  0  0  0  0
  159.9590  210.4080  137.2090 C   0  0  0  0  0  2  0  0  0  0  0  0
  159.8490  211.4270  138.3250 C   0  0  1  0  0  3  0  0  0  0  0  0
  157.2960  214.0950  141.9060 C   0  0  0  0  0  0  0  0  0  0  0  0
  160.3750  212.5530  140.8740 C   0  0  0  0  0  0  0  0  0  0  0  0
  160.2740  213.5080  144.8510 O   0  0  0  0  0  0  0  0  0  0  0  0
  156.9650  212.2620  139.3740 C   0  0  0  0  0  0  0  0  0  0  0  0
  162.4230  214.4200  144.2370 C   0  0  0  0  0  1  0  0  0  0  0  0
  161.1240  211.8900  138.6840 O   0  0  0  0  0  0  0  0  0  0  0  0
  159.6130  208.4590  138.6120 O   0  0  0  0  0  1  0  0  0  0  0  0
  161.2740  211.6540  140.0630 C   0  0  2  0  0  3  0  0  0  0  0  0
  156.0430  212.8590  140.1480 C   0  0  0  0  0  3  0  0  0  0  0  0
  157.2120  210.5560  137.5700 C   0  0  0  0  0  3  0  0  0  0  0  0
  156.6370  210.9500  138.7880 C   0  0  0  0  0  0  0  0  0  0  0  0
  155.7750  210.0680  139.4550 C   0  0  0  0  0  3  0  0  0  0  0  0
  154.6130  207.9570  139.5670 O   0  0  0  0  0  1  0  0  0  0  0  0
  156.0430  208.4390  137.6850 C   0  0  0  0  0  3  0  0  0  0  0  0
  155.4750  208.8190  138.9040 C   0  0  0  0  0  0  0  0  0  0  0  0
  156.9140  209.3070  137.0190 C   0  0  0  0  0  3  0  0  0  0  0  0
  162.6190  206.9600  139.4510 C   0  0  0  0  0  1  0  0  0  0  0  0
  161.9600  207.9770  140.3620 C   0  0  0  0  0  2  0  0  0  0  0  0
  2 22  1  0  0  0  0
  2 14  1  0  0  0  0
  3 20  2  0  0  0  0
  3  9  1  0  0  0  0
  4 37  1  0  0  0  0
  4  1  1  0  0  0  0
  5 19  1  0  0  0  0
  6 11  1  0  0  0  0
  6 22  1  0  0  0  0
  7 21  2  0  0  0  0
  7  3  1  0  0  0  0
  8 12  1  0  0  0  0
  8 26  1  1  0  0  0
  9  6  2  0  0  0  0
 10  5  1  6  0  0  0
 10 23  1  0  0  0  0
 10  7  1  0  0  0  0
 12  4  1  0  0  0  0
 13  9  1  0  0  0  0
 13 17  1  0  0  0  0
 15 20  1  0  0  0  0
 16 11  2  0  0  0  0
 17  2  1  0  0  0  0
 18  8  1  0  0  0  0
 19 18  1  6  0  0  0
 19 25  1  0  0  0  0
 20 16  1  0  0  0  0
 21 13  1  0  0  0  0
 23 28  2  0  0  0  0
 24  2  1  0  0  0  0
 25 27  1  0  0  0  0
 27  1  1  6  0  0  0
 27 21  1  0  0  0  0
 28 15  1  0  0  0  0
 29 30  1  0  0  0  0
 30 23  1  0  0  0  0
 30 31  2  0  0  0  0
 33 34  2  0  0  0  0
 34 31  1  0  0  0  0
 34 32  1  0  0  0  0
 35 29  2  0  0  0  0
 35 33  1  0  0  0  0
 36 37  1  0  0  0  0
M  END
>  <MODEL>
5

>  <REMARK>
 VINA RESULT:      -0.6      9.515     14.339
  Name = 
  2 active torsions:
  status: ('A' for Active; 'I' for Inactive)
    1  A    between atoms: N_4  and  C_37
    2  A    between atoms: C_23  and  C_30
                            x       y       z     vdW  Elec       q    Type
                         _______ _______ _______ _____ _____    ______ ____

>  <TORSDO>
F 2

$$$$
