=
 OpenBabel11122412343D

 30 35  0  0  1  0  0  0  0  0999 V2000
  161.4080  210.9790  150.8560 C   0  0  0  0  0  0  0  0  0  0  0  0
  161.2880  212.3270  148.7650 C   0  0  0  0  0  0  0  0  0  0  0  0
  158.6900  213.5270  152.9040 C   0  0  0  0  0  2  0  0  0  0  0  0
  161.0210  210.7830  152.1890 C   0  0  0  0  0  0  0  0  0  0  0  0
  162.3040  209.9290  150.2920 C   0  0  0  0  0  2  0  0  0  0  0  0
  160.6580  207.2620  152.2920 C   0  0  0  0  0  1  0  0  0  0  0  0
  161.8140  210.7030  155.0880 C   0  0  1  0  0  3  0  0  0  0  0  0
  161.6950  208.3470  152.0300 C   0  0  1  0  0  3  0  0  0  0  0  0
  160.6390  211.6460  155.2580 C   0  0  2  0  0  3  0  0  0  0  0  0
  158.6280  212.7020  154.2030 C   0  0  1  0  0  3  0  0  0  0  0  0
  161.7310  208.6170  150.5790 N   0  0  0  0  0  0  0  0  0  0  0  0
  161.3800  209.5470  152.8420 N   0  0  0  0  0  0  0  0  0  0  0  0
  160.7530  213.4190  148.0740 C   0  0  0  0  0  3  0  0  0  0  0  0
  159.9910  211.1470  156.5040 C   0  0  0  0  0  2  0  0  0  0  0  0
  162.2460  210.3370  156.3790 O   0  0  0  0  0  0  0  0  0  0  0  0
  162.1500  211.5150  148.1030 F   0  0  0  0  0  0  0  0  0  0  0  0
  159.6580  212.7680  152.0710 C   0  0  0  0  0  0  0  0  0  0  0  0
  159.8600  214.2880  148.7000 C   0  0  0  0  0  3  0  0  0  0  0  0
  160.9260  212.0910  150.1110 C   0  0  0  0  0  0  0  0  0  0  0  0
  160.1850  211.7320  152.7900 C   0  0  0  0  0  0  0  0  0  0  0  0
  157.2900  211.9920  154.2880 C   0  0  0  0  0  1  0  0  0  0  0  0
  159.7080  211.7130  154.1290 N   0  0  0  0  0  0  0  0  0  0  0  0
  161.1640  210.5580  157.2610 C   0  0  0  0  0  2  0  0  0  0  0  0
  161.3860  208.3600  154.8600 O   0  0  0  0  0  0  0  0  0  0  0  0
  159.4910  214.0740  150.0280 C   0  0  0  0  0  3  0  0  0  0  0  0
  160.0160  212.9900  150.7380 C   0  0  0  0  0  0  0  0  0  0  0  0
  161.5040  209.4720  154.2750 C   0  0  0  0  0  0  0  0  0  0  0  0
  162.6260  207.6400  149.9790 C   0  0  0  0  0  2  0  0  0  0  0  0
  160.7120  206.3790  148.7270 C   0  0  0  0  0  1  0  0  0  0  0  0
  162.1570  207.3620  148.2460 S   0  0  0  0  0  0  0  0  0  0  0  0
  1  4  1  0  0  0  0
  2 19  1  0  0  0  0
  3 10  1  0  0  0  0
  4 20  2  0  0  0  0
  4 12  1  0  0  0  0
  5 11  1  0  0  0  0
  5  1  1  0  0  0  0
  7 27  1  6  0  0  0
  7  9  1  0  0  0  0
  7 15  1  0  0  0  0
  8  6  1  6  0  0  0
  8 12  1  0  0  0  0
  9 14  1  1  0  0  0
 10 21  1  6  0  0  0
 11  8  1  0  0  0  0
 12 27  1  0  0  0  0
 13 18  1  0  0  0  0
 13  2  2  0  0  0  0
 14 23  1  0  0  0  0
 15 23  1  0  0  0  0
 16  2  1  0  0  0  0
 17 20  1  0  0  0  0
 17  3  1  0  0  0  0
 18 25  2  0  0  0  0
 19 26  1  0  0  0  0
 19  1  2  0  0  0  0
 20 22  1  0  0  0  0
 22 10  1  0  0  0  0
 22  9  1  0  0  0  0
 25 26  1  0  0  0  0
 26 17  2  0  0  0  0
 27 24  2  0  0  0  0
 28 11  1  0  0  0  0
 30 29  1  0  0  0  0
 30 28  1  0  0  0  0
M  END
>  <MODEL>
1

>  <REMARK>
 VINA RESULT:      -6.2      0.000      0.000
  Name = 
  2 active torsions:
  status: ('A' for Active; 'I' for Inactive)
    1  A    between atoms: N_11  and  C_28
    2  A    between atoms: C_28  and  S_30
                            x       y       z     vdW  Elec       q    Type
                         _______ _______ _______ _____ _____    ______ ____

>  <TORSDO>
F 2

$$$$
=
 OpenBabel11122412343D

 30 35  0  0  1  0  0  0  0  0999 V2000
  161.0200  207.5610  151.2000 C   0  0  0  0  0  0  0  0  0  0  0  0
  161.2230  205.2120  150.3970 C   0  0  0  0  0  0  0  0  0  0  0  0
  160.6740  206.3650  155.2640 C   0  0  0  0  0  2  0  0  0  0  0  0
  160.8480  208.4640  152.2580 C   0  0  0  0  0  0  0  0  0  0  0  0
  161.2060  208.1820  149.8570 C   0  0  0  0  0  2  0  0  0  0  0  0
  163.0420  211.0740  151.3010 C   0  0  0  0  0  1  0  0  0  0  0  0
  159.1150  210.5230  153.5970 C   0  0  1  0  0  3  0  0  0  0  0  0
  161.8020  210.3250  150.8300 C   0  0  1  0  0  3  0  0  0  0  0  0
  159.3530  209.6730  154.8290 C   0  0  2  0  0  3  0  0  0  0  0  0
  160.6370  207.7850  155.8580 C   0  0  1  0  0  3  0  0  0  0  0  0
  162.2310  209.2160  149.9540 N   0  0  0  0  0  0  0  0  0  0  0  0
  161.0130  209.8740  152.0010 N   0  0  0  0  0  0  0  0  0  0  0  0
  161.2810  203.8460  150.6940 C   0  0  0  0  0  3  0  0  0  0  0  0
  159.5750  210.6910  155.8950 C   0  0  0  0  0  2  0  0  0  0  0  0
  158.4720  211.7040  154.0210 O   0  0  0  0  0  0  0  0  0  0  0  0
  161.3410  205.5860  149.0990 F   0  0  0  0  0  0  0  0  0  0  0  0
  160.7560  206.6150  153.8020 C   0  0  0  0  0  0  0  0  0  0  0  0
  161.1690  203.4010  152.0110 C   0  0  0  0  0  3  0  0  0  0  0  0
  161.0510  206.1580  151.4340 C   0  0  0  0  0  0  0  0  0  0  0  0
  160.6610  207.9540  153.5490 C   0  0  0  0  0  0  0  0  0  0  0  0
  161.9560  208.0780  156.5490 C   0  0  0  0  0  1  0  0  0  0  0  0
  160.4530  208.7090  154.7350 N   0  0  0  0  0  0  0  0  0  0  0  0
  158.7520  211.8610  155.3980 C   0  0  0  0  0  2  0  0  0  0  0  0
  160.8310  212.0330  152.8900 O   0  0  0  0  0  0  0  0  0  0  0  0
  160.9970  204.3170  153.0470 C   0  0  0  0  0  3  0  0  0  0  0  0
  160.9340  205.6860  152.7720 C   0  0  0  0  0  0  0  0  0  0  0  0
  160.3680  210.8610  152.8290 C   0  0  0  0  0  0  0  0  0  0  0  0
  162.3920  209.7600  148.6140 C   0  0  0  0  0  2  0  0  0  0  0  0
  163.0810  212.1710  147.8860 C   0  0  0  0  0  1  0  0  0  0  0  0
  161.5730  211.3780  148.5060 S   0  0  0  0  0  0  0  0  0  0  0  0
  1 19  2  0  0  0  0
  1  4  1  0  0  0  0
  2 13  2  0  0  0  0
  2 19  1  0  0  0  0
  3 10  1  0  0  0  0
  4 20  2  0  0  0  0
  5 11  1  0  0  0  0
  5  1  1  0  0  0  0
  7 27  1  1  0  0  0
  7 15  1  0  0  0  0
  7  9  1  0  0  0  0
  8  6  1  1  0  0  0
  8 12  1  0  0  0  0
  9 14  1  1  0  0  0
 10 21  1  6  0  0  0
 11  8  1  0  0  0  0
 12  4  1  0  0  0  0
 12 27  1  0  0  0  0
 13 18  1  0  0  0  0
 15 23  1  0  0  0  0
 16  2  1  0  0  0  0
 17  3  1  0  0  0  0
 18 25  2  0  0  0  0
 19 26  1  0  0  0  0
 20 17  1  0  0  0  0
 20 22  1  0  0  0  0
 22  9  1  0  0  0  0
 22 10  1  0  0  0  0
 23 14  1  0  0  0  0
 26 25  1  0  0  0  0
 26 17  2  0  0  0  0
 27 24  2  0  0  0  0
 28 11  1  0  0  0  0
 29 30  1  0  0  0  0
 30 28  1  0  0  0  0
M  END
>  <MODEL>
2

>  <REMARK>
 VINA RESULT:      -4.7      2.623      5.501
  Name = 
  2 active torsions:
  status: ('A' for Active; 'I' for Inactive)
    1  A    between atoms: N_11  and  C_28
    2  A    between atoms: C_28  and  S_30
                            x       y       z     vdW  Elec       q    Type
                         _______ _______ _______ _____ _____    ______ ____

>  <TORSDO>
F 2

$$$$
=
 OpenBabel11122412343D

 30 35  0  0  1  0  0  0  0  0999 V2000
  160.3240  210.4540  154.2320 C   0  0  0  0  0  0  0  0  0  0  0  0
  160.2720  209.3770  156.4770 C   0  0  0  0  0  0  0  0  0  0  0  0
  161.3560  206.8210  152.2800 C   0  0  0  0  0  2  0  0  0  0  0  0
  160.5390  210.3550  152.8500 C   0  0  0  0  0  0  0  0  0  0  0  0
  159.8880  211.7960  154.7130 C   0  0  0  0  0  2  0  0  0  0  0  0
  157.9610  212.4350  151.5990 C   0  0  0  0  0  1  0  0  0  0  0  0
  162.2030  211.1230  150.4680 C   0  0  1  0  0  3  0  0  0  0  0  0
  159.1990  212.4720  152.4860 C   0  0  1  0  0  3  0  0  0  0  0  0
  162.2320  209.6270  150.2210 C   0  0  2  0  0  3  0  0  0  0  0  0
  161.3170  207.3810  150.8460 C   0  0  1  0  0  3  0  0  0  0  0  0
  158.7780  212.2560  153.8840 N   0  0  0  0  0  0  0  0  0  0  0  0
  160.1870  211.4730  152.0100 N   0  0  0  0  0  0  0  0  0  0  0  0
  160.4070  208.2210  157.2530 C   0  0  0  0  0  3  0  0  0  0  0  0
  162.0480  209.5320  148.7450 C   0  0  0  0  0  2  0  0  0  0  0  0
  162.7640  211.7440  149.3340 O   0  0  0  0  0  0  0  0  0  0  0  0
  159.9370  210.5300  157.1070 F   0  0  0  0  0  0  0  0  0  0  0  0
  161.0460  208.0120  153.1130 C   0  0  0  0  0  0  0  0  0  0  0  0
  160.7470  207.0040  156.6630 C   0  0  0  0  0  3  0  0  0  0  0  0
  160.4800  209.3220  155.0800 C   0  0  0  0  0  0  0  0  0  0  0  0
  160.9570  209.1250  152.3250 C   0  0  0  0  0  0  0  0  0  0  0  0
  160.0820  206.8620  150.1340 C   0  0  0  0  0  1  0  0  0  0  0  0
  161.2420  208.8400  150.9620 N   0  0  0  0  0  0  0  0  0  0  0  0
  162.6610  210.8290  148.2610 C   0  0  0  0  0  2  0  0  0  0  0  0
  160.2500  212.3550  149.8430 O   0  0  0  0  0  0  0  0  0  0  0  0
  160.9570  206.9290  155.2870 C   0  0  0  0  0  3  0  0  0  0  0  0
  160.8310  208.0730  154.4930 C   0  0  0  0  0  0  0  0  0  0  0  0
  160.8270  211.6770  150.7360 C   0  0  0  0  0  0  0  0  0  0  0  0
  158.3760  213.5480  154.4190 C   0  0  0  0  0  2  0  0  0  0  0  0
  156.1510  212.2540  154.8630 C   0  0  0  0  0  1  0  0  0  0  0  0
  157.2640  213.3060  155.8350 S   0  0  0  0  0  0  0  0  0  0  0  0
  1  5  1  0  0  0  0
  1 19  1  0  0  0  0
  2 16  1  0  0  0  0
  2 13  1  0  0  0  0
  3 17  1  0  0  0  0
  4  1  2  0  0  0  0
  7 15  1  6  0  0  0
  7 27  1  0  0  0  0
  8  6  1  6  0  0  0
  8 11  1  0  0  0  0
  9 14  1  6  0  0  0
  9  7  1  0  0  0  0
  9 22  1  0  0  0  0
 10 21  1  1  0  0  0
 10 22  1  0  0  0  0
 10  3  1  0  0  0  0
 11 28  1  0  0  0  0
 11  5  1  0  0  0  0
 12  8  1  0  0  0  0
 12  4  1  0  0  0  0
 17 26  1  0  0  0  0
 18 13  2  0  0  0  0
 19  2  2  0  0  0  0
 20  4  1  0  0  0  0
 20 17  2  0  0  0  0
 22 20  1  0  0  0  0
 23 14  1  0  0  0  0
 23 15  1  0  0  0  0
 24 27  2  0  0  0  0
 25 18  1  0  0  0  0
 26 19  1  0  0  0  0
 26 25  2  0  0  0  0
 27 12  1  0  0  0  0
 28 30  1  0  0  0  0
 29 30  1  0  0  0  0
M  END
>  <MODEL>
3

>  <REMARK>
 VINA RESULT:      -3.9      3.494      7.023
  Name = 
  2 active torsions:
  status: ('A' for Active; 'I' for Inactive)
    1  A    between atoms: N_11  and  C_28
    2  A    between atoms: C_28  and  S_30
                            x       y       z     vdW  Elec       q    Type
                         _______ _______ _______ _____ _____    ______ ____

>  <TORSDO>
F 2

$$$$
=
 OpenBabel11122412343D

 30 35  0  0  1  0  0  0  0  0999 V2000
  160.9060  207.2830  151.2940 C   0  0  0  0  0  0  0  0  0  0  0  0
  161.0260  204.8360  150.8460 C   0  0  0  0  0  0  0  0  0  0  0  0
  160.7350  206.7180  155.5030 C   0  0  0  0  0  2  0  0  0  0  0  0
  160.8030  208.3390  152.2100 C   0  0  0  0  0  0  0  0  0  0  0  0
  161.0380  207.6910  149.8650 C   0  0  0  0  0  2  0  0  0  0  0  0
  162.9970  210.7190  150.7730 C   0  0  0  0  0  1  0  0  0  0  0  0
  159.1750  210.6190  153.3010 C   0  0  1  0  0  3  0  0  0  0  0  0
  161.7210  209.9390  150.4760 C   0  0  1  0  0  3  0  0  0  0  0  0
  159.4580  209.9560  154.6350 C   0  0  2  0  0  3  0  0  0  0  0  0
  160.7540  208.2110  155.8770 C   0  0  1  0  0  3  0  0  0  0  0  0
  162.0860  208.7010  149.7590 N   0  0  0  0  0  0  0  0  0  0  0  0
  160.9810  209.6900  151.7370 N   0  0  0  0  0  0  0  0  0  0  0  0
  161.0720  203.5290  151.3420 C   0  0  0  0  0  3  0  0  0  0  0  0
  159.7500  211.1170  155.5250 C   0  0  0  0  0  2  0  0  0  0  0  0
  158.5770  211.8660  153.5710 O   0  0  0  0  0  0  0  0  0  0  0  0
  161.0870  205.0080  149.5020 F   0  0  0  0  0  0  0  0  0  0  0  0
  160.7510  206.7440  154.0180 C   0  0  0  0  0  0  0  0  0  0  0  0
  161.0160  203.2880  152.7150 C   0  0  0  0  0  3  0  0  0  0  0  0
  160.9220  205.9310  151.7350 C   0  0  0  0  0  0  0  0  0  0  0  0
  160.6700  208.0320  153.5710 C   0  0  0  0  0  0  0  0  0  0  0  0
  162.1110  208.5700  156.4560 C   0  0  0  0  0  1  0  0  0  0  0  0
  160.5330  208.9620  154.6380 N   0  0  0  0  0  0  0  0  0  0  0  0
  158.9260  212.2200  154.8940 C   0  0  0  0  0  2  0  0  0  0  0  0
  160.8840  211.9610  152.2980 O   0  0  0  0  0  0  0  0  0  0  0  0
  160.9130  204.3530  153.6080 C   0  0  0  0  0  3  0  0  0  0  0  0
  160.8610  205.6680  153.1330 C   0  0  0  0  0  0  0  0  0  0  0  0
  160.3960  210.8050  152.4350 C   0  0  0  0  0  0  0  0  0  0  0  0
  162.1920  209.0340  148.3470 C   0  0  0  0  0  2  0  0  0  0  0  0
  162.6080  206.6630  147.3360 C   0  0  0  0  0  1  0  0  0  0  0  0
  161.2340  207.8460  147.3630 S   0  0  0  0  0  0  0  0  0  0  0  0
  1 19  2  0  0  0  0
  1  4  1  0  0  0  0
  2 13  2  0  0  0  0
  2 19  1  0  0  0  0
  3 10  1  0  0  0  0
  4 20  2  0  0  0  0
  5  1  1  0  0  0  0
  7 27  1  1  0  0  0
  7 15  1  0  0  0  0
  7  9  1  0  0  0  0
  8  6  1  1  0  0  0
  8 12  1  0  0  0  0
  9 22  1  0  0  0  0
  9 14  1  1  0  0  0
 10 21  1  6  0  0  0
 11  5  1  0  0  0  0
 11  8  1  0  0  0  0
 12  4  1  0  0  0  0
 12 27  1  0  0  0  0
 13 18  1  0  0  0  0
 15 23  1  0  0  0  0
 16  2  1  0  0  0  0
 17  3  1  0  0  0  0
 18 25  2  0  0  0  0
 19 26  1  0  0  0  0
 20 17  1  0  0  0  0
 20 22  1  0  0  0  0
 22 10  1  0  0  0  0
 23 14  1  0  0  0  0
 24 27  2  0  0  0  0
 26 25  1  0  0  0  0
 26 17  2  0  0  0  0
 28 11  1  0  0  0  0
 29 30  1  0  0  0  0
 30 28  1  0  0  0  0
M  END
>  <MODEL>
4

>  <REMARK>
 VINA RESULT:      -3.9      2.725      5.468
  Name = 
  2 active torsions:
  status: ('A' for Active; 'I' for Inactive)
    1  A    between atoms: N_11  and  C_28
    2  A    between atoms: C_28  and  S_30
                            x       y       z     vdW  Elec       q    Type
                         _______ _______ _______ _____ _____    ______ ____

>  <TORSDO>
F 2

$$$$
=
 OpenBabel11122412343D

 30 35  0  0  1  0  0  0  0  0999 V2000
  160.4650  208.8600  153.4460 C   0  0  0  0  0  0  0  0  0  0  0  0
  160.7660  206.8390  154.8700 C   0  0  0  0  0  0  0  0  0  0  0  0
  159.3670  211.2880  156.7570 C   0  0  0  0  0  2  0  0  0  0  0  0
  160.1220  210.2140  153.3290 C   0  0  0  0  0  0  0  0  0  0  0  0
  160.9030  208.2030  152.1810 C   0  0  0  0  0  2  0  0  0  0  0  0
  162.5020  211.3280  150.9550 C   0  0  0  0  0  1  0  0  0  0  0  0
  158.2140  212.2780  152.2630 C   0  0  1  0  0  3  0  0  0  0  0  0
  161.3530  210.3400  151.1200 C   0  0  1  0  0  3  0  0  0  0  0  0
  158.2100  212.7660  153.6990 C   0  0  2  0  0  3  0  0  0  0  0  0
  159.2500  212.6070  155.9710 C   0  0  1  0  0  3  0  0  0  0  0  0
  161.9130  209.0400  151.5400 N   0  0  0  0  0  0  0  0  0  0  0  0
  160.3570  210.8850  152.0740 N   0  0  0  0  0  0  0  0  0  0  0  0
  160.7430  206.2560  156.1410 C   0  0  0  0  0  3  0  0  0  0  0  0
  158.2540  214.2480  153.5450 C   0  0  0  0  0  2  0  0  0  0  0  0
  157.5270  213.2380  151.4930 O   0  0  0  0  0  0  0  0  0  0  0  0
  161.1240  206.0590  153.8190 F   0  0  0  0  0  0  0  0  0  0  0  0
  159.7170  210.3010  155.7050 C   0  0  0  0  0  0  0  0  0  0  0  0
  160.3870  207.0080  157.2610 C   0  0  0  0  0  3  0  0  0  0  0  0
  160.4270  208.2020  154.7060 C   0  0  0  0  0  0  0  0  0  0  0  0
  159.6950  210.8970  154.4760 C   0  0  0  0  0  0  0  0  0  0  0  0
  160.4280  213.5030  156.3090 C   0  0  0  0  0  1  0  0  0  0  0  0
  159.2900  212.2570  154.5480 N   0  0  0  0  0  0  0  0  0  0  0  0
  157.5560  214.4530  152.2160 C   0  0  0  0  0  2  0  0  0  0  0  0
  160.0580  212.8610  150.8550 O   0  0  0  0  0  0  0  0  0  0  0  0
  160.0480  208.3530  157.1210 C   0  0  0  0  0  3  0  0  0  0  0  0
  160.0610  208.9540  155.8590 C   0  0  0  0  0  0  0  0  0  0  0  0
  159.5910  212.0450  151.6960 C   0  0  0  0  0  0  0  0  0  0  0  0
  162.3240  208.3360  150.3350 C   0  0  0  0  0  2  0  0  0  0  0  0
  161.2880  207.0330  148.3240 C   0  0  0  0  0  1  0  0  0  0  0  0
  161.3170  206.8390  150.1260 S   0  0  0  0  0  0  0  0  0  0  0  0
  1 19  1  0  0  0  0
  2 13  1  0  0  0  0
  4  1  2  0  0  0  0
  4 20  1  0  0  0  0
  5  1  1  0  0  0  0
  7 15  1  6  0  0  0
  7  9  1  0  0  0  0
  8  6  1  1  0  0  0
  8 11  1  0  0  0  0
  8 12  1  0  0  0  0
  9 14  1  6  0  0  0
  9 22  1  0  0  0  0
 10 21  1  1  0  0  0
 10  3  1  0  0  0  0
 11  5  1  0  0  0  0
 12  4  1  0  0  0  0
 13 18  2  0  0  0  0
 15 23  1  0  0  0  0
 16  2  1  0  0  0  0
 17 26  1  0  0  0  0
 17  3  1  0  0  0  0
 19  2  2  0  0  0  0
 19 26  1  0  0  0  0
 20 22  1  0  0  0  0
 20 17  2  0  0  0  0
 22 10  1  0  0  0  0
 23 14  1  0  0  0  0
 24 27  2  0  0  0  0
 25 18  1  0  0  0  0
 26 25  2  0  0  0  0
 27 12  1  0  0  0  0
 27  7  1  0  0  0  0
 28 11  1  0  0  0  0
 29 30  1  0  0  0  0
 30 28  1  0  0  0  0
M  END
>  <MODEL>
5

>  <REMARK>
 VINA RESULT:      -3.7      2.810      5.410
  Name = 
  2 active torsions:
  status: ('A' for Active; 'I' for Inactive)
    1  A    between atoms: N_11  and  C_28
    2  A    between atoms: C_28  and  S_30
                            x       y       z     vdW  Elec       q    Type
                         _______ _______ _______ _____ _____    ______ ____

>  <TORSDO>
F 2

$$$$
=
 OpenBabel11122412343D

 30 35  0  0  1  0  0  0  0  0999 V2000
  159.9990  212.5700  151.0930 C   0  0  0  0  0  0  0  0  0  0  0  0
  159.9330  213.1790  148.6790 C   0  0  0  0  0  0  0  0  0  0  0  0
  156.2700  214.4490  151.8860 C   0  0  0  0  0  2  0  0  0  0  0  0
  159.4130  212.6140  152.3660 C   0  0  0  0  0  0  0  0  0  0  0  0
  161.2680  211.7910  151.0040 C   0  0  0  0  0  2  0  0  0  0  0  0
  160.1070  209.3530  153.5600 C   0  0  0  0  0  1  0  0  0  0  0  0
  159.5510  213.5950  155.2040 C   0  0  1  0  0  3  0  0  0  0  0  0
  160.8020  210.6220  153.0800 C   0  0  1  0  0  3  0  0  0  0  0  0
  158.1390  214.0740  154.9250 C   0  0  2  0  0  3  0  0  0  0  0  0
  156.1810  214.0340  153.3660 C   0  0  1  0  0  3  0  0  0  0  0  0
  161.0670  210.4890  151.6330 N   0  0  0  0  0  0  0  0  0  0  0  0
  159.9760  211.8050  153.4190 N   0  0  0  0  0  0  0  0  0  0  0  0
  159.2570  213.7870  147.6160 C   0  0  0  0  0  3  0  0  0  0  0  0
  157.4200  213.7310  156.1850 C   0  0  0  0  0  2  0  0  0  0  0  0
  159.7850  213.7620  156.5840 O   0  0  0  0  0  0  0  0  0  0  0  0
  161.1190  212.5760  148.4160 F   0  0  0  0  0  0  0  0  0  0  0  0
  157.5760  213.8860  151.4580 C   0  0  0  0  0  0  0  0  0  0  0  0
  158.0320  214.4200  147.8230 C   0  0  0  0  0  3  0  0  0  0  0  0
  159.3780  213.2000  149.9790 C   0  0  0  0  0  0  0  0  0  0  0  0
  158.2210  213.3330  152.5280 C   0  0  0  0  0  0  0  0  0  0  0  0
  155.1310  212.9500  153.5250 C   0  0  0  0  0  1  0  0  0  0  0  0
  157.4960  213.5050  153.7380 N   0  0  0  0  0  0  0  0  0  0  0  0
  158.5230  213.8160  157.2190 C   0  0  0  0  0  2  0  0  0  0  0  0
  159.9040  211.2810  155.6990 O   0  0  0  0  0  0  0  0  0  0  0  0
  157.4680  214.4530  149.0970 C   0  0  0  0  0  3  0  0  0  0  0  0
  158.1280  213.8540  150.1750 C   0  0  0  0  0  0  0  0  0  0  0  0
  159.8060  212.1640  154.8040 C   0  0  0  0  0  0  0  0  0  0  0  0
  162.3200  209.7660  151.4860 C   0  0  0  0  0  2  0  0  0  0  0  0
  161.8550  208.7420  149.1300 C   0  0  0  0  0  1  0  0  0  0  0  0
  161.9970  208.1070  150.8220 S   0  0  0  0  0  0  0  0  0  0  0  0
  1  4  1  0  0  0  0
  2 19  1  0  0  0  0
  3 10  1  0  0  0  0
  4 20  2  0  0  0  0
  4 12  1  0  0  0  0
  5  1  1  0  0  0  0
  5 11  1  0  0  0  0
  7 27  1  1  0  0  0
  7 15  1  0  0  0  0
  8 12  1  0  0  0  0
  8  6  1  6  0  0  0
  9  7  1  0  0  0  0
  9 14  1  1  0  0  0
 10 21  1  6  0  0  0
 10 22  1  0  0  0  0
 11  8  1  0  0  0  0
 12 27  1  0  0  0  0
 13 18  1  0  0  0  0
 13  2  2  0  0  0  0
 14 23  1  0  0  0  0
 15 23  1  0  0  0  0
 16  2  1  0  0  0  0
 17  3  1  0  0  0  0
 17 20  1  0  0  0  0
 18 25  2  0  0  0  0
 19 26  1  0  0  0  0
 19  1  2  0  0  0  0
 20 22  1  0  0  0  0
 22  9  1  0  0  0  0
 25 26  1  0  0  0  0
 26 17  2  0  0  0  0
 27 24  2  0  0  0  0
 28 11  1  0  0  0  0
 29 30  1  0  0  0  0
 30 28  1  0  0  0  0
M  END
>  <MODEL>
6

>  <REMARK>
 VINA RESULT:      -3.7      1.962      2.751
  Name = 
  2 active torsions:
  status: ('A' for Active; 'I' for Inactive)
    1  A    between atoms: N_11  and  C_28
    2  A    between atoms: C_28  and  S_30
                            x       y       z     vdW  Elec       q    Type
                         _______ _______ _______ _____ _____    ______ ____

>  <TORSDO>
F 2

$$$$
=
 OpenBabel11122412343D

 30 35  0  0  1  0  0  0  0  0999 V2000
  161.9850  208.8540  151.0230 C   0  0  0  0  0  0  0  0  0  0  0  0
  162.2880  209.4360  148.6200 C   0  0  0  0  0  0  0  0  0  0  0  0
  160.0980  212.5600  151.9010 C   0  0  0  0  0  2  0  0  0  0  0  0
  161.5410  209.2090  152.3040 C   0  0  0  0  0  0  0  0  0  0  0  0
  162.5440  207.4770  150.9020 C   0  0  0  0  0  2  0  0  0  0  0  0
  160.1700  206.1460  153.4340 C   0  0  0  0  0  1  0  0  0  0  0  0
  162.2400  209.8540  155.1560 C   0  0  1  0  0  3  0  0  0  0  0  0
  161.4810  206.7650  152.9650 C   0  0  1  0  0  3  0  0  0  0  0  0
  161.3870  211.0830  154.9070 C   0  0  2  0  0  3  0  0  0  0  0  0
  159.7830  212.2460  153.3760 C   0  0  1  0  0  3  0  0  0  0  0  0
  161.6120  206.5340  151.5130 N   0  0  0  0  0  0  0  0  0  0  0  0
  161.5180  208.2010  153.3360 N   0  0  0  0  0  0  0  0  0  0  0  0
  162.1030  210.3510  147.5780 C   0  0  0  0  0  3  0  0  0  0  0  0
  160.6070  211.2050  156.1710 C   0  0  0  0  0  2  0  0  0  0  0  0
  162.5310  209.8200  156.5350 O   0  0  0  0  0  0  0  0  0  0  0  0
  162.8860  208.2540  148.3310 F   0  0  0  0  0  0  0  0  0  0  0  0
  160.8150  211.3420  151.4450 C   0  0  0  0  0  0  0  0  0  0  0  0
  161.4920  211.5820  147.8130 C   0  0  0  0  0  3  0  0  0  0  0  0
  161.8560  209.7540  149.9290 C   0  0  0  0  0  0  0  0  0  0  0  0
  161.0090  210.4900  152.4970 C   0  0  0  0  0  0  0  0  0  0  0  0
  158.2950  211.9920  153.5320 C   0  0  0  0  0  1  0  0  0  0  0  0
  160.5300  211.0330  153.7200 N   0  0  0  0  0  0  0  0  0  0  0  0
  161.5480  210.5970  157.1890 C   0  0  0  0  0  2  0  0  0  0  0  0
  161.1530  207.7710  155.6080 O   0  0  0  0  0  0  0  0  0  0  0  0
  161.0600  211.9150  149.0960 C   0  0  0  0  0  3  0  0  0  0  0  0
  161.2390  211.0170  150.1530 C   0  0  0  0  0  0  0  0  0  0  0  0
  161.5960  208.5600  154.7290 C   0  0  0  0  0  0  0  0  0  0  0  0
  162.1920  205.2120  151.3360 C   0  0  0  0  0  2  0  0  0  0  0  0
  161.0130  202.9050  151.6620 C   0  0  0  0  0  1  0  0  0  0  0  0
  161.0630  204.1720  150.3660 S   0  0  0  0  0  0  0  0  0  0  0  0
  1  4  1  0  0  0  0
  2 19  1  0  0  0  0
  3 10  1  0  0  0  0
  4 20  2  0  0  0  0
  4 12  1  0  0  0  0
  5  1  1  0  0  0  0
  5 11  1  0  0  0  0
  7 27  1  1  0  0  0
  7 15  1  0  0  0  0
  8 12  1  0  0  0  0
  8  6  1  6  0  0  0
  9  7  1  0  0  0  0
  9 14  1  1  0  0  0
 10 21  1  6  0  0  0
 10 22  1  0  0  0  0
 11  8  1  0  0  0  0
 12 27  1  0  0  0  0
 13 18  1  0  0  0  0
 13  2  2  0  0  0  0
 14 23  1  0  0  0  0
 15 23  1  0  0  0  0
 16  2  1  0  0  0  0
 17  3  1  0  0  0  0
 17 20  1  0  0  0  0
 18 25  2  0  0  0  0
 19 26  1  0  0  0  0
 19  1  2  0  0  0  0
 20 22  1  0  0  0  0
 22  9  1  0  0  0  0
 25 26  1  0  0  0  0
 26 17  2  0  0  0  0
 27 24  2  0  0  0  0
 28 11  1  0  0  0  0
 30 28  1  0  0  0  0
 30 29  1  0  0  0  0
M  END
>  <MODEL>
7

>  <REMARK>
 VINA RESULT:      -3.3      1.723      2.274
  Name = 
  2 active torsions:
  status: ('A' for Active; 'I' for Inactive)
    1  A    between atoms: N_11  and  C_28
    2  A    between atoms: C_28  and  S_30
                            x       y       z     vdW  Elec       q    Type
                         _______ _______ _______ _____ _____    ______ ____

>  <TORSDO>
F 2

$$$$
