=
 OpenBabel11122413253D

 31 35  0  0  1  0  0  0  0  0999 V2000
  161.0780  204.2260  145.3820 C   0  0  1  0  0  3  0  0  0  0  0  0
  160.4220  205.9780  148.8220 C   0  0  2  0  0  3  0  0  0  0  0  0
  160.8630  204.9530  149.8620 C   0  0  0  0  0  0  0  0  0  0  0  0
  161.1480  202.6350  150.5580 C   0  0  0  0  0  0  0  0  0  0  0  0
  160.9240  205.7480  147.3810 C   0  0  2  0  0  3  0  0  0  0  0  0
  162.5890  204.4100  145.3800 C   0  0  0  0  0  2  0  0  0  0  0  0
  160.8280  203.5780  149.5790 C   0  0  0  0  0  3  0  0  0  0  0  0
  162.2970  207.6940  149.0090 C   0  0  2  0  0  3  0  0  0  0  0  0
  160.7660  202.9660  144.9120 F   0  0  0  0  0  0  0  0  0  0  0  0
  161.2180  206.8140  151.5510 C   0  0  0  0  0  2  0  0  0  0  0  0
  161.1200  200.9290  150.1680 Cl  0  0  0  0  0  0  0  0  0  0  0  0
  162.6490  207.4630  147.6090 N   0  0  0  0  0  2  0  0  0  0  0  0
  160.7990  207.4080  149.2500 C   0  0  2  0  0  3  0  0  0  0  0  0
  160.5390  204.3860  146.7970 C   0  0  0  0  0  2  0  0  0  0  0  0
  161.4830  203.0530  151.8450 C   0  0  0  0  0  3  0  0  0  0  0  0
  162.4280  206.0590  147.2720 C   0  0  2  0  0  3  0  0  0  0  0  0
  162.9320  205.8170  145.8500 C   0  0  0  0  0  2  0  0  0  0  0  0
  160.4120  207.6390  150.6470 N   0  0  0  0  0  2  0  0  0  0  0  0
  161.1600  205.3620  151.1830 C   0  0  0  0  0  0  0  0  0  0  0  0
  161.4900  204.4130  152.1560 C   0  0  0  0  0  3  0  0  0  0  0  0
  161.2230  209.9980  147.7220 O   0  0  0  0  0  0  0  0  0  0  0  0
  162.0220  210.1840  148.6820 C   0  0  0  0  0  0  0  0  0  0  0  0
  162.6010  209.0730  149.3650 N   0  0  0  0  0  2  0  0  0  0  0  0
  161.0640  213.5910  147.6090 C   0  0  1  0  0  3  0  0  0  0  0  0
  161.1340  212.3750  149.5170 C   0  0  0  0  0  2  0  0  0  0  0  0
  164.1970  211.5870  147.5090 O   0  0  0  0  0  1  0  0  0  0  0  0
  160.1610  214.1510  146.5300 C   0  0  0  0  0  1  0  0  0  0  0  0
  160.3430  212.6650  148.3870 O   0  0  0  0  0  0  0  0  0  0  0  0
  163.1740  212.3610  148.0590 C   0  0  2  0  0  3  0  0  0  0  0  0
  162.3800  211.5750  149.1170 C   0  0  2  0  0  3  0  0  0  0  0  0
  162.2640  212.9030  146.9600 C   0  0  0  0  0  2  0  0  0  0  0  0
  1  9  1  1  0  0  0
  1 14  1  0  0  0  0
  2 13  1  0  0  0  0
  2  3  1  1  0  0  0
  3 19  1  0  0  0  0
  4 15  2  0  0  0  0
  5 14  1  1  0  0  0
  5  2  1  0  0  0  0
  6  1  1  0  0  0  0
  6 17  1  0  0  0  0
  7  3  2  0  0  0  0
  7  4  1  0  0  0  0
  8 13  1  0  0  0  0
  8 23  1  6  0  0  0
 11  4  1  0  0  0  0
 12  8  1  0  0  0  0
 13 18  1  1  0  0  0
 15 20  1  0  0  0  0
 16 17  1  6  0  0  0
 16  5  1  0  0  0  0
 16 12  1  0  0  0  0
 18 10  1  0  0  0  0
 19 10  1  0  0  0  0
 19 20  2  0  0  0  0
 21 22  2  0  0  0  0
 22 23  1  0  0  0  0
 24 27  1  6  0  0  0
 24 28  1  0  0  0  0
 28 25  1  0  0  0  0
 29 26  1  6  0  0  0
 29 30  1  0  0  0  0
 30 22  1  6  0  0  0
 30 25  1  0  0  0  0
 31 24  1  0  0  0  0
 31 29  1  0  0  0  0
M  END
>  <MODEL>
1

>  <REMARK>
 VINA RESULT:      -7.8      0.000      0.000
  Name = 
  2 active torsions:
  status: ('A' for Active; 'I' for Inactive)
    1  A    between atoms: C_5  and  C_30
    2  A    between atoms: C_10  and  N_16
                            x       y       z     vdW  Elec       q    Type
                         _______ _______ _______ _____ _____    ______ ____

>  <TORSDO>
F 2

$$$$
=
 OpenBabel11122413253D

 31 35  0  0  1  0  0  0  0  0999 V2000
  160.8300  206.5790  146.4690 C   0  0  1  0  0  3  0  0  0  0  0  0
  160.1640  205.0640  150.0170 C   0  0  2  0  0  3  0  0  0  0  0  0
  160.6910  203.6350  149.9270 C   0  0  0  0  0  0  0  0  0  0  0  0
  161.1290  201.6220  148.6260 C   0  0  0  0  0  0  0  0  0  0  0  0
  160.6410  206.0390  148.9200 C   0  0  2  0  0  3  0  0  0  0  0  0
  162.3270  206.7880  146.6480 C   0  0  0  0  0  2  0  0  0  0  0  0
  160.7290  202.9580  148.6980 C   0  0  0  0  0  3  0  0  0  0  0  0
  161.9400  206.1420  151.4940 C   0  0  2  0  0  3  0  0  0  0  0  0
  160.5800  206.1030  145.1970 F   0  0  0  0  0  0  0  0  0  0  0  0
  160.9810  203.5800  152.4470 C   0  0  0  0  0  2  0  0  0  0  0  0
  161.1910  200.8110  147.0770 Cl  0  0  0  0  0  0  0  0  0  0  0  0
  162.2680  207.0770  150.4170 N   0  0  0  0  0  2  0  0  0  0  0  0
  160.4680  205.6880  151.3920 C   0  0  2  0  0  3  0  0  0  0  0  0
  160.3200  205.5770  147.4950 C   0  0  0  0  0  2  0  0  0  0  0  0
  161.4730  200.9340  149.7900 C   0  0  0  0  0  3  0  0  0  0  0  0
  162.1200  206.4100  149.1250 C   0  0  2  0  0  3  0  0  0  0  0  0
  162.6000  207.3630  148.0320 C   0  0  0  0  0  2  0  0  0  0  0  0
  160.1050  204.7540  152.4640 N   0  0  0  0  0  2  0  0  0  0  0  0
  160.9980  202.9150  151.1040 C   0  0  0  0  0  0  0  0  0  0  0  0
  161.4080  201.5800  151.0250 C   0  0  0  0  0  3  0  0  0  0  0  0
  160.4520  208.3420  152.5260 O   0  0  0  0  0  0  0  0  0  0  0  0
  161.3830  207.8800  153.2410 C   0  0  0  0  0  0  0  0  0  0  0  0
  162.1720  206.7830  152.7800 N   0  0  0  0  0  2  0  0  0  0  0  0
  159.5400  210.0360  155.6140 C   0  0  1  0  0  3  0  0  0  0  0  0
  160.6400  208.0570  155.6300 C   0  0  0  0  0  2  0  0  0  0  0  0
  162.5630  210.4540  153.4860 O   0  0  0  0  0  1  0  0  0  0  0  0
  158.1760  210.6940  155.6130 C   0  0  0  0  0  1  0  0  0  0  0  0
  159.3940  208.6580  155.3620 O   0  0  0  0  0  0  0  0  0  0  0  0
  161.7890  210.0130  154.5610 C   0  0  2  0  0  3  0  0  0  0  0  0
  161.6820  208.4790  154.5850 C   0  0  2  0  0  3  0  0  0  0  0  0
  160.4130  210.6730  154.5340 C   0  0  0  0  0  2  0  0  0  0  0  0
  1  9  1  6  0  0  0
  1  6  1  0  0  0  0
  1 14  1  0  0  0  0
  2  3  1  1  0  0  0
  2 13  1  0  0  0  0
  3 19  1  0  0  0  0
  4  7  1  0  0  0  0
  4 15  2  0  0  0  0
  5 14  1  6  0  0  0
  5 16  1  0  0  0  0
  5  2  1  0  0  0  0
  6 17  1  0  0  0  0
  7  3  2  0  0  0  0
  8 23  1  1  0  0  0
 10 18  1  0  0  0  0
 11  4  1  0  0  0  0
 12  8  1  0  0  0  0
 13  8  1  0  0  0  0
 13 18  1  1  0  0  0
 15 20  1  0  0  0  0
 16 17  1  6  0  0  0
 16 12  1  0  0  0  0
 19 10  1  0  0  0  0
 20 19  2  0  0  0  0
 21 22  2  0  0  0  0
 23 22  1  0  0  0  0
 24 27  1  6  0  0  0
 28 24  1  0  0  0  0
 28 25  1  0  0  0  0
 29 26  1  6  0  0  0
 29 30  1  0  0  0  0
 30 22  1  6  0  0  0
 30 25  1  0  0  0  0
 31 29  1  0  0  0  0
 31 24  1  0  0  0  0
M  END
>  <MODEL>
2

>  <REMARK>
 VINA RESULT:      -7.0      3.477      4.735
  Name = 
  2 active torsions:
  status: ('A' for Active; 'I' for Inactive)
    1  A    between atoms: C_5  and  C_30
    2  A    between atoms: C_10  and  N_16
                            x       y       z     vdW  Elec       q    Type
                         _______ _______ _______ _____ _____    ______ ____

>  <TORSDO>
F 2

$$$$
=
 OpenBabel11122413253D

 31 35  0  0  1  0  0  0  0  0999 V2000
  161.7570  208.4070  137.9220 C   0  0  1  0  0  3  0  0  0  0  0  0
  159.9070  211.7660  138.7120 C   0  0  2  0  0  3  0  0  0  0  0  0
  158.4380  211.3740  138.8300 C   0  0  0  0  0  0  0  0  0  0  0  0
  156.5730  209.9470  138.1820 C   0  0  0  0  0  0  0  0  0  0  0  0
  160.9320  210.6150  138.8040 C   0  0  2  0  0  3  0  0  0  0  0  0
  161.6980  207.8410  139.3340 C   0  0  0  0  0  2  0  0  0  0  0  0
  157.9340  210.2570  138.1460 C   0  0  0  0  0  3  0  0  0  0  0  0
  160.4810  212.2290  141.1520 C   0  0  2  0  0  3  0  0  0  0  0  0
  161.5010  207.4020  137.0110 F   0  0  0  0  0  0  0  0  0  0  0  0
  158.0000  213.4280  140.2550 C   0  0  0  0  0  2  0  0  0  0  0  0
  155.9770  208.5340  137.3390 Cl  0  0  0  0  0  0  0  0  0  0  0  0
  161.4870  211.1680  141.1180 N   0  0  0  0  0  2  0  0  0  0  0  0
  160.2850  212.8410  139.7490 C   0  0  2  0  0  3  0  0  0  0  0  0
  160.7210  209.5120  137.7630 C   0  0  0  0  0  2  0  0  0  0  0  0
  155.6900  210.7670  138.8840 C   0  0  0  0  0  3  0  0  0  0  0  0
  161.0310  210.0870  140.2460 C   0  0  2  0  0  3  0  0  0  0  0  0
  162.0320  208.9370  140.3380 C   0  0  0  0  0  2  0  0  0  0  0  0
  159.2870  213.9170  139.7520 N   0  0  0  0  0  2  0  0  0  0  0  0
  157.5270  212.2220  139.5010 C   0  0  0  0  0  0  0  0  0  0  0  0
  156.1660  211.9000  139.5430 C   0  0  0  0  0  3  0  0  0  0  0  0
  160.1380  212.1220  143.9780 O   0  0  0  0  0  0  0  0  0  0  0  0
  160.7020  213.1430  143.4970 C   0  0  0  0  0  0  0  0  0  0  0  0
  160.8990  213.2630  142.0890 N   0  0  0  0  0  2  0  0  0  0  0  0
  162.2350  213.3140  146.8590 C   0  0  1  0  0  3  0  0  0  0  0  0
  162.6500  214.0810  144.7690 C   0  0  0  0  0  2  0  0  0  0  0  0
  158.9660  214.3360  145.4050 O   0  0  0  0  0  1  0  0  0  0  0  0
  162.6260  212.2890  147.9020 C   0  0  0  0  0  1  0  0  0  0  0  0
  162.8240  212.9750  145.6260 O   0  0  0  0  0  0  0  0  0  0  0  0
  160.3340  214.3920  145.6790 C   0  0  2  0  0  3  0  0  0  0  0  0
  161.1710  214.2500  144.3960 C   0  0  2  0  0  3  0  0  0  0  0  0
  160.7130  213.3410  146.7190 C   0  0  0  0  0  2  0  0  0  0  0  0
  1  9  1  6  0  0  0
  1  6  1  0  0  0  0
  2  5  1  0  0  0  0
  2  3  1  1  0  0  0
  2 13  1  0  0  0  0
  3 19  1  0  0  0  0
  4 15  2  0  0  0  0
  5 14  1  6  0  0  0
  5 16  1  0  0  0  0
  6 17  1  0  0  0  0
  7  4  1  0  0  0  0
  7  3  2  0  0  0  0
  8 23  1  1  0  0  0
 11  4  1  0  0  0  0
 12  8  1  0  0  0  0
 13 18  1  1  0  0  0
 13  8  1  0  0  0  0
 14  1  1  0  0  0  0
 15 20  1  0  0  0  0
 16 17  1  6  0  0  0
 16 12  1  0  0  0  0
 18 10  1  0  0  0  0
 19 20  2  0  0  0  0
 19 10  1  0  0  0  0
 22 21  2  0  0  0  0
 23 22  1  0  0  0  0
 24 27  1  1  0  0  0
 25 28  1  0  0  0  0
 28 24  1  0  0  0  0
 29 26  1  6  0  0  0
 29 31  1  0  0  0  0
 30 22  1  1  0  0  0
 30 25  1  0  0  0  0
 30 29  1  0  0  0  0
 31 24  1  0  0  0  0
M  END
>  <MODEL>
3

>  <REMARK>
 VINA RESULT:      -6.1      7.357      9.944
  Name = 
  2 active torsions:
  status: ('A' for Active; 'I' for Inactive)
    1  A    between atoms: C_5  and  C_30
    2  A    between atoms: C_10  and  N_16
                            x       y       z     vdW  Elec       q    Type
                         _______ _______ _______ _____ _____    ______ ____

>  <TORSDO>
F 2

$$$$
=
 OpenBabel11122413253D

 31 35  0  0  1  0  0  0  0  0999 V2000
  160.9510  204.9270  145.0170 C   0  0  1  0  0  3  0  0  0  0  0  0
  160.3790  205.1940  148.8810 C   0  0  2  0  0  3  0  0  0  0  0  0
  160.8710  203.8590  149.4330 C   0  0  0  0  0  0  0  0  0  0  0  0
  161.2180  201.4620  149.1690 C   0  0  0  0  0  0  0  0  0  0  0  0
  160.8380  205.5540  147.4520 C   0  0  2  0  0  3  0  0  0  0  0  0
  162.4570  205.1410  145.0500 C   0  0  0  0  0  2  0  0  0  0  0  0
  160.8500  202.7010  148.6400 C   0  0  0  0  0  3  0  0  0  0  0  0
  162.2300  206.7570  149.6740 C   0  0  2  0  0  3  0  0  0  0  0  0
  160.6440  203.9390  144.1030 F   0  0  0  0  0  0  0  0  0  0  0  0
  161.2510  204.9320  151.7010 C   0  0  0  0  0  2  0  0  0  0  0  0
  161.2060  200.0400  148.1500 Cl  0  0  0  0  0  0  0  0  0  0  0  0
  162.5400  207.0950  148.2850 N   0  0  0  0  0  2  0  0  0  0  0  0
  160.7460  206.3580  149.8210 C   0  0  2  0  0  3  0  0  0  0  0  0
  160.4560  204.5130  146.3960 C   0  0  0  0  0  2  0  0  0  0  0  0
  161.5880  201.3590  150.5100 C   0  0  0  0  0  3  0  0  0  0  0  0
  162.3310  205.9240  147.4360 C   0  0  2  0  0  3  0  0  0  0  0  0
  162.7920  206.2660  146.0200 C   0  0  0  0  0  2  0  0  0  0  0  0
  160.4010  206.0200  151.2070 N   0  0  0  0  0  2  0  0  0  0  0  0
  161.2050  203.7350  150.8010 C   0  0  0  0  0  0  0  0  0  0  0  0
  161.5820  202.4930  151.3230 C   0  0  0  0  0  3  0  0  0  0  0  0
  161.5810  209.4650  149.0750 O   0  0  0  0  0  0  0  0  0  0  0  0
  162.1630  209.2330  150.1710 C   0  0  0  0  0  0  0  0  0  0  0  0
  162.5230  207.8990  150.5280 N   0  0  0  0  0  2  0  0  0  0  0  0
  160.3010  211.1140  152.7530 C   0  0  1  0  0  3  0  0  0  0  0  0
  162.2370  209.9540  152.5720 C   0  0  0  0  0  2  0  0  0  0  0  0
  161.7630  211.9490  149.4350 O   0  0  0  0  0  1  0  0  0  0  0  0
  158.8810  211.0780  153.2770 C   0  0  0  0  0  1  0  0  0  0  0  0
  160.8550  209.8210  152.8170 O   0  0  0  0  0  0  0  0  0  0  0  0
  161.7360  211.6570  150.8000 C   0  0  2  0  0  3  0  0  0  0  0  0
  162.4920  210.3540  151.1130 C   0  0  2  0  0  3  0  0  0  0  0  0
  160.2970  211.6080  151.3080 C   0  0  0  0  0  2  0  0  0  0  0  0
  1  9  1  6  0  0  0
  1  6  1  0  0  0  0
  1 14  1  0  0  0  0
  2  3  1  1  0  0  0
  2 13  1  0  0  0  0
  3 19  1  0  0  0  0
  4 15  2  0  0  0  0
  5 14  1  6  0  0  0
  5  2  1  0  0  0  0
  6 17  1  0  0  0  0
  7  4  1  0  0  0  0
  7  3  2  0  0  0  0
  8 13  1  0  0  0  0
  8 23  1  1  0  0  0
 11  4  1  0  0  0  0
 12  8  1  0  0  0  0
 13 18  1  1  0  0  0
 15 20  1  0  0  0  0
 16 17  1  6  0  0  0
 16  5  1  0  0  0  0
 16 12  1  0  0  0  0
 18 10  1  0  0  0  0
 19 20  2  0  0  0  0
 19 10  1  0  0  0  0
 21 22  2  0  0  0  0
 22 23  1  0  0  0  0
 24 28  1  0  0  0  0
 24 27  1  6  0  0  0
 25 28  1  0  0  0  0
 29 26  1  6  0  0  0
 29 30  1  0  0  0  0
 29 31  1  0  0  0  0
 30 22  1  6  0  0  0
 30 25  1  0  0  0  0
 31 24  1  0  0  0  0
M  END
>  <MODEL>
4

>  <REMARK>
 VINA RESULT:      -6.0      1.970      2.718
  Name = 
  2 active torsions:
  status: ('A' for Active; 'I' for Inactive)
    1  A    between atoms: C_5  and  C_30
    2  A    between atoms: C_10  and  N_16
                            x       y       z     vdW  Elec       q    Type
                         _______ _______ _______ _____ _____    ______ ____

>  <TORSDO>
F 2

$$$$
=
 OpenBabel11122413253D

 31 35  0  0  1  0  0  0  0  0999 V2000
  156.9480  214.4530  151.2090 C   0  0  1  0  0  3  0  0  0  0  0  0
  160.5060  214.0400  149.6290 C   0  0  2  0  0  3  0  0  0  0  0  0
  160.9000  212.6010  149.9460 C   0  0  0  0  0  0  0  0  0  0  0  0
  160.8040  210.6570  151.4110 C   0  0  0  0  0  0  0  0  0  0  0  0
  159.0080  214.3850  149.7650 C   0  0  2  0  0  3  0  0  0  0  0  0
  156.1920  213.6800  150.1380 C   0  0  0  0  0  2  0  0  0  0  0  0
  160.3790  211.9430  151.0710 C   0  0  0  0  0  3  0  0  0  0  0  0
  160.0560  213.8780  147.1250 C   0  0  2  0  0  3  0  0  0  0  0  0
  156.4450  214.1280  152.4540 F   0  0  0  0  0  0  0  0  0  0  0  0
  162.5130  212.6070  147.9860 C   0  0  0  0  0  2  0  0  0  0  0  0
  160.1190  209.8520  152.8060 Cl  0  0  0  0  0  0  0  0  0  0  0  0
  158.6690  214.2890  147.3470 N   0  0  0  0  0  2  0  0  0  0  0  0
  160.9770  214.4530  148.2220 C   0  0  2  0  0  3  0  0  0  0  0  0
  158.4280  214.1020  151.1540 C   0  0  0  0  0  2  0  0  0  0  0  0
  161.7780  210.0190  150.6440 C   0  0  0  0  0  3  0  0  0  0  0  0
  158.1960  213.7510  148.6210 C   0  0  2  0  0  3  0  0  0  0  0  0
  156.7100  214.0770  148.7620 C   0  0  0  0  0  2  0  0  0  0  0  0
  162.3790  214.0660  148.0220 N   0  0  0  0  0  2  0  0  0  0  0  0
  161.9180  211.9620  149.2020 C   0  0  0  0  0  0  0  0  0  0  0  0
  162.3320  210.6690  149.5410 C   0  0  0  0  0  3  0  0  0  0  0  0
  160.3830  212.2320  144.8230 O   0  0  0  0  0  0  0  0  0  0  0  0
  160.6320  213.4630  144.7010 C   0  0  0  0  0  0  0  0  0  0  0  0
  160.4950  214.3420  145.8170 N   0  0  0  0  0  2  0  0  0  0  0  0
  161.1910  212.0710  141.3200 C   0  0  1  0  0  3  0  0  0  0  0  0
  160.0420  213.7680  142.2820 C   0  0  0  0  0  2  0  0  0  0  0  0
  163.3780  213.5030  143.9680 O   0  0  0  0  0  1  0  0  0  0  0  0
  161.0790  210.6910  140.7070 C   0  0  0  0  0  1  0  0  0  0  0  0
  159.9810  212.3970  141.9620 O   0  0  0  0  0  0  0  0  0  0  0  0
  162.4490  213.4880  142.9260 C   0  0  2  0  0  3  0  0  0  0  0  0
  161.0810  214.0220  143.3820 C   0  0  2  0  0  3  0  0  0  0  0  0
  162.3370  212.0860  142.3310 C   0  0  0  0  0  2  0  0  0  0  0  0
  1  9  1  1  0  0  0
  2  5  1  0  0  0  0
  2  3  1  6  0  0  0
  3  7  1  0  0  0  0
  4 11  1  0  0  0  0
  5 14  1  1  0  0  0
  6  1  1  0  0  0  0
  7  4  2  0  0  0  0
  8 23  1  6  0  0  0
  8 12  1  0  0  0  0
  8 13  1  0  0  0  0
 10 18  1  0  0  0  0
 10 19  1  0  0  0  0
 12 16  1  0  0  0  0
 13 18  1  6  0  0  0
 13  2  1  0  0  0  0
 14  1  1  0  0  0  0
 15  4  1  0  0  0  0
 16 17  1  1  0  0  0
 16  5  1  0  0  0  0
 17  6  1  0  0  0  0
 19 20  1  0  0  0  0
 19  3  2  0  0  0  0
 20 15  2  0  0  0  0
 22 21  2  0  0  0  0
 22 23  1  0  0  0  0
 24 27  1  1  0  0  0
 24 28  1  0  0  0  0
 24 31  1  0  0  0  0
 25 30  1  0  0  0  0
 28 25  1  0  0  0  0
 29 30  1  0  0  0  0
 29 26  1  1  0  0  0
 30 22  1  1  0  0  0
 31 29  1  0  0  0  0
M  END
>  <MODEL>
5

>  <REMARK>
 VINA RESULT:      -5.6      5.681      8.104
  Name = 
  2 active torsions:
  status: ('A' for Active; 'I' for Inactive)
    1  A    between atoms: C_5  and  C_30
    2  A    between atoms: C_10  and  N_16
                            x       y       z     vdW  Elec       q    Type
                         _______ _______ _______ _____ _____    ______ ____

>  <TORSDO>
F 2

$$$$
