=
 OpenBabel11122413293D

 31 35  0  0  1  0  0  0  0  0999 V2000
  154.1760  212.2550  140.0110 C   0  0  0  0  0  0  0  0  0  0  0  0
  157.3930  213.8050  138.6870 C   0  0  2  0  0  3  0  0  0  0  0  0
  158.3720  213.9130  139.8380 C   0  0  0  0  0  0  0  0  0  0  0  0
  158.9340  213.9030  142.2200 C   0  0  0  0  0  0  0  0  0  0  0  0
  156.2650  212.8210  138.9140 C   0  0  0  0  0  0  0  0  0  0  0  0
  154.1470  211.0330  139.3350 C   0  0  0  0  0  3  0  0  0  0  0  0
  157.9740  213.7680  141.1110 C   0  0  0  0  0  3  0  0  0  0  0  0
  158.4130  212.0230  137.1390 C   0  0  1  0  0  3  0  0  0  0  0  0
  153.0850  212.6060  140.9580 C   0  0  0  0  0  1  0  0  0  0  0  0
  160.2080  214.4530  138.3390 N   0  0  0  0  0  0  0  0  0  0  0  0
  158.5500  213.7520  143.4080 O   0  0  0  0  0  0  0  0  0  0  0  0
  157.2150  211.2620  137.2890 O   0  0  0  0  0  0  0  0  0  0  0  0
  158.1190  213.5190  137.3590 C   0  0  2  0  0  3  0  0  0  0  0  0
  155.2280  213.1480  139.7970 C   0  0  0  0  0  3  0  0  0  0  0  0
  160.3440  214.2100  141.9310 C   0  0  0  0  0  3  0  0  0  0  0  0
  156.2260  211.5920  138.2240 C   0  0  0  0  0  0  0  0  0  0  0  0
  155.1680  210.7040  138.4400 C   0  0  0  0  0  3  0  0  0  0  0  0
  159.3340  214.4310  137.1630 C   0  0  0  0  0  2  0  0  0  0  0  0
  159.7890  214.2760  139.5570 C   0  0  0  0  0  0  0  0  0  0  0  0
  160.7470  214.3860  140.6710 C   0  0  0  0  0  3  0  0  0  0  0  0
  159.4950  211.4800  138.0680 C   0  0  0  0  0  2  0  0  0  0  0  0
  159.0360  209.0190  138.0980 C   0  0  0  0  0  1  0  0  0  0  0  0
  159.9760  210.1080  137.6090 C   0  0  2  0  0  3  0  0  0  0  0  0
  162.0510  207.3180  139.1880 C   0  0  0  0  0  0  0  0  0  0  0  0
  162.0530  208.7880  137.2750 O   0  0  0  0  0  0  0  0  0  0  0  0
  161.4650  210.6230  140.3660 C   0  0  0  0  0  2  0  0  0  0  0  0
  162.3990  206.0270  139.6720 N   0  0  0  0  0  1  0  0  0  0  0  0
  161.6810  207.5030  137.7420 C   0  0  0  0  0  2  0  0  0  0  0  0
  161.5880  209.6060  139.5250 C   0  0  0  0  0  0  0  0  0  0  0  0
  161.4180  209.8050  138.0400 C   0  0  2  0  0  3  0  0  0  0  0  0
  161.9540  208.3140  140.0110 N   0  0  0  0  0  0  0  0  0  0  0  0
  1  9  1  0  0  0  0
  2  5  1  1  0  0  0
  2  3  1  0  0  0  0
  3  7  2  0  0  0  0
  4 11  2  0  0  0  0
  5 14  2  0  0  0  0
  6  1  2  0  0  0  0
  7  4  1  0  0  0  0
  8 12  1  0  0  0  0
  8 13  1  0  0  0  0
  8 21  1  1  0  0  0
 10 19  2  0  0  0  0
 12 16  1  0  0  0  0
 13 18  1  1  0  0  0
 13  2  1  0  0  0  0
 14  1  1  0  0  0  0
 15  4  1  0  0  0  0
 16 17  2  0  0  0  0
 16  5  1  0  0  0  0
 17  6  1  0  0  0  0
 18 10  1  0  0  0  0
 19  3  1  0  0  0  0
 19 20  1  0  0  0  0
 20 15  2  0  0  0  0
 23 21  1  0  0  0  0
 23 22  1  1  0  0  0
 24 27  1  0  0  0  0
 24 31  2  0  0  0  0
 25 28  1  0  0  0  0
 25 30  1  0  0  0  0
 28 24  1  0  0  0  0
 29 31  1  0  0  0  0
 29 26  2  0  0  0  0
 30 23  1  1  0  0  0
 30 29  1  0  0  0  0
M  END
>  <MODEL>
1

>  <REMARK>
 VINA RESULT:      -4.5      0.000      0.000
  Name = 
  3 active torsions:
  status: ('A' for Active; 'I' for Inactive)
    1  A    between atoms: C_5  and  C_16
    2  A    between atoms: C_5  and  C_30
    3  A    between atoms: C_10  and  C_16
                            x       y       z     vdW  Elec       q    Type
                         _______ _______ _______ _____ _____    ______ ____

>  <TORSDO>
F 3

$$$$
=
 OpenBabel11122413293D

 31 35  0  0  1  0  0  0  0  0999 V2000
  161.2700  213.1250  148.5730 C   0  0  0  0  0  0  0  0  0  0  0  0
  161.5580  211.5660  152.0370 C   0  0  2  0  0  3  0  0  0  0  0  0
  160.1820  211.5700  152.6700 C   0  0  0  0  0  0  0  0  0  0  0  0
  157.8550  212.3130  152.8050 C   0  0  0  0  0  0  0  0  0  0  0  0
  161.5550  211.7190  150.5310 C   0  0  0  0  0  0  0  0  0  0  0  0
  161.5680  212.0400  147.7450 C   0  0  0  0  0  3  0  0  0  0  0  0
  159.1790  212.3000  152.1620 C   0  0  0  0  0  3  0  0  0  0  0  0
  162.0700  209.0810  151.6180 C   0  0  1  0  0  3  0  0  0  0  0  0
  160.9550  214.4500  147.9770 C   0  0  0  0  0  1  0  0  0  0  0  0
  160.9150  210.1150  154.4760 N   0  0  0  0  0  0  0  0  0  0  0  0
  156.9190  212.9940  152.3110 O   0  0  0  0  0  0  0  0  0  0  0  0
  162.2190  209.3850  150.2320 O   0  0  0  0  0  0  0  0  0  0  0  0
  162.3710  210.3300  152.4670 C   0  0  2  0  0  3  0  0  0  0  0  0
  161.2690  212.9660  149.9610 C   0  0  0  0  0  3  0  0  0  0  0  0
  157.6290  211.5220  154.0260 C   0  0  0  0  0  3  0  0  0  0  0  0
  161.8690  210.6290  149.6920 C   0  0  0  0  0  0  0  0  0  0  0  0
  161.8720  210.7960  148.3030 C   0  0  0  0  0  3  0  0  0  0  0  0
  162.2940  210.0930  153.9790 C   0  0  0  0  0  2  0  0  0  0  0  0
  159.9610  210.8140  153.9350 C   0  0  0  0  0  0  0  0  0  0  0  0
  158.6260  210.8140  154.5590 C   0  0  0  0  0  3  0  0  0  0  0  0
  160.6840  208.4970  151.8770 C   0  0  0  0  0  2  0  0  0  0  0  0
  161.0700  206.8060  153.6820 C   0  0  0  0  0  1  0  0  0  0  0  0
  160.7670  207.0110  152.2080 C   0  0  2  0  0  3  0  0  0  0  0  0
  161.0380  205.2810  148.8150 C   0  0  0  0  0  0  0  0  0  0  0  0
  162.1560  206.9500  150.1500 O   0  0  0  0  0  0  0  0  0  0  0  0
  161.5030  203.9260  152.0720 C   0  0  0  0  0  2  0  0  0  0  0  0
  160.6960  204.8730  147.4960 N   0  0  0  0  0  1  0  0  0  0  0  0
  161.1910  206.7420  149.1330 C   0  0  0  0  0  2  0  0  0  0  0  0
  161.4440  204.8160  151.0920 C   0  0  0  0  0  0  0  0  0  0  0  0
  161.7890  206.2630  151.3400 C   0  0  2  0  0  3  0  0  0  0  0  0
  161.1170  204.4020  149.7650 N   0  0  0  0  0  0  0  0  0  0  0  0
  1 14  1  0  0  0  0
  2  5  1  6  0  0  0
  2 13  1  0  0  0  0
  2  3  1  0  0  0  0
  3 19  1  0  0  0  0
  4 15  1  0  0  0  0
  6 17  1  0  0  0  0
  6  1  2  0  0  0  0
  7  3  2  0  0  0  0
  7  4  1  0  0  0  0
  8 21  1  6  0  0  0
  8 13  1  0  0  0  0
  9  1  1  0  0  0  0
 11  4  2  0  0  0  0
 12  8  1  0  0  0  0
 13 18  1  1  0  0  0
 14  5  2  0  0  0  0
 15 20  2  0  0  0  0
 16 12  1  0  0  0  0
 16  5  1  0  0  0  0
 17 16  2  0  0  0  0
 18 10  1  0  0  0  0
 19 10  2  0  0  0  0
 19 20  1  0  0  0  0
 21 23  1  0  0  0  0
 23 22  1  1  0  0  0
 24 28  1  0  0  0  0
 24 31  2  0  0  0  0
 25 30  1  0  0  0  0
 27 24  1  0  0  0  0
 28 25  1  0  0  0  0
 29 30  1  0  0  0  0
 29 26  2  0  0  0  0
 30 23  1  6  0  0  0
 31 29  1  0  0  0  0
M  END
>  <MODEL>
2

>  <REMARK>
 VINA RESULT:      -3.7     10.600     13.097
  Name = 
  3 active torsions:
  status: ('A' for Active; 'I' for Inactive)
    1  A    between atoms: C_5  and  C_16
    2  A    between atoms: C_5  and  C_30
    3  A    between atoms: C_10  and  C_16
                            x       y       z     vdW  Elec       q    Type
                         _______ _______ _______ _____ _____    ______ ____

>  <TORSDO>
F 3

$$$$
=
 OpenBabel11122413293D

 31 35  0  0  1  0  0  0  0  0999 V2000
  160.8670  213.1310  148.3810 C   0  0  0  0  0  0  0  0  0  0  0  0
  161.7180  211.4500  151.6910 C   0  0  2  0  0  3  0  0  0  0  0  0
  160.4420  211.3280  152.4990 C   0  0  0  0  0  0  0  0  0  0  0  0
  158.1100  211.8950  152.9750 C   0  0  0  0  0  0  0  0  0  0  0  0
  161.5030  211.6660  150.2090 C   0  0  0  0  0  0  0  0  0  0  0  0
  161.1220  212.1060  147.4660 C   0  0  0  0  0  3  0  0  0  0  0  0
  159.3350  212.0050  152.1640 C   0  0  0  0  0  3  0  0  0  0  0  0
  162.3310  209.0280  151.0810 C   0  0  1  0  0  3  0  0  0  0  0  0
  160.3890  214.4530  147.9010 C   0  0  0  0  0  1  0  0  0  0  0  0
  161.5050  209.8540  154.1150 N   0  0  0  0  0  0  0  0  0  0  0  0
  157.0750  212.5280  152.6440 O   0  0  0  0  0  0  0  0  0  0  0  0
  162.2730  209.4010  149.7050 O   0  0  0  0  0  0  0  0  0  0  0  0
  162.6610  210.2580  151.9480 C   0  0  2  0  0  3  0  0  0  0  0  0
  161.0630  212.9130  149.7470 C   0  0  0  0  0  3  0  0  0  0  0  0
  158.1030  211.0390  154.1730 C   0  0  0  0  0  3  0  0  0  0  0  0
  161.7730  210.6390  149.2800 C   0  0  0  0  0  0  0  0  0  0  0  0
  161.5780  210.8640  147.9140 C   0  0  0  0  0  3  0  0  0  0  0  0
  162.8030  209.9530  153.4420 C   0  0  0  0  0  2  0  0  0  0  0  0
  160.4440  210.5050  153.7410 C   0  0  0  0  0  0  0  0  0  0  0  0
  159.2070  210.3820  154.5330 C   0  0  0  0  0  3  0  0  0  0  0  0
  161.0340  208.3360  151.4890 C   0  0  0  0  0  2  0  0  0  0  0  0
  162.6700  206.4480  151.3290 C   0  0  0  0  0  1  0  0  0  0  0  0
  161.2160  206.8240  151.5580 C   0  0  2  0  0  3  0  0  0  0  0  0
  161.1250  203.5950  149.5220 C   0  0  0  0  0  0  0  0  0  0  0  0
  159.7890  204.8450  151.0940 O   0  0  0  0  0  0  0  0  0  0  0  0
  161.0030  206.9670  148.3930 C   0  0  0  0  0  2  0  0  0  0  0  0
  161.4860  202.2980  149.0640 N   0  0  0  0  0  1  0  0  0  0  0  0
  160.7400  203.8030  150.9600 C   0  0  0  0  0  2  0  0  0  0  0  0
  160.8800  205.9180  149.1940 C   0  0  0  0  0  0  0  0  0  0  0  0
  160.3050  206.0670  150.5800 C   0  0  2  0  0  3  0  0  0  0  0  0
  161.2260  204.6140  148.7270 N   0  0  0  0  0  0  0  0  0  0  0  0
  1 14  1  0  0  0  0
  2  5  1  6  0  0  0
  2 13  1  0  0  0  0
  2  3  1  0  0  0  0
  3 19  1  0  0  0  0
  4 15  1  0  0  0  0
  6 17  1  0  0  0  0
  6  1  2  0  0  0  0
  7  3  2  0  0  0  0
  7  4  1  0  0  0  0
  8 21  1  1  0  0  0
  8 13  1  0  0  0  0
  9  1  1  0  0  0  0
 11  4  2  0  0  0  0
 12  8  1  0  0  0  0
 13 18  1  1  0  0  0
 14  5  2  0  0  0  0
 15 20  2  0  0  0  0
 16 12  1  0  0  0  0
 16  5  1  0  0  0  0
 17 16  2  0  0  0  0
 18 10  1  0  0  0  0
 19 10  2  0  0  0  0
 19 20  1  0  0  0  0
 21 23  1  0  0  0  0
 23 22  1  6  0  0  0
 24 28  1  0  0  0  0
 26 29  2  0  0  0  0
 27 24  1  0  0  0  0
 28 25  1  0  0  0  0
 29 30  1  0  0  0  0
 30 25  1  0  0  0  0
 30 23  1  1  0  0  0
 31 29  1  0  0  0  0
 31 24  2  0  0  0  0
M  END
>  <MODEL>
3

>  <REMARK>
 VINA RESULT:      -3.7     10.369     12.809
  Name = 
  3 active torsions:
  status: ('A' for Active; 'I' for Inactive)
    1  A    between atoms: C_5  and  C_16
    2  A    between atoms: C_5  and  C_30
    3  A    between atoms: C_10  and  C_16
                            x       y       z     vdW  Elec       q    Type
                         _______ _______ _______ _____ _____    ______ ____

>  <TORSDO>
F 3

$$$$
=
 OpenBabel11122413293D

 31 35  0  0  1  0  0  0  0  0999 V2000
  160.6190  213.7950  147.5190 C   0  0  0  0  0  0  0  0  0  0  0  0
  159.2450  214.4100  151.0180 C   0  0  2  0  0  3  0  0  0  0  0  0
  157.7350  214.3090  150.9550 C   0  0  0  0  0  0  0  0  0  0  0  0
  155.6100  214.2500  149.7430 C   0  0  0  0  0  0  0  0  0  0  0  0
  159.9650  213.7600  149.8560 C   0  0  0  0  0  0  0  0  0  0  0  0
  161.3130  212.5960  147.6910 C   0  0  0  0  0  3  0  0  0  0  0  0
  157.0810  214.3220  149.7850 C   0  0  0  0  0  3  0  0  0  0  0  0
  159.9720  212.3640  152.3970 C   0  0  1  0  0  3  0  0  0  0  0  0
  160.5910  214.4530  146.1870 C   0  0  0  0  0  1  0  0  0  0  0  0
  157.5490  214.2970  153.3800 N   0  0  0  0  0  0  0  0  0  0  0  0
  155.0100  214.2520  148.6370 O   0  0  0  0  0  0  0  0  0  0  0  0
  160.7620  211.9450  151.2860 O   0  0  0  0  0  0  0  0  0  0  0  0
  159.7860  213.8930  152.3650 C   0  0  2  0  0  3  0  0  0  0  0  0
  159.9520  214.3780  148.6000 C   0  0  0  0  0  3  0  0  0  0  0  0
  154.8470  214.1720  150.9990 C   0  0  0  0  0  3  0  0  0  0  0  0
  160.6790  212.5550  150.0280 C   0  0  0  0  0  0  0  0  0  0  0  0
  161.3470  211.9790  148.9440 C   0  0  0  0  0  3  0  0  0  0  0  0
  158.9960  214.4530  153.5520 C   0  0  0  0  0  2  0  0  0  0  0  0
  156.9540  214.2830  152.2240 C   0  0  0  0  0  0  0  0  0  0  0  0
  155.4840  214.1870  152.1710 C   0  0  0  0  0  3  0  0  0  0  0  0
  158.6510  211.5990  152.4160 C   0  0  0  0  0  2  0  0  0  0  0  0
  157.4370  211.1370  154.5560 C   0  0  0  0  0  1  0  0  0  0  0  0
  158.5600  210.6900  153.6370 C   0  0  2  0  0  3  0  0  0  0  0  0
  160.2390  208.5950  156.3530 C   0  0  0  0  0  0  0  0  0  0  0  0
  160.6450  209.4310  154.1270 O   0  0  0  0  0  0  0  0  0  0  0  0
  159.4730  212.0700  156.3480 C   0  0  0  0  0  2  0  0  0  0  0  0
  160.4650  207.5240  157.2600 N   0  0  0  0  0  1  0  0  0  0  0  0
  160.1690  208.3270  154.8750 C   0  0  0  0  0  2  0  0  0  0  0  0
  159.7480  210.8570  155.8920 C   0  0  0  0  0  0  0  0  0  0  0  0
  159.8830  210.5990  154.4120 C   0  0  2  0  0  3  0  0  0  0  0  0
  159.9930  209.7850  156.8040 N   0  0  0  0  0  0  0  0  0  0  0  0
  1  6  2  0  0  0  0
  1 14  1  0  0  0  0
  2  5  1  6  0  0  0
  2 13  1  0  0  0  0
  3  2  1  0  0  0  0
  3 19  1  0  0  0  0
  4  7  1  0  0  0  0
  4 15  1  0  0  0  0
  5 16  1  0  0  0  0
  6 17  1  0  0  0  0
  7  3  2  0  0  0  0
  8 21  1  6  0  0  0
  9  1  1  0  0  0  0
 10 18  1  0  0  0  0
 11  4  2  0  0  0  0
 12  8  1  0  0  0  0
 13  8  1  0  0  0  0
 13 18  1  1  0  0  0
 14  5  2  0  0  0  0
 15 20  2  0  0  0  0
 16 12  1  0  0  0  0
 17 16  2  0  0  0  0
 19 10  2  0  0  0  0
 20 19  1  0  0  0  0
 21 23  1  0  0  0  0
 23 22  1  1  0  0  0
 24 31  2  0  0  0  0
 24 27  1  0  0  0  0
 25 30  1  0  0  0  0
 25 28  1  0  0  0  0
 28 24  1  0  0  0  0
 29 26  2  0  0  0  0
 29 31  1  0  0  0  0
 30 23  1  1  0  0  0
 30 29  1  0  0  0  0
M  END
>  <MODEL>
4

>  <REMARK>
 VINA RESULT:      -3.6     10.933     13.879
  Name = 
  3 active torsions:
  status: ('A' for Active; 'I' for Inactive)
    1  A    between atoms: C_5  and  C_16
    2  A    between atoms: C_5  and  C_30
    3  A    between atoms: C_10  and  C_16
                            x       y       z     vdW  Elec       q    Type
                         _______ _______ _______ _____ _____    ______ ____

>  <TORSDO>
F 3

$$$$
=
 OpenBabel11122413293D

 31 35  0  0  1  0  0  0  0  0999 V2000
  161.7150  211.9400  149.0110 C   0  0  0  0  0  0  0  0  0  0  0  0
  162.5910  208.7180  150.8420 C   0  0  2  0  0  3  0  0  0  0  0  0
  161.6720  208.5920  152.0400 C   0  0  0  0  0  0  0  0  0  0  0  0
  160.0740  209.4980  153.6560 C   0  0  0  0  0  0  0  0  0  0  0  0
  162.0990  209.6680  149.7720 C   0  0  0  0  0  0  0  0  0  0  0  0
  161.2210  211.4550  147.7980 C   0  0  0  0  0  3  0  0  0  0  0  0
  160.9430  209.6300  152.4740 C   0  0  0  0  0  3  0  0  0  0  0  0
  161.8570  206.8240  149.2640 C   0  0  1  0  0  3  0  0  0  0  0  0
  161.7700  213.4050  149.2580 C   0  0  0  0  0  1  0  0  0  0  0  0
  162.3570  206.2920  152.4320 N   0  0  0  0  0  0  0  0  0  0  0  0
  159.3870  210.4760  154.0460 O   0  0  0  0  0  0  0  0  0  0  0  0
  161.5980  207.8090  148.2650 O   0  0  0  0  0  0  0  0  0  0  0  0
  162.9280  207.3370  150.2460 C   0  0  2  0  0  3  0  0  0  0  0  0
  162.1570  211.0500  149.9920 C   0  0  0  0  0  3  0  0  0  0  0  0
  160.0120  208.2150  154.3760 C   0  0  0  0  0  3  0  0  0  0  0  0
  161.6120  209.1830  148.5400 C   0  0  0  0  0  0  0  0  0  0  0  0
  161.1740  210.0790  147.5600 C   0  0  0  0  0  3  0  0  0  0  0  0
  163.3210  206.3270  151.3280 C   0  0  0  0  0  2  0  0  0  0  0  0
  161.6440  207.3130  152.8040 C   0  0  0  0  0  0  0  0  0  0  0  0
  160.7540  207.1830  153.9710 C   0  0  0  0  0  3  0  0  0  0  0  0
  160.5550  206.4220  149.9500 C   0  0  0  0  0  2  0  0  0  0  0  0
  160.0730  204.3120  151.2070 C   0  0  0  0  0  1  0  0  0  0  0  0
  160.3150  204.9210  149.8370 C   0  0  2  0  0  3  0  0  0  0  0  0
  161.0150  203.0450  146.5850 C   0  0  0  0  0  0  0  0  0  0  0  0
  161.9090  204.8340  147.9340 O   0  0  0  0  0  0  0  0  0  0  0  0
  161.2090  201.8760  149.9400 C   0  0  0  0  0  2  0  0  0  0  0  0
  160.8310  202.5570  145.2630 N   0  0  0  0  0  1  0  0  0  0  0  0
  161.0650  204.5270  146.8390 C   0  0  0  0  0  2  0  0  0  0  0  0
  161.2070  202.7140  148.9140 C   0  0  0  0  0  0  0  0  0  0  0  0
  161.4560  204.1870  149.1170 C   0  0  2  0  0  3  0  0  0  0  0  0
  161.0390  202.2190  147.5840 N   0  0  0  0  0  0  0  0  0  0  0  0
  1  9  1  0  0  0  0
  1 14  1  0  0  0  0
  2  5  1  6  0  0  0
  2  3  1  0  0  0  0
  3  7  2  0  0  0  0
  3 19  1  0  0  0  0
  4 11  2  0  0  0  0
  4 15  1  0  0  0  0
  5 14  2  0  0  0  0
  6  1  2  0  0  0  0
  7  4  1  0  0  0  0
  8 21  1  1  0  0  0
  8 13  1  0  0  0  0
 10 19  2  0  0  0  0
 12 16  1  0  0  0  0
 12  8  1  0  0  0  0
 13  2  1  0  0  0  0
 13 18  1  1  0  0  0
 16  5  1  0  0  0  0
 17  6  1  0  0  0  0
 17 16  2  0  0  0  0
 18 10  1  0  0  0  0
 19 20  1  0  0  0  0
 20 15  2  0  0  0  0
 23 21  1  0  0  0  0
 23 22  1  1  0  0  0
 24 28  1  0  0  0  0
 24 31  2  0  0  0  0
 25 30  1  0  0  0  0
 27 24  1  0  0  0  0
 28 25  1  0  0  0  0
 29 30  1  0  0  0  0
 29 26  2  0  0  0  0
 30 23  1  6  0  0  0
 31 29  1  0  0  0  0
M  END
>  <MODEL>
5

>  <REMARK>
 VINA RESULT:      -3.6     10.362     12.703
  Name = 
  3 active torsions:
  status: ('A' for Active; 'I' for Inactive)
    1  A    between atoms: C_5  and  C_16
    2  A    between atoms: C_5  and  C_30
    3  A    between atoms: C_10  and  C_16
                            x       y       z     vdW  Elec       q    Type
                         _______ _______ _______ _____ _____    ______ ____

>  <TORSDO>
F 3

$$$$
=
 OpenBabel11122413293D

 31 35  0  0  1  0  0  0  0  0999 V2000
  159.1830  210.9470  154.6210 C   0  0  0  0  0  0  0  0  0  0  0  0
  160.7210  212.7270  151.6250 C   0  0  2  0  0  3  0  0  0  0  0  0
  161.1370  211.6770  150.6160 C   0  0  0  0  0  0  0  0  0  0  0  0
  161.6400  209.3740  149.9600 C   0  0  0  0  0  0  0  0  0  0  0  0
  159.7060  212.2520  152.6420 C   0  0  0  0  0  0  0  0  0  0  0  0
  157.8550  211.3750  154.5580 C   0  0  0  0  0  3  0  0  0  0  0  0
  161.2080  210.3790  150.9460 C   0  0  0  0  0  3  0  0  0  0  0  0
  158.7670  213.9650  150.5000 C   0  0  1  0  0  3  0  0  0  0  0  0
  159.6150  210.0230  155.7020 C   0  0  0  0  0  1  0  0  0  0  0  0
  161.5330  213.3560  148.9030 N   0  0  0  0  0  0  0  0  0  0  0  0
  161.6920  208.1580  150.2800 O   0  0  0  0  0  0  0  0  0  0  0  0
  157.9490  213.6030  151.6110 O   0  0  0  0  0  0  0  0  0  0  0  0
  160.2460  214.0170  150.9280 C   0  0  2  0  0  3  0  0  0  0  0  0
  160.1060  211.3890  153.6700 C   0  0  0  0  0  3  0  0  0  0  0  0
  162.0080  209.7970  148.5990 C   0  0  0  0  0  3  0  0  0  0  0  0
  158.3670  212.6920  152.5900 C   0  0  0  0  0  0  0  0  0  0  0  0
  157.4480  212.2500  153.5470 C   0  0  0  0  0  3  0  0  0  0  0  0
  161.2060  214.4530  149.8170 C   0  0  0  0  0  2  0  0  0  0  0  0
  161.5610  212.1040  149.2540 C   0  0  0  0  0  0  0  0  0  0  0  0
  161.9690  211.0890  148.2670 C   0  0  0  0  0  3  0  0  0  0  0  0
  158.5130  213.0140  149.3330 C   0  0  0  0  0  2  0  0  0  0  0  0
  156.2790  213.9440  148.6920 C   0  0  0  0  0  1  0  0  0  0  0  0
  157.7060  213.6960  148.2350 C   0  0  2  0  0  3  0  0  0  0  0  0
  159.4470  213.6910  144.8350 C   0  0  0  0  0  0  0  0  0  0  0  0
  158.9280  212.2080  146.6660 O   0  0  0  0  0  0  0  0  0  0  0  0
  155.9900  214.0730  145.5890 C   0  0  0  0  0  2  0  0  0  0  0  0
  160.3890  214.0130  143.8210 N   0  0  0  0  0  1  0  0  0  0  0  0
  159.9120  213.0720  146.1240 C   0  0  0  0  0  2  0  0  0  0  0  0
  157.2590  213.7140  145.7200 C   0  0  0  0  0  0  0  0  0  0  0  0
  157.7180  212.9140  146.9130 C   0  0  2  0  0  3  0  0  0  0  0  0
  158.2020  214.0230  144.6920 N   0  0  0  0  0  0  0  0  0  0  0  0
  1  9  1  0  0  0  0
  2  3  1  6  0  0  0
  2  5  1  0  0  0  0
  3  7  2  0  0  0  0
  4 11  2  0  0  0  0
  4  7  1  0  0  0  0
  5 14  1  0  0  0  0
  6  1  1  0  0  0  0
  8 21  1  6  0  0  0
  8 13  1  0  0  0  0
  8 12  1  0  0  0  0
 10 19  2  0  0  0  0
 10 18  1  0  0  0  0
 12 16  1  0  0  0  0
 13 18  1  6  0  0  0
 13  2  1  0  0  0  0
 14  1  2  0  0  0  0
 15  4  1  0  0  0  0
 16  5  2  0  0  0  0
 16 17  1  0  0  0  0
 17  6  2  0  0  0  0
 19  3  1  0  0  0  0
 20 15  2  0  0  0  0
 20 19  1  0  0  0  0
 23 22  1  1  0  0  0
 23 21  1  0  0  0  0
 24 28  1  0  0  0  0
 25 30  1  0  0  0  0
 26 29  2  0  0  0  0
 27 24  1  0  0  0  0
 28 25  1  0  0  0  0
 29 30  1  0  0  0  0
 30 23  1  1  0  0  0
 31 24  2  0  0  0  0
 31 29  1  0  0  0  0
M  END
>  <MODEL>
6

>  <REMARK>
 VINA RESULT:      -3.4      8.663     11.941
  Name = 
  3 active torsions:
  status: ('A' for Active; 'I' for Inactive)
    1  A    between atoms: C_5  and  C_16
    2  A    between atoms: C_5  and  C_30
    3  A    between atoms: C_10  and  C_16
                            x       y       z     vdW  Elec       q    Type
                         _______ _______ _______ _____ _____    ______ ____

>  <TORSDO>
F 3

$$$$
=
 OpenBabel11122413293D

 31 35  0  0  1  0  0  0  0  0999 V2000
  161.5670  204.1870  152.0040 C   0  0  0  0  0  0  0  0  0  0  0  0
  162.5630  207.8620  151.9140 C   0  0  2  0  0  3  0  0  0  0  0  0
  162.1980  208.4150  150.5520 C   0  0  0  0  0  0  0  0  0  0  0  0
  161.5610  208.1610  148.2030 C   0  0  0  0  0  0  0  0  0  0  0  0
  161.8450  206.5810  152.2830 C   0  0  0  0  0  0  0  0  0  0  0  0
  160.5530  204.1880  152.9650 C   0  0  0  0  0  3  0  0  0  0  0  0
  161.8880  207.6070  149.5280 C   0  0  0  0  0  3  0  0  0  0  0  0
  160.9550  209.0370  153.5410 C   0  0  1  0  0  3  0  0  0  0  0  0
  161.9580  202.9160  151.3380 C   0  0  0  0  0  1  0  0  0  0  0  0
  162.5940  210.7020  151.2800 N   0  0  0  0  0  0  0  0  0  0  0  0
  161.2600  207.3910  147.2540 O   0  0  0  0  0  0  0  0  0  0  0  0
  160.4810  207.7520  153.9400 O   0  0  0  0  0  0  0  0  0  0  0  0
  162.3980  208.9270  153.0150 C   0  0  2  0  0  3  0  0  0  0  0  0
  162.2140  205.3780  151.6680 C   0  0  0  0  0  3  0  0  0  0  0  0
  161.5830  209.6180  147.9950 C   0  0  0  0  0  3  0  0  0  0  0  0
  160.8300  206.5760  153.2630 C   0  0  0  0  0  0  0  0  0  0  0  0
  160.1890  205.3800  153.5970 C   0  0  0  0  0  3  0  0  0  0  0  0
  163.0220  210.2670  152.6120 C   0  0  0  0  0  2  0  0  0  0  0  0
  162.2700  209.8850  150.3210 C   0  0  0  0  0  0  0  0  0  0  0  0
  161.9180  210.4320  148.9980 C   0  0  0  0  0  3  0  0  0  0  0  0
  159.9930  209.6570  152.5310 C   0  0  0  0  0  2  0  0  0  0  0  0
  160.0140  212.1410  152.8410 C   0  0  0  0  0  1  0  0  0  0  0  0
  159.2620  210.8530  153.1310 C   0  0  2  0  0  3  0  0  0  0  0  0
  157.9080  212.8390  156.0980 C   0  0  0  0  0  0  0  0  0  0  0  0
  157.6370  210.7070  155.0030 O   0  0  0  0  0  0  0  0  0  0  0  0
  161.1490  211.4550  155.6130 C   0  0  0  0  0  2  0  0  0  0  0  0
  157.2550  213.8750  156.8210 N   0  0  0  0  0  1  0  0  0  0  0  0
  157.1420  212.0310  155.0860 C   0  0  0  0  0  2  0  0  0  0  0  0
  159.8410  211.6290  155.4940 C   0  0  0  0  0  0  0  0  0  0  0  0
  159.0120  210.7040  154.6390 C   0  0  2  0  0  3  0  0  0  0  0  0
  159.1840  212.6590  156.2350 N   0  0  0  0  0  0  0  0  0  0  0  0
  1  6  1  0  0  0  0
  2  3  1  6  0  0  0
  2  5  1  0  0  0  0
  2 13  1  0  0  0  0
  4  7  1  0  0  0  0
  5 16  2  0  0  0  0
  6 17  2  0  0  0  0
  7  3  2  0  0  0  0
  8 21  1  6  0  0  0
  8 12  1  0  0  0  0
  9  1  1  0  0  0  0
 10 18  1  0  0  0  0
 11  4  2  0  0  0  0
 13 18  1  6  0  0  0
 13  8  1  0  0  0  0
 14  1  2  0  0  0  0
 14  5  1  0  0  0  0
 15  4  1  0  0  0  0
 15 20  2  0  0  0  0
 16 17  1  0  0  0  0
 16 12  1  0  0  0  0
 19  3  1  0  0  0  0
 19 10  2  0  0  0  0
 20 19  1  0  0  0  0
 21 23  1  0  0  0  0
 23 22  1  1  0  0  0
 24 31  2  0  0  0  0
 24 27  1  0  0  0  0
 25 28  1  0  0  0  0
 28 24  1  0  0  0  0
 29 26  2  0  0  0  0
 29 31  1  0  0  0  0
 30 23  1  6  0  0  0
 30 25  1  0  0  0  0
 30 29  1  0  0  0  0
M  END
>  <MODEL>
7

>  <REMARK>
 VINA RESULT:      -2.3     12.322     15.335
  Name = 
  3 active torsions:
  status: ('A' for Active; 'I' for Inactive)
    1  A    between atoms: C_5  and  C_16
    2  A    between atoms: C_5  and  C_30
    3  A    between atoms: C_10  and  C_16
                            x       y       z     vdW  Elec       q    Type
                         _______ _______ _______ _____ _____    ______ ____

>  <TORSDO>
F 3

$$$$
=
 OpenBabel11122413293D

 31 35  0  0  1  0  0  0  0  0999 V2000
  156.7940  211.5510  154.4190 C   0  0  0  0  0  0  0  0  0  0  0  0
  160.2230  210.8110  155.9020 C   0  0  2  0  0  3  0  0  0  0  0  0
  160.3220  209.3180  156.1380 C   0  0  0  0  0  0  0  0  0  0  0  0
  159.3460  207.0850  156.3630 C   0  0  0  0  0  0  0  0  0  0  0  0
  159.1450  211.2210  154.9220 C   0  0  0  0  0  0  0  0  0  0  0  0
  157.1270  211.9990  153.1380 C   0  0  0  0  0  3  0  0  0  0  0  0
  159.2370  208.5310  156.1050 C   0  0  0  0  0  3  0  0  0  0  0  0
  161.8940  211.2770  154.0040 C   0  0  1  0  0  3  0  0  0  0  0  0
  155.3690  211.4820  154.8350 C   0  0  0  0  0  1  0  0  0  0  0  0
  162.7100  209.4580  156.5720 N   0  0  0  0  0  0  0  0  0  0  0  0
  158.3220  206.3570  156.3170 O   0  0  0  0  0  0  0  0  0  0  0  0
  160.8150  211.8090  153.2370 O   0  0  0  0  0  0  0  0  0  0  0  0
  161.5880  211.4080  155.5070 C   0  0  2  0  0  3  0  0  0  0  0  0
  157.8000  211.1690  155.3090 C   0  0  0  0  0  3  0  0  0  0  0  0
  160.6600  206.4960  156.6700 C   0  0  0  0  0  3  0  0  0  0  0  0
  159.4770  211.6870  153.6320 C   0  0  0  0  0  0  0  0  0  0  0  0
  158.4660  212.0710  152.7470 C   0  0  0  0  0  3  0  0  0  0  0  0
  162.7140  210.9160  156.4220 C   0  0  0  0  0  2  0  0  0  0  0  0
  161.6390  208.7250  156.5020 C   0  0  0  0  0  0  0  0  0  0  0  0
  161.7430  207.2730  156.7350 C   0  0  0  0  0  3  0  0  0  0  0  0
  162.1820  209.8410  153.5720 C   0  0  0  0  0  2  0  0  0  0  0  0
  160.2780  208.7170  152.3990 C   0  0  0  0  0  1  0  0  0  0  0  0
  161.5450  209.5350  152.2220 C   0  0  2  0  0  3  0  0  0  0  0  0
  161.5250  207.6800  148.8840 C   0  0  0  0  0  0  0  0  0  0  0  0
  162.6610  209.4900  150.0030 O   0  0  0  0  0  0  0  0  0  0  0  0
  162.5140  206.5130  152.0960 C   0  0  0  0  0  2  0  0  0  0  0  0
  161.0540  207.1880  147.6360 N   0  0  0  0  0  1  0  0  0  0  0  0
  161.5950  209.1620  149.1290 C   0  0  0  0  0  2  0  0  0  0  0  0
  162.2550  207.3520  151.1030 C   0  0  0  0  0  0  0  0  0  0  0  0
  162.5080  208.8310  151.2540 C   0  0  2  0  0  3  0  0  0  0  0  0
  161.7980  206.8540  149.8450 N   0  0  0  0  0  0  0  0  0  0  0  0
  1  9  1  0  0  0  0
  1 14  1  0  0  0  0
  2  5  1  6  0  0  0
  2  3  1  0  0  0  0
  3 19  1  0  0  0  0
  4 15  1  0  0  0  0
  5 14  2  0  0  0  0
  6  1  2  0  0  0  0
  7  3  2  0  0  0  0
  7  4  1  0  0  0  0
  8 21  1  6  0  0  0
  8 13  1  0  0  0  0
 11  4  2  0  0  0  0
 12 16  1  0  0  0  0
 12  8  1  0  0  0  0
 13  2  1  0  0  0  0
 13 18  1  1  0  0  0
 15 20  2  0  0  0  0
 16  5  1  0  0  0  0
 17  6  1  0  0  0  0
 17 16  2  0  0  0  0
 18 10  1  0  0  0  0
 19 10  2  0  0  0  0
 19 20  1  0  0  0  0
 23 22  1  1  0  0  0
 23 21  1  0  0  0  0
 24 28  1  0  0  0  0
 24 31  2  0  0  0  0
 25 30  1  0  0  0  0
 27 24  1  0  0  0  0
 28 25  1  0  0  0  0
 29 30  1  0  0  0  0
 29 26  2  0  0  0  0
 30 23  1  6  0  0  0
 31 29  1  0  0  0  0
M  END
>  <MODEL>
8

>  <REMARK>
 VINA RESULT:      -2.2     12.823     15.240
  Name = 
  3 active torsions:
  status: ('A' for Active; 'I' for Inactive)
    1  A    between atoms: C_5  and  C_16
    2  A    between atoms: C_5  and  C_30
    3  A    between atoms: C_10  and  C_16
                            x       y       z     vdW  Elec       q    Type
                         _______ _______ _______ _____ _____    ______ ____

>  <TORSDO>
F 3

$$$$
=
 OpenBabel11122413293D

 31 35  0  0  1  0  0  0  0  0999 V2000
  155.1480  210.5840  155.8600 C   0  0  0  0  0  0  0  0  0  0  0  0
  158.6950  211.5850  156.8220 C   0  0  2  0  0  3  0  0  0  0  0  0
  159.6230  210.4480  156.4460 C   0  0  0  0  0  0  0  0  0  0  0  0
  160.0680  208.1300  155.8020 C   0  0  0  0  0  0  0  0  0  0  0  0
  157.3550  211.5590  156.1170 C   0  0  0  0  0  0  0  0  0  0  0  0
  154.8550  211.5030  154.8500 C   0  0  0  0  0  3  0  0  0  0  0  0
  159.1510  209.2310  156.1390 C   0  0  0  0  0  3  0  0  0  0  0  0
  159.3190  213.4880  155.2080 C   0  0  1  0  0  3  0  0  0  0  0  0
  154.1350  209.5720  156.2600 C   0  0  0  0  0  1  0  0  0  0  0  0
  161.5950  211.8190  156.8230 N   0  0  0  0  0  0  0  0  0  0  0  0
  159.6110  206.9960  155.5050 O   0  0  0  0  0  0  0  0  0  0  0  0
  157.9690  213.4890  154.7480 O   0  0  0  0  0  0  0  0  0  0  0  0
  159.3850  212.9520  156.6510 C   0  0  2  0  0  3  0  0  0  0  0  0
  156.3920  210.6150  156.4950 C   0  0  0  0  0  3  0  0  0  0  0  0
  161.5220  208.3620  155.8100 C   0  0  0  0  0  3  0  0  0  0  0  0
  157.0500  212.4940  155.1060 C   0  0  0  0  0  0  0  0  0  0  0  0
  155.8020  212.4600  154.4770 C   0  0  0  0  0  3  0  0  0  0  0  0
  160.7900  212.9630  157.2610 C   0  0  0  0  0  2  0  0  0  0  0  0
  161.0960  210.6620  156.5030 C   0  0  0  0  0  0  0  0  0  0  0  0
  162.0060  209.5610  156.1420 C   0  0  0  0  0  3  0  0  0  0  0  0
  160.2010  212.7080  154.2370 C   0  0  0  0  0  2  0  0  0  0  0  0
  159.9930  211.1010  152.3290 C   0  0  0  0  0  1  0  0  0  0  0  0
  159.4420  212.3680  152.9590 C   0  0  2  0  0  3  0  0  0  0  0  0
  157.4420  213.6510  149.9690 C   0  0  0  0  0  0  0  0  0  0  0  0
  158.3440  214.4120  152.0730 O   0  0  0  0  0  0  0  0  0  0  0  0
  160.8440  212.6220  150.1210 C   0  0  0  0  0  2  0  0  0  0  0  0
  156.3770  213.7830  149.0370 N   0  0  0  0  0  1  0  0  0  0  0  0
  157.1930  213.8920  151.4330 C   0  0  0  0  0  2  0  0  0  0  0  0
  159.6640  213.0780  150.5160 C   0  0  0  0  0  0  0  0  0  0  0  0
  159.4430  213.5180  151.9410 C   0  0  2  0  0  3  0  0  0  0  0  0
  158.6010  213.2260  149.5740 N   0  0  0  0  0  0  0  0  0  0  0  0
  1  9  1  0  0  0  0
  1 14  1  0  0  0  0
  2  5  1  6  0  0  0
  3 19  1  0  0  0  0
  3  2  1  0  0  0  0
  4 15  1  0  0  0  0
  4  7  1  0  0  0  0
  5 14  2  0  0  0  0
  6  1  2  0  0  0  0
  7  3  2  0  0  0  0
  8 21  1  6  0  0  0
  8 13  1  0  0  0  0
 10 18  1  0  0  0  0
 11  4  2  0  0  0  0
 12 16  1  0  0  0  0
 12  8  1  0  0  0  0
 13  2  1  0  0  0  0
 13 18  1  6  0  0  0
 15 20  2  0  0  0  0
 16  5  1  0  0  0  0
 17  6  1  0  0  0  0
 17 16  2  0  0  0  0
 19 10  2  0  0  0  0
 20 19  1  0  0  0  0
 23 22  1  6  0  0  0
 23 21  1  0  0  0  0
 24 28  1  0  0  0  0
 26 29  2  0  0  0  0
 27 24  1  0  0  0  0
 28 25  1  0  0  0  0
 29 30  1  0  0  0  0
 30 25  1  0  0  0  0
 30 23  1  1  0  0  0
 31 24  2  0  0  0  0
 31 29  1  0  0  0  0
M  END
>  <MODEL>
9

>  <REMARK>
 VINA RESULT:      -2.1     12.998     15.949
  Name = 
  3 active torsions:
  status: ('A' for Active; 'I' for Inactive)
    1  A    between atoms: C_5  and  C_16
    2  A    between atoms: C_5  and  C_30
    3  A    between atoms: C_10  and  C_16
                            x       y       z     vdW  Elec       q    Type
                         _______ _______ _______ _____ _____    ______ ____

>  <TORSDO>
F 3

$$$$
