=
 OpenBabel11122412503D

 32 37  0  0  1  0  0  0  0  0999 V2000
  162.3490  209.4040  153.9860 O   0  0  0  0  0  0  0  0  0  0  0  0
  161.0340  206.3640  150.0890 N   0  0  1  0  0  0  0  0  0  0  0  0
  161.3230  201.7160  151.7580 C   0  0  0  0  0  3  0  0  0  0  0  0
  161.1250  201.2510  150.4570 C   0  0  0  0  0  3  0  0  0  0  0  0
  161.4660  206.7240  147.6150 C   0  0  0  0  0  0  0  0  0  0  0  0
  161.0710  206.1240  146.2790 C   0  0  1  0  0  3  0  0  0  0  0  0
  160.8340  208.2710  151.5970 C   0  0  1  0  0  3  0  0  0  0  0  0
  160.7120  205.9350  152.5000 C   0  0  0  0  0  2  0  0  0  0  0  0
  160.9850  204.1230  145.0730 C   0  0  2  0  0  3  0  0  0  0  0  0
  160.4860  207.8770  154.1060 C   0  0  0  0  0  2  0  0  0  0  0  0
  161.4000  203.0890  152.0070 C   0  0  0  0  0  3  0  0  0  0  0  0
  161.4400  205.4960  151.2220 C   0  0  1  0  0  3  0  0  0  0  0  0
  161.2650  204.0110  150.9570 C   0  0  0  0  0  0  0  0  0  0  0  0
  160.9280  204.5160  148.5290 C   0  0  2  0  0  3  0  0  0  0  0  0
  161.8530  205.1000  144.2980 C   0  0  0  0  0  2  0  0  0  0  0  0
  162.3150  210.0990  152.7500 C   0  0  0  0  0  2  0  0  0  0  0  0
  161.1140  207.3710  152.8080 C   0  0  2  0  0  3  0  0  0  0  0  0
  162.1890  206.2000  145.2700 C   0  0  0  0  0  2  0  0  0  0  0  0
  161.1400  209.7620  151.8010 C   0  0  0  0  0  2  0  0  0  0  0  0
  161.0390  209.2550  154.4850 C   0  0  1  0  0  3  0  0  0  0  0  0
  161.0180  202.1570  149.4000 C   0  0  0  0  0  3  0  0  0  0  0  0
  161.1180  203.5340  149.6400 C   0  0  0  0  0  0  0  0  0  0  0  0
  161.3910  204.0470  147.2940 O   0  0  0  0  0  0  0  0  0  0  0  0
  161.5590  207.7050  150.3820 C   0  0  0  0  0  2  0  0  0  0  0  0
  161.7400  207.9130  147.6630 O   0  0  0  0  0  0  0  0  0  0  0  0
  159.7190  203.8300  144.2910 C   0  0  0  0  0  1  0  0  0  0  0  0
  161.6210  205.8360  148.8410 C   0  0  2  0  0  3  0  0  0  0  0  0
  160.6460  204.7130  146.3650 N   0  0  1  0  0  0  0  0  0  0  0  0
  161.0280  209.4100  155.9960 C   0  0  0  0  0  2  0  0  0  0  0  0
  161.7360  210.6580  156.3990 C   0  0  0  0  0  0  0  0  0  0  0  0
  161.2070  211.7790  156.1850 O   0  0  0  0  0  0  0  0  0  0  0  0
  162.9970  210.5810  157.0560 N   0  0  0  0  0  1  0  0  0  0  0  0
  1 20  1  0  0  0  0
  2 24  1  1  0  0  0
  2 12  1  0  0  0  0
  3 11  1  0  0  0  0
  4  3  2  0  0  0  0
  5 25  2  0  0  0  0
  6 18  1  6  0  0  0
  6 28  1  0  0  0  0
  6  5  1  0  0  0  0
  7 24  1  6  0  0  0
  7 19  1  0  0  0  0
  7 17  1  0  0  0  0
  9 26  1  6  0  0  0
  9 28  1  0  0  0  0
 10 20  1  0  0  0  0
 12  8  1  1  0  0  0
 13 12  1  0  0  0  0
 13 11  2  0  0  0  0
 14 23  1  6  0  0  0
 14 27  1  0  0  0  0
 14 22  1  0  0  0  0
 15  9  1  0  0  0  0
 15 18  1  0  0  0  0
 16  1  1  0  0  0  0
 17  8  1  6  0  0  0
 17 10  1  0  0  0  0
 19 16  1  0  0  0  0
 20 29  1  1  0  0  0
 21 22  2  0  0  0  0
 21  4  1  0  0  0  0
 22 13  1  0  0  0  0
 27  5  1  6  0  0  0
 27  2  1  0  0  0  0
 28 23  1  1  0  0  0
 29 30  1  0  0  0  0
 30 32  1  0  0  0  0
 31 30  2  0  0  0  0
M  END
>  <MODEL>
1

>  <REMARK>
 VINA RESULT:      -8.7      0.000      0.000
  Name = 
  2 active torsions:
  status: ('A' for Active; 'I' for Inactive)
    1  A    between atoms: C_20  and  C_29
    2  A    between atoms: C_29  and  C_30
                            x       y       z     vdW  Elec       q    Type
                         _______ _______ _______ _____ _____    ______ ____

>  <TORSDO>
F 2

$$$$
=
 OpenBabel11122412503D

 32 37  0  0  1  0  0  0  0  0999 V2000
  162.0100  201.8170  148.9520 O   0  0  0  0  0  0  0  0  0  0  0  0
  160.9320  206.1560  151.4360 N   0  0  1  0  0  0  0  0  0  0  0  0
  162.3180  209.8670  148.4730 C   0  0  0  0  0  3  0  0  0  0  0  0
  162.0830  210.7680  149.5130 C   0  0  0  0  0  3  0  0  0  0  0  0
  161.0220  206.5870  153.9350 C   0  0  0  0  0  0  0  0  0  0  0  0
  160.6180  207.6550  154.9330 C   0  0  1  0  0  3  0  0  0  0  0  0
  160.5120  203.9080  150.5860 C   0  0  1  0  0  3  0  0  0  0  0  0
  160.9550  205.7940  148.9930 C   0  0  0  0  0  2  0  0  0  0  0  0
  160.8090  209.9340  155.4240 C   0  0  2  0  0  3  0  0  0  0  0  0
  160.5130  203.4840  148.0580 C   0  0  0  0  0  2  0  0  0  0  0  0
  162.1440  208.4960  148.6810 C   0  0  0  0  0  3  0  0  0  0  0  0
  161.6190  206.5180  150.1710 C   0  0  1  0  0  3  0  0  0  0  0  0
  161.7180  208.0140  149.9290 C   0  0  0  0  0  0  0  0  0  0  0  0
  161.0360  208.4140  152.3030 C   0  0  2  0  0  3  0  0  0  0  0  0
  161.3780  209.1520  156.5970 C   0  0  0  0  0  2  0  0  0  0  0  0
  161.7090  201.5930  150.3200 C   0  0  0  0  0  2  0  0  0  0  0  0
  161.0920  204.2940  149.2180 C   0  0  2  0  0  3  0  0  0  0  0  0
  161.5870  207.7510  156.0850 C   0  0  0  0  0  2  0  0  0  0  0  0
  160.5320  202.4070  150.9110 C   0  0  0  0  0  2  0  0  0  0  0  0
  160.8160  201.9900  148.2240 C   0  0  1  0  0  3  0  0  0  0  0  0
  161.6860  210.2980  150.7670 C   0  0  0  0  0  3  0  0  0  0  0  0
  161.5330  208.9220  150.9880 C   0  0  0  0  0  0  0  0  0  0  0  0
  161.4520  209.1940  153.3880 O   0  0  0  0  0  0  0  0  0  0  0  0
  161.2050  204.7310  151.6650 C   0  0  0  0  0  2  0  0  0  0  0  0
  161.0550  205.4240  154.3050 O   0  0  0  0  0  0  0  0  0  0  0  0
  159.5530  210.6650  155.8570 C   0  0  0  0  0  1  0  0  0  0  0  0
  161.4790  206.9760  152.5350 C   0  0  2  0  0  3  0  0  0  0  0  0
  160.4950  209.0030  154.3430 N   0  0  1  0  0  0  0  0  0  0  0  0
  160.9320  201.3400  146.8560 C   0  0  0  0  0  2  0  0  0  0  0  0
  160.8850  202.3710  145.7810 C   0  0  0  0  0  0  0  0  0  0  0  0
  161.7900  203.2410  145.7040 O   0  0  0  0  0  0  0  0  0  0  0  0
  159.8330  202.3520  144.8220 N   0  0  0  0  0  1  0  0  0  0  0  0
  1 16  1  0  0  0  0
  2 24  1  1  0  0  0
  2 27  1  0  0  0  0
  3 11  2  0  0  0  0
  3  4  1  0  0  0  0
  4 21  2  0  0  0  0
  5 25  2  0  0  0  0
  5  6  1  0  0  0  0
  6 18  1  1  0  0  0
  7 19  1  1  0  0  0
  7 24  1  0  0  0  0
  8 17  1  0  0  0  0
  9 26  1  1  0  0  0
  9 15  1  0  0  0  0
 10 20  1  0  0  0  0
 11 13  1  0  0  0  0
 12  8  1  6  0  0  0
 12  2  1  0  0  0  0
 13 12  1  0  0  0  0
 13 22  2  0  0  0  0
 14 22  1  6  0  0  0
 14 27  1  0  0  0  0
 14 23  1  0  0  0  0
 16 19  1  0  0  0  0
 17 10  1  6  0  0  0
 17  7  1  0  0  0  0
 18 15  1  0  0  0  0
 20 29  1  6  0  0  0
 20  1  1  0  0  0  0
 21 22  1  0  0  0  0
 27  5  1  1  0  0  0
 28 23  1  6  0  0  0
 28  6  1  0  0  0  0
 28  9  1  0  0  0  0
 30 29  1  0  0  0  0
 31 30  2  0  0  0  0
 32 30  1  0  0  0  0
M  END
>  <MODEL>
2

>  <REMARK>
 VINA RESULT:      -8.5      2.096      8.789
  Name = 
  2 active torsions:
  status: ('A' for Active; 'I' for Inactive)
    1  A    between atoms: C_20  and  C_29
    2  A    between atoms: C_29  and  C_30
                            x       y       z     vdW  Elec       q    Type
                         _______ _______ _______ _____ _____    ______ ____

>  <TORSDO>
F 2

$$$$
=
 OpenBabel11122412503D

 32 37  0  0  1  0  0  0  0  0999 V2000
  162.0070  202.1930  150.3840 O   0  0  0  0  0  0  0  0  0  0  0  0
  160.9830  206.9070  152.0850 N   0  0  1  0  0  0  0  0  0  0  0  0
  162.2340  210.0250  148.4540 C   0  0  0  0  0  3  0  0  0  0  0  0
  162.0290  211.0980  149.3230 C   0  0  0  0  0  3  0  0  0  0  0  0
  161.1580  207.7810  154.4610 C   0  0  0  0  0  0  0  0  0  0  0  0
  160.7810  209.0110  155.2640 C   0  0  1  0  0  3  0  0  0  0  0  0
  160.5510  204.5420  151.6690 C   0  0  1  0  0  3  0  0  0  0  0  0
  160.9230  206.1110  149.7480 C   0  0  0  0  0  2  0  0  0  0  0  0
  160.9710  211.3400  155.3300 C   0  0  2  0  0  3  0  0  0  0  0  0
  160.4660  203.6700  149.2600 C   0  0  0  0  0  2  0  0  0  0  0  0
  162.0790  208.7140  148.9120 C   0  0  0  0  0  3  0  0  0  0  0  0
  161.6220  207.0360  150.7520 C   0  0  1  0  0  3  0  0  0  0  0  0
  161.7010  208.4640  150.2410 C   0  0  0  0  0  0  0  0  0  0  0  0
  161.1000  209.2840  152.5270 C   0  0  2  0  0  3  0  0  0  0  0  0
  161.5880  210.7830  156.6030 C   0  0  0  0  0  2  0  0  0  0  0  0
  161.7560  202.2180  151.7810 C   0  0  0  0  0  2  0  0  0  0  0  0
  161.0790  204.6760  150.2340 C   0  0  2  0  0  3  0  0  0  0  0  0
  161.7890  209.3140  156.3440 C   0  0  0  0  0  2  0  0  0  0  0  0
  160.5940  203.1240  152.2570 C   0  0  0  0  0  2  0  0  0  0  0  0
  160.7860  202.2310  149.6810 C   0  0  1  0  0  3  0  0  0  0  0  0
  161.6810  210.8610  150.6550 C   0  0  0  0  0  3  0  0  0  0  0  0
  161.5470  209.5480  151.1250 C   0  0  0  0  0  0  0  0  0  0  0  0
  161.5480  210.2470  153.4390 O   0  0  0  0  0  0  0  0  0  0  0  0
  161.2750  205.5460  152.5570 C   0  0  0  0  0  2  0  0  0  0  0  0
  161.2140  206.7040  155.0320 O   0  0  0  0  0  0  0  0  0  0  0  0
  159.7260  212.1360  155.6700 C   0  0  0  0  0  1  0  0  0  0  0  0
  161.5620  207.9120  152.9980 C   0  0  2  0  0  3  0  0  0  0  0  0
  160.6270  210.2300  154.4460 N   0  0  1  0  0  0  0  0  0  0  0  0
  160.8580  201.3450  148.4490 C   0  0  0  0  0  2  0  0  0  0  0  0
  161.1270  202.1620  147.2320 C   0  0  0  0  0  0  0  0  0  0  0  0
  161.9080  203.1460  147.2940 O   0  0  0  0  0  0  0  0  0  0  0  0
  160.5250  201.8110  145.9910 N   0  0  0  0  0  1  0  0  0  0  0  0
  1 16  1  0  0  0  0
  2 24  1  1  0  0  0
  2 27  1  0  0  0  0
  3 11  2  0  0  0  0
  3  4  1  0  0  0  0
  4 21  2  0  0  0  0
  5 25  2  0  0  0  0
  5  6  1  0  0  0  0
  6 18  1  1  0  0  0
  7 19  1  1  0  0  0
  7 24  1  0  0  0  0
  8 17  1  0  0  0  0
  9 26  1  1  0  0  0
  9 15  1  0  0  0  0
 10 20  1  0  0  0  0
 11 13  1  0  0  0  0
 12  8  1  6  0  0  0
 12  2  1  0  0  0  0
 13 12  1  0  0  0  0
 13 22  2  0  0  0  0
 14 22  1  6  0  0  0
 14 27  1  0  0  0  0
 14 23  1  0  0  0  0
 16 19  1  0  0  0  0
 17 10  1  6  0  0  0
 17  7  1  0  0  0  0
 18 15  1  0  0  0  0
 20 29  1  6  0  0  0
 20  1  1  0  0  0  0
 21 22  1  0  0  0  0
 27  5  1  1  0  0  0
 28 23  1  6  0  0  0
 28  6  1  0  0  0  0
 28  9  1  0  0  0  0
 30 31  2  0  0  0  0
 30 29  1  0  0  0  0
 32 30  1  0  0  0  0
M  END
>  <MODEL>
3

>  <REMARK>
 VINA RESULT:      -8.1      2.203      8.719
  Name = 
  2 active torsions:
  status: ('A' for Active; 'I' for Inactive)
    1  A    between atoms: C_20  and  C_29
    2  A    between atoms: C_29  and  C_30
                            x       y       z     vdW  Elec       q    Type
                         _______ _______ _______ _____ _____    ______ ____

>  <TORSDO>
F 2

$$$$
=
 OpenBabel11122412503D

 32 37  0  0  1  0  0  0  0  0999 V2000
  162.2800  203.1940  147.5180 O   0  0  0  0  0  0  0  0  0  0  0  0
  160.9990  206.8760  150.8280 N   0  0  1  0  0  0  0  0  0  0  0  0
  162.2810  211.1720  148.7340 C   0  0  0  0  0  3  0  0  0  0  0  0
  161.9960  211.8260  149.9340 C   0  0  0  0  0  3  0  0  0  0  0  0
  161.0360  206.7790  153.3630 C   0  0  0  0  0  0  0  0  0  0  0  0
  160.5770  207.5990  154.5530 C   0  0  1  0  0  3  0  0  0  0  0  0
  160.6790  204.8430  149.5190 C   0  0  1  0  0  3  0  0  0  0  0  0
  161.0700  207.0340  148.3640 C   0  0  0  0  0  2  0  0  0  0  0  0
  160.6720  209.7300  155.5120 C   0  0  2  0  0  3  0  0  0  0  0  0
  160.7320  204.9570  146.9590 C   0  0  0  0  0  2  0  0  0  0  0  0
  162.1580  209.7830  148.6480 C   0  0  0  0  0  3  0  0  0  0  0  0
  161.6890  207.5190  149.6820 C   0  0  1  0  0  3  0  0  0  0  0  0
  161.7330  209.0350  149.7590 C   0  0  0  0  0  0  0  0  0  0  0  0
  161.0020  208.9060  152.1480 C   0  0  2  0  0  3  0  0  0  0  0  0
  161.2560  208.7410  156.5080 C   0  0  0  0  0  2  0  0  0  0  0  0
  161.9690  202.6780  148.8030 C   0  0  0  0  0  2  0  0  0  0  0  0
  161.2620  205.5260  148.2750 C   0  0  2  0  0  3  0  0  0  0  0  0
  161.5250  207.4860  155.7200 C   0  0  0  0  0  2  0  0  0  0  0  0
  160.7530  203.3090  149.5240 C   0  0  0  0  0  2  0  0  0  0  0  0
  161.0900  203.4740  146.8160 C   0  0  1  0  0  3  0  0  0  0  0  0
  161.6010  211.0900  151.0530 C   0  0  0  0  0  3  0  0  0  0  0  0
  161.4980  209.6950  150.9800 C   0  0  0  0  0  0  0  0  0  0  0  0
  161.3720  209.4550  153.3820 O   0  0  0  0  0  0  0  0  0  0  0  0
  161.3230  205.4450  150.7610 C   0  0  0  0  0  2  0  0  0  0  0  0
  161.1100  205.5660  153.4830 O   0  0  0  0  0  0  0  0  0  0  0  0
  159.3830  210.3100  156.0600 C   0  0  0  0  0  1  0  0  0  0  0  0
  161.4980  207.4670  152.0860 C   0  0  2  0  0  3  0  0  0  0  0  0
  160.4100  209.0360  154.2540 N   0  0  1  0  0  0  0  0  0  0  0  0
  161.2500  203.1280  145.3460 C   0  0  0  0  0  2  0  0  0  0  0  0
  160.1120  202.2870  144.8790 C   0  0  0  0  0  0  0  0  0  0  0  0
  159.1620  202.8100  144.2410 O   0  0  0  0  0  0  0  0  0  0  0  0
  160.1140  200.8850  145.1280 N   0  0  0  0  0  1  0  0  0  0  0  0
  1 16  1  0  0  0  0
  2 24  1  1  0  0  0
  2 27  1  0  0  0  0
  3  4  1  0  0  0  0
  4 21  2  0  0  0  0
  5 25  2  0  0  0  0
  5  6  1  0  0  0  0
  6 18  1  1  0  0  0
  7 19  1  6  0  0  0
  7 24  1  0  0  0  0
  9 26  1  1  0  0  0
  9 15  1  0  0  0  0
 11  3  2  0  0  0  0
 11 13  1  0  0  0  0
 12  8  1  6  0  0  0
 12 13  1  0  0  0  0
 12  2  1  0  0  0  0
 13 22  2  0  0  0  0
 14 22  1  6  0  0  0
 14 23  1  0  0  0  0
 16 19  1  0  0  0  0
 17 10  1  6  0  0  0
 17  8  1  0  0  0  0
 17  7  1  0  0  0  0
 18 15  1  0  0  0  0
 20 29  1  6  0  0  0
 20 10  1  0  0  0  0
 20  1  1  0  0  0  0
 22 21  1  0  0  0  0
 27 14  1  0  0  0  0
 27  5  1  1  0  0  0
 28 23  1  6  0  0  0
 28  6  1  0  0  0  0
 28  9  1  0  0  0  0
 30 32  1  0  0  0  0
 30 29  1  0  0  0  0
 31 30  2  0  0  0  0
M  END
>  <MODEL>
4

>  <REMARK>
 VINA RESULT:      -7.7      2.013      9.017
  Name = 
  2 active torsions:
  status: ('A' for Active; 'I' for Inactive)
    1  A    between atoms: C_20  and  C_29
    2  A    between atoms: C_29  and  C_30
                            x       y       z     vdW  Elec       q    Type
                         _______ _______ _______ _____ _____    ______ ____

>  <TORSDO>
F 2

$$$$
