=
 OpenBabel11122413123D

 31 35  0  0  1  0  0  0  0  0999 V2000
  160.8300  205.9930  146.0350 C   0  0  0  0  0  0  0  0  0  0  0  0
  160.2600  205.0730  149.7030 C   0  0  2  0  0  3  0  0  0  0  0  0
  160.6670  203.6150  149.8860 C   0  0  0  0  0  0  0  0  0  0  0  0
  161.2940  201.3530  148.9540 C   0  0  0  0  0  0  0  0  0  0  0  0
  160.8360  205.6740  148.4480 C   0  0  0  0  0  0  0  0  0  0  0  0
  162.2180  206.5640  146.0480 C   0  0  0  0  0  2  0  0  0  0  0  0
  160.7200  202.7090  148.6720 C   0  0  0  0  0  2  0  0  0  0  0  0
  162.1010  206.1440  150.9630 N   0  0  0  0  0  0  0  0  0  0  0  0
  160.1980  205.9060  144.9510 O   0  0  0  0  0  0  0  0  0  0  0  0
  160.6460  203.9220  152.2600 O   0  0  0  0  0  0  0  0  0  0  0  0
  161.6020  200.5940  147.9980 O   0  0  0  0  0  0  0  0  0  0  0  0
  162.4810  207.0420  149.8680 C   0  0  0  0  0  2  0  0  0  0  0  0
  160.6390  205.9420  150.9220 C   0  0  2  0  0  3  0  0  0  0  0  0
  160.2400  205.4600  147.2710 C   0  0  0  0  0  3  0  0  0  0  0  0
  161.4500  200.8820  150.3330 C   0  0  0  0  0  3  0  0  0  0  0  0
  162.0540  206.5130  148.5340 C   0  0  0  0  0  0  0  0  0  0  0  0
  162.6480  206.9790  147.4290 C   0  0  0  0  0  3  0  0  0  0  0  0
  160.1100  205.2380  152.1740 C   0  0  0  0  0  2  0  0  0  0  0  0
  160.8210  203.1110  151.1330 C   0  0  0  0  0  0  0  0  0  0  0  0
  161.2160  201.7070  151.3500 C   0  0  0  0  0  3  0  0  0  0  0  0
  162.4700  206.8460  152.1890 C   0  0  0  0  0  2  0  0  0  0  0  0
  161.5790  208.8230  151.2200 O   0  0  0  0  0  0  0  0  0  0  0  0
  161.7320  208.1460  152.2700 C   0  0  0  0  0  0  0  0  0  0  0  0
  161.5650  210.0010  155.9570 C   0  0  1  0  0  3  0  0  0  0  0  0
  161.0150  210.0030  153.6360 O   0  0  0  0  0  0  0  0  0  0  0  0
  160.8150  206.6500  154.6360 O   0  0  0  0  0  0  0  0  0  0  0  0
  162.5440  210.5330  156.9820 C   0  0  0  0  0  1  0  0  0  0  0  0
  161.9490  210.5000  154.5600 C   0  0  0  0  0  2  0  0  0  0  0  0
  161.1560  207.8610  154.7070 C   0  0  0  0  0  0  0  0  0  0  0  0
  161.2750  208.6710  153.5260 N   0  0  0  0  0  0  0  0  0  0  0  0
  161.5270  208.4670  156.0270 C   0  0  0  0  0  2  0  0  0  0  0  0
  1  6  1  0  0  0  0
  1 14  1  0  0  0  0
  2  5  1  6  0  0  0
  2  3  1  0  0  0  0
  2 13  1  0  0  0  0
  3 19  2  0  0  0  0
  4 15  1  0  0  0  0
  5 16  1  0  0  0  0
  6 17  1  0  0  0  0
  7  4  1  0  0  0  0
  7  3  1  0  0  0  0
  8 21  1  0  0  0  0
  9  1  2  0  0  0  0
 11  4  2  0  0  0  0
 12  8  1  0  0  0  0
 13  8  1  0  0  0  0
 13 18  1  1  0  0  0
 14  5  2  0  0  0  0
 15 20  2  0  0  0  0
 16 12  1  0  0  0  0
 17 16  2  0  0  0  0
 18 10  1  0  0  0  0
 19 20  1  0  0  0  0
 19 10  1  0  0  0  0
 21 23  1  0  0  0  0
 22 23  2  0  0  0  0
 23 30  1  0  0  0  0
 24 31  1  0  0  0  0
 24 27  1  1  0  0  0
 25 28  1  0  0  0  0
 26 29  2  0  0  0  0
 28 24  1  0  0  0  0
 29 31  1  0  0  0  0
 30 25  1  0  0  0  0
 30 29  1  0  0  0  0
M  END
>  <MODEL>
1

>  <REMARK>
 VINA RESULT:      -6.8      0.000      0.000
  Name = 
  2 active torsions:
  status: ('A' for Active; 'I' for Inactive)
    1  A    between atoms: C_5  and  C_16
    2  A    between atoms: N_10  and  C_16
                            x       y       z     vdW  Elec       q    Type
                         _______ _______ _______ _____ _____    ______ ____

>  <TORSDO>
F 2

$$$$
=
 OpenBabel11122413123D

 31 35  0  0  1  0  0  0  0  0999 V2000
  160.6520  207.4990  156.1240 C   0  0  0  0  0  0  0  0  0  0  0  0
  161.9640  208.8440  152.7940 C   0  0  2  0  0  3  0  0  0  0  0  0
  161.5350  207.8750  151.6980 C   0  0  0  0  0  0  0  0  0  0  0  0
  160.6070  205.6500  150.9440 C   0  0  0  0  0  0  0  0  0  0  0  0
  161.1580  208.6760  154.0540 C   0  0  0  0  0  0  0  0  0  0  0  0
  159.3300  208.1970  156.2670 C   0  0  0  0  0  2  0  0  0  0  0  0
  161.1730  206.4520  152.0770 C   0  0  0  0  0  2  0  0  0  0  0  0
  160.5000  210.7510  152.2100 N   0  0  0  0  0  0  0  0  0  0  0  0
  161.0260  206.6810  157.0030 O   0  0  0  0  0  0  0  0  0  0  0  0
  162.0910  209.5160  150.0470 O   0  0  0  0  0  0  0  0  0  0  0  0
  160.0600  204.5410  151.1760 O   0  0  0  0  0  0  0  0  0  0  0  0
  159.9340  210.8770  153.5570 C   0  0  0  0  0  2  0  0  0  0  0  0
  161.9050  210.3150  152.3270 C   0  0  2  0  0  3  0  0  0  0  0  0
  161.4700  207.7090  154.9220 C   0  0  0  0  0  3  0  0  0  0  0  0
  160.7330  206.1210  149.5620 C   0  0  0  0  0  3  0  0  0  0  0  0
  160.0310  209.5980  154.3290 C   0  0  0  0  0  0  0  0  0  0  0  0
  159.2350  209.4150  155.3870 C   0  0  0  0  0  3  0  0  0  0  0  0
  162.6600  210.4090  150.9980 C   0  0  0  0  0  2  0  0  0  0  0  0
  161.6330  208.2410  150.3990 C   0  0  0  0  0  0  0  0  0  0  0  0
  161.2250  207.3320  149.3120 C   0  0  0  0  0  3  0  0  0  0  0  0
  160.4430  212.0940  151.6360 C   0  0  0  0  0  2  0  0  0  0  0  0
  158.2160  212.2140  152.4540 O   0  0  0  0  0  0  0  0  0  0  0  0
  159.0180  212.5440  151.5420 C   0  0  0  0  0  0  0  0  0  0  0  0
  157.5830  213.5140  147.7920 C   0  0  1  0  0  3  0  0  0  0  0  0
  157.1990  213.2780  150.1340 O   0  0  0  0  0  0  0  0  0  0  0  0
  160.4890  214.4510  149.8450 O   0  0  0  0  0  0  0  0  0  0  0  0
  157.4190  212.8310  146.4510 C   0  0  0  0  0  1  0  0  0  0  0  0
  157.0470  212.6110  148.9070 C   0  0  0  0  0  2  0  0  0  0  0  0
  159.4120  213.9170  149.4660 C   0  0  0  0  0  0  0  0  0  0  0  0
  158.5350  213.2670  150.3990 N   0  0  0  0  0  0  0  0  0  0  0  0
  159.0600  213.8770  148.0090 C   0  0  0  0  0  2  0  0  0  0  0  0
  1  6  1  0  0  0  0
  1  9  2  0  0  0  0
  2  3  1  6  0  0  0
  2  5  1  0  0  0  0
  3  7  1  0  0  0  0
  4 11  2  0  0  0  0
  4  7  1  0  0  0  0
  5 16  1  0  0  0  0
  5 14  2  0  0  0  0
  8 13  1  0  0  0  0
  8 12  1  0  0  0  0
 10 19  1  0  0  0  0
 10 18  1  0  0  0  0
 12 16  1  0  0  0  0
 13 18  1  6  0  0  0
 13  2  1  0  0  0  0
 14  1  1  0  0  0  0
 15  4  1  0  0  0  0
 16 17  2  0  0  0  0
 17  6  1  0  0  0  0
 19  3  2  0  0  0  0
 20 15  2  0  0  0  0
 20 19  1  0  0  0  0
 21  8  1  0  0  0  0
 23 21  1  0  0  0  0
 23 22  2  0  0  0  0
 24 27  1  6  0  0  0
 24 31  1  0  0  0  0
 24 28  1  0  0  0  0
 25 30  1  0  0  0  0
 28 25  1  0  0  0  0
 29 26  2  0  0  0  0
 29 30  1  0  0  0  0
 30 23  1  0  0  0  0
 31 29  1  0  0  0  0
M  END
>  <MODEL>
2

>  <REMARK>
 VINA RESULT:      -6.7      4.021      7.364
  Name = 
  2 active torsions:
  status: ('A' for Active; 'I' for Inactive)
    1  A    between atoms: C_5  and  C_16
    2  A    between atoms: N_10  and  C_16
                            x       y       z     vdW  Elec       q    Type
                         _______ _______ _______ _____ _____    ______ ____

>  <TORSDO>
F 2

$$$$
=
 OpenBabel11122413123D

 31 35  0  0  1  0  0  0  0  0999 V2000
  161.3870  213.2700  147.6070 C   0  0  0  0  0  0  0  0  0  0  0  0
  161.9160  211.3630  150.8780 C   0  0  2  0  0  3  0  0  0  0  0  0
  160.6440  211.4980  151.7070 C   0  0  0  0  0  0  0  0  0  0  0  0
  158.4040  212.5670  152.1750 C   0  0  0  0  0  0  0  0  0  0  0  0
  161.6870  211.6800  149.4250 C   0  0  0  0  0  0  0  0  0  0  0  0
  160.8780  212.2040  146.6790 C   0  0  0  0  0  2  0  0  0  0  0  0
  159.6930  212.6410  151.4120 C   0  0  0  0  0  2  0  0  0  0  0  0
  161.7410  208.9640  150.2990 N   0  0  0  0  0  0  0  0  0  0  0  0
  161.5050  214.4530  147.1970 O   0  0  0  0  0  0  0  0  0  0  0  0
  161.4020  209.7310  153.1330 O   0  0  0  0  0  0  0  0  0  0  0  0
  157.4460  213.3190  151.8560 O   0  0  0  0  0  0  0  0  0  0  0  0
  161.8900  209.1830  148.8570 C   0  0  0  0  0  2  0  0  0  0  0  0
  162.5570  209.9640  151.0160 C   0  0  2  0  0  3  0  0  0  0  0  0
  161.6700  212.9510  149.0130 C   0  0  0  0  0  3  0  0  0  0  0  0
  158.2680  211.6660  153.3220 C   0  0  0  0  0  3  0  0  0  0  0  0
  161.4990  210.5730  148.4580 C   0  0  0  0  0  0  0  0  0  0  0  0
  161.1960  210.8200  147.1790 C   0  0  0  0  0  3  0  0  0  0  0  0
  162.6800  209.6570  152.5110 C   0  0  0  0  0  2  0  0  0  0  0  0
  160.4570  210.7030  152.7870 C   0  0  0  0  0  0  0  0  0  0  0  0
  159.2380  210.8030  153.6110 C   0  0  0  0  0  3  0  0  0  0  0  0
  162.2700  207.6250  150.5460 C   0  0  0  0  0  2  0  0  0  0  0  0
  160.7850  206.9470  152.2730 O   0  0  0  0  0  0  0  0  0  0  0  0
  161.1890  206.7470  151.0970 C   0  0  0  0  0  0  0  0  0  0  0  0
  160.6900  203.0350  149.3540 C   0  0  1  0  0  3  0  0  0  0  0  0
  160.0360  204.6290  151.0040 O   0  0  0  0  0  0  0  0  0  0  0  0
  160.8840  206.5160  148.1770 O   0  0  0  0  0  0  0  0  0  0  0  0
  161.5260  201.7960  149.1140 C   0  0  0  0  0  1  0  0  0  0  0  0
  160.8330  203.4880  150.8110 C   0  0  0  0  0  2  0  0  0  0  0  0
  160.8580  205.5060  148.9290 C   0  0  0  0  0  0  0  0  0  0  0  0
  160.6690  205.6390  150.3470 N   0  0  0  0  0  0  0  0  0  0  0  0
  161.1070  204.1380  148.3680 C   0  0  0  0  0  2  0  0  0  0  0  0
  1 14  1  0  0  0  0
  2  5  1  6  0  0  0
  2 13  1  0  0  0  0
  2  3  1  0  0  0  0
  3 19  2  0  0  0  0
  4 15  1  0  0  0  0
  6 17  1  0  0  0  0
  6  1  1  0  0  0  0
  7  3  1  0  0  0  0
  7  4  1  0  0  0  0
  8 21  1  0  0  0  0
  8 13  1  0  0  0  0
  9  1  2  0  0  0  0
 11  4  2  0  0  0  0
 12  8  1  0  0  0  0
 13 18  1  1  0  0  0
 14  5  2  0  0  0  0
 15 20  2  0  0  0  0
 16 12  1  0  0  0  0
 16  5  1  0  0  0  0
 17 16  2  0  0  0  0
 18 10  1  0  0  0  0
 19 10  1  0  0  0  0
 19 20  1  0  0  0  0
 21 23  1  0  0  0  0
 23 22  2  0  0  0  0
 24 27  1  1  0  0  0
 24 28  1  0  0  0  0
 26 29  2  0  0  0  0
 28 25  1  0  0  0  0
 29 30  1  0  0  0  0
 30 25  1  0  0  0  0
 30 23  1  0  0  0  0
 31 29  1  0  0  0  0
 31 24  1  0  0  0  0
M  END
>  <MODEL>
3

>  <REMARK>
 VINA RESULT:      -6.6      3.501      7.544
  Name = 
  2 active torsions:
  status: ('A' for Active; 'I' for Inactive)
    1  A    between atoms: C_5  and  C_16
    2  A    between atoms: N_10  and  C_16
                            x       y       z     vdW  Elec       q    Type
                         _______ _______ _______ _____ _____    ______ ____

>  <TORSDO>
F 2

$$$$
=
 OpenBabel11122413123D

 31 35  0  0  1  0  0  0  0  0999 V2000
  161.1250  203.4390  145.2910 C   0  0  0  0  0  0  0  0  0  0  0  0
  160.3430  205.2230  148.5820 C   0  0  2  0  0  3  0  0  0  0  0  0
  160.6820  204.2680  149.7210 C   0  0  0  0  0  0  0  0  0  0  0  0
  161.2610  201.9680  150.5900 C   0  0  0  0  0  0  0  0  0  0  0  0
  161.0020  204.8250  147.2880 C   0  0  0  0  0  0  0  0  0  0  0  0
  162.5330  203.8740  145.0040 C   0  0  0  0  0  2  0  0  0  0  0  0
  160.7560  202.7810  149.4360 C   0  0  0  0  0  2  0  0  0  0  0  0
  162.1620  206.8680  148.9090 N   0  0  0  0  0  0  0  0  0  0  0  0
  160.5420  202.6450  144.5090 O   0  0  0  0  0  0  0  0  0  0  0  0
  160.5580  206.0910  151.2680 O   0  0  0  0  0  0  0  0  0  0  0  0
  161.5830  200.7650  150.4130 O   0  0  0  0  0  0  0  0  0  0  0  0
  162.6310  206.7970  147.5220 C   0  0  0  0  0  2  0  0  0  0  0  0
  160.6970  206.6870  148.9230 C   0  0  2  0  0  3  0  0  0  0  0  0
  160.4550  203.8750  146.5250 C   0  0  0  0  0  3  0  0  0  0  0  0
  161.3320  202.5480  151.9350 C   0  0  0  0  0  3  0  0  0  0  0  0
  162.2470  205.5070  146.8640 C   0  0  0  0  0  0  0  0  0  0  0  0
  162.9110  205.1110  145.7730 C   0  0  0  0  0  3  0  0  0  0  0  0
  160.0800  207.0060  150.2880 C   0  0  0  0  0  2  0  0  0  0  0  0
  160.7540  204.7340  150.9900 C   0  0  0  0  0  0  0  0  0  0  0  0
  161.0820  203.8420  152.1170 C   0  0  0  0  0  3  0  0  0  0  0  0
  162.5000  208.2130  149.3670 C   0  0  0  0  0  2  0  0  0  0  0  0
  163.1120  207.2050  151.4290 O   0  0  0  0  0  0  0  0  0  0  0  0
  162.6370  208.2210  150.8580 C   0  0  0  0  0  0  0  0  0  0  0  0
  160.2200  210.8250  152.9660 C   0  0  1  0  0  3  0  0  0  0  0  0
  161.8970  209.1280  152.9690 O   0  0  0  0  0  0  0  0  0  0  0  0
  162.5490  211.0730  150.1280 O   0  0  0  0  0  0  0  0  0  0  0  0
  158.7380  211.0790  153.1360 C   0  0  0  0  0  1  0  0  0  0  0  0
  160.5140  209.3290  153.1160 C   0  0  0  0  0  2  0  0  0  0  0  0
  161.8700  210.6110  151.0840 C   0  0  0  0  0  0  0  0  0  0  0  0
  162.1610  209.3220  151.6470 N   0  0  0  0  0  0  0  0  0  0  0  0
  160.6850  211.3660  151.6050 C   0  0  0  0  0  2  0  0  0  0  0  0
  1 14  1  0  0  0  0
  2  5  1  6  0  0  0
  2 13  1  0  0  0  0
  2  3  1  0  0  0  0
  3 19  2  0  0  0  0
  4 15  1  0  0  0  0
  6  1  1  0  0  0  0
  6 17  1  0  0  0  0
  7  3  1  0  0  0  0
  7  4  1  0  0  0  0
  8 13  1  0  0  0  0
  8 21  1  0  0  0  0
  9  1  2  0  0  0  0
 11  4  2  0  0  0  0
 12  8  1  0  0  0  0
 13 18  1  1  0  0  0
 14  5  2  0  0  0  0
 15 20  2  0  0  0  0
 16  5  1  0  0  0  0
 16 12  1  0  0  0  0
 17 16  2  0  0  0  0
 18 10  1  0  0  0  0
 19 10  1  0  0  0  0
 19 20  1  0  0  0  0
 21 23  1  0  0  0  0
 23 22  2  0  0  0  0
 23 30  1  0  0  0  0
 24 28  1  0  0  0  0
 24 27  1  6  0  0  0
 25 28  1  0  0  0  0
 26 29  2  0  0  0  0
 29 31  1  0  0  0  0
 29 30  1  0  0  0  0
 30 25  1  0  0  0  0
 31 24  1  0  0  0  0
M  END
>  <MODEL>
4

>  <REMARK>
 VINA RESULT:      -6.1      2.010      2.881
  Name = 
  2 active torsions:
  status: ('A' for Active; 'I' for Inactive)
    1  A    between atoms: C_5  and  C_16
    2  A    between atoms: N_10  and  C_16
                            x       y       z     vdW  Elec       q    Type
                         _______ _______ _______ _____ _____    ______ ____

>  <TORSDO>
F 2

$$$$
=
 OpenBabel11122413123D

 31 35  0  0  1  0  0  0  0  0999 V2000
  160.6960  207.0370  156.3560 C   0  0  0  0  0  0  0  0  0  0  0  0
  161.8900  208.4160  152.9950 C   0  0  2  0  0  3  0  0  0  0  0  0
  161.5480  207.3890  151.9220 C   0  0  0  0  0  0  0  0  0  0  0  0
  160.8190  205.0760  151.2180 C   0  0  0  0  0  0  0  0  0  0  0  0
  161.1000  208.2060  154.2600 C   0  0  0  0  0  0  0  0  0  0  0  0
  159.3180  207.6200  156.4840 C   0  0  0  0  0  2  0  0  0  0  0  0
  161.3110  205.9490  152.3330 C   0  0  0  0  0  2  0  0  0  0  0  0
  160.2660  210.1750  152.3700 N   0  0  0  0  0  0  0  0  0  0  0  0
  161.1390  206.2740  157.2520 O   0  0  0  0  0  0  0  0  0  0  0  0
  161.9610  209.0350  150.2340 O   0  0  0  0  0  0  0  0  0  0  0  0
  160.3710  203.9280  151.4750 O   0  0  0  0  0  0  0  0  0  0  0  0
  159.6890  210.2810  153.7140 C   0  0  0  0  0  2  0  0  0  0  0  0
  161.7040  209.8660  152.4960 C   0  0  2  0  0  3  0  0  0  0  0  0
  161.4950  207.2900  155.1490 C   0  0  0  0  0  3  0  0  0  0  0  0
  160.9050  205.5250  149.8260 C   0  0  0  0  0  3  0  0  0  0  0  0
  159.8970  209.0330  154.5150 C   0  0  0  0  0  0  0  0  0  0  0  0
  159.1180  208.8040  155.5780 C   0  0  0  0  0  3  0  0  0  0  0  0
  162.4490  209.9960  151.1650 C   0  0  0  0  0  2  0  0  0  0  0  0
  161.6160  207.7340  150.6150 C   0  0  0  0  0  0  0  0  0  0  0  0
  161.2900  206.7690  149.5490 C   0  0  0  0  0  3  0  0  0  0  0  0
  160.0930  211.4940  151.7670 C   0  0  0  0  0  2  0  0  0  0  0  0
  160.3800  212.4200  153.9360 O   0  0  0  0  0  0  0  0  0  0  0  0
  159.7830  212.5010  152.8300 C   0  0  0  0  0  0  0  0  0  0  0  0
  156.1430  214.4410  152.5980 C   0  0  1  0  0  3  0  0  0  0  0  0
  158.2100  214.0910  153.7380 O   0  0  0  0  0  0  0  0  0  0  0  0
  158.9730  213.8270  150.3280 O   0  0  0  0  0  0  0  0  0  0  0  0
  154.6780  214.0620  152.5800 C   0  0  0  0  0  1  0  0  0  0  0  0
  156.8580  213.7070  153.7380 C   0  0  0  0  0  2  0  0  0  0  0  0
  158.2400  213.8370  151.3530 C   0  0  0  0  0  0  0  0  0  0  0  0
  158.7640  213.4960  152.6460 N   0  0  0  0  0  0  0  0  0  0  0  0
  156.7750  214.1310  151.2330 C   0  0  0  0  0  2  0  0  0  0  0  0
  1  6  1  0  0  0  0
  1  9  2  0  0  0  0
  2  3  1  6  0  0  0
  2  5  1  0  0  0  0
  3  7  1  0  0  0  0
  4 11  2  0  0  0  0
  4  7  1  0  0  0  0
  5 16  1  0  0  0  0
  5 14  2  0  0  0  0
  8 13  1  0  0  0  0
  8 12  1  0  0  0  0
 10 19  1  0  0  0  0
 10 18  1  0  0  0  0
 12 16  1  0  0  0  0
 13 18  1  6  0  0  0
 13  2  1  0  0  0  0
 14  1  1  0  0  0  0
 15  4  1  0  0  0  0
 16 17  2  0  0  0  0
 17  6  1  0  0  0  0
 19  3  2  0  0  0  0
 20 15  2  0  0  0  0
 20 19  1  0  0  0  0
 21  8  1  0  0  0  0
 21 23  1  0  0  0  0
 23 22  2  0  0  0  0
 24 27  1  6  0  0  0
 24 28  1  0  0  0  0
 25 28  1  0  0  0  0
 26 29  2  0  0  0  0
 29 30  1  0  0  0  0
 30 23  1  0  0  0  0
 30 25  1  0  0  0  0
 31 29  1  0  0  0  0
 31 24  1  0  0  0  0
M  END
>  <MODEL>
5

>  <REMARK>
 VINA RESULT:      -5.9      3.658      6.862
  Name = 
  2 active torsions:
  status: ('A' for Active; 'I' for Inactive)
    1  A    between atoms: C_5  and  C_16
    2  A    between atoms: N_10  and  C_16
                            x       y       z     vdW  Elec       q    Type
                         _______ _______ _______ _____ _____    ______ ____

>  <TORSDO>
F 2

$$$$
=
 OpenBabel11122413123D

 31 35  0  0  1  0  0  0  0  0999 V2000
  162.0880  206.2670  147.0970 C   0  0  0  0  0  0  0  0  0  0  0  0
  162.5700  208.6660  150.0360 C   0  0  2  0  0  3  0  0  0  0  0  0
  161.9710  210.0110  149.6420 C   0  0  0  0  0  0  0  0  0  0  0  0
  161.0330  211.6030  147.9200 C   0  0  0  0  0  0  0  0  0  0  0  0
  162.0670  207.5410  149.1710 C   0  0  0  0  0  0  0  0  0  0  0  0
  160.7900  205.5890  147.4310 C   0  0  0  0  0  2  0  0  0  0  0  0
  161.7820  210.3290  148.1720 C   0  0  0  0  0  2  0  0  0  0  0  0
  160.9070  207.9920  151.7400 N   0  0  0  0  0  0  0  0  0  0  0  0
  162.6900  205.9770  146.0320 O   0  0  0  0  0  0  0  0  0  0  0  0
  162.0620  210.7060  151.9310 O   0  0  0  0  0  0  0  0  0  0  0  0
  160.6140  211.8620  146.7620 O   0  0  0  0  0  0  0  0  0  0  0  0
  160.6390  206.6870  151.1270 C   0  0  0  0  0  2  0  0  0  0  0  0
  162.3280  208.3320  151.5240 C   0  0  2  0  0  3  0  0  0  0  0  0
  162.6140  207.3240  147.9720 C   0  0  0  0  0  3  0  0  0  0  0  0
  160.8300  212.5730  148.9990 C   0  0  0  0  0  3  0  0  0  0  0  0
  160.9750  206.6710  149.6680 C   0  0  0  0  0  0  0  0  0  0  0  0
  160.4370  205.7280  148.8870 C   0  0  0  0  0  3  0  0  0  0  0  0
  162.7700  209.5440  152.3480 C   0  0  0  0  0  2  0  0  0  0  0  0
  161.7650  210.9580  150.5870 C   0  0  0  0  0  0  0  0  0  0  0  0
  161.1850  212.2700  150.2450 C   0  0  0  0  0  3  0  0  0  0  0  0
  160.6500  207.8140  153.1660 C   0  0  0  0  0  2  0  0  0  0  0  0
  159.4500  209.8600  153.0460 O   0  0  0  0  0  0  0  0  0  0  0  0
  160.1570  209.0980  153.7570 C   0  0  0  0  0  0  0  0  0  0  0  0
  162.2530  210.6360  156.9670 C   0  0  1  0  0  3  0  0  0  0  0  0
  160.4530  210.8290  155.4130 O   0  0  0  0  0  0  0  0  0  0  0  0
  160.7260  207.4030  156.0970 O   0  0  0  0  0  0  0  0  0  0  0  0
  163.6680  211.0860  157.2610 C   0  0  0  0  0  1  0  0  0  0  0  0
  161.7720  211.2520  155.6490 C   0  0  0  0  0  2  0  0  0  0  0  0
  161.0980  208.6060  156.0420 C   0  0  0  0  0  0  0  0  0  0  0  0
  160.5420  209.5120  155.0760 N   0  0  0  0  0  0  0  0  0  0  0  0
  162.1950  209.1010  156.9360 C   0  0  0  0  0  2  0  0  0  0  0  0
  1  6  1  0  0  0  0
  1 14  1  0  0  0  0
  2  5  1  6  0  0  0
  2 13  1  0  0  0  0
  3  2  1  0  0  0  0
  3 19  2  0  0  0  0
  4  7  1  0  0  0  0
  4 15  1  0  0  0  0
  5 16  1  0  0  0  0
  6 17  1  0  0  0  0
  7  3  1  0  0  0  0
  8 21  1  0  0  0  0
  9  1  2  0  0  0  0
 10 18  1  0  0  0  0
 11  4  2  0  0  0  0
 12  8  1  0  0  0  0
 13  8  1  0  0  0  0
 13 18  1  1  0  0  0
 14  5  2  0  0  0  0
 15 20  2  0  0  0  0
 16 12  1  0  0  0  0
 17 16  2  0  0  0  0
 19 10  1  0  0  0  0
 20 19  1  0  0  0  0
 21 23  1  0  0  0  0
 22 23  2  0  0  0  0
 23 30  1  0  0  0  0
 24 27  1  6  0  0  0
 25 28  1  0  0  0  0
 28 24  1  0  0  0  0
 29 26  2  0  0  0  0
 29 31  1  0  0  0  0
 30 25  1  0  0  0  0
 30 29  1  0  0  0  0
 31 24  1  0  0  0  0
M  END
>  <MODEL>
6

>  <REMARK>
 VINA RESULT:      -5.9      2.570      5.220
  Name = 
  2 active torsions:
  status: ('A' for Active; 'I' for Inactive)
    1  A    between atoms: C_5  and  C_16
    2  A    between atoms: N_10  and  C_16
                            x       y       z     vdW  Elec       q    Type
                         _______ _______ _______ _____ _____    ______ ____

>  <TORSDO>
F 2

$$$$
=
 OpenBabel11122413123D

 31 35  0  0  1  0  0  0  0  0999 V2000
  162.1180  213.6690  147.4710 C   0  0  0  0  0  0  0  0  0  0  0  0
  159.8000  214.0280  150.4900 C   0  0  2  0  0  3  0  0  0  0  0  0
  158.3660  214.0700  149.9740 C   0  0  0  0  0  0  0  0  0  0  0  0
  156.6890  214.2920  148.0980 C   0  0  0  0  0  0  0  0  0  0  0  0
  160.7560  213.4580  149.4770 C   0  0  0  0  0  0  0  0  0  0  0  0
  162.2980  212.1820  147.3650 C   0  0  0  0  0  2  0  0  0  0  0  0
  158.1170  214.4520  148.5290 C   0  0  0  0  0  2  0  0  0  0  0  0
  159.7500  211.8040  151.5740 N   0  0  0  0  0  0  0  0  0  0  0  0
  162.6720  214.4280  146.6350 O   0  0  0  0  0  0  0  0  0  0  0  0
  157.5680  213.6970  152.2000 O   0  0  0  0  0  0  0  0  0  0  0  0
  156.3940  214.3560  146.8770 O   0  0  0  0  0  0  0  0  0  0  0  0
  160.9350  211.3060  150.8670 C   0  0  0  0  0  2  0  0  0  0  0  0
  159.9190  213.2500  151.8190 C   0  0  2  0  0  3  0  0  0  0  0  0
  161.2330  214.2330  148.4990 C   0  0  0  0  0  3  0  0  0  0  0  0
  155.6270  214.1160  149.0930 C   0  0  0  0  0  3  0  0  0  0  0  0
  161.1720  212.0400  149.5830 C   0  0  0  0  0  0  0  0  0  0  0  0
  161.9400  211.4760  148.6450 C   0  0  0  0  0  3  0  0  0  0  0  0
  158.8640  213.8080  152.7780 C   0  0  0  0  0  2  0  0  0  0  0  0
  157.3350  213.9230  150.8390 C   0  0  0  0  0  0  0  0  0  0  0  0
  155.9350  213.9550  150.3770 C   0  0  0  0  0  3  0  0  0  0  0  0
  159.7240  211.0850  152.8450 C   0  0  0  0  0  2  0  0  0  0  0  0
  160.4420  209.2010  151.5900 O   0  0  0  0  0  0  0  0  0  0  0  0
  160.4500  209.7830  152.7060 C   0  0  0  0  0  0  0  0  0  0  0  0
  161.1220  207.6110  156.1550 C   0  0  1  0  0  3  0  0  0  0  0  0
  161.3330  207.8140  153.7870 O   0  0  0  0  0  0  0  0  0  0  0  0
  161.7150  211.0660  155.0350 O   0  0  0  0  0  0  0  0  0  0  0  0
  160.2950  206.9910  157.2600 C   0  0  0  0  0  1  0  0  0  0  0  0
  160.5350  207.2380  154.7900 C   0  0  0  0  0  2  0  0  0  0  0  0
  161.3730  209.8530  155.0490 C   0  0  0  0  0  0  0  0  0  0  0  0
  161.0760  209.1510  153.8320 N   0  0  0  0  0  0  0  0  0  0  0  0
  161.1890  209.1340  156.3510 C   0  0  0  0  0  2  0  0  0  0  0  0
  1 14  1  0  0  0  0
  2  5  1  6  0  0  0
  2 13  1  0  0  0  0
  3  2  1  0  0  0  0
  3 19  2  0  0  0  0
  4  7  1  0  0  0  0
  4 15  1  0  0  0  0
  5 16  1  0  0  0  0
  6  1  1  0  0  0  0
  6 17  1  0  0  0  0
  7  3  1  0  0  0  0
  8 13  1  0  0  0  0
  8 21  1  0  0  0  0
  9  1  2  0  0  0  0
 10 18  1  0  0  0  0
 11  4  2  0  0  0  0
 12  8  1  0  0  0  0
 13 18  1  1  0  0  0
 14  5  2  0  0  0  0
 15 20  2  0  0  0  0
 16 12  1  0  0  0  0
 17 16  2  0  0  0  0
 19 10  1  0  0  0  0
 20 19  1  0  0  0  0
 22 23  2  0  0  0  0
 23 21  1  0  0  0  0
 23 30  1  0  0  0  0
 24 31  1  0  0  0  0
 24 27  1  1  0  0  0
 25 30  1  0  0  0  0
 25 28  1  0  0  0  0
 26 29  2  0  0  0  0
 28 24  1  0  0  0  0
 29 31  1  0  0  0  0
 30 29  1  0  0  0  0
M  END
>  <MODEL>
7

>  <REMARK>
 VINA RESULT:      -5.9      5.342      8.098
  Name = 
  2 active torsions:
  status: ('A' for Active; 'I' for Inactive)
    1  A    between atoms: C_5  and  C_16
    2  A    between atoms: N_10  and  C_16
                            x       y       z     vdW  Elec       q    Type
                         _______ _______ _______ _____ _____    ______ ____

>  <TORSDO>
F 2

$$$$
=
 OpenBabel11122413123D

 31 35  0  0  1  0  0  0  0  0999 V2000
  161.2440  200.9220  148.9320 C   0  0  0  0  0  0  0  0  0  0  0  0
  162.1020  204.5530  148.0950 C   0  0  2  0  0  3  0  0  0  0  0  0
  161.4050  204.9070  146.7870 C   0  0  0  0  0  0  0  0  0  0  0  0
  160.1570  204.2520  144.6910 C   0  0  0  0  0  0  0  0  0  0  0  0
  161.5060  203.3350  148.7490 C   0  0  0  0  0  0  0  0  0  0  0  0
  160.0380  201.0610  149.8150 C   0  0  0  0  0  2  0  0  0  0  0  0
  160.9780  203.7890  145.8570 C   0  0  0  0  0  2  0  0  0  0  0  0
  160.7490  205.9400  149.6340 N   0  0  0  0  0  0  0  0  0  0  0  0
  161.6810  199.7790  148.6430 O   0  0  0  0  0  0  0  0  0  0  0  0
  161.8300  207.2260  147.2020 O   0  0  0  0  0  0  0  0  0  0  0  0
  159.5530  203.4090  143.9780 O   0  0  0  0  0  0  0  0  0  0  0  0
  160.4310  204.8310  150.5380 C   0  0  0  0  0  2  0  0  0  0  0  0
  162.1070  205.7340  149.0910 C   0  0  2  0  0  3  0  0  0  0  0  0
  161.8660  202.1150  148.3410 C   0  0  0  0  0  3  0  0  0  0  0  0
  160.0940  205.6740  144.3420 C   0  0  0  0  0  3  0  0  0  0  0  0
  160.5350  203.5020  149.8550 C   0  0  0  0  0  0  0  0  0  0  0  0
  159.9130  202.4460  150.3900 C   0  0  0  0  0  3  0  0  0  0  0  0
  162.6330  206.9640  148.3480 C   0  0  0  0  0  2  0  0  0  0  0  0
  161.3190  206.2010  146.3980 C   0  0  0  0  0  0  0  0  0  0  0  0
  160.6500  206.5820  145.1410 C   0  0  0  0  0  3  0  0  0  0  0  0
  160.7250  207.1400  150.4660 C   0  0  0  0  0  2  0  0  0  0  0  0
  161.9570  205.7450  151.9420 O   0  0  0  0  0  0  0  0  0  0  0  0
  161.4590  206.8840  151.7460 C   0  0  0  0  0  0  0  0  0  0  0  0
  160.5630  209.3170  154.9620 C   0  0  1  0  0  3  0  0  0  0  0  0
  161.8020  207.4890  154.0580 O   0  0  0  0  0  0  0  0  0  0  0  0
  161.5360  209.8130  151.4480 O   0  0  0  0  0  0  0  0  0  0  0  0
  159.3410  209.6820  155.7770 C   0  0  0  0  0  1  0  0  0  0  0  0
  160.6500  207.7960  154.8030 C   0  0  0  0  0  2  0  0  0  0  0  0
  161.2430  209.2640  152.5440 C   0  0  0  0  0  0  0  0  0  0  0  0
  161.5290  207.8770  152.7810 N   0  0  0  0  0  0  0  0  0  0  0  0
  160.5110  210.0320  153.6030 C   0  0  0  0  0  2  0  0  0  0  0  0
  1  6  1  0  0  0  0
  2  3  1  6  0  0  0
  2  5  1  0  0  0  0
  2 13  1  0  0  0  0
  4  7  1  0  0  0  0
  5 16  1  0  0  0  0
  6 17  1  0  0  0  0
  7  3  1  0  0  0  0
  8 21  1  0  0  0  0
  8 12  1  0  0  0  0
  9  1  2  0  0  0  0
 10 18  1  0  0  0  0
 11  4  2  0  0  0  0
 13 18  1  6  0  0  0
 13  8  1  0  0  0  0
 14  5  2  0  0  0  0
 14  1  1  0  0  0  0
 15  4  1  0  0  0  0
 15 20  2  0  0  0  0
 16 17  2  0  0  0  0
 16 12  1  0  0  0  0
 19  3  2  0  0  0  0
 19 10  1  0  0  0  0
 20 19  1  0  0  0  0
 21 23  1  0  0  0  0
 23 22  2  0  0  0  0
 23 30  1  0  0  0  0
 24 27  1  1  0  0  0
 25 28  1  0  0  0  0
 26 29  2  0  0  0  0
 28 24  1  0  0  0  0
 29 30  1  0  0  0  0
 29 31  1  0  0  0  0
 30 25  1  0  0  0  0
 31 24  1  0  0  0  0
M  END
>  <MODEL>
8

>  <REMARK>
 VINA RESULT:      -5.8      1.564      4.452
  Name = 
  2 active torsions:
  status: ('A' for Active; 'I' for Inactive)
    1  A    between atoms: C_5  and  C_16
    2  A    between atoms: N_10  and  C_16
                            x       y       z     vdW  Elec       q    Type
                         _______ _______ _______ _____ _____    ______ ____

>  <TORSDO>
F 2

$$$$
=
 OpenBabel11122413123D

 31 35  0  0  1  0  0  0  0  0999 V2000
  162.4740  212.0350  148.5710 C   0  0  0  0  0  0  0  0  0  0  0  0
  162.4850  208.9170  150.7840 C   0  0  2  0  0  3  0  0  0  0  0  0
  161.5810  209.1910  151.9800 C   0  0  0  0  0  0  0  0  0  0  0  0
  160.2480  210.7640  153.4390 C   0  0  0  0  0  0  0  0  0  0  0  0
  162.2260  209.8640  149.6430 C   0  0  0  0  0  0  0  0  0  0  0  0
  161.3770  211.7410  147.5880 C   0  0  0  0  0  2  0  0  0  0  0  0
  161.2780  210.6270  152.3570 C   0  0  0  0  0  2  0  0  0  0  0  0
  161.0760  207.2520  149.6150 N   0  0  0  0  0  0  0  0  0  0  0  0
  163.0920  213.1290  148.5110 O   0  0  0  0  0  0  0  0  0  0  0  0
  161.5830  206.8540  152.5000 O   0  0  0  0  0  0  0  0  0  0  0  0
  159.7450  211.8910  153.6820 O   0  0  0  0  0  0  0  0  0  0  0  0
  161.0950  207.9650  148.3340 C   0  0  0  0  0  2  0  0  0  0  0  0
  162.3730  207.4570  150.2900 C   0  0  2  0  0  3  0  0  0  0  0  0
  162.7700  211.0840  149.6510 C   0  0  0  0  0  3  0  0  0  0  0  0
  159.8620  209.6070  154.2510 C   0  0  0  0  0  3  0  0  0  0  0  0
  161.3790  209.4250  148.5090 C   0  0  0  0  0  0  0  0  0  0  0  0
  161.0480  210.2740  147.5290 C   0  0  0  0  0  3  0  0  0  0  0  0
  162.5520  206.5430  151.5050 C   0  0  0  0  0  2  0  0  0  0  0  0
  161.1940  208.1690  152.7790 C   0  0  0  0  0  0  0  0  0  0  0  0
  160.3170  208.3950  153.9430 C   0  0  0  0  0  3  0  0  0  0  0  0
  160.9120  205.8410  149.2740 C   0  0  0  0  0  2  0  0  0  0  0  0
  162.5500  206.3840  147.6400 O   0  0  0  0  0  0  0  0  0  0  0  0
  161.8360  205.4820  148.1510 C   0  0  0  0  0  0  0  0  0  0  0  0
  160.9370  202.0890  145.9720 C   0  0  1  0  0  3  0  0  0  0  0  0
  162.3560  203.9720  146.3410 O   0  0  0  0  0  0  0  0  0  0  0  0
  161.3530  202.9250  149.5310 O   0  0  0  0  0  0  0  0  0  0  0  0
  159.7830  201.5730  145.1410 C   0  0  0  0  0  1  0  0  0  0  0  0
  161.2720  203.5280  145.5640 C   0  0  0  0  0  2  0  0  0  0  0  0
  161.3040  203.0220  148.2760 C   0  0  0  0  0  0  0  0  0  0  0  0
  161.8590  204.1580  147.5950 N   0  0  0  0  0  0  0  0  0  0  0  0
  160.5870  201.9850  147.4650 C   0  0  0  0  0  2  0  0  0  0  0  0
  1 14  1  0  0  0  0
  2  5  1  6  0  0  0
  2  3  1  0  0  0  0
  3  7  1  0  0  0  0
  3 19  2  0  0  0  0
  4 11  2  0  0  0  0
  4 15  1  0  0  0  0
  5 14  2  0  0  0  0
  6  1  1  0  0  0  0
  7  4  1  0  0  0  0
  8 13  1  0  0  0  0
  9  1  2  0  0  0  0
 10 19  1  0  0  0  0
 12 16  1  0  0  0  0
 12  8  1  0  0  0  0
 13  2  1  0  0  0  0
 13 18  1  1  0  0  0
 16  5  1  0  0  0  0
 17  6  1  0  0  0  0
 17 16  2  0  0  0  0
 18 10  1  0  0  0  0
 19 20  1  0  0  0  0
 20 15  2  0  0  0  0
 21  8  1  0  0  0  0
 22 23  2  0  0  0  0
 23 21  1  0  0  0  0
 24 27  1  6  0  0  0
 24 31  1  0  0  0  0
 25 30  1  0  0  0  0
 28 24  1  0  0  0  0
 28 25  1  0  0  0  0
 29 26  2  0  0  0  0
 30 23  1  0  0  0  0
 30 29  1  0  0  0  0
 31 29  1  0  0  0  0
M  END
>  <MODEL>
9

>  <REMARK>
 VINA RESULT:      -5.6      2.813      7.609
  Name = 
  2 active torsions:
  status: ('A' for Active; 'I' for Inactive)
    1  A    between atoms: C_5  and  C_16
    2  A    between atoms: N_10  and  C_16
                            x       y       z     vdW  Elec       q    Type
                         _______ _______ _______ _____ _____    ______ ____

>  <TORSDO>
F 2

$$$$
