=
 OpenBabel11122412593D

 32 37  0  0  1  0  0  0  0  0999 V2000
  160.9310  210.1340  152.8390 C   0  0  1  0  0  3  0  0  0  0  0  0
  160.7220  206.3110  150.6960 C   0  0  0  0  0  2  0  0  0  0  0  0
  161.5640  206.7170  149.5830 N   0  0  0  0  0  0  0  0  0  0  0  0
  160.5770  211.9470  151.0800 C   0  0  0  0  0  0  0  0  0  0  0  0
  160.8600  212.4620  149.8190 C   0  0  0  0  0  0  0  0  0  0  0  0
  161.5050  210.6950  155.2410 N   0  0  0  0  0  0  0  0  0  0  0  0
  161.3630  208.3350  154.3560 C   0  0  0  0  0  2  0  0  0  0  0  0
  161.7340  212.6340  147.6970 C   0  0  1  0  0  3  0  0  0  0  0  0
  160.5020  207.4420  151.6940 C   0  0  0  0  0  2  0  0  0  0  0  0
  161.8280  209.0090  153.1420 N   0  0  1  0  0  0  0  0  0  0  0  0
  161.8730  208.0260  152.0540 C   0  0  2  0  0  3  0  0  0  0  0  0
  161.9530  210.0010  150.4940 C   0  0  0  0  0  0  0  0  0  0  0  0
  160.8830  213.8190  147.9460 N   0  0  0  0  0  0  0  0  0  0  0  0
  161.0570  209.3150  155.5030 C   0  0  2  0  0  3  0  0  0  0  0  0
  160.3760  213.6550  149.2530 N   0  0  0  0  0  0  0  0  0  0  0  0
  162.4000  207.7020  149.6240 C   0  0  0  0  0  3  0  0  0  0  0  0
  162.5270  208.6370  150.8110 C   0  0  2  0  0  3  0  0  0  0  0  0
  162.2190  210.5840  149.2360 C   0  0  0  0  0  3  0  0  0  0  0  0
  161.1050  211.2140  153.9220 C   0  0  0  0  0  2  0  0  0  0  0  0
  159.7380  212.6160  151.9100 F   0  0  0  0  0  0  0  0  0  0  0  0
  163.1600  213.0800  147.4370 C   0  0  0  0  0  1  0  0  0  0  0  0
  161.1790  210.7190  151.4570 C   0  0  0  0  0  0  0  0  0  0  0  0
  161.6660  211.8260  148.9440 C   0  0  0  0  0  0  0  0  0  0  0  0
  159.3450  209.8160  157.2340 C   0  0  0  0  0  2  0  0  0  0  0  0
  159.5720  209.2910  155.8300 C   0  0  1  0  0  3  0  0  0  0  0  0
  159.0820  210.7110  156.0420 C   0  0  1  0  0  3  0  0  0  0  0  0
  157.5930  210.7620  155.7620 C   0  0  0  0  0  2  0  0  0  0  0  0
  157.2500  212.0370  155.0720 C   0  0  0  0  0  0  0  0  0  0  0  0
  155.9180  212.2720  154.6320 N   0  0  0  0  0  1  0  0  0  0  0  0
  158.1460  212.8910  154.8470 O   0  0  0  0  0  0  0  0  0  0  0  0
  163.3670  210.7900  156.8050 C   0  0  0  0  0  1  0  0  0  0  0  0
  162.9570  210.7630  155.3450 C   0  0  0  0  0  2  0  0  0  0  0  0
  1 10  1  0  0  0  0
  1 19  1  1  0  0  0
  2  9  1  0  0  0  0
  3 16  2  0  0  0  0
  3  2  1  0  0  0  0
  4 22  1  0  0  0  0
  4 20  1  0  0  0  0
  5  4  2  0  0  0  0
  6 32  1  0  0  0  0
  6 14  1  0  0  0  0
  8 21  1  1  0  0  0
  8 13  1  0  0  0  0
  8 23  1  0  0  0  0
 10  7  1  1  0  0  0
 11  9  1  6  0  0  0
 11 10  1  0  0  0  0
 12 17  1  0  0  0  0
 12 22  2  0  0  0  0
 13 15  2  0  0  0  0
 14  7  1  6  0  0  0
 14 25  1  0  0  0  0
 15  5  1  0  0  0  0
 17 16  1  6  0  0  0
 17 11  1  0  0  0  0
 18 12  1  0  0  0  0
 19  6  1  0  0  0  0
 22  1  1  0  0  0  0
 23 18  2  0  0  0  0
 23  5  1  0  0  0  0
 25 26  1  0  0  0  0
 25 24  1  1  0  0  0
 26 27  1  6  0  0  0
 26 24  1  0  0  0  0
 28 27  1  0  0  0  0
 29 28  1  0  0  0  0
 30 28  2  0  0  0  0
 32 31  1  0  0  0  0
M  END
>  <MODEL>
1

>  <REMARK>
 VINA RESULT:      -4.8      0.000      0.000
  Name = 
  4 active torsions:
  status: ('A' for Active; 'I' for Inactive)
    1  A    between atoms: N_7  and  C_19
    2  A    between atoms: C_10  and  C_17
    3  A    between atoms: C_20  and  C_29
    4  A    between atoms: C_29  and  C_30
                            x       y       z     vdW  Elec       q    Type
                         _______ _______ _______ _____ _____    ______ ____

>  <TORSDO>
F 4

$$$$
=
 OpenBabel11122412593D

 32 37  0  0  1  0  0  0  0  0999 V2000
  159.9650  212.6270  150.0370 C   0  0  1  0  0  3  0  0  0  0  0  0
  156.0400  214.1550  151.2630 C   0  0  0  0  0  2  0  0  0  0  0  0
  156.3810  214.3380  152.6630 N   0  0  0  0  0  0  0  0  0  0  0  0
  160.6390  210.9170  151.8050 C   0  0  0  0  0  0  0  0  0  0  0  0
  160.7470  210.5620  153.1460 C   0  0  0  0  0  0  0  0  0  0  0  0
  161.5340  213.3040  148.1660 N   0  0  0  0  0  0  0  0  0  0  0  0
  159.2570  214.3370  148.5200 C   0  0  0  0  0  2  0  0  0  0  0  0
  160.5620  210.6750  155.4370 C   0  0  1  0  0  3  0  0  0  0  0  0
  157.1930  213.5630  150.4610 C   0  0  0  0  0  2  0  0  0  0  0  0
  159.5970  214.0460  149.9140 N   0  0  1  0  0  0  0  0  0  0  0  0
  158.4470  214.3950  150.7550 C   0  0  2  0  0  3  0  0  0  0  0  0
  159.5290  212.9800  152.5360 C   0  0  0  0  0  0  0  0  0  0  0  0
  161.1940  209.3830  155.0850 N   0  0  0  0  0  0  0  0  0  0  0  0
  160.3000  213.7950  147.5260 C   0  0  2  0  0  3  0  0  0  0  0  0
  161.2770  209.3720  153.6770 N   0  0  0  0  0  0  0  0  0  0  0  0
  157.5890  214.4470  153.1100 C   0  0  0  0  0  3  0  0  0  0  0  0
  158.8170  214.2820  152.2370 C   0  0  2  0  0  3  0  0  0  0  0  0
  159.6840  212.5740  153.8790 C   0  0  0  0  0  3  0  0  0  0  0  0
  161.2980  212.3950  149.3000 C   0  0  0  0  0  2  0  0  0  0  0  0
  161.0650  210.0600  150.8440 F   0  0  0  0  0  0  0  0  0  0  0  0
  161.5150  211.4890  156.2930 C   0  0  0  0  0  1  0  0  0  0  0  0
  160.0720  212.1780  151.4860 C   0  0  0  0  0  0  0  0  0  0  0  0
  160.3160  211.3630  154.1420 C   0  0  0  0  0  0  0  0  0  0  0  0
  158.4330  213.2400  145.9810 C   0  0  0  0  0  2  0  0  0  0  0  0
  159.6820  212.7100  146.6570 C   0  0  1  0  0  3  0  0  0  0  0  0
  159.7280  213.1450  145.2050 C   0  0  1  0  0  3  0  0  0  0  0  0
  159.7050  211.9120  144.3240 C   0  0  0  0  0  2  0  0  0  0  0  0
  160.3790  212.2010  143.0270 C   0  0  0  0  0  0  0  0  0  0  0  0
  161.7650  212.5210  143.0010 N   0  0  0  0  0  1  0  0  0  0  0  0
  159.7160  212.1940  141.9580 O   0  0  0  0  0  0  0  0  0  0  0  0
  163.6670  214.4530  147.9380 C   0  0  0  0  0  1  0  0  0  0  0  0
  162.3210  214.4360  148.6370 C   0  0  0  0  0  2  0  0  0  0  0  0
  1 19  1  1  0  0  0
  1 22  1  0  0  0  0
  2  3  1  0  0  0  0
  3 16  2  0  0  0  0
  4  5  1  0  0  0  0
  5 15  1  0  0  0  0
  5 23  2  0  0  0  0
  6 32  1  0  0  0  0
  6 19  1  0  0  0  0
  8 21  1  1  0  0  0
  9  2  1  0  0  0  0
 10  7  1  6  0  0  0
 10  1  1  0  0  0  0
 10 11  1  0  0  0  0
 11  9  1  6  0  0  0
 11 17  1  0  0  0  0
 12 18  2  0  0  0  0
 13  8  1  0  0  0  0
 14  6  1  0  0  0  0
 14  7  1  1  0  0  0
 15 13  2  0  0  0  0
 17 12  1  0  0  0  0
 17 16  1  1  0  0  0
 18 23  1  0  0  0  0
 20  4  1  0  0  0  0
 22  4  2  0  0  0  0
 22 12  1  0  0  0  0
 23  8  1  0  0  0  0
 25 24  1  1  0  0  0
 25 14  1  0  0  0  0
 26 27  1  6  0  0  0
 26 24  1  0  0  0  0
 26 25  1  0  0  0  0
 28 27  1  0  0  0  0
 29 28  1  0  0  0  0
 30 28  2  0  0  0  0
 31 32  1  0  0  0  0
M  END
>  <MODEL>
2

>  <REMARK>
 VINA RESULT:      -4.8      3.481      8.314
  Name = 
  4 active torsions:
  status: ('A' for Active; 'I' for Inactive)
    1  A    between atoms: N_7  and  C_19
    2  A    between atoms: C_10  and  C_17
    3  A    between atoms: C_20  and  C_29
    4  A    between atoms: C_29  and  C_30
                            x       y       z     vdW  Elec       q    Type
                         _______ _______ _______ _____ _____    ______ ____

>  <TORSDO>
F 4

$$$$
=
 OpenBabel11122412593D

 32 37  0  0  1  0  0  0  0  0999 V2000
  159.6390  212.5560  150.9290 C   0  0  1  0  0  3  0  0  0  0  0  0
  156.1010  214.2000  152.9360 C   0  0  0  0  0  2  0  0  0  0  0  0
  156.6900  214.2490  154.2630 N   0  0  0  0  0  0  0  0  0  0  0  0
  160.4850  210.6730  152.4260 C   0  0  0  0  0  0  0  0  0  0  0  0
  160.7990  210.2050  153.6990 C   0  0  0  0  0  0  0  0  0  0  0  0
  160.9040  213.2920  148.8620 N   0  0  0  0  0  0  0  0  0  0  0  0
  158.8000  214.4200  149.6850 C   0  0  0  0  0  2  0  0  0  0  0  0
  161.0200  210.1420  155.9890 C   0  0  1  0  0  3  0  0  0  0  0  0
  157.0540  213.6100  151.9030 C   0  0  0  0  0  2  0  0  0  0  0  0
  159.3550  213.9980  150.9730 N   0  0  1  0  0  0  0  0  0  0  0  0
  158.3950  214.3430  152.0270 C   0  0  2  0  0  3  0  0  0  0  0  0
  159.6660  212.7290  153.4840 C   0  0  0  0  0  0  0  0  0  0  0  0
  161.4900  208.8490  155.4410 N   0  0  0  0  0  0  0  0  0  0  0  0
  159.6150  213.9020  148.4860 C   0  0  2  0  0  3  0  0  0  0  0  0
  161.3270  208.9470  154.0420 N   0  0  0  0  0  0  0  0  0  0  0  0
  157.9620  214.2530  154.4950 C   0  0  0  0  0  3  0  0  0  0  0  0
  159.0070  214.0900  153.4080 C   0  0  2  0  0  3  0  0  0  0  0  0
  160.0220  212.2080  154.7470 C   0  0  0  0  0  3  0  0  0  0  0  0
  160.8040  212.3080  149.9530 C   0  0  0  0  0  2  0  0  0  0  0  0
  160.6780  209.8740  151.3470 F   0  0  0  0  0  0  0  0  0  0  0  0
  162.1610  210.8280  156.7160 C   0  0  0  0  0  1  0  0  0  0  0  0
  159.9620  211.9850  152.3020 C   0  0  0  0  0  0  0  0  0  0  0  0
  160.6040  210.9460  154.8090 C   0  0  0  0  0  0  0  0  0  0  0  0
  157.3630  213.4440  147.5390 C   0  0  0  0  0  2  0  0  0  0  0  0
  158.7830  212.9280  147.6680 C   0  0  1  0  0  3  0  0  0  0  0  0
  158.3320  213.6070  146.3880 C   0  0  1  0  0  3  0  0  0  0  0  0
  158.0610  212.5450  145.3400 C   0  0  0  0  0  2  0  0  0  0  0  0
  158.9190  212.7790  144.1460 C   0  0  0  0  0  0  0  0  0  0  0  0
  160.1620  212.0990  144.0180 N   0  0  0  0  0  1  0  0  0  0  0  0
  158.5610  213.6030  143.2650 O   0  0  0  0  0  0  0  0  0  0  0  0
  162.9550  214.4460  148.2430 C   0  0  0  0  0  1  0  0  0  0  0  0
  161.8380  214.3350  149.2630 C   0  0  0  0  0  2  0  0  0  0  0  0
  1 19  1  6  0  0  0
  1 10  1  0  0  0  0
  1 22  1  0  0  0  0
  2  3  1  0  0  0  0
  3 16  2  0  0  0  0
  4  5  1  0  0  0  0
  5 15  1  0  0  0  0
  5 23  2  0  0  0  0
  6 32  1  0  0  0  0
  6 19  1  0  0  0  0
  8 21  1  6  0  0  0
  9  2  1  0  0  0  0
 10  7  1  6  0  0  0
 10 11  1  0  0  0  0
 11  9  1  6  0  0  0
 11 17  1  0  0  0  0
 12 18  2  0  0  0  0
 13  8  1  0  0  0  0
 14  6  1  0  0  0  0
 14  7  1  1  0  0  0
 15 13  2  0  0  0  0
 17 12  1  0  0  0  0
 17 16  1  1  0  0  0
 18 23  1  0  0  0  0
 20  4  1  0  0  0  0
 22  4  2  0  0  0  0
 22 12  1  0  0  0  0
 23  8  1  0  0  0  0
 25 24  1  1  0  0  0
 25 14  1  0  0  0  0
 26 27  1  6  0  0  0
 26 24  1  0  0  0  0
 26 25  1  0  0  0  0
 28 27  1  0  0  0  0
 29 28  1  0  0  0  0
 30 28  2  0  0  0  0
 31 32  1  0  0  0  0
M  END
>  <MODEL>
3

>  <REMARK>
 VINA RESULT:      -4.8      3.279      7.977
  Name = 
  4 active torsions:
  status: ('A' for Active; 'I' for Inactive)
    1  A    between atoms: N_7  and  C_19
    2  A    between atoms: C_10  and  C_17
    3  A    between atoms: C_20  and  C_29
    4  A    between atoms: C_29  and  C_30
                            x       y       z     vdW  Elec       q    Type
                         _______ _______ _______ _____ _____    ______ ____

>  <TORSDO>
F 4

$$$$
=
 OpenBabel11122412593D

 32 37  0  0  1  0  0  0  0  0999 V2000
  159.3630  210.7420  153.8740 C   0  0  1  0  0  3  0  0  0  0  0  0
  158.4720  213.0190  150.2320 C   0  0  0  0  0  2  0  0  0  0  0  0
  157.8450  214.1420  150.9070 N   0  0  0  0  0  0  0  0  0  0  0  0
  157.2500  210.8380  155.2990 C   0  0  0  0  0  0  0  0  0  0  0  0
  156.1990  211.5780  155.8340 C   0  0  0  0  0  0  0  0  0  0  0  0
  161.5000  209.6780  154.7220 N   0  0  0  0  0  0  0  0  0  0  0  0
  161.3090  210.8340  152.4850 C   0  0  0  0  0  2  0  0  0  0  0  0
  154.8070  213.3570  156.2690 C   0  0  1  0  0  3  0  0  0  0  0  0
  158.9030  211.9290  151.2060 C   0  0  0  0  0  2  0  0  0  0  0  0
  160.3450  211.6350  153.2420 N   0  0  1  0  0  0  0  0  0  0  0  0
  159.7160  212.5910  152.3250 C   0  0  2  0  0  3  0  0  0  0  0  0
  157.9360  212.8580  154.0870 C   0  0  0  0  0  0  0  0  0  0  0  0
  154.2930  212.1760  156.9980 N   0  0  0  0  0  0  0  0  0  0  0  0
  161.8610  209.6450  153.2930 C   0  0  2  0  0  3  0  0  0  0  0  0
  155.1810  211.1240  156.6900 N   0  0  0  0  0  0  0  0  0  0  0  0
  158.0280  214.4370  152.1520 C   0  0  0  0  0  3  0  0  0  0  0  0
  158.8350  213.5740  153.1020 C   0  0  2  0  0  3  0  0  0  0  0  0
  156.8620  213.5610  154.6750 C   0  0  0  0  0  3  0  0  0  0  0  0
  160.0700  209.9240  154.9720 C   0  0  0  0  0  2  0  0  0  0  0  0
  157.3600  209.5170  155.5890 F   0  0  0  0  0  0  0  0  0  0  0  0
  155.1650  214.4480  157.2610 C   0  0  0  0  0  1  0  0  0  0  0  0
  158.1770  211.4980  154.4530 C   0  0  0  0  0  0  0  0  0  0  0  0
  156.0260  212.8870  155.5590 C   0  0  0  0  0  0  0  0  0  0  0  0
  160.8080  208.5960  151.3010 C   0  0  0  0  0  2  0  0  0  0  0  0
  161.4220  208.3330  152.6620 C   0  0  1  0  0  3  0  0  0  0  0  0
  162.2300  208.0880  151.4030 C   0  0  1  0  0  3  0  0  0  0  0  0
  162.2600  206.5980  151.1220 C   0  0  0  0  0  2  0  0  0  0  0  0
  161.5980  206.3130  149.8200 C   0  0  0  0  0  0  0  0  0  0  0  0
  162.0320  206.9760  148.6390 N   0  0  0  0  0  1  0  0  0  0  0  0
  160.6310  205.5090  149.7690 O   0  0  0  0  0  0  0  0  0  0  0  0
  161.5630  211.1390  156.6670 C   0  0  0  0  0  1  0  0  0  0  0  0
  162.2720  210.7130  155.3960 C   0  0  0  0  0  2  0  0  0  0  0  0
  1 22  1  0  0  0  0
  1 19  1  1  0  0  0
  2  3  1  0  0  0  0
  2  9  1  0  0  0  0
  3 16  2  0  0  0  0
  4 20  1  0  0  0  0
  4  5  1  0  0  0  0
  5 15  1  0  0  0  0
  6 19  1  0  0  0  0
  6 32  1  0  0  0  0
  8 13  1  0  0  0  0
  8 21  1  1  0  0  0
 10  7  1  6  0  0  0
 10  1  1  0  0  0  0
 11  9  1  6  0  0  0
 11 17  1  0  0  0  0
 11 10  1  0  0  0  0
 12 22  1  0  0  0  0
 12 18  2  0  0  0  0
 14  7  1  6  0  0  0
 14  6  1  0  0  0  0
 15 13  2  0  0  0  0
 17 16  1  6  0  0  0
 17 12  1  0  0  0  0
 18 23  1  0  0  0  0
 22  4  2  0  0  0  0
 23  5  2  0  0  0  0
 23  8  1  0  0  0  0
 24 26  1  0  0  0  0
 25 24  1  6  0  0  0
 25 14  1  0  0  0  0
 26 27  1  6  0  0  0
 26 25  1  0  0  0  0
 28 27  1  0  0  0  0
 29 28  1  0  0  0  0
 30 28  2  0  0  0  0
 32 31  1  0  0  0  0
M  END
>  <MODEL>
4

>  <REMARK>
 VINA RESULT:      -4.5      2.894      6.979
  Name = 
  4 active torsions:
  status: ('A' for Active; 'I' for Inactive)
    1  A    between atoms: N_7  and  C_19
    2  A    between atoms: C_10  and  C_17
    3  A    between atoms: C_20  and  C_29
    4  A    between atoms: C_29  and  C_30
                            x       y       z     vdW  Elec       q    Type
                         _______ _______ _______ _____ _____    ______ ____

>  <TORSDO>
F 4

$$$$
=
 OpenBabel11122412593D

 32 37  0  0  1  0  0  0  0  0999 V2000
  160.7950  212.4050  148.2870 C   0  0  1  0  0  3  0  0  0  0  0  0
  156.6450  213.5700  149.1000 C   0  0  0  0  0  2  0  0  0  0  0  0
  156.8070  213.7080  150.5370 N   0  0  0  0  0  0  0  0  0  0  0  0
  161.3960  210.6640  150.0520 C   0  0  0  0  0  0  0  0  0  0  0  0
  161.3780  210.2520  151.3810 C   0  0  0  0  0  0  0  0  0  0  0  0
  162.5090  213.2900  146.6440 N   0  0  0  0  0  0  0  0  0  0  0  0
  160.1310  214.1300  146.7680 C   0  0  0  0  0  2  0  0  0  0  0  0
  160.9220  210.2360  153.6360 C   0  0  1  0  0  3  0  0  0  0  0  0
  157.9260  213.1070  148.4180 C   0  0  0  0  0  2  0  0  0  0  0  0
  160.3310  213.7950  148.1790 N   0  0  1  0  0  0  0  0  0  0  0  0
  159.0670  214.0160  148.8910 C   0  0  2  0  0  3  0  0  0  0  0  0
  160.0470  212.5990  150.7290 C   0  0  0  0  0  0  0  0  0  0  0  0
  161.6930  209.0150  153.3090 N   0  0  0  0  0  0  0  0  0  0  0  0
  161.3210  213.7180  145.8830 C   0  0  2  0  0  3  0  0  0  0  0  0
  161.9370  209.0800  151.9210 N   0  0  0  0  0  0  0  0  0  0  0  0
  157.9420  213.8850  151.1280 C   0  0  0  0  0  3  0  0  0  0  0  0
  159.2730  213.8570  150.4010 C   0  0  2  0  0  3  0  0  0  0  0  0
  160.0800  212.1390  152.0630 C   0  0  0  0  0  3  0  0  0  0  0  0
  162.2180  212.3100  147.7040 C   0  0  0  0  0  2  0  0  0  0  0  0
  161.9980  209.8900  149.1130 F   0  0  0  0  0  0  0  0  0  0  0  0
  161.7020  211.0750  154.6310 C   0  0  0  0  0  1  0  0  0  0  0  0
  160.7700  211.8930  149.7190 C   0  0  0  0  0  0  0  0  0  0  0  0
  160.7730  210.9670  152.3500 C   0  0  0  0  0  0  0  0  0  0  0  0
  159.6170  213.0450  144.2020 C   0  0  0  0  0  2  0  0  0  0  0  0
  160.8970  212.6340  144.9040 C   0  0  1  0  0  3  0  0  0  0  0  0
  160.9460  213.1880  143.4920 C   0  0  1  0  0  3  0  0  0  0  0  0
  161.1310  212.0380  142.5220 C   0  0  0  0  0  2  0  0  0  0  0  0
  161.8040  212.5210  141.2840 C   0  0  0  0  0  0  0  0  0  0  0  0
  162.2340  211.5900  140.2980 N   0  0  0  0  0  1  0  0  0  0  0  0
  162.0220  213.7500  141.1260 O   0  0  0  0  0  0  0  0  0  0  0  0
  164.0470  214.0120  148.3860 C   0  0  0  0  0  1  0  0  0  0  0  0
  163.1440  214.4530  147.2510 C   0  0  0  0  0  2  0  0  0  0  0  0
  1 19  1  1  0  0  0
  1 22  1  0  0  0  0
  2  3  1  0  0  0  0
  3 16  2  0  0  0  0
  4  5  1  0  0  0  0
  5 15  1  0  0  0  0
  5 23  2  0  0  0  0
  6 32  1  0  0  0  0
  6 19  1  0  0  0  0
  8 21  1  1  0  0  0
  9  2  1  0  0  0  0
 10  7  1  6  0  0  0
 10  1  1  0  0  0  0
 10 11  1  0  0  0  0
 11  9  1  6  0  0  0
 11 17  1  0  0  0  0
 12 18  2  0  0  0  0
 13  8  1  0  0  0  0
 14  6  1  0  0  0  0
 14  7  1  1  0  0  0
 15 13  2  0  0  0  0
 17 12  1  0  0  0  0
 17 16  1  1  0  0  0
 18 23  1  0  0  0  0
 20  4  1  0  0  0  0
 22  4  2  0  0  0  0
 22 12  1  0  0  0  0
 23  8  1  0  0  0  0
 25 24  1  1  0  0  0
 25 14  1  0  0  0  0
 26 27  1  6  0  0  0
 26 24  1  0  0  0  0
 26 25  1  0  0  0  0
 28 27  1  0  0  0  0
 29 28  1  0  0  0  0
 30 28  2  0  0  0  0
 32 31  1  0  0  0  0
M  END
>  <MODEL>
5

>  <REMARK>
 VINA RESULT:      -4.1      3.941      8.834
  Name = 
  4 active torsions:
  status: ('A' for Active; 'I' for Inactive)
    1  A    between atoms: N_7  and  C_19
    2  A    between atoms: C_10  and  C_17
    3  A    between atoms: C_20  and  C_29
    4  A    between atoms: C_29  and  C_30
                            x       y       z     vdW  Elec       q    Type
                         _______ _______ _______ _____ _____    ______ ____

>  <TORSDO>
F 4

$$$$
=
 OpenBabel11122412593D

 32 37  0  0  1  0  0  0  0  0999 V2000
  159.8710  211.2850  152.9970 C   0  0  1  0  0  3  0  0  0  0  0  0
  160.7990  207.1270  151.9510 C   0  0  0  0  0  2  0  0  0  0  0  0
  161.9170  207.4390  151.0760 N   0  0  0  0  0  0  0  0  0  0  0  0
  159.9350  212.5930  150.8080 C   0  0  0  0  0  0  0  0  0  0  0  0
  160.5680  212.8750  149.6010 C   0  0  0  0  0  0  0  0  0  0  0  0
  159.5440  212.4330  155.2310 N   0  0  0  0  0  0  0  0  0  0  0  0
  159.9590  209.9550  154.9840 C   0  0  0  0  0  2  0  0  0  0  0  0
  162.0780  212.7570  147.8690 C   0  0  1  0  0  3  0  0  0  0  0  0
  160.1390  208.3810  152.5110 C   0  0  0  0  0  2  0  0  0  0  0  0
  160.7280  210.4330  153.8340 N   0  0  1  0  0  0  0  0  0  0  0  0
  161.2400  209.2700  153.1010 C   0  0  2  0  0  3  0  0  0  0  0  0
  161.6270  210.8550  151.1830 C   0  0  0  0  0  0  0  0  0  0  0  0
  161.0720  213.7900  147.5380 N   0  0  0  0  0  0  0  0  0  0  0  0
  159.1830  211.0800  155.6930 C   0  0  2  0  0  3  0  0  0  0  0  0
  160.1770  213.8130  148.6290 N   0  0  0  0  0  0  0  0  0  0  0  0
  162.5810  208.5470  151.1100 C   0  0  0  0  0  3  0  0  0  0  0  0
  162.2030  209.7170  151.9970 C   0  0  2  0  0  3  0  0  0  0  0  0
  162.2350  211.2000  149.9560 C   0  0  0  0  0  3  0  0  0  0  0  0
  159.5560  212.5820  153.7660 C   0  0  0  0  0  2  0  0  0  0  0  0
  158.8010  213.2550  151.1460 F   0  0  0  0  0  0  0  0  0  0  0  0
  163.4530  213.3930  147.9420 C   0  0  0  0  0  1  0  0  0  0  0  0
  160.5040  211.6030  151.6510 C   0  0  0  0  0  0  0  0  0  0  0  0
  161.6830  212.2300  149.2020 C   0  0  0  0  0  0  0  0  0  0  0  0
  156.9870  211.2230  156.8490 C   0  0  0  0  0  2  0  0  0  0  0  0
  157.6860  210.8520  155.5560 C   0  0  1  0  0  3  0  0  0  0  0  0
  156.9640  212.1800  155.6770 C   0  0  1  0  0  3  0  0  0  0  0  0
  155.6300  212.0800  154.9640 C   0  0  0  0  0  2  0  0  0  0  0  0
  155.4480  213.2500  154.0610 C   0  0  0  0  0  0  0  0  0  0  0  0
  156.3740  214.3290  154.0970 N   0  0  0  0  0  1  0  0  0  0  0  0
  154.4560  213.3000  153.2890 O   0  0  0  0  0  0  0  0  0  0  0  0
  160.8590  212.7210  157.2580 C   0  0  0  0  0  1  0  0  0  0  0  0
  160.8610  212.7880  155.7430 C   0  0  0  0  0  2  0  0  0  0  0  0
  1 19  1  1  0  0  0
  1 10  1  0  0  0  0
  2  9  1  0  0  0  0
  3 16  2  0  0  0  0
  3  2  1  0  0  0  0
  4 20  1  0  0  0  0
  4 22  1  0  0  0  0
  5  4  2  0  0  0  0
  6 14  1  0  0  0  0
  6 32  1  0  0  0  0
  8 21  1  1  0  0  0
  8 23  1  0  0  0  0
 10  7  1  1  0  0  0
 11  9  1  6  0  0  0
 11 10  1  0  0  0  0
 12 22  2  0  0  0  0
 12 17  1  0  0  0  0
 13  8  1  0  0  0  0
 13 15  2  0  0  0  0
 14  7  1  6  0  0  0
 15  5  1  0  0  0  0
 17 16  1  6  0  0  0
 17 11  1  0  0  0  0
 18 12  1  0  0  0  0
 19  6  1  0  0  0  0
 22  1  1  0  0  0  0
 23  5  1  0  0  0  0
 23 18  2  0  0  0  0
 25 26  1  0  0  0  0
 25 14  1  0  0  0  0
 25 24  1  1  0  0  0
 26 27  1  6  0  0  0
 26 24  1  0  0  0  0
 28 29  1  0  0  0  0
 28 27  1  0  0  0  0
 30 28  2  0  0  0  0
 32 31  1  0  0  0  0
M  END
>  <MODEL>
6

>  <REMARK>
 VINA RESULT:      -3.0      1.564      1.975
  Name = 
  4 active torsions:
  status: ('A' for Active; 'I' for Inactive)
    1  A    between atoms: N_7  and  C_19
    2  A    between atoms: C_10  and  C_17
    3  A    between atoms: C_20  and  C_29
    4  A    between atoms: C_29  and  C_30
                            x       y       z     vdW  Elec       q    Type
                         _______ _______ _______ _____ _____    ______ ____

>  <TORSDO>
F 4

$$$$
=
 OpenBabel11122412593D

 32 37  0  0  1  0  0  0  0  0999 V2000
  161.0790  209.7990  149.9280 C   0  0  1  0  0  3  0  0  0  0  0  0
  159.4000  210.6960  153.8800 C   0  0  0  0  0  2  0  0  0  0  0  0
  160.0800  209.6200  154.5800 N   0  0  0  0  0  0  0  0  0  0  0  0
  160.8940  207.2710  149.6410 C   0  0  0  0  0  0  0  0  0  0  0  0
  161.0490  205.9930  150.1680 C   0  0  0  0  0  0  0  0  0  0  0  0
  162.2560  211.2550  148.2210 N   0  0  0  0  0  0  0  0  0  0  0  0
  161.2950  212.1380  150.3820 C   0  0  0  0  0  2  0  0  0  0  0  0
  161.4920  204.3120  151.6760 C   0  0  1  0  0  3  0  0  0  0  0  0
  159.7050  210.6960  152.3870 C   0  0  0  0  0  2  0  0  0  0  0  0
  161.6730  210.7970  150.8290 N   0  0  1  0  0  0  0  0  0  0  0  0
  161.2270  210.6270  152.2160 C   0  0  2  0  0  3  0  0  0  0  0  0
  161.5340  208.1560  151.8390 C   0  0  0  0  0  0  0  0  0  0  0  0
  161.0680  203.6920  150.4010 N   0  0  0  0  0  0  0  0  0  0  0  0
  161.5060  212.3450  148.8710 C   0  0  2  0  0  3  0  0  0  0  0  0
  160.8090  204.7660  149.5230 N   0  0  0  0  0  0  0  0  0  0  0  0
  161.1460  209.0300  154.1480 C   0  0  0  0  0  3  0  0  0  0  0  0
  161.7600  209.3110  152.7900 C   0  0  2  0  0  3  0  0  0  0  0  0
  161.6920  206.8350  152.3110 C   0  0  0  0  0  3  0  0  0  0  0  0
  161.7590  209.9080  148.5490 C   0  0  0  0  0  2  0  0  0  0  0  0
  160.4560  207.4270  148.3670 F   0  0  0  0  0  0  0  0  0  0  0  0
  162.9030  203.8690  152.0110 C   0  0  0  0  0  1  0  0  0  0  0  0
  161.1970  208.3820  150.4690 C   0  0  0  0  0  0  0  0  0  0  0  0
  161.4560  205.7790  151.4360 C   0  0  0  0  0  0  0  0  0  0  0  0
  159.6640  213.9620  148.4570 C   0  0  0  0  0  2  0  0  0  0  0  0
  160.1690  212.5600  148.1790 C   0  0  1  0  0  3  0  0  0  0  0  0
  160.3180  213.6450  147.1290 C   0  0  1  0  0  3  0  0  0  0  0  0
  159.2510  213.4500  146.0700 C   0  0  0  0  0  2  0  0  0  0  0  0
  159.8720  212.9590  144.8080 C   0  0  0  0  0  0  0  0  0  0  0  0
  161.2880  212.9530  144.6670 N   0  0  0  0  0  1  0  0  0  0  0  0
  159.1440  212.5800  143.8550 O   0  0  0  0  0  0  0  0  0  0  0  0
  164.2070  212.7090  148.2620 C   0  0  0  0  0  1  0  0  0  0  0  0
  163.6600  211.3350  148.6010 C   0  0  0  0  0  2  0  0  0  0  0  0
  1 19  1  6  0  0  0
  1 22  1  0  0  0  0
  1 10  1  0  0  0  0
  2  3  1  0  0  0  0
  4  5  2  0  0  0  0
  4 22  1  0  0  0  0
  5 23  1  0  0  0  0
  6 19  1  0  0  0  0
  6 32  1  0  0  0  0
  6 14  1  0  0  0  0
  8 21  1  6  0  0  0
  9  2  1  0  0  0  0
 10  7  1  6  0  0  0
 10 11  1  0  0  0  0
 11  9  1  6  0  0  0
 11 17  1  0  0  0  0
 12 18  1  0  0  0  0
 12 17  1  0  0  0  0
 13  8  1  0  0  0  0
 14  7  1  1  0  0  0
 15  5  1  0  0  0  0
 15 13  2  0  0  0  0
 16  3  2  0  0  0  0
 17 16  1  1  0  0  0
 20  4  1  0  0  0  0
 22 12  2  0  0  0  0
 23  8  1  0  0  0  0
 23 18  2  0  0  0  0
 25 24  1  1  0  0  0
 25 14  1  0  0  0  0
 26 27  1  6  0  0  0
 26 25  1  0  0  0  0
 26 24  1  0  0  0  0
 28 27  1  0  0  0  0
 29 28  1  0  0  0  0
 30 28  2  0  0  0  0
 31 32  1  0  0  0  0
M  END
>  <MODEL>
7

>  <REMARK>
 VINA RESULT:      -2.6      3.060      7.298
  Name = 
  4 active torsions:
  status: ('A' for Active; 'I' for Inactive)
    1  A    between atoms: N_7  and  C_19
    2  A    between atoms: C_10  and  C_17
    3  A    between atoms: C_20  and  C_29
    4  A    between atoms: C_29  and  C_30
                            x       y       z     vdW  Elec       q    Type
                         _______ _______ _______ _____ _____    ______ ____

>  <TORSDO>
F 4

$$$$
