=
 OpenBabel11122414403D

 34 40  0  0  1  0  0  0  0  0999 V2000
  161.1220  208.1350  154.0920 C   0  0  1  0  0  3  0  0  0  0  0  0
  162.1450  206.2410  152.9650 C   0  0  0  0  0  2  0  0  0  0  0  0
  157.4580  213.2800  153.4430 C   0  0  0  0  0  0  0  0  0  0  0  0
  160.0270  210.1940  155.0960 C   0  0  2  0  0  3  0  0  0  0  0  0
  159.7700  212.2430  153.6200 C   0  0  2  0  0  3  0  0  0  0  0  0
  159.3010  214.1200  151.9160 C   0  0  0  0  0  1  0  0  0  0  0  0
  156.6850  213.1550  152.4560 O   0  0  0  0  0  0  0  0  0  0  0  0
  157.8050  213.3170  155.9400 C   0  0  0  0  0  2  0  0  0  0  0  0
  162.0890  208.2710  151.9720 C   0  0  2  0  0  3  0  0  0  0  0  0
  161.5970  208.5690  148.8400 C   0  0  0  0  0  2  0  0  0  0  0  0
  159.9740  211.3070  152.4280 C   0  0  0  0  0  2  0  0  0  0  0  0
  158.9300  212.2710  156.0490 C   0  0  0  0  0  2  0  0  0  0  0  0
  161.2710  209.5040  151.5680 C   0  0  1  0  0  3  0  0  0  0  0  0
  162.7860  206.0300  151.5960 C   0  0  0  0  0  2  0  0  0  0  0  0
  159.1680  211.4270  154.7880 C   0  0  2  0  0  3  0  0  0  0  0  0
  156.9470  213.1330  154.7700 N   0  0  0  0  0  2  0  0  0  0  0  0
  161.7440  207.2580  149.6370 C   0  0  1  0  0  3  0  0  0  0  0  0
  160.2870  209.4040  153.7990 C   0  0  1  0  0  3  0  0  0  0  0  0
  158.9340  213.4860  153.2520 C   0  0  1  0  0  3  0  0  0  0  0  0
  160.9390  210.2670  152.7880 N   0  0  2  0  0  0  0  0  0  0  0  0
  160.1450  208.0470  156.3950 C   0  0  0  0  0  2  0  0  0  0  0  0
  162.5330  209.6860  149.3050 C   0  0  0  0  0  2  0  0  0  0  0  0
  159.3130  209.2910  156.1060 C   0  0  0  0  0  2  0  0  0  0  0  0
  162.0410  210.3950  150.5750 C   0  0  0  0  0  2  0  0  0  0  0  0
  162.6500  207.3680  150.8850 C   0  0  1  0  0  3  0  0  0  0  0  0
  160.3740  207.2660  155.1070 C   0  0  0  0  0  2  0  0  0  0  0  0
  161.2970  207.4180  152.8330 N   0  0  2  0  0  0  0  0  0  0  0  0
  160.4750  206.7740  149.9720 O   0  0  0  0  0  0  0  0  0  0  0  0
  160.1720  205.8300  148.9870 C   0  0  0  0  0  2  0  0  0  0  0  0
  160.8720  202.5490  148.5060 O   0  0  0  0  0  0  0  0  0  0  0  0
  161.5010  204.4160  147.4740 C   0  0  0  0  0  3  0  0  0  0  0  0
  161.2880  204.8020  148.8980 C   0  0  2  0  0  3  0  0  0  0  0  0
  161.2520  203.1310  147.3120 C   0  0  0  0  0  3  0  0  0  0  0  0
  160.8550  203.4950  149.5590 C   0  0  0  0  0  2  0  0  0  0  0  0
  1 26  1  1  0  0  0
  3 16  1  0  0  0  0
  4 23  1  1  0  0  0
  5 11  1  6  0  0  0
  5 15  1  0  0  0  0
  6 19  1  0  0  0  0
  7  3  2  0  0  0  0
  8 12  1  0  0  0  0
  9 27  1  0  0  0  0
 10 22  1  0  0  0  0
 10 17  1  0  0  0  0
 11 20  1  0  0  0  0
 13  9  1  0  0  0  0
 13 20  1  0  0  0  0
 14  2  1  0  0  0  0
 15  4  1  0  0  0  0
 15 12  1  0  0  0  0
 16  8  1  0  0  0  0
 17 28  1  0  0  0  0
 17 25  1  0  0  0  0
 18  1  1  0  0  0  0
 18  4  1  0  0  0  0
 19  3  1  0  0  0  0
 19  5  1  0  0  0  0
 20 18  1  0  0  0  0
 22 24  1  0  0  0  0
 23 21  1  0  0  0  0
 24 13  1  0  0  0  0
 25 14  1  0  0  0  0
 25  9  1  0  0  0  0
 26 21  1  0  0  0  0
 27  2  1  0  0  0  0
 27  1  1  0  0  0  0
 29 28  1  0  0  0  0
 30 34  1  0  0  0  0
 31 32  1  0  0  0  0
 32 29  1  0  0  0  0
 32 34  1  0  0  0  0
 33 31  2  0  0  0  0
 33 30  1  0  0  0  0
M  END
>  <MODEL>
1

>  <REMARK>
 VINA RESULT:      -8.0      0.000      0.000
  Name = 
  3 active torsions:
  status: ('A' for Active; 'I' for Inactive)
    1  A    between atoms: C_17  and  O_28
    2  A    between atoms: O_28  and  C_29
    3  A    between atoms: C_29  and  C_32
                            x       y       z     vdW  Elec       q    Type
                         _______ _______ _______ _____ _____    ______ ____

>  <TORSDO>
F 3

$$$$
=
 OpenBabel11122414403D

 34 40  0  0  1  0  0  0  0  0999 V2000
  161.7910  213.6200  142.4020 C   0  0  1  0  0  3  0  0  0  0  0  0
  162.1470  213.1860  140.0380 C   0  0  0  0  0  2  0  0  0  0  0  0
  157.8250  212.9810  147.3200 C   0  0  0  0  0  0  0  0  0  0  0  0
  161.2310  214.0400  144.8420 C   0  0  2  0  0  3  0  0  0  0  0  0
  158.7960  214.4090  145.4570 C   0  0  2  0  0  3  0  0  0  0  0  0
  156.2680  214.4530  145.9620 C   0  0  0  0  0  1  0  0  0  0  0  0
  157.0580  211.9970  147.1490 O   0  0  0  0  0  0  0  0  0  0  0  0
  159.7990  214.0190  148.4970 C   0  0  0  0  0  2  0  0  0  0  0  0
  160.1220  213.8520  140.7870 C   0  0  2  0  0  3  0  0  0  0  0  0
  157.4310  212.6740  139.5570 C   0  0  0  0  0  2  0  0  0  0  0  0
  158.4470  213.7610  144.1170 C   0  0  0  0  0  2  0  0  0  0  0  0
  160.6200  214.4530  147.2670 C   0  0  0  0  0  2  0  0  0  0  0  0
  158.9810  213.6750  141.7980 C   0  0  1  0  0  3  0  0  0  0  0  0
  161.2530  213.2010  138.8010 C   0  0  0  0  0  2  0  0  0  0  0  0
  160.1620  213.8580  145.9280 C   0  0  2  0  0  3  0  0  0  0  0  0
  158.9170  212.8810  148.2380 N   0  0  0  0  0  2  0  0  0  0  0  0
  158.8720  212.3800  139.0940 C   0  0  1  0  0  3  0  0  0  0  0  0
  160.7140  213.4790  143.5040 C   0  0  1  0  0  3  0  0  0  0  0  0
  157.6760  214.2330  146.5030 C   0  0  1  0  0  3  0  0  0  0  0  0
  159.4470  214.1410  143.1190 N   0  0  2  0  0  0  0  0  0  0  0  0
  163.5740  213.4560  144.1510 C   0  0  0  0  0  2  0  0  0  0  0  0
  157.1960  214.1300  139.9660 C   0  0  0  0  0  2  0  0  0  0  0  0
  162.5160  213.3080  145.2380 C   0  0  0  0  0  2  0  0  0  0  0  0
  157.7210  214.4530  141.3720 C   0  0  0  0  0  2  0  0  0  0  0  0
  159.8650  213.5430  139.3210 C   0  0  1  0  0  3  0  0  0  0  0  0
  163.0560  212.8770  142.8410 C   0  0  0  0  0  2  0  0  0  0  0  0
  161.2530  213.0370  141.1770 N   0  0  2  0  0  0  0  0  0  0  0  0
  159.3220  211.2020  139.6990 O   0  0  0  0  0  0  0  0  0  0  0  0
  159.3820  210.2620  138.6670 C   0  0  0  0  0  2  0  0  0  0  0  0
  161.8580  208.2050  139.7300 O   0  0  0  0  0  0  0  0  0  0  0  0
  160.8550  208.5090  137.7670 C   0  0  0  0  0  3  0  0  0  0  0  0
  160.8240  209.8390  138.4390 C   0  0  2  0  0  3  0  0  0  0  0  0
  161.4530  207.6240  138.5430 C   0  0  0  0  0  3  0  0  0  0  0  0
  161.5150  209.5780  139.7760 C   0  0  0  0  0  2  0  0  0  0  0  0
  1 26  1  1  0  0  0
  1 18  1  0  0  0  0
  2 27  1  0  0  0  0
  3 16  1  0  0  0  0
  4 23  1  1  0  0  0
  4 15  1  0  0  0  0
  5 11  1  6  0  0  0
  5 15  1  0  0  0  0
  5 19  1  0  0  0  0
  6 19  1  0  0  0  0
  7  3  2  0  0  0  0
  9 27  1  0  0  0  0
  9 13  1  0  0  0  0
 10 22  1  0  0  0  0
 12  8  1  0  0  0  0
 13 20  1  0  0  0  0
 14 25  1  0  0  0  0
 14  2  1  0  0  0  0
 15 12  1  0  0  0  0
 16  8  1  0  0  0  0
 17 25  1  0  0  0  0
 17 10  1  0  0  0  0
 17 28  1  0  0  0  0
 18  4  1  0  0  0  0
 19  3  1  0  0  0  0
 20 18  1  0  0  0  0
 20 11  1  0  0  0  0
 21 23  1  0  0  0  0
 22 24  1  0  0  0  0
 24 13  1  0  0  0  0
 25  9  1  0  0  0  0
 26 21  1  0  0  0  0
 27  1  1  0  0  0  0
 29 28  1  0  0  0  0
 30 34  1  0  0  0  0
 31 32  1  0  0  0  0
 31 33  2  0  0  0  0
 32 29  1  0  0  0  0
 32 34  1  0  0  0  0
 33 30  1  0  0  0  0
M  END
>  <MODEL>
2

>  <REMARK>
 VINA RESULT:      -5.4      8.738     10.917
  Name = 
  3 active torsions:
  status: ('A' for Active; 'I' for Inactive)
    1  A    between atoms: C_17  and  O_28
    2  A    between atoms: O_28  and  C_29
    3  A    between atoms: C_29  and  C_32
                            x       y       z     vdW  Elec       q    Type
                         _______ _______ _______ _____ _____    ______ ____

>  <TORSDO>
F 3

$$$$
=
 OpenBabel11122414403D

 34 40  0  0  1  0  0  0  0  0999 V2000
  161.5430  210.3670  152.1450 C   0  0  1  0  0  3  0  0  0  0  0  0
  160.9430  211.9040  153.9280 C   0  0  0  0  0  2  0  0  0  0  0  0
  160.6560  204.5840  149.6750 C   0  0  0  0  0  0  0  0  0  0  0  0
  162.0990  208.6170  150.3910 C   0  0  2  0  0  3  0  0  0  0  0  0
  162.0440  206.1770  151.0860 C   0  0  2  0  0  3  0  0  0  0  0  0
  161.6420  203.7500  151.8580 C   0  0  0  0  0  1  0  0  0  0  0  0
  159.5270  204.1290  150.0000 O   0  0  0  0  0  0  0  0  0  0  0  0
  162.1800  205.5670  147.9220 C   0  0  0  0  0  2  0  0  0  0  0  0
  161.2720  209.7120  154.3690 C   0  0  2  0  0  3  0  0  0  0  0  0
  159.4650  208.1580  156.4810 C   0  0  0  0  0  2  0  0  0  0  0  0
  161.2030  206.6230  152.2820 C   0  0  0  0  0  2  0  0  0  0  0  0
  162.6350  206.8330  148.6720 C   0  0  0  0  0  2  0  0  0  0  0  0
  160.9810  208.2500  154.0080 C   0  0  1  0  0  3  0  0  0  0  0  0
  160.6520  211.7520  155.4180 C   0  0  0  0  0  2  0  0  0  0  0  0
  161.8250  207.1800  149.9290 C   0  0  2  0  0  3  0  0  0  0  0  0
  160.8700  205.0750  148.3480 N   0  0  0  0  0  2  0  0  0  0  0  0
  159.4130  209.6600  156.1410 C   0  0  1  0  0  3  0  0  0  0  0  0
  161.3090  208.9090  151.6820 C   0  0  1  0  0  3  0  0  0  0  0  0
  161.7620  204.7140  150.6840 C   0  0  1  0  0  3  0  0  0  0  0  0
  161.6660  207.9340  152.7380 N   0  0  2  0  0  0  0  0  0  0  0  0
  161.9180  211.0430  149.7640 C   0  0  0  0  0  2  0  0  0  0  0  0
  160.8810  207.5780  156.5150 C   0  0  0  0  0  2  0  0  0  0  0  0
  161.6790  209.6100  149.3030 C   0  0  0  0  0  2  0  0  0  0  0  0
  161.4460  207.2870  155.1180 C   0  0  0  0  0  2  0  0  0  0  0  0
  160.7660  210.2600  155.6940 C   0  0  1  0  0  3  0  0  0  0  0  0
  161.1140  211.3220  151.0280 C   0  0  0  0  0  2  0  0  0  0  0  0
  160.7400  210.5850  153.3440 N   0  0  2  0  0  0  0  0  0  0  0  0
  158.4170  209.8850  155.1850 O   0  0  0  0  0  0  0  0  0  0  0  0
  157.4400  210.6340  155.8470 C   0  0  0  0  0  2  0  0  0  0  0  0
  156.4100  213.6670  154.7390 O   0  0  0  0  0  0  0  0  0  0  0  0
  157.4190  211.9420  153.7630 C   0  0  0  0  0  3  0  0  0  0  0  0
  156.5650  211.3500  154.8310 C   0  0  2  0  0  3  0  0  0  0  0  0
  157.2900  213.2550  153.7570 C   0  0  0  0  0  3  0  0  0  0  0  0
  155.9010  212.5680  155.4720 C   0  0  0  0  0  2  0  0  0  0  0  0
  1 26  1  6  0  0  0
  1 27  1  0  0  0  0
  2 14  1  0  0  0  0
  3  7  2  0  0  0  0
  3 19  1  0  0  0  0
  4 23  1  6  0  0  0
  4 18  1  0  0  0  0
  5 11  1  1  0  0  0
  8 16  1  0  0  0  0
  8 12  1  0  0  0  0
  9 25  1  0  0  0  0
 10 22  1  0  0  0  0
 11 20  1  0  0  0  0
 12 15  1  0  0  0  0
 13  9  1  0  0  0  0
 13 24  1  0  0  0  0
 14 25  1  0  0  0  0
 15  4  1  0  0  0  0
 15  5  1  0  0  0  0
 16  3  1  0  0  0  0
 17 10  1  0  0  0  0
 18  1  1  0  0  0  0
 18 20  1  0  0  0  0
 19  5  1  0  0  0  0
 19  6  1  0  0  0  0
 20 13  1  0  0  0  0
 21 26  1  0  0  0  0
 23 21  1  0  0  0  0
 24 22  1  0  0  0  0
 25 17  1  0  0  0  0
 27  2  1  0  0  0  0
 27  9  1  0  0  0  0
 28 29  1  0  0  0  0
 28 17  1  0  0  0  0
 30 34  1  0  0  0  0
 31 32  1  0  0  0  0
 32 34  1  0  0  0  0
 32 29  1  0  0  0  0
 33 31  2  0  0  0  0
 33 30  1  0  0  0  0
M  END
>  <MODEL>
3

>  <REMARK>
 VINA RESULT:      -5.4      1.805      8.126
  Name = 
  3 active torsions:
  status: ('A' for Active; 'I' for Inactive)
    1  A    between atoms: C_17  and  O_28
    2  A    between atoms: O_28  and  C_29
    3  A    between atoms: C_29  and  C_32
                            x       y       z     vdW  Elec       q    Type
                         _______ _______ _______ _____ _____    ______ ____

>  <TORSDO>
F 3

$$$$
