=
 OpenBabel11122414103D

 28 32  0  0  1  0  0  0  0  0999 V2000
  160.8480  209.9300  155.4120 C   0  0  0  0  0  0  0  0  0  0  0  0
  155.8760  210.6900  155.1160 O   0  0  0  0  0  1  0  0  0  0  0  0
  160.8480  212.8640  151.1350 C   0  0  0  0  0  1  0  0  0  0  0  0
  161.7070  211.9590  157.1400 C   0  0  0  0  0  3  0  0  0  0  0  0
  158.4660  213.0440  152.0770 C   0  0  2  0  0  3  0  0  0  0  0  0
  160.4150  208.9380  154.5280 O   0  0  0  0  0  0  0  0  0  0  0  0
  156.4850  211.1270  157.2610 O   0  0  0  0  0  1  0  0  0  0  0  0
  156.3510  211.6790  155.9870 C   0  0  0  0  0  0  0  0  0  0  0  0
  155.2300  213.4660  154.6990 C   0  0  1  0  0  3  0  0  0  0  0  0
  157.7330  212.2150  155.5280 C   0  0  2  0  0  3  0  0  0  0  0  0
  162.5060  210.3250  152.7060 O   0  0  0  0  0  1  0  0  0  0  0  0
  158.6140  211.1260  153.5290 C   0  0  1  0  0  3  0  0  0  0  0  0
  156.5710  214.1020  154.3730 C   0  0  0  0  0  2  0  0  0  0  0  0
  155.3300  212.8020  156.0550 C   0  0  0  0  0  2  0  0  0  0  0  0
  161.4530  209.4710  152.3730 C   0  0  2  0  0  3  0  0  0  0  0  0
  159.9810  210.9950  155.7230 C   0  0  0  0  0  0  0  0  0  0  0  0
  159.9110  212.6680  152.3280 C   0  0  1  0  0  3  0  0  0  0  0  0
  154.2470  214.4530  154.7360 O   0  0  0  0  0  1  0  0  0  0  0  0
  160.1920  210.2640  152.0060 C   0  0  0  0  0  2  0  0  0  0  0  0
  160.4240  212.0080  156.5890 C   0  0  0  0  0  3  0  0  0  0  0  0
  162.1370  209.8910  155.9600 C   0  0  0  0  0  3  0  0  0  0  0  0
  162.5640  210.9010  156.8250 C   0  0  0  0  0  3  0  0  0  0  0  0
  161.2310  208.4300  153.4780 C   0  0  0  0  0  2  0  0  0  0  0  0
  157.7320  212.3190  153.1810 C   0  0  1  0  0  3  0  0  0  0  0  0
  159.9540  211.3450  152.9690 N   0  0  2  0  0  0  0  0  0  0  0  0
  157.6850  213.1420  154.3830 N   0  0  2  0  0  0  0  0  0  0  0  0
  158.0360  212.5470  150.8440 O   0  0  0  0  0  1  0  0  0  0  0  0
  158.6140  211.0530  155.0700 C   0  0  1  0  0  3  0  0  0  0  0  0
  1 16  2  0  0  0  0
  1 21  1  0  0  0  0
  2  8  1  0  0  0  0
  3 17  1  0  0  0  0
  5 27  1  6  0  0  0
  5 17  1  0  0  0  0
  5 24  1  0  0  0  0
  6  1  1  0  0  0  0
  8 14  1  0  0  0  0
  8  7  1  0  0  0  0
  9 18  1  1  0  0  0
  9 14  1  0  0  0  0
 10  8  1  6  0  0  0
 12 28  1  0  0  0  0
 13 26  1  0  0  0  0
 13  9  1  0  0  0  0
 15 11  1  0  0  0  0
 15 23  1  0  0  0  0
 16 20  1  0  0  0  0
 17 25  1  0  0  0  0
 19 15  1  0  0  0  0
 19 25  1  0  0  0  0
 20  4  2  0  0  0  0
 21 22  2  0  0  0  0
 22  4  1  0  0  0  0
 23  6  1  0  0  0  0
 24 12  1  0  0  0  0
 24 26  1  0  0  0  0
 25 12  1  0  0  0  0
 26 10  1  0  0  0  0
 28 10  1  0  0  0  0
 28 16  1  0  0  0  0
M  END
>  <MODEL>
1

>  <REMARK>
 VINA RESULT:      -3.5      0.000      0.000
  Name = 
  0 active torsions:
  status: ('A' for Active; 'I' for Inactive)
                            x       y       z     vdW  Elec       q    Type
                         _______ _______ _______ _____ _____    ______ ____

>  <TORSDO>
F 0

$$$$
=
 OpenBabel11122414103D

 28 32  0  0  1  0  0  0  0  0999 V2000
  160.8840  209.1060  155.8000 C   0  0  0  0  0  0  0  0  0  0  0  0
  158.4410  211.7010  152.2390 O   0  0  0  0  0  1  0  0  0  0  0  0
  162.8580  206.6540  151.6770 C   0  0  0  0  0  1  0  0  0  0  0  0
  163.1480  210.6750  156.3000 C   0  0  0  0  0  3  0  0  0  0  0  0
  161.6290  208.6970  150.7240 C   0  0  2  0  0  3  0  0  0  0  0  0
  159.7660  208.3140  155.5240 O   0  0  0  0  0  0  0  0  0  0  0  0
  159.3290  213.2230  153.6730 O   0  0  0  0  0  1  0  0  0  0  0  0
  159.5810  212.4590  152.5330 C   0  0  0  0  0  0  0  0  0  0  0  0
  160.2090  212.5930  150.1460 C   0  0  1  0  0  3  0  0  0  0  0  0
  160.8070  211.5480  152.8040 C   0  0  2  0  0  3  0  0  0  0  0  0
  161.9850  206.2250  154.9510 O   0  0  0  0  0  1  0  0  0  0  0  0
  160.3200  209.1590  152.6940 C   0  0  1  0  0  3  0  0  0  0  0  0
  161.4990  211.8400  150.4210 C   0  0  0  0  0  2  0  0  0  0  0  0
  159.8540  213.4020  151.3740 C   0  0  0  0  0  2  0  0  0  0  0  0
  160.6430  206.2370  154.5640 C   0  0  2  0  0  3  0  0  0  0  0  0
  161.2240  210.1430  154.9100 C   0  0  0  0  0  0  0  0  0  0  0  0
  162.2300  208.0240  151.9390 C   0  0  1  0  0  3  0  0  0  0  0  0
  160.3940  213.4490  149.0620 O   0  0  0  0  0  1  0  0  0  0  0  0
  160.4750  206.8560  153.1700 C   0  0  0  0  0  2  0  0  0  0  0  0
  162.3640  210.9220  155.1700 C   0  0  0  0  0  3  0  0  0  0  0  0
  161.6800  208.8570  156.9260 C   0  0  0  0  0  3  0  0  0  0  0  0
  162.8080  209.6420  157.1760 C   0  0  0  0  0  3  0  0  0  0  0  0
  159.7750  206.8960  155.6440 C   0  0  0  0  0  2  0  0  0  0  0  0
  160.6990  209.7220  151.3290 C   0  0  1  0  0  3  0  0  0  0  0  0
  161.2620  208.0870  153.0450 N   0  0  2  0  0  0  0  0  0  0  0  0
  161.4180  210.9620  151.5980 N   0  0  2  0  0  0  0  0  0  0  0  0
  160.8750  207.7860  149.9790 O   0  0  0  0  0  1  0  0  0  0  0  0
  160.3870  210.3560  153.6640 C   0  0  1  0  0  3  0  0  0  0  0  0
  1 21  1  0  0  0  0
  2  8  1  0  0  0  0
  3 17  1  0  0  0  0
  4 22  1  0  0  0  0
  5 27  1  6  0  0  0
  5 24  1  0  0  0  0
  5 17  1  0  0  0  0
  6 23  1  0  0  0  0
  6  1  1  0  0  0  0
  8  7  1  0  0  0  0
  9 18  1  6  0  0  0
  9 13  1  0  0  0  0
  9 14  1  0  0  0  0
 10  8  1  6  0  0  0
 10 28  1  0  0  0  0
 12 25  1  0  0  0  0
 12 28  1  0  0  0  0
 13 26  1  0  0  0  0
 14  8  1  0  0  0  0
 15 11  1  0  0  0  0
 15 23  1  0  0  0  0
 16 20  1  0  0  0  0
 16  1  2  0  0  0  0
 17 25  1  0  0  0  0
 19 15  1  0  0  0  0
 20  4  2  0  0  0  0
 21 22  2  0  0  0  0
 24 26  1  0  0  0  0
 24 12  1  0  0  0  0
 25 19  1  0  0  0  0
 26 10  1  0  0  0  0
 28 16  1  0  0  0  0
M  END
>  <MODEL>
2

>  <REMARK>
 VINA RESULT:      -2.4      3.057      4.515
  Name = 
  0 active torsions:
  status: ('A' for Active; 'I' for Inactive)
                            x       y       z     vdW  Elec       q    Type
                         _______ _______ _______ _____ _____    ______ ____

>  <TORSDO>
F 0

$$$$
=
 OpenBabel11122414103D

 28 32  0  0  1  0  0  0  0  0999 V2000
  161.7320  210.0010  154.0870 C   0  0  0  0  0  0  0  0  0  0  0  0
  160.0760  214.0440  151.5770 O   0  0  0  0  0  1  0  0  0  0  0  0
  157.7120  211.1310  157.1650 C   0  0  0  0  0  1  0  0  0  0  0  0
  160.4820  207.8700  152.7700 C   0  0  0  0  0  3  0  0  0  0  0  0
  157.4120  212.6140  155.0900 C   0  0  2  0  0  3  0  0  0  0  0  0
  162.3280  211.0720  154.7580 O   0  0  0  0  0  0  0  0  0  0  0  0
  160.4020  212.4020  150.0430 O   0  0  0  0  0  1  0  0  0  0  0  0
  159.4850  212.9460  150.9420 C   0  0  0  0  0  0  0  0  0  0  0  0
  157.2320  213.9470  151.1260 C   0  0  1  0  0  3  0  0  0  0  0  0
  159.0830  211.8520  151.9670 C   0  0  2  0  0  3  0  0  0  0  0  0
  160.8460  209.7760  157.1530 O   0  0  0  0  0  1  0  0  0  0  0  0
  159.6680  212.3840  154.2750 C   0  0  1  0  0  3  0  0  0  0  0  0
  156.7690  212.7960  152.0020 C   0  0  0  0  0  2  0  0  0  0  0  0
  158.2740  213.4260  150.1600 C   0  0  0  0  0  2  0  0  0  0  0  0
  161.3710  211.0620  157.0130 C   0  0  2  0  0  3  0  0  0  0  0  0
  160.6730  210.2580  153.1950 C   0  0  0  0  0  0  0  0  0  0  0  0
  158.0870  211.4080  155.7080 C   0  0  1  0  0  3  0  0  0  0  0  0
  156.1470  214.4520  150.4120 O   0  0  0  0  0  1  0  0  0  0  0  0
  160.3000  212.0450  156.5210 C   0  0  0  0  0  2  0  0  0  0  0  0
  160.0520  209.1810  152.5420 C   0  0  0  0  0  3  0  0  0  0  0  0
  162.1510  208.6850  154.3200 C   0  0  0  0  0  3  0  0  0  0  0  0
  161.5290  207.6230  153.6600 C   0  0  0  0  0  3  0  0  0  0  0  0
  162.6370  211.0390  156.1470 C   0  0  0  0  0  2  0  0  0  0  0  0
  158.2930  212.9240  153.9020 C   0  0  1  0  0  3  0  0  0  0  0  0
  159.5280  211.4680  155.4150 N   0  0  2  0  0  0  0  0  0  0  0  0
  157.8650  212.1530  152.7420 N   0  0  2  0  0  0  0  0  0  0  0  0
  157.4420  213.6990  155.9700 O   0  0  0  0  0  1  0  0  0  0  0  0
  160.1910  211.6830  153.0050 C   0  0  1  0  0  3  0  0  0  0  0  0
  1 21  1  0  0  0  0
  1  6  1  0  0  0  0
  4 22  1  0  0  0  0
  5 17  1  0  0  0  0
  5 27  1  1  0  0  0
  6 23  1  0  0  0  0
  7  8  1  0  0  0  0
  8  2  1  0  0  0  0
  9 18  1  6  0  0  0
  9 13  1  0  0  0  0
 10  8  1  6  0  0  0
 10 26  1  0  0  0  0
 10 28  1  0  0  0  0
 12 25  1  0  0  0  0
 13 26  1  0  0  0  0
 14  8  1  0  0  0  0
 14  9  1  0  0  0  0
 15 11  1  0  0  0  0
 16  1  2  0  0  0  0
 17  3  1  0  0  0  0
 19 15  1  0  0  0  0
 20  4  2  0  0  0  0
 20 16  1  0  0  0  0
 22 21  2  0  0  0  0
 23 15  1  0  0  0  0
 24 12  1  0  0  0  0
 24  5  1  0  0  0  0
 25 17  1  0  0  0  0
 25 19  1  0  0  0  0
 26 24  1  0  0  0  0
 28 16  1  0  0  0  0
 28 12  1  0  0  0  0
M  END
>  <MODEL>
3

>  <REMARK>
 VINA RESULT:      -1.4      1.898      4.513
  Name = 
  0 active torsions:
  status: ('A' for Active; 'I' for Inactive)
                            x       y       z     vdW  Elec       q    Type
                         _______ _______ _______ _____ _____    ______ ____

>  <TORSDO>
F 0

$$$$
=
 OpenBabel11122414103D

 28 32  0  0  1  0  0  0  0  0999 V2000
  162.1700  209.4100  151.6970 C   0  0  0  0  0  0  0  0  0  0  0  0
  163.4210  213.2100  148.6340 O   0  0  0  0  0  1  0  0  0  0  0  0
  157.7910  212.1500  152.1650 C   0  0  0  0  0  1  0  0  0  0  0  0
  161.1140  207.4960  149.9480 C   0  0  0  0  0  3  0  0  0  0  0  0
  159.0680  213.2450  150.2250 C   0  0  2  0  0  3  0  0  0  0  0  0
  162.6720  210.3830  152.5670 O   0  0  0  0  0  0  0  0  0  0  0  0
  163.9010  211.2850  147.5290 O   0  0  0  0  0  1  0  0  0  0  0  0
  162.8980  212.2170  147.7980 C   0  0  0  0  0  0  0  0  0  0  0  0
  161.3290  213.8130  146.7480 C   0  0  1  0  0  3  0  0  0  0  0  0
  161.7060  211.4860  148.4700 C   0  0  2  0  0  3  0  0  0  0  0  0
  159.8660  210.0110  153.8330 O   0  0  0  0  0  1  0  0  0  0  0  0
  161.2080  212.2580  150.7310 C   0  0  1  0  0  3  0  0  0  0  0  0
  160.1420  213.0160  147.2630 C   0  0  0  0  0  2  0  0  0  0  0  0
  162.4720  212.8560  146.4870 C   0  0  0  0  0  2  0  0  0  0  0  0
  160.7810  211.0550  153.9730 C   0  0  2  0  0  3  0  0  0  0  0  0
  161.8470  209.7750  150.3770 C   0  0  0  0  0  0  0  0  0  0  0  0
  158.9060  212.0370  151.1240 C   0  0  1  0  0  3  0  0  0  0  0  0
  160.9780  214.4530  145.5610 O   0  0  0  0  0  1  0  0  0  0  0  0
  160.4910  212.1840  152.9750 C   0  0  0  0  0  2  0  0  0  0  0  0
  161.3160  208.8070  149.5090 C   0  0  0  0  0  3  0  0  0  0  0  0
  161.9560  208.0970  152.1350 C   0  0  0  0  0  3  0  0  0  0  0  0
  161.4330  207.1410  151.2610 C   0  0  0  0  0  3  0  0  0  0  0  0
  162.2200  210.5260  153.9090 C   0  0  0  0  0  2  0  0  0  0  0  0
  160.4670  213.0740  149.6790 C   0  0  1  0  0  3  0  0  0  0  0  0
  160.2270  211.6450  151.6370 N   0  0  2  0  0  0  0  0  0  0  0  0
  160.4430  212.2470  148.4790 N   0  0  2  0  0  0  0  0  0  0  0  0
  159.0150  214.4250  150.9720 O   0  0  0  0  0  1  0  0  0  0  0  0
  162.0260  211.2170  149.9400 C   0  0  1  0  0  3  0  0  0  0  0  0
  1 21  1  0  0  0  0
  1  6  1  0  0  0  0
  4 22  1  0  0  0  0
  5 27  1  1  0  0  0
  5 17  1  0  0  0  0
  6 23  1  0  0  0  0
  7  8  1  0  0  0  0
  8  2  1  0  0  0  0
  9 18  1  6  0  0  0
  9 13  1  0  0  0  0
 10  8  1  1  0  0  0
 10 26  1  0  0  0  0
 10 28  1  0  0  0  0
 11 15  1  0  0  0  0
 12 25  1  0  0  0  0
 13 26  1  0  0  0  0
 14  9  1  0  0  0  0
 14  8  1  0  0  0  0
 16  1  2  0  0  0  0
 17 25  1  0  0  0  0
 17  3  1  0  0  0  0
 19 15  1  0  0  0  0
 20  4  2  0  0  0  0
 20 16  1  0  0  0  0
 22 21  2  0  0  0  0
 23 15  1  0  0  0  0
 24  5  1  0  0  0  0
 24 12  1  0  0  0  0
 25 19  1  0  0  0  0
 26 24  1  0  0  0  0
 28 16  1  0  0  0  0
 28 12  1  0  0  0  0
M  END
>  <MODEL>
4

>  <REMARK>
 VINA RESULT:      -1.3      3.090      6.792
  Name = 
  0 active torsions:
  status: ('A' for Active; 'I' for Inactive)
                            x       y       z     vdW  Elec       q    Type
                         _______ _______ _______ _____ _____    ______ ____

>  <TORSDO>
F 0

$$$$
=
 OpenBabel11122414103D

 28 32  0  0  1  0  0  0  0  0999 V2000
  160.5550  212.3360  150.8630 C   0  0  0  0  0  0  0  0  0  0  0  0
  162.8280  210.6620  155.0360 O   0  0  0  0  0  1  0  0  0  0  0  0
  160.8310  207.3280  149.5410 C   0  0  0  0  0  1  0  0  0  0  0  0
  157.8400  212.2930  151.5480 C   0  0  0  0  0  3  0  0  0  0  0  0
  161.4750  207.4070  152.0260 C   0  0  2  0  0  3  0  0  0  0  0  0
  161.9090  212.3270  150.5190 O   0  0  0  0  0  0  0  0  0  0  0  0
  161.0920  211.9650  155.7070 O   0  0  0  0  0  1  0  0  0  0  0  0
  161.4600  210.6710  155.3370 C   0  0  0  0  0  0  0  0  0  0  0  0
  161.5310  208.3240  156.1100 C   0  0  1  0  0  3  0  0  0  0  0  0
  160.6120  210.2420  154.1110 C   0  0  2  0  0  3  0  0  0  0  0  0
  160.8310  210.4940  148.2620 O   0  0  0  0  0  1  0  0  0  0  0  0
  161.9200  209.7750  152.1050 C   0  0  1  0  0  3  0  0  0  0  0  0
  160.5680  207.9110  155.0100 C   0  0  0  0  0  2  0  0  0  0  0  0
  161.2130  209.7460  156.5170 C   0  0  0  0  0  2  0  0  0  0  0  0
  162.1330  210.6560  148.7410 C   0  0  2  0  0  3  0  0  0  0  0  0
  160.1380  211.6490  152.0190 C   0  0  0  0  0  0  0  0  0  0  0  0
  160.8320  208.1160  150.8520 C   0  0  1  0  0  3  0  0  0  0  0  0
  161.3710  207.4790  157.2070 O   0  0  0  0  0  1  0  0  0  0  0  0
  162.4600  209.6120  149.8160 C   0  0  0  0  0  2  0  0  0  0  0  0
  158.7740  211.6320  152.3510 C   0  0  0  0  0  3  0  0  0  0  0  0
  159.6130  212.9880  150.0560 C   0  0  0  0  0  3  0  0  0  0  0  0
  158.2600  212.9690  150.4000 C   0  0  0  0  0  3  0  0  0  0  0  0
  162.3680  212.1040  149.1900 C   0  0  0  0  0  2  0  0  0  0  0  0
  161.7710  208.5380  152.9830 C   0  0  1  0  0  3  0  0  0  0  0  0
  161.3590  209.4870  150.7780 N   0  0  2  0  0  0  0  0  0  0  0  0
  160.6160  208.7940  153.8350 N   0  0  2  0  0  0  0  0  0  0  0  0
  162.6810  206.8130  151.6410 O   0  0  0  0  0  1  0  0  0  0  0  0
  161.1630  210.8960  152.8450 C   0  0  1  0  0  3  0  0  0  0  0  0
  1 16  1  0  0  0  0
  2  8  1  0  0  0  0
  3 17  1  0  0  0  0
  4 20  1  0  0  0  0
  5 27  1  6  0  0  0
  5 24  1  0  0  0  0
  6  1  1  0  0  0  0
  8  7  1  0  0  0  0
  8 14  1  0  0  0  0
  9 14  1  0  0  0  0
  9 18  1  1  0  0  0
 10  8  1  1  0  0  0
 11 15  1  0  0  0  0
 12 28  1  0  0  0  0
 12 24  1  0  0  0  0
 13  9  1  0  0  0  0
 15 23  1  0  0  0  0
 15 19  1  0  0  0  0
 16 20  2  0  0  0  0
 16 28  1  0  0  0  0
 17  5  1  0  0  0  0
 19 25  1  0  0  0  0
 21 22  1  0  0  0  0
 21  1  2  0  0  0  0
 22  4  2  0  0  0  0
 23  6  1  0  0  0  0
 24 26  1  0  0  0  0
 25 17  1  0  0  0  0
 25 12  1  0  0  0  0
 26 10  1  0  0  0  0
 26 13  1  0  0  0  0
 28 10  1  0  0  0  0
M  END
>  <MODEL>
5

>  <REMARK>
 VINA RESULT:      -1.3      3.239      5.881
  Name = 
  0 active torsions:
  status: ('A' for Active; 'I' for Inactive)
                            x       y       z     vdW  Elec       q    Type
                         _______ _______ _______ _____ _____    ______ ____

>  <TORSDO>
F 0

$$$$
=
 OpenBabel11122414103D

 28 32  0  0  1  0  0  0  0  0999 V2000
  159.5480  213.9370  148.7120 C   0  0  0  0  0  0  0  0  0  0  0  0
  159.7040  213.9250  153.7480 O   0  0  0  0  0  1  0  0  0  0  0  0
  161.9560  209.3830  149.3200 C   0  0  0  0  0  1  0  0  0  0  0  0
  157.0330  212.8470  148.1430 C   0  0  0  0  0  3  0  0  0  0  0  0
  161.1590  210.0450  151.6700 C   0  0  2  0  0  3  0  0  0  0  0  0
  160.8140  214.4530  149.0030 O   0  0  0  0  0  0  0  0  0  0  0  0
  157.5760  214.4530  153.1540 O   0  0  0  0  0  1  0  0  0  0  0  0
  158.4500  213.3980  153.4140 C   0  0  0  0  0  0  0  0  0  0  0  0
  158.8100  211.4180  154.8510 C   0  0  1  0  0  3  0  0  0  0  0  0
  158.5360  212.4980  152.1530 C   0  0  2  0  0  3  0  0  0  0  0  0
  161.6710  212.0630  147.2230 O   0  0  0  0  0  1  0  0  0  0  0  0
  160.7650  212.3690  151.1670 C   0  0  1  0  0  3  0  0  0  0  0  0
  158.7330  210.5010  153.6420 C   0  0  0  0  0  2  0  0  0  0  0  0
  157.9170  212.6150  154.6020 C   0  0  0  0  0  2  0  0  0  0  0  0
  162.4160  212.8170  148.1320 C   0  0  2  0  0  3  0  0  0  0  0  0
  158.8210  213.2940  149.7310 C   0  0  0  0  0  0  0  0  0  0  0  0
  161.0410  210.2610  150.1760 C   0  0  1  0  0  3  0  0  0  0  0  0
  158.3650  210.7340  155.9810 O   0  0  0  0  0  1  0  0  0  0  0  0
  162.4330  212.1550  149.5160 C   0  0  0  0  0  2  0  0  0  0  0  0
  157.5610  212.7490  149.4340 C   0  0  0  0  0  3  0  0  0  0  0  0
  159.0180  214.0240  147.4170 C   0  0  0  0  0  3  0  0  0  0  0  0
  157.7620  213.4830  147.1360 C   0  0  0  0  0  3  0  0  0  0  0  0
  161.9370  214.2740  148.1480 C   0  0  0  0  0  2  0  0  0  0  0  0
  160.5600  211.3090  152.2430 C   0  0  1  0  0  3  0  0  0  0  0  0
  161.0900  211.7040  149.8980 N   0  0  2  0  0  0  0  0  0  0  0  0
  159.1170  211.1640  152.3870 N   0  0  2  0  0  0  0  0  0  0  0  0
  162.5010  209.9680  152.0510 O   0  0  0  0  0  1  0  0  0  0  0  0
  159.4390  213.1540  151.1080 C   0  0  1  0  0  3  0  0  0  0  0  0
  1  6  1  0  0  0  0
  1 16  1  0  0  0  0
  3 17  1  0  0  0  0
  4 20  1  0  0  0  0
  5 27  1  6  0  0  0
  5 24  1  0  0  0  0
  7  8  1  0  0  0  0
  8  2  1  0  0  0  0
  8 14  1  0  0  0  0
  9 18  1  1  0  0  0
 10 26  1  0  0  0  0
 10  8  1  1  0  0  0
 11 15  1  0  0  0  0
 12 24  1  0  0  0  0
 13  9  1  0  0  0  0
 14  9  1  0  0  0  0
 15 23  1  0  0  0  0
 15 19  1  0  0  0  0
 16 28  1  0  0  0  0
 17  5  1  0  0  0  0
 19 25  1  0  0  0  0
 20 16  2  0  0  0  0
 21  1  2  0  0  0  0
 22 21  1  0  0  0  0
 22  4  2  0  0  0  0
 23  6  1  0  0  0  0
 24 26  1  0  0  0  0
 25 17  1  0  0  0  0
 25 12  1  0  0  0  0
 26 13  1  0  0  0  0
 28 12  1  0  0  0  0
 28 10  1  0  0  0  0
M  END
>  <MODEL>
6

>  <REMARK>
 VINA RESULT:      -1.0      2.776      5.945
  Name = 
  0 active torsions:
  status: ('A' for Active; 'I' for Inactive)
                            x       y       z     vdW  Elec       q    Type
                         _______ _______ _______ _____ _____    ______ ____

>  <TORSDO>
F 0

$$$$
