=
 OpenBabel11122412573D

 32 37  0  0  1  0  0  0  0  0999 V2000
  161.3010  201.3190  150.1640 C   0  0  0  0  0  2  0  0  0  0  0  0
  160.8330  206.6310  152.2850 C   0  0  1  0  0  3  0  0  0  0  0  0
  161.9780  210.1230  148.9600 C   0  0  0  0  0  3  0  0  0  0  0  0
  162.0580  211.0890  149.9640 C   0  0  0  0  0  3  0  0  0  0  0  0
  160.5320  207.4650  154.6450 C   0  0  0  0  0  0  0  0  0  0  0  0
  160.7630  208.5280  155.6280 C   0  0  0  0  0  0  0  0  0  0  0  0
  161.5200  204.2790  151.6220 N   0  0  2  0  0  0  0  0  0  0  0  0
  161.1140  206.0270  149.8910 C   0  0  0  0  0  2  0  0  0  0  0  0
  161.4030  210.5960  156.2720 C   0  0  0  0  0  0  0  0  0  0  0  0
  161.1700  203.6650  149.2250 C   0  0  0  0  0  2  0  0  0  0  0  0
  161.8050  208.7800  149.2970 C   0  0  0  0  0  3  0  0  0  0  0  0
  161.6340  206.9250  151.0140 C   0  0  1  0  0  3  0  0  0  0  0  0
  161.6830  208.3880  150.6400 C   0  0  0  0  0  0  0  0  0  0  0  0
  161.6690  208.9660  153.0680 C   0  0  0  0  0  0  0  0  0  0  0  0
  160.2810  210.2500  156.8830 C   0  0  0  0  0  3  0  0  0  0  0  0
  161.9830  201.8890  151.4100 C   0  0  0  0  0  2  0  0  0  0  0  0
  160.7930  204.6030  150.3720 C   0  0  1  0  0  3  0  0  0  0  0  0
  159.8590  208.9630  156.4410 N   0  0  0  0  0  0  0  0  0  0  0  0
  161.1390  202.9530  152.0970 C   0  0  0  0  0  2  0  0  0  0  0  0
  160.4610  202.3240  149.3720 C   0  0  1  0  0  3  0  0  0  0  0  0
  161.9660  210.7090  151.3040 C   0  0  0  0  0  3  0  0  0  0  0  0
  161.7840  209.3620  151.6510 C   0  0  0  0  0  0  0  0  0  0  0  0
  161.9660  209.8250  154.0100 N   0  0  0  0  0  0  0  0  0  0  0  0
  161.1340  205.1840  152.7190 C   0  0  0  0  0  2  0  0  0  0  0  0
  159.6320  206.3260  155.0040 C   0  0  0  0  0  1  0  0  0  0  0  0
  162.1390  211.8630  156.5260 C   0  0  0  0  0  1  0  0  0  0  0  0
  161.0660  207.6310  153.4080 C   0  0  0  0  0  0  0  0  0  0  0  0
  161.8880  209.4730  155.4270 C   0  0  2  0  0  3  0  0  0  0  0  0
  160.1650  201.7710  148.0600 N   0  0  0  0  0  2  0  0  0  0  0  0
  160.7740  202.2590  146.8630 C   0  0  0  0  0  0  0  0  0  0  0  0
  161.5870  203.2200  146.9000 O   0  0  0  0  0  0  0  0  0  0  0  0
  160.4410  201.6290  145.5590 C   0  0  0  0  0  1  0  0  0  0  0  0
  1 16  1  0  0  0  0
  2 24  1  1  0  0  0
  2 27  1  0  0  0  0
  3 11  2  0  0  0  0
  3  4  1  0  0  0  0
  4 21  2  0  0  0  0
  5 25  1  0  0  0  0
  5  6  1  0  0  0  0
  6 18  2  0  0  0  0
  7 19  1  1  0  0  0
  7 24  1  0  0  0  0
  8 17  1  0  0  0  0
  9 26  1  0  0  0  0
  9 15  2  0  0  0  0
 10 20  1  0  0  0  0
 11 13  1  0  0  0  0
 12  8  1  6  0  0  0
 12  2  1  0  0  0  0
 13 12  1  0  0  0  0
 13 22  2  0  0  0  0
 14 27  1  0  0  0  0
 14 23  2  0  0  0  0
 16 19  1  0  0  0  0
 17 10  1  6  0  0  0
 17  7  1  0  0  0  0
 18 15  1  0  0  0  0
 20 29  1  6  0  0  0
 20  1  1  0  0  0  0
 21 22  1  0  0  0  0
 22 14  1  0  0  0  0
 27  5  2  0  0  0  0
 28 23  1  6  0  0  0
 28  6  1  0  0  0  0
 28  9  1  0  0  0  0
 30 31  2  0  0  0  0
 30 29  1  0  0  0  0
 32 30  1  0  0  0  0
M  END
>  <MODEL>
1

>  <REMARK>
 VINA RESULT:      -8.6      0.000      0.000
  Name = 
  1 active torsions:
  status: ('A' for Active; 'I' for Inactive)
    1  A    between atoms: C_20  and  N_29
                            x       y       z     vdW  Elec       q    Type
                         _______ _______ _______ _____ _____    ______ ____

>  <TORSDO>
F 1

$$$$
=
 OpenBabel11122412573D

 32 37  0  0  1  0  0  0  0  0999 V2000
  160.3090  208.1000  156.6990 C   0  0  0  0  0  2  0  0  0  0  0  0
  161.4350  205.4770  151.7200 C   0  0  1  0  0  3  0  0  0  0  0  0
  162.2610  208.6720  148.0220 C   0  0  0  0  0  3  0  0  0  0  0  0
  162.1270  207.6530  147.0780 C   0  0  0  0  0  3  0  0  0  0  0  0
  161.2090  203.0670  151.0150 C   0  0  0  0  0  0  0  0  0  0  0  0
  160.9680  202.1030  149.9370 C   0  0  0  0  0  0  0  0  0  0  0  0
  160.4120  206.5140  153.7990 N   0  0  2  0  0  0  0  0  0  0  0  0
  161.7460  207.8940  152.2080 C   0  0  0  0  0  2  0  0  0  0  0  0
  160.7040  201.4930  147.7780 C   0  0  0  0  0  0  0  0  0  0  0  0
  161.3020  208.7510  154.4650 C   0  0  0  0  0  2  0  0  0  0  0  0
  161.9820  208.4180  149.3660 C   0  0  0  0  0  3  0  0  0  0  0  0
  161.1550  206.8940  151.2130 C   0  0  1  0  0  3  0  0  0  0  0  0
  161.5900  207.1370  149.7870 C   0  0  0  0  0  0  0  0  0  0  0  0
  161.0160  204.7670  149.2540 C   0  0  0  0  0  0  0  0  0  0  0  0
  161.4660  200.6170  148.4160 C   0  0  0  0  0  3  0  0  0  0  0  0
  159.4490  207.0590  155.9780 C   0  0  0  0  0  2  0  0  0  0  0  0
  161.5390  207.4680  153.6700 C   0  0  1  0  0  3  0  0  0  0  0  0
  161.6640  201.0290  149.7640 N   0  0  0  0  0  0  0  0  0  0  0  0
  160.2860  206.0670  155.1830 C   0  0  0  0  0  2  0  0  0  0  0  0
  161.5730  208.5240  155.9470 C   0  0  1  0  0  3  0  0  0  0  0  0
  161.7130  206.3820  147.4800 C   0  0  0  0  0  3  0  0  0  0  0  0
  161.4370  206.1170  148.8300 C   0  0  0  0  0  0  0  0  0  0  0  0
  160.6750  203.8800  148.3540 N   0  0  0  0  0  0  0  0  0  0  0  0
  160.6630  205.2770  153.0380 C   0  0  0  0  0  2  0  0  0  0  0  0
  161.6430  202.5660  152.3550 C   0  0  0  0  0  1  0  0  0  0  0  0
  160.2690  201.3530  146.3630 C   0  0  0  0  0  1  0  0  0  0  0  0
  161.1330  204.3870  150.7030 C   0  0  0  0  0  0  0  0  0  0  0  0
  160.2310  202.5370  148.7250 C   0  0  2  0  0  3  0  0  0  0  0  0
  162.1020  209.7390  156.5480 N   0  0  0  0  0  2  0  0  0  0  0  0
  161.3560  210.9560  156.6090 C   0  0  0  0  0  0  0  0  0  0  0  0
  160.2000  211.0280  156.1150 O   0  0  0  0  0  0  0  0  0  0  0  0
  161.9520  212.1520  157.2610 C   0  0  0  0  0  1  0  0  0  0  0  0
  2 24  1  1  0  0  0
  3 11  1  0  0  0  0
  4 21  1  0  0  0  0
  4  3  2  0  0  0  0
  5 25  1  0  0  0  0
  6  5  1  0  0  0  0
  7 24  1  6  0  0  0
  7 19  1  0  0  0  0
  9 15  2  0  0  0  0
 10 20  1  0  0  0  0
 11 13  2  0  0  0  0
 12  2  1  0  0  0  0
 12  8  1  1  0  0  0
 13 12  1  0  0  0  0
 14 27  1  0  0  0  0
 15 18  1  0  0  0  0
 16  1  1  0  0  0  0
 17  8  1  6  0  0  0
 17  7  1  0  0  0  0
 17 10  1  0  0  0  0
 18  6  2  0  0  0  0
 19 16  1  0  0  0  0
 20 29  1  1  0  0  0
 20  1  1  0  0  0  0
 21 22  2  0  0  0  0
 22 14  1  0  0  0  0
 22 13  1  0  0  0  0
 23 28  1  0  0  0  0
 23 14  2  0  0  0  0
 26  9  1  0  0  0  0
 27  5  2  0  0  0  0
 27  2  1  0  0  0  0
 28  9  1  6  0  0  0
 28  6  1  0  0  0  0
 29 30  1  0  0  0  0
 30 32  1  0  0  0  0
 31 30  2  0  0  0  0
M  END
>  <MODEL>
2

>  <REMARK>
 VINA RESULT:      -7.3      2.614      8.148
  Name = 
  1 active torsions:
  status: ('A' for Active; 'I' for Inactive)
    1  A    between atoms: C_20  and  N_29
                            x       y       z     vdW  Elec       q    Type
                         _______ _______ _______ _____ _____    ______ ____

>  <TORSDO>
F 1

$$$$
=
 OpenBabel11122412573D

 32 37  0  0  1  0  0  0  0  0999 V2000
  162.3310  211.7810  149.6170 C   0  0  0  0  0  2  0  0  0  0  0  0
  160.8760  206.3160  148.6400 C   0  0  1  0  0  3  0  0  0  0  0  0
  160.8390  203.5810  152.7730 C   0  0  0  0  0  3  0  0  0  0  0  0
  160.7990  202.4040  152.0240 C   0  0  0  0  0  3  0  0  0  0  0  0
  160.6380  205.0100  146.4970 C   0  0  0  0  0  0  0  0  0  0  0  0
  160.7190  203.7160  145.8120 C   0  0  2  0  0  3  0  0  0  0  0  0
  162.0140  208.5730  148.8800 N   0  0  2  0  0  0  0  0  0  0  0  0
  161.0400  207.4150  150.8620 C   0  0  0  0  0  2  0  0  0  0  0  0
  160.9290  201.4680  145.7340 C   0  0  0  0  0  0  0  0  0  0  0  0
  161.5680  209.8080  151.0060 C   0  0  0  0  0  2  0  0  0  0  0  0
  161.0150  204.8090  152.1330 C   0  0  0  0  0  3  0  0  0  0  0  0
  161.4530  206.1860  150.0520 C   0  0  1  0  0  3  0  0  0  0  0  0
  161.1260  204.8780  150.7350 C   0  0  0  0  0  0  0  0  0  0  0  0
  161.2300  203.7420  148.5150 C   0  0  0  0  0  0  0  0  0  0  0  0
  159.9860  201.8730  144.8980 C   0  0  0  0  0  3  0  0  0  0  0  0
  162.9890  210.8010  148.6430 C   0  0  0  0  0  2  0  0  0  0  0  0
  161.1070  208.7140  150.0440 C   0  0  1  0  0  3  0  0  0  0  0  0
  159.8270  203.2850  144.9820 N   0  0  0  0  0  2  0  0  0  0  0  0
  161.9980  209.7920  148.0780 C   0  0  0  0  0  2  0  0  0  0  0  0
  161.2050  211.1860  150.4670 C   0  0  1  0  0  3  0  0  0  0  0  0
  160.9350  202.4570  150.6360 C   0  0  0  0  0  3  0  0  0  0  0  0
  161.1040  203.6880  149.9840 C   0  0  0  0  0  0  0  0  0  0  0  0
  161.4170  202.6390  147.8360 N   0  0  0  0  0  0  0  0  0  0  0  0
  161.5450  207.5240  147.9570 C   0  0  0  0  0  2  0  0  0  0  0  0
  160.0660  206.1840  145.7680 C   0  0  0  0  0  1  0  0  0  0  0  0
  161.3770  200.0570  145.8750 C   0  0  0  0  0  1  0  0  0  0  0  0
  160.9890  205.0470  147.8080 C   0  0  0  0  0  0  0  0  0  0  0  0
  161.5690  202.6430  146.3820 C   0  0  2  0  0  3  0  0  0  0  0  0
  160.9110  212.0890  151.5680 N   0  0  0  0  0  2  0  0  0  0  0  0
  159.8610  211.8440  152.5060 C   0  0  0  0  0  0  0  0  0  0  0  0
  159.1250  210.8290  152.3970 O   0  0  0  0  0  0  0  0  0  0  0  0
  159.6330  212.8010  153.6210 C   0  0  0  0  0  1  0  0  0  0  0  0
  1 20  1  0  0  0  0
  2 24  1  6  0  0  0
  2 12  1  0  0  0  0
  4  3  2  0  0  0  0
  5 27  2  0  0  0  0
  6 18  1  1  0  0  0
  6 28  1  0  0  0  0
  6  5  1  0  0  0  0
  7 24  1  6  0  0  0
  7 17  1  0  0  0  0
  9 26  1  0  0  0  0
 11  3  1  0  0  0  0
 12 13  1  0  0  0  0
 12  8  1  1  0  0  0
 13 11  2  0  0  0  0
 14 22  1  0  0  0  0
 15 18  1  0  0  0  0
 15  9  2  0  0  0  0
 16  1  1  0  0  0  0
 17  8  1  1  0  0  0
 17 10  1  0  0  0  0
 19 16  1  0  0  0  0
 19  7  1  0  0  0  0
 20 10  1  0  0  0  0
 20 29  1  1  0  0  0
 21  4  1  0  0  0  0
 22 21  2  0  0  0  0
 22 13  1  0  0  0  0
 23 14  2  0  0  0  0
 25  5  1  0  0  0  0
 27 14  1  0  0  0  0
 27  2  1  0  0  0  0
 28  9  1  6  0  0  0
 28 23  1  0  0  0  0
 29 30  1  0  0  0  0
 30 32  1  0  0  0  0
 31 30  2  0  0  0  0
M  END
>  <MODEL>
3

>  <REMARK>
 VINA RESULT:      -6.5      3.078      9.171
  Name = 
  1 active torsions:
  status: ('A' for Active; 'I' for Inactive)
    1  A    between atoms: C_20  and  N_29
                            x       y       z     vdW  Elec       q    Type
                         _______ _______ _______ _____ _____    ______ ____

>  <TORSDO>
F 1

$$$$
=
 OpenBabel11122412573D

 32 37  0  0  1  0  0  0  0  0999 V2000
  161.9610  210.7660  154.1320 C   0  0  0  0  0  2  0  0  0  0  0  0
  161.0570  206.8070  150.0760 C   0  0  1  0  0  3  0  0  0  0  0  0
  160.3760  202.2710  151.9520 C   0  0  0  0  0  3  0  0  0  0  0  0
  160.5530  201.6960  150.6930 C   0  0  0  0  0  3  0  0  0  0  0  0
  161.3220  206.8940  147.5700 C   0  0  0  0  0  0  0  0  0  0  0  0
  161.6130  206.1790  146.3240 C   0  0  0  0  0  0  0  0  0  0  0  0
  161.9880  208.5000  151.7230 N   0  0  2  0  0  0  0  0  0  0  0  0
  160.7170  206.5090  152.5190 C   0  0  0  0  0  2  0  0  0  0  0  0
  161.9700  204.3290  145.0790 C   0  0  0  0  0  0  0  0  0  0  0  0
  161.0610  208.4030  154.0410 C   0  0  0  0  0  2  0  0  0  0  0  0
  160.5990  203.6370  152.1320 C   0  0  0  0  0  3  0  0  0  0  0  0
  161.3530  205.8970  151.2700 C   0  0  1  0  0  3  0  0  0  0  0  0
  160.9770  204.4500  151.0520 C   0  0  0  0  0  0  0  0  0  0  0  0
  161.5830  204.7010  148.6430 C   0  0  0  0  0  0  0  0  0  0  0  0
  161.1850  205.1770  144.4310 C   0  0  0  0  0  3  0  0  0  0  0  0
  162.8550  210.4380  152.9340 C   0  0  0  0  0  2  0  0  0  0  0  0
  160.8640  208.0370  152.5710 C   0  0  1  0  0  3  0  0  0  0  0  0
  160.9290  206.3220  145.2370 N   0  0  0  0  0  0  0  0  0  0  0  0
  162.0570  209.9580  151.7290 C   0  0  0  0  0  2  0  0  0  0  0  0
  160.7290  209.8700  154.2810 C   0  0  1  0  0  3  0  0  0  0  0  0
  160.9560  202.4880  149.6170 C   0  0  0  0  0  3  0  0  0  0  0  0
  161.1750  203.8640  149.7880 C   0  0  0  0  0  0  0  0  0  0  0  0
  161.9650  204.1360  147.5260 N   0  0  0  0  0  0  0  0  0  0  0  0
  161.7730  208.1520  150.3070 C   0  0  0  0  0  2  0  0  0  0  0  0
  160.8340  208.3070  147.5020 C   0  0  0  0  0  1  0  0  0  0  0  0
  162.4650  203.0460  144.5140 C   0  0  0  0  0  1  0  0  0  0  0  0
  161.4060  206.1920  148.7290 C   0  0  0  0  0  0  0  0  0  0  0  0
  162.3990  204.9230  146.3720 C   0  0  2  0  0  3  0  0  0  0  0  0
  160.1710  210.0440  155.6120 N   0  0  0  0  0  2  0  0  0  0  0  0
  159.0640  210.9080  155.8770 C   0  0  0  0  0  0  0  0  0  0  0  0
  158.5370  211.5800  154.9520 O   0  0  0  0  0  0  0  0  0  0  0  0
  158.5310  211.0180  157.2610 C   0  0  0  0  0  1  0  0  0  0  0  0
  1 20  1  0  0  0  0
  2 24  1  1  0  0  0
  2 12  1  0  0  0  0
  3 11  1  0  0  0  0
  4  3  2  0  0  0  0
  5 27  2  0  0  0  0
  6 28  1  0  0  0  0
  6  5  1  0  0  0  0
  7 24  1  6  0  0  0
  7 19  1  0  0  0  0
  7 17  1  0  0  0  0
 10 20  1  0  0  0  0
 12  8  1  1  0  0  0
 13 12  1  0  0  0  0
 13 11  2  0  0  0  0
 14 27  1  0  0  0  0
 14 22  1  0  0  0  0
 15  9  2  0  0  0  0
 15 18  1  0  0  0  0
 16  1  1  0  0  0  0
 17  8  1  1  0  0  0
 17 10  1  0  0  0  0
 18  6  2  0  0  0  0
 19 16  1  0  0  0  0
 20 29  1  1  0  0  0
 21 22  2  0  0  0  0
 21  4  1  0  0  0  0
 22 13  1  0  0  0  0
 23 14  2  0  0  0  0
 25  5  1  0  0  0  0
 26  9  1  0  0  0  0
 27  2  1  0  0  0  0
 28  9  1  6  0  0  0
 28 23  1  0  0  0  0
 29 30  1  0  0  0  0
 30 32  1  0  0  0  0
 31 30  2  0  0  0  0
M  END
>  <MODEL>
4

>  <REMARK>
 VINA RESULT:      -5.6      2.976      8.923
  Name = 
  1 active torsions:
  status: ('A' for Active; 'I' for Inactive)
    1  A    between atoms: C_20  and  N_29
                            x       y       z     vdW  Elec       q    Type
                         _______ _______ _______ _____ _____    ______ ____

>  <TORSDO>
F 1

$$$$
