=
 OpenBabel11122413153D

 31 35  0  0  1  0  0  0  0  0999 V2000
  160.2760  208.0950  155.8260 C   0  0  0  0  0  0  0  0  0  0  0  0
  161.4760  209.0860  152.4040 N   0  0  0  0  0  0  0  0  0  0  0  0
  161.3690  207.9370  151.5260 C   0  0  0  0  0  0  0  0  0  0  0  0
  160.8230  205.5970  151.1240 C   0  0  0  0  0  0  0  0  0  0  0  0
  160.8300  209.1140  153.6910 C   0  0  0  0  0  0  0  0  0  0  0  0
  159.5340  209.2270  156.1770 C   0  0  0  0  0  3  0  0  0  0  0  0
  160.9940  206.6700  152.0030 C   0  0  0  0  0  3  0  0  0  0  0  0
  160.4820  211.1670  151.7780 N   0  0  0  0  0  0  0  0  0  0  0  0
  160.3750  206.9500  156.7660 C   0  0  0  0  0  1  0  0  0  0  0  0
  161.9370  209.3510  149.6450 O   0  0  0  0  0  0  0  0  0  0  0  0
  160.4590  204.3510  151.6130 O   0  0  0  0  0  1  0  0  0  0  0  0
  160.0590  211.4650  153.1540 C   0  0  0  0  0  2  0  0  0  0  0  0
  161.7480  210.4190  151.8400 C   0  0  2  0  0  3  0  0  0  0  0  0
  160.9260  208.0410  154.5900 C   0  0  0  0  0  3  0  0  0  0  0  0
  161.0110  205.7820  149.7530 C   0  0  0  0  0  3  0  0  0  0  0  0
  160.0840  210.2540  154.0540 C   0  0  0  0  0  0  0  0  0  0  0  0
  159.4460  210.3070  155.2960 C   0  0  0  0  0  3  0  0  0  0  0  0
  162.4980  210.3390  150.4990 C   0  0  0  0  0  2  0  0  0  0  0  0
  161.5680  208.1050  150.1440 C   0  0  0  0  0  0  0  0  0  0  0  0
  161.3810  207.0360  149.2630 C   0  0  0  0  0  3  0  0  0  0  0  0
  160.6940  212.4580  151.1330 C   0  0  0  0  0  2  0  0  0  0  0  0
  159.0610  214.3540  151.2250 C   0  0  0  0  0  1  0  0  0  0  0  0
  159.3690  213.0010  150.6090 C   0  0  1  0  0  3  0  0  0  0  0  0
  159.4250  214.1040  146.4150 C   0  0  0  0  0  0  0  0  0  0  0  0
  160.6450  212.9730  148.4580 C   0  0  0  0  0  2  0  0  0  0  0  0
  157.0340  213.2260  148.9030 O   0  0  0  0  0  0  0  0  0  0  0  0
  159.4940  214.3180  145.0120 N   0  0  0  0  0  1  0  0  0  0  0  0
  160.8750  214.4530  147.4280 S   0  0  0  0  0  0  0  0  0  0  0  0
  158.1730  213.3270  148.3770 C   0  0  0  0  0  0  0  0  0  0  0  0
  159.3650  213.0720  149.1470 N   0  0  0  0  0  0  0  0  0  0  0  0
  158.2770  213.6900  146.9550 C   0  0  0  0  0  3  0  0  0  0  0  0
  1  6  1  0  0  0  0
  1  9  1  0  0  0  0
  2  5  1  0  0  0  0
  3  7  1  0  0  0  0
  3  2  1  0  0  0  0
  4 11  1  0  0  0  0
  4  7  2  0  0  0  0
  5 16  2  0  0  0  0
  5 14  1  0  0  0  0
  8 13  1  0  0  0  0
  8 12  1  0  0  0  0
 10 19  1  0  0  0  0
 10 18  1  0  0  0  0
 12 16  1  0  0  0  0
 13 18  1  6  0  0  0
 13  2  1  0  0  0  0
 14  1  2  0  0  0  0
 15  4  1  0  0  0  0
 16 17  1  0  0  0  0
 17  6  2  0  0  0  0
 19  3  2  0  0  0  0
 20 15  2  0  0  0  0
 20 19  1  0  0  0  0
 21  8  1  0  0  0  0
 23 21  1  0  0  0  0
 23 22  1  1  0  0  0
 24 31  2  0  0  0  0
 24 28  1  0  0  0  0
 25 30  1  0  0  0  0
 27 24  1  0  0  0  0
 28 25  1  0  0  0  0
 29 26  2  0  0  0  0
 29 30  1  0  0  0  0
 30 23  1  0  0  0  0
 31 29  1  0  0  0  0
M  END
>  <MODEL>
1

>  <REMARK>
 VINA RESULT:      -6.5      0.000      0.000
  Name = 
  3 active torsions:
  status: ('A' for Active; 'I' for Inactive)
    1  A    between atoms: C_5  and  C_16
    2  A    between atoms: C_5  and  N_30
    3  A    between atoms: N_10  and  C_16
                            x       y       z     vdW  Elec       q    Type
                         _______ _______ _______ _____ _____    ______ ____

>  <TORSDO>
F 3

$$$$
=
 OpenBabel11122413153D

 31 35  0  0  1  0  0  0  0  0999 V2000
  162.2030  210.1500  149.2400 C   0  0  0  0  0  0  0  0  0  0  0  0
  161.6410  207.7530  152.0810 N   0  0  0  0  0  0  0  0  0  0  0  0
  161.1080  208.4910  153.2100 C   0  0  0  0  0  0  0  0  0  0  0  0
  160.3980  210.5690  154.2620 C   0  0  0  0  0  0  0  0  0  0  0  0
  161.6880  208.3260  150.7600 C   0  0  0  0  0  0  0  0  0  0  0  0
  161.7380  209.3890  148.1640 C   0  0  0  0  0  3  0  0  0  0  0  0
  160.9850  209.8900  153.1920 C   0  0  0  0  0  3  0  0  0  0  0  0
  160.5040  205.8110  151.2780 N   0  0  0  0  0  0  0  0  0  0  0  0
  162.7190  211.5240  149.0110 C   0  0  0  0  0  1  0  0  0  0  0  0
  160.7340  206.4000  154.3700 O   0  0  0  0  0  0  0  0  0  0  0  0
  160.2910  211.9530  154.2300 O   0  0  0  0  0  1  0  0  0  0  0  0
  160.7940  206.1310  149.8720 C   0  0  0  0  0  2  0  0  0  0  0  0
  161.6330  206.2810  152.0960 C   0  0  2  0  0  3  0  0  0  0  0  0
  162.1830  209.6200  150.5320 C   0  0  0  0  0  3  0  0  0  0  0  0
  159.9120  209.8570  155.3590 C   0  0  0  0  0  3  0  0  0  0  0  0
  161.2250  207.5620  149.6700 C   0  0  0  0  0  0  0  0  0  0  0  0
  161.2580  208.0950  148.3780 C   0  0  0  0  0  3  0  0  0  0  0  0
  161.6510  205.7150  153.5260 C   0  0  0  0  0  2  0  0  0  0  0  0
  160.6270  207.7870  154.3280 C   0  0  0  0  0  0  0  0  0  0  0  0
  160.0240  208.4650  155.3910 C   0  0  0  0  0  3  0  0  0  0  0  0
  160.4040  204.3570  151.3470 C   0  0  0  0  0  2  0  0  0  0  0  0
  162.2350  202.6500  151.3900 C   0  0  0  0  0  1  0  0  0  0  0  0
  161.5440  203.7190  150.5620 C   0  0  1  0  0  3  0  0  0  0  0  0
  160.9110  201.6270  146.8160 C   0  0  0  0  0  0  0  0  0  0  0  0
  160.1990  202.0130  149.3240 C   0  0  0  0  0  2  0  0  0  0  0  0
  162.0980  204.7950  147.9260 O   0  0  0  0  0  0  0  0  0  0  0  0
  160.5490  200.9720  145.6080 N   0  0  0  0  0  1  0  0  0  0  0  0
  160.9560  200.6780  148.3480 S   0  0  0  0  0  0  0  0  0  0  0  0
  161.5090  203.6860  148.0090 C   0  0  0  0  0  0  0  0  0  0  0  0
  161.0730  203.1780  149.2860 N   0  0  0  0  0  0  0  0  0  0  0  0
  161.2490  202.9180  146.7820 C   0  0  0  0  0  3  0  0  0  0  0  0
  1 14  1  0  0  0  0
  2 13  1  0  0  0  0
  2  3  1  0  0  0  0
  3 19  1  0  0  0  0
  4 15  2  0  0  0  0
  5  2  1  0  0  0  0
  6 17  1  0  0  0  0
  6  1  2  0  0  0  0
  7  3  2  0  0  0  0
  7  4  1  0  0  0  0
  8 21  1  0  0  0  0
  8 13  1  0  0  0  0
  9  1  1  0  0  0  0
 11  4  1  0  0  0  0
 12  8  1  0  0  0  0
 13 18  1  1  0  0  0
 14  5  2  0  0  0  0
 15 20  1  0  0  0  0
 16 12  1  0  0  0  0
 16  5  1  0  0  0  0
 17 16  2  0  0  0  0
 18 10  1  0  0  0  0
 19 10  1  0  0  0  0
 19 20  2  0  0  0  0
 23 21  1  0  0  0  0
 23 22  1  1  0  0  0
 24 28  1  0  0  0  0
 26 29  2  0  0  0  0
 27 24  1  0  0  0  0
 28 25  1  0  0  0  0
 29 30  1  0  0  0  0
 30 25  1  0  0  0  0
 30 23  1  0  0  0  0
 31 24  2  0  0  0  0
 31 29  1  0  0  0  0
M  END
>  <MODEL>
2

>  <REMARK>
 VINA RESULT:      -6.5      4.301      8.185
  Name = 
  3 active torsions:
  status: ('A' for Active; 'I' for Inactive)
    1  A    between atoms: C_5  and  C_16
    2  A    between atoms: C_5  and  N_30
    3  A    between atoms: N_10  and  C_16
                            x       y       z     vdW  Elec       q    Type
                         _______ _______ _______ _____ _____    ______ ____

>  <TORSDO>
F 3

$$$$
=
 OpenBabel11122413153D

 31 35  0  0  1  0  0  0  0  0999 V2000
  160.9560  206.5710  146.8380 C   0  0  0  0  0  0  0  0  0  0  0  0
  160.7260  204.8470  150.1710 N   0  0  0  0  0  0  0  0  0  0  0  0
  160.8540  203.4170  149.9610 C   0  0  0  0  0  0  0  0  0  0  0  0
  161.1160  201.4860  148.5000 C   0  0  0  0  0  0  0  0  0  0  0  0
  161.0600  205.7930  149.1370 C   0  0  0  0  0  0  0  0  0  0  0  0
  161.7620  207.6650  147.1690 C   0  0  0  0  0  3  0  0  0  0  0  0
  160.9150  202.8580  148.6740 C   0  0  0  0  0  3  0  0  0  0  0  0
  162.1380  205.9560  151.7470 N   0  0  0  0  0  0  0  0  0  0  0  0
  160.4760  206.3970  145.4440 C   0  0  0  0  0  1  0  0  0  0  0  0
  160.9460  203.0980  152.3580 O   0  0  0  0  0  0  0  0  0  0  0  0
  161.1670  200.9490  147.2210 O   0  0  0  0  0  1  0  0  0  0  0  0
  162.2790  207.1470  150.8950 C   0  0  0  0  0  2  0  0  0  0  0  0
  160.7930  205.3980  151.5340 C   0  0  2  0  0  3  0  0  0  0  0  0
  160.6030  205.6420  147.8190 C   0  0  0  0  0  3  0  0  0  0  0  0
  161.2730  200.6570  149.6120 C   0  0  0  0  0  3  0  0  0  0  0  0
  161.8680  206.9010  149.4650 C   0  0  0  0  0  0  0  0  0  0  0  0
  162.2090  207.8330  148.4820 C   0  0  0  0  0  3  0  0  0  0  0  0
  160.3620  204.3720  152.5970 C   0  0  0  0  0  2  0  0  0  0  0  0
  161.0000  202.5680  151.0720 C   0  0  0  0  0  0  0  0  0  0  0  0
  161.2170  201.1990  150.8980 C   0  0  0  0  0  3  0  0  0  0  0  0
  162.2760  206.4250  153.1220 C   0  0  0  0  0  2  0  0  0  0  0  0
  160.4130  206.1640  154.7750 C   0  0  0  0  0  1  0  0  0  0  0  0
  160.9470  206.9860  153.6150 C   0  0  1  0  0  3  0  0  0  0  0  0
  160.4450  211.0810  154.9520 C   0  0  0  0  0  0  0  0  0  0  0  0
  161.5460  208.7150  155.3190 C   0  0  0  0  0  2  0  0  0  0  0  0
  160.4220  209.2600  151.8920 O   0  0  0  0  0  0  0  0  0  0  0  0
  160.4380  212.4270  155.4080 N   0  0  0  0  0  1  0  0  0  0  0  0
  160.3050  209.7470  156.1570 S   0  0  0  0  0  0  0  0  0  0  0  0
  160.6530  209.4720  153.1120 C   0  0  0  0  0  0  0  0  0  0  0  0
  161.0700  208.3980  153.9800 N   0  0  0  0  0  0  0  0  0  0  0  0
  160.5130  210.8370  153.6420 C   0  0  0  0  0  3  0  0  0  0  0  0
  1  6  2  0  0  0  0
  1 14  1  0  0  0  0
  2 13  1  0  0  0  0
  3  2  1  0  0  0  0
  3 19  1  0  0  0  0
  4  7  1  0  0  0  0
  4 15  2  0  0  0  0
  5 16  1  0  0  0  0
  5  2  1  0  0  0  0
  6 17  1  0  0  0  0
  7  3  2  0  0  0  0
  8 21  1  0  0  0  0
  9  1  1  0  0  0  0
 10 18  1  0  0  0  0
 11  4  1  0  0  0  0
 12  8  1  0  0  0  0
 13  8  1  0  0  0  0
 13 18  1  1  0  0  0
 14  5  2  0  0  0  0
 15 20  1  0  0  0  0
 16 12  1  0  0  0  0
 17 16  2  0  0  0  0
 19 10  1  0  0  0  0
 20 19  2  0  0  0  0
 21 23  1  0  0  0  0
 23 30  1  0  0  0  0
 23 22  1  1  0  0  0
 24 27  1  0  0  0  0
 24 28  1  0  0  0  0
 25 28  1  0  0  0  0
 26 29  2  0  0  0  0
 29 31  1  0  0  0  0
 29 30  1  0  0  0  0
 30 25  1  0  0  0  0
 31 24  2  0  0  0  0
M  END
>  <MODEL>
3

>  <REMARK>
 VINA RESULT:      -6.3      4.251      7.177
  Name = 
  3 active torsions:
  status: ('A' for Active; 'I' for Inactive)
    1  A    between atoms: C_5  and  C_16
    2  A    between atoms: C_5  and  N_30
    3  A    between atoms: N_10  and  C_16
                            x       y       z     vdW  Elec       q    Type
                         _______ _______ _______ _____ _____    ______ ____

>  <TORSDO>
F 3

$$$$
=
 OpenBabel11122413153D

 31 35  0  0  1  0  0  0  0  0999 V2000
  161.1380  202.2820  150.8630 C   0  0  0  0  0  0  0  0  0  0  0  0
  161.8910  205.4090  148.9170 N   0  0  0  0  0  0  0  0  0  0  0  0
  161.5820  205.1690  147.5210 C   0  0  0  0  0  0  0  0  0  0  0  0
  160.8320  203.7170  145.7160 C   0  0  0  0  0  0  0  0  0  0  0  0
  161.4420  204.5130  149.9530 C   0  0  0  0  0  0  0  0  0  0  0  0
  160.5310  202.8240  151.9990 C   0  0  0  0  0  3  0  0  0  0  0  0
  161.1980  203.9030  147.0510 C   0  0  0  0  0  3  0  0  0  0  0  0
  160.9560  207.2980  150.0430 N   0  0  0  0  0  0  0  0  0  0  0  0
  161.2960  200.8100  150.7360 C   0  0  0  0  0  1  0  0  0  0  0  0
  161.9630  207.5150  147.0600 O   0  0  0  0  0  0  0  0  0  0  0  0
  160.4610  202.4560  145.2680 O   0  0  0  0  0  1  0  0  0  0  0  0
  160.7570  206.5490  151.2930 C   0  0  0  0  0  2  0  0  0  0  0  0
  162.1650  206.7780  149.3850 C   0  0  2  0  0  3  0  0  0  0  0  0
  161.5960  203.1220  149.8460 C   0  0  0  0  0  3  0  0  0  0  0  0
  160.8300  204.8000  144.8350 C   0  0  0  0  0  3  0  0  0  0  0  0
  160.8330  205.0540  151.1030 C   0  0  0  0  0  0  0  0  0  0  0  0
  160.3870  204.2090  152.1220 C   0  0  0  0  0  3  0  0  0  0  0  0
  162.7060  207.6770  148.2610 C   0  0  0  0  0  2  0  0  0  0  0  0
  161.5890  206.2490  146.6190 C   0  0  0  0  0  0  0  0  0  0  0  0
  161.2070  206.0660  145.2870 C   0  0  0  0  0  3  0  0  0  0  0  0
  161.1560  208.6890  150.4340 C   0  0  0  0  0  2  0  0  0  0  0  0
  163.0250  209.6830  151.7700 C   0  0  0  0  0  1  0  0  0  0  0  0
  161.8250  208.7540  151.8020 C   0  0  1  0  0  3  0  0  0  0  0  0
  159.6910  210.4520  155.1730 C   0  0  0  0  0  0  0  0  0  0  0  0
  159.9980  210.2830  152.5620 C   0  0  0  0  0  2  0  0  0  0  0  0
  161.4250  207.4500  154.3620 O   0  0  0  0  0  0  0  0  0  0  0  0
  158.8580  210.9750  156.2000 N   0  0  0  0  0  1  0  0  0  0  0  0
  160.2400  211.5450  153.8490 S   0  0  0  0  0  0  0  0  0  0  0  0
  160.8350  208.5400  154.1460 C   0  0  0  0  0  0  0  0  0  0  0  0
  160.8740  209.1520  152.8400 N   0  0  0  0  0  0  0  0  0  0  0  0
  160.0810  209.1780  155.2360 C   0  0  0  0  0  3  0  0  0  0  0  0
  1  6  1  0  0  0  0
  2 13  1  0  0  0  0
  2  5  1  0  0  0  0
  3  2  1  0  0  0  0
  4  7  2  0  0  0  0
  5 16  2  0  0  0  0
  6 17  2  0  0  0  0
  7  3  1  0  0  0  0
  8 21  1  0  0  0  0
  8 12  1  0  0  0  0
  9  1  1  0  0  0  0
 10 18  1  0  0  0  0
 11  4  1  0  0  0  0
 13 18  1  6  0  0  0
 13  8  1  0  0  0  0
 14  5  1  0  0  0  0
 14  1  2  0  0  0  0
 15 20  2  0  0  0  0
 15  4  1  0  0  0  0
 16 12  1  0  0  0  0
 16 17  1  0  0  0  0
 19 10  1  0  0  0  0
 19  3  2  0  0  0  0
 20 19  1  0  0  0  0
 21 23  1  0  0  0  0
 23 22  1  6  0  0  0
 23 30  1  0  0  0  0
 24 31  2  0  0  0  0
 24 27  1  0  0  0  0
 25 30  1  0  0  0  0
 25 28  1  0  0  0  0
 28 24  1  0  0  0  0
 29 26  2  0  0  0  0
 29 31  1  0  0  0  0
 30 29  1  0  0  0  0
M  END
>  <MODEL>
4

>  <REMARK>
 VINA RESULT:      -6.3      3.856      6.510
  Name = 
  3 active torsions:
  status: ('A' for Active; 'I' for Inactive)
    1  A    between atoms: C_5  and  C_16
    2  A    between atoms: C_5  and  N_30
    3  A    between atoms: N_10  and  C_16
                            x       y       z     vdW  Elec       q    Type
                         _______ _______ _______ _____ _____    ______ ____

>  <TORSDO>
F 3

$$$$
=
 OpenBabel11122413153D

 31 35  0  0  1  0  0  0  0  0999 V2000
  162.1080  211.9990  148.8480 C   0  0  0  0  0  0  0  0  0  0  0  0
  161.1700  210.4990  152.1650 N   0  0  0  0  0  0  0  0  0  0  0  0
  160.1320  211.3160  152.7640 C   0  0  0  0  0  0  0  0  0  0  0  0
  158.6550  213.2520  152.7400 C   0  0  0  0  0  0  0  0  0  0  0  0
  161.5330  210.6400  150.7770 C   0  0  0  0  0  0  0  0  0  0  0  0
  162.2220  210.8460  148.0660 C   0  0  0  0  0  3  0  0  0  0  0  0
  159.7090  212.5240  152.1840 C   0  0  0  0  0  3  0  0  0  0  0  0
  160.8460  208.1450  151.9170 N   0  0  0  0  0  0  0  0  0  0  0  0
  162.3460  213.3340  148.2420 C   0  0  0  0  0  1  0  0  0  0  0  0
  159.8690  209.6580  154.5080 O   0  0  0  0  0  0  0  0  0  0  0  0
  158.2550  214.4470  152.1580 O   0  0  0  0  0  1  0  0  0  0  0  0
  161.5170  208.1150  150.6080 C   0  0  0  0  0  2  0  0  0  0  0  0
  161.4910  209.1810  152.7380 C   0  0  2  0  0  3  0  0  0  0  0  0
  161.7700  211.8970  150.1990 C   0  0  0  0  0  3  0  0  0  0  0  0
  157.9980  212.7750  153.8760 C   0  0  0  0  0  3  0  0  0  0  0  0
  161.6550  209.4810  149.9850 C   0  0  0  0  0  0  0  0  0  0  0  0
  162.0050  209.5890  148.6360 C   0  0  0  0  0  3  0  0  0  0  0  0
  161.1480  209.1020  154.2350 C   0  0  0  0  0  2  0  0  0  0  0  0
  159.4710  210.8540  153.9160 C   0  0  0  0  0  0  0  0  0  0  0  0
  158.4050  211.5740  154.4620 C   0  0  0  0  0  3  0  0  0  0  0  0
  161.0590  206.8290  152.5100 C   0  0  0  0  0  2  0  0  0  0  0  0
  163.2190  205.5710  152.3680 C   0  0  0  0  0  1  0  0  0  0  0  0
  161.9710  205.9970  151.6150 C   0  0  1  0  0  3  0  0  0  0  0  0
  160.6990  202.1930  149.9670 C   0  0  0  0  0  0  0  0  0  0  0  0
  160.7210  203.8660  152.0020 C   0  0  0  0  0  2  0  0  0  0  0  0
  161.4440  205.4770  148.8110 O   0  0  0  0  0  0  0  0  0  0  0  0
  160.1390  200.9790  149.4840 N   0  0  0  0  0  1  0  0  0  0  0  0
  161.4170  202.2310  151.6200 S   0  0  0  0  0  0  0  0  0  0  0  0
  161.1670  204.5810  149.6490 C   0  0  0  0  0  0  0  0  0  0  0  0
  161.2640  204.8410  151.0640 N   0  0  0  0  0  0  0  0  0  0  0  0
  160.7190  203.2640  149.1710 C   0  0  0  0  0  3  0  0  0  0  0  0
  1 14  1  0  0  0  0
  2 13  1  0  0  0  0
  2  3  1  0  0  0  0
  3 19  1  0  0  0  0
  4 15  2  0  0  0  0
  5  2  1  0  0  0  0
  6 17  1  0  0  0  0
  6  1  2  0  0  0  0
  7  4  1  0  0  0  0
  7  3  2  0  0  0  0
  8 21  1  0  0  0  0
  8 13  1  0  0  0  0
  9  1  1  0  0  0  0
 11  4  1  0  0  0  0
 12  8  1  0  0  0  0
 13 18  1  1  0  0  0
 14  5  2  0  0  0  0
 15 20  1  0  0  0  0
 16 12  1  0  0  0  0
 16  5  1  0  0  0  0
 17 16  2  0  0  0  0
 18 10  1  0  0  0  0
 19 20  2  0  0  0  0
 19 10  1  0  0  0  0
 23 22  1  1  0  0  0
 23 21  1  0  0  0  0
 24 28  1  0  0  0  0
 26 29  2  0  0  0  0
 27 24  1  0  0  0  0
 28 25  1  0  0  0  0
 29 30  1  0  0  0  0
 30 23  1  0  0  0  0
 30 25  1  0  0  0  0
 31 29  1  0  0  0  0
 31 24  2  0  0  0  0
M  END
>  <MODEL>
5

>  <REMARK>
 VINA RESULT:      -6.0      3.565      8.037
  Name = 
  3 active torsions:
  status: ('A' for Active; 'I' for Inactive)
    1  A    between atoms: C_5  and  C_16
    2  A    between atoms: C_5  and  N_30
    3  A    between atoms: N_10  and  C_16
                            x       y       z     vdW  Elec       q    Type
                         _______ _______ _______ _____ _____    ______ ____

>  <TORSDO>
F 3

$$$$
=
 OpenBabel11122413153D

 31 35  0  0  1  0  0  0  0  0999 V2000
  160.8370  201.9270  149.6640 C   0  0  0  0  0  0  0  0  0  0  0  0
  161.9980  205.4240  150.4090 N   0  0  0  0  0  0  0  0  0  0  0  0
  161.7120  206.2600  149.2590 C   0  0  0  0  0  0  0  0  0  0  0  0
  160.8670  206.5660  146.9950 C   0  0  0  0  0  0  0  0  0  0  0  0
  161.4170  204.1130  150.5500 C   0  0  0  0  0  0  0  0  0  0  0  0
  160.2560  201.5820  150.8880 C   0  0  0  0  0  3  0  0  0  0  0  0
  161.2060  205.7290  148.0610 C   0  0  0  0  0  3  0  0  0  0  0  0
  161.2400  206.0750  152.5790 N   0  0  0  0  0  0  0  0  0  0  0  0
  160.8350  200.9550  148.5410 C   0  0  0  0  0  1  0  0  0  0  0  0
  162.3660  208.2060  150.5420 O   0  0  0  0  0  0  0  0  0  0  0  0
  160.3740  206.0230  145.8170 O   0  0  0  0  0  1  0  0  0  0  0  0
  160.9180  204.6920  152.9630 C   0  0  0  0  0  2  0  0  0  0  0  0
  162.4060  206.0400  151.6820 C   0  0  2  0  0  3  0  0  0  0  0  0
  161.4200  203.1850  149.4970 C   0  0  0  0  0  3  0  0  0  0  0  0
  161.0150  207.9490  147.1190 C   0  0  0  0  0  3  0  0  0  0  0  0
  160.8340  203.7570  151.7830 C   0  0  0  0  0  0  0  0  0  0  0  0
  160.2620  202.4920  151.9470 C   0  0  0  0  0  3  0  0  0  0  0  0
  163.0810  207.4070  151.4750 C   0  0  0  0  0  2  0  0  0  0  0  0
  161.8700  207.6540  149.3640 C   0  0  0  0  0  0  0  0  0  0  0  0
  161.5140  208.4920  148.3040 C   0  0  0  0  0  3  0  0  0  0  0  0
  161.5800  206.7680  153.8170 C   0  0  0  0  0  2  0  0  0  0  0  0
  159.9230  206.7070  155.6940 C   0  0  0  0  0  1  0  0  0  0  0  0
  160.3320  207.4110  154.4120 C   0  0  1  0  0  3  0  0  0  0  0  0
  160.0260  211.6510  155.2670 C   0  0  0  0  0  0  0  0  0  0  0  0
  160.9260  209.2760  155.9680 C   0  0  0  0  0  2  0  0  0  0  0  0
  160.0990  209.5100  152.4240 O   0  0  0  0  0  0  0  0  0  0  0  0
  160.0810  213.0380  155.5770 N   0  0  0  0  0  1  0  0  0  0  0  0
  159.7030  210.4700  156.5900 S   0  0  0  0  0  0  0  0  0  0  0  0
  160.2530  209.8400  153.6290 C   0  0  0  0  0  0  0  0  0  0  0  0
  160.5280  208.8440  154.6350 N   0  0  0  0  0  0  0  0  0  0  0  0
  160.1730  211.2610  154.0000 C   0  0  0  0  0  3  0  0  0  0  0  0
  1  6  1  0  0  0  0
  2  5  1  0  0  0  0
  2 13  1  0  0  0  0
  3 19  1  0  0  0  0
  3  2  1  0  0  0  0
  4 15  2  0  0  0  0
  4  7  1  0  0  0  0
  5 16  2  0  0  0  0
  6 17  2  0  0  0  0
  7  3  2  0  0  0  0
  8 12  1  0  0  0  0
  8 21  1  0  0  0  0
  9  1  1  0  0  0  0
 10 18  1  0  0  0  0
 11  4  1  0  0  0  0
 13 18  1  6  0  0  0
 13  8  1  0  0  0  0
 14  1  2  0  0  0  0
 14  5  1  0  0  0  0
 15 20  1  0  0  0  0
 16 17  1  0  0  0  0
 16 12  1  0  0  0  0
 19 10  1  0  0  0  0
 20 19  2  0  0  0  0
 21 23  1  0  0  0  0
 23 30  1  0  0  0  0
 23 22  1  1  0  0  0
 24 27  1  0  0  0  0
 24 28  1  0  0  0  0
 25 28  1  0  0  0  0
 26 29  2  0  0  0  0
 29 31  1  0  0  0  0
 29 30  1  0  0  0  0
 30 25  1  0  0  0  0
 31 24  2  0  0  0  0
M  END
>  <MODEL>
6

>  <REMARK>
 VINA RESULT:      -5.7      4.202      6.755
  Name = 
  3 active torsions:
  status: ('A' for Active; 'I' for Inactive)
    1  A    between atoms: C_5  and  C_16
    2  A    between atoms: C_5  and  N_30
    3  A    between atoms: N_10  and  C_16
                            x       y       z     vdW  Elec       q    Type
                         _______ _______ _______ _____ _____    ______ ____

>  <TORSDO>
F 3

$$$$
=
 OpenBabel11122413153D

 31 35  0  0  1  0  0  0  0  0999 V2000
  160.7780  207.8330  155.8150 C   0  0  0  0  0  0  0  0  0  0  0  0
  161.4410  208.7800  152.2380 N   0  0  0  0  0  0  0  0  0  0  0  0
  161.3290  207.5900  151.4170 C   0  0  0  0  0  0  0  0  0  0  0  0
  160.9540  205.1980  151.1600 C   0  0  0  0  0  0  0  0  0  0  0  0
  160.9630  208.8060  153.5970 C   0  0  0  0  0  0  0  0  0  0  0  0
  159.9870  208.9090  156.2250 C   0  0  0  0  0  3  0  0  0  0  0  0
  161.1350  206.3170  151.9760 C   0  0  0  0  0  3  0  0  0  0  0  0
  160.1910  210.7390  151.6830 N   0  0  0  0  0  0  0  0  0  0  0  0
  161.0990  206.7400  156.7690 C   0  0  0  0  0  1  0  0  0  0  0  0
  161.5250  208.9690  149.4370 O   0  0  0  0  0  0  0  0  0  0  0  0
  160.7700  203.9460  151.7300 O   0  0  0  0  0  1  0  0  0  0  0  0
  159.9190  211.0560  153.0930 C   0  0  0  0  0  2  0  0  0  0  0  0
  161.5170  210.1070  151.6040 C   0  0  2  0  0  3  0  0  0  0  0  0
  161.2690  207.7830  154.5090 C   0  0  0  0  0  3  0  0  0  0  0  0
  160.9490  205.3400  149.7710 C   0  0  0  0  0  3  0  0  0  0  0  0
  160.1680  209.8910  154.0180 C   0  0  0  0  0  0  0  0  0  0  0  0
  159.6890  209.9400  155.3300 C   0  0  0  0  0  3  0  0  0  0  0  0
  162.0960  210.0360  150.1810 C   0  0  0  0  0  2  0  0  0  0  0  0
  161.3370  207.7170  150.0160 C   0  0  0  0  0  0  0  0  0  0  0  0
  161.1380  206.6000  149.2000 C   0  0  0  0  0  3  0  0  0  0  0  0
  160.2000  212.0160  150.9780 C   0  0  0  0  0  2  0  0  0  0  0  0
  160.1640  214.4130  151.7000 C   0  0  0  0  0  1  0  0  0  0  0  0
  159.4650  213.0690  151.7980 C   0  0  1  0  0  3  0  0  0  0  0  0
  155.5350  214.2190  150.3690 C   0  0  0  0  0  0  0  0  0  0  0  0
  157.7140  212.7750  150.0370 C   0  0  0  0  0  2  0  0  0  0  0  0
  157.2490  213.9040  153.4740 O   0  0  0  0  0  0  0  0  0  0  0  0
  154.2190  214.4420  149.8790 N   0  0  0  0  0  1  0  0  0  0  0  0
  156.9090  214.1760  149.2020 S   0  0  0  0  0  0  0  0  0  0  0  0
  157.0400  213.7320  152.2450 C   0  0  0  0  0  0  0  0  0  0  0  0
  158.0620  213.1720  151.3950 N   0  0  0  0  0  0  0  0  0  0  0  0
  155.7280  214.0900  151.6830 C   0  0  0  0  0  3  0  0  0  0  0  0
  1  6  1  0  0  0  0
  1  9  1  0  0  0  0
  2  5  1  0  0  0  0
  3  7  1  0  0  0  0
  3  2  1  0  0  0  0
  4 11  1  0  0  0  0
  4  7  2  0  0  0  0
  5 16  2  0  0  0  0
  5 14  1  0  0  0  0
  8 12  1  0  0  0  0
 10 19  1  0  0  0  0
 10 18  1  0  0  0  0
 12 16  1  0  0  0  0
 13 18  1  6  0  0  0
 13  8  1  0  0  0  0
 13  2  1  0  0  0  0
 14  1  2  0  0  0  0
 15  4  1  0  0  0  0
 16 17  1  0  0  0  0
 17  6  2  0  0  0  0
 19  3  2  0  0  0  0
 20 15  2  0  0  0  0
 20 19  1  0  0  0  0
 21  8  1  0  0  0  0
 21 23  1  0  0  0  0
 23 22  1  6  0  0  0
 24 31  2  0  0  0  0
 25 30  1  0  0  0  0
 27 24  1  0  0  0  0
 28 25  1  0  0  0  0
 28 24  1  0  0  0  0
 29 26  2  0  0  0  0
 30 23  1  0  0  0  0
 30 29  1  0  0  0  0
 31 29  1  0  0  0  0
M  END
>  <MODEL>
7

>  <REMARK>
 VINA RESULT:      -5.6      2.114      2.502
  Name = 
  3 active torsions:
  status: ('A' for Active; 'I' for Inactive)
    1  A    between atoms: C_5  and  C_16
    2  A    between atoms: C_5  and  N_30
    3  A    between atoms: N_10  and  C_16
                            x       y       z     vdW  Elec       q    Type
                         _______ _______ _______ _____ _____    ______ ____

>  <TORSDO>
F 3

$$$$
=
 OpenBabel11122413153D

 31 35  0  0  1  0  0  0  0  0999 V2000
  161.7220  206.2190  147.4150 C   0  0  0  0  0  0  0  0  0  0  0  0
  162.1730  208.7830  150.1280 N   0  0  0  0  0  0  0  0  0  0  0  0
  161.8230  210.0850  149.5940 C   0  0  0  0  0  0  0  0  0  0  0  0
  161.1020  211.5230  147.7660 C   0  0  0  0  0  0  0  0  0  0  0  0
  161.8310  207.5670  149.4330 C   0  0  0  0  0  0  0  0  0  0  0  0
  161.1260  205.1810  148.1380 C   0  0  0  0  0  3  0  0  0  0  0  0
  161.5100  210.2730  148.2380 C   0  0  0  0  0  3  0  0  0  0  0  0
  161.1560  208.0040  152.1440 N   0  0  0  0  0  0  0  0  0  0  0  0
  161.9770  206.0600  145.9610 C   0  0  0  0  0  1  0  0  0  0  0  0
  162.0200  211.0210  151.8180 O   0  0  0  0  0  0  0  0  0  0  0  0
  160.8020  211.6930  146.4210 O   0  0  0  0  0  1  0  0  0  0  0  0
  161.0620  206.6210  151.6510 C   0  0  0  0  0  2  0  0  0  0  0  0
  162.3700  208.6100  151.5760 C   0  0  2  0  0  3  0  0  0  0  0  0
  162.0770  207.4050  148.0610 C   0  0  0  0  0  3  0  0  0  0  0  0
  160.9880  212.6000  148.6480 C   0  0  0  0  0  3  0  0  0  0  0  0
  161.2340  206.5150  150.1570 C   0  0  0  0  0  0  0  0  0  0  0  0
  160.8910  205.3260  149.5070 C   0  0  0  0  0  3  0  0  0  0  0  0
  162.7990  209.9180  152.2630 C   0  0  0  0  0  2  0  0  0  0  0  0
  161.7180  211.1820  150.4690 C   0  0  0  0  0  0  0  0  0  0  0  0
  161.2940  212.4280  149.9990 C   0  0  0  0  0  3  0  0  0  0  0  0
  161.2740  207.9070  153.5950 C   0  0  0  0  0  2  0  0  0  0  0  0
  159.6320  207.6650  155.4700 C   0  0  0  0  0  1  0  0  0  0  0  0
  160.0300  208.4880  154.2580 C   0  0  1  0  0  3  0  0  0  0  0  0
  159.8680  212.5310  155.8180 C   0  0  0  0  0  0  0  0  0  0  0  0
  161.0790  210.1920  155.7590 C   0  0  0  0  0  2  0  0  0  0  0  0
  158.9620  210.7870  152.8490 O   0  0  0  0  0  0  0  0  0  0  0  0
  159.9700  213.8650  156.2990 N   0  0  0  0  0  1  0  0  0  0  0  0
  160.1260  211.1640  156.9650 S   0  0  0  0  0  0  0  0  0  0  0  0
  159.5450  210.9760  153.9480 C   0  0  0  0  0  0  0  0  0  0  0  0
  160.2270  209.8940  154.6150 N   0  0  0  0  0  0  0  0  0  0  0  0
  159.5420  212.3220  154.5410 C   0  0  0  0  0  3  0  0  0  0  0  0
  1 14  2  0  0  0  0
  1  6  1  0  0  0  0
  2 13  1  0  0  0  0
  3  2  1  0  0  0  0
  3 19  1  0  0  0  0
  4  7  1  0  0  0  0
  4 15  2  0  0  0  0
  5  2  1  0  0  0  0
  5 16  2  0  0  0  0
  6 17  2  0  0  0  0
  7  3  2  0  0  0  0
  8 21  1  0  0  0  0
  9  1  1  0  0  0  0
 10 18  1  0  0  0  0
 11  4  1  0  0  0  0
 12  8  1  0  0  0  0
 13  8  1  0  0  0  0
 13 18  1  1  0  0  0
 14  5  1  0  0  0  0
 15 20  1  0  0  0  0
 16 12  1  0  0  0  0
 17 16  1  0  0  0  0
 19 10  1  0  0  0  0
 20 19  2  0  0  0  0
 21 23  1  0  0  0  0
 23 30  1  0  0  0  0
 23 22  1  1  0  0  0
 24 27  1  0  0  0  0
 24 28  1  0  0  0  0
 25 28  1  0  0  0  0
 26 29  2  0  0  0  0
 29 31  1  0  0  0  0
 29 30  1  0  0  0  0
 30 25  1  0  0  0  0
 31 24  2  0  0  0  0
M  END
>  <MODEL>
8

>  <REMARK>
 VINA RESULT:      -5.5      3.345      6.761
  Name = 
  3 active torsions:
  status: ('A' for Active; 'I' for Inactive)
    1  A    between atoms: C_5  and  C_16
    2  A    between atoms: C_5  and  N_30
    3  A    between atoms: N_10  and  C_16
                            x       y       z     vdW  Elec       q    Type
                         _______ _______ _______ _____ _____    ______ ____

>  <TORSDO>
F 3

$$$$
=
 OpenBabel11122413153D

 31 35  0  0  1  0  0  0  0  0999 V2000
  161.5810  212.9690  148.8050 C   0  0  0  0  0  0  0  0  0  0  0  0
  161.6950  210.0250  151.1390 N   0  0  0  0  0  0  0  0  0  0  0  0
  160.8250  210.2960  152.2670 C   0  0  0  0  0  0  0  0  0  0  0  0
  159.2990  211.7480  153.4900 C   0  0  0  0  0  0  0  0  0  0  0  0
  161.6460  210.8230  149.9400 C   0  0  0  0  0  0  0  0  0  0  0  0
  161.5330  212.3170  147.5690 C   0  0  0  0  0  3  0  0  0  0  0  0
  160.1920  211.5380  152.4360 C   0  0  0  0  0  3  0  0  0  0  0  0
  161.4420  208.0030  149.8920 N   0  0  0  0  0  0  0  0  0  0  0  0
  161.5670  214.4530  148.8630 C   0  0  0  0  0  1  0  0  0  0  0  0
  161.1530  208.0240  153.0340 O   0  0  0  0  0  0  0  0  0  0  0  0
  158.6880  212.9840  153.6450 O   0  0  0  0  0  1  0  0  0  0  0  0
  161.7190  208.6700  148.6110 C   0  0  0  0  0  2  0  0  0  0  0  0
  162.2350  208.6700  150.9360 C   0  0  2  0  0  3  0  0  0  0  0  0
  161.6420  212.2260  149.9850 C   0  0  0  0  0  3  0  0  0  0  0  0
  159.0150  210.7120  154.3810 C   0  0  0  0  0  3  0  0  0  0  0  0
  161.6030  210.1720  148.6910 C   0  0  0  0  0  0  0  0  0  0  0  0
  161.5530  210.9220  147.5120 C   0  0  0  0  0  3  0  0  0  0  0  0
  162.3310  207.8810  152.2530 C   0  0  0  0  0  2  0  0  0  0  0  0
  160.5410  209.2650  153.1810 C   0  0  0  0  0  0  0  0  0  0  0  0
  159.6340  209.4700  154.2250 C   0  0  0  0  0  3  0  0  0  0  0  0
  161.8840  206.6220  149.7300 C   0  0  0  0  0  2  0  0  0  0  0  0
  160.4620  206.4330  147.6790 C   0  0  0  0  0  1  0  0  0  0  0  0
  160.8070  205.8100  149.0190 C   0  0  1  0  0  3  0  0  0  0  0  0
  161.1850  201.5720  148.1810 C   0  0  0  0  0  0  0  0  0  0  0  0
  161.9360  204.0430  147.6580 C   0  0  0  0  0  2  0  0  0  0  0  0
  160.3890  203.6770  150.9410 O   0  0  0  0  0  0  0  0  0  0  0  0
  161.4660  200.2050  147.9110 N   0  0  0  0  0  1  0  0  0  0  0  0
  161.0240  202.7230  146.8020 S   0  0  0  0  0  0  0  0  0  0  0  0
  160.8390  203.3810  149.8030 C   0  0  0  0  0  0  0  0  0  0  0  0
  161.2100  204.4120  148.8660 N   0  0  0  0  0  0  0  0  0  0  0  0
  161.0060  201.9640  149.4440 C   0  0  0  0  0  3  0  0  0  0  0  0
  1  9  1  0  0  0  0
  1 14  1  0  0  0  0
  2  3  1  0  0  0  0
  3  7  2  0  0  0  0
  3 19  1  0  0  0  0
  4 11  1  0  0  0  0
  4 15  2  0  0  0  0
  5 14  2  0  0  0  0
  5  2  1  0  0  0  0
  6  1  2  0  0  0  0
  7  4  1  0  0  0  0
  8 13  1  0  0  0  0
 10 19  1  0  0  0  0
 12 16  1  0  0  0  0
 12  8  1  0  0  0  0
 13  2  1  0  0  0  0
 13 18  1  1  0  0  0
 16  5  1  0  0  0  0
 17  6  1  0  0  0  0
 17 16  2  0  0  0  0
 18 10  1  0  0  0  0
 19 20  2  0  0  0  0
 20 15  1  0  0  0  0
 21  8  1  0  0  0  0
 23 22  1  6  0  0  0
 23 21  1  0  0  0  0
 24 31  2  0  0  0  0
 25 30  1  0  0  0  0
 27 24  1  0  0  0  0
 28 25  1  0  0  0  0
 28 24  1  0  0  0  0
 29 26  2  0  0  0  0
 30 23  1  0  0  0  0
 30 29  1  0  0  0  0
 31 29  1  0  0  0  0
M  END
>  <MODEL>
9

>  <REMARK>
 VINA RESULT:      -5.4      3.617      7.982
  Name = 
  3 active torsions:
  status: ('A' for Active; 'I' for Inactive)
    1  A    between atoms: C_5  and  C_16
    2  A    between atoms: C_5  and  N_30
    3  A    between atoms: N_10  and  C_16
                            x       y       z     vdW  Elec       q    Type
                         _______ _______ _______ _____ _____    ______ ____

>  <TORSDO>
F 3

$$$$
