=
 OpenBabel11122412323D

 30 35  0  0  1  0  0  0  0  0999 V2000
  161.3090  207.4760  151.3610 C   0  0  1  0  0  3  0  0  0  0  0  0
  162.0650  209.8770  150.9470 C   0  0  0  0  0  0  0  0  0  0  0  0
  161.7940  206.7960  147.2410 N   0  0  0  0  0  2  0  0  0  0  0  0
  161.5110  206.1040  150.7100 C   0  0  1  0  0  3  0  0  0  0  0  0
  162.0820  207.5110  152.5440 O   0  0  0  0  0  0  0  0  0  0  0  0
  161.1830  204.3960  153.9130 O   0  0  0  0  0  0  0  0  0  0  0  0
  160.4490  203.0120  150.1010 C   0  0  1  0  0  3  0  0  0  0  0  0
  161.2350  205.2950  153.0870 C   0  0  0  0  0  0  0  0  0  0  0  0
  160.6890  203.5440  148.6750 C   0  0  2  0  0  3  0  0  0  0  0  0
  161.6770  205.3490  147.1630 C   0  0  1  0  0  3  0  0  0  0  0  0
  161.4710  206.7120  153.5410 C   0  0  2  0  0  3  0  0  0  0  0  0
  160.9270  205.0260  151.6340 C   0  0  2  0  0  3  0  0  0  0  0  0
  162.3720  210.9270  150.0800 C   0  0  0  0  0  3  0  0  0  0  0  0
  161.3360  202.3970  147.9220 C   0  0  0  0  0  2  0  0  0  0  0  0
  160.6390  201.5030  150.0500 C   0  0  0  0  0  2  0  0  0  0  0  0
  162.1230  210.1160  152.3150 O   0  0  0  0  0  1  0  0  0  0  0  0
  161.0160  207.1960  148.4110 C   0  0  1  0  0  3  0  0  0  0  0  0
  162.2780  210.7540  148.7020 C   0  0  0  0  0  3  0  0  0  0  0  0
  161.6910  208.6110  150.4340 C   0  0  0  0  0  0  0  0  0  0  0  0
  160.8600  205.9830  149.3290 C   0  0  1  0  0  3  0  0  0  0  0  0
  162.9350  204.7820  146.5350 C   0  0  0  0  0  1  0  0  0  0  0  0
  161.5200  204.8390  148.5810 C   0  0  1  0  0  3  0  0  0  0  0  0
  160.8180  201.1430  148.5890 C   0  0  0  0  0  2  0  0  0  0  0  0
  162.3720  203.1470  151.5040 O   0  0  0  0  0  0  0  0  0  0  0  0
  161.8640  209.5300  148.1850 C   0  0  0  0  0  3  0  0  0  0  0  0
  161.5690  208.4530  149.0340 C   0  0  0  0  0  0  0  0  0  0  0  0
  161.3110  203.6520  151.1610 C   0  0  0  0  0  0  0  0  0  0  0  0
  160.1940  207.3440  154.0950 C   0  0  0  0  0  2  0  0  0  0  0  0
  160.0840  207.0950  156.5730 C   0  0  0  0  0  1  0  0  0  0  0  0
  160.4510  208.0220  155.4300 C   0  0  0  0  0  2  0  0  0  0  0  0
  1 19  1  6  0  0  0
  1  5  1  0  0  0  0
  2 16  1  0  0  0  0
  3 17  1  0  0  0  0
  4  1  1  0  0  0  0
  4 12  1  0  0  0  0
  5 11  1  0  0  0  0
  7 27  1  0  0  0  0
  8 11  1  0  0  0  0
  8  6  2  0  0  0  0
  9  7  1  0  0  0  0
 10  3  1  0  0  0  0
 10 22  1  0  0  0  0
 11 28  1  0  0  0  0
 12  8  1  0  0  0  0
 13  2  2  0  0  0  0
 14 23  1  0  0  0  0
 14  9  1  0  0  0  0
 15  7  1  0  0  0  0
 17 26  1  0  0  0  0
 17 20  1  0  0  0  0
 18 13  1  0  0  0  0
 19  2  1  0  0  0  0
 20  4  1  0  0  0  0
 21 10  1  0  0  0  0
 22  9  1  0  0  0  0
 22 20  1  0  0  0  0
 23 15  1  0  0  0  0
 25 18  2  0  0  0  0
 25 26  1  0  0  0  0
 26 19  2  0  0  0  0
 27 24  2  0  0  0  0
 27 12  1  0  0  0  0
 28 30  1  0  0  0  0
 30 29  1  0  0  0  0
M  END
>  <MODEL>
1

>  <REMARK>
 VINA RESULT:     -10.1      0.000      0.000
  Name = 
  2 active torsions:
  status: ('A' for Active; 'I' for Inactive)
    1  A    between atoms: C_11  and  C_28
    2  A    between atoms: C_28  and  C_30
                            x       y       z     vdW  Elec       q    Type
                         _______ _______ _______ _____ _____    ______ ____

>  <TORSDO>
F 2

$$$$
