=
 OpenBabel11122413353D

 37 43  0  0  1  0  0  0  0  0999 V2000
  160.7750  208.9650  152.0650 C   0  0  0  0  0  2  0  0  0  0  0  0
  159.3290  212.0280  155.8380 C   0  0  0  0  0  0  0  0  0  0  0  0
  158.7740  212.5510  151.7120 C   0  0  0  0  0  0  0  0  0  0  0  0
  161.6470  207.7480  151.7610 C   0  0  2  0  0  3  0  0  0  0  0  0
  161.8670  212.4070  149.9590 O   0  0  0  0  0  0  0  0  0  0  0  0
  158.0530  213.1470  153.9270 C   0  0  0  0  0  0  0  0  0  0  0  0
  159.8410  211.6790  151.1090 C   0  0  1  0  0  3  0  0  0  0  0  0
  162.0330  209.0270  149.5150 C   0  0  2  0  0  3  0  0  0  0  0  0
  158.8820  212.4470  153.0670 C   0  0  0  0  0  0  0  0  0  0  0  0
  160.5100  212.1000  149.7880 C   0  0  1  0  0  3  0  0  0  0  0  0
  157.0820  213.9390  153.3900 N   0  0  0  0  0  0  0  0  0  0  0  0
  162.2240  207.7400  150.3340 C   0  0  0  0  0  2  0  0  0  0  0  0
  160.0060  211.7140  153.4900 N   0  0  0  0  0  0  0  0  0  0  0  0
  158.5770  210.7130  155.9610 C   0  0  0  0  0  1  0  0  0  0  0  0
  157.7000  213.6900  149.6800 C   0  0  0  0  0  2  0  0  0  0  0  0
  156.9300  214.0600  152.0330 C   0  0  0  0  0  3  0  0  0  0  0  0
  160.5050  211.8620  154.8540 C   0  0  0  0  0  2  0  0  0  0  0  0
  162.7880  210.1850  150.0310 N   0  0  1  0  0  0  0  0  0  0  0  0
  162.5660  211.4150  149.2500 C   0  0  0  0  0  2  0  0  0  0  0  0
  157.7760  213.3660  151.1460 C   0  0  0  0  0  0  0  0  0  0  0  0
  160.8200  211.5180  152.2960 C   0  0  1  0  0  3  0  0  0  0  0  0
  158.3500  213.1460  155.4040 C   0  0  0  0  0  2  0  0  0  0  0  0
  159.7500  213.1530  148.9810 C   0  0  2  0  0  3  0  0  0  0  0  0
  159.8870  212.3820  157.2000 C   0  0  0  0  0  1  0  0  0  0  0  0
  162.9180  210.3490  151.4910 C   0  0  0  0  0  2  0  0  0  0  0  0
  160.6930  209.3080  149.3090 F   0  0  0  0  0  0  0  0  0  0  0  0
  161.6180  210.2200  152.3100 C   0  0  2  0  0  3  0  0  0  0  0  0
  158.4040  212.7730  148.8900 O   0  0  0  0  0  0  0  0  0  0  0  0
  161.2780  214.3080  147.3370 C   0  0  0  0  0  3  0  0  0  0  0  0
  160.3310  213.3100  147.6090 C   0  0  0  0  0  0  0  0  0  0  0  0
  159.9000  212.4650  146.5820 C   0  0  0  0  0  3  0  0  0  0  0  0
  159.9990  211.7870  144.2980 F   0  0  0  0  0  0  0  0  0  0  0  0
  161.3640  213.6020  145.0230 C   0  0  0  0  0  3  0  0  0  0  0  0
  160.4170  212.6090  145.2910 C   0  0  0  0  0  0  0  0  0  0  0  0
  161.7940  214.4530  146.0460 C   0  0  0  0  0  3  0  0  0  0  0  0
  161.2970  205.8180  153.2050 N   0  0  0  0  0  1  0  0  0  0  0  0
  160.8600  206.4700  151.9820 C   0  0  0  0  0  2  0  0  0  0  0  0
  1 27  1  0  0  0  0
  2 14  1  0  0  0  0
  2 24  1  0  0  0  0
  3  9  1  0  0  0  0
  4 37  1  6  0  0  0
  4  1  1  0  0  0  0
  6 22  1  0  0  0  0
  7  3  1  1  0  0  0
  7 21  1  0  0  0  0
  8 26  1  1  0  0  0
  8 18  1  0  0  0  0
  8 12  1  0  0  0  0
  9 13  1  0  0  0  0
  9  6  2  0  0  0  0
 10  5  1  1  0  0  0
 10  7  1  0  0  0  0
 11  6  1  0  0  0  0
 12  4  1  0  0  0  0
 13 17  1  0  0  0  0
 15 20  1  0  0  0  0
 16 11  2  0  0  0  0
 17  2  1  0  0  0  0
 18 19  1  1  0  0  0
 18 25  1  0  0  0  0
 19  5  1  0  0  0  0
 20  3  2  0  0  0  0
 20 16  1  0  0  0  0
 21 27  1  0  0  0  0
 21 13  1  1  0  0  0
 22  2  1  0  0  0  0
 23 30  1  6  0  0  0
 23 10  1  0  0  0  0
 27 25  1  6  0  0  0
 28 23  1  0  0  0  0
 28 15  1  0  0  0  0
 29 30  1  0  0  0  0
 31 30  2  0  0  0  0
 32 34  1  0  0  0  0
 33 34  2  0  0  0  0
 33 35  1  0  0  0  0
 34 31  1  0  0  0  0
 35 29  2  0  0  0  0
 37 36  1  0  0  0  0
M  END
>  <MODEL>
1

>  <REMARK>
 VINA RESULT:      -2.3      0.000      0.000
  Name = 
  2 active torsions:
  status: ('A' for Active; 'I' for Inactive)
    1  A    between atoms: C_4  and  C_37
    2  A    between atoms: C_23  and  C_30
                            x       y       z     vdW  Elec       q    Type
                         _______ _______ _______ _____ _____    ______ ____

>  <TORSDO>
F 2

$$$$
=
 OpenBabel11122413353D

 37 43  0  0  1  0  0  0  0  0999 V2000
  160.7420  207.0070  151.1700 C   0  0  0  0  0  2  0  0  0  0  0  0
  160.7930  208.4060  156.0430 C   0  0  0  0  0  0  0  0  0  0  0  0
  159.9070  210.7500  152.6780 C   0  0  0  0  0  0  0  0  0  0  0  0
  161.1550  205.8730  150.2320 C   0  0  2  0  0  3  0  0  0  0  0  0
  162.5580  210.6720  150.3070 O   0  0  0  0  0  0  0  0  0  0  0  0
  159.6900  210.4900  155.0580 C   0  0  0  0  0  0  0  0  0  0  0  0
  160.5700  210.0020  151.5540 C   0  0  1  0  0  3  0  0  0  0  0  0
  161.6250  207.8640  148.6060 C   0  0  2  0  0  3  0  0  0  0  0  0
  160.1480  210.0570  153.8270 C   0  0  0  0  0  0  0  0  0  0  0  0
  161.1620  210.7830  150.3670 C   0  0  1  0  0  3  0  0  0  0  0  0
  158.9480  211.6330  155.1080 N   0  0  0  0  0  0  0  0  0  0  0  0
  161.5150  206.3440  148.8120 C   0  0  0  0  0  2  0  0  0  0  0  0
  161.0390  208.9790  153.6590 N   0  0  0  0  0  0  0  0  0  0  0  0
  159.6980  207.3730  155.8430 C   0  0  0  0  0  1  0  0  0  0  0  0
  158.9840  212.8580  151.5440 C   0  0  0  0  0  2  0  0  0  0  0  0
  158.6690  212.3520  153.9750 C   0  0  0  0  0  3  0  0  0  0  0  0
  161.7290  208.4140  154.8160 C   0  0  0  0  0  2  0  0  0  0  0  0
  162.7570  208.4860  149.3180 N   0  0  1  0  0  0  0  0  0  0  0  0
  162.8250  209.9470  149.1320 C   0  0  0  0  0  2  0  0  0  0  0  0
  159.1430  211.9310  152.7170 C   0  0  0  0  0  0  0  0  0  0  0  0
  161.5950  209.1330  152.3200 C   0  0  1  0  0  3  0  0  0  0  0  0
  160.1580  209.7920  156.3080 C   0  0  0  0  0  2  0  0  0  0  0  0
  160.6650  212.2210  150.2210 C   0  0  2  0  0  3  0  0  0  0  0  0
  161.6020  208.0090  157.2600 C   0  0  0  0  0  1  0  0  0  0  0  0
  163.1150  207.9780  150.6560 C   0  0  0  0  0  2  0  0  0  0  0  0
  160.4200  208.5010  148.8500 F   0  0  0  0  0  0  0  0  0  0  0  0
  161.9530  207.8100  151.6540 C   0  0  2  0  0  3  0  0  0  0  0  0
  159.2670  212.2320  150.3230 O   0  0  0  0  0  0  0  0  0  0  0  0
  161.9820  213.8920  148.8620 C   0  0  0  0  0  3  0  0  0  0  0  0
  161.0870  212.8130  148.9120 C   0  0  0  0  0  0  0  0  0  0  0  0
  160.5590  212.2950  147.7250 C   0  0  0  0  0  3  0  0  0  0  0  0
  160.4140  212.3420  145.3450 F   0  0  0  0  0  0  0  0  0  0  0  0
  161.8210  213.9200  146.4470 C   0  0  0  0  0  3  0  0  0  0  0  0
  160.9260  212.8470  146.4930 C   0  0  0  0  0  0  0  0  0  0  0  0
  162.3480  214.4440  147.6310 C   0  0  0  0  0  3  0  0  0  0  0  0
  160.4530  203.6150  150.8150 N   0  0  0  0  0  1  0  0  0  0  0  0
  160.0490  204.8380  150.1430 C   0  0  0  0  0  2  0  0  0  0  0  0
  1 27  1  0  0  0  0
  2 22  1  0  0  0  0
  2 24  1  0  0  0  0
  3 20  2  0  0  0  0
  3  9  1  0  0  0  0
  4 37  1  6  0  0  0
  4  1  1  0  0  0  0
  6 11  1  0  0  0  0
  6 22  1  0  0  0  0
  7 21  1  0  0  0  0
  7  3  1  1  0  0  0
  8 12  1  0  0  0  0
  8 26  1  1  0  0  0
  8 18  1  0  0  0  0
  9  6  2  0  0  0  0
 10  5  1  1  0  0  0
 10  7  1  0  0  0  0
 12  4  1  0  0  0  0
 13  9  1  0  0  0  0
 13 17  1  0  0  0  0
 14  2  1  0  0  0  0
 15 20  1  0  0  0  0
 16 11  2  0  0  0  0
 17  2  1  0  0  0  0
 18 19  1  1  0  0  0
 18 25  1  0  0  0  0
 19  5  1  0  0  0  0
 20 16  1  0  0  0  0
 21 13  1  1  0  0  0
 23 30  1  6  0  0  0
 23 28  1  0  0  0  0
 23 10  1  0  0  0  0
 27 25  1  6  0  0  0
 27 21  1  0  0  0  0
 28 15  1  0  0  0  0
 29 30  1  0  0  0  0
 31 30  2  0  0  0  0
 32 34  1  0  0  0  0
 33 34  2  0  0  0  0
 33 35  1  0  0  0  0
 34 31  1  0  0  0  0
 35 29  2  0  0  0  0
 37 36  1  0  0  0  0
M  END
>  <MODEL>
2

>  <REMARK>
 VINA RESULT:      -2.1      1.898      2.538
  Name = 
  2 active torsions:
  status: ('A' for Active; 'I' for Inactive)
    1  A    between atoms: C_4  and  C_37
    2  A    between atoms: C_23  and  C_30
                            x       y       z     vdW  Elec       q    Type
                         _______ _______ _______ _____ _____    ______ ____

>  <TORSDO>
F 2

$$$$
=
 OpenBabel11122413353D

 37 43  0  0  1  0  0  0  0  0999 V2000
  160.7870  208.8990  152.0750 C   0  0  0  0  0  2  0  0  0  0  0  0
  159.6260  212.0170  155.9000 C   0  0  0  0  0  0  0  0  0  0  0  0
  158.8530  212.5280  151.8080 C   0  0  0  0  0  0  0  0  0  0  0  0
  161.6130  207.6590  151.7320 C   0  0  2  0  0  3  0  0  0  0  0  0
  161.8380  212.3010  149.8850 O   0  0  0  0  0  0  0  0  0  0  0  0
  158.2710  213.1540  154.0550 C   0  0  0  0  0  0  0  0  0  0  0  0
  159.8630  211.6280  151.1530 C   0  0  1  0  0  3  0  0  0  0  0  0
  161.9010  208.9150  149.4590 C   0  0  2  0  0  3  0  0  0  0  0  0
  159.0340  212.4300  153.1560 C   0  0  0  0  0  0  0  0  0  0  0  0
  160.4660  212.0250  149.7930 C   0  0  1  0  0  3  0  0  0  0  0  0
  157.2900  213.9660  153.5680 N   0  0  0  0  0  0  0  0  0  0  0  0
  162.1080  207.6290  150.2750 C   0  0  0  0  0  2  0  0  0  0  0  0
  160.1630  211.6730  153.5200 N   0  0  0  0  0  0  0  0  0  0  0  0
  158.8520  210.7220  156.0750 C   0  0  0  0  0  1  0  0  0  0  0  0
  157.6930  213.6790  149.8310 C   0  0  0  0  0  2  0  0  0  0  0  0
  157.0640  214.0810  152.2210 C   0  0  0  0  0  3  0  0  0  0  0  0
  160.7410  211.8190  154.8530 C   0  0  0  0  0  2  0  0  0  0  0  0
  162.7110  210.0580  149.9220 N   0  0  1  0  0  0  0  0  0  0  0  0
  162.4730  211.2890  149.1460 C   0  0  0  0  0  2  0  0  0  0  0  0
  157.8430  213.3630  151.2930 C   0  0  0  0  0  0  0  0  0  0  0  0
  160.9040  211.4510  152.2850 C   0  0  1  0  0  3  0  0  0  0  0  0
  158.6510  213.1560  155.5130 C   0  0  0  0  0  2  0  0  0  0  0  0
  159.6870  213.0900  149.0220 C   0  0  2  0  0  3  0  0  0  0  0  0
  160.2680  212.3680  157.2260 C   0  0  0  0  0  1  0  0  0  0  0  0
  162.9250  210.2280  151.3720 C   0  0  0  0  0  2  0  0  0  0  0  0
  160.5580  209.2260  149.3260 F   0  0  0  0  0  0  0  0  0  0  0  0
  161.6710  210.1350  152.2630 C   0  0  2  0  0  3  0  0  0  0  0  0
  158.3290  212.7410  149.0090 O   0  0  0  0  0  0  0  0  0  0  0  0
  159.4350  212.7730  146.5300 C   0  0  0  0  0  3  0  0  0  0  0  0
  160.1940  213.2250  147.6190 C   0  0  0  0  0  0  0  0  0  0  0  0
  161.4550  213.7880  147.3990 C   0  0  0  0  0  3  0  0  0  0  0  0
  163.1760  214.4520  145.8880 F   0  0  0  0  0  0  0  0  0  0  0  0
  161.1930  213.4570  145.0140 C   0  0  0  0  0  3  0  0  0  0  0  0
  161.9540  213.9050  146.0980 C   0  0  0  0  0  0  0  0  0  0  0  0
  159.9340  212.8900  145.2300 C   0  0  0  0  0  3  0  0  0  0  0  0
  160.8730  205.5080  150.8630 N   0  0  0  0  0  1  0  0  0  0  0  0
  160.8100  206.4020  152.0070 C   0  0  0  0  0  2  0  0  0  0  0  0
  1 27  1  0  0  0  0
  2 14  1  0  0  0  0
  2 24  1  0  0  0  0
  3  9  1  0  0  0  0
  4 37  1  6  0  0  0
  4  1  1  0  0  0  0
  6 22  1  0  0  0  0
  7  3  1  1  0  0  0
  7 21  1  0  0  0  0
  8 26  1  1  0  0  0
  8 18  1  0  0  0  0
  8 12  1  0  0  0  0
  9 13  1  0  0  0  0
  9  6  2  0  0  0  0
 10  5  1  1  0  0  0
 10  7  1  0  0  0  0
 11  6  1  0  0  0  0
 12  4  1  0  0  0  0
 13 17  1  0  0  0  0
 15 20  1  0  0  0  0
 16 11  2  0  0  0  0
 17  2  1  0  0  0  0
 18 19  1  1  0  0  0
 18 25  1  0  0  0  0
 19  5  1  0  0  0  0
 20  3  2  0  0  0  0
 20 16  1  0  0  0  0
 21 13  1  1  0  0  0
 22  2  1  0  0  0  0
 23 30  1  6  0  0  0
 23 10  1  0  0  0  0
 27 25  1  6  0  0  0
 27 21  1  0  0  0  0
 28 23  1  0  0  0  0
 28 15  1  0  0  0  0
 29 30  1  0  0  0  0
 31 30  2  0  0  0  0
 32 34  1  0  0  0  0
 33 35  1  0  0  0  0
 33 34  2  0  0  0  0
 34 31  1  0  0  0  0
 35 29  2  0  0  0  0
 36 37  1  0  0  0  0
M  END
>  <MODEL>
3

>  <REMARK>
 VINA RESULT:      -1.3      0.869      1.153
  Name = 
  2 active torsions:
  status: ('A' for Active; 'I' for Inactive)
    1  A    between atoms: C_4  and  C_37
    2  A    between atoms: C_23  and  C_30
                            x       y       z     vdW  Elec       q    Type
                         _______ _______ _______ _____ _____    ______ ____

>  <TORSDO>
F 2

$$$$
