=
 OpenBabel11122413033D

 32 37  0  0  1  0  0  0  0  0999 V2000
  162.4110  204.7760  146.9070 C   0  0  0  0  0  2  0  0  0  0  0  0
  161.0980  208.6880  150.6470 C   0  0  2  0  0  3  0  0  0  0  0  0
  160.5470  205.9770  154.7320 C   0  0  0  0  0  2  0  0  0  0  0  0
  160.6880  207.2230  155.5980 C   0  0  0  0  0  2  0  0  0  0  0  0
  160.7870  211.2540  150.6960 C   0  0  1  0  0  3  0  0  0  0  0  0
  160.7640  212.5400  151.5500 C   0  0  1  0  0  3  0  0  0  0  0  0
  161.3270  207.5060  148.4160 C   0  0  2  0  0  3  0  0  0  0  0  0
  161.4790  206.2480  150.6260 C   0  0  0  0  0  2  0  0  0  0  0  0
  158.8110  212.3820  152.9900 C   0  0  2  0  0  3  0  0  0  0  0  0
  160.5180  205.0400  148.5940 C   0  0  0  0  0  2  0  0  0  0  0  0
  161.3570  206.1410  153.4510 C   0  0  0  0  0  2  0  0  0  0  0  0
  161.6070  207.5120  151.3940 N   0  0  2  0  0  0  0  0  0  0  0  0
  160.8660  207.3660  152.6570 C   0  0  2  0  0  3  0  0  0  0  0  0
  160.6190  209.8690  152.7900 C   0  0  1  0  0  3  0  0  0  0  0  0
  158.4250  213.1990  151.7680 C   0  0  0  0  0  2  0  0  0  0  0  0
  162.0800  206.1520  146.5370 N   0  0  0  0  0  2  0  0  0  0  0  0
  160.7310  206.3860  149.2940 C   0  0  2  0  0  3  0  0  0  0  0  0
  159.7060  213.4770  150.9920 C   0  0  0  0  0  2  0  0  0  0  0  0
  162.5270  207.0590  147.5860 C   0  0  0  0  0  2  0  0  0  0  0  0
  161.8460  204.3540  148.2690 C   0  0  1  0  0  3  0  0  0  0  0  0
  160.2290  208.4520  154.8220 C   0  0  0  0  0  2  0  0  0  0  0  0
  161.0500  208.6110  153.5390 C   0  0  1  0  0  3  0  0  0  0  0  0
  160.9060  211.0970  153.6390 C   0  0  0  0  0  2  0  0  0  0  0  0
  161.7430  208.7140  149.2560 C   0  0  0  0  0  2  0  0  0  0  0  0
  161.6130  211.5740  149.4600 C   0  0  0  0  0  1  0  0  0  0  0  0
  158.3030  213.0600  154.2460 C   0  0  0  0  0  1  0  0  0  0  0  0
  161.3320  210.0000  151.4370 C   0  0  1  0  0  3  0  0  0  0  0  0
  160.3270  212.3450  152.9920 C   0  0  1  0  0  3  0  0  0  0  0  0
  161.6820  202.9080  148.2930 N   0  0  0  0  0  2  0  0  0  0  0  0
  161.1930  202.2080  149.4390 C   0  0  0  0  0  0  0  0  0  0  0  0
  161.0280  200.7320  149.3830 C   0  0  0  0  0  1  0  0  0  0  0  0
  160.9050  202.8280  150.4970 O   0  0  0  0  0  0  0  0  0  0  0  0
  1 20  1  0  0  0  0
  2 24  1  6  0  0  0
  2 12  1  0  0  0  0
  2 27  1  0  0  0  0
  3  4  1  0  0  0  0
  5 25  1  6  0  0  0
  5 27  1  0  0  0  0
  5  6  1  0  0  0  0
  6 18  1  6  0  0  0
  6 28  1  0  0  0  0
  7 19  1  1  0  0  0
  7 24  1  0  0  0  0
  7 17  1  0  0  0  0
  9 28  1  0  0  0  0
  9 26  1  1  0  0  0
 11  3  1  0  0  0  0
 12  8  1  6  0  0  0
 12 13  1  0  0  0  0
 13 11  1  1  0  0  0
 13 22  1  0  0  0  0
 14 22  1  0  0  0  0
 14 23  1  1  0  0  0
 15  9  1  0  0  0  0
 16  1  1  0  0  0  0
 16 19  1  0  0  0  0
 17 10  1  6  0  0  0
 17  8  1  0  0  0  0
 18 15  1  0  0  0  0
 20 29  1  6  0  0  0
 20 10  1  0  0  0  0
 21  4  1  0  0  0  0
 22 21  1  1  0  0  0
 27 14  1  0  0  0  0
 28 23  1  0  0  0  0
 29 30  1  0  0  0  0
 30 32  2  0  0  0  0
 31 30  1  0  0  0  0
M  END
>  <MODEL>
1

>  <REMARK>
 VINA RESULT:      -7.4      0.000      0.000
  Name = 
  1 active torsions:
  status: ('A' for Active; 'I' for Inactive)
    1  A    between atoms: C_20  and  N_29
                            x       y       z     vdW  Elec       q    Type
                         _______ _______ _______ _____ _____    ______ ____

>  <TORSDO>
F 1

$$$$
=
 OpenBabel11122413033D

 32 37  0  0  1  0  0  0  0  0999 V2000
  160.4540  209.0640  157.2460 C   0  0  0  0  0  2  0  0  0  0  0  0
  161.2990  207.8530  151.8760 C   0  0  2  0  0  3  0  0  0  0  0  0
  161.3830  212.3580  149.8680 C   0  0  0  0  0  2  0  0  0  0  0  0
  162.0710  211.8090  148.6240 C   0  0  0  0  0  2  0  0  0  0  0  0
  161.6340  205.7380  150.4260 C   0  0  1  0  0  3  0  0  0  0  0  0
  162.1750  205.1430  149.1080 C   0  0  1  0  0  3  0  0  0  0  0  0
  160.5560  207.6010  154.2870 C   0  0  2  0  0  3  0  0  0  0  0  0
  161.0670  209.8790  153.2670 C   0  0  0  0  0  2  0  0  0  0  0  0
  160.7700  206.0150  147.3250 C   0  0  2  0  0  3  0  0  0  0  0  0
  159.2790  209.7240  155.0810 C   0  0  0  0  0  2  0  0  0  0  0  0
  161.7830  211.5340  151.0870 C   0  0  0  0  0  2  0  0  0  0  0  0
  161.7170  209.2600  152.0850 N   0  0  2  0  0  0  0  0  0  0  0  0
  161.3790  210.0610  150.8970 C   0  0  2  0  0  3  0  0  0  0  0  0
  161.7840  208.0480  149.4380 C   0  0  1  0  0  3  0  0  0  0  0  0
  160.2370  204.6450  147.7120 C   0  0  0  0  0  2  0  0  0  0  0  0
  160.3630  207.7050  156.7120 N   0  0  0  0  0  2  0  0  0  0  0  0
  160.0060  209.0010  153.9430 C   0  0  2  0  0  3  0  0  0  0  0  0
  161.2520  204.0230  148.6630 C   0  0  0  0  0  2  0  0  0  0  0  0
  161.3070  207.5480  155.6140 C   0  0  0  0  0  2  0  0  0  0  0  0
  160.2440  210.1540  156.1880 C   0  0  1  0  0  3  0  0  0  0  0  0
  161.7030  210.3410  148.4290 C   0  0  0  0  0  2  0  0  0  0  0  0
  162.1110  209.5220  149.6570 C   0  0  1  0  0  3  0  0  0  0  0  0
  162.5960  207.5080  148.2710 C   0  0  0  0  0  2  0  0  0  0  0  0
  161.4800  207.0770  153.1870 C   0  0  0  0  0  2  0  0  0  0  0  0
  162.0990  204.8110  151.5390 C   0  0  0  0  0  1  0  0  0  0  0  0
  160.8420  206.1340  145.8170 C   0  0  0  0  0  1  0  0  0  0  0  0
  162.0640  207.2080  150.6930 C   0  0  1  0  0  3  0  0  0  0  0  0
  162.1610  206.0930  147.9220 C   0  0  1  0  0  3  0  0  0  0  0  0
  159.7590  211.3640  156.8340 N   0  0  0  0  0  2  0  0  0  0  0  0
  159.6690  212.6170  156.1540 C   0  0  0  0  0  0  0  0  0  0  0  0
  159.1390  213.8060  156.8720 C   0  0  0  0  0  1  0  0  0  0  0  0
  160.0390  212.7260  154.9550 O   0  0  0  0  0  0  0  0  0  0  0  0
  2 12  1  0  0  0  0
  2 24  1  1  0  0  0
  3 11  1  0  0  0  0
  4  3  1  0  0  0  0
  5 27  1  0  0  0  0
  5 25  1  1  0  0  0
  6 18  1  6  0  0  0
  6  5  1  0  0  0  0
  7 24  1  6  0  0  0
  7 19  1  0  0  0  0
  9 26  1  6  0  0  0
  9 15  1  0  0  0  0
  9 28  1  0  0  0  0
 10 20  1  0  0  0  0
 12  8  1  1  0  0  0
 13 11  1  1  0  0  0
 13 12  1  0  0  0  0
 14 23  1  6  0  0  0
 14 22  1  0  0  0  0
 14 27  1  0  0  0  0
 15 18  1  0  0  0  0
 16  1  1  0  0  0  0
 17  8  1  1  0  0  0
 17  7  1  0  0  0  0
 17 10  1  0  0  0  0
 19 16  1  0  0  0  0
 20 29  1  1  0  0  0
 20  1  1  0  0  0  0
 21  4  1  0  0  0  0
 22 21  1  6  0  0  0
 22 13  1  0  0  0  0
 27  2  1  0  0  0  0
 28 23  1  0  0  0  0
 28  6  1  0  0  0  0
 30 29  1  0  0  0  0
 30 31  1  0  0  0  0
 32 30  2  0  0  0  0
M  END
>  <MODEL>
2

>  <REMARK>
 VINA RESULT:      -5.7      3.064      8.196
  Name = 
  1 active torsions:
  status: ('A' for Active; 'I' for Inactive)
    1  A    between atoms: C_20  and  N_29
                            x       y       z     vdW  Elec       q    Type
                         _______ _______ _______ _____ _____    ______ ____

>  <TORSDO>
F 1

$$$$
=
 OpenBabel11122413033D

 32 37  0  0  1  0  0  0  0  0999 V2000
  160.1510  210.8700  156.8380 C   0  0  0  0  0  2  0  0  0  0  0  0
  161.2160  208.8800  151.7480 C   0  0  2  0  0  3  0  0  0  0  0  0
  161.1080  213.0090  149.0500 C   0  0  0  0  0  2  0  0  0  0  0  0
  161.8610  212.3130  147.9230 C   0  0  0  0  0  2  0  0  0  0  0  0
  161.7100  206.5870  150.6600 C   0  0  1  0  0  3  0  0  0  0  0  0
  162.3220  205.8250  149.4640 C   0  0  1  0  0  3  0  0  0  0  0  0
  160.4190  208.9680  154.1530 C   0  0  2  0  0  3  0  0  0  0  0  0
  160.8320  211.0840  152.7930 C   0  0  0  0  0  2  0  0  0  0  0  0
  160.9230  206.3190  147.5380 C   0  0  2  0  0  3  0  0  0  0  0  0
  159.0040  211.1100  154.5730 C   0  0  0  0  0  2  0  0  0  0  0  0
  161.5170  212.4140  150.3920 C   0  0  0  0  0  2  0  0  0  0  0  0
  161.5490  210.3250  151.7380 N   0  0  2  0  0  0  0  0  0  0  0  0
  161.2020  210.9070  150.4310 C   0  0  2  0  0  3  0  0  0  0  0  0
  161.7600  208.7170  149.3200 C   0  0  1  0  0  3  0  0  0  0  0  0
  160.4560  204.9990  148.1270 C   0  0  0  0  0  2  0  0  0  0  0  0
  160.1500  209.4420  156.5260 N   0  0  0  0  0  2  0  0  0  0  0  0
  159.8020  210.2610  153.5790 C   0  0  2  0  0  3  0  0  0  0  0  0
  161.4760  204.5960  149.1850 C   0  0  0  0  0  2  0  0  0  0  0  0
  161.1330  209.1700  155.4860 C   0  0  0  0  0  2  0  0  0  0  0  0
  159.9110  211.7660  155.6160 C   0  0  1  0  0  3  0  0  0  0  0  0
  161.5810  210.8140  147.9570 C   0  0  0  0  0  2  0  0  0  0  0  0
  161.9990  210.2240  149.3080 C   0  0  1  0  0  3  0  0  0  0  0  0
  162.6350  208.0500  148.2700 C   0  0  0  0  0  2  0  0  0  0  0  0
  161.4020  208.3340  153.1680 C   0  0  0  0  0  2  0  0  0  0  0  0
  162.1940  205.8760  151.9140 C   0  0  0  0  0  1  0  0  0  0  0  0
  161.0320  206.2030  146.0310 C   0  0  0  0  0  1  0  0  0  0  0  0
  162.0510  208.1040  150.6970 C   0  0  1  0  0  3  0  0  0  0  0  0
  162.2900  206.5740  148.1420 C   0  0  1  0  0  3  0  0  0  0  0  0
  159.3400  213.0320  156.0520 N   0  0  0  0  0  2  0  0  0  0  0  0
  158.0540  213.1240  156.6680 C   0  0  0  0  0  0  0  0  0  0  0  0
  157.5460  214.4480  157.1120 C   0  0  0  0  0  1  0  0  0  0  0  0
  157.3450  212.0960  156.8350 O   0  0  0  0  0  0  0  0  0  0  0  0
  2 24  1  1  0  0  0
  3 11  1  0  0  0  0
  4 21  1  0  0  0  0
  4  3  1  0  0  0  0
  5 27  1  0  0  0  0
  5 25  1  1  0  0  0
  6 18  1  6  0  0  0
  6  5  1  0  0  0  0
  7 24  1  6  0  0  0
  7 19  1  0  0  0  0
  9 26  1  6  0  0  0
  9 15  1  0  0  0  0
  9 28  1  0  0  0  0
 10 20  1  0  0  0  0
 12  2  1  0  0  0  0
 12  8  1  1  0  0  0
 13 11  1  1  0  0  0
 13 12  1  0  0  0  0
 14 23  1  6  0  0  0
 14 27  1  0  0  0  0
 15 18  1  0  0  0  0
 16  1  1  0  0  0  0
 17  8  1  1  0  0  0
 17  7  1  0  0  0  0
 17 10  1  0  0  0  0
 19 16  1  0  0  0  0
 20 29  1  1  0  0  0
 20  1  1  0  0  0  0
 22 21  1  6  0  0  0
 22 14  1  0  0  0  0
 22 13  1  0  0  0  0
 27  2  1  0  0  0  0
 28 23  1  0  0  0  0
 28  6  1  0  0  0  0
 29 30  1  0  0  0  0
 30 32  2  0  0  0  0
 30 31  1  0  0  0  0
M  END
>  <MODEL>
3

>  <REMARK>
 VINA RESULT:      -5.7      3.281      8.461
  Name = 
  1 active torsions:
  status: ('A' for Active; 'I' for Inactive)
    1  A    between atoms: C_20  and  N_29
                            x       y       z     vdW  Elec       q    Type
                         _______ _______ _______ _____ _____    ______ ____

>  <TORSDO>
F 1

$$$$
