=
 OpenBabel11122414133D

 28 32  0  0  1  0  0  0  0  0999 V2000
  160.8790  209.4190  155.1210 C   0  0  0  0  0  0  0  0  0  0  0  0
  157.6430  210.7260  155.2040 F   0  0  0  0  0  0  0  0  0  0  0  0
  160.9530  212.6590  150.1230 O   0  0  0  0  0  0  0  0  0  0  0  0
  162.3800  210.5570  157.2030 C   0  0  0  0  0  3  0  0  0  0  0  0
  158.9860  213.1410  151.4600 C   0  0  2  0  0  3  0  0  0  0  0  0
  160.1580  208.7290  154.0050 C   0  0  0  0  0  2  0  0  0  0  0  0
  158.5350  211.4730  157.2570 C   0  0  0  0  0  1  0  0  0  0  0  0
  157.9980  211.8720  155.8950 C   0  0  1  0  0  0  0  0  0  0  0  0
  156.3450  213.6000  155.1140 C   0  0  0  0  0  0  0  0  0  0  0  0
  159.0650  212.6880  155.1160 C   0  0  2  0  0  3  0  0  0  0  0  0
  161.7910  208.5530  150.5410 C   0  0  0  0  0  1  0  0  0  0  0  0
  159.5440  211.3740  153.1130 C   0  0  1  0  0  3  0  0  0  0  0  0
  157.1090  213.9400  154.1240 N   0  0  0  0  0  0  0  0  0  0  0  0
  156.8050  212.6780  156.1010 N   0  0  0  0  0  2  0  0  0  0  0  0
  161.0370  209.1970  151.6860 C   0  0  2  0  0  3  0  0  0  0  0  0
  160.8840  210.8300  155.2990 C   0  0  0  0  0  0  0  0  0  0  0  0
  160.2330  212.4130  151.1260 C   0  0  0  0  0  0  0  0  0  0  0  0
  155.0650  214.2030  155.2570 N   0  0  0  0  0  1  0  0  0  0  0  0
  161.6110  210.5080  151.9590 N   0  0  0  0  0  2  0  0  0  0  0  0
  161.6540  211.3750  156.3380 C   0  0  0  0  0  3  0  0  0  0  0  0
  161.6090  208.6110  156.0030 C   0  0  0  0  0  3  0  0  0  0  0  0
  162.3520  209.1730  157.0400 C   0  0  0  0  0  3  0  0  0  0  0  0
  161.1380  208.3040  152.9160 C   0  0  0  0  0  2  0  0  0  0  0  0
  158.4970  212.4390  152.7370 C   0  0  1  0  0  3  0  0  0  0  0  0
  160.5500  211.4210  152.0750 N   0  0  0  0  0  0  0  0  0  0  0  0
  158.4590  213.4150  153.9070 C   0  0  2  0  0  3  0  0  0  0  0  0
  157.9600  212.9460  150.3590 C   0  0  0  0  0  1  0  0  0  0  0  0
  160.1320  211.8270  154.4380 C   0  0  2  0  0  3  0  0  0  0  0  0
  1 16  2  0  0  0  0
  1 21  1  0  0  0  0
  2  8  1  0  0  0  0
  3 17  2  0  0  0  0
  5 27  1  6  0  0  0
  5 24  1  0  0  0  0
  6  1  1  0  0  0  0
  8 14  1  0  0  0  0
  8  7  1  1  0  0  0
  9 18  1  0  0  0  0
  9 14  1  0  0  0  0
 10  8  1  0  0  0  0
 11 15  1  0  0  0  0
 12 28  1  0  0  0  0
 13  9  2  0  0  0  0
 15 19  1  0  0  0  0
 15 23  1  0  0  0  0
 16 20  1  0  0  0  0
 17  5  1  0  0  0  0
 17 25  1  0  0  0  0
 19 25  1  0  0  0  0
 20  4  2  0  0  0  0
 21 22  2  0  0  0  0
 22  4  1  0  0  0  0
 23  6  1  0  0  0  0
 24 12  1  0  0  0  0
 24 26  1  0  0  0  0
 25 12  1  0  0  0  0
 26 13  1  0  0  0  0
 26 10  1  0  0  0  0
 28 10  1  0  0  0  0
 28 16  1  0  0  0  0
M  END
>  <MODEL>
1

>  <REMARK>
 VINA RESULT:      -5.7      0.000      0.000
  Name = 
  0 active torsions:
  status: ('A' for Active; 'I' for Inactive)
                            x       y       z     vdW  Elec       q    Type
                         _______ _______ _______ _____ _____    ______ ____

>  <TORSDO>
F 0

$$$$
=
 OpenBabel11122414133D

 28 32  0  0  1  0  0  0  0  0999 V2000
  161.8940  204.8850  146.3030 C   0  0  0  0  0  0  0  0  0  0  0  0
  163.1290  206.7050  149.0140 F   0  0  0  0  0  0  0  0  0  0  0  0
  159.3160  201.9250  150.7840 O   0  0  0  0  0  0  0  0  0  0  0  0
  160.1020  206.4950  144.8600 C   0  0  0  0  0  3  0  0  0  0  0  0
  160.3350  203.9880  151.5570 C   0  0  2  0  0  3  0  0  0  0  0  0
  162.8560  203.9600  146.9790 C   0  0  0  0  0  2  0  0  0  0  0  0
  162.0360  208.3720  147.7520 C   0  0  0  0  0  1  0  0  0  0  0  0
  162.0670  207.5910  149.0530 C   0  0  1  0  0  0  0  0  0  0  0  0
  161.8950  208.2420  151.4760 C   0  0  0  0  0  0  0  0  0  0  0  0
  160.7220  206.8460  149.2620 C   0  0  2  0  0  3  0  0  0  0  0  0
  161.7780  200.3620  147.7450 C   0  0  0  0  0  1  0  0  0  0  0  0
  161.3040  204.4740  149.3230 C   0  0  1  0  0  3  0  0  0  0  0  0
  161.0970  207.2510  151.7270 N   0  0  0  0  0  0  0  0  0  0  0  0
  162.2890  208.5350  150.1380 N   0  0  0  0  0  2  0  0  0  0  0  0
  161.8490  201.8600  147.9520 C   0  0  2  0  0  3  0  0  0  0  0  0
  160.8590  205.5800  146.9880 C   0  0  0  0  0  0  0  0  0  0  0  0
  160.0140  202.9480  150.5520 C   0  0  0  0  0  0  0  0  0  0  0  0
  162.3230  209.0870  152.5370 N   0  0  0  0  0  1  0  0  0  0  0  0
  160.5050  202.3770  148.1740 N   0  0  0  0  0  2  0  0  0  0  0  0
  159.9670  206.3660  146.2430 C   0  0  0  0  0  3  0  0  0  0  0  0
  162.0190  205.0310  144.9140 C   0  0  0  0  0  3  0  0  0  0  0  0
  161.1320  205.8320  144.1960 C   0  0  0  0  0  3  0  0  0  0  0  0
  162.4720  202.5060  146.7220 C   0  0  0  0  0  2  0  0  0  0  0  0
  161.2190  204.9740  150.7760 C   0  0  1  0  0  3  0  0  0  0  0  0
  160.5570  203.2360  149.2830 N   0  0  0  0  0  0  0  0  0  0  0  0
  160.5630  206.3470  150.7060 C   0  0  2  0  0  3  0  0  0  0  0  0
  161.1410  203.3840  152.6920 C   0  0  0  0  0  1  0  0  0  0  0  0
  160.6110  205.5340  148.4840 C   0  0  2  0  0  3  0  0  0  0  0  0
  1  6  1  0  0  0  0
  1 16  1  0  0  0  0
  2  8  1  0  0  0  0
  4 20  1  0  0  0  0
  5 27  1  1  0  0  0
  8  7  1  6  0  0  0
  8 10  1  0  0  0  0
  8 14  1  0  0  0  0
  9 13  2  0  0  0  0
  9 18  1  0  0  0  0
 10 26  1  0  0  0  0
 11 15  1  0  0  0  0
 12 24  1  0  0  0  0
 14  9  1  0  0  0  0
 15 19  1  0  0  0  0
 16 28  1  0  0  0  0
 17  3  2  0  0  0  0
 17  5  1  0  0  0  0
 19 25  1  0  0  0  0
 20 16  2  0  0  0  0
 21  1  2  0  0  0  0
 22  4  2  0  0  0  0
 22 21  1  0  0  0  0
 23  6  1  0  0  0  0
 23 15  1  0  0  0  0
 24  5  1  0  0  0  0
 25 12  1  0  0  0  0
 25 17  1  0  0  0  0
 26 24  1  0  0  0  0
 26 13  1  0  0  0  0
 28 10  1  0  0  0  0
 28 12  1  0  0  0  0
M  END
>  <MODEL>
2

>  <REMARK>
 VINA RESULT:      -3.1      6.018      9.631
  Name = 
  0 active torsions:
  status: ('A' for Active; 'I' for Inactive)
                            x       y       z     vdW  Elec       q    Type
                         _______ _______ _______ _____ _____    ______ ____

>  <TORSDO>
F 0

$$$$
=
 OpenBabel11122414133D

 28 32  0  0  1  0  0  0  0  0999 V2000
  160.5060  211.0100  151.4880 C   0  0  0  0  0  0  0  0  0  0  0  0
  159.6460  207.6280  151.5780 F   0  0  0  0  0  0  0  0  0  0  0  0
  162.0380  209.7120  157.0970 O   0  0  0  0  0  0  0  0  0  0  0  0
  162.7130  211.3490  149.7850 C   0  0  0  0  0  3  0  0  0  0  0  0
  161.5400  207.7030  155.8290 C   0  0  2  0  0  3  0  0  0  0  0  0
  159.3100  210.9430  152.3860 C   0  0  0  0  0  2  0  0  0  0  0  0
  161.1830  207.7030  149.7900 C   0  0  0  0  0  1  0  0  0  0  0  0
  160.8950  207.1800  151.1850 C   0  0  1  0  0  0  0  0  0  0  0  0
  161.1120  204.9240  152.2750 C   0  0  0  0  0  0  0  0  0  0  0  0
  161.9960  207.6510  152.1720 C   0  0  2  0  0  3  0  0  0  0  0  0
  159.4070  212.7240  155.7790 C   0  0  0  0  0  1  0  0  0  0  0  0
  160.8310  209.0070  153.8370 C   0  0  1  0  0  3  0  0  0  0  0  0
  161.6200  205.4470  153.3470 N   0  0  0  0  0  0  0  0  0  0  0  0
  160.8680  205.7270  151.1220 N   0  0  0  0  0  2  0  0  0  0  0  0
  159.7070  211.6230  154.7840 C   0  0  2  0  0  3  0  0  0  0  0  0
  161.6500  210.1790  151.6400 C   0  0  0  0  0  0  0  0  0  0  0  0
  161.6330  209.1680  156.0350 C   0  0  0  0  0  0  0  0  0  0  0  0
  160.8620  203.5250  152.2240 N   0  0  0  0  0  1  0  0  0  0  0  0
  161.1270  211.2990  154.8430 N   0  0  0  0  0  2  0  0  0  0  0  0
  162.7460  210.3770  150.7860 C   0  0  0  0  0  3  0  0  0  0  0  0
  160.4880  211.9770  150.4740 C   0  0  0  0  0  3  0  0  0  0  0  0
  161.5810  212.1450  149.6250 C   0  0  0  0  0  3  0  0  0  0  0  0
  159.3260  212.0940  153.3860 C   0  0  0  0  0  2  0  0  0  0  0  0
  160.9710  207.5830  154.4050 C   0  0  1  0  0  3  0  0  0  0  0  0
  161.2420  209.9010  154.8970 N   0  0  0  0  0  0  0  0  0  0  0  0
  161.9560  206.8650  153.4910 C   0  0  2  0  0  3  0  0  0  0  0  0
  160.5540  207.1010  156.8130 C   0  0  0  0  0  1  0  0  0  0  0  0
  161.8080  209.0820  152.6760 C   0  0  2  0  0  3  0  0  0  0  0  0
  1 16  1  0  0  0  0
  1  6  1  0  0  0  0
  4 20  1  0  0  0  0
  5 17  1  0  0  0  0
  5 27  1  1  0  0  0
  6 23  1  0  0  0  0
  8  7  1  6  0  0  0
  8  2  1  0  0  0  0
  8 10  1  0  0  0  0
  9 13  2  0  0  0  0
 10 28  1  0  0  0  0
 10 26  1  0  0  0  0
 12 24  1  0  0  0  0
 12 25  1  0  0  0  0
 13 26  1  0  0  0  0
 14  8  1  0  0  0  0
 14  9  1  0  0  0  0
 15 19  1  0  0  0  0
 15 11  1  0  0  0  0
 16 28  1  0  0  0  0
 17  3  2  0  0  0  0
 18  9  1  0  0  0  0
 19 25  1  0  0  0  0
 20 16  2  0  0  0  0
 21  1  2  0  0  0  0
 22  4  2  0  0  0  0
 22 21  1  0  0  0  0
 23 15  1  0  0  0  0
 24  5  1  0  0  0  0
 25 17  1  0  0  0  0
 26 24  1  0  0  0  0
 28 12  1  0  0  0  0
M  END
>  <MODEL>
3

>  <REMARK>
 VINA RESULT:      -3.1      3.035      6.884
  Name = 
  0 active torsions:
  status: ('A' for Active; 'I' for Inactive)
                            x       y       z     vdW  Elec       q    Type
                         _______ _______ _______ _____ _____    ______ ____

>  <TORSDO>
F 0

$$$$
=
 OpenBabel11122414133D

 28 32  0  0  1  0  0  0  0  0999 V2000
  160.7390  208.5290  155.0380 C   0  0  0  0  0  0  0  0  0  0  0  0
  159.1480  210.6180  152.7370 F   0  0  0  0  0  0  0  0  0  0  0  0
  163.4340  206.7730  150.0240 O   0  0  0  0  0  0  0  0  0  0  0  0
  162.3870  210.0820  156.6990 C   0  0  0  0  0  3  0  0  0  0  0  0
  162.1270  208.7860  149.6670 C   0  0  2  0  0  3  0  0  0  0  0  0
  159.8670  207.6180  154.2320 C   0  0  0  0  0  2  0  0  0  0  0  0
  160.0870  212.1670  154.2500 C   0  0  0  0  0  1  0  0  0  0  0  0
  160.0880  211.6300  152.8310 C   0  0  1  0  0  0  0  0  0  0  0  0
  160.0530  212.7150  150.5620 C   0  0  0  0  0  0  0  0  0  0  0  0
  161.5030  211.1180  152.4520 C   0  0  2  0  0  3  0  0  0  0  0  0
  161.3470  204.3870  152.7960 C   0  0  0  0  0  1  0  0  0  0  0  0
  161.2210  208.7380  151.9790 C   0  0  1  0  0  3  0  0  0  0  0  0
  160.9540  211.8980  150.1140 N   0  0  0  0  0  0  0  0  0  0  0  0
  159.6940  212.7130  151.9420 N   0  0  0  0  0  2  0  0  0  0  0  0
  161.0780  205.8750  152.8670 C   0  0  2  0  0  3  0  0  0  0  0  0
  161.6420  209.4640  154.4620 C   0  0  0  0  0  0  0  0  0  0  0  0
  162.6260  207.6370  150.4580 C   0  0  0  0  0  0  0  0  0  0  0  0
  159.4680  213.6700  149.6840 N   0  0  0  0  0  1  0  0  0  0  0  0
  162.3340  206.5960  152.7060 N   0  0  0  0  0  2  0  0  0  0  0  0
  162.4660  210.2180  155.3120 C   0  0  0  0  0  3  0  0  0  0  0  0
  160.6680  208.4100  156.4330 C   0  0  0  0  0  3  0  0  0  0  0  0
  161.4830  209.1820  157.2590 C   0  0  0  0  0  3  0  0  0  0  0  0
  160.4420  206.2060  154.2110 C   0  0  0  0  0  2  0  0  0  0  0  0
  161.1670  209.4930  150.6380 C   0  0  1  0  0  3  0  0  0  0  0  0
  162.1180  207.6230  151.7720 N   0  0  0  0  0  0  0  0  0  0  0  0
  161.6490  210.9070  150.9380 C   0  0  2  0  0  3  0  0  0  0  0  0
  161.3460  208.2900  148.4650 C   0  0  0  0  0  1  0  0  0  0  0  0
  161.8170  209.7160  152.9770 C   0  0  2  0  0  3  0  0  0  0  0  0
  1 21  1  0  0  0  0
  2  8  1  0  0  0  0
  3 17  2  0  0  0  0
  4 22  1  0  0  0  0
  5 27  1  6  0  0  0
  5 17  1  0  0  0  0
  5 24  1  0  0  0  0
  6  1  1  0  0  0  0
  8  7  1  1  0  0  0
  9 14  1  0  0  0  0
 10  8  1  0  0  0  0
 10 28  1  0  0  0  0
 11 15  1  0  0  0  0
 12 28  1  0  0  0  0
 13  9  2  0  0  0  0
 13 26  1  0  0  0  0
 14  8  1  0  0  0  0
 15 23  1  0  0  0  0
 16  1  2  0  0  0  0
 16 20  1  0  0  0  0
 17 25  1  0  0  0  0
 18  9  1  0  0  0  0
 19 15  1  0  0  0  0
 20  4  2  0  0  0  0
 21 22  2  0  0  0  0
 23  6  1  0  0  0  0
 24 26  1  0  0  0  0
 24 12  1  0  0  0  0
 25 12  1  0  0  0  0
 25 19  1  0  0  0  0
 26 10  1  0  0  0  0
 28 16  1  0  0  0  0
M  END
>  <MODEL>
4

>  <REMARK>
 VINA RESULT:      -3.1      2.645      4.169
  Name = 
  0 active torsions:
  status: ('A' for Active; 'I' for Inactive)
                            x       y       z     vdW  Elec       q    Type
                         _______ _______ _______ _____ _____    ______ ____

>  <TORSDO>
F 0

$$$$
