=
 OpenBabel11122413303D

 31 35  0  0  1  0  0  0  0  0999 V2000
  160.7380  207.5750  156.2940 C   0  0  0  0  0  0  0  0  0  0  0  0
  161.9190  208.8370  152.9020 C   0  0  2  0  0  3  0  0  0  0  0  0
  161.4970  207.7830  151.8880 C   0  0  0  0  0  0  0  0  0  0  0  0
  160.8190  205.5100  151.3470 C   0  0  0  0  0  0  0  0  0  0  0  0
  161.1590  208.7320  154.2020 C   0  0  0  0  0  0  0  0  0  0  0  0
  159.7010  208.4650  156.5820 C   0  0  0  0  0  3  0  0  0  0  0  0
  161.1760  206.4760  152.2900 C   0  0  0  0  0  3  0  0  0  0  0  0
  160.3710  210.6490  152.2640 N   0  0  0  0  0  0  0  0  0  0  0  0
  161.0350  206.5780  157.1620 F   0  0  0  0  0  0  0  0  0  0  0  0
  161.8600  209.3680  150.0730 O   0  0  0  0  0  0  0  0  0  0  0  0
  160.4670  204.1350  151.7900 C   0  0  0  0  0  1  0  0  0  0  0  0
  159.8670  210.8310  153.6300 C   0  0  0  0  0  2  0  0  0  0  0  0
  161.7910  210.2670  152.3310 C   0  0  2  0  0  3  0  0  0  0  0  0
  161.4660  207.7090  155.1100 C   0  0  0  0  0  3  0  0  0  0  0  0
  160.7890  205.8340  149.9890 C   0  0  0  0  0  3  0  0  0  0  0  0
  160.1140  209.6300  154.4980 C   0  0  0  0  0  0  0  0  0  0  0  0
  159.3970  209.4980  155.6910 C   0  0  0  0  0  3  0  0  0  0  0  0
  162.4590  210.3160  150.9520 C   0  0  0  0  0  2  0  0  0  0  0  0
  161.5020  208.0900  150.5110 C   0  0  0  0  0  0  0  0  0  0  0  0
  161.1330  207.1230  149.5720 C   0  0  0  0  0  3  0  0  0  0  0  0
  157.9770  212.0600  151.9470 O   0  0  0  0  0  0  0  0  0  0  0  0
  159.0370  212.5900  151.5140 C   0  0  0  0  0  0  0  0  0  0  0  0
  160.2850  211.9080  151.6460 N   0  0  0  0  0  2  0  0  0  0  0  0
  157.6300  213.8490  148.2310 C   0  0  1  0  0  3  0  0  0  0  0  0
  157.5730  214.4530  150.6670 C   0  0  0  0  0  2  0  0  0  0  0  0
  161.0540  213.4330  149.6570 O   0  0  0  0  0  1  0  0  0  0  0  0
  156.9510  213.1760  147.2170 O   0  0  0  0  0  1  0  0  0  0  0  0
  156.8440  213.7300  149.5340 C   0  0  0  0  0  2  0  0  0  0  0  0
  159.7740  213.9720  149.5110 C   0  0  2  0  0  3  0  0  0  0  0  0
  159.0050  213.9310  150.8410 C   0  0  2  0  0  3  0  0  0  0  0  0
  159.0210  213.2460  148.3970 C   0  0  0  0  0  2  0  0  0  0  0  0
  1  6  1  0  0  0  0
  1  9  1  0  0  0  0
  2  3  1  6  0  0  0
  2  5  1  0  0  0  0
  3  7  1  0  0  0  0
  4 11  1  0  0  0  0
  4  7  2  0  0  0  0
  5 16  2  0  0  0  0
  5 14  1  0  0  0  0
  8 13  1  0  0  0  0
  8 12  1  0  0  0  0
 10 19  1  0  0  0  0
 10 18  1  0  0  0  0
 12 16  1  0  0  0  0
 13 18  1  6  0  0  0
 13  2  1  0  0  0  0
 14  1  2  0  0  0  0
 15  4  1  0  0  0  0
 16 17  1  0  0  0  0
 17  6  2  0  0  0  0
 19  3  2  0  0  0  0
 20 15  2  0  0  0  0
 20 19  1  0  0  0  0
 22 23  1  0  0  0  0
 22 21  2  0  0  0  0
 23  8  1  0  0  0  0
 24 27  1  6  0  0  0
 24 31  1  0  0  0  0
 24 28  1  0  0  0  0
 25 30  1  0  0  0  0
 28 25  1  0  0  0  0
 29 26  1  1  0  0  0
 29 30  1  0  0  0  0
 30 22  1  6  0  0  0
 31 29  1  0  0  0  0
M  END
>  <MODEL>
1

>  <REMARK>
 VINA RESULT:      -7.3      0.000      0.000
  Name = 
  2 active torsions:
  status: ('A' for Active; 'I' for Inactive)
    1  A    between atoms: C_5  and  C_30
    2  A    between atoms: N_10  and  N_16
                            x       y       z     vdW  Elec       q    Type
                         _______ _______ _______ _____ _____    ______ ____

>  <TORSDO>
F 2

$$$$
=
 OpenBabel11122413303D

 31 35  0  0  1  0  0  0  0  0999 V2000
  160.4940  209.4390  154.5230 C   0  0  0  0  0  0  0  0  0  0  0  0
  162.1460  209.9800  151.1360 C   0  0  2  0  0  3  0  0  0  0  0  0
  161.7570  208.7820  150.2800 C   0  0  0  0  0  0  0  0  0  0  0  0
  160.9640  206.4910  150.0700 C   0  0  0  0  0  0  0  0  0  0  0  0
  161.2390  210.1620  152.3290 C   0  0  0  0  0  0  0  0  0  0  0  0
  159.5060  210.4270  154.5170 C   0  0  0  0  0  3  0  0  0  0  0  0
  161.2900  207.5930  150.8640 C   0  0  0  0  0  3  0  0  0  0  0  0
  160.8290  211.7290  149.9990 N   0  0  0  0  0  0  0  0  0  0  0  0
  160.6110  208.6050  155.5840 F   0  0  0  0  0  0  0  0  0  0  0  0
  162.4480  209.9790  148.2730 O   0  0  0  0  0  0  0  0  0  0  0  0
  160.4560  205.2460  150.7020 C   0  0  0  0  0  1  0  0  0  0  0  0
  160.1910  212.1900  151.2370 C   0  0  0  0  0  2  0  0  0  0  0  0
  162.1970  211.2840  150.3090 C   0  0  2  0  0  3  0  0  0  0  0  0
  161.3590  209.3090  153.4350 C   0  0  0  0  0  3  0  0  0  0  0  0
  161.1140  206.5600  148.6830 C   0  0  0  0  0  3  0  0  0  0  0  0
  160.2420  211.1590  152.3270 C   0  0  0  0  0  0  0  0  0  0  0  0
  159.3880  211.2920  153.4260 C   0  0  0  0  0  3  0  0  0  0  0  0
  163.0180  211.0370  149.0380 C   0  0  0  0  0  2  0  0  0  0  0  0
  161.9410  208.8280  148.8820 C   0  0  0  0  0  0  0  0  0  0  0  0
  161.6040  207.7260  148.0910 C   0  0  0  0  0  3  0  0  0  0  0  0
  160.0810  211.7170  147.3040 O   0  0  0  0  0  0  0  0  0  0  0  0
  160.5130  212.7970  147.7920 C   0  0  0  0  0  0  0  0  0  0  0  0
  160.9140  212.8540  149.1620 N   0  0  0  0  0  2  0  0  0  0  0  0
  161.8010  213.4670  144.2950 C   0  0  1  0  0  3  0  0  0  0  0  0
  159.7640  213.9440  145.6820 C   0  0  0  0  0  2  0  0  0  0  0  0
  162.8820  214.4140  147.7390 O   0  0  0  0  0  1  0  0  0  0  0  0
  162.3460  212.6030  143.3470 O   0  0  0  0  0  1  0  0  0  0  0  0
  160.3830  213.0170  144.6350 C   0  0  0  0  0  2  0  0  0  0  0  0
  162.0800  214.4030  146.5960 C   0  0  2  0  0  3  0  0  0  0  0  0
  160.6300  214.0300  146.9440 C   0  0  2  0  0  3  0  0  0  0  0  0
  162.6710  213.4630  145.5460 C   0  0  0  0  0  2  0  0  0  0  0  0
  1  9  1  0  0  0  0
  2  3  1  6  0  0  0
  2  5  1  0  0  0  0
  3  7  1  0  0  0  0
  4 11  1  0  0  0  0
  4  7  2  0  0  0  0
  5 14  1  0  0  0  0
  6  1  1  0  0  0  0
  8 13  1  0  0  0  0
  8 12  1  0  0  0  0
 10 19  1  0  0  0  0
 10 18  1  0  0  0  0
 12 16  1  0  0  0  0
 13 18  1  6  0  0  0
 13  2  1  0  0  0  0
 14  1  2  0  0  0  0
 15  4  1  0  0  0  0
 16  5  2  0  0  0  0
 16 17  1  0  0  0  0
 17  6  2  0  0  0  0
 19  3  2  0  0  0  0
 20 15  2  0  0  0  0
 20 19  1  0  0  0  0
 21 22  2  0  0  0  0
 22 23  1  0  0  0  0
 23  8  1  0  0  0  0
 24 27  1  6  0  0  0
 24 28  1  0  0  0  0
 24 31  1  0  0  0  0
 25 30  1  0  0  0  0
 28 25  1  0  0  0  0
 29 30  1  0  0  0  0
 29 26  1  1  0  0  0
 30 22  1  6  0  0  0
 31 29  1  0  0  0  0
M  END
>  <MODEL>
2

>  <REMARK>
 VINA RESULT:      -6.6      2.510      3.390
  Name = 
  2 active torsions:
  status: ('A' for Active; 'I' for Inactive)
    1  A    between atoms: C_5  and  C_30
    2  A    between atoms: N_10  and  N_16
                            x       y       z     vdW  Elec       q    Type
                         _______ _______ _______ _____ _____    ______ ____

>  <TORSDO>
F 2

$$$$
=
 OpenBabel11122413303D

 31 35  0  0  1  0  0  0  0  0999 V2000
  160.9700  206.4080  146.6200 C   0  0  0  0  0  0  0  0  0  0  0  0
  160.2620  205.1290  150.1350 C   0  0  2  0  0  3  0  0  0  0  0  0
  160.7130  203.6740  150.1540 C   0  0  0  0  0  0  0  0  0  0  0  0
  161.2750  201.6110  148.9930 C   0  0  0  0  0  0  0  0  0  0  0  0
  160.8660  205.9110  148.9930 C   0  0  0  0  0  0  0  0  0  0  0  0
  162.0320  207.2860  146.8470 C   0  0  0  0  0  3  0  0  0  0  0  0
  160.8900  202.9530  148.9620 C   0  0  0  0  0  3  0  0  0  0  0  0
  162.0020  206.1050  151.5860 N   0  0  0  0  0  0  0  0  0  0  0  0
  160.5060  206.2180  145.3620 F   0  0  0  0  0  0  0  0  0  0  0  0
  160.6690  203.6810  152.5900 O   0  0  0  0  0  0  0  0  0  0  0  0
  161.4720  200.8660  147.7220 C   0  0  0  0  0  1  0  0  0  0  0  0
  162.3660  207.1440  150.6160 C   0  0  0  0  0  2  0  0  0  0  0  0
  160.5590  205.8390  151.4750 C   0  0  2  0  0  3  0  0  0  0  0  0
  160.3870  205.7250  147.6890 C   0  0  0  0  0  3  0  0  0  0  0  0
  161.4760  200.9690  150.2170 C   0  0  0  0  0  3  0  0  0  0  0  0
  161.9370  206.7990  149.2190 C   0  0  0  0  0  0  0  0  0  0  0  0
  162.5080  207.4890  148.1450 C   0  0  0  0  0  3  0  0  0  0  0  0
  160.0500  204.9640  152.6270 C   0  0  0  0  0  2  0  0  0  0  0  0
  160.8810  203.0060  151.3860 C   0  0  0  0  0  0  0  0  0  0  0  0
  161.2770  201.6660  151.4110 C   0  0  0  0  0  3  0  0  0  0  0  0
  160.6300  208.3160  152.6120 O   0  0  0  0  0  0  0  0  0  0  0  0
  161.5150  207.7830  153.3350 C   0  0  0  0  0  0  0  0  0  0  0  0
  162.2490  206.6550  152.8560 N   0  0  0  0  0  2  0  0  0  0  0  0
  159.5390  209.7790  155.8750 C   0  0  1  0  0  3  0  0  0  0  0  0
  160.9440  207.7010  155.7850 C   0  0  0  0  0  2  0  0  0  0  0  0
  162.5280  210.4360  153.7380 O   0  0  0  0  0  1  0  0  0  0  0  0
  158.2330  210.2640  155.8310 O   0  0  0  0  0  1  0  0  0  0  0  0
  159.5210  208.2580  155.7490 C   0  0  0  0  0  2  0  0  0  0  0  0
  161.7800  209.8650  154.7700 C   0  0  2  0  0  3  0  0  0  0  0  0
  161.8250  208.3300  154.6980 C   0  0  2  0  0  3  0  0  0  0  0  0
  160.3470  210.3930  154.7370 C   0  0  0  0  0  2  0  0  0  0  0  0
  1  6  2  0  0  0  0
  1 14  1  0  0  0  0
  2  5  1  6  0  0  0
  2  3  1  0  0  0  0
  2 13  1  0  0  0  0
  3 19  1  0  0  0  0
  4 15  2  0  0  0  0
  5 16  1  0  0  0  0
  6 17  1  0  0  0  0
  7  4  1  0  0  0  0
  7  3  2  0  0  0  0
  8 23  1  0  0  0  0
  9  1  1  0  0  0  0
 10 18  1  0  0  0  0
 11  4  1  0  0  0  0
 12  8  1  0  0  0  0
 13  8  1  0  0  0  0
 13 18  1  1  0  0  0
 14  5  2  0  0  0  0
 15 20  1  0  0  0  0
 16 12  1  0  0  0  0
 17 16  2  0  0  0  0
 19 20  2  0  0  0  0
 19 10  1  0  0  0  0
 21 22  2  0  0  0  0
 23 22  1  0  0  0  0
 24 27  1  6  0  0  0
 28 25  1  0  0  0  0
 28 24  1  0  0  0  0
 29 26  1  6  0  0  0
 30 22  1  6  0  0  0
 30 29  1  0  0  0  0
 30 25  1  0  0  0  0
 31 29  1  0  0  0  0
 31 24  1  0  0  0  0
M  END
>  <MODEL>
3

>  <REMARK>
 VINA RESULT:      -6.6      4.510      6.920
  Name = 
  2 active torsions:
  status: ('A' for Active; 'I' for Inactive)
    1  A    between atoms: C_5  and  C_30
    2  A    between atoms: N_10  and  N_16
                            x       y       z     vdW  Elec       q    Type
                         _______ _______ _______ _____ _____    ______ ____

>  <TORSDO>
F 2

$$$$
=
 OpenBabel11122413303D

 31 35  0  0  1  0  0  0  0  0999 V2000
  161.0520  204.6030  145.0720 C   0  0  0  0  0  0  0  0  0  0  0  0
  160.4480  205.2800  148.7690 C   0  0  2  0  0  3  0  0  0  0  0  0
  160.8480  204.0070  149.5030 C   0  0  0  0  0  0  0  0  0  0  0  0
  161.2880  201.6140  149.5160 C   0  0  0  0  0  0  0  0  0  0  0  0
  161.0310  205.3580  147.3780 C   0  0  0  0  0  0  0  0  0  0  0  0
  162.1530  205.4210  144.8100 C   0  0  0  0  0  3  0  0  0  0  0  0
  160.9490  202.7800  148.8270 C   0  0  0  0  0  3  0  0  0  0  0  0
  162.2810  206.7590  149.5060 N   0  0  0  0  0  0  0  0  0  0  0  0
  160.5290  203.8350  144.0860 F   0  0  0  0  0  0  0  0  0  0  0  0
  160.9070  205.2280  151.6110 O   0  0  0  0  0  0  0  0  0  0  0  0
  161.4060  200.3270  148.7830 C   0  0  0  0  0  1  0  0  0  0  0  0
  162.6400  207.1560  148.1410 C   0  0  0  0  0  2  0  0  0  0  0  0
  160.8260  206.5470  149.5700 C   0  0  2  0  0  3  0  0  0  0  0  0
  160.4910  204.5730  146.3500 C   0  0  0  0  0  3  0  0  0  0  0  0
  161.5180  201.6570  150.8930 C   0  0  0  0  0  3  0  0  0  0  0  0
  162.1410  206.1840  147.1100 C   0  0  0  0  0  0  0  0  0  0  0  0
  162.6890  206.2190  145.8240 C   0  0  0  0  0  3  0  0  0  0  0  0
  160.3350  206.3890  151.0140 C   0  0  0  0  0  2  0  0  0  0  0  0
  161.0440  204.0330  150.9000 C   0  0  0  0  0  0  0  0  0  0  0  0
  161.3940  202.8650  151.5830 C   0  0  0  0  0  3  0  0  0  0  0  0
  161.4660  209.3820  148.9780 O   0  0  0  0  0  0  0  0  0  0  0  0
  162.1540  209.1740  150.0150 C   0  0  0  0  0  0  0  0  0  0  0  0
  162.6000  207.8540  150.3270 N   0  0  0  0  0  2  0  0  0  0  0  0
  160.2500  211.2480  152.5480 C   0  0  1  0  0  3  0  0  0  0  0  0
  162.3810  209.9280  152.4050 C   0  0  0  0  0  2  0  0  0  0  0  0
  161.8690  211.9250  149.2540 O   0  0  0  0  0  1  0  0  0  0  0  0
  158.9140  211.1990  152.9410 O   0  0  0  0  0  1  0  0  0  0  0  0
  160.9140  209.9050  152.8370 C   0  0  0  0  0  2  0  0  0  0  0  0
  161.7910  211.6180  150.6140 C   0  0  2  0  0  3  0  0  0  0  0  0
  162.5290  210.3070  150.9260 C   0  0  2  0  0  3  0  0  0  0  0  0
  160.3300  211.5680  151.0590 C   0  0  0  0  0  2  0  0  0  0  0  0
  1 14  1  0  0  0  0
  2  5  1  6  0  0  0
  2  3  1  0  0  0  0
  2 13  1  0  0  0  0
  3 19  1  0  0  0  0
  4 15  2  0  0  0  0
  6  1  2  0  0  0  0
  6 17  1  0  0  0  0
  7  3  2  0  0  0  0
  7  4  1  0  0  0  0
  8 13  1  0  0  0  0
  8 23  1  0  0  0  0
  9  1  1  0  0  0  0
 11  4  1  0  0  0  0
 12  8  1  0  0  0  0
 13 18  1  1  0  0  0
 14  5  2  0  0  0  0
 15 20  1  0  0  0  0
 16  5  1  0  0  0  0
 16 12  1  0  0  0  0
 17 16  2  0  0  0  0
 18 10  1  0  0  0  0
 19 20  2  0  0  0  0
 19 10  1  0  0  0  0
 21 22  2  0  0  0  0
 22 23  1  0  0  0  0
 24 28  1  0  0  0  0
 24 27  1  6  0  0  0
 25 28  1  0  0  0  0
 29 26  1  6  0  0  0
 29 30  1  0  0  0  0
 29 31  1  0  0  0  0
 30 22  1  6  0  0  0
 30 25  1  0  0  0  0
 31 24  1  0  0  0  0
M  END
>  <MODEL>
4

>  <REMARK>
 VINA RESULT:      -6.3      3.722      6.744
  Name = 
  2 active torsions:
  status: ('A' for Active; 'I' for Inactive)
    1  A    between atoms: C_5  and  C_30
    2  A    between atoms: N_10  and  N_16
                            x       y       z     vdW  Elec       q    Type
                         _______ _______ _______ _____ _____    ______ ____

>  <TORSDO>
F 2

$$$$
=
 OpenBabel11122413303D

 31 35  0  0  1  0  0  0  0  0999 V2000
  161.0110  204.1460  145.2900 C   0  0  0  0  0  0  0  0  0  0  0  0
  160.4480  205.7100  148.7150 C   0  0  2  0  0  3  0  0  0  0  0  0
  160.7990  204.6350  149.7340 C   0  0  0  0  0  0  0  0  0  0  0  0
  161.1430  202.2990  150.3210 C   0  0  0  0  0  0  0  0  0  0  0  0
  161.0290  205.4310  147.3500 C   0  0  0  0  0  0  0  0  0  0  0  0
  162.1440  204.8340  144.8470 C   0  0  0  0  0  3  0  0  0  0  0  0
  160.8480  203.2790  149.3710 C   0  0  0  0  0  3  0  0  0  0  0  0
  162.3410  207.2480  149.0890 N   0  0  0  0  0  0  0  0  0  0  0  0
  160.4550  203.1860  144.5130 F   0  0  0  0  0  0  0  0  0  0  0  0
  160.9140  206.3200  151.4900 O   0  0  0  0  0  0  0  0  0  0  0  0
  161.2060  200.8690  149.9170 C   0  0  0  0  0  1  0  0  0  0  0  0
  162.7110  207.2940  147.6700 C   0  0  0  0  0  2  0  0  0  0  0  0
  160.8790  207.1150  149.1920 C   0  0  2  0  0  3  0  0  0  0  0  0
  160.4540  204.4450  146.5350 C   0  0  0  0  0  3  0  0  0  0  0  0
  161.3790  202.6600  151.6490 C   0  0  0  0  0  3  0  0  0  0  0  0
  162.1700  206.1240  146.8990 C   0  0  0  0  0  0  0  0  0  0  0  0
  162.7150  205.8290  145.6450 C   0  0  0  0  0  3  0  0  0  0  0  0
  160.3870  207.3270  150.6290 C   0  0  0  0  0  2  0  0  0  0  0  0
  161.0010  204.9860  151.0860 C   0  0  0  0  0  0  0  0  0  0  0  0
  161.3060  204.0020  152.0300 C   0  0  0  0  0  3  0  0  0  0  0  0
  161.4910  209.6980  148.0420 O   0  0  0  0  0  0  0  0  0  0  0  0
  162.2400  209.7180  149.0560 C   0  0  0  0  0  0  0  0  0  0  0  0
  162.7060  208.4940  149.6260 N   0  0  0  0  0  2  0  0  0  0  0  0
  160.5200  213.0440  149.6200 C   0  0  1  0  0  3  0  0  0  0  0  0
  161.8490  211.3600  150.9230 C   0  0  0  0  0  2  0  0  0  0  0  0
  163.3610  211.8580  147.5110 O   0  0  0  0  0  1  0  0  0  0  0  0
  159.2300  213.4650  149.3010 O   0  0  0  0  0  1  0  0  0  0  0  0
  160.4450  211.8480  150.5640 C   0  0  0  0  0  2  0  0  0  0  0  0
  162.6750  212.1940  148.6790 C   0  0  2  0  0  3  0  0  0  0  0  0
  162.6660  211.0200  149.6700 C   0  0  2  0  0  3  0  0  0  0  0  0
  161.2600  212.6630  148.3420 C   0  0  0  0  0  2  0  0  0  0  0  0
  1 14  1  0  0  0  0
  2  5  1  6  0  0  0
  2 13  1  0  0  0  0
  2  3  1  0  0  0  0
  3 19  1  0  0  0  0
  4 15  2  0  0  0  0
  6  1  2  0  0  0  0
  6 17  1  0  0  0  0
  7  3  2  0  0  0  0
  7  4  1  0  0  0  0
  8 13  1  0  0  0  0
  8 23  1  0  0  0  0
  9  1  1  0  0  0  0
 11  4  1  0  0  0  0
 12  8  1  0  0  0  0
 13 18  1  1  0  0  0
 14  5  2  0  0  0  0
 15 20  1  0  0  0  0
 16  5  1  0  0  0  0
 16 12  1  0  0  0  0
 17 16  2  0  0  0  0
 18 10  1  0  0  0  0
 19 10  1  0  0  0  0
 19 20  2  0  0  0  0
 21 22  2  0  0  0  0
 22 23  1  0  0  0  0
 24 27  1  6  0  0  0
 24 28  1  0  0  0  0
 28 25  1  0  0  0  0
 29 26  1  6  0  0  0
 29 30  1  0  0  0  0
 30 22  1  6  0  0  0
 30 25  1  0  0  0  0
 31 29  1  0  0  0  0
 31 24  1  0  0  0  0
M  END
>  <MODEL>
5

>  <REMARK>
 VINA RESULT:      -6.0      3.936      6.374
  Name = 
  2 active torsions:
  status: ('A' for Active; 'I' for Inactive)
    1  A    between atoms: C_5  and  C_30
    2  A    between atoms: N_10  and  N_16
                            x       y       z     vdW  Elec       q    Type
                         _______ _______ _______ _____ _____    ______ ____

>  <TORSDO>
F 2

$$$$
=
 OpenBabel11122413303D

 31 35  0  0  1  0  0  0  0  0999 V2000
  158.2760  213.5510  152.5480 C   0  0  0  0  0  0  0  0  0  0  0  0
  161.0590  213.2650  149.9660 C   0  0  2  0  0  3  0  0  0  0  0  0
  161.3870  211.7820  149.8600 C   0  0  0  0  0  0  0  0  0  0  0  0
  161.3460  209.5290  150.7780 C   0  0  0  0  0  0  0  0  0  0  0  0
  159.7070  213.5200  150.5870 C   0  0  0  0  0  0  0  0  0  0  0  0
  157.1840  213.9020  151.7500 C   0  0  0  0  0  3  0  0  0  0  0  0
  161.0150  210.8820  150.8720 C   0  0  0  0  0  3  0  0  0  0  0  0
  159.9940  213.5970  147.7650 N   0  0  0  0  0  0  0  0  0  0  0  0
  158.1150  213.3900  153.8830 F   0  0  0  0  0  0  0  0  0  0  0  0
  162.5750  212.1820  147.7710 O   0  0  0  0  0  0  0  0  0  0  0  0
  160.9310  208.5870  151.8500 C   0  0  0  0  0  1  0  0  0  0  0  0
  158.7880  214.2100  148.3330 C   0  0  0  0  0  2  0  0  0  0  0  0
  161.1500  213.9720  148.5950 C   0  0  2  0  0  3  0  0  0  0  0  0
  159.5330  213.3640  151.9700 C   0  0  0  0  0  3  0  0  0  0  0  0
  162.0670  209.0600  149.6770 C   0  0  0  0  0  3  0  0  0  0  0  0
  158.6040  213.8760  149.7860 C   0  0  0  0  0  0  0  0  0  0  0  0
  157.3510  214.0740  150.3730 C   0  0  0  0  0  3  0  0  0  0  0  0
  162.4780  213.5960  147.9260 C   0  0  0  0  0  2  0  0  0  0  0  0
  162.1480  211.3060  148.7710 C   0  0  0  0  0  0  0  0  0  0  0  0
  162.4680  209.9490  148.6770 C   0  0  0  0  0  3  0  0  0  0  0  0
  159.8970  212.1420  145.3790 O   0  0  0  0  0  0  0  0  0  0  0  0
  160.0970  213.3850  145.3050 C   0  0  0  0  0  0  0  0  0  0  0  0
  160.1620  214.1730  146.4950 N   0  0  0  0  0  2  0  0  0  0  0  0
  160.9930  212.1380  141.8430 C   0  0  1  0  0  3  0  0  0  0  0  0
  159.2580  213.5830  142.9410 C   0  0  0  0  0  2  0  0  0  0  0  0
  162.6590  214.2980  144.3910 O   0  0  0  0  0  1  0  0  0  0  0  0
  161.2670  210.8520  141.3850 O   0  0  0  0  0  1  0  0  0  0  0  0
  159.5810  212.1820  142.4210 C   0  0  0  0  0  2  0  0  0  0  0  0
  161.7190  213.9340  143.4250 C   0  0  2  0  0  3  0  0  0  0  0  0
  160.2890  214.0540  143.9750 C   0  0  2  0  0  3  0  0  0  0  0  0
  162.0120  212.5260  142.9090 C   0  0  0  0  0  2  0  0  0  0  0  0
  1  9  1  0  0  0  0
  2  3  1  6  0  0  0
  2  5  1  0  0  0  0
  3  7  1  0  0  0  0
  4  7  2  0  0  0  0
  4 11  1  0  0  0  0
  5 14  2  0  0  0  0
  6  1  2  0  0  0  0
  8 12  1  0  0  0  0
  8 13  1  0  0  0  0
 10 18  1  0  0  0  0
 10 19  1  0  0  0  0
 12 16  1  0  0  0  0
 13 18  1  6  0  0  0
 13  2  1  0  0  0  0
 14  1  1  0  0  0  0
 15  4  1  0  0  0  0
 16 17  2  0  0  0  0
 16  5  1  0  0  0  0
 17  6  1  0  0  0  0
 19  3  2  0  0  0  0
 20 19  1  0  0  0  0
 20 15  2  0  0  0  0
 22 21  2  0  0  0  0
 22 23  1  0  0  0  0
 23  8  1  0  0  0  0
 24 27  1  1  0  0  0
 24 28  1  0  0  0  0
 24 31  1  0  0  0  0
 25 30  1  0  0  0  0
 28 25  1  0  0  0  0
 29 30  1  0  0  0  0
 29 26  1  1  0  0  0
 30 22  1  1  0  0  0
 31 29  1  0  0  0  0
M  END
>  <MODEL>
6

>  <REMARK>
 VINA RESULT:      -5.8      3.981      6.095
  Name = 
  2 active torsions:
  status: ('A' for Active; 'I' for Inactive)
    1  A    between atoms: C_5  and  C_30
    2  A    between atoms: N_10  and  N_16
                            x       y       z     vdW  Elec       q    Type
                         _______ _______ _______ _____ _____    ______ ____

>  <TORSDO>
F 2

$$$$
=
 OpenBabel11122413303D

 31 35  0  0  1  0  0  0  0  0999 V2000
  161.9410  206.5640  147.4490 C   0  0  0  0  0  0  0  0  0  0  0  0
  162.4440  209.1830  150.1650 C   0  0  2  0  0  3  0  0  0  0  0  0
  161.8250  210.4680  149.6330 C   0  0  0  0  0  0  0  0  0  0  0  0
  161.0400  211.8380  147.7810 C   0  0  0  0  0  0  0  0  0  0  0  0
  161.9520  207.9550  149.4380 C   0  0  0  0  0  0  0  0  0  0  0  0
  160.9860  205.7290  148.0340 C   0  0  0  0  0  3  0  0  0  0  0  0
  161.5810  210.6430  148.2610 C   0  0  0  0  0  3  0  0  0  0  0  0
  160.8120  208.6580  151.9390 N   0  0  0  0  0  0  0  0  0  0  0  0
  162.3960  206.3010  146.2000 F   0  0  0  0  0  0  0  0  0  0  0  0
  161.8360  211.4160  151.8780 O   0  0  0  0  0  0  0  0  0  0  0  0
  160.7730  212.0010  146.3280 C   0  0  0  0  0  1  0  0  0  0  0  0
  160.5870  207.2890  151.4610 C   0  0  0  0  0  2  0  0  0  0  0  0
  162.2150  209.0220  151.6850 C   0  0  2  0  0  3  0  0  0  0  0  0
  162.4240  207.6710  148.1490 C   0  0  0  0  0  3  0  0  0  0  0  0
  160.7480  212.8780  148.6660 C   0  0  0  0  0  3  0  0  0  0  0  0
  160.9910  207.1090  150.0260 C   0  0  0  0  0  0  0  0  0  0  0  0
  160.5200  205.9950  149.3240 C   0  0  0  0  0  3  0  0  0  0  0  0
  162.6010  210.3280  152.3890 C   0  0  0  0  0  2  0  0  0  0  0  0
  161.5620  211.5390  150.5130 C   0  0  0  0  0  0  0  0  0  0  0  0
  161.0110  212.7290  150.0300 C   0  0  0  0  0  3  0  0  0  0  0  0
  159.2340  210.5010  153.3300 O   0  0  0  0  0  0  0  0  0  0  0  0
  159.7940  209.5840  153.9920 C   0  0  0  0  0  0  0  0  0  0  0  0
  160.6140  208.6210  153.3300 N   0  0  0  0  0  2  0  0  0  0  0  0
  162.1090  210.1290  156.9380 C   0  0  1  0  0  3  0  0  0  0  0  0
  159.8350  210.8560  156.1630 C   0  0  0  0  0  2  0  0  0  0  0  0
  160.3390  207.1890  155.4730 O   0  0  0  0  0  1  0  0  0  0  0  0
  163.4560  210.4840  156.9810 O   0  0  0  0  0  1  0  0  0  0  0  0
  161.3170  211.2260  156.2310 C   0  0  0  0  0  2  0  0  0  0  0  0
  160.4820  208.4080  156.1380 C   0  0  2  0  0  3  0  0  0  0  0  0
  159.6220  209.4990  155.4810 C   0  0  2  0  0  3  0  0  0  0  0  0
  161.9560  208.8060  156.1970 C   0  0  0  0  0  2  0  0  0  0  0  0
  1  6  2  0  0  0  0
  1 14  1  0  0  0  0
  2  5  1  6  0  0  0
  2 13  1  0  0  0  0
  3  2  1  0  0  0  0
  3 19  1  0  0  0  0
  4  7  1  0  0  0  0
  4 15  2  0  0  0  0
  5 16  1  0  0  0  0
  6 17  1  0  0  0  0
  7  3  2  0  0  0  0
  8 23  1  0  0  0  0
  9  1  1  0  0  0  0
 10 18  1  0  0  0  0
 11  4  1  0  0  0  0
 12  8  1  0  0  0  0
 13  8  1  0  0  0  0
 13 18  1  1  0  0  0
 14  5  2  0  0  0  0
 15 20  1  0  0  0  0
 16 12  1  0  0  0  0
 17 16  2  0  0  0  0
 19 10  1  0  0  0  0
 20 19  2  0  0  0  0
 21 22  2  0  0  0  0
 23 22  1  0  0  0  0
 24 27  1  6  0  0  0
 25 28  1  0  0  0  0
 28 24  1  0  0  0  0
 29 26  1  6  0  0  0
 29 31  1  0  0  0  0
 30 22  1  6  0  0  0
 30 29  1  0  0  0  0
 30 25  1  0  0  0  0
 31 24  1  0  0  0  0
M  END
>  <MODEL>
7

>  <REMARK>
 VINA RESULT:      -5.5      3.161      6.853
  Name = 
  2 active torsions:
  status: ('A' for Active; 'I' for Inactive)
    1  A    between atoms: C_5  and  C_30
    2  A    between atoms: N_10  and  N_16
                            x       y       z     vdW  Elec       q    Type
                         _______ _______ _______ _____ _____    ______ ____

>  <TORSDO>
F 2

$$$$
=
 OpenBabel11122413303D

 31 35  0  0  1  0  0  0  0  0999 V2000
  161.9870  213.6710  147.3380 C   0  0  0  0  0  0  0  0  0  0  0  0
  159.6570  214.3920  150.2610 C   0  0  2  0  0  3  0  0  0  0  0  0
  158.2420  214.2860  149.7090 C   0  0  0  0  0  0  0  0  0  0  0  0
  156.6870  214.2990  147.8380 C   0  0  0  0  0  0  0  0  0  0  0  0
  160.6770  213.7110  149.3810 C   0  0  0  0  0  0  0  0  0  0  0  0
  162.5040  212.4210  147.6900 C   0  0  0  0  0  3  0  0  0  0  0  0
  157.9920  214.3680  148.3300 C   0  0  0  0  0  3  0  0  0  0  0  0
  159.6860  212.3730  151.6790 N   0  0  0  0  0  0  0  0  0  0  0  0
  162.3650  214.2560  146.1770 F   0  0  0  0  0  0  0  0  0  0  0  0
  157.3570  214.1490  151.9760 O   0  0  0  0  0  0  0  0  0  0  0  0
  156.4410  214.3710  146.3740 C   0  0  0  0  0  1  0  0  0  0  0  0
  160.9210  211.8540  151.0830 C   0  0  0  0  0  2  0  0  0  0  0  0
  159.7540  213.8440  151.7020 C   0  0  2  0  0  3  0  0  0  0  0  0
  161.0790  214.3140  148.1810 C   0  0  0  0  0  3  0  0  0  0  0  0
  155.6130  214.1600  148.7200 C   0  0  0  0  0  3  0  0  0  0  0  0
  161.2030  212.4520  149.7340 C   0  0  0  0  0  0  0  0  0  0  0  0
  162.1210  211.8180  148.8910 C   0  0  0  0  0  3  0  0  0  0  0  0
  158.6270  214.4530  152.5450 C   0  0  0  0  0  2  0  0  0  0  0  0
  157.1480  214.1860  150.5950 C   0  0  0  0  0  0  0  0  0  0  0  0
  155.8440  214.1060  150.0970 C   0  0  0  0  0  3  0  0  0  0  0  0
  160.0370  209.6940  152.3990 O   0  0  0  0  0  0  0  0  0  0  0  0
  159.8620  210.5350  153.3220 C   0  0  0  0  0  0  0  0  0  0  0  0
  159.6720  211.9150  153.0070 N   0  0  0  0  0  2  0  0  0  0  0  0
  159.0790  212.2980  156.5810 C   0  0  1  0  0  3  0  0  0  0  0  0
  158.4260  210.2030  155.3620 C   0  0  0  0  0  2  0  0  0  0  0  0
  162.1330  210.7890  155.0560 O   0  0  0  0  0  1  0  0  0  0  0  0
  158.7150  213.6190  156.8340 O   0  0  0  0  0  1  0  0  0  0  0  0
  158.0450  211.6520  155.6630 C   0  0  0  0  0  2  0  0  0  0  0  0
  160.8660  210.8230  155.6400 C   0  0  2  0  0  3  0  0  0  0  0  0
  159.8330  210.1020  154.7590 C   0  0  2  0  0  3  0  0  0  0  0  0
  160.4570  212.2670  155.9280 C   0  0  0  0  0  2  0  0  0  0  0  0
  1  6  2  0  0  0  0
  1 14  1  0  0  0  0
  2  5  1  6  0  0  0
  2 13  1  0  0  0  0
  3  2  1  0  0  0  0
  3 19  1  0  0  0  0
  4  7  1  0  0  0  0
  4 15  2  0  0  0  0
  5 16  1  0  0  0  0
  6 17  1  0  0  0  0
  7  3  2  0  0  0  0
  8 13  1  0  0  0  0
  8 23  1  0  0  0  0
  9  1  1  0  0  0  0
 10 18  1  0  0  0  0
 11  4  1  0  0  0  0
 12  8  1  0  0  0  0
 13 18  1  1  0  0  0
 14  5  2  0  0  0  0
 15 20  1  0  0  0  0
 16 12  1  0  0  0  0
 17 16  2  0  0  0  0
 19 10  1  0  0  0  0
 20 19  2  0  0  0  0
 21 22  2  0  0  0  0
 23 22  1  0  0  0  0
 24 27  1  6  0  0  0
 25 28  1  0  0  0  0
 28 24  1  0  0  0  0
 29 26  1  6  0  0  0
 29 31  1  0  0  0  0
 30 22  1  6  0  0  0
 30 25  1  0  0  0  0
 30 29  1  0  0  0  0
 31 24  1  0  0  0  0
M  END
>  <MODEL>
8

>  <REMARK>
 VINA RESULT:      -5.1      3.912      7.771
  Name = 
  2 active torsions:
  status: ('A' for Active; 'I' for Inactive)
    1  A    between atoms: C_5  and  C_30
    2  A    between atoms: N_10  and  N_16
                            x       y       z     vdW  Elec       q    Type
                         _______ _______ _______ _____ _____    ______ ____

>  <TORSDO>
F 2

$$$$
=
 OpenBabel11122413303D

 31 35  0  0  1  0  0  0  0  0999 V2000
  160.6370  201.5590  148.8130 C   0  0  0  0  0  0  0  0  0  0  0  0
  162.3300  204.7790  149.9330 C   0  0  2  0  0  3  0  0  0  0  0  0
  161.8320  205.8680  148.9940 C   0  0  0  0  0  0  0  0  0  0  0  0
  160.8310  206.5580  146.8860 C   0  0  0  0  0  0  0  0  0  0  0  0
  161.4440  203.5570  149.9300 C   0  0  0  0  0  0  0  0  0  0  0  0
  159.7440  201.3280  149.8620 C   0  0  0  0  0  3  0  0  0  0  0  0
  161.2570  205.5500  147.7520 C   0  0  0  0  0  3  0  0  0  0  0  0
  161.1800  205.4790  152.0010 N   0  0  0  0  0  0  0  0  0  0  0  0
  160.6770  200.7090  147.7590 F   0  0  0  0  0  0  0  0  0  0  0  0
  162.6300  207.5790  150.5350 O   0  0  0  0  0  0  0  0  0  0  0  0
  160.2100  206.2030  145.5830 C   0  0  0  0  0  1  0  0  0  0  0  0
  160.5890  204.1570  152.2350 C   0  0  0  0  0  2  0  0  0  0  0  0
  162.5020  205.3020  151.3770 C   0  0  2  0  0  3  0  0  0  0  0  0
  161.4850  202.6670  148.8480 C   0  0  0  0  0  3  0  0  0  0  0  0
  160.9850  207.8990  147.2430 C   0  0  0  0  0  3  0  0  0  0  0  0
  160.5440  203.3200  150.9880 C   0  0  0  0  0  0  0  0  0  0  0  0
  159.7060  202.2010  150.9530 C   0  0  0  0  0  3  0  0  0  0  0  0
  163.2960  206.6130  151.3430 C   0  0  0  0  0  2  0  0  0  0  0  0
  162.0190  207.2260  149.3290 C   0  0  0  0  0  0  0  0  0  0  0  0
  161.5810  208.2320  148.4620 C   0  0  0  0  0  3  0  0  0  0  0  0
  160.4560  208.1030  152.6430 O   0  0  0  0  0  0  0  0  0  0  0  0
  160.9760  207.3950  153.5490 C   0  0  0  0  0  0  0  0  0  0  0  0
  161.3680  206.0510  153.2710 N   0  0  0  0  0  2  0  0  0  0  0  0
  159.0580  209.7970  155.7610 C   0  0  1  0  0  3  0  0  0  0  0  0
  160.1130  207.5240  155.9090 C   0  0  0  0  0  2  0  0  0  0  0  0
  162.3440  209.8760  153.9950 O   0  0  0  0  0  1  0  0  0  0  0  0
  157.8600  210.4750  155.5410 O   0  0  0  0  0  1  0  0  0  0  0  0
  158.8110  208.2930  155.6800 C   0  0  0  0  0  2  0  0  0  0  0  0
  161.3990  209.4790  154.9420 C   0  0  2  0  0  3  0  0  0  0  0  0
  161.2050  207.9550  154.9220 C   0  0  2  0  0  3  0  0  0  0  0  0
  160.0820  210.2210  154.7140 C   0  0  0  0  0  2  0  0  0  0  0  0
  1 14  2  0  0  0  0
  1  6  1  0  0  0  0
  2  3  1  6  0  0  0
  2 13  1  0  0  0  0
  3 19  1  0  0  0  0
  4 15  2  0  0  0  0
  4  7  1  0  0  0  0
  5  2  1  0  0  0  0
  5 16  2  0  0  0  0
  6 17  2  0  0  0  0
  7  3  2  0  0  0  0
  8 12  1  0  0  0  0
  8 23  1  0  0  0  0
  9  1  1  0  0  0  0
 10 18  1  0  0  0  0
 11  4  1  0  0  0  0
 13 18  1  6  0  0  0
 13  8  1  0  0  0  0
 14  5  1  0  0  0  0
 15 20  1  0  0  0  0
 16 12  1  0  0  0  0
 17 16  1  0  0  0  0
 19 10  1  0  0  0  0
 20 19  2  0  0  0  0
 21 22  2  0  0  0  0
 23 22  1  0  0  0  0
 24 27  1  6  0  0  0
 28 24  1  0  0  0  0
 28 25  1  0  0  0  0
 29 26  1  6  0  0  0
 30 22  1  6  0  0  0
 30 29  1  0  0  0  0
 30 25  1  0  0  0  0
 31 29  1  0  0  0  0
 31 24  1  0  0  0  0
M  END
>  <MODEL>
9

>  <REMARK>
 VINA RESULT:      -5.0      4.397      6.725
  Name = 
  2 active torsions:
  status: ('A' for Active; 'I' for Inactive)
    1  A    between atoms: C_5  and  C_30
    2  A    between atoms: N_10  and  N_16
                            x       y       z     vdW  Elec       q    Type
                         _______ _______ _______ _____ _____    ______ ____

>  <TORSDO>
F 2

$$$$
