=
 OpenBabel11122412393D

 30 35  0  0  1  0  0  0  0  0999 V2000
  161.3100  206.2740  150.3850 C   0  0  0  0  0  0  0  0  0  0  0  0
  161.1090  203.7400  150.3900 C   0  0  0  0  0  0  0  0  0  0  0  0
  160.6760  206.4120  154.5250 N   0  0  0  0  0  2  0  0  0  0  0  0
  161.2770  207.5000  151.1240 C   0  0  0  0  0  0  0  0  0  0  0  0
  161.5750  206.3400  149.0130 C   0  0  0  0  0  3  0  0  0  0  0  0
  162.1080  209.9330  148.4360 O   0  0  0  0  0  1  0  0  0  0  0  0
  160.3450  210.4120  151.8650 C   0  0  1  0  0  3  0  0  0  0  0  0
  161.8340  208.7340  149.0890 C   0  0  0  0  0  0  0  0  0  0  0  0
  160.0240  209.6850  153.1740 C   0  0  2  0  0  3  0  0  0  0  0  0
  160.7370  207.8520  154.7640 C   0  0  1  0  0  3  0  0  0  0  0  0
  161.8250  207.5470  148.3580 C   0  0  0  0  0  0  0  0  0  0  0  0
  161.5740  208.7250  150.4690 C   0  0  0  0  0  0  0  0  0  0  0  0
  160.9310  202.5680  151.1320 C   0  0  0  0  0  3  0  0  0  0  0  0
  160.1790  210.7290  154.2650 C   0  0  0  0  0  2  0  0  0  0  0  0
  160.3150  211.9010  152.1670 C   0  0  0  0  0  2  0  0  0  0  0  0
  161.3140  203.4790  148.6600 Cl  0  0  0  0  0  0  0  0  0  0  0  0
  160.8570  206.2330  153.1330 C   0  0  0  0  0  0  0  0  0  0  0  0
  160.7430  202.6080  152.5090 C   0  0  0  0  0  3  0  0  0  0  0  0
  161.1030  205.0130  151.0460 C   0  0  0  0  0  0  0  0  0  0  0  0
  160.9880  207.4290  152.5010 C   0  0  0  0  0  0  0  0  0  0  0  0
  161.9730  208.1720  155.5860 C   0  0  0  0  0  1  0  0  0  0  0  0
  160.8410  208.4950  153.4430 N   0  0  0  0  0  0  0  0  0  0  0  0
  159.8480  212.0430  153.6010 C   0  0  0  0  0  2  0  0  0  0  0  0
  162.8970  210.1340  152.0860 C   0  0  0  0  0  1  0  0  0  0  0  0
  160.7240  203.8290  153.1690 C   0  0  0  0  0  3  0  0  0  0  0  0
  160.8960  205.0190  152.4580 C   0  0  0  0  0  0  0  0  0  0  0  0
  161.6630  210.0350  151.1940 C   0  0  2  0  0  3  0  0  0  0  0  0
  162.0780  207.5860  146.9830 O   0  0  0  0  0  0  0  0  0  0  0  0
  160.5920  206.2330  145.6770 C   0  0  0  0  0  1  0  0  0  0  0  0
  162.0140  206.4340  146.1550 C   0  0  0  0  0  2  0  0  0  0  0  0
  1 19  1  0  0  0  0
  1  4  1  0  0  0  0
  2 19  2  0  0  0  0
  2 13  1  0  0  0  0
  3 10  1  0  0  0  0
  4 20  1  0  0  0  0
  5  1  2  0  0  0  0
  6  8  1  0  0  0  0
  7 15  1  1  0  0  0
  7  9  1  0  0  0  0
  8 12  1  0  0  0  0
  9 22  1  0  0  0  0
  9 14  1  1  0  0  0
 10 21  1  1  0  0  0
 11  5  1  0  0  0  0
 11  8  2  0  0  0  0
 12  4  2  0  0  0  0
 12 27  1  0  0  0  0
 13 18  2  0  0  0  0
 15 23  1  0  0  0  0
 16  2  1  0  0  0  0
 17  3  1  0  0  0  0
 18 25  1  0  0  0  0
 19 26  1  0  0  0  0
 20 17  2  0  0  0  0
 20 22  1  0  0  0  0
 22 10  1  0  0  0  0
 23 14  1  0  0  0  0
 26 17  1  0  0  0  0
 26 25  2  0  0  0  0
 27  7  1  0  0  0  0
 27 24  1  1  0  0  0
 28 11  1  0  0  0  0
 29 30  1  0  0  0  0
 30 28  1  0  0  0  0
M  END
>  <MODEL>
1

>  <REMARK>
 VINA RESULT:      -7.4      0.000      0.000
  Name = 
  2 active torsions:
  status: ('A' for Active; 'I' for Inactive)
    1  A    between atoms: C_11  and  O_28
    2  A    between atoms: O_28  and  C_30
                            x       y       z     vdW  Elec       q    Type
                         _______ _______ _______ _____ _____    ______ ____

>  <TORSDO>
F 2

$$$$
=
 OpenBabel11122412393D

 30 35  0  0  1  0  0  0  0  0999 V2000
  161.3380  207.6770  151.1240 C   0  0  0  0  0  0  0  0  0  0  0  0
  161.4050  205.3150  150.1890 C   0  0  0  0  0  0  0  0  0  0  0  0
  160.5150  206.2200  154.9660 N   0  0  0  0  0  2  0  0  0  0  0  0
  161.1440  208.5360  152.2540 C   0  0  0  0  0  0  0  0  0  0  0  0
  161.6540  208.2690  149.8960 C   0  0  0  0  0  3  0  0  0  0  0  0
  161.8300  211.8500  150.7130 O   0  0  0  0  0  1  0  0  0  0  0  0
  159.8800  210.8780  153.9300 C   0  0  1  0  0  3  0  0  0  0  0  0
  161.6560  210.4770  150.8600 C   0  0  0  0  0  0  0  0  0  0  0  0
  159.5810  209.6950  154.8540 C   0  0  2  0  0  3  0  0  0  0  0  0
  160.4140  207.4680  155.7180 C   0  0  1  0  0  3  0  0  0  0  0  0
  161.8030  209.6490  149.7490 C   0  0  0  0  0  0  0  0  0  0  0  0
  161.3390  209.9360  152.1170 C   0  0  0  0  0  0  0  0  0  0  0  0
  161.3200  203.9410  150.4360 C   0  0  0  0  0  3  0  0  0  0  0  0
  159.5790  210.2690  156.2590 C   0  0  0  0  0  2  0  0  0  0  0  0
  159.6810  212.1420  154.7510 C   0  0  0  0  0  2  0  0  0  0  0  0
  161.7110  205.7320  148.5050 Cl  0  0  0  0  0  0  0  0  0  0  0  0
  160.7740  206.5850  153.6230 C   0  0  0  0  0  0  0  0  0  0  0  0
  161.0690  203.4520  151.7130 C   0  0  0  0  0  3  0  0  0  0  0  0
  161.2370  206.2490  151.2610 C   0  0  0  0  0  0  0  0  0  0  0  0
  160.8050  207.9360  153.4830 C   0  0  0  0  0  0  0  0  0  0  0  0
  161.5730  207.5620  156.6950 C   0  0  0  0  0  1  0  0  0  0  0  0
  160.5060  208.5610  154.7340 N   0  0  0  0  0  0  0  0  0  0  0  0
  159.1400  211.7040  156.0960 C   0  0  0  0  0  2  0  0  0  0  0  0
  162.4350  210.7490  154.2350 C   0  0  0  0  0  1  0  0  0  0  0  0
  160.8930  204.3370  152.7690 C   0  0  0  0  0  3  0  0  0  0  0  0
  160.9700  205.7150  152.5570 C   0  0  0  0  0  0  0  0  0  0  0  0
  161.2580  210.8870  153.2740 C   0  0  2  0  0  3  0  0  0  0  0  0
  162.1090  210.2160  148.5070 O   0  0  0  0  0  0  0  0  0  0  0  0
  162.5180  212.3850  147.5740 C   0  0  0  0  0  1  0  0  0  0  0  0
  161.4710  211.3860  148.0150 C   0  0  0  0  0  2  0  0  0  0  0  0
  1 19  2  0  0  0  0
  1  4  1  0  0  0  0
  2 13  2  0  0  0  0
  2 19  1  0  0  0  0
  3 10  1  0  0  0  0
  4 20  2  0  0  0  0
  5  1  1  0  0  0  0
  6  8  1  0  0  0  0
  7 15  1  1  0  0  0
  7  9  1  0  0  0  0
  8 12  2  0  0  0  0
  9 14  1  1  0  0  0
 10 21  1  1  0  0  0
 11  5  2  0  0  0  0
 11  8  1  0  0  0  0
 12  4  1  0  0  0  0
 12 27  1  0  0  0  0
 13 18  1  0  0  0  0
 15 23  1  0  0  0  0
 16  2  1  0  0  0  0
 17  3  1  0  0  0  0
 18 25  2  0  0  0  0
 19 26  1  0  0  0  0
 20 17  1  0  0  0  0
 20 22  1  0  0  0  0
 22  9  1  0  0  0  0
 22 10  1  0  0  0  0
 23 14  1  0  0  0  0
 26 25  1  0  0  0  0
 26 17  2  0  0  0  0
 27  7  1  0  0  0  0
 27 24  1  1  0  0  0
 28 11  1  0  0  0  0
 29 30  1  0  0  0  0
 30 28  1  0  0  0  0
M  END
>  <MODEL>
2

>  <REMARK>
 VINA RESULT:      -6.7      1.668      2.418
  Name = 
  2 active torsions:
  status: ('A' for Active; 'I' for Inactive)
    1  A    between atoms: C_11  and  O_28
    2  A    between atoms: O_28  and  C_30
                            x       y       z     vdW  Elec       q    Type
                         _______ _______ _______ _____ _____    ______ ____

>  <TORSDO>
F 2

$$$$
=
 OpenBabel11122412393D

 30 35  0  0  1  0  0  0  0  0999 V2000
  161.3410  207.8440  151.4110 C   0  0  0  0  0  0  0  0  0  0  0  0
  161.5410  210.3280  150.9090 C   0  0  0  0  0  0  0  0  0  0  0  0
  162.0460  206.8930  147.3910 N   0  0  0  0  0  2  0  0  0  0  0  0
  161.3580  206.4970  150.9240 C   0  0  0  0  0  0  0  0  0  0  0  0
  161.1400  208.0450  152.7810 C   0  0  0  0  0  3  0  0  0  0  0  0
  160.9070  204.6220  154.1040 O   0  0  0  0  0  1  0  0  0  0  0  0
  160.2780  203.5880  150.4120 C   0  0  1  0  0  3  0  0  0  0  0  0
  161.0420  205.6760  153.2040 C   0  0  0  0  0  0  0  0  0  0  0  0
  160.5050  204.0470  148.9700 C   0  0  2  0  0  3  0  0  0  0  0  0
  161.9600  205.4350  147.4350 C   0  0  1  0  0  3  0  0  0  0  0  0
  160.9810  206.9860  153.6760 C   0  0  0  0  0  0  0  0  0  0  0  0
  161.2400  205.4170  151.8380 C   0  0  0  0  0  0  0  0  0  0  0  0
  161.7900  211.3280  149.9650 C   0  0  0  0  0  3  0  0  0  0  0  0
  160.8400  202.7880  148.1910 C   0  0  0  0  0  2  0  0  0  0  0  0
  160.1190  202.0760  150.3750 C   0  0  0  0  0  2  0  0  0  0  0  0
  161.2210  210.9280  152.5350 Cl  0  0  0  0  0  0  0  0  0  0  0  0
  161.7990  207.3450  148.7100 C   0  0  0  0  0  0  0  0  0  0  0  0
  162.0470  211.0160  148.6340 C   0  0  0  0  0  3  0  0  0  0  0  0
  161.5500  208.9510  150.5160 C   0  0  0  0  0  0  0  0  0  0  0  0
  161.5370  206.3020  149.5410 C   0  0  0  0  0  0  0  0  0  0  0  0
  163.3290  204.8430  147.1530 C   0  0  0  0  0  1  0  0  0  0  0  0
  161.5370  205.0790  148.8000 N   0  0  0  0  0  0  0  0  0  0  0  0
  160.1170  201.6770  148.9140 C   0  0  0  0  0  2  0  0  0  0  0  0
  162.7770  203.5890  151.0360 C   0  0  0  0  0  1  0  0  0  0  0  0
  162.0530  209.6890  148.2250 C   0  0  0  0  0  3  0  0  0  0  0  0
  161.8060  208.6650  149.1420 C   0  0  0  0  0  0  0  0  0  0  0  0
  161.3540  203.9810  151.4210 C   0  0  2  0  0  3  0  0  0  0  0  0
  160.7730  207.2150  155.0400 O   0  0  0  0  0  0  0  0  0  0  0  0
  160.0140  209.1980  156.1520 C   0  0  0  0  0  1  0  0  0  0  0  0
  161.2140  208.3940  155.6990 C   0  0  0  0  0  2  0  0  0  0  0  0
  1  5  2  0  0  0  0
  2 16  1  0  0  0  0
  3 10  1  0  0  0  0
  3 17  1  0  0  0  0
  4  1  1  0  0  0  0
  4 12  2  0  0  0  0
  5 11  1  0  0  0  0
  7 15  1  6  0  0  0
  7 27  1  0  0  0  0
  8 11  2  0  0  0  0
  8  6  1  0  0  0  0
  9 14  1  6  0  0  0
  9  7  1  0  0  0  0
 10 21  1  1  0  0  0
 10 22  1  0  0  0  0
 11 28  1  0  0  0  0
 12  8  1  0  0  0  0
 13  2  2  0  0  0  0
 14 23  1  0  0  0  0
 17 26  1  0  0  0  0
 17 20  2  0  0  0  0
 18 13  1  0  0  0  0
 19  2  1  0  0  0  0
 19  1  1  0  0  0  0
 20  4  1  0  0  0  0
 22  9  1  0  0  0  0
 22 20  1  0  0  0  0
 23 15  1  0  0  0  0
 25 18  2  0  0  0  0
 25 26  1  0  0  0  0
 26 19  2  0  0  0  0
 27 24  1  6  0  0  0
 27 12  1  0  0  0  0
 28 30  1  0  0  0  0
 30 29  1  0  0  0  0
M  END
>  <MODEL>
3

>  <REMARK>
 VINA RESULT:      -6.1      3.216      7.277
  Name = 
  2 active torsions:
  status: ('A' for Active; 'I' for Inactive)
    1  A    between atoms: C_11  and  O_28
    2  A    between atoms: O_28  and  C_30
                            x       y       z     vdW  Elec       q    Type
                         _______ _______ _______ _____ _____    ______ ____

>  <TORSDO>
F 2

$$$$
=
 OpenBabel11122412393D

 30 35  0  0  1  0  0  0  0  0999 V2000
  160.7180  210.4790  151.7760 C   0  0  0  0  0  0  0  0  0  0  0  0
  161.9130  208.5860  150.5720 C   0  0  0  0  0  0  0  0  0  0  0  0
  160.3520  208.1520  155.2410 N   0  0  0  0  0  2  0  0  0  0  0  0
  160.0730  210.9530  152.9630 C   0  0  0  0  0  0  0  0  0  0  0  0
  160.8250  211.3570  150.6910 C   0  0  0  0  0  3  0  0  0  0  0  0
  159.3060  214.4530  151.9670 O   0  0  0  0  0  1  0  0  0  0  0  0
  157.7670  212.1790  154.7160 C   0  0  1  0  0  3  0  0  0  0  0  0
  159.7590  213.1380  151.9140 C   0  0  0  0  0  0  0  0  0  0  0  0
  157.9640  210.8390  155.4300 C   0  0  2  0  0  3  0  0  0  0  0  0
  159.6430  209.0780  156.1200 C   0  0  1  0  0  3  0  0  0  0  0  0
  160.3470  212.6670  150.7410 C   0  0  0  0  0  0  0  0  0  0  0  0
  159.6260  212.2990  153.0320 C   0  0  0  0  0  0  0  0  0  0  0  0
  162.4370  207.2910  150.6290 C   0  0  0  0  0  3  0  0  0  0  0  0
  157.5970  211.0960  156.8800 C   0  0  0  0  0  2  0  0  0  0  0  0
  156.9580  213.0640  155.6500 C   0  0  0  0  0  2  0  0  0  0  0  0
  162.1240  209.3860  149.0160 Cl  0  0  0  0  0  0  0  0  0  0  0  0
  160.5190  208.8250  154.0070 C   0  0  0  0  0  0  0  0  0  0  0  0
  162.3380  206.5240  151.7840 C   0  0  0  0  0  3  0  0  0  0  0  0
  161.2610  209.1480  151.7160 C   0  0  0  0  0  0  0  0  0  0  0  0
  159.9490  210.0580  154.0440 C   0  0  0  0  0  0  0  0  0  0  0  0
  160.5580  209.4880  157.2610 C   0  0  0  0  0  1  0  0  0  0  0  0
  159.3070  210.2590  155.3060 N   0  0  0  0  0  0  0  0  0  0  0  0
  156.5720  212.2040  156.8350 C   0  0  0  0  0  2  0  0  0  0  0  0
  160.0740  213.1160  155.3740 C   0  0  0  0  0  1  0  0  0  0  0  0
  161.7030  207.0410  152.9050 C   0  0  0  0  0  3  0  0  0  0  0  0
  161.1660  208.3310  152.8810 C   0  0  0  0  0  0  0  0  0  0  0  0
  159.0380  212.8990  154.2750 C   0  0  2  0  0  3  0  0  0  0  0  0
  160.4580  213.5210  149.6380 O   0  0  0  0  0  0  0  0  0  0  0  0
  162.3360  213.5490  148.1500 C   0  0  0  0  0  1  0  0  0  0  0  0
  160.9130  213.0810  148.3670 C   0  0  0  0  0  2  0  0  0  0  0  0
  1  4  1  0  0  0  0
  2 13  2  0  0  0  0
  2 19  1  0  0  0  0
  3 10  1  0  0  0  0
  4 12  1  0  0  0  0
  4 20  2  0  0  0  0
  5 11  2  0  0  0  0
  5  1  1  0  0  0  0
  7  9  1  0  0  0  0
  7 15  1  1  0  0  0
  8  6  1  0  0  0  0
  8 12  2  0  0  0  0
  9 14  1  1  0  0  0
 10 21  1  1  0  0  0
 11  8  1  0  0  0  0
 12 27  1  0  0  0  0
 13 18  1  0  0  0  0
 15 23  1  0  0  0  0
 16  2  1  0  0  0  0
 17 20  1  0  0  0  0
 17  3  1  0  0  0  0
 18 25  2  0  0  0  0
 19  1  2  0  0  0  0
 19 26  1  0  0  0  0
 20 22  1  0  0  0  0
 22  9  1  0  0  0  0
 22 10  1  0  0  0  0
 23 14  1  0  0  0  0
 26 25  1  0  0  0  0
 26 17  2  0  0  0  0
 27  7  1  0  0  0  0
 27 24  1  1  0  0  0
 28 11  1  0  0  0  0
 29 30  1  0  0  0  0
 30 28  1  0  0  0  0
M  END
>  <MODEL>
4

>  <REMARK>
 VINA RESULT:      -5.8      2.924      4.754
  Name = 
  2 active torsions:
  status: ('A' for Active; 'I' for Inactive)
    1  A    between atoms: C_11  and  O_28
    2  A    between atoms: O_28  and  C_30
                            x       y       z     vdW  Elec       q    Type
                         _______ _______ _______ _____ _____    ______ ____

>  <TORSDO>
F 2

$$$$
=
 OpenBabel11122412393D

 30 35  0  0  1  0  0  0  0  0999 V2000
  161.5940  208.4260  151.4670 C   0  0  0  0  0  0  0  0  0  0  0  0
  161.4420  208.8070  153.9750 C   0  0  0  0  0  0  0  0  0  0  0  0
  160.8320  204.3350  151.9600 N   0  0  0  0  0  2  0  0  0  0  0  0
  161.5440  207.5090  150.3680 C   0  0  0  0  0  0  0  0  0  0  0  0
  161.8110  209.7790  151.1840 C   0  0  0  0  0  3  0  0  0  0  0  0
  161.9830  209.8490  147.5110 O   0  0  0  0  0  1  0  0  0  0  0  0
  162.5570  206.0160  147.7910 C   0  0  1  0  0  3  0  0  0  0  0  0
  161.8630  209.3650  148.8110 C   0  0  0  0  0  0  0  0  0  0  0  0
  162.3260  204.8210  148.7200 C   0  0  2  0  0  3  0  0  0  0  0  0
  160.8880  203.8760  150.5740 C   0  0  1  0  0  3  0  0  0  0  0  0
  161.9560  210.2550  149.8790 C   0  0  0  0  0  0  0  0  0  0  0  0
  161.6470  207.9960  149.0380 C   0  0  0  0  0  0  0  0  0  0  0  0
  161.2060  208.2650  155.2420 C   0  0  0  0  0  3  0  0  0  0  0  0
  161.9580  203.6650  147.8090 C   0  0  0  0  0  2  0  0  0  0  0  0
  162.6840  205.4620  146.3810 C   0  0  0  0  0  2  0  0  0  0  0  0
  161.7890  210.5340  153.9770 Cl  0  0  0  0  0  0  0  0  0  0  0  0
  161.1010  205.7250  151.9290 C   0  0  0  0  0  0  0  0  0  0  0  0
  160.9300  206.9120  155.4080 C   0  0  0  0  0  3  0  0  0  0  0  0
  161.4000  207.9670  152.8160 C   0  0  0  0  0  0  0  0  0  0  0  0
  161.3480  206.1450  150.6610 C   0  0  0  0  0  0  0  0  0  0  0  0
  159.5040  203.4300  150.1370 C   0  0  0  0  0  1  0  0  0  0  0  0
  161.3150  205.0310  149.7640 N   0  0  0  0  0  0  0  0  0  0  0  0
  162.6640  203.9530  146.5060 C   0  0  0  0  0  2  0  0  0  0  0  0
  160.0640  206.6420  147.6210 C   0  0  0  0  0  1  0  0  0  0  0  0
  160.8920  206.0740  154.3020 C   0  0  0  0  0  3  0  0  0  0  0  0
  161.1260  206.5820  153.0220 C   0  0  0  0  0  0  0  0  0  0  0  0
  161.4990  207.1150  147.8340 C   0  0  2  0  0  3  0  0  0  0  0  0
  162.1810  211.6120  149.6250 O   0  0  0  0  0  0  0  0  0  0  0  0
  161.4640  213.3810  148.1750 C   0  0  0  0  0  1  0  0  0  0  0  0
  161.1280  212.5360  149.3850 C   0  0  0  0  0  2  0  0  0  0  0  0
  1 19  1  0  0  0  0
  2 16  1  0  0  0  0
  2 13  1  0  0  0  0
  4 20  1  0  0  0  0
  4  1  2  0  0  0  0
  5  1  1  0  0  0  0
  6  8  1  0  0  0  0
  7 15  1  6  0  0  0
  7 27  1  0  0  0  0
  7  9  1  0  0  0  0
  8 12  2  0  0  0  0
  8 11  1  0  0  0  0
  9 14  1  6  0  0  0
  9 22  1  0  0  0  0
 10 21  1  6  0  0  0
 10  3  1  0  0  0  0
 11  5  2  0  0  0  0
 12  4  1  0  0  0  0
 13 18  2  0  0  0  0
 15 23  1  0  0  0  0
 17  3  1  0  0  0  0
 17 26  1  0  0  0  0
 19 26  1  0  0  0  0
 19  2  2  0  0  0  0
 20 17  2  0  0  0  0
 22 10  1  0  0  0  0
 22 20  1  0  0  0  0
 23 14  1  0  0  0  0
 25 18  1  0  0  0  0
 26 25  2  0  0  0  0
 27 24  1  1  0  0  0
 27 12  1  0  0  0  0
 28 11  1  0  0  0  0
 29 30  1  0  0  0  0
 30 28  1  0  0  0  0
M  END
>  <MODEL>
5

>  <REMARK>
 VINA RESULT:      -5.3      2.503      5.671
  Name = 
  2 active torsions:
  status: ('A' for Active; 'I' for Inactive)
    1  A    between atoms: C_11  and  O_28
    2  A    between atoms: O_28  and  C_30
                            x       y       z     vdW  Elec       q    Type
                         _______ _______ _______ _____ _____    ______ ____

>  <TORSDO>
F 2

$$$$
=
 OpenBabel11122412393D

 30 35  0  0  1  0  0  0  0  0999 V2000
  161.0280  209.4200  151.6340 C   0  0  0  0  0  0  0  0  0  0  0  0
  161.0050  211.8260  150.8170 C   0  0  0  0  0  0  0  0  0  0  0  0
  162.0570  208.0470  147.8110 N   0  0  0  0  0  2  0  0  0  0  0  0
  161.2090  208.0320  151.3310 C   0  0  0  0  0  0  0  0  0  0  0  0
  160.7300  209.7700  152.9550 C   0  0  0  0  0  3  0  0  0  0  0  0
  160.7660  206.5380  154.7080 O   0  0  0  0  0  1  0  0  0  0  0  0
  160.4600  204.9810  151.1620 C   0  0  1  0  0  3  0  0  0  0  0  0
  160.8460  207.4770  153.6830 C   0  0  0  0  0  0  0  0  0  0  0  0
  160.7220  205.2760  149.6820 C   0  0  2  0  0  3  0  0  0  0  0  0
  162.1160  206.6060  148.0430 C   0  0  1  0  0  3  0  0  0  0  0  0
  160.6260  208.8220  153.9750 C   0  0  0  0  0  0  0  0  0  0  0  0
  161.1480  207.0690  152.3740 C   0  0  0  0  0  0  0  0  0  0  0  0
  161.2060  212.7200  149.7610 C   0  0  0  0  0  3  0  0  0  0  0  0
  161.2260  203.9710  149.0930 C   0  0  0  0  0  2  0  0  0  0  0  0
  160.4560  203.4690  151.3180 C   0  0  0  0  0  2  0  0  0  0  0  0
  160.5330  212.5900  152.3330 Cl  0  0  0  0  0  0  0  0  0  0  0  0
  161.6890  208.6330  149.0460 C   0  0  0  0  0  0  0  0  0  0  0  0
  161.5690  212.2710  148.4960 C   0  0  0  0  0  3  0  0  0  0  0  0
  161.1760  210.4200  150.6110 C   0  0  0  0  0  0  0  0  0  0  0  0
  161.4860  207.6830  149.9950 C   0  0  0  0  0  0  0  0  0  0  0  0
  163.5510  206.1330  147.9020 C   0  0  0  0  0  1  0  0  0  0  0  0
  161.6530  206.3820  149.4230 N   0  0  0  0  0  0  0  0  0  0  0  0
  160.5790  202.8900  149.9240 C   0  0  0  0  0  2  0  0  0  0  0  0
  162.9060  205.3310  151.8890 C   0  0  0  0  0  1  0  0  0  0  0  0
  161.7330  210.9110  148.2660 C   0  0  0  0  0  3  0  0  0  0  0  0
  161.5380  209.9910  149.2990 C   0  0  0  0  0  0  0  0  0  0  0  0
  161.4300  205.6130  152.1560 C   0  0  2  0  0  3  0  0  0  0  0  0
  160.3180  209.1990  155.2860 O   0  0  0  0  0  0  0  0  0  0  0  0
  162.3310  209.9550  156.3430 C   0  0  0  0  0  1  0  0  0  0  0  0
  160.9200  210.3140  155.9290 C   0  0  0  0  0  2  0  0  0  0  0  0
  1  5  2  0  0  0  0
  2 16  1  0  0  0  0
  3 10  1  0  0  0  0
  3 17  1  0  0  0  0
  4  1  1  0  0  0  0
  4 12  2  0  0  0  0
  5 11  1  0  0  0  0
  7 15  1  6  0  0  0
  7 27  1  0  0  0  0
  8 11  2  0  0  0  0
  8  6  1  0  0  0  0
  9 14  1  1  0  0  0
  9  7  1  0  0  0  0
 10 21  1  1  0  0  0
 10 22  1  0  0  0  0
 11 28  1  0  0  0  0
 12  8  1  0  0  0  0
 13  2  2  0  0  0  0
 14 23  1  0  0  0  0
 17 26  1  0  0  0  0
 17 20  2  0  0  0  0
 18 13  1  0  0  0  0
 19  2  1  0  0  0  0
 19  1  1  0  0  0  0
 20  4  1  0  0  0  0
 22  9  1  0  0  0  0
 22 20  1  0  0  0  0
 23 15  1  0  0  0  0
 25 18  2  0  0  0  0
 25 26  1  0  0  0  0
 26 19  2  0  0  0  0
 27 24  1  6  0  0  0
 27 12  1  0  0  0  0
 28 30  1  0  0  0  0
 30 29  1  0  0  0  0
M  END
>  <MODEL>
6

>  <REMARK>
 VINA RESULT:      -5.2      3.245      7.202
  Name = 
  2 active torsions:
  status: ('A' for Active; 'I' for Inactive)
    1  A    between atoms: C_11  and  O_28
    2  A    between atoms: O_28  and  C_30
                            x       y       z     vdW  Elec       q    Type
                         _______ _______ _______ _____ _____    ______ ____

>  <TORSDO>
F 2

$$$$
=
 OpenBabel11122412393D

 30 35  0  0  1  0  0  0  0  0999 V2000
  160.8990  209.9380  152.2150 C   0  0  0  0  0  0  0  0  0  0  0  0
  162.0090  209.8250  149.9310 C   0  0  0  0  0  0  0  0  0  0  0  0
  159.6330  213.8670  151.4940 N   0  0  0  0  0  2  0  0  0  0  0  0
  160.1580  210.7020  153.1730 C   0  0  0  0  0  0  0  0  0  0  0  0
  161.2310  208.6190  152.5410 C   0  0  0  0  0  3  0  0  0  0  0  0
  159.6910  208.1620  155.8500 O   0  0  0  0  0  1  0  0  0  0  0  0
  159.5310  212.0430  155.9490 C   0  0  1  0  0  3  0  0  0  0  0  0
  160.0910  208.7630  154.6590 C   0  0  0  0  0  0  0  0  0  0  0  0
  159.5180  213.2790  155.0450 C   0  0  2  0  0  3  0  0  0  0  0  0
  158.9440  214.1680  152.7470 C   0  0  1  0  0  3  0  0  0  0  0  0
  160.8490  208.0290  153.7480 C   0  0  0  0  0  0  0  0  0  0  0  0
  159.7300  210.0910  154.3820 C   0  0  0  0  0  0  0  0  0  0  0  0
  162.2820  210.4590  148.7150 C   0  0  0  0  0  3  0  0  0  0  0  0
  158.5420  214.2440  155.6910 C   0  0  0  0  0  2  0  0  0  0  0  0
  158.8720  212.4460  157.2580 C   0  0  0  0  0  2  0  0  0  0  0  0
  162.6630  208.1940  150.0620 Cl  0  0  0  0  0  0  0  0  0  0  0  0
  160.1350  212.5500  151.6240 C   0  0  0  0  0  0  0  0  0  0  0  0
  161.8450  211.7550  148.4630 C   0  0  0  0  0  3  0  0  0  0  0  0
  161.2630  210.5080  150.9450 C   0  0  0  0  0  0  0  0  0  0  0  0
  159.8460  212.0370  152.8480 C   0  0  0  0  0  0  0  0  0  0  0  0
  157.4580  214.3180  152.4800 C   0  0  0  0  0  1  0  0  0  0  0  0
  159.1740  213.0190  153.6410 N   0  0  0  0  0  0  0  0  0  0  0  0
  158.6040  213.9340  157.1680 C   0  0  0  0  0  2  0  0  0  0  0  0
  157.4310  210.9840  154.8960 C   0  0  0  0  0  1  0  0  0  0  0  0
  161.1270  212.4430  149.4330 C   0  0  0  0  0  3  0  0  0  0  0  0
  160.8390  211.8400  150.6590 C   0  0  0  0  0  0  0  0  0  0  0  0
  158.8630  210.7910  155.3860 C   0  0  2  0  0  3  0  0  0  0  0  0
  161.2030  206.7110  154.0530 O   0  0  0  0  0  0  0  0  0  0  0  0
  160.8880  205.1970  152.2220 C   0  0  0  0  0  1  0  0  0  0  0  0
  161.8880  205.8660  153.1400 C   0  0  0  0  0  2  0  0  0  0  0  0
  1  5  2  0  0  0  0
  1  4  1  0  0  0  0
  2 16  1  0  0  0  0
  2 19  1  0  0  0  0
  3 17  1  0  0  0  0
  3 10  1  0  0  0  0
  4 12  2  0  0  0  0
  5 11  1  0  0  0  0
  7 15  1  1  0  0  0
  8  6  1  0  0  0  0
  9 14  1  1  0  0  0
  9  7  1  0  0  0  0
 10 21  1  6  0  0  0
 10 22  1  0  0  0  0
 11 28  1  0  0  0  0
 11  8  2  0  0  0  0
 12  8  1  0  0  0  0
 12 27  1  0  0  0  0
 13  2  2  0  0  0  0
 14 23  1  0  0  0  0
 17 20  2  0  0  0  0
 18 13  1  0  0  0  0
 18 25  2  0  0  0  0
 19  1  1  0  0  0  0
 20  4  1  0  0  0  0
 20 22  1  0  0  0  0
 22  9  1  0  0  0  0
 23 15  1  0  0  0  0
 25 26  1  0  0  0  0
 26 19  2  0  0  0  0
 26 17  1  0  0  0  0
 27 24  1  6  0  0  0
 27  7  1  0  0  0  0
 29 30  1  0  0  0  0
 30 28  1  0  0  0  0
M  END
>  <MODEL>
7

>  <REMARK>
 VINA RESULT:      -5.2      3.244      6.275
  Name = 
  2 active torsions:
  status: ('A' for Active; 'I' for Inactive)
    1  A    between atoms: C_11  and  O_28
    2  A    between atoms: O_28  and  C_30
                            x       y       z     vdW  Elec       q    Type
                         _______ _______ _______ _____ _____    ______ ____

>  <TORSDO>
F 2

$$$$
=
 OpenBabel11122412393D

 30 35  0  0  1  0  0  0  0  0999 V2000
  160.0020  211.2680  152.5490 C   0  0  0  0  0  0  0  0  0  0  0  0
  161.3090  211.5730  150.3900 C   0  0  0  0  0  0  0  0  0  0  0  0
  157.4430  214.4300  151.5410 N   0  0  0  0  0  2  0  0  0  0  0  0
  158.9330  211.7000  153.3980 C   0  0  0  0  0  0  0  0  0  0  0  0
  160.7670  210.1720  152.9630 C   0  0  0  0  0  3  0  0  0  0  0  0
  159.1690  209.1810  156.1230 O   0  0  0  0  0  1  0  0  0  0  0  0
  157.5600  212.7160  156.0390 C   0  0  1  0  0  3  0  0  0  0  0  0
  159.4390  209.8830  154.9520 C   0  0  0  0  0  0  0  0  0  0  0  0
  157.1820  213.8530  155.0860 C   0  0  2  0  0  3  0  0  0  0  0  0
  156.5640  214.4530  152.7080 C   0  0  1  0  0  3  0  0  0  0  0  0
  160.5080  209.4860  154.1510 C   0  0  0  0  0  0  0  0  0  0  0  0
  158.6390  210.9780  154.5840 C   0  0  0  0  0  0  0  0  0  0  0  0
  161.4520  212.2590  149.1800 C   0  0  0  0  0  3  0  0  0  0  0  0
  155.8530  214.3820  155.5930 C   0  0  0  0  0  2  0  0  0  0  0  0
  156.6640  212.8470  157.2610 C   0  0  0  0  0  2  0  0  0  0  0  0
  162.5070  210.3090  150.6540 Cl  0  0  0  0  0  0  0  0  0  0  0  0
  158.3840  213.3980  151.7750 C   0  0  0  0  0  0  0  0  0  0  0  0
  160.5920  213.2940  148.8320 C   0  0  0  0  0  3  0  0  0  0  0  0
  160.2590  211.9280  151.2970 C   0  0  0  0  0  0  0  0  0  0  0  0
  158.1810  212.8180  152.9870 C   0  0  0  0  0  0  0  0  0  0  0  0
  155.1660  214.0320  152.2910 C   0  0  0  0  0  1  0  0  0  0  0  0
  157.1100  213.4780  153.6680 N   0  0  0  0  0  0  0  0  0  0  0  0
  155.8700  214.1240  157.0800 C   0  0  0  0  0  2  0  0  0  0  0  0
  156.1320  210.9420  154.8350 C   0  0  0  0  0  1  0  0  0  0  0  0
  159.5710  213.6640  149.6970 C   0  0  0  0  0  3  0  0  0  0  0  0
  159.4010  213.0020  150.9150 C   0  0  0  0  0  0  0  0  0  0  0  0
  157.4720  211.3030  155.4690 C   0  0  2  0  0  3  0  0  0  0  0  0
  161.2940  208.3980  154.5450 O   0  0  0  0  0  0  0  0  0  0  0  0
  161.2380  206.4060  153.2150 C   0  0  0  0  0  1  0  0  0  0  0  0
  160.8250  207.0580  154.5170 C   0  0  0  0  0  2  0  0  0  0  0  0
  1  5  2  0  0  0  0
  1  4  1  0  0  0  0
  2 16  1  0  0  0  0
  2 19  1  0  0  0  0
  3 17  1  0  0  0  0
  3 10  1  0  0  0  0
  4 12  2  0  0  0  0
  5 11  1  0  0  0  0
  7 15  1  1  0  0  0
  8  6  1  0  0  0  0
  9 14  1  1  0  0  0
  9  7  1  0  0  0  0
 10 21  1  6  0  0  0
 10 22  1  0  0  0  0
 11 28  1  0  0  0  0
 11  8  2  0  0  0  0
 12  8  1  0  0  0  0
 12 27  1  0  0  0  0
 13  2  2  0  0  0  0
 14 23  1  0  0  0  0
 17 20  2  0  0  0  0
 18 13  1  0  0  0  0
 18 25  2  0  0  0  0
 19  1  1  0  0  0  0
 20  4  1  0  0  0  0
 20 22  1  0  0  0  0
 22  9  1  0  0  0  0
 23 15  1  0  0  0  0
 25 26  1  0  0  0  0
 26 19  2  0  0  0  0
 26 17  1  0  0  0  0
 27 24  1  6  0  0  0
 27  7  1  0  0  0  0
 29 30  1  0  0  0  0
 30 28  1  0  0  0  0
M  END
>  <MODEL>
8

>  <REMARK>
 VINA RESULT:      -4.9      4.089      7.431
  Name = 
  2 active torsions:
  status: ('A' for Active; 'I' for Inactive)
    1  A    between atoms: C_11  and  O_28
    2  A    between atoms: O_28  and  C_30
                            x       y       z     vdW  Elec       q    Type
                         _______ _______ _______ _____ _____    ______ ____

>  <TORSDO>
F 2

$$$$
=
 OpenBabel11122412393D

 30 35  0  0  1  0  0  0  0  0999 V2000
  161.3280  210.5640  150.6970 C   0  0  0  0  0  0  0  0  0  0  0  0
  161.0660  212.4240  148.9850 C   0  0  0  0  0  0  0  0  0  0  0  0
  159.3750  212.8590  153.6080 N   0  0  0  0  0  2  0  0  0  0  0  0
  161.1140  210.1010  152.0350 C   0  0  0  0  0  0  0  0  0  0  0  0
  161.9510  209.6970  149.7920 C   0  0  0  0  0  3  0  0  0  0  0  0
  162.4680  206.6460  151.7790 O   0  0  0  0  0  1  0  0  0  0  0  0
  161.8810  208.9430  154.8570 C   0  0  1  0  0  3  0  0  0  0  0  0
  162.0960  207.9430  151.4380 C   0  0  0  0  0  0  0  0  0  0  0  0
  161.2320  210.2640  155.2770 C   0  0  2  0  0  3  0  0  0  0  0  0
  159.4210  211.9500  154.7510 C   0  0  1  0  0  3  0  0  0  0  0  0
  162.3450  208.4050  150.1470 C   0  0  0  0  0  0  0  0  0  0  0  0
  161.4740  208.7720  152.3860 C   0  0  0  0  0  0  0  0  0  0  0  0
  160.5690  213.6970  148.6860 C   0  0  0  0  0  3  0  0  0  0  0  0
  160.6300  210.0040  156.6450 C   0  0  0  0  0  2  0  0  0  0  0  0
  161.9700  208.0780  156.1040 C   0  0  0  0  0  2  0  0  0  0  0  0
  161.8960  211.6370  147.6450 Cl  0  0  0  0  0  0  0  0  0  0  0  0
  160.0350  212.1950  152.5470 C   0  0  0  0  0  0  0  0  0  0  0  0
  159.9010  214.4530  149.6430 C   0  0  0  0  0  3  0  0  0  0  0  0
  160.8880  211.8730  150.2940 C   0  0  0  0  0  0  0  0  0  0  0  0
  160.5070  210.9860  152.9460 C   0  0  0  0  0  0  0  0  0  0  0  0
  158.0120  211.4900  155.0840 C   0  0  0  0  0  1  0  0  0  0  0  0
  160.2350  210.7940  154.3380 N   0  0  0  0  0  0  0  0  0  0  0  0
  161.5030  208.9370  157.2610 C   0  0  0  0  0  2  0  0  0  0  0  0
  159.7020  207.9080  153.9550 C   0  0  0  0  0  1  0  0  0  0  0  0
  159.7230  213.9460  150.9230 C   0  0  0  0  0  3  0  0  0  0  0  0
  160.2080  212.6790  151.2560 C   0  0  0  0  0  0  0  0  0  0  0  0
  161.1870  208.1790  153.7330 C   0  0  2  0  0  3  0  0  0  0  0  0
  162.9750  207.5620  149.2250 O   0  0  0  0  0  0  0  0  0  0  0  0
  161.1420  206.1920  148.5120 C   0  0  0  0  0  1  0  0  0  0  0  0
  162.3150  207.0450  148.0780 C   0  0  0  0  0  2  0  0  0  0  0  0
  1  4  1  0  0  0  0
  2 19  1  0  0  0  0
  3 10  1  0  0  0  0
  4 12  1  0  0  0  0
  4 20  2  0  0  0  0
  5 11  2  0  0  0  0
  5  1  1  0  0  0  0
  7  9  1  0  0  0  0
  7 15  1  1  0  0  0
  8  6  1  0  0  0  0
  8 12  2  0  0  0  0
  9 14  1  1  0  0  0
 10 21  1  6  0  0  0
 11  8  1  0  0  0  0
 12 27  1  0  0  0  0
 13  2  2  0  0  0  0
 13 18  1  0  0  0  0
 14 23  1  0  0  0  0
 15 23  1  0  0  0  0
 16  2  1  0  0  0  0
 17 20  1  0  0  0  0
 17  3  1  0  0  0  0
 18 25  2  0  0  0  0
 19  1  2  0  0  0  0
 19 26  1  0  0  0  0
 20 22  1  0  0  0  0
 22 10  1  0  0  0  0
 22  9  1  0  0  0  0
 25 26  1  0  0  0  0
 26 17  2  0  0  0  0
 27 24  1  1  0  0  0
 27  7  1  0  0  0  0
 28 11  1  0  0  0  0
 30 29  1  0  0  0  0
 30 28  1  0  0  0  0
M  END
>  <MODEL>
9

>  <REMARK>
 VINA RESULT:      -4.4      2.831      5.753
  Name = 
  2 active torsions:
  status: ('A' for Active; 'I' for Inactive)
    1  A    between atoms: C_11  and  O_28
    2  A    between atoms: O_28  and  C_30
                            x       y       z     vdW  Elec       q    Type
                         _______ _______ _______ _____ _____    ______ ____

>  <TORSDO>
F 2

$$$$
