=
 OpenBabel11122413423D

 37 43  0  0  1  0  0  0  0  0999 V2000
  162.0740  204.6990  145.2420 C   0  0  0  0  0  2  0  0  0  0  0  0
  160.7440  200.7560  146.3810 C   0  0  0  0  0  0  0  0  0  0  0  0
  161.1560  203.2390  149.7080 C   0  0  0  0  0  0  0  0  0  0  0  0
  162.2040  205.8530  144.3520 N   0  0  0  0  0  0  0  0  0  0  0  0
  160.4590  206.9410  149.1500 C   0  0  0  0  0  2  0  0  0  0  0  0
  160.9160  200.9680  148.9030 C   0  0  0  0  0  0  0  0  0  0  0  0
  161.3680  204.4810  149.1280 C   0  0  0  0  0  0  0  0  0  0  0  0
  159.9420  206.4960  145.3420 C   0  0  2  0  0  3  0  0  0  0  0  0
  161.1050  202.3270  148.6970 C   0  0  0  0  0  0  0  0  0  0  0  0
  161.1970  205.8000  149.8270 C   0  0  0  0  0  0  0  0  0  0  0  0
  160.8310  200.5150  150.2270 C   0  0  0  0  0  3  0  0  0  0  0  0
  160.9040  206.5110  144.1370 C   0  0  0  0  0  2  0  0  0  0  0  0
  161.3400  202.8840  147.5100 N   0  0  0  0  0  0  0  0  0  0  0  0
  159.2620  201.0310  146.1890 C   0  0  0  0  0  1  0  0  0  0  0  0
  161.5160  203.6620  152.1580 C   0  0  0  0  0  3  0  0  0  0  0  0
  160.9480  201.4380  151.2880 C   0  0  0  0  0  3  0  0  0  0  0  0
  161.5310  202.0820  146.2990 C   0  0  0  0  0  2  0  0  0  0  0  0
  160.5650  206.9400  146.6830 C   0  0  1  0  0  3  0  0  0  0  0  0
  159.7060  206.5790  147.8850 C   0  0  0  0  0  2  0  0  0  0  0  0
  161.1230  202.8170  151.0380 C   0  0  0  0  0  0  0  0  0  0  0  0
  161.5470  204.2110  147.7350 C   0  0  0  0  0  0  0  0  0  0  0  0
  160.9690  200.0310  147.7260 C   0  0  0  0  0  2  0  0  0  0  0  0
  161.5350  206.0170  151.1300 C   0  0  0  0  0  0  0  0  0  0  0  0
  161.2100  199.8500  145.2610 C   0  0  0  0  0  1  0  0  0  0  0  0
  161.9700  206.5560  146.8940 N   0  0  0  0  0  2  0  0  0  0  0  0
  159.3030  205.2540  145.4430 O   0  0  0  0  0  1  0  0  0  0  0  0
  162.2250  205.1240  146.7120 C   0  0  2  0  0  3  0  0  0  0  0  0
  161.7160  204.9770  152.1710 C   0  0  0  0  0  3  0  0  0  0  0  0
  162.3310  208.3950  150.9000 C   0  0  0  0  0  3  0  0  0  0  0  0
  161.6800  207.4050  151.6560 C   0  0  0  0  0  0  0  0  0  0  0  0
  161.1090  207.7640  152.8910 C   0  0  0  0  0  3  0  0  0  0  0  0
  160.6240  209.4180  154.6190 N   0  0  0  0  0  1  0  0  0  0  0  0
  161.8660  210.0450  152.6140 C   0  0  0  0  0  3  0  0  0  0  0  0
  161.2060  209.0740  153.3690 C   0  0  0  0  0  0  0  0  0  0  0  0
  162.4240  209.7060  151.3770 C   0  0  0  0  0  3  0  0  0  0  0  0
  161.9560  206.0420  142.0380 O   0  0  0  0  0  1  0  0  0  0  0  0
  162.6200  205.3490  143.0550 C   0  0  0  0  0  2  0  0  0  0  0  0
  2 22  1  0  0  0  0
  3 20  1  0  0  0  0
  4  1  1  0  0  0  0
  5 10  1  0  0  0  0
  6 11  2  0  0  0  0
  7  3  1  0  0  0  0
  7 10  1  0  0  0  0
  8 26  1  1  0  0  0
  8 18  1  0  0  0  0
  9  6  1  0  0  0  0
  9  3  2  0  0  0  0
 10 23  2  0  0  0  0
 11 16  1  0  0  0  0
 12  4  1  0  0  0  0
 12  8  1  0  0  0  0
 13 21  1  0  0  0  0
 13  9  1  0  0  0  0
 14  2  1  0  0  0  0
 15 28  2  0  0  0  0
 17  2  1  0  0  0  0
 17 13  1  0  0  0  0
 18 25  1  0  0  0  0
 18 19  1  1  0  0  0
 19  5  1  0  0  0  0
 20 16  2  0  0  0  0
 20 15  1  0  0  0  0
 21  7  2  0  0  0  0
 22  6  1  0  0  0  0
 23 30  1  0  0  0  0
 23 28  1  0  0  0  0
 24  2  1  0  0  0  0
 27  1  1  6  0  0  0
 27 25  1  0  0  0  0
 27 21  1  0  0  0  0
 29 35  2  0  0  0  0
 29 30  1  0  0  0  0
 30 31  2  0  0  0  0
 31 34  1  0  0  0  0
 33 34  2  0  0  0  0
 34 32  1  0  0  0  0
 35 33  1  0  0  0  0
 36 37  1  0  0  0  0
 37  4  1  0  0  0  0
M  END
>  <MODEL>
1

>  <REMARK>
 VINA RESULT:      -2.5      0.000      0.000
  Name = 
  2 active torsions:
  status: ('A' for Active; 'I' for Inactive)
    1  A    between atoms: N_4  and  C_37
    2  A    between atoms: C_23  and  C_30
                            x       y       z     vdW  Elec       q    Type
                         _______ _______ _______ _____ _____    ______ ____

>  <TORSDO>
F 2

$$$$
=
 OpenBabel11122413423D

 37 43  0  0  1  0  0  0  0  0999 V2000
  157.7480  211.1980  154.2760 C   0  0  0  0  0  2  0  0  0  0  0  0
  160.4060  207.9950  155.4140 C   0  0  0  0  0  0  0  0  0  0  0  0
  161.2540  209.3770  151.5710 C   0  0  0  0  0  0  0  0  0  0  0  0
  156.8790  212.3510  154.5100 N   0  0  0  0  0  0  0  0  0  0  0  0
  160.6010  213.0730  150.9210 C   0  0  0  0  0  2  0  0  0  0  0  0
  161.5740  207.6110  153.1950 C   0  0  0  0  0  0  0  0  0  0  0  0
  160.4650  210.5150  151.4820 C   0  0  0  0  0  0  0  0  0  0  0  0
  159.0770  213.6460  154.4300 C   0  0  2  0  0  3  0  0  0  0  0  0
  160.9760  208.7870  152.7660 C   0  0  0  0  0  0  0  0  0  0  0  0
  160.6530  211.6200  150.4820 C   0  0  0  0  0  0  0  0  0  0  0  0
  162.4670  206.9770  152.3200 C   0  0  0  0  0  3  0  0  0  0  0  0
  157.6490  213.5090  154.9970 C   0  0  0  0  0  2  0  0  0  0  0  0
  160.0090  209.4250  153.4240 N   0  0  0  0  0  0  0  0  0  0  0  0
  161.4290  208.8810  156.1050 C   0  0  0  0  0  1  0  0  0  0  0  0
  162.1790  209.1190  149.2490 C   0  0  0  0  0  3  0  0  0  0  0  0
  162.7170  207.5410  151.0510 C   0  0  0  0  0  3  0  0  0  0  0  0
  159.4020  208.8740  154.6390 C   0  0  0  0  0  2  0  0  0  0  0  0
  159.1870  213.5210  152.8960 C   0  0  1  0  0  3  0  0  0  0  0  0
  160.6160  213.3080  152.4190 C   0  0  0  0  0  2  0  0  0  0  0  0
  162.1010  208.7490  150.6570 C   0  0  0  0  0  0  0  0  0  0  0  0
  159.6360  210.4790  152.6470 C   0  0  0  0  0  0  0  0  0  0  0  0
  161.1290  206.9890  154.4910 C   0  0  0  0  0  2  0  0  0  0  0  0
  161.0290  211.4160  149.1880 C   0  0  0  0  0  0  0  0  0  0  0  0
  159.6520  207.2220  156.4750 C   0  0  0  0  0  1  0  0  0  0  0  0
  158.2640  212.5660  152.2630 N   0  0  0  0  0  2  0  0  0  0  0  0
  159.9520  212.7780  155.0950 O   0  0  0  0  0  1  0  0  0  0  0  0
  158.3140  211.2210  152.8460 C   0  0  2  0  0  3  0  0  0  0  0  0
  161.7000  210.2080  148.6520 C   0  0  0  0  0  3  0  0  0  0  0  0
  161.9500  213.2530  147.7320 C   0  0  0  0  0  3  0  0  0  0  0  0
  160.8530  212.4900  148.1670 C   0  0  0  0  0  0  0  0  0  0  0  0
  159.5970  212.7110  147.5740 C   0  0  0  0  0  3  0  0  0  0  0  0
  158.1570  213.8990  146.0000 N   0  0  0  0  0  1  0  0  0  0  0  0
  160.5300  214.4480  146.1730 C   0  0  0  0  0  3  0  0  0  0  0  0
  159.4350  213.6880  146.5870 C   0  0  0  0  0  0  0  0  0  0  0  0
  161.7880  214.2270  146.7410 C   0  0  0  0  0  3  0  0  0  0  0  0
  155.5220  210.6790  155.4100 O   0  0  0  0  0  1  0  0  0  0  0  0
  155.9700  211.9910  155.5850 C   0  0  0  0  0  2  0  0  0  0  0  0
  1  4  1  0  0  0  0
  2 14  1  0  0  0  0
  2 24  1  0  0  0  0
  3  9  1  0  0  0  0
  4 12  1  0  0  0  0
  4 37  1  0  0  0  0
  5 19  1  0  0  0  0
  6 22  1  0  0  0  0
  7  3  1  0  0  0  0
  7 21  2  0  0  0  0
  8 12  1  0  0  0  0
  8 26  1  1  0  0  0
  9  6  2  0  0  0  0
  9 13  1  0  0  0  0
 10  5  1  0  0  0  0
 10  7  1  0  0  0  0
 11  6  1  0  0  0  0
 13 17  1  0  0  0  0
 15 20  1  0  0  0  0
 16 11  2  0  0  0  0
 17  2  1  0  0  0  0
 18 19  1  1  0  0  0
 18  8  1  0  0  0  0
 20 16  1  0  0  0  0
 20  3  2  0  0  0  0
 21 27  1  0  0  0  0
 21 13  1  0  0  0  0
 22  2  1  0  0  0  0
 23 10  2  0  0  0  0
 25 27  1  0  0  0  0
 25 18  1  0  0  0  0
 27  1  1  1  0  0  0
 28 23  1  0  0  0  0
 28 15  2  0  0  0  0
 29 30  1  0  0  0  0
 30 23  1  0  0  0  0
 31 30  2  0  0  0  0
 32 34  1  0  0  0  0
 33 34  2  0  0  0  0
 33 35  1  0  0  0  0
 34 31  1  0  0  0  0
 35 29  2  0  0  0  0
 36 37  1  0  0  0  0
M  END
>  <MODEL>
2

>  <REMARK>
 VINA RESULT:      -2.4      6.244      9.513
  Name = 
  2 active torsions:
  status: ('A' for Active; 'I' for Inactive)
    1  A    between atoms: N_4  and  C_37
    2  A    between atoms: C_23  and  C_30
                            x       y       z     vdW  Elec       q    Type
                         _______ _______ _______ _____ _____    ______ ____

>  <TORSDO>
F 2

$$$$
=
 OpenBabel11122413423D

 37 43  0  0  1  0  0  0  0  0999 V2000
  162.8760  210.5400  148.5000 C   0  0  0  0  0  2  0  0  0  0  0  0
  161.6010  206.5680  147.3990 C   0  0  0  0  0  0  0  0  0  0  0  0
  161.1890  207.2110  151.5000 C   0  0  0  0  0  0  0  0  0  0  0  0
  163.1060  211.9690  148.2890 N   0  0  0  0  0  0  0  0  0  0  0  0
  160.3820  210.7740  152.5790 C   0  0  0  0  0  2  0  0  0  0  0  0
  161.2570  205.5820  149.7110 C   0  0  0  0  0  0  0  0  0  0  0  0
  161.4320  208.5730  151.6140 C   0  0  0  0  0  0  0  0  0  0  0  0
  160.6560  212.1610  148.9780 C   0  0  2  0  0  3  0  0  0  0  0  0
  161.3960  206.8740  150.1970 C   0  0  0  0  0  0  0  0  0  0  0  0
  161.0430  209.4230  152.7900 C   0  0  0  0  0  0  0  0  0  0  0  0
  160.9420  204.5710  150.6290 C   0  0  0  0  0  3  0  0  0  0  0  0
  161.8350  212.6980  148.1400 C   0  0  0  0  0  2  0  0  0  0  0  0
  161.8260  207.9080  149.4760 N   0  0  0  0  0  0  0  0  0  0  0  0
  160.1710  206.9530  147.0570 C   0  0  0  0  0  1  0  0  0  0  0  0
  161.0300  206.4390  153.8850 C   0  0  0  0  0  3  0  0  0  0  0  0
  160.7880  204.8930  151.9940 C   0  0  0  0  0  3  0  0  0  0  0  0
  162.3020  207.7520  148.0990 C   0  0  0  0  0  2  0  0  0  0  0  0
  160.9730  211.9110  150.4680 C   0  0  1  0  0  3  0  0  0  0  0  0
  159.9190  211.0660  151.1650 C   0  0  0  0  0  2  0  0  0  0  0  0
  160.9210  206.2230  152.4480 C   0  0  0  0  0  0  0  0  0  0  0  0
  161.9000  208.9720  150.3230 C   0  0  0  0  0  0  0  0  0  0  0  0
  161.6010  205.2950  148.2740 C   0  0  0  0  0  2  0  0  0  0  0  0
  161.1020  209.0000  154.0840 C   0  0  0  0  0  0  0  0  0  0  0  0
  162.3350  206.2670  146.1090 C   0  0  0  0  0  1  0  0  0  0  0  0
  162.3300  211.4230  150.7610 N   0  0  0  0  0  2  0  0  0  0  0  0
  160.0910  211.0380  148.3630 O   0  0  0  0  0  1  0  0  0  0  0  0
  162.7060  210.2300  149.9970 C   0  0  2  0  0  3  0  0  0  0  0  0
  161.1400  207.5900  154.5430 C   0  0  0  0  0  3  0  0  0  0  0  0
  162.2360  210.5120  155.7490 C   0  0  0  0  0  3  0  0  0  0  0  0
  161.0530  209.9810  155.2070 C   0  0  0  0  0  0  0  0  0  0  0  0
  159.8170  210.4410  155.6980 C   0  0  0  0  0  3  0  0  0  0  0  0
  158.5080  211.8440  157.2070 N   0  0  0  0  0  1  0  0  0  0  0  0
  160.9470  211.9020  157.2610 C   0  0  0  0  0  3  0  0  0  0  0  0
  159.7650  211.3910  156.7220 C   0  0  0  0  0  0  0  0  0  0  0  0
  162.1820  211.4650  156.7710 C   0  0  0  0  0  3  0  0  0  0  0  0
  163.0810  212.9540  146.1730 O   0  0  0  0  0  1  0  0  0  0  0  0
  163.8010  212.1080  147.0210 C   0  0  0  0  0  2  0  0  0  0  0  0
  2 17  1  0  0  0  0
  2 22  1  0  0  0  0
  3  7  1  0  0  0  0
  3 20  1  0  0  0  0
  4  1  1  0  0  0  0
  5 10  1  0  0  0  0
  6  9  1  0  0  0  0
  6 11  2  0  0  0  0
  7 10  1  0  0  0  0
  8 26  1  6  0  0  0
  8 18  1  0  0  0  0
  9  3  2  0  0  0  0
 10 23  2  0  0  0  0
 11 16  1  0  0  0  0
 12  4  1  0  0  0  0
 12  8  1  0  0  0  0
 13  9  1  0  0  0  0
 13 21  1  0  0  0  0
 14  2  1  0  0  0  0
 15 28  2  0  0  0  0
 16 20  2  0  0  0  0
 17 13  1  0  0  0  0
 18 25  1  0  0  0  0
 18 19  1  6  0  0  0
 19  5  1  0  0  0  0
 20 15  1  0  0  0  0
 21  7  2  0  0  0  0
 22  6  1  0  0  0  0
 23 28  1  0  0  0  0
 23 30  1  0  0  0  0
 24  2  1  0  0  0  0
 27  1  1  6  0  0  0
 27 21  1  0  0  0  0
 27 25  1  0  0  0  0
 29 35  1  0  0  0  0
 30 31  1  0  0  0  0
 30 29  2  0  0  0  0
 31 34  2  0  0  0  0
 34 32  1  0  0  0  0
 34 33  1  0  0  0  0
 35 33  2  0  0  0  0
 36 37  1  0  0  0  0
 37  4  1  0  0  0  0
M  END
>  <MODEL>
3

>  <REMARK>
 VINA RESULT:      -2.1      3.403      5.536
  Name = 
  2 active torsions:
  status: ('A' for Active; 'I' for Inactive)
    1  A    between atoms: N_4  and  C_37
    2  A    between atoms: C_23  and  C_30
                            x       y       z     vdW  Elec       q    Type
                         _______ _______ _______ _____ _____    ______ ____

>  <TORSDO>
F 2

$$$$
=
 OpenBabel11122413423D

 37 43  0  0  1  0  0  0  0  0999 V2000
  160.0440  203.0610  149.5960 C   0  0  0  0  0  2  0  0  0  0  0  0
  162.0420  205.2130  146.4350 C   0  0  0  0  0  0  0  0  0  0  0  0
  161.6840  207.5510  149.8720 C   0  0  0  0  0  0  0  0  0  0  0  0
  159.6480  201.8720  150.3510 N   0  0  0  0  0  0  0  0  0  0  0  0
  161.7810  205.6940  153.1960 C   0  0  0  0  0  2  0  0  0  0  0  0
  162.1430  207.5170  147.4950 C   0  0  0  0  0  0  0  0  0  0  0  0
  161.2320  206.6340  150.8100 C   0  0  0  0  0  0  0  0  0  0  0  0
  161.9000  202.2180  151.5030 C   0  0  2  0  0  3  0  0  0  0  0  0
  161.7420  206.9050  148.6740 C   0  0  0  0  0  0  0  0  0  0  0  0
  161.2970  206.8200  152.3000 C   0  0  0  0  0  0  0  0  0  0  0  0
  162.4480  208.8830  147.5410 C   0  0  0  0  0  3  0  0  0  0  0  0
  160.8080  201.2460  151.0090 C   0  0  0  0  0  2  0  0  0  0  0  0
  161.2910  205.6540  148.7600 N   0  0  0  0  0  0  0  0  0  0  0  0
  163.4370  204.7070  146.7610 C   0  0  0  0  0  1  0  0  0  0  0  0
  161.5620  209.7460  151.0870 C   0  0  0  0  0  3  0  0  0  0  0  0
  162.3290  209.5830  148.7610 C   0  0  0  0  0  3  0  0  0  0  0  0
  161.0730  204.8240  147.5720 C   0  0  0  0  0  2  0  0  0  0  0  0
  161.3840  203.4170  152.3260 C   0  0  1  0  0  3  0  0  0  0  0  0
  162.4220  204.5170  152.4860 C   0  0  0  0  0  2  0  0  0  0  0  0
  161.9330  208.9220  149.9440 C   0  0  0  0  0  0  0  0  0  0  0  0
  160.9270  205.4570  150.0570 C   0  0  0  0  0  0  0  0  0  0  0  0
  162.0830  206.7410  146.2060 C   0  0  0  0  0  2  0  0  0  0  0  0
  161.0890  208.0140  152.9250 C   0  0  0  0  0  0  0  0  0  0  0  0
  161.5790  204.5460  145.1580 C   0  0  0  0  0  1  0  0  0  0  0  0
  160.0820  203.9650  151.9130 N   0  0  0  0  0  2  0  0  0  0  0  0
  162.7140  202.6210  150.4370 O   0  0  0  0  0  1  0  0  0  0  0  0
  160.0120  204.3110  150.4900 C   0  0  2  0  0  3  0  0  0  0  0  0
  161.1810  209.3550  152.3000 C   0  0  0  0  0  3  0  0  0  0  0  0
  160.2730  206.9550  155.0590 C   0  0  0  0  0  3  0  0  0  0  0  0
  160.8140  208.0660  154.3900 C   0  0  0  0  0  0  0  0  0  0  0  0
  161.1540  209.2070  155.1390 C   0  0  0  0  0  3  0  0  0  0  0  0
  161.2850  210.4080  157.2610 N   0  0  0  0  0  1  0  0  0  0  0  0
  160.3860  208.1400  157.1700 C   0  0  0  0  0  3  0  0  0  0  0  0
  160.9360  209.2460  156.5200 C   0  0  0  0  0  0  0  0  0  0  0  0
  160.0590  206.9930  156.4400 C   0  0  0  0  0  3  0  0  0  0  0  0
  159.9110  200.9650  148.2170 O   0  0  0  0  0  1  0  0  0  0  0  0
  159.1560  200.8990  149.3910 C   0  0  0  0  0  2  0  0  0  0  0  0
  1  4  1  0  0  0  0
  2 14  1  0  0  0  0
  2 17  1  0  0  0  0
  3 20  1  0  0  0  0
  3  7  1  0  0  0  0
  4 12  1  0  0  0  0
  6 11  2  0  0  0  0
  6  9  1  0  0  0  0
  7 10  1  0  0  0  0
  8 26  1  6  0  0  0
  8 18  1  0  0  0  0
  9 13  1  0  0  0  0
  9  3  2  0  0  0  0
 10 23  2  0  0  0  0
 10  5  1  0  0  0  0
 11 16  1  0  0  0  0
 12  8  1  0  0  0  0
 13 21  1  0  0  0  0
 15 28  2  0  0  0  0
 16 20  2  0  0  0  0
 17 13  1  0  0  0  0
 18 19  1  6  0  0  0
 19  5  1  0  0  0  0
 20 15  1  0  0  0  0
 21 27  1  0  0  0  0
 21  7  2  0  0  0  0
 22  2  1  0  0  0  0
 22  6  1  0  0  0  0
 23 30  1  0  0  0  0
 24  2  1  0  0  0  0
 25 18  1  0  0  0  0
 27  1  1  6  0  0  0
 27 25  1  0  0  0  0
 28 23  1  0  0  0  0
 29 35  1  0  0  0  0
 30 29  2  0  0  0  0
 30 31  1  0  0  0  0
 31 34  2  0  0  0  0
 34 33  1  0  0  0  0
 34 32  1  0  0  0  0
 35 33  2  0  0  0  0
 36 37  1  0  0  0  0
 37  4  1  0  0  0  0
M  END
>  <MODEL>
4

>  <REMARK>
 VINA RESULT:      -2.1      2.555      5.666
  Name = 
  2 active torsions:
  status: ('A' for Active; 'I' for Inactive)
    1  A    between atoms: N_4  and  C_37
    2  A    between atoms: C_23  and  C_30
                            x       y       z     vdW  Elec       q    Type
                         _______ _______ _______ _____ _____    ______ ____

>  <TORSDO>
F 2

$$$$
=
 OpenBabel11122413423D

 37 43  0  0  1  0  0  0  0  0999 V2000
  161.7970  212.2610  149.3920 C   0  0  0  0  0  2  0  0  0  0  0  0
  162.0320  207.9620  149.1090 C   0  0  0  0  0  0  0  0  0  0  0  0
  160.6050  209.1630  152.8410 C   0  0  0  0  0  0  0  0  0  0  0  0
  161.6250  213.6200  148.8770 N   0  0  0  0  0  0  0  0  0  0  0  0
  158.5580  212.3740  152.9140 C   0  0  0  0  0  2  0  0  0  0  0  0
  161.5290  207.3560  151.5210 C   0  0  0  0  0  0  0  0  0  0  0  0
  160.3970  210.5220  152.6580 C   0  0  0  0  0  0  0  0  0  0  0  0
  159.1440  213.0930  149.1580 C   0  0  2  0  0  3  0  0  0  0  0  0
  161.1700  208.6840  151.6980 C   0  0  0  0  0  0  0  0  0  0  0  0
  159.5360  211.3890  153.5310 C   0  0  0  0  0  0  0  0  0  0  0  0
  161.3490  206.4830  152.6020 C   0  0  0  0  0  3  0  0  0  0  0  0
  160.2530  213.8350  148.3850 C   0  0  0  0  0  2  0  0  0  0  0  0
  161.4080  209.6540  150.8160 N   0  0  0  0  0  0  0  0  0  0  0  0
  160.6560  207.7720  148.4930 C   0  0  0  0  0  1  0  0  0  0  0  0
  160.1940  208.8300  155.2970 C   0  0  0  0  0  3  0  0  0  0  0  0
  160.8260  206.9760  153.8160 C   0  0  0  0  0  3  0  0  0  0  0  0
  162.1840  209.4200  149.5950 C   0  0  0  0  0  2  0  0  0  0  0  0
  159.2050  213.2400  150.6930 C   0  0  1  0  0  3  0  0  0  0  0  0
  158.3330  212.2300  151.4220 C   0  0  0  0  0  2  0  0  0  0  0  0
  160.4550  208.3320  153.9520 C   0  0  0  0  0  0  0  0  0  0  0  0
  160.9810  210.8150  151.3850 C   0  0  0  0  0  0  0  0  0  0  0  0
  162.2340  206.9460  150.2560 C   0  0  0  0  0  2  0  0  0  0  0  0
  159.4500  211.2540  154.8850 C   0  0  0  0  0  0  0  0  0  0  0  0
  163.0740  207.6990  148.0420 C   0  0  0  0  0  1  0  0  0  0  0  0
  160.5540  213.3030  151.2780 N   0  0  0  0  0  2  0  0  0  0  0  0
  159.0830  211.7520  148.7590 O   0  0  0  0  0  1  0  0  0  0  0  0
  161.4210  212.1890  150.8810 C   0  0  2  0  0  3  0  0  0  0  0  0
  159.8140  210.0490  155.6680 C   0  0  0  0  0  3  0  0  0  0  0  0
  159.6820  213.4080  156.1700 C   0  0  0  0  0  3  0  0  0  0  0  0
  158.8750  212.3470  155.7220 C   0  0  0  0  0  0  0  0  0  0  0  0
  157.5010  212.3680  156.0230 C   0  0  0  0  0  3  0  0  0  0  0  0
  155.5600  213.4170  157.0680 N   0  0  0  0  0  1  0  0  0  0  0  0
  157.7640  214.4530  157.2210 C   0  0  0  0  0  3  0  0  0  0  0  0
  156.9500  213.4120  156.7720 C   0  0  0  0  0  0  0  0  0  0  0  0
  159.1290  214.4530  156.9160 C   0  0  0  0  0  3  0  0  0  0  0  0
  163.2580  212.5940  147.5620 O   0  0  0  0  0  1  0  0  0  0  0  0
  162.4930  213.7530  147.7200 C   0  0  0  0  0  2  0  0  0  0  0  0
  2 17  1  0  0  0  0
  2 22  1  0  0  0  0
  3 20  1  0  0  0  0
  4  1  1  0  0  0  0
  5 10  1  0  0  0  0
  6  9  1  0  0  0  0
  6 11  2  0  0  0  0
  7  3  1  0  0  0  0
  7 10  1  0  0  0  0
  8 26  1  1  0  0  0
  8 18  1  0  0  0  0
  9  3  2  0  0  0  0
 10 23  2  0  0  0  0
 11 16  1  0  0  0  0
 12  4  1  0  0  0  0
 12  8  1  0  0  0  0
 13 21  1  0  0  0  0
 13  9  1  0  0  0  0
 14  2  1  0  0  0  0
 15 28  2  0  0  0  0
 16 20  2  0  0  0  0
 17 13  1  0  0  0  0
 18 25  1  0  0  0  0
 18 19  1  1  0  0  0
 19  5  1  0  0  0  0
 20 15  1  0  0  0  0
 21  7  2  0  0  0  0
 22  6  1  0  0  0  0
 23 28  1  0  0  0  0
 23 30  1  0  0  0  0
 24  2  1  0  0  0  0
 27  1  1  6  0  0  0
 27 25  1  0  0  0  0
 27 21  1  0  0  0  0
 29 35  1  0  0  0  0
 30 31  1  0  0  0  0
 30 29  2  0  0  0  0
 31 34  2  0  0  0  0
 34 32  1  0  0  0  0
 34 33  1  0  0  0  0
 35 33  2  0  0  0  0
 36 37  1  0  0  0  0
 37  4  1  0  0  0  0
M  END
>  <MODEL>
5

>  <REMARK>
 VINA RESULT:      -1.9      4.832      7.478
  Name = 
  2 active torsions:
  status: ('A' for Active; 'I' for Inactive)
    1  A    between atoms: N_4  and  C_37
    2  A    between atoms: C_23  and  C_30
                            x       y       z     vdW  Elec       q    Type
                         _______ _______ _______ _____ _____    ______ ____

>  <TORSDO>
F 2

$$$$
=
 OpenBabel11122413423D

 37 43  0  0  1  0  0  0  0  0999 V2000
  160.8220  211.5160  150.2270 C   0  0  0  0  0  2  0  0  0  0  0  0
  161.4230  210.4790  154.3710 C   0  0  0  0  0  0  0  0  0  0  0  0
  161.2420  207.0750  151.9660 C   0  0  0  0  0  0  0  0  0  0  0  0
  160.9310  212.3630  149.0390 N   0  0  0  0  0  0  0  0  0  0  0  0
  162.5660  207.4450  148.4130 C   0  0  0  0  0  2  0  0  0  0  0  0
  161.1500  207.9610  154.2170 C   0  0  0  0  0  0  0  0  0  0  0  0
  161.2690  207.6120  150.6870 C   0  0  0  0  0  0  0  0  0  0  0  0
  163.2110  211.2380  148.8130 C   0  0  2  0  0  3  0  0  0  0  0  0
  161.1980  208.1190  152.8400 C   0  0  0  0  0  0  0  0  0  0  0  0
  161.6150  206.8520  149.4380 C   0  0  0  0  0  0  0  0  0  0  0  0
  161.0870  206.6550  154.7210 C   0  0  0  0  0  3  0  0  0  0  0  0
  162.3320  212.4870  148.5990 C   0  0  0  0  0  2  0  0  0  0  0  0
  161.1230  209.2920  152.2120 N   0  0  0  0  0  0  0  0  0  0  0  0
  162.9390  210.5860  154.3400 C   0  0  0  0  0  1  0  0  0  0  0  0
  160.8230  204.6300  151.5690 C   0  0  0  0  0  3  0  0  0  0  0  0
  161.0660  205.5640  153.8270 C   0  0  0  0  0  3  0  0  0  0  0  0
  160.8710  210.5430  152.9310 C   0  0  0  0  0  2  0  0  0  0  0  0
  162.5960  209.9120  148.3160 C   0  0  1  0  0  3  0  0  0  0  0  0
  163.3170  208.6860  148.8540 C   0  0  0  0  0  2  0  0  0  0  0  0
  161.1320  205.7640  152.4310 C   0  0  0  0  0  0  0  0  0  0  0  0
  161.1240  209.0230  150.8770 C   0  0  0  0  0  0  0  0  0  0  0  0
  161.0090  209.1770  155.0930 C   0  0  0  0  0  2  0  0  0  0  0  0
  161.2460  205.5590  149.2110 C   0  0  0  0  0  0  0  0  0  0  0  0
  160.8780  211.6570  155.1500 C   0  0  0  0  0  1  0  0  0  0  0  0
  161.1380  209.7850  148.4680 N   0  0  0  0  0  2  0  0  0  0  0  0
  163.6310  211.1580  150.1460 O   0  0  0  0  0  1  0  0  0  0  0  0
  160.6630  210.0390  149.8320 C   0  0  2  0  0  3  0  0  0  0  0  0
  160.8400  204.5720  150.2400 C   0  0  0  0  0  3  0  0  0  0  0  0
  161.5350  203.6110  147.6420 C   0  0  0  0  0  3  0  0  0  0  0  0
  161.3010  204.9830  147.8360 C   0  0  0  0  0  0  0  0  0  0  0  0
  161.0550  205.7930  146.7130 C   0  0  0  0  0  3  0  0  0  0  0  0
  160.8140  206.0850  144.3010 N   0  0  0  0  0  1  0  0  0  0  0  0
  161.3090  203.8890  145.2440 C   0  0  0  0  0  3  0  0  0  0  0  0
  161.0640  205.2510  145.4250 C   0  0  0  0  0  0  0  0  0  0  0  0
  161.5400  203.0680  146.3530 C   0  0  0  0  0  3  0  0  0  0  0  0
  160.0750  213.6970  150.7530 O   0  0  0  0  0  1  0  0  0  0  0  0
  160.5100  213.6990  149.4240 C   0  0  0  0  0  2  0  0  0  0  0  0
  2 22  1  0  0  0  0
  2 24  1  0  0  0  0
  3 20  2  0  0  0  0
  3  9  1  0  0  0  0
  4 37  1  0  0  0  0
  4  1  1  0  0  0  0
  5 19  1  0  0  0  0
  5 10  1  0  0  0  0
  6 11  1  0  0  0  0
  6 22  1  0  0  0  0
  7 21  2  0  0  0  0
  7  3  1  0  0  0  0
  8 26  1  1  0  0  0
  9  6  2  0  0  0  0
 10  7  1  0  0  0  0
 12  8  1  0  0  0  0
 12  4  1  0  0  0  0
 13  9  1  0  0  0  0
 13 17  1  0  0  0  0
 14  2  1  0  0  0  0
 15 20  1  0  0  0  0
 16 11  2  0  0  0  0
 17  2  1  0  0  0  0
 18 25  1  0  0  0  0
 18  8  1  0  0  0  0
 18 19  1  1  0  0  0
 20 16  1  0  0  0  0
 21 13  1  0  0  0  0
 23 10  2  0  0  0  0
 23 28  1  0  0  0  0
 25 27  1  0  0  0  0
 27  1  1  1  0  0  0
 27 21  1  0  0  0  0
 28 15  2  0  0  0  0
 29 30  1  0  0  0  0
 30 23  1  0  0  0  0
 31 30  2  0  0  0  0
 32 34  1  0  0  0  0
 33 34  2  0  0  0  0
 33 35  1  0  0  0  0
 34 31  1  0  0  0  0
 35 29  2  0  0  0  0
 37 36  1  0  0  0  0
M  END
>  <MODEL>
6

>  <REMARK>
 VINA RESULT:      -1.4      3.139      7.877
  Name = 
  2 active torsions:
  status: ('A' for Active; 'I' for Inactive)
    1  A    between atoms: N_4  and  C_37
    2  A    between atoms: C_23  and  C_30
                            x       y       z     vdW  Elec       q    Type
                         _______ _______ _______ _____ _____    ______ ____

>  <TORSDO>
F 2

$$$$
=
 OpenBabel11122413423D

 37 43  0  0  1  0  0  0  0  0999 V2000
  157.5490  212.8780  152.3360 C   0  0  0  0  0  2  0  0  0  0  0  0
  158.7470  212.6130  156.4720 C   0  0  0  0  0  0  0  0  0  0  0  0
  160.4520  209.5580  154.1990 C   0  0  0  0  0  0  0  0  0  0  0  0
  157.1280  213.5650  151.1150 N   0  0  0  0  0  0  0  0  0  0  0  0
  161.2360  210.3920  150.5660 C   0  0  0  0  0  2  0  0  0  0  0  0
  159.9400  210.3740  156.4200 C   0  0  0  0  0  0  0  0  0  0  0  0
  160.1350  209.9390  152.9030 C   0  0  0  0  0  0  0  0  0  0  0  0
  159.6370  213.9060  150.7970 C   0  0  2  0  0  3  0  0  0  0  0  0
  159.8510  210.4480  155.0380 C   0  0  0  0  0  0  0  0  0  0  0  0
  160.8150  209.4300  151.6640 C   0  0  0  0  0  0  0  0  0  0  0  0
  160.6400  209.2920  156.9720 C   0  0  0  0  0  3  0  0  0  0  0  0
  158.2000  214.4290  150.5920 C   0  0  0  0  0  2  0  0  0  0  0  0
  159.1090  211.3340  154.3760 N   0  0  0  0  0  0  0  0  0  0  0  0
  159.9350  213.5520  156.3500 C   0  0  0  0  0  1  0  0  0  0  0  0
  161.4760  207.2820  153.9120 C   0  0  0  0  0  3  0  0  0  0  0  0
  161.2130  208.3260  156.1180 C   0  0  0  0  0  3  0  0  0  0  0  0
  158.2140  212.2670  155.0650 C   0  0  0  0  0  2  0  0  0  0  0  0
  159.8650  212.4370  150.3830 C   0  0  1  0  0  3  0  0  0  0  0  0
  161.1670  211.8640  150.9200 C   0  0  0  0  0  2  0  0  0  0  0  0
  161.1160  208.4440  154.7150 C   0  0  0  0  0  0  0  0  0  0  0  0
  159.2250  211.0320  153.0530 C   0  0  0  0  0  0  0  0  0  0  0  0
  159.1610  211.3500  157.2610 C   0  0  0  0  0  2  0  0  0  0  0  0
  161.2350  208.1430  151.5030 C   0  0  0  0  0  0  0  0  0  0  0  0
  157.6540  213.3240  157.2400 C   0  0  0  0  0  1  0  0  0  0  0  0
  158.7380  211.5220  150.6230 N   0  0  0  0  0  2  0  0  0  0  0  0
  160.0650  214.1580  152.1060 O   0  0  0  0  0  1  0  0  0  0  0  0
  158.2410  211.5460  152.0020 C   0  0  2  0  0  3  0  0  0  0  0  0
  161.4860  207.1630  152.5870 C   0  0  0  0  0  3  0  0  0  0  0  0
  162.3350  208.3780  149.2500 C   0  0  0  0  0  3  0  0  0  0  0  0
  161.5670  207.6160  150.1470 C   0  0  0  0  0  0  0  0  0  0  0  0
  161.1730  206.3200  149.7690 C   0  0  0  0  0  3  0  0  0  0  0  0
  161.1100  204.4930  148.1510 N   0  0  0  0  0  1  0  0  0  0  0  0
  162.2710  206.5760  147.6290 C   0  0  0  0  0  3  0  0  0  0  0  0
  161.5180  205.8050  148.5160 C   0  0  0  0  0  0  0  0  0  0  0  0
  162.6830  207.8610  147.9970 C   0  0  0  0  0  3  0  0  0  0  0  0
  155.4960  214.0660  152.7070 O   0  0  0  0  0  1  0  0  0  0  0  0
  156.0370  214.4530  151.4780 C   0  0  0  0  0  2  0  0  0  0  0  0
  2 24  1  0  0  0  0
  2 22  1  0  0  0  0
  3 20  2  0  0  0  0
  3  9  1  0  0  0  0
  4 37  1  0  0  0  0
  4  1  1  0  0  0  0
  5 19  1  0  0  0  0
  5 10  1  0  0  0  0
  6 11  1  0  0  0  0
  6 22  1  0  0  0  0
  7 21  2  0  0  0  0
  7  3  1  0  0  0  0
  8 26  1  1  0  0  0
  9  6  2  0  0  0  0
 10  7  1  0  0  0  0
 12  8  1  0  0  0  0
 12  4  1  0  0  0  0
 13  9  1  0  0  0  0
 13 17  1  0  0  0  0
 14  2  1  0  0  0  0
 15 20  1  0  0  0  0
 16 11  2  0  0  0  0
 17  2  1  0  0  0  0
 18 25  1  0  0  0  0
 18  8  1  0  0  0  0
 18 19  1  1  0  0  0
 20 16  1  0  0  0  0
 21 13  1  0  0  0  0
 23 10  2  0  0  0  0
 23 28  1  0  0  0  0
 25 27  1  0  0  0  0
 27  1  1  1  0  0  0
 27 21  1  0  0  0  0
 28 15  2  0  0  0  0
 29 30  1  0  0  0  0
 30 23  1  0  0  0  0
 31 30  2  0  0  0  0
 32 34  1  0  0  0  0
 33 35  1  0  0  0  0
 33 34  2  0  0  0  0
 34 31  1  0  0  0  0
 35 29  2  0  0  0  0
 37 36  1  0  0  0  0
M  END
>  <MODEL>
7

>  <REMARK>
 VINA RESULT:      -0.9      4.506      9.742
  Name = 
  2 active torsions:
  status: ('A' for Active; 'I' for Inactive)
    1  A    between atoms: N_4  and  C_37
    2  A    between atoms: C_23  and  C_30
                            x       y       z     vdW  Elec       q    Type
                         _______ _______ _______ _____ _____    ______ ____

>  <TORSDO>
F 2

$$$$
=
 OpenBabel11122413423D

 37 43  0  0  1  0  0  0  0  0999 V2000
  160.5850  211.3970  150.7400 C   0  0  0  0  0  2  0  0  0  0  0  0
  161.3830  210.5530  154.8950 C   0  0  0  0  0  0  0  0  0  0  0  0
  161.2110  207.0480  152.6400 C   0  0  0  0  0  0  0  0  0  0  0  0
  160.6210  212.1960  149.5150 N   0  0  0  0  0  0  0  0  0  0  0  0
  162.3800  207.3060  149.0240 C   0  0  0  0  0  2  0  0  0  0  0  0
  161.1820  208.0240  154.8550 C   0  0  0  0  0  0  0  0  0  0  0  0
  161.1700  207.5310  151.3400 C   0  0  0  0  0  0  0  0  0  0  0  0
  162.9230  211.1300  149.2410 C   0  0  2  0  0  3  0  0  0  0  0  0
  161.1700  208.1260  153.4710 C   0  0  0  0  0  0  0  0  0  0  0  0
  161.4890  206.7290  150.1100 C   0  0  0  0  0  0  0  0  0  0  0  0
  161.1790  206.7390  155.4140 C   0  0  0  0  0  3  0  0  0  0  0  0
  161.9980  212.3430  149.0130 C   0  0  0  0  0  2  0  0  0  0  0  0
  161.0330  209.2680  152.8000 N   0  0  0  0  0  0  0  0  0  0  0  0
  162.8920  210.7030  154.7970 C   0  0  0  0  0  1  0  0  0  0  0  0
  160.8520  204.5770  152.3610 C   0  0  0  0  0  3  0  0  0  0  0  0
  161.1560  205.6110  154.5670 C   0  0  0  0  0  3  0  0  0  0  0  0
  160.7710  210.5410  153.4770 C   0  0  0  0  0  2  0  0  0  0  0  0
  162.3310  209.7670  148.8250 C   0  0  1  0  0  3  0  0  0  0  0  0
  163.1100  208.5860  149.3820 C   0  0  0  0  0  2  0  0  0  0  0  0
  161.1600  205.7550  153.1620 C   0  0  0  0  0  0  0  0  0  0  0  0
  160.9900  208.9430  151.4780 C   0  0  0  0  0  0  0  0  0  0  0  0
  161.0380  209.2710  155.6860 C   0  0  0  0  0  2  0  0  0  0  0  0
  161.1520  205.4180  149.9520 C   0  0  0  0  0  0  0  0  0  0  0  0
  160.8330  211.7460  155.6470 C   0  0  0  0  0  1  0  0  0  0  0  0
  160.8840  209.6040  149.0420 N   0  0  0  0  0  2  0  0  0  0  0  0
  163.3980  211.1180  150.5580 O   0  0  0  0  0  1  0  0  0  0  0  0
  160.4560  209.9010  150.4120 C   0  0  2  0  0  3  0  0  0  0  0  0
  160.8180  204.4630  151.0360 C   0  0  0  0  0  3  0  0  0  0  0  0
  161.2780  205.5750  147.4410 C   0  0  0  0  0  3  0  0  0  0  0  0
  161.1700  204.7870  148.6000 C   0  0  0  0  0  0  0  0  0  0  0  0
  161.1470  203.3870  148.4660 C   0  0  0  0  0  3  0  0  0  0  0  0
  161.1810  201.3730  147.0870 N   0  0  0  0  0  1  0  0  0  0  0  0
  161.3010  203.5840  146.0600 C   0  0  0  0  0  3  0  0  0  0  0  0
  161.2070  202.7890  147.2030 C   0  0  0  0  0  0  0  0  0  0  0  0
  161.3410  204.9760  146.1790 C   0  0  0  0  0  3  0  0  0  0  0  0
  160.3350  213.7490  151.2340 O   0  0  0  0  0  1  0  0  0  0  0  0
  160.1750  213.5340  149.8620 C   0  0  0  0  0  2  0  0  0  0  0  0
  2 24  1  0  0  0  0
  2 22  1  0  0  0  0
  3 20  2  0  0  0  0
  3  9  1  0  0  0  0
  4 37  1  0  0  0  0
  4  1  1  0  0  0  0
  5 19  1  0  0  0  0
  5 10  1  0  0  0  0
  6 11  1  0  0  0  0
  6 22  1  0  0  0  0
  7 21  2  0  0  0  0
  7  3  1  0  0  0  0
  8 26  1  1  0  0  0
  9  6  2  0  0  0  0
 10  7  1  0  0  0  0
 12  8  1  0  0  0  0
 12  4  1  0  0  0  0
 13  9  1  0  0  0  0
 13 17  1  0  0  0  0
 14  2  1  0  0  0  0
 15 20  1  0  0  0  0
 16 11  2  0  0  0  0
 17  2  1  0  0  0  0
 18 25  1  0  0  0  0
 18  8  1  0  0  0  0
 18 19  1  1  0  0  0
 20 16  1  0  0  0  0
 21 13  1  0  0  0  0
 23 10  2  0  0  0  0
 23 28  1  0  0  0  0
 25 27  1  0  0  0  0
 27  1  1  1  0  0  0
 27 21  1  0  0  0  0
 28 15  2  0  0  0  0
 29 30  1  0  0  0  0
 30 23  1  0  0  0  0
 31 30  2  0  0  0  0
 32 34  1  0  0  0  0
 33 35  1  0  0  0  0
 33 34  2  0  0  0  0
 34 31  1  0  0  0  0
 35 29  2  0  0  0  0
 37 36  1  0  0  0  0
M  END
>  <MODEL>
8

>  <REMARK>
 VINA RESULT:      -0.1      3.168      8.000
  Name = 
  2 active torsions:
  status: ('A' for Active; 'I' for Inactive)
    1  A    between atoms: N_4  and  C_37
    2  A    between atoms: C_23  and  C_30
                            x       y       z     vdW  Elec       q    Type
                         _______ _______ _______ _____ _____    ______ ____

>  <TORSDO>
F 2

$$$$
