=
 OpenBabel11122413133D

 31 36  0  0  1  0  0  0  0  0999 V2000
  161.5780  207.9160  138.0100 C   0  0  0  0  0  0  0  0  0  0  0  0
  160.2850  211.4520  138.5450 C   0  0  2  0  0  3  0  0  0  0  0  0
  158.7400  211.3930  138.4630 C   0  0  1  0  0  3  0  0  0  0  0  0
  156.5680  210.2360  138.8360 C   0  0  1  0  0  3  0  0  0  0  0  0
  160.9530  210.1260  138.7840 C   0  0  0  0  0  0  0  0  0  0  0  0
  162.1690  207.6480  139.2470 C   0  0  0  0  0  3  0  0  0  0  0  0
  158.0630  210.2200  139.1720 C   0  0  0  0  0  2  0  0  0  0  0  0
  160.8290  212.0520  140.9320 C   0  0  2  0  0  3  0  0  0  0  0  0
  161.5920  206.9530  137.0110 O   0  0  0  0  0  1  0  0  0  0  0  0
  158.8670  213.7740  138.5110 O   0  0  0  0  0  0  0  0  0  0  0  0
  155.9270  209.2020  139.5130 O   0  0  0  0  0  1  0  0  0  0  0  0
  161.5630  210.8290  141.0330 O   0  0  0  0  0  0  0  0  0  0  0  0
  160.8180  212.5620  139.4820 C   0  0  2  0  0  3  0  0  0  0  0  0
  160.9710  209.1540  137.7770 C   0  0  0  0  0  3  0  0  0  0  0  0
  155.9230  211.5770  139.2160 C   0  0  0  0  0  2  0  0  0  0  0  0
  161.5480  209.8550  140.0290 C   0  0  0  0  0  0  0  0  0  0  0  0
  162.1570  208.6170  140.2550 C   0  0  0  0  0  3  0  0  0  0  0  0
  159.9960  213.8740  139.3560 C   0  0  0  0  0  2  0  0  0  0  0  0
  158.1270  212.6860  138.9870 C   0  0  1  0  0  3  0  0  0  0  0  0
  156.6650  212.7530  138.5750 C   0  0  0  0  0  2  0  0  0  0  0  0
  162.2920  212.4230  142.7830 O   0  0  0  0  0  0  0  0  0  0  0  0
  161.0230  212.7790  143.2730 C   0  0  2  0  0  3  0  0  0  0  0  0
  161.4320  213.0780  141.8820 C   0  0  2  0  0  3  0  0  0  0  0  0
  161.4240  213.2850  146.7880 C   0  0  1  0  0  3  0  0  0  0  0  0
  162.3320  214.0090  144.9270 O   0  0  0  0  0  0  0  0  0  0  0  0
  158.7380  214.1120  144.3760 O   0  0  0  0  0  1  0  0  0  0  0  0
  161.5300  212.2370  147.8760 C   0  0  0  0  0  1  0  0  0  0  0  0
  162.2710  212.9400  145.7190 O   0  0  0  0  0  0  0  0  0  0  0  0
  159.9430  214.2660  145.0620 C   0  0  2  0  0  3  0  0  0  0  0  0
  161.1530  214.0340  144.1420 C   0  0  2  0  0  3  0  0  0  0  0  0
  159.9920  213.3360  146.2700 C   0  0  0  0  0  2  0  0  0  0  0  0
  1  6  1  0  0  0  0
  2  5  1  1  0  0  0
  2 13  1  0  0  0  0
  3  2  1  0  0  0  0
  3 19  1  0  0  0  0
  3  7  1  1  0  0  0
  4  7  1  0  0  0  0
  4 15  1  0  0  0  0
  4 11  1  1  0  0  0
  5 16  2  0  0  0  0
  6 17  2  0  0  0  0
  8 12  1  6  0  0  0
  8 23  1  0  0  0  0
  9  1  1  0  0  0  0
 10 19  1  0  0  0  0
 10 18  1  0  0  0  0
 13 18  1  1  0  0  0
 13  8  1  0  0  0  0
 14  1  2  0  0  0  0
 14  5  1  0  0  0  0
 16 17  1  0  0  0  0
 16 12  1  0  0  0  0
 19 20  1  6  0  0  0
 20 15  1  0  0  0  0
 22 21  1  1  0  0  0
 22 30  1  0  0  0  0
 23 21  1  1  0  0  0
 23 22  1  0  0  0  0
 24 27  1  1  0  0  0
 25 28  1  0  0  0  0
 28 24  1  0  0  0  0
 29 26  1  6  0  0  0
 29 31  1  0  0  0  0
 30 25  1  1  0  0  0
 30 29  1  0  0  0  0
 31 24  1  0  0  0  0
M  END
>  <MODEL>
1

>  <REMARK>
 VINA RESULT:      -6.3      0.000      0.000
  Name = 
  2 active torsions:
  status: ('A' for Active; 'I' for Inactive)
    1  A    between atoms: C_5  and  C_30
    2  A    between atoms: C_10  and  C_16
                            x       y       z     vdW  Elec       q    Type
                         _______ _______ _______ _____ _____    ______ ____

>  <TORSDO>
F 2

$$$$
=
 OpenBabel11122413133D

 31 36  0  0  1  0  0  0  0  0999 V2000
  157.5580  213.9170  149.7450 C   0  0  0  0  0  0  0  0  0  0  0  0
  160.4890  214.1820  147.3370 C   0  0  2  0  0  3  0  0  0  0  0  0
  161.5930  213.2270  147.8520 C   0  0  1  0  0  3  0  0  0  0  0  0
  162.3300  211.1270  148.9670 C   0  0  1  0  0  3  0  0  0  0  0  0
  159.1160  213.9120  147.8890 C   0  0  0  0  0  0  0  0  0  0  0  0
  156.5690  213.3760  148.9180 C   0  0  0  0  0  3  0  0  0  0  0  0
  161.1340  211.8530  148.3420 C   0  0  0  0  0  2  0  0  0  0  0  0
  159.6990  213.2110  145.1490 C   0  0  2  0  0  3  0  0  0  0  0  0
  157.2760  214.1880  151.0770 O   0  0  0  0  0  1  0  0  0  0  0  0
  162.9470  214.2450  146.1740 O   0  0  0  0  0  0  0  0  0  0  0  0
  161.9390  209.8540  149.3760 O   0  0  0  0  0  1  0  0  0  0  0  0
  158.3860  213.1160  145.7080 O   0  0  0  0  0  0  0  0  0  0  0  0
  160.4850  214.3610  145.8000 C   0  0  2  0  0  3  0  0  0  0  0  0
  158.8300  214.1860  149.2310 C   0  0  0  0  0  3  0  0  0  0  0  0
  163.4950  211.0120  147.9740 C   0  0  0  0  0  2  0  0  0  0  0  0
  158.1210  213.3660  147.0580 C   0  0  0  0  0  0  0  0  0  0  0  0
  156.8500  213.1030  147.5760 C   0  0  0  0  0  3  0  0  0  0  0  0
  161.9240  214.4530  145.2210 C   0  0  0  0  0  2  0  0  0  0  0  0
  162.6610  213.0190  146.7840 C   0  0  1  0  0  3  0  0  0  0  0  0
  163.8890  212.3830  147.4170 C   0  0  0  0  0  2  0  0  0  0  0  0
  158.9580  212.2640  143.0850 O   0  0  0  0  0  0  0  0  0  0  0  0
  160.3560  212.3330  142.9480 C   0  0  2  0  0  3  0  0  0  0  0  0
  159.5890  213.3930  143.6410 C   0  0  2  0  0  3  0  0  0  0  0  0
  161.5440  210.5870  140.0660 C   0  0  1  0  0  3  0  0  0  0  0  0
  159.9760  212.0410  140.5540 O   0  0  0  0  0  0  0  0  0  0  0  0
  162.9800  213.2310  142.2250 O   0  0  0  0  0  1  0  0  0  0  0  0
  161.8440  209.1090  139.9270 C   0  0  0  0  0  1  0  0  0  0  0  0
  160.2980  210.7570  140.6960 O   0  0  0  0  0  0  0  0  0  0  0  0
  162.2020  212.6870  141.2030 C   0  0  2  0  0  3  0  0  0  0  0  0
  160.7010  212.7770  141.5230 C   0  0  2  0  0  3  0  0  0  0  0  0
  162.6130  211.2430  140.9300 C   0  0  0  0  0  2  0  0  0  0  0  0
  1  9  1  0  0  0  0
  2  3  1  0  0  0  0
  2  5  1  6  0  0  0
  3  7  1  6  0  0  0
  4 11  1  6  0  0  0
  5 14  2  0  0  0  0
  6  1  2  0  0  0  0
  7  4  1  0  0  0  0
  8 12  1  1  0  0  0
  8 13  1  0  0  0  0
 10 19  1  0  0  0  0
 12 16  1  0  0  0  0
 13 18  1  6  0  0  0
 13  2  1  0  0  0  0
 14  1  1  0  0  0  0
 15  4  1  0  0  0  0
 16 17  2  0  0  0  0
 16  5  1  0  0  0  0
 17  6  1  0  0  0  0
 18 10  1  0  0  0  0
 19 20  1  1  0  0  0
 19  3  1  0  0  0  0
 20 15  1  0  0  0  0
 22 21  1  6  0  0  0
 22 23  1  0  0  0  0
 23 21  1  6  0  0  0
 23  8  1  0  0  0  0
 24 27  1  1  0  0  0
 24 28  1  0  0  0  0
 24 31  1  0  0  0  0
 25 28  1  0  0  0  0
 29 30  1  0  0  0  0
 29 26  1  1  0  0  0
 30 25  1  6  0  0  0
 30 22  1  0  0  0  0
 31 29  1  0  0  0  0
M  END
>  <MODEL>
2

>  <REMARK>
 VINA RESULT:      -4.8      2.721      8.920
  Name = 
  2 active torsions:
  status: ('A' for Active; 'I' for Inactive)
    1  A    between atoms: C_5  and  C_30
    2  A    between atoms: C_10  and  C_16
                            x       y       z     vdW  Elec       q    Type
                         _______ _______ _______ _____ _____    ______ ____

>  <TORSDO>
F 2

$$$$
