=
 OpenBabel11122412453D

 30 35  0  0  1  0  0  0  0  0999 V2000
  160.0480  212.2340  151.7910 C   0  0  2  0  0  3  0  0  0  0  0  0
  160.6690  213.2690  149.5490 C   0  0  0  0  0  0  0  0  0  0  0  0
  161.7230  208.7510  150.6620 O   0  0  0  0  0  0  0  0  0  0  0  0
  159.9430  210.8290  152.4030 C   0  0  2  0  0  3  0  0  0  0  0  0
  158.7430  212.7250  151.5920 O   0  0  0  0  0  0  0  0  0  0  0  0
  157.0280  211.7760  154.4180 O   0  0  0  0  0  0  0  0  0  0  0  0
  160.5990  209.3680  155.1980 C   0  0  2  0  0  3  0  0  0  0  0  0
  158.0040  211.8680  153.6890 C   0  0  0  0  0  0  0  0  0  0  0  0
  160.4210  208.3210  154.1170 C   0  0  2  0  0  3  0  0  0  0  0  0
  161.2600  207.9900  151.7120 C   0  0  0  0  0  0  0  0  0  0  0  0
  158.2490  213.1030  152.8520 C   0  0  2  0  0  3  0  0  0  0  0  0
  159.0360  210.7720  153.6700 C   0  0  2  0  0  3  0  0  0  0  0  0
  161.3530  213.2340  148.3320 C   0  0  0  0  0  3  0  0  0  0  0  0
  161.0350  207.0790  154.7250 C   0  0  0  0  0  2  0  0  0  0  0  0
  160.3580  208.6340  156.4950 C   0  0  0  0  0  2  0  0  0  0  0  0
  159.8740  214.3740  149.8320 O   0  0  0  0  0  1  0  0  0  0  0  0
  162.0130  210.0560  151.1540 C   0  0  2  0  0  3  0  0  0  0  0  0
  162.1930  212.1660  148.0250 C   0  0  0  0  0  3  0  0  0  0  0  0
  160.7940  212.2020  150.4700 C   0  0  0  0  0  0  0  0  0  0  0  0
  161.3130  210.1420  152.5290 C   0  0  2  0  0  3  0  0  0  0  0  0
  160.9630  206.7700  151.6110 O   0  0  0  0  0  0  0  0  0  0  0  0
  161.1140  208.7440  152.9020 N   0  0  0  0  0  0  0  0  0  0  0  0
  160.7880  207.1970  156.2240 C   0  0  0  0  0  2  0  0  0  0  0  0
  160.5590  211.8560  155.3910 C   0  0  0  0  0  1  0  0  0  0  0  0
  162.3670  211.1330  148.9440 C   0  0  0  0  0  3  0  0  0  0  0  0
  161.6840  211.1420  150.1650 C   0  0  0  0  0  0  0  0  0  0  0  0
  159.7350  210.6260  155.0430 C   0  0  2  0  0  3  0  0  0  0  0  0
  157.0050  213.9150  152.6760 C   0  0  0  0  0  3  0  0  0  0  0  0
  155.0430  214.4530  151.5020 O   0  0  0  0  0  1  0  0  0  0  0  0
  156.1940  213.6920  151.6530 C   0  0  0  0  0  3  0  0  0  0  0  0
  1 19  1  6  0  0  0
  1  4  1  0  0  0  0
  2 16  1  0  0  0  0
  2 19  1  0  0  0  0
  3 17  1  0  0  0  0
  3 10  1  0  0  0  0
  4 20  1  0  0  0  0
  4 12  1  0  0  0  0
  5  1  1  0  0  0  0
  5 11  1  0  0  0  0
  7 15  1  0  0  0  0
  8  6  2  0  0  0  0
  9 14  1  0  0  0  0
  9  7  1  0  0  0  0
 10 22  1  0  0  0  0
 11  8  1  0  0  0  0
 12  8  1  0  0  0  0
 12 27  1  0  0  0  0
 13  2  2  0  0  0  0
 14 23  1  0  0  0  0
 17 20  1  0  0  0  0
 18 13  1  0  0  0  0
 18 25  2  0  0  0  0
 20 22  1  0  0  0  0
 21 10  2  0  0  0  0
 22  9  1  0  0  0  0
 23 15  1  0  0  0  0
 25 26  1  0  0  0  0
 26 19  2  0  0  0  0
 26 17  1  0  0  0  0
 27  7  1  0  0  0  0
 27 24  1  0  0  0  0
 28 11  1  0  0  0  0
 29 30  1  0  0  0  0
 30 28  2  0  0  0  0
M  END
>  <MODEL>
1

>  <REMARK>
 VINA RESULT:      -6.4      0.000      0.000
  Name = 
  1 active torsions:
  status: ('A' for Active; 'I' for Inactive)
    1  A    between atoms: C_11  and  C_28
                            x       y       z     vdW  Elec       q    Type
                         _______ _______ _______ _____ _____    ______ ____

>  <TORSDO>
F 1

$$$$
=
 OpenBabel11122412453D

 30 35  0  0  1  0  0  0  0  0999 V2000
  161.1280  207.7100  150.9200 C   0  0  2  0  0  3  0  0  0  0  0  0
  160.9340  208.9780  153.1190 C   0  0  0  0  0  0  0  0  0  0  0  0
  161.4500  204.2390  152.9350 O   0  0  0  0  0  0  0  0  0  0  0  0
  161.5700  206.3160  150.4480 C   0  0  2  0  0  3  0  0  0  0  0  0
  162.1170  208.6380  150.5370 O   0  0  0  0  0  0  0  0  0  0  0  0
  163.0170  207.6710  147.3610 O   0  0  0  0  0  0  0  0  0  0  0  0
  160.6550  204.1050  148.2900 C   0  0  2  0  0  3  0  0  0  0  0  0
  162.3890  207.6050  148.4070 C   0  0  0  0  0  0  0  0  0  0  0  0
  161.5820  203.4620  149.3020 C   0  0  2  0  0  3  0  0  0  0  0  0
  161.7970  203.4490  151.8610 C   0  0  0  0  0  0  0  0  0  0  0  0
  161.9690  208.8490  149.1560 C   0  0  2  0  0  3  0  0  0  0  0  0
  161.9460  206.2660  148.9350 C   0  0  2  0  0  3  0  0  0  0  0  0
  160.7690  209.0070  154.5050 C   0  0  0  0  0  3  0  0  0  0  0  0
  161.3460  201.9810  149.1050 C   0  0  0  0  0  2  0  0  0  0  0  0
  160.7200  203.2090  147.0780 C   0  0  0  0  0  2  0  0  0  0  0  0
  161.0830  210.1840  152.4430 O   0  0  0  0  0  1  0  0  0  0  0  0
  160.5210  205.2190  152.4820 C   0  0  2  0  0  3  0  0  0  0  0  0
  160.5750  207.8250  155.2170 C   0  0  0  0  0  3  0  0  0  0  0  0
  160.9420  207.7450  152.4250 C   0  0  0  0  0  0  0  0  0  0  0  0
  160.6270  205.2060  150.9410 C   0  0  2  0  0  3  0  0  0  0  0  0
  162.5680  202.4560  151.9460 O   0  0  0  0  0  0  0  0  0  0  0  0
  161.2270  203.9050  150.6480 N   0  0  0  0  0  0  0  0  0  0  0  0
  161.0110  201.8180  147.6270 C   0  0  0  0  0  2  0  0  0  0  0  0
  159.6400  206.3460  147.8710 C   0  0  0  0  0  1  0  0  0  0  0  0
  160.5280  206.6070  154.5420 C   0  0  0  0  0  3  0  0  0  0  0  0
  160.7020  206.5530  153.1550 C   0  0  0  0  0  0  0  0  0  0  0  0
  160.9480  205.5770  147.9730 C   0  0  2  0  0  3  0  0  0  0  0  0
  162.7700  210.0440  148.7470 C   0  0  0  0  0  3  0  0  0  0  0  0
  162.9600  212.3410  148.2920 O   0  0  0  0  0  1  0  0  0  0  0  0
  162.2060  211.2400  148.6730 C   0  0  0  0  0  3  0  0  0  0  0  0
  1  5  1  1  0  0  0
  1 19  1  0  0  0  0
  2 13  1  0  0  0  0
  4  1  1  0  0  0  0
  4 20  1  0  0  0  0
  6  8  2  0  0  0  0
  7  9  1  0  0  0  0
  8 12  1  0  0  0  0
  8 11  1  0  0  0  0
  9 22  1  0  0  0  0
 10 21  2  0  0  0  0
 10  3  1  0  0  0  0
 11  5  1  0  0  0  0
 12  4  1  0  0  0  0
 13 18  2  0  0  0  0
 14  9  1  0  0  0  0
 15 23  1  0  0  0  0
 15  7  1  0  0  0  0
 16  2  1  0  0  0  0
 17  3  1  0  0  0  0
 17 26  1  0  0  0  0
 19  2  2  0  0  0  0
 19 26  1  0  0  0  0
 20 17  1  0  0  0  0
 22 20  1  0  0  0  0
 22 10  1  0  0  0  0
 23 14  1  0  0  0  0
 24 27  1  0  0  0  0
 25 18  1  0  0  0  0
 26 25  2  0  0  0  0
 27  7  1  0  0  0  0
 27 12  1  0  0  0  0
 28 11  1  0  0  0  0
 29 30  1  0  0  0  0
 30 28  2  0  0  0  0
M  END
>  <MODEL>
2

>  <REMARK>
 VINA RESULT:      -5.7      3.702      7.187
  Name = 
  1 active torsions:
  status: ('A' for Active; 'I' for Inactive)
    1  A    between atoms: C_11  and  C_28
                            x       y       z     vdW  Elec       q    Type
                         _______ _______ _______ _____ _____    ______ ____

>  <TORSDO>
F 1

$$$$
=
 OpenBabel11122412453D

 30 35  0  0  1  0  0  0  0  0999 V2000
  161.0110  211.9460  150.9400 C   0  0  2  0  0  3  0  0  0  0  0  0
  160.0290  212.2030  153.2740 C   0  0  0  0  0  0  0  0  0  0  0  0
  158.1860  214.4080  149.4670 O   0  0  0  0  0  0  0  0  0  0  0  0
  160.5820  212.2240  149.4910 C   0  0  2  0  0  3  0  0  0  0  0  0
  160.9890  210.5520  151.1460 O   0  0  0  0  0  0  0  0  0  0  0  0
  162.3240  209.2380  148.2610 O   0  0  0  0  0  0  0  0  0  0  0  0
  161.8940  213.3290  146.7640 C   0  0  2  0  0  3  0  0  0  0  0  0
  161.9560  210.1320  149.0090 C   0  0  0  0  0  0  0  0  0  0  0  0
  160.3840  213.3830  146.6490 C   0  0  2  0  0  3  0  0  0  0  0  0
  158.4490  214.1910  148.1320 C   0  0  0  0  0  0  0  0  0  0  0  0
  162.1250  210.0250  150.5070 C   0  0  2  0  0  3  0  0  0  0  0  0
  161.3940  211.4060  148.4390 C   0  0  2  0  0  3  0  0  0  0  0  0
  159.1680  212.8290  154.1790 C   0  0  0  0  0  3  0  0  0  0  0  0
  160.1530  214.3140  145.4790 C   0  0  0  0  0  2  0  0  0  0  0  0
  162.3930  213.3280  145.3400 C   0  0  0  0  0  2  0  0  0  0  0  0
  160.8320  211.1640  153.7330 O   0  0  0  0  0  1  0  0  0  0  0  0
  159.4220  214.3750  150.1730 C   0  0  2  0  0  3  0  0  0  0  0  0
  158.3760  213.9010  153.7730 C   0  0  0  0  0  3  0  0  0  0  0  0
  160.0810  212.6280  151.9260 C   0  0  0  0  0  0  0  0  0  0  0  0
  160.4340  213.7260  149.2020 C   0  0  2  0  0  3  0  0  0  0  0  0
  157.5640  214.2100  147.2350 O   0  0  0  0  0  0  0  0  0  0  0  0
  159.8140  213.9020  147.8910 N   0  0  0  0  0  0  0  0  0  0  0  0
  161.3420  214.0990  144.5500 C   0  0  0  0  0  2  0  0  0  0  0  0
  163.6000  212.6660  148.4610 C   0  0  0  0  0  1  0  0  0  0  0  0
  158.4550  214.3640  152.4610 C   0  0  0  0  0  3  0  0  0  0  0  0
  159.3030  213.7460  151.5350 C   0  0  0  0  0  0  0  0  0  0  0  0
  162.4480  212.1690  147.6010 C   0  0  2  0  0  3  0  0  0  0  0  0
  162.3310  208.6100  150.9470 C   0  0  0  0  0  3  0  0  0  0  0  0
  161.6390  206.6930  152.1150 O   0  0  0  0  0  1  0  0  0  0  0  0
  161.4350  208.0060  151.7130 C   0  0  0  0  0  3  0  0  0  0  0  0
  1  5  1  1  0  0  0
  1 19  1  0  0  0  0
  2 16  1  0  0  0  0
  2 13  1  0  0  0  0
  3 17  1  0  0  0  0
  4  1  1  0  0  0  0
  6  8  2  0  0  0  0
  7 27  1  0  0  0  0
  8 11  1  0  0  0  0
  9  7  1  0  0  0  0
  9 22  1  0  0  0  0
 10  3  1  0  0  0  0
 11 28  1  0  0  0  0
 11  5  1  0  0  0  0
 12  8  1  0  0  0  0
 12  4  1  0  0  0  0
 14  9  1  0  0  0  0
 15  7  1  0  0  0  0
 17 26  1  0  0  0  0
 18 13  2  0  0  0  0
 19  2  2  0  0  0  0
 20  4  1  0  0  0  0
 20 17  1  0  0  0  0
 21 10  2  0  0  0  0
 22 10  1  0  0  0  0
 22 20  1  0  0  0  0
 23 15  1  0  0  0  0
 23 14  1  0  0  0  0
 25 18  1  0  0  0  0
 26 19  1  0  0  0  0
 26 25  2  0  0  0  0
 27 12  1  0  0  0  0
 27 24  1  0  0  0  0
 28 30  2  0  0  0  0
 30 29  1  0  0  0  0
M  END
>  <MODEL>
3

>  <REMARK>
 VINA RESULT:      -4.6      2.654      7.463
  Name = 
  1 active torsions:
  status: ('A' for Active; 'I' for Inactive)
    1  A    between atoms: C_11  and  C_28
                            x       y       z     vdW  Elec       q    Type
                         _______ _______ _______ _____ _____    ______ ____

>  <TORSDO>
F 1

$$$$
=
 OpenBabel11122412453D

 30 35  0  0  1  0  0  0  0  0999 V2000
  161.7820  207.9580  151.1440 C   0  0  2  0  0  3  0  0  0  0  0  0
  161.7250  205.8650  149.6970 C   0  0  0  0  0  0  0  0  0  0  0  0
  160.0830  205.9240  154.1750 O   0  0  0  0  0  0  0  0  0  0  0  0
  161.1350  208.4570  152.4460 C   0  0  2  0  0  3  0  0  0  0  0  0
  161.1940  208.6500  150.0670 O   0  0  0  0  0  0  0  0  0  0  0  0
  160.9180  211.8940  151.1800 O   0  0  0  0  0  0  0  0  0  0  0  0
  161.9750  210.1520  155.0530 C   0  0  2  0  0  3  0  0  0  0  0  0
  161.2200  210.7120  151.2610 C   0  0  0  0  0  0  0  0  0  0  0  0
  160.6890  209.4030  155.3380 C   0  0  2  0  0  3  0  0  0  0  0  0
  159.8320  207.0070  154.9890 C   0  0  0  0  0  0  0  0  0  0  0  0
  161.7370  209.9470  150.0650 C   0  0  2  0  0  3  0  0  0  0  0  0
  161.1570  210.0100  152.5910 C   0  0  2  0  0  3  0  0  0  0  0  0
  161.5330  204.4910  149.5380 C   0  0  0  0  0  3  0  0  0  0  0  0
  160.5830  209.4450  156.8460 C   0  0  0  0  0  2  0  0  0  0  0  0
  161.9960  211.2840  156.0510 C   0  0  0  0  0  2  0  0  0  0  0  0
  162.0660  206.6210  148.5800 O   0  0  0  0  0  1  0  0  0  0  0  0
  161.3150  206.1550  153.4980 C   0  0  2  0  0  3  0  0  0  0  0  0
  161.2310  203.6890  150.6370 C   0  0  0  0  0  3  0  0  0  0  0  0
  161.5800  206.4650  150.9700 C   0  0  0  0  0  0  0  0  0  0  0  0
  161.6060  207.6620  153.6740 C   0  0  2  0  0  3  0  0  0  0  0  0
  158.8380  207.0850  155.7600 O   0  0  0  0  0  0  0  0  0  0  0  0
  160.7900  208.0380  154.8270 N   0  0  0  0  0  0  0  0  0  0  0  0
  161.2300  210.7610  157.2610 C   0  0  0  0  0  2  0  0  0  0  0  0
  163.6000  210.3950  153.1740 C   0  0  0  0  0  1  0  0  0  0  0  0
  161.1360  204.2570  151.9050 C   0  0  0  0  0  3  0  0  0  0  0  0
  161.3140  205.6330  152.0870 C   0  0  0  0  0  0  0  0  0  0  0  0
  162.1580  210.6180  153.6030 C   0  0  2  0  0  3  0  0  0  0  0  0
  161.3980  210.6260  148.7770 C   0  0  0  0  0  3  0  0  0  0  0  0
  161.8400  212.2210  147.1090 O   0  0  0  0  0  1  0  0  0  0  0  0
  162.1650  211.5980  148.3060 C   0  0  0  0  0  3  0  0  0  0  0  0
  1  5  1  6  0  0  0
  1  4  1  0  0  0  0
  2 19  1  0  0  0  0
  3 10  1  0  0  0  0
  4 12  1  0  0  0  0
  4 20  1  0  0  0  0
  6  8  2  0  0  0  0
  7  9  1  0  0  0  0
  7 15  1  0  0  0  0
  8 12  1  0  0  0  0
  9 14  1  0  0  0  0
 10 21  2  0  0  0  0
 11  5  1  0  0  0  0
 11  8  1  0  0  0  0
 12 27  1  0  0  0  0
 13  2  2  0  0  0  0
 13 18  1  0  0  0  0
 14 23  1  0  0  0  0
 15 23  1  0  0  0  0
 16  2  1  0  0  0  0
 17 20  1  0  0  0  0
 17  3  1  0  0  0  0
 18 25  2  0  0  0  0
 19  1  1  0  0  0  0
 19 26  2  0  0  0  0
 20 22  1  0  0  0  0
 22 10  1  0  0  0  0
 22  9  1  0  0  0  0
 24 27  1  0  0  0  0
 25 26  1  0  0  0  0
 26 17  1  0  0  0  0
 27  7  1  0  0  0  0
 28 11  1  0  0  0  0
 29 30  1  0  0  0  0
 30 28  2  0  0  0  0
M  END
>  <MODEL>
4

>  <REMARK>
 VINA RESULT:      -3.9      2.770      5.357
  Name = 
  1 active torsions:
  status: ('A' for Active; 'I' for Inactive)
    1  A    between atoms: C_11  and  C_28
                            x       y       z     vdW  Elec       q    Type
                         _______ _______ _______ _____ _____    ______ ____

>  <TORSDO>
F 1

$$$$
=
 OpenBabel11122412453D

 30 35  0  0  1  0  0  0  0  0999 V2000
  161.7040  208.6280  151.5790 C   0  0  2  0  0  3  0  0  0  0  0  0
  161.9810  211.0120  150.7310 C   0  0  0  0  0  0  0  0  0  0  0  0
  160.9770  207.3650  147.8250 O   0  0  0  0  0  0  0  0  0  0  0  0
  161.1300  207.2990  151.0630 C   0  0  2  0  0  3  0  0  0  0  0  0
  160.8270  209.1370  152.5560 O   0  0  0  0  0  0  0  0  0  0  0  0
  159.9000  206.3820  154.3960 O   0  0  0  0  0  0  0  0  0  0  0  0
  161.8560  204.1620  151.1710 C   0  0  2  0  0  3  0  0  0  0  0  0
  160.4950  206.9790  153.5110 C   0  0  0  0  0  0  0  0  0  0  0  0
  160.8450  204.4030  150.0680 C   0  0  2  0  0  3  0  0  0  0  0  0
  160.5730  206.0890  148.1490 C   0  0  0  0  0  0  0  0  0  0  0  0
  161.0250  208.3790  153.7220 C   0  0  2  0  0  3  0  0  0  0  0  0
  160.7840  206.2920  152.2030 C   0  0  2  0  0  3  0  0  0  0  0  0
  162.1180  211.9350  149.6920 C   0  0  0  0  0  3  0  0  0  0  0  0
  160.9300  203.1460  149.2310 C   0  0  0  0  0  2  0  0  0  0  0  0
  161.7250  202.6970  151.5060 C   0  0  0  0  0  2  0  0  0  0  0  0
  161.9740  211.4840  152.0400 O   0  0  0  0  0  1  0  0  0  0  0  0
  162.0130  207.7440  148.7260 C   0  0  2  0  0  3  0  0  0  0  0  0
  162.1720  211.5020  148.3680 C   0  0  0  0  0  3  0  0  0  0  0  0
  161.8590  209.6310  150.4510 C   0  0  0  0  0  0  0  0  0  0  0  0
  161.9400  206.7280  149.8880 C   0  0  2  0  0  3  0  0  0  0  0  0
  159.7010  205.4480  147.5030 O   0  0  0  0  0  0  0  0  0  0  0  0
  161.2150  205.5980  149.3120 N   0  0  0  0  0  0  0  0  0  0  0  0
  161.2780  202.0310  150.2090 C   0  0  0  0  0  2  0  0  0  0  0  0
  163.1080  205.5050  152.8610 C   0  0  0  0  0  1  0  0  0  0  0  0
  162.1060  210.1410  148.0790 C   0  0  0  0  0  3  0  0  0  0  0  0
  161.9580  209.2000  149.1040 C   0  0  0  0  0  0  0  0  0  0  0  0
  161.7250  205.0790  152.3940 C   0  0  2  0  0  3  0  0  0  0  0  0
  160.3620  209.0590  154.8770 C   0  0  0  0  0  3  0  0  0  0  0  0
  159.4290  210.9630  155.8890 O   0  0  0  0  0  1  0  0  0  0  0  0
  160.0440  210.3430  154.8100 C   0  0  0  0  0  3  0  0  0  0  0  0
  1 19  1  6  0  0  0
  1  5  1  0  0  0  0
  2 16  1  0  0  0  0
  3 10  1  0  0  0  0
  3 17  1  0  0  0  0
  4  1  1  0  0  0  0
  4 12  1  0  0  0  0
  5 11  1  0  0  0  0
  7 15  1  0  0  0  0
  7 27  1  0  0  0  0
  8 11  1  0  0  0  0
  8  6  2  0  0  0  0
  9  7  1  0  0  0  0
 10 22  1  0  0  0  0
 11 28  1  0  0  0  0
 12 27  1  0  0  0  0
 12  8  1  0  0  0  0
 13  2  2  0  0  0  0
 14  9  1  0  0  0  0
 14 23  1  0  0  0  0
 17 26  1  0  0  0  0
 17 20  1  0  0  0  0
 18 13  1  0  0  0  0
 19  2  1  0  0  0  0
 20  4  1  0  0  0  0
 21 10  2  0  0  0  0
 22 20  1  0  0  0  0
 22  9  1  0  0  0  0
 23 15  1  0  0  0  0
 25 18  2  0  0  0  0
 25 26  1  0  0  0  0
 26 19  2  0  0  0  0
 27 24  1  0  0  0  0
 30 28  2  0  0  0  0
 30 29  1  0  0  0  0
M  END
>  <MODEL>
5

>  <REMARK>
 VINA RESULT:      -3.7      3.050      5.124
  Name = 
  1 active torsions:
  status: ('A' for Active; 'I' for Inactive)
    1  A    between atoms: C_11  and  C_28
                            x       y       z     vdW  Elec       q    Type
                         _______ _______ _______ _____ _____    ______ ____

>  <TORSDO>
F 1

$$$$
=
 OpenBabel11122412453D

 30 35  0  0  1  0  0  0  0  0999 V2000
  161.1630  208.9060  153.2470 C   0  0  2  0  0  3  0  0  0  0  0  0
  160.7350  208.1680  155.6460 C   0  0  0  0  0  0  0  0  0  0  0  0
  158.8520  212.1530  153.8210 O   0  0  0  0  0  0  0  0  0  0  0  0
  160.5590  209.8960  152.2390 C   0  0  2  0  0  3  0  0  0  0  0  0
  160.8190  207.6010  152.8440 O   0  0  0  0  0  0  0  0  0  0  0  0
  161.2040  207.6310  149.4260 O   0  0  0  0  0  0  0  0  0  0  0  0
  161.5810  211.9550  149.9830 C   0  0  2  0  0  3  0  0  0  0  0  0
  161.2270  208.1060  150.5520 C   0  0  0  0  0  0  0  0  0  0  0  0
  160.1440  212.2770  150.3370 C   0  0  2  0  0  3  0  0  0  0  0  0
  158.7960  212.5580  152.5060 C   0  0  0  0  0  0  0  0  0  0  0  0
  161.6380  207.2800  151.7480 C   0  0  2  0  0  3  0  0  0  0  0  0
  160.9190  209.5650  150.7570 C   0  0  2  0  0  3  0  0  0  0  0  0
  160.2500  208.4080  156.9330 C   0  0  0  0  0  3  0  0  0  0  0  0
  159.9480  213.6720  149.7880 C   0  0  0  0  0  2  0  0  0  0  0  0
  161.7890  212.5570  148.6140 C   0  0  0  0  0  2  0  0  0  0  0  0
  161.3110  206.9310  155.3740 O   0  0  0  0  0  1  0  0  0  0  0  0
  160.1460  211.6100  154.0630 C   0  0  2  0  0  3  0  0  0  0  0  0
  159.7030  209.6470  157.2610 C   0  0  0  0  0  3  0  0  0  0  0  0
  160.6430  209.1670  154.6490 C   0  0  0  0  0  0  0  0  0  0  0  0
  160.7550  211.3590  152.6660 C   0  0  2  0  0  3  0  0  0  0  0  0
  157.7960  213.1270  151.9930 O   0  0  0  0  0  0  0  0  0  0  0  0
  159.9690  212.2230  151.7870 N   0  0  0  0  0  0  0  0  0  0  0  0
  160.8460  213.7520  148.5590 C   0  0  0  0  0  2  0  0  0  0  0  0
  163.3410  210.3290  150.6790 C   0  0  0  0  0  1  0  0  0  0  0  0
  159.6540  210.6590  156.3050 C   0  0  0  0  0  3  0  0  0  0  0  0
  160.1230  210.4370  155.0050 C   0  0  0  0  0  0  0  0  0  0  0  0
  161.9610  210.4710  150.0570 C   0  0  2  0  0  3  0  0  0  0  0  0
  161.5480  205.8130  151.4730 C   0  0  0  0  0  3  0  0  0  0  0  0
  161.1260  203.6080  152.1640 O   0  0  0  0  0  1  0  0  0  0  0  0
  161.2060  204.9670  152.4330 C   0  0  0  0  0  3  0  0  0  0  0  0
  1  5  1  6  0  0  0
  1 19  1  0  0  0  0
  2 13  1  0  0  0  0
  3 17  1  0  0  0  0
  4 20  1  0  0  0  0
  4  1  1  0  0  0  0
  6  8  2  0  0  0  0
  7 27  1  0  0  0  0
  7  9  1  0  0  0  0
  8 12  1  0  0  0  0
  8 11  1  0  0  0  0
  9 22  1  0  0  0  0
 10  3  1  0  0  0  0
 11  5  1  0  0  0  0
 12  4  1  0  0  0  0
 13 18  2  0  0  0  0
 14  9  1  0  0  0  0
 15  7  1  0  0  0  0
 16  2  1  0  0  0  0
 17 26  1  0  0  0  0
 19 26  1  0  0  0  0
 19  2  2  0  0  0  0
 20 17  1  0  0  0  0
 21 10  2  0  0  0  0
 22 10  1  0  0  0  0
 22 20  1  0  0  0  0
 23 15  1  0  0  0  0
 23 14  1  0  0  0  0
 25 18  1  0  0  0  0
 26 25  2  0  0  0  0
 27 24  1  0  0  0  0
 27 12  1  0  0  0  0
 28 11  1  0  0  0  0
 28 30  2  0  0  0  0
 29 30  1  0  0  0  0
M  END
>  <MODEL>
6

>  <REMARK>
 VINA RESULT:      -3.7      1.684      7.130
  Name = 
  1 active torsions:
  status: ('A' for Active; 'I' for Inactive)
    1  A    between atoms: C_11  and  C_28
                            x       y       z     vdW  Elec       q    Type
                         _______ _______ _______ _____ _____    ______ ____

>  <TORSDO>
F 1

$$$$
=
 OpenBabel11122412453D

 30 35  0  0  1  0  0  0  0  0999 V2000
  161.4300  207.2740  151.7250 C   0  0  2  0  0  3  0  0  0  0  0  0
  161.1280  206.3030  154.0580 C   0  0  0  0  0  0  0  0  0  0  0  0
  160.4590  210.9290  153.1060 O   0  0  0  0  0  0  0  0  0  0  0  0
  161.0570  208.5610  150.9730 C   0  0  2  0  0  3  0  0  0  0  0  0
  160.6110  206.2320  151.2470 O   0  0  0  0  0  0  0  0  0  0  0  0
  160.4860  206.7310  147.8460 O   0  0  0  0  0  0  0  0  0  0  0  0
  162.3780  210.5560  148.8160 C   0  0  2  0  0  3  0  0  0  0  0  0
  160.8310  206.9730  148.9930 C   0  0  0  0  0  0  0  0  0  0  0  0
  161.2000  211.2440  149.4770 C   0  0  2  0  0  3  0  0  0  0  0  0
  160.3540  211.5530  151.8820 C   0  0  0  0  0  0  0  0  0  0  0  0
  161.1060  205.8660  149.9840 C   0  0  2  0  0  3  0  0  0  0  0  0
  161.0670  208.3960  149.4220 C   0  0  2  0  0  3  0  0  0  0  0  0
  160.9440  206.4560  155.4340 C   0  0  0  0  0  3  0  0  0  0  0  0
  161.4100  212.7040  149.1410 C   0  0  0  0  0  2  0  0  0  0  0  0
  162.5770  211.2900  147.5120 C   0  0  0  0  0  2  0  0  0  0  0  0
  161.2070  205.0150  153.5390 O   0  0  0  0  0  1  0  0  0  0  0  0
  161.5150  209.9760  153.0290 C   0  0  2  0  0  3  0  0  0  0  0  0
  160.9000  207.7280  156.0030 C   0  0  0  0  0  3  0  0  0  0  0  0
  161.2360  207.4380  153.2210 C   0  0  0  0  0  0  0  0  0  0  0  0
  161.7950  209.7930  151.5210 C   0  0  2  0  0  3  0  0  0  0  0  0
  159.5420  212.4850  151.6420 O   0  0  0  0  0  0  0  0  0  0  0  0
  161.2290  210.9970  150.9170 N   0  0  0  0  0  0  0  0  0  0  0  0
  162.0950  212.7110  147.7790 C   0  0  0  0  0  2  0  0  0  0  0  0
  163.5660  208.3670  148.9660 C   0  0  0  0  0  1  0  0  0  0  0  0
  161.0580  208.8540  155.1980 C   0  0  0  0  0  3  0  0  0  0  0  0
  161.2330  208.7240  153.8150 C   0  0  0  0  0  0  0  0  0  0  0  0
  162.2400  209.0380  148.6440 C   0  0  2  0  0  3  0  0  0  0  0  0
  160.4870  204.5710  149.5630 C   0  0  0  0  0  3  0  0  0  0  0  0
  160.2480  202.2420  149.7540 O   0  0  0  0  0  1  0  0  0  0  0  0
  160.8300  203.4370  150.1540 C   0  0  0  0  0  3  0  0  0  0  0  0
  1  5  1  6  0  0  0
  1 19  1  0  0  0  0
  2 13  1  0  0  0  0
  4 20  1  0  0  0  0
  4  1  1  0  0  0  0
  6  8  2  0  0  0  0
  7  9  1  0  0  0  0
  8 12  1  0  0  0  0
  8 11  1  0  0  0  0
  9 22  1  0  0  0  0
 10  3  1  0  0  0  0
 11  5  1  0  0  0  0
 12  4  1  0  0  0  0
 13 18  2  0  0  0  0
 14  9  1  0  0  0  0
 15 23  1  0  0  0  0
 15  7  1  0  0  0  0
 16  2  1  0  0  0  0
 17  3  1  0  0  0  0
 17 26  1  0  0  0  0
 19 26  1  0  0  0  0
 19  2  2  0  0  0  0
 20 17  1  0  0  0  0
 21 10  2  0  0  0  0
 22 20  1  0  0  0  0
 22 10  1  0  0  0  0
 23 14  1  0  0  0  0
 25 18  1  0  0  0  0
 26 25  2  0  0  0  0
 27  7  1  0  0  0  0
 27 24  1  0  0  0  0
 27 12  1  0  0  0  0
 28 11  1  0  0  0  0
 28 30  2  0  0  0  0
 29 30  1  0  0  0  0
M  END
>  <MODEL>
7

>  <REMARK>
 VINA RESULT:      -3.5      2.246      7.530
  Name = 
  1 active torsions:
  status: ('A' for Active; 'I' for Inactive)
    1  A    between atoms: C_11  and  C_28
                            x       y       z     vdW  Elec       q    Type
                         _______ _______ _______ _____ _____    ______ ____

>  <TORSDO>
F 1

$$$$
