=
 OpenBabel11122414143D

 28 32  0  0  1  0  0  0  0  0999 V2000
  161.2160  209.6560  156.0200 C   0  0  0  0  0  0  0  0  0  0  0  0
  162.6360  210.1930  153.3920 F   0  0  0  0  0  0  0  0  0  0  0  0
  156.8050  213.4960  153.7590 C   0  0  0  0  0  1  0  0  0  0  0  0
  160.4420  206.9620  155.8400 C   0  0  0  0  0  3  0  0  0  0  0  0
  158.9240  213.1220  152.5070 C   0  0  2  0  0  3  0  0  0  0  0  0
  161.6860  211.0690  156.2010 C   0  0  0  0  0  2  0  0  0  0  0  0
  162.3000  208.1840  152.2350 C   0  0  0  0  0  1  0  0  0  0  0  0
  162.0060  209.6720  152.2760 C   0  0  1  0  0  0  0  0  0  0  0  0
  161.7130  210.3830  150.0710 C   0  0  2  0  0  3  0  0  0  0  0  0
  160.4510  209.8640  152.3870 C   0  0  2  0  0  3  0  0  0  0  0  0
  160.1660  213.9600  156.5190 O   0  0  0  0  0  0  0  0  0  0  0  0
  159.9310  211.5960  153.9780 C   0  0  1  0  0  3  0  0  0  0  0  0
  160.6930  211.4620  150.3890 C   0  0  0  0  0  2  0  0  0  0  0  0
  162.6130  210.2860  151.1450 O   0  0  0  0  0  0  0  0  0  0  0  0
  159.8990  212.7330  156.6060 C   0  0  0  0  0  0  0  0  0  0  0  0
  160.4270  209.2170  154.9180 C   0  0  0  0  0  0  0  0  0  0  0  0
  158.3070  213.3310  153.8780 C   0  0  2  0  0  3  0  0  0  0  0  0
  162.4350  210.7420  148.8650 N   0  0  0  0  0  1  0  0  0  0  0  0
  158.7460  212.2200  156.0080 O   0  0  0  0  0  0  0  0  0  0  0  0
  160.0480  207.8690  154.8550 C   0  0  0  0  0  3  0  0  0  0  0  0
  161.6050  208.7320  156.9990 C   0  0  0  0  0  3  0  0  0  0  0  0
  161.2200  207.3930  156.9120 C   0  0  0  0  0  3  0  0  0  0  0  0
  160.8650  211.8020  157.2580 C   0  0  0  0  0  2  0  0  0  0  0  0
  160.0710  212.2280  152.6600 N   0  0  1  0  0  0  0  0  0  0  0  0
  158.6270  212.0510  154.5950 C   0  0  2  0  0  3  0  0  0  0  0  0
  159.9610  211.1360  151.6930 C   0  0  2  0  0  3  0  0  0  0  0  0
  159.3830  214.4530  151.9410 C   0  0  0  0  0  1  0  0  0  0  0  0
  159.9200  210.0970  153.7920 C   0  0  2  0  0  3  0  0  0  0  0  0
  1  6  1  0  0  0  0
  1 21  1  0  0  0  0
  3 17  1  0  0  0  0
  4 22  1  0  0  0  0
  5 27  1  1  0  0  0
  5 24  1  0  0  0  0
  5 17  1  0  0  0  0
  6 23  1  0  0  0  0
  8  7  1  6  0  0  0
  8 10  1  0  0  0  0
  8  2  1  0  0  0  0
  9 18  1  6  0  0  0
  9 13  1  0  0  0  0
  9 14  1  0  0  0  0
 10 28  1  0  0  0  0
 11 15  2  0  0  0  0
 12 25  1  0  0  0  0
 13 26  1  0  0  0  0
 14  8  1  0  0  0  0
 15 23  1  0  0  0  0
 16  1  2  0  0  0  0
 17 25  1  0  0  0  0
 19 15  1  0  0  0  0
 20 16  1  0  0  0  0
 20  4  2  0  0  0  0
 22 21  2  0  0  0  0
 24 12  1  0  0  0  0
 25 19  1  0  0  0  0
 26 10  1  0  0  0  0
 26 24  1  0  0  0  0
 28 12  1  0  0  0  0
 28 16  1  0  0  0  0
M  END
>  <MODEL>
1

>  <REMARK>
 VINA RESULT:      -3.7      0.000      0.000
  Name = 
  0 active torsions:
  status: ('A' for Active; 'I' for Inactive)
                            x       y       z     vdW  Elec       q    Type
                         _______ _______ _______ _____ _____    ______ ____

>  <TORSDO>
F 0

$$$$
=
 OpenBabel11122414143D

 28 32  0  0  1  0  0  0  0  0999 V2000
  160.4500  211.1420  151.5800 C   0  0  0  0  0  0  0  0  0  0  0  0
  159.7750  208.1880  151.4080 F   0  0  0  0  0  0  0  0  0  0  0  0
  162.6840  209.7110  157.2610 C   0  0  0  0  0  1  0  0  0  0  0  0
  162.5150  211.4790  149.7050 C   0  0  0  0  0  3  0  0  0  0  0  0
  161.5200  207.9930  155.8870 C   0  0  2  0  0  3  0  0  0  0  0  0
  159.2910  211.0310  152.5250 C   0  0  0  0  0  2  0  0  0  0  0  0
  161.4090  207.3970  149.9300 C   0  0  0  0  0  1  0  0  0  0  0  0
  160.8690  207.3450  151.3470 C   0  0  1  0  0  0  0  0  0  0  0  0
  161.3680  205.2320  152.2040 C   0  0  2  0  0  3  0  0  0  0  0  0
  161.9960  207.8420  152.3220 C   0  0  2  0  0  3  0  0  0  0  0  0
  158.9410  211.4110  155.7660 O   0  0  0  0  0  0  0  0  0  0  0  0
  161.0730  209.3080  153.9950 C   0  0  1  0  0  3  0  0  0  0  0  0
  161.5470  205.6850  153.6430 C   0  0  0  0  0  2  0  0  0  0  0  0
  160.3840  206.0320  151.6010 O   0  0  0  0  0  0  0  0  0  0  0  0
  159.7650  211.7040  154.8600 C   0  0  0  0  0  0  0  0  0  0  0  0
  161.6290  210.3460  151.6700 C   0  0  0  0  0  0  0  0  0  0  0  0
  161.5200  209.4460  156.3270 C   0  0  2  0  0  3  0  0  0  0  0  0
  160.9430  203.8450  152.1840 N   0  0  0  0  0  1  0  0  0  0  0  0
  161.1310  211.4960  155.0560 O   0  0  0  0  0  0  0  0  0  0  0  0
  162.6470  210.5380  150.7260 C   0  0  0  0  0  3  0  0  0  0  0  0
  160.3340  212.0800  150.5460 C   0  0  0  0  0  3  0  0  0  0  0  0
  161.3590  212.2500  149.6140 C   0  0  0  0  0  3  0  0  0  0  0  0
  159.2770  212.1770  153.5310 C   0  0  0  0  0  2  0  0  0  0  0  0
  161.0090  207.9380  154.5180 N   0  0  1  0  0  0  0  0  0  0  0  0
  161.7170  210.1930  155.0390 C   0  0  2  0  0  3  0  0  0  0  0  0
  161.9350  207.1630  153.6910 C   0  0  2  0  0  3  0  0  0  0  0  0
  160.6240  207.1790  156.8020 C   0  0  0  0  0  1  0  0  0  0  0  0
  161.9060  209.3020  152.7350 C   0  0  2  0  0  3  0  0  0  0  0  0
  1 16  1  0  0  0  0
  1  6  1  0  0  0  0
  4 20  1  0  0  0  0
  5 17  1  0  0  0  0
  5 27  1  1  0  0  0
  6 23  1  0  0  0  0
  8  7  1  6  0  0  0
  8  2  1  0  0  0  0
  8 14  1  0  0  0  0
  8 10  1  0  0  0  0
  9 18  1  1  0  0  0
  9 13  1  0  0  0  0
 10 28  1  0  0  0  0
 10 26  1  0  0  0  0
 12 24  1  0  0  0  0
 12 25  1  0  0  0  0
 13 26  1  0  0  0  0
 14  9  1  0  0  0  0
 15 19  1  0  0  0  0
 15 11  2  0  0  0  0
 16 28  1  0  0  0  0
 17  3  1  0  0  0  0
 20 16  2  0  0  0  0
 21  1  2  0  0  0  0
 22  4  2  0  0  0  0
 22 21  1  0  0  0  0
 23 15  1  0  0  0  0
 24  5  1  0  0  0  0
 25 19  1  0  0  0  0
 25 17  1  0  0  0  0
 26 24  1  0  0  0  0
 28 12  1  0  0  0  0
M  END
>  <MODEL>
2

>  <REMARK>
 VINA RESULT:      -3.6      2.528      5.345
  Name = 
  0 active torsions:
  status: ('A' for Active; 'I' for Inactive)
                            x       y       z     vdW  Elec       q    Type
                         _______ _______ _______ _____ _____    ______ ____

>  <TORSDO>
F 0

$$$$
=
 OpenBabel11122414143D

 28 32  0  0  1  0  0  0  0  0999 V2000
  160.9640  208.9090  153.3060 C   0  0  0  0  0  0  0  0  0  0  0  0
  158.3940  210.4730  152.9050 F   0  0  0  0  0  0  0  0  0  0  0  0
  163.1750  212.4600  148.6360 C   0  0  0  0  0  1  0  0  0  0  0  0
  161.9060  209.7740  155.8070 C   0  0  0  0  0  3  0  0  0  0  0  0
  160.7870  212.6100  149.3210 C   0  0  2  0  0  3  0  0  0  0  0  0
  160.4560  208.3490  152.0100 C   0  0  0  0  0  2  0  0  0  0  0  0
  158.3930  211.8980  154.7630 C   0  0  0  0  0  1  0  0  0  0  0  0
  158.4690  211.8100  153.2500 C   0  0  1  0  0  0  0  0  0  0  0  0
  157.5620  213.7830  152.3920 C   0  0  2  0  0  3  0  0  0  0  0  0
  159.8420  212.4160  152.7890 C   0  0  2  0  0  3  0  0  0  0  0  0
  161.5390  208.4130  148.9130 O   0  0  0  0  0  0  0  0  0  0  0  0
  160.8300  211.0480  151.0710 C   0  0  1  0  0  3  0  0  0  0  0  0
  158.4550  213.8450  151.1650 C   0  0  0  0  0  2  0  0  0  0  0  0
  157.3150  212.4350  152.7000 O   0  0  0  0  0  0  0  0  0  0  0  0
  161.9770  208.6200  150.0760 C   0  0  0  0  0  0  0  0  0  0  0  0
  161.1730  210.2980  153.5440 C   0  0  0  0  0  0  0  0  0  0  0  0
  161.9550  211.6730  149.0710 C   0  0  2  0  0  3  0  0  0  0  0  0
  156.3070  214.4530  152.1100 N   0  0  0  0  0  1  0  0  0  0  0  0
  162.7530  209.7480  150.3450 O   0  0  0  0  0  0  0  0  0  0  0  0
  161.6500  210.7040  154.7980 C   0  0  0  0  0  3  0  0  0  0  0  0
  161.2240  207.9900  154.3310 C   0  0  0  0  0  3  0  0  0  0  0  0
  161.6930  208.4180  155.5740 C   0  0  0  0  0  3  0  0  0  0  0  0
  161.5790  207.7170  151.1950 C   0  0  0  0  0  2  0  0  0  0  0  0
  159.9880  212.0530  150.4120 N   0  0  1  0  0  0  0  0  0  0  0  0
  162.1960  211.0610  150.4210 C   0  0  2  0  0  3  0  0  0  0  0  0
  159.7610  213.0900  151.4180 C   0  0  2  0  0  3  0  0  0  0  0  0
  159.9390  212.7180  148.0670 C   0  0  0  0  0  1  0  0  0  0  0  0
  160.9490  211.4070  152.5340 C   0  0  2  0  0  3  0  0  0  0  0  0
  1 16  2  0  0  0  0
  1 21  1  0  0  0  0
  2  8  1  0  0  0  0
  3 17  1  0  0  0  0
  5 27  1  6  0  0  0
  5 24  1  0  0  0  0
  6  1  1  0  0  0  0
  8  7  1  1  0  0  0
  9 18  1  6  0  0  0
  9 14  1  0  0  0  0
 10  8  1  0  0  0  0
 11 15  2  0  0  0  0
 12 28  1  0  0  0  0
 13 26  1  0  0  0  0
 13  9  1  0  0  0  0
 14  8  1  0  0  0  0
 15 19  1  0  0  0  0
 15 23  1  0  0  0  0
 16 20  1  0  0  0  0
 17  5  1  0  0  0  0
 17 25  1  0  0  0  0
 19 25  1  0  0  0  0
 20  4  2  0  0  0  0
 21 22  2  0  0  0  0
 22  4  1  0  0  0  0
 23  6  1  0  0  0  0
 24 12  1  0  0  0  0
 24 26  1  0  0  0  0
 25 12  1  0  0  0  0
 26 10  1  0  0  0  0
 28 10  1  0  0  0  0
 28 16  1  0  0  0  0
M  END
>  <MODEL>
3

>  <REMARK>
 VINA RESULT:      -3.5      2.098      5.164
  Name = 
  0 active torsions:
  status: ('A' for Active; 'I' for Inactive)
                            x       y       z     vdW  Elec       q    Type
                         _______ _______ _______ _____ _____    ______ ____

>  <TORSDO>
F 0

$$$$
=
 OpenBabel11122414143D

 28 32  0  0  1  0  0  0  0  0999 V2000
  161.0880  211.4430  150.7900 C   0  0  0  0  0  0  0  0  0  0  0  0
  162.3740  210.7040  153.4380 F   0  0  0  0  0  0  0  0  0  0  0  0
  160.0810  205.2810  150.2180 C   0  0  0  0  0  1  0  0  0  0  0  0
  158.7500  212.8150  151.5260 C   0  0  0  0  0  3  0  0  0  0  0  0
  161.3870  206.1790  152.1370 C   0  0  2  0  0  3  0  0  0  0  0  0
  162.3680  210.7970  150.3470 C   0  0  0  0  0  2  0  0  0  0  0  0
  160.7600  211.4120  154.9800 C   0  0  0  0  0  1  0  0  0  0  0  0
  161.4980  210.2230  154.3940 C   0  0  1  0  0  0  0  0  0  0  0  0
  161.6140  208.5880  156.0560 C   0  0  2  0  0  3  0  0  0  0  0  0
  160.4430  209.2640  153.7340 C   0  0  2  0  0  3  0  0  0  0  0  0
  163.0910  208.0600  148.6870 O   0  0  0  0  0  0  0  0  0  0  0  0
  161.2490  208.4620  151.6110 C   0  0  1  0  0  3  0  0  0  0  0  0
  161.5500  207.4000  155.1120 C   0  0  0  0  0  2  0  0  0  0  0  0
  162.2960  209.6340  155.4140 O   0  0  0  0  0  0  0  0  0  0  0  0
  162.1000  208.8080  148.8990 C   0  0  0  0  0  0  0  0  0  0  0  0
  160.1430  210.8210  151.6570 C   0  0  0  0  0  0  0  0  0  0  0  0
  161.1260  206.2920  150.6470 C   0  0  2  0  0  3  0  0  0  0  0  0
  162.3310  208.2100  157.2600 N   0  0  0  0  0  1  0  0  0  0  0  0
  160.8590  208.2570  149.2200 O   0  0  0  0  0  0  0  0  0  0  0  0
  158.9820  211.5240  152.0040 C   0  0  0  0  0  3  0  0  0  0  0  0
  160.8400  212.7400  150.3220 C   0  0  0  0  0  3  0  0  0  0  0  0
  159.6790  213.4230  150.6860 C   0  0  0  0  0  3  0  0  0  0  0  0
  162.2710  210.2900  148.9120 C   0  0  0  0  0  2  0  0  0  0  0  0
  161.6930  207.5170  152.6430 N   0  0  1  0  0  0  0  0  0  0  0  0
  160.5820  207.6840  150.4990 C   0  0  2  0  0  3  0  0  0  0  0  0
  160.8530  207.7930  153.8090 C   0  0  2  0  0  3  0  0  0  0  0  0
  162.5660  205.2560  152.3850 C   0  0  0  0  0  1  0  0  0  0  0  0
  160.2640  209.4240  152.2330 C   0  0  2  0  0  3  0  0  0  0  0  0
  1 16  1  0  0  0  0
  2  8  1  0  0  0  0
  3 17  1  0  0  0  0
  4 20  1  0  0  0  0
  5 27  1  6  0  0  0
  5 24  1  0  0  0  0
  6  1  1  0  0  0  0
  8  7  1  1  0  0  0
  8 14  1  0  0  0  0
  9 18  1  1  0  0  0
 10 26  1  0  0  0  0
 10  8  1  0  0  0  0
 11 15  2  0  0  0  0
 12 28  1  0  0  0  0
 12 24  1  0  0  0  0
 13  9  1  0  0  0  0
 14  9  1  0  0  0  0
 15 23  1  0  0  0  0
 15 19  1  0  0  0  0
 16 20  2  0  0  0  0
 16 28  1  0  0  0  0
 17  5  1  0  0  0  0
 19 25  1  0  0  0  0
 21 22  1  0  0  0  0
 21  1  2  0  0  0  0
 22  4  2  0  0  0  0
 23  6  1  0  0  0  0
 24 26  1  0  0  0  0
 25 17  1  0  0  0  0
 25 12  1  0  0  0  0
 26 13  1  0  0  0  0
 28 10  1  0  0  0  0
M  END
>  <MODEL>
4

>  <REMARK>
 VINA RESULT:      -3.2      2.522      6.632
  Name = 
  0 active torsions:
  status: ('A' for Active; 'I' for Inactive)
                            x       y       z     vdW  Elec       q    Type
                         _______ _______ _______ _____ _____    ______ ____

>  <TORSDO>
F 0

$$$$
=
 OpenBabel11122414143D

 28 32  0  0  1  0  0  0  0  0999 V2000
  160.9790  209.4320  155.0590 C   0  0  0  0  0  0  0  0  0  0  0  0
  158.1190  210.4050  155.3570 F   0  0  0  0  0  0  0  0  0  0  0  0
  161.1390  213.2250  150.0680 C   0  0  0  0  0  1  0  0  0  0  0  0
  162.3140  210.5530  157.2610 C   0  0  0  0  0  3  0  0  0  0  0  0
  159.0240  212.8880  151.3370 C   0  0  2  0  0  3  0  0  0  0  0  0
  160.2920  208.7380  153.9200 C   0  0  0  0  0  2  0  0  0  0  0  0
  158.2840  211.8540  157.1890 C   0  0  0  0  0  1  0  0  0  0  0  0
  157.9940  211.7380  155.7040 C   0  0  1  0  0  0  0  0  0  0  0  0
  156.5030  213.4480  155.1510 C   0  0  2  0  0  3  0  0  0  0  0  0
  159.0460  212.6060  154.9260 C   0  0  2  0  0  3  0  0  0  0  0  0
  160.5220  208.9340  150.6520 O   0  0  0  0  0  0  0  0  0  0  0  0
  159.8370  211.4250  152.9820 C   0  0  1  0  0  3  0  0  0  0  0  0
  157.0240  213.6580  153.7400 C   0  0  0  0  0  2  0  0  0  0  0  0
  156.6330  212.0880  155.4780 O   0  0  0  0  0  0  0  0  0  0  0  0
  161.1840  209.2640  151.6710 C   0  0  0  0  0  0  0  0  0  0  0  0
  160.9410  210.8410  155.2690 C   0  0  0  0  0  0  0  0  0  0  0  0
  160.2630  212.2120  150.7790 C   0  0  2  0  0  3  0  0  0  0  0  0
  155.1050  213.8280  155.2110 N   0  0  0  0  0  1  0  0  0  0  0  0
  161.7460  210.5380  151.7630 O   0  0  0  0  0  0  0  0  0  0  0  0
  161.6210  211.3760  156.3720 C   0  0  0  0  0  3  0  0  0  0  0  0
  161.6770  208.6210  155.9620 C   0  0  0  0  0  3  0  0  0  0  0  0
  162.3420  209.1760  157.0570 C   0  0  0  0  0  3  0  0  0  0  0  0
  161.2820  208.3320  152.8320 C   0  0  0  0  0  2  0  0  0  0  0  0
  158.6630  212.2080  152.5810 N   0  0  1  0  0  0  0  0  0  0  0  0
  160.9600  211.7060  152.0090 C   0  0  2  0  0  3  0  0  0  0  0  0
  158.4810  213.2040  153.6370 C   0  0  2  0  0  3  0  0  0  0  0  0
  157.8850  212.7760  150.3410 C   0  0  0  0  0  1  0  0  0  0  0  0
  160.2410  211.8460  154.3760 C   0  0  2  0  0  3  0  0  0  0  0  0
  1 16  2  0  0  0  0
  1 21  1  0  0  0  0
  2  8  1  0  0  0  0
  3 17  1  0  0  0  0
  5 27  1  6  0  0  0
  5 24  1  0  0  0  0
  6  1  1  0  0  0  0
  8  7  1  1  0  0  0
  9 18  1  6  0  0  0
  9 14  1  0  0  0  0
 10  8  1  0  0  0  0
 11 15  2  0  0  0  0
 12 28  1  0  0  0  0
 13  9  1  0  0  0  0
 14  8  1  0  0  0  0
 15 19  1  0  0  0  0
 15 23  1  0  0  0  0
 16 20  1  0  0  0  0
 17  5  1  0  0  0  0
 17 25  1  0  0  0  0
 19 25  1  0  0  0  0
 20  4  2  0  0  0  0
 21 22  2  0  0  0  0
 22  4  1  0  0  0  0
 23  6  1  0  0  0  0
 24 12  1  0  0  0  0
 24 26  1  0  0  0  0
 25 12  1  0  0  0  0
 26 13  1  0  0  0  0
 26 10  1  0  0  0  0
 28 10  1  0  0  0  0
 28 16  1  0  0  0  0
M  END
>  <MODEL>
5

>  <REMARK>
 VINA RESULT:      -2.9      2.012      4.935
  Name = 
  0 active torsions:
  status: ('A' for Active; 'I' for Inactive)
                            x       y       z     vdW  Elec       q    Type
                         _______ _______ _______ _____ _____    ______ ____

>  <TORSDO>
F 0

$$$$
