=
 OpenBabel11122413093D

 31 35  0  0  1  0  0  0  0  0999 V2000
  161.8350  209.4450  156.3840 C   0  0  0  0  0  0  0  0  0  0  0  0
  161.6270  209.0230  152.8970 C   0  0  2  0  0  3  0  0  0  0  0  0
  161.3510  207.9980  151.8140 C   0  0  0  0  0  0  0  0  0  0  0  0
  160.8290  205.7170  151.1550 C   0  0  0  0  0  0  0  0  0  0  0  0
  160.7690  208.8130  154.1590 C   0  0  1  0  0  3  0  0  0  0  0  0
  160.9730  210.6590  156.5270 C   0  0  0  0  0  2  0  0  0  0  0  0
  161.0010  206.6820  152.1510 C   0  0  0  0  0  3  0  0  0  0  0  0
  160.2040  210.8700  152.0870 C   0  0  2  0  0  3  0  0  0  0  0  0
  162.7010  209.1920  157.2610 O   0  0  0  0  0  0  0  0  0  0  0  0
  161.9530  209.7150  150.0480 C   0  0  0  0  0  2  0  0  0  0  0  0
  160.4670  204.4230  151.5000 O   0  0  0  0  0  1  0  0  0  0  0  0
  159.1590  210.4380  153.1290 C   0  0  0  0  0  2  0  0  0  0  0  0
  161.5750  210.4160  152.4080 N   0  0  2  0  0  0  0  0  0  0  0  0
  161.6250  208.5240  155.3090 N   0  0  0  0  0  2  0  0  0  0  0  0
  161.0260  206.0540  149.8160 C   0  0  0  0  0  3  0  0  0  0  0  0
  159.7820  209.9610  154.4370 C   0  0  2  0  0  3  0  0  0  0  0  0
  160.4570  211.1190  155.1710 C   0  0  0  0  0  2  0  0  0  0  0  0
  162.4480  210.5500  151.2340 C   0  0  0  0  0  2  0  0  0  0  0  0
  161.5860  208.3220  150.4610 C   0  0  0  0  0  0  0  0  0  0  0  0
  161.4020  207.3540  149.4700 C   0  0  0  0  0  3  0  0  0  0  0  0
  160.1790  212.3210  151.9740 N   0  0  0  0  0  2  0  0  0  0  0  0
  158.0880  213.1760  152.5670 O   0  0  0  0  0  1  0  0  0  0  0  0
  158.8540  212.7040  151.4990 C   0  0  1  0  0  3  0  0  0  0  0  0
  157.6410  212.9550  147.9320 C   0  0  0  0  0  0  0  0  0  0  0  0
  157.5590  214.3090  150.0140 C   0  0  0  0  0  2  0  0  0  0  0  0
  160.9620  213.2810  149.2260 O   0  0  0  0  0  0  0  0  0  0  0  0
  157.0830  212.6100  146.8580 O   0  0  0  0  0  0  0  0  0  0  0  0
  156.8000  213.3400  149.1080 C   0  0  0  0  0  2  0  0  0  0  0  0
  159.7050  213.3180  149.1900 C   0  0  0  0  0  0  0  0  0  0  0  0
  158.9380  213.7720  150.4030 C   0  0  2  0  0  3  0  0  0  0  0  0
  159.0350  212.9230  148.0300 O   0  0  0  0  0  0  0  0  0  0  0  0
  1  6  1  0  0  0  0
  1  9  2  0  0  0  0
  2  3  1  6  0  0  0
  2  5  1  0  0  0  0
  3  7  1  0  0  0  0
  4 11  1  0  0  0  0
  4  7  2  0  0  0  0
  5 16  1  0  0  0  0
  5 14  1  1  0  0  0
  8 21  1  1  0  0  0
  8 13  1  0  0  0  0
  8 12  1  0  0  0  0
 10 19  1  0  0  0  0
 10 18  1  0  0  0  0
 13 18  1  6  0  0  0
 13  2  1  0  0  0  0
 14  1  1  0  0  0  0
 15  4  1  0  0  0  0
 16 12  1  6  0  0  0
 16 17  1  0  0  0  0
 17  6  1  0  0  0  0
 19  3  2  0  0  0  0
 20 15  2  0  0  0  0
 20 19  1  0  0  0  0
 23 21  1  0  0  0  0
 23 22  1  1  0  0  0
 24 31  1  0  0  0  0
 24 28  1  0  0  0  0
 25 30  1  0  0  0  0
 27 24  2  0  0  0  0
 28 25  1  0  0  0  0
 29 26  2  0  0  0  0
 29 30  1  0  0  0  0
 30 23  1  1  0  0  0
 31 29  1  0  0  0  0
M  END
>  <MODEL>
1

>  <REMARK>
 VINA RESULT:      -6.8      0.000      0.000
  Name = 
  3 active torsions:
  status: ('A' for Active; 'I' for Inactive)
    1  A    between atoms: C_5  and  N_16
    2  A    between atoms: C_5  and  C_30
    3  A    between atoms: C_10  and  N_16
                            x       y       z     vdW  Elec       q    Type
                         _______ _______ _______ _____ _____    ______ ____

>  <TORSDO>
F 3

$$$$
=
 OpenBabel11122413093D

 31 35  0  0  1  0  0  0  0  0999 V2000
  161.0060  206.2370  151.2020 C   0  0  0  0  0  0  0  0  0  0  0  0
  160.6500  209.2680  152.9540 C   0  0  2  0  0  3  0  0  0  0  0  0
  161.0520  209.9870  154.2270 C   0  0  0  0  0  0  0  0  0  0  0  0
  162.2150  210.0010  156.3620 C   0  0  0  0  0  0  0  0  0  0  0  0
  161.7600  208.3540  152.4000 C   0  0  1  0  0  3  0  0  0  0  0  0
  161.3850  206.7820  149.8620 C   0  0  0  0  0  2  0  0  0  0  0  0
  161.9110  209.3730  155.1500 C   0  0  0  0  0  3  0  0  0  0  0  0
  161.1220  211.0470  151.3090 C   0  0  2  0  0  3  0  0  0  0  0  0
  160.4830  205.0960  151.2820 O   0  0  0  0  0  0  0  0  0  0  0  0
  159.5340  211.9200  153.6040 C   0  0  0  0  0  2  0  0  0  0  0  0
  163.0780  209.3910  157.2610 O   0  0  0  0  0  1  0  0  0  0  0  0
  162.4380  210.3160  150.9930 C   0  0  0  0  0  2  0  0  0  0  0  0
  160.1000  210.1710  151.9230 N   0  0  2  0  0  0  0  0  0  0  0  0
  161.3120  206.9620  152.3970 N   0  0  0  0  0  2  0  0  0  0  0  0
  161.6460  211.2380  156.6690 C   0  0  0  0  0  3  0  0  0  0  0  0
  162.3030  208.7980  151.0300 C   0  0  2  0  0  3  0  0  0  0  0  0
  161.4190  208.3030  149.8860 C   0  0  0  0  0  2  0  0  0  0  0  0
  159.0210  210.9760  152.5110 C   0  0  0  0  0  2  0  0  0  0  0  0
  160.4510  211.2190  154.5590 C   0  0  0  0  0  0  0  0  0  0  0  0
  160.7680  211.8460  155.7690 C   0  0  0  0  0  3  0  0  0  0  0  0
  160.6010  211.6260  150.0800 N   0  0  0  0  0  2  0  0  0  0  0  0
  162.0970  211.3560  148.3050 O   0  0  0  0  0  1  0  0  0  0  0  0
  161.7270  212.2020  149.3520 C   0  0  1  0  0  3  0  0  0  0  0  0
  160.5970  213.5410  146.0070 C   0  0  0  0  0  0  0  0  0  0  0  0
  159.9180  213.7080  148.3910 C   0  0  0  0  0  2  0  0  0  0  0  0
  163.4590  214.4390  147.9590 O   0  0  0  0  0  0  0  0  0  0  0  0
  160.2550  213.5290  144.7960 O   0  0  0  0  0  0  0  0  0  0  0  0
  159.6460  213.0360  147.0460 C   0  0  0  0  0  2  0  0  0  0  0  0
  162.2990  214.0310  147.6910 C   0  0  0  0  0  0  0  0  0  0  0  0
  161.3870  213.5930  148.8050 C   0  0  2  0  0  3  0  0  0  0  0  0
  161.8780  213.9750  146.3600 O   0  0  0  0  0  0  0  0  0  0  0  0
  1  9  2  0  0  0  0
  1 14  1  0  0  0  0
  2  3  1  1  0  0  0
  3 19  2  0  0  0  0
  3  7  1  0  0  0  0
  4 15  1  0  0  0  0
  4 11  1  0  0  0  0
  5 14  1  6  0  0  0
  5  2  1  0  0  0  0
  6 17  1  0  0  0  0
  6  1  1  0  0  0  0
  7  4  2  0  0  0  0
  8 21  1  6  0  0  0
  8 13  1  0  0  0  0
 10 19  1  0  0  0  0
 12 16  1  0  0  0  0
 12  8  1  0  0  0  0
 13 18  1  1  0  0  0
 13  2  1  0  0  0  0
 16 17  1  6  0  0  0
 16  5  1  0  0  0  0
 18 10  1  0  0  0  0
 19 20  1  0  0  0  0
 20 15  2  0  0  0  0
 23 22  1  6  0  0  0
 23 21  1  0  0  0  0
 24 31  1  0  0  0  0
 24 28  1  0  0  0  0
 25 30  1  0  0  0  0
 27 24  2  0  0  0  0
 28 25  1  0  0  0  0
 29 26  2  0  0  0  0
 29 30  1  0  0  0  0
 30 23  1  6  0  0  0
 31 29  1  0  0  0  0
M  END
>  <MODEL>
2

>  <REMARK>
 VINA RESULT:      -4.9      2.089      4.841
  Name = 
  3 active torsions:
  status: ('A' for Active; 'I' for Inactive)
    1  A    between atoms: C_5  and  N_16
    2  A    between atoms: C_5  and  C_30
    3  A    between atoms: C_10  and  N_16
                            x       y       z     vdW  Elec       q    Type
                         _______ _______ _______ _____ _____    ______ ____

>  <TORSDO>
F 3

$$$$
=
 OpenBabel11122413093D

 31 35  0  0  1  0  0  0  0  0999 V2000
  161.2330  207.8840  156.3670 C   0  0  0  0  0  0  0  0  0  0  0  0
  161.5610  208.5100  152.9210 C   0  0  2  0  0  3  0  0  0  0  0  0
  161.4010  207.8760  151.5520 C   0  0  0  0  0  0  0  0  0  0  0  0
  160.8550  205.9490  150.1730 C   0  0  0  0  0  0  0  0  0  0  0  0
  160.5010  208.0360  153.9330 C   0  0  1  0  0  3  0  0  0  0  0  0
  160.4330  209.0880  156.7510 C   0  0  0  0  0  2  0  0  0  0  0  0
  160.9230  206.5630  151.4270 C   0  0  0  0  0  3  0  0  0  0  0  0
  160.3980  210.6510  152.5200 C   0  0  2  0  0  3  0  0  0  0  0  0
  161.9310  207.2990  157.2360 O   0  0  0  0  0  0  0  0  0  0  0  0
  162.3780  209.9560  150.4830 C   0  0  0  0  0  2  0  0  0  0  0  0
  160.3660  204.6560  150.0600 O   0  0  0  0  0  1  0  0  0  0  0  0
  159.1770  210.0470  153.2330 C   0  0  0  0  0  2  0  0  0  0  0  0
  161.6700  209.9830  152.8710 N   0  0  2  0  0  0  0  0  0  0  0  0
  161.1430  207.3390  155.0470 N   0  0  0  0  0  2  0  0  0  0  0  0
  161.2840  206.6360  149.0370 C   0  0  0  0  0  3  0  0  0  0  0  0
  159.5530  209.1510  154.4080 C   0  0  2  0  0  3  0  0  0  0  0  0
  160.1690  209.9710  155.5400 C   0  0  0  0  0  2  0  0  0  0  0  0
  162.7260  210.3570  151.9210 C   0  0  0  0  0  2  0  0  0  0  0  0
  161.8670  208.5500  150.4050 C   0  0  0  0  0  0  0  0  0  0  0  0
  161.7870  207.9340  149.1520 C   0  0  0  0  0  3  0  0  0  0  0  0
  160.4790  212.0670  152.8460 N   0  0  0  0  0  2  0  0  0  0  0  0
  159.5800  212.5190  154.9540 O   0  0  0  0  0  1  0  0  0  0  0  0
  159.2770  212.4160  153.5950 C   0  0  1  0  0  3  0  0  0  0  0  0
  155.7580  213.7040  153.1290 C   0  0  0  0  0  0  0  0  0  0  0  0
  157.8770  214.4530  154.1890 C   0  0  0  0  0  2  0  0  0  0  0  0
  158.4040  213.4210  150.7360 O   0  0  0  0  0  0  0  0  0  0  0  0
  154.5000  213.7030  153.1400 O   0  0  0  0  0  0  0  0  0  0  0  0
  156.5050  213.8220  154.4210 C   0  0  0  0  0  2  0  0  0  0  0  0
  157.8360  213.5610  151.8500 C   0  0  0  0  0  0  0  0  0  0  0  0
  158.6660  213.7290  153.0940 C   0  0  2  0  0  3  0  0  0  0  0  0
  156.4410  213.5420  151.9200 O   0  0  0  0  0  0  0  0  0  0  0  0
  1  6  1  0  0  0  0
  1  9  2  0  0  0  0
  2  3  1  6  0  0  0
  2  5  1  0  0  0  0
  4  7  2  0  0  0  0
  5 16  1  0  0  0  0
  5 14  1  1  0  0  0
  7  3  1  0  0  0  0
  8 21  1  1  0  0  0
  8 13  1  0  0  0  0
  8 12  1  0  0  0  0
 10 18  1  0  0  0  0
 11  4  1  0  0  0  0
 13 18  1  6  0  0  0
 13  2  1  0  0  0  0
 14  1  1  0  0  0  0
 15 20  2  0  0  0  0
 15  4  1  0  0  0  0
 16 12  1  6  0  0  0
 16 17  1  0  0  0  0
 17  6  1  0  0  0  0
 19 10  1  0  0  0  0
 19  3  2  0  0  0  0
 20 19  1  0  0  0  0
 21 23  1  0  0  0  0
 23 22  1  1  0  0  0
 24 27  2  0  0  0  0
 24 28  1  0  0  0  0
 25 28  1  0  0  0  0
 26 29  2  0  0  0  0
 29 31  1  0  0  0  0
 29 30  1  0  0  0  0
 30 23  1  1  0  0  0
 30 25  1  0  0  0  0
 31 24  1  0  0  0  0
M  END
>  <MODEL>
3

>  <REMARK>
 VINA RESULT:      -4.1      1.818      2.600
  Name = 
  3 active torsions:
  status: ('A' for Active; 'I' for Inactive)
    1  A    between atoms: C_5  and  N_16
    2  A    between atoms: C_5  and  C_30
    3  A    between atoms: C_10  and  N_16
                            x       y       z     vdW  Elec       q    Type
                         _______ _______ _______ _____ _____    ______ ____

>  <TORSDO>
F 3

$$$$
=
 OpenBabel11122413093D

 31 35  0  0  1  0  0  0  0  0999 V2000
  161.8230  202.5300  151.5490 C   0  0  0  0  0  0  0  0  0  0  0  0
  161.8330  204.4680  148.6130 C   0  0  2  0  0  3  0  0  0  0  0  0
  161.4570  204.4460  147.1440 C   0  0  0  0  0  0  0  0  0  0  0  0
  160.5610  203.2670  145.2160 C   0  0  0  0  0  0  0  0  0  0  0  0
  160.8470  203.6850  149.5010 C   0  0  1  0  0  3  0  0  0  0  0  0
  161.2030  203.5200  152.4840 C   0  0  0  0  0  2  0  0  0  0  0  0
  160.8310  203.3220  146.5860 C   0  0  0  0  0  3  0  0  0  0  0  0
  160.8680  206.6490  149.2520 C   0  0  2  0  0  3  0  0  0  0  0  0
  162.5460  201.6090  152.0110 O   0  0  0  0  0  0  0  0  0  0  0  0
  162.5270  206.7250  146.8450 C   0  0  0  0  0  2  0  0  0  0  0  0
  159.9270  202.1570  144.6780 O   0  0  0  0  0  1  0  0  0  0  0  0
  159.6760  205.8760  149.8400 C   0  0  0  0  0  2  0  0  0  0  0  0
  162.0930  205.8280  149.1280 N   0  0  2  0  0  0  0  0  0  0  0  0
  161.5310  202.5670  150.1490 N   0  0  0  0  0  2  0  0  0  0  0  0
  160.9330  204.3280  144.3890 C   0  0  0  0  0  3  0  0  0  0  0  0
  160.0810  204.5650  150.5040 C   0  0  2  0  0  3  0  0  0  0  0  0
  160.9030  204.8270  151.7660 C   0  0  0  0  0  2  0  0  0  0  0  0
  163.0720  206.4950  148.2590 C   0  0  0  0  0  2  0  0  0  0  0  0
  161.8640  205.4980  146.2970 C   0  0  0  0  0  0  0  0  0  0  0  0
  161.5810  205.4410  144.9290 C   0  0  0  0  0  3  0  0  0  0  0  0
  161.1350  207.8080  150.0910 N   0  0  0  0  0  2  0  0  0  0  0  0
  162.7050  207.4790  151.7890 O   0  0  0  0  0  1  0  0  0  0  0  0
  161.3590  207.3270  151.4490 C   0  0  1  0  0  3  0  0  0  0  0  0
  161.9880  209.9070  154.1350 C   0  0  0  0  0  0  0  0  0  0  0  0
  160.4560  209.5800  152.2050 C   0  0  0  0  0  2  0  0  0  0  0  0
  160.4690  206.6770  154.4040 O   0  0  0  0  0  0  0  0  0  0  0  0
  162.6320  210.7030  154.8650 O   0  0  0  0  0  0  0  0  0  0  0  0
  161.7270  210.2650  152.7050 C   0  0  0  0  0  2  0  0  0  0  0  0
  160.8310  207.7670  153.8910 C   0  0  0  0  0  0  0  0  0  0  0  0
  160.4780  208.0700  152.4590 C   0  0  2  0  0  3  0  0  0  0  0  0
  161.5700  208.6770  154.6510 O   0  0  0  0  0  0  0  0  0  0  0  0
  1  9  2  0  0  0  0
  1  6  1  0  0  0  0
  2  3  1  6  0  0  0
  2 13  1  0  0  0  0
  2  5  1  0  0  0  0
  4  7  2  0  0  0  0
  5 14  1  1  0  0  0
  5 16  1  0  0  0  0
  7  3  1  0  0  0  0
  8 12  1  0  0  0  0
  8 21  1  1  0  0  0
 10 18  1  0  0  0  0
 11  4  1  0  0  0  0
 13 18  1  6  0  0  0
 13  8  1  0  0  0  0
 14  1  1  0  0  0  0
 15 20  2  0  0  0  0
 15  4  1  0  0  0  0
 16 12  1  6  0  0  0
 16 17  1  0  0  0  0
 17  6  1  0  0  0  0
 19 10  1  0  0  0  0
 19  3  2  0  0  0  0
 20 19  1  0  0  0  0
 21 23  1  0  0  0  0
 23 22  1  1  0  0  0
 24 31  1  0  0  0  0
 24 27  2  0  0  0  0
 25 30  1  0  0  0  0
 25 28  1  0  0  0  0
 28 24  1  0  0  0  0
 29 26  2  0  0  0  0
 29 31  1  0  0  0  0
 30 23  1  6  0  0  0
 30 29  1  0  0  0  0
M  END
>  <MODEL>
4

>  <REMARK>
 VINA RESULT:      -3.9      4.074      6.841
  Name = 
  3 active torsions:
  status: ('A' for Active; 'I' for Inactive)
    1  A    between atoms: C_5  and  N_16
    2  A    between atoms: C_5  and  C_30
    3  A    between atoms: C_10  and  N_16
                            x       y       z     vdW  Elec       q    Type
                         _______ _______ _______ _____ _____    ______ ____

>  <TORSDO>
F 3

$$$$
