=
 OpenBabel11122412403D

 30 35  0  0  1  0  0  0  0  0999 V2000
  161.4830  208.5220  150.9950 C   0  0  0  0  0  0  0  0  0  0  0  0
  161.4360  206.5490  149.4320 C   0  0  0  0  0  0  0  0  0  0  0  0
  160.6460  206.0190  154.2660 N   0  0  0  0  0  2  0  0  0  0  0  0
  161.3260  209.0220  152.3060 C   0  0  0  0  0  0  0  0  0  0  0  0
  161.8840  209.4360  149.9660 N   0  0  0  0  0  0  0  0  0  0  0  0
  159.8140  212.0410  151.1230 Cl  0  0  0  0  0  0  0  0  0  0  0  0
  159.9380  210.6610  154.4340 N   0  0  1  0  0  0  0  0  0  0  0  0
  161.4460  211.3720  151.3950 C   0  0  2  0  0  3  0  0  0  0  0  0
  159.9160  209.3860  155.1810 C   0  0  2  0  0  3  0  0  0  0  0  0
  160.7040  206.9950  155.3020 C   0  0  0  0  0  0  0  0  0  0  0  0
  161.9270  210.7270  150.1260 C   0  0  0  0  0  0  0  0  0  0  0  0
  161.4260  210.4460  152.5320 N   0  0  0  0  0  0  0  0  0  0  0  0
  161.2530  205.1760  149.2650 C   0  0  0  0  0  3  0  0  0  0  0  0
  159.9420  209.7190  156.6540 C   0  0  0  0  0  2  0  0  0  0  0  0
  159.5610  211.7060  155.3810 C   0  0  0  0  0  2  0  0  0  0  0  0
  161.7410  207.3330  148.2000 C   0  0  0  0  0  1  0  0  0  0  0  0
  160.8920  206.7750  153.0900 C   0  0  0  0  0  0  0  0  0  0  0  0
  160.9520  204.3720  150.3600 C   0  0  0  0  0  3  0  0  0  0  0  0
  161.3140  207.1280  150.7240 C   0  0  0  0  0  0  0  0  0  0  0  0
  161.0640  208.1170  153.3420 C   0  0  0  0  0  0  0  0  0  0  0  0
  160.5550  206.6960  156.5160 O   0  0  0  0  0  0  0  0  0  0  0  0
  161.0140  208.3790  154.8110 C   0  0  1  0  0  3  0  0  0  0  0  0
  159.2750  211.0640  156.7240 C   0  0  0  0  0  2  0  0  0  0  0  0
  162.3210  210.8060  154.6940 O   0  0  0  0  0  1  0  0  0  0  0  0
  160.8360  204.9200  151.5950 N   0  0  0  0  0  0  0  0  0  0  0  0
  161.0020  206.2530  151.8050 C   0  0  0  0  0  0  0  0  0  0  0  0
  161.2340  211.0550  153.8480 C   0  0  2  0  0  3  0  0  0  0  0  0
  162.3710  211.5510  149.0900 O   0  0  0  0  0  0  0  0  0  0  0  0
  161.2600  213.3840  148.0180 C   0  0  0  0  0  1  0  0  0  0  0  0
  161.5460  211.8970  147.9870 C   0  0  0  0  0  2  0  0  0  0  0  0
  1  4  1  0  0  0  0
  2 19  1  0  0  0  0
  3 10  1  0  0  0  0
  4 12  1  0  0  0  0
  4 20  2  0  0  0  0
  5 11  2  0  0  0  0
  5  1  1  0  0  0  0
  7  9  1  0  0  0  0
  7 15  1  1  0  0  0
  8  6  1  6  0  0  0
  8 12  1  0  0  0  0
  9 14  1  1  0  0  0
 10 21  2  0  0  0  0
 11  8  1  0  0  0  0
 12 27  1  0  0  0  0
 13  2  2  0  0  0  0
 13 18  1  0  0  0  0
 14 23  1  0  0  0  0
 15 23  1  0  0  0  0
 16  2  1  0  0  0  0
 17 20  1  0  0  0  0
 17  3  1  0  0  0  0
 18 25  2  0  0  0  0
 19  1  2  0  0  0  0
 19 26  1  0  0  0  0
 22 20  1  6  0  0  0
 22  9  1  0  0  0  0
 22 10  1  0  0  0  0
 25 26  1  0  0  0  0
 26 17  2  0  0  0  0
 27  7  1  0  0  0  0
 27 24  1  1  0  0  0
 28 11  1  0  0  0  0
 30 29  1  0  0  0  0
 30 28  1  0  0  0  0
M  END
>  <MODEL>
1

>  <REMARK>
 VINA RESULT:      -7.4      0.000      0.000
  Name = 
  2 active torsions:
  status: ('A' for Active; 'I' for Inactive)
    1  A    between atoms: C_11  and  O_28
    2  A    between atoms: O_28  and  C_30
                            x       y       z     vdW  Elec       q    Type
                         _______ _______ _______ _____ _____    ______ ____

>  <TORSDO>
F 2

$$$$
=
 OpenBabel11122412403D

 30 35  0  0  1  0  0  0  0  0999 V2000
  161.3460  208.0170  150.9600 C   0  0  0  0  0  0  0  0  0  0  0  0
  161.3770  208.2930  153.4630 C   0  0  0  0  0  0  0  0  0  0  0  0
  160.6920  203.8860  151.3690 N   0  0  0  0  0  2  0  0  0  0  0  0
  161.2510  207.1560  149.8460 C   0  0  0  0  0  0  0  0  0  0  0  0
  161.4520  209.4260  150.7190 N   0  0  0  0  0  0  0  0  0  0  0  0
  163.6560  209.0500  147.9960 Cl  0  0  0  0  0  0  0  0  0  0  0  0
  162.3380  205.7670  147.3910 N   0  0  1  0  0  0  0  0  0  0  0  0
  161.9040  209.0720  148.3410 C   0  0  2  0  0  3  0  0  0  0  0  0
  161.8740  204.5390  148.0710 C   0  0  2  0  0  3  0  0  0  0  0  0
  160.5730  203.5510  149.9900 C   0  0  0  0  0  0  0  0  0  0  0  0
  161.6550  209.9420  149.5410 C   0  0  0  0  0  0  0  0  0  0  0  0
  161.4110  207.7030  148.5180 N   0  0  0  0  0  0  0  0  0  0  0  0
  161.2890  207.6950  154.7200 C   0  0  0  0  0  3  0  0  0  0  0  0
  161.5250  203.5300  147.0020 C   0  0  0  0  0  2  0  0  0  0  0  0
  162.6670  205.3860  146.0200 C   0  0  0  0  0  2  0  0  0  0  0  0
  161.5980  209.7690  153.4430 C   0  0  0  0  0  1  0  0  0  0  0  0
  160.9460  205.2820  151.3470 C   0  0  0  0  0  0  0  0  0  0  0  0
  161.0960  206.3210  154.8290 C   0  0  0  0  0  3  0  0  0  0  0  0
  161.2690  207.4970  152.2900 C   0  0  0  0  0  0  0  0  0  0  0  0
  161.0150  205.7940  150.0710 C   0  0  0  0  0  0  0  0  0  0  0  0
  160.3180  202.3800  149.6020 O   0  0  0  0  0  0  0  0  0  0  0  0
  160.7220  204.7260  149.0680 C   0  0  1  0  0  3  0  0  0  0  0  0
  162.4290  203.8980  145.8600 C   0  0  0  0  0  2  0  0  0  0  0  0
  160.0670  206.4550  147.0200 O   0  0  0  0  0  1  0  0  0  0  0  0
  160.9920  205.5580  153.7130 N   0  0  0  0  0  0  0  0  0  0  0  0
  161.0750  206.0970  152.4670 C   0  0  0  0  0  0  0  0  0  0  0  0
  161.3700  206.8770  147.3110 C   0  0  2  0  0  3  0  0  0  0  0  0
  161.7010  211.3280  149.3760 O   0  0  0  0  0  0  0  0  0  0  0  0
  163.0000  212.6520  147.8590 C   0  0  0  0  0  1  0  0  0  0  0  0
  161.6840  211.9410  148.0960 C   0  0  0  0  0  2  0  0  0  0  0  0
  1 19  1  0  0  0  0
  2 13  1  0  0  0  0
  4 20  1  0  0  0  0
  4  1  2  0  0  0  0
  5  1  1  0  0  0  0
  7 15  1  6  0  0  0
  7  9  1  0  0  0  0
  8  6  1  1  0  0  0
  8 12  1  0  0  0  0
  8 11  1  0  0  0  0
  9 14  1  6  0  0  0
  9 22  1  0  0  0  0
 10  3  1  0  0  0  0
 11  5  2  0  0  0  0
 12  4  1  0  0  0  0
 13 18  2  0  0  0  0
 16  2  1  0  0  0  0
 17  3  1  0  0  0  0
 17 26  1  0  0  0  0
 19 26  1  0  0  0  0
 19  2  2  0  0  0  0
 20 17  2  0  0  0  0
 21 10  2  0  0  0  0
 22 10  1  1  0  0  0
 22 20  1  0  0  0  0
 23 15  1  0  0  0  0
 23 14  1  0  0  0  0
 25 18  1  0  0  0  0
 26 25  2  0  0  0  0
 27 24  1  1  0  0  0
 27  7  1  0  0  0  0
 27 12  1  0  0  0  0
 28 11  1  0  0  0  0
 29 30  1  0  0  0  0
 30 28  1  0  0  0  0
M  END
>  <MODEL>
2

>  <REMARK>
 VINA RESULT:      -7.1      2.695      6.182
  Name = 
  2 active torsions:
  status: ('A' for Active; 'I' for Inactive)
    1  A    between atoms: C_11  and  O_28
    2  A    between atoms: O_28  and  C_30
                            x       y       z     vdW  Elec       q    Type
                         _______ _______ _______ _____ _____    ______ ____

>  <TORSDO>
F 2

$$$$
=
 OpenBabel11122412403D

 30 35  0  0  1  0  0  0  0  0999 V2000
  161.5760  204.3180  148.5860 C   0  0  0  0  0  0  0  0  0  0  0  0
  160.9110  201.9290  148.1490 C   0  0  0  0  0  0  0  0  0  0  0  0
  160.8110  203.8380  152.6900 N   0  0  0  0  0  2  0  0  0  0  0  0
  161.7250  205.3760  149.5090 C   0  0  0  0  0  0  0  0  0  0  0  0
  161.9730  204.5440  147.2280 N   0  0  0  0  0  0  0  0  0  0  0  0
  160.6410  207.8040  147.1160 Cl  0  0  0  0  0  0  0  0  0  0  0  0
  161.0260  208.0760  150.6730 N   0  0  1  0  0  0  0  0  0  0  0  0
  162.1410  206.9580  147.5880 C   0  0  2  0  0  3  0  0  0  0  0  0
  160.8820  207.3210  151.9360 C   0  0  2  0  0  3  0  0  0  0  0  0
  161.2150  205.1290  153.1350 C   0  0  0  0  0  0  0  0  0  0  0  0
  162.2830  205.7160  146.7530 C   0  0  0  0  0  0  0  0  0  0  0  0
  162.1260  206.6780  149.0270 N   0  0  0  0  0  0  0  0  0  0  0  0
  160.4480  200.7170  148.6630 C   0  0  0  0  0  3  0  0  0  0  0  0
  161.2030  208.2640  153.0710 C   0  0  0  0  0  2  0  0  0  0  0  0
  161.0060  209.4920  151.0300 C   0  0  0  0  0  2  0  0  0  0  0  0
  161.1590  201.9760  146.6790 C   0  0  0  0  0  1  0  0  0  0  0  0
  161.0050  203.9000  151.2860 C   0  0  0  0  0  0  0  0  0  0  0  0
  160.1790  200.5910  150.0220 C   0  0  0  0  0  3  0  0  0  0  0  0
  161.1070  203.0380  149.0170 C   0  0  0  0  0  0  0  0  0  0  0  0
  161.4640  205.1260  150.8620 C   0  0  0  0  0  0  0  0  0  0  0  0
  161.2060  205.4540  154.3520 O   0  0  0  0  0  0  0  0  0  0  0  0
  161.6980  206.0240  152.0320 C   0  0  1  0  0  3  0  0  0  0  0  0
  160.8210  209.6120  152.5290 C   0  0  0  0  0  2  0  0  0  0  0  0
  163.4040  207.7450  150.7110 O   0  0  0  0  0  1  0  0  0  0  0  0
  160.3650  201.6460  150.8540 N   0  0  0  0  0  0  0  0  0  0  0  0
  160.8110  202.8470  150.3970 C   0  0  0  0  0  0  0  0  0  0  0  0
  162.2630  207.8400  149.9060 C   0  0  2  0  0  3  0  0  0  0  0  0
  162.7060  205.8520  145.4290 O   0  0  0  0  0  0  0  0  0  0  0  0
  160.5210  205.4520  144.5290 C   0  0  0  0  0  1  0  0  0  0  0  0
  162.0110  205.2530  144.3460 C   0  0  0  0  0  2  0  0  0  0  0  0
  1 19  2  0  0  0  0
  1  4  1  0  0  0  0
  2 13  2  0  0  0  0
  2 19  1  0  0  0  0
  3 10  1  0  0  0  0
  4 20  2  0  0  0  0
  5  1  1  0  0  0  0
  7 15  1  1  0  0  0
  7  9  1  0  0  0  0
  8  6  1  6  0  0  0
  8 12  1  0  0  0  0
  9 22  1  0  0  0  0
  9 14  1  1  0  0  0
 10 21  2  0  0  0  0
 11  5  2  0  0  0  0
 11  8  1  0  0  0  0
 12  4  1  0  0  0  0
 12 27  1  0  0  0  0
 13 18  1  0  0  0  0
 15 23  1  0  0  0  0
 16  2  1  0  0  0  0
 17  3  1  0  0  0  0
 18 25  2  0  0  0  0
 19 26  1  0  0  0  0
 20 17  1  0  0  0  0
 22 20  1  6  0  0  0
 22 10  1  0  0  0  0
 23 14  1  0  0  0  0
 26 25  1  0  0  0  0
 26 17  2  0  0  0  0
 27  7  1  0  0  0  0
 27 24  1  1  0  0  0
 28 11  1  0  0  0  0
 30 29  1  0  0  0  0
 30 28  1  0  0  0  0
M  END
>  <MODEL>
3

>  <REMARK>
 VINA RESULT:      -6.4      3.014      4.973
  Name = 
  2 active torsions:
  status: ('A' for Active; 'I' for Inactive)
    1  A    between atoms: C_11  and  O_28
    2  A    between atoms: O_28  and  C_30
                            x       y       z     vdW  Elec       q    Type
                         _______ _______ _______ _____ _____    ______ ____

>  <TORSDO>
F 2

$$$$
=
 OpenBabel11122412403D

 30 35  0  0  1  0  0  0  0  0999 V2000
  161.0640  209.5560  151.6960 C   0  0  0  0  0  0  0  0  0  0  0  0
  161.6210  207.5370  150.2980 C   0  0  0  0  0  0  0  0  0  0  0  0
  160.5310  207.1290  155.0850 N   0  0  0  0  0  2  0  0  0  0  0  0
  160.6730  210.0830  152.9460 C   0  0  0  0  0  0  0  0  0  0  0  0
  161.3350  210.4750  150.6300 N   0  0  0  0  0  0  0  0  0  0  0  0
  158.6180  212.5770  151.4120 Cl  0  0  0  0  0  0  0  0  0  0  0  0
  158.7520  211.4700  154.8230 N   0  0  1  0  0  0  0  0  0  0  0  0
  160.3290  212.3340  151.8600 C   0  0  2  0  0  3  0  0  0  0  0  0
  158.9570  210.2740  155.6670 C   0  0  2  0  0  3  0  0  0  0  0  0
  160.2640  208.1510  156.0400 C   0  0  0  0  0  0  0  0  0  0  0  0
  161.0620  211.7460  150.6870 C   0  0  0  0  0  0  0  0  0  0  0  0
  160.4190  211.5000  153.0630 N   0  0  0  0  0  0  0  0  0  0  0  0
  161.7780  206.1530  150.2300 C   0  0  0  0  0  3  0  0  0  0  0  0
  158.7670  210.6920  157.1060 C   0  0  0  0  0  2  0  0  0  0  0  0
  158.0550  212.4500  155.6510 C   0  0  0  0  0  2  0  0  0  0  0  0
  161.8490  208.2960  149.0330 C   0  0  0  0  0  1  0  0  0  0  0  0
  160.7020  207.8480  153.8750 C   0  0  0  0  0  0  0  0  0  0  0  0
  161.5720  205.3690  151.3600 C   0  0  0  0  0  3  0  0  0  0  0  0
  161.2490  208.1480  151.5270 C   0  0  0  0  0  0  0  0  0  0  0  0
  160.5340  209.2050  154.0290 C   0  0  0  0  0  0  0  0  0  0  0  0
  160.0760  207.8990  157.2600 O   0  0  0  0  0  0  0  0  0  0  0  0
  160.2880  209.5370  155.4640 C   0  0  1  0  0  3  0  0  0  0  0  0
  157.8030  211.8410  157.0160 C   0  0  0  0  0  2  0  0  0  0  0  0
  161.0010  212.1940  155.2510 O   0  0  0  0  0  1  0  0  0  0  0  0
  161.2180  205.9470  152.5340 N   0  0  0  0  0  0  0  0  0  0  0  0
  161.0500  207.2910  152.6470 C   0  0  0  0  0  0  0  0  0  0  0  0
  159.9690  212.1240  154.3080 C   0  0  2  0  0  3  0  0  0  0  0  0
  161.3970  212.5880  149.6250 O   0  0  0  0  0  0  0  0  0  0  0  0
  160.6500  212.1860  147.3840 C   0  0  0  0  0  1  0  0  0  0  0  0
  161.8040  212.0890  148.3590 C   0  0  0  0  0  2  0  0  0  0  0  0
  1  4  1  0  0  0  0
  2 19  1  0  0  0  0
  3 10  1  0  0  0  0
  4 12  1  0  0  0  0
  4 20  2  0  0  0  0
  5 11  2  0  0  0  0
  5  1  1  0  0  0  0
  7 15  1  1  0  0  0
  7  9  1  0  0  0  0
  8  6  1  6  0  0  0
  8 12  1  0  0  0  0
  9 14  1  1  0  0  0
 10 21  2  0  0  0  0
 11  8  1  0  0  0  0
 12 27  1  0  0  0  0
 13  2  2  0  0  0  0
 13 18  1  0  0  0  0
 15 23  1  0  0  0  0
 16  2  1  0  0  0  0
 17 20  1  0  0  0  0
 17  3  1  0  0  0  0
 18 25  2  0  0  0  0
 19  1  2  0  0  0  0
 19 26  1  0  0  0  0
 22 20  1  6  0  0  0
 22  9  1  0  0  0  0
 22 10  1  0  0  0  0
 23 14  1  0  0  0  0
 25 26  1  0  0  0  0
 26 17  2  0  0  0  0
 27  7  1  0  0  0  0
 27 24  1  1  0  0  0
 28 11  1  0  0  0  0
 29 30  1  0  0  0  0
 30 28  1  0  0  0  0
M  END
>  <MODEL>
4

>  <REMARK>
 VINA RESULT:      -6.2      1.256      1.462
  Name = 
  2 active torsions:
  status: ('A' for Active; 'I' for Inactive)
    1  A    between atoms: C_11  and  O_28
    2  A    between atoms: O_28  and  C_30
                            x       y       z     vdW  Elec       q    Type
                         _______ _______ _______ _____ _____    ______ ____

>  <TORSDO>
F 2

$$$$
=
 OpenBabel11122412403D

 30 35  0  0  1  0  0  0  0  0999 V2000
  161.7840  208.0700  149.6230 C   0  0  0  0  0  0  0  0  0  0  0  0
  161.6080  206.1080  148.0560 C   0  0  0  0  0  0  0  0  0  0  0  0
  160.8300  205.6130  152.8950 N   0  0  0  0  0  2  0  0  0  0  0  0
  161.6660  208.5760  150.9360 C   0  0  0  0  0  0  0  0  0  0  0  0
  162.2280  208.9620  148.5920 N   0  0  0  0  0  0  0  0  0  0  0  0
  160.3220  211.6800  149.7720 Cl  0  0  0  0  0  0  0  0  0  0  0  0
  160.3940  210.2870  153.0780 N   0  0  1  0  0  0  0  0  0  0  0  0
  161.9160  210.9170  150.0290 C   0  0  2  0  0  3  0  0  0  0  0  0
  160.3040  209.0140  153.8240 C   0  0  2  0  0  3  0  0  0  0  0  0
  160.9530  206.5810  153.9330 C   0  0  0  0  0  0  0  0  0  0  0  0
  162.3470  210.2480  148.7540 C   0  0  0  0  0  0  0  0  0  0  0  0
  161.8510  209.9910  151.1640 N   0  0  0  0  0  0  0  0  0  0  0  0
  161.3450  204.7480  147.8880 C   0  0  0  0  0  3  0  0  0  0  0  0
  160.3610  209.3420  155.2970 C   0  0  0  0  0  2  0  0  0  0  0  0
  160.0850  211.3500  154.0310 C   0  0  0  0  0  2  0  0  0  0  0  0
  161.9490  206.8760  146.8230 C   0  0  0  0  0  1  0  0  0  0  0  0
  161.1090  206.3550  151.7200 C   0  0  0  0  0  0  0  0  0  0  0  0
  161.0070  203.9600  148.9840 C   0  0  0  0  0  3  0  0  0  0  0  0
  161.5320  206.6890  149.3510 C   0  0  0  0  0  0  0  0  0  0  0  0
  161.3610  207.6850  151.9720 C   0  0  0  0  0  0  0  0  0  0  0  0
  160.7970  206.2880  155.1480 O   0  0  0  0  0  0  0  0  0  0  0  0
  161.3390  207.9460  153.4420 C   0  0  1  0  0  3  0  0  0  0  0  0
  159.7740  210.7220  155.3750 C   0  0  0  0  0  2  0  0  0  0  0  0
  162.7830  210.2930  153.3190 O   0  0  0  0  0  1  0  0  0  0  0  0
  160.9330  204.5110  150.2210 N   0  0  0  0  0  0  0  0  0  0  0  0
  161.1790  205.8320  150.4320 C   0  0  0  0  0  0  0  0  0  0  0  0
  161.7050  210.6070  152.4830 C   0  0  2  0  0  3  0  0  0  0  0  0
  162.8300  211.0480  147.7160 O   0  0  0  0  0  0  0  0  0  0  0  0
  161.6360  212.9550  146.8930 C   0  0  0  0  0  1  0  0  0  0  0  0
  162.7750  212.4660  147.7620 C   0  0  0  0  0  2  0  0  0  0  0  0
  1  4  1  0  0  0  0
  2 19  1  0  0  0  0
  3 10  1  0  0  0  0
  4 12  1  0  0  0  0
  4 20  2  0  0  0  0
  5 11  2  0  0  0  0
  5  1  1  0  0  0  0
  7  9  1  0  0  0  0
  7 15  1  1  0  0  0
  8  6  1  6  0  0  0
  8 12  1  0  0  0  0
  9 14  1  1  0  0  0
 10 21  2  0  0  0  0
 11  8  1  0  0  0  0
 12 27  1  0  0  0  0
 13  2  2  0  0  0  0
 13 18  1  0  0  0  0
 14 23  1  0  0  0  0
 15 23  1  0  0  0  0
 16  2  1  0  0  0  0
 17 20  1  0  0  0  0
 17  3  1  0  0  0  0
 18 25  2  0  0  0  0
 19  1  2  0  0  0  0
 19 26  1  0  0  0  0
 22 20  1  6  0  0  0
 22  9  1  0  0  0  0
 22 10  1  0  0  0  0
 25 26  1  0  0  0  0
 26 17  2  0  0  0  0
 27  7  1  0  0  0  0
 27 24  1  1  0  0  0
 28 30  1  0  0  0  0
 28 11  1  0  0  0  0
 29 30  1  0  0  0  0
M  END
>  <MODEL>
5

>  <REMARK>
 VINA RESULT:      -6.1      1.215      1.465
  Name = 
  2 active torsions:
  status: ('A' for Active; 'I' for Inactive)
    1  A    between atoms: C_11  and  O_28
    2  A    between atoms: O_28  and  C_30
                            x       y       z     vdW  Elec       q    Type
                         _______ _______ _______ _____ _____    ______ ____

>  <TORSDO>
F 2

$$$$
=
 OpenBabel11122412403D

 30 35  0  0  1  0  0  0  0  0999 V2000
  160.9290  209.0040  152.2990 C   0  0  0  0  0  0  0  0  0  0  0  0
  162.0120  208.7840  150.0360 C   0  0  0  0  0  0  0  0  0  0  0  0
  160.0060  213.0310  151.5250 N   0  0  0  0  0  2  0  0  0  0  0  0
  160.2840  209.8260  153.2480 C   0  0  0  0  0  0  0  0  0  0  0  0
  161.0960  207.6150  152.6080 N   0  0  0  0  0  0  0  0  0  0  0  0
  161.9330  208.2060  155.9790 Cl  0  0  0  0  0  0  0  0  0  0  0  0
  160.0980  211.2880  155.8870 N   0  0  1  0  0  0  0  0  0  0  0  0
  160.4920  207.9750  154.9510 C   0  0  2  0  0  3  0  0  0  0  0  0
  159.8080  212.4630  155.0380 C   0  0  2  0  0  3  0  0  0  0  0  0
  159.2960  213.3220  152.7240 C   0  0  0  0  0  0  0  0  0  0  0  0
  160.8610  207.1050  153.7820 C   0  0  0  0  0  0  0  0  0  0  0  0
  159.9530  209.2760  154.5430 N   0  0  0  0  0  0  0  0  0  0  0  0
  162.3740  209.3920  148.8340 C   0  0  0  0  0  3  0  0  0  0  0  0
  158.9350  213.4010  155.8380 C   0  0  0  0  0  2  0  0  0  0  0  0
  159.7900  211.6800  157.2600 C   0  0  0  0  0  2  0  0  0  0  0  0
  162.3820  207.3470  150.1920 C   0  0  0  0  0  1  0  0  0  0  0  0
  160.3960  211.6770  151.6950 C   0  0  0  0  0  0  0  0  0  0  0  0
  162.0780  210.7330  148.6110 C   0  0  0  0  0  3  0  0  0  0  0  0
  161.3400  209.5380  151.0370 C   0  0  0  0  0  0  0  0  0  0  0  0
  159.9980  211.1520  152.9030 C   0  0  0  0  0  0  0  0  0  0  0  0
  158.7650  214.4440  152.9360 O   0  0  0  0  0  0  0  0  0  0  0  0
  159.1950  212.1550  153.6640 C   0  0  1  0  0  3  0  0  0  0  0  0
  159.3300  213.1240  157.2610 C   0  0  0  0  0  2  0  0  0  0  0  0
  157.9750  210.3190  155.3220 O   0  0  0  0  0  1  0  0  0  0  0  0
  161.4370  211.4560  149.5630 N   0  0  0  0  0  0  0  0  0  0  0  0
  161.0680  210.9060  150.7510 C   0  0  0  0  0  0  0  0  0  0  0  0
  159.3230  210.0660  155.6020 C   0  0  2  0  0  3  0  0  0  0  0  0
  161.0020  205.7320  153.9960 O   0  0  0  0  0  0  0  0  0  0  0  0
  160.4520  204.1530  152.2800 C   0  0  0  0  0  1  0  0  0  0  0  0
  161.5640  204.8660  153.0210 C   0  0  0  0  0  2  0  0  0  0  0  0
  1  5  1  0  0  0  0
  1  4  1  0  0  0  0
  2 16  1  0  0  0  0
  2 19  1  0  0  0  0
  3 17  1  0  0  0  0
  3 10  1  0  0  0  0
  4 12  1  0  0  0  0
  5 11  2  0  0  0  0
  7 15  1  1  0  0  0
  8  6  1  1  0  0  0
  9 14  1  1  0  0  0
  9  7  1  0  0  0  0
 10 21  2  0  0  0  0
 11 28  1  0  0  0  0
 11  8  1  0  0  0  0
 12  8  1  0  0  0  0
 12 27  1  0  0  0  0
 13  2  2  0  0  0  0
 14 23  1  0  0  0  0
 15 23  1  0  0  0  0
 17 20  1  0  0  0  0
 18 13  1  0  0  0  0
 18 25  2  0  0  0  0
 19  1  2  0  0  0  0
 20  4  2  0  0  0  0
 20 22  1  0  0  0  0
 22 10  1  6  0  0  0
 22  9  1  0  0  0  0
 25 26  1  0  0  0  0
 26 19  1  0  0  0  0
 26 17  2  0  0  0  0
 27 24  1  6  0  0  0
 27  7  1  0  0  0  0
 29 30  1  0  0  0  0
 30 28  1  0  0  0  0
M  END
>  <MODEL>
6

>  <REMARK>
 VINA RESULT:      -5.2      2.447      5.188
  Name = 
  2 active torsions:
  status: ('A' for Active; 'I' for Inactive)
    1  A    between atoms: C_11  and  O_28
    2  A    between atoms: O_28  and  C_30
                            x       y       z     vdW  Elec       q    Type
                         _______ _______ _______ _____ _____    ______ ____

>  <TORSDO>
F 2

$$$$
=
 OpenBabel11122412403D

 30 35  0  0  1  0  0  0  0  0999 V2000
  160.6200  211.1020  151.6360 C   0  0  0  0  0  0  0  0  0  0  0  0
  161.7930  208.9760  150.9710 C   0  0  0  0  0  0  0  0  0  0  0  0
  159.8090  209.5270  155.4460 N   0  0  0  0  0  2  0  0  0  0  0  0
  159.8920  211.8210  152.6090 C   0  0  0  0  0  0  0  0  0  0  0  0
  160.9490  211.7670  150.4090 N   0  0  0  0  0  0  0  0  0  0  0  0
  157.8110  213.3460  150.1310 Cl  0  0  0  0  0  0  0  0  0  0  0  0
  157.4130  213.1690  153.6930 N   0  0  1  0  0  0  0  0  0  0  0  0
  159.4060  213.6040  150.8900 C   0  0  2  0  0  3  0  0  0  0  0  0
  157.6370  212.2930  154.8620 C   0  0  2  0  0  3  0  0  0  0  0  0
  159.1780  210.6680  156.0200 C   0  0  0  0  0  0  0  0  0  0  0  0
  160.4580  212.9220  150.0610 C   0  0  0  0  0  0  0  0  0  0  0  0
  159.3820  213.1320  152.2790 N   0  0  0  0  0  0  0  0  0  0  0  0
  162.1940  207.6870  151.3220 C   0  0  0  0  0  3  0  0  0  0  0  0
  157.0820  213.0000  156.0760 C   0  0  0  0  0  2  0  0  0  0  0  0
  156.4020  214.1450  154.0910 C   0  0  0  0  0  2  0  0  0  0  0  0
  162.1490  209.4310  149.5950 C   0  0  0  0  0  1  0  0  0  0  0  0
  160.1060  209.9470  154.1240 C   0  0  0  0  0  0  0  0  0  0  0  0
  161.8920  207.1790  152.5810 C   0  0  0  0  0  3  0  0  0  0  0  0
  161.0730  209.7730  151.9030 C   0  0  0  0  0  0  0  0  0  0  0  0
  159.6800  211.2290  153.8600 C   0  0  0  0  0  0  0  0  0  0  0  0
  158.7850  210.6890  157.2160 O   0  0  0  0  0  0  0  0  0  0  0  0
  159.0870  211.8400  155.0860 C   0  0  1  0  0  3  0  0  0  0  0  0
  155.9770  213.8500  155.5150 C   0  0  0  0  0  2  0  0  0  0  0  0
  159.3660  214.4530  154.2440 O   0  0  0  0  0  1  0  0  0  0  0  0
  161.2060  207.9360  153.4740 N   0  0  0  0  0  0  0  0  0  0  0  0
  160.7920  209.1960  153.1740 C   0  0  0  0  0  0  0  0  0  0  0  0
  158.5820  213.9280  153.2100 C   0  0  2  0  0  3  0  0  0  0  0  0
  160.8600  213.5290  148.8700 O   0  0  0  0  0  0  0  0  0  0  0  0
  160.4380  212.3580  146.8220 C   0  0  0  0  0  1  0  0  0  0  0  0
  161.4850  212.8040  147.8210 C   0  0  0  0  0  2  0  0  0  0  0  0
  1 19  2  0  0  0  0
  1  4  1  0  0  0  0
  2 13  2  0  0  0  0
  2 19  1  0  0  0  0
  3 10  1  0  0  0  0
  4 20  2  0  0  0  0
  5  1  1  0  0  0  0
  7 15  1  1  0  0  0
  7  9  1  0  0  0  0
  8  6  1  6  0  0  0
  8 12  1  0  0  0  0
  9 22  1  0  0  0  0
  9 14  1  1  0  0  0
 10 21  2  0  0  0  0
 11  5  2  0  0  0  0
 11  8  1  0  0  0  0
 12  4  1  0  0  0  0
 12 27  1  0  0  0  0
 13 18  1  0  0  0  0
 15 23  1  0  0  0  0
 16  2  1  0  0  0  0
 17  3  1  0  0  0  0
 18 25  2  0  0  0  0
 19 26  1  0  0  0  0
 20 17  1  0  0  0  0
 22 20  1  6  0  0  0
 22 10  1  0  0  0  0
 23 14  1  0  0  0  0
 26 25  1  0  0  0  0
 26 17  2  0  0  0  0
 27  7  1  0  0  0  0
 27 24  1  1  0  0  0
 28 11  1  0  0  0  0
 29 30  1  0  0  0  0
 30 28  1  0  0  0  0
M  END
>  <MODEL>
7

>  <REMARK>
 VINA RESULT:      -5.2      2.478      3.428
  Name = 
  2 active torsions:
  status: ('A' for Active; 'I' for Inactive)
    1  A    between atoms: C_11  and  O_28
    2  A    between atoms: O_28  and  C_30
                            x       y       z     vdW  Elec       q    Type
                         _______ _______ _______ _____ _____    ______ ____

>  <TORSDO>
F 2

$$$$
=
 OpenBabel11122412403D

 30 35  0  0  1  0  0  0  0  0999 V2000
  161.3630  204.4240  148.9690 C   0  0  0  0  0  0  0  0  0  0  0  0
  160.5340  202.3040  150.0430 C   0  0  0  0  0  0  0  0  0  0  0  0
  161.5020  206.3300  152.7120 N   0  0  0  0  0  2  0  0  0  0  0  0
  161.7490  205.7750  149.1130 C   0  0  0  0  0  0  0  0  0  0  0  0
  161.4600  203.8290  147.6690 N   0  0  0  0  0  0  0  0  0  0  0  0
  160.2530  206.6830  145.9930 Cl  0  0  0  0  0  0  0  0  0  0  0  0
  161.4190  208.7490  148.6850 N   0  0  1  0  0  0  0  0  0  0  0  0
  161.7880  206.0040  146.6010 C   0  0  2  0  0  3  0  0  0  0  0  0
  161.5300  208.8160  150.1580 C   0  0  2  0  0  3  0  0  0  0  0  0
  162.0400  207.5810  152.2950 C   0  0  0  0  0  0  0  0  0  0  0  0
  161.7000  204.5040  146.5830 C   0  0  0  0  0  0  0  0  0  0  0  0
  162.0800  206.5410  147.9340 N   0  0  0  0  0  0  0  0  0  0  0  0
  160.1530  201.6390  151.2090 C   0  0  0  0  0  3  0  0  0  0  0  0
  162.1260  210.1580  150.5100 C   0  0  0  0  0  2  0  0  0  0  0  0
  161.5290  210.1210  148.1960 C   0  0  0  0  0  2  0  0  0  0  0  0
  160.4550  201.5210  148.7760 C   0  0  0  0  0  1  0  0  0  0  0  0
  161.3850  205.6030  151.4990 C   0  0  0  0  0  0  0  0  0  0  0  0
  160.1840  202.2990  152.4330 C   0  0  0  0  0  3  0  0  0  0  0  0
  160.9550  203.6600  150.1070 C   0  0  0  0  0  0  0  0  0  0  0  0
  161.7830  206.3280  150.3990 C   0  0  0  0  0  0  0  0  0  0  0  0
  162.3100  208.5020  153.1110 O   0  0  0  0  0  0  0  0  0  0  0  0
  162.3010  207.6650  150.8190 C   0  0  1  0  0  3  0  0  0  0  0  0
  161.6820  211.0490  149.3850 C   0  0  0  0  0  2  0  0  0  0  0  0
  163.7340  208.1350  148.5090 O   0  0  0  0  0  1  0  0  0  0  0  0
  160.5860  203.5930  152.4980 N   0  0  0  0  0  0  0  0  0  0  0  0
  160.9630  204.2820  151.3880 C   0  0  0  0  0  0  0  0  0  0  0  0
  162.4480  207.9560  147.9860 C   0  0  2  0  0  3  0  0  0  0  0  0
  161.8250  203.8470  145.3570 O   0  0  0  0  0  0  0  0  0  0  0  0
  160.3630  201.9570  145.1770 C   0  0  0  0  0  1  0  0  0  0  0  0
  160.7040  203.3360  144.6510 C   0  0  0  0  0  2  0  0  0  0  0  0
  1  4  2  0  0  0  0
  1 19  1  0  0  0  0
  2 19  2  0  0  0  0
  2 13  1  0  0  0  0
  4 20  1  0  0  0  0
  5  1  1  0  0  0  0
  7 15  1  6  0  0  0
  7  9  1  0  0  0  0
  8  6  1  1  0  0  0
  8 12  1  0  0  0  0
  9 14  1  6  0  0  0
  9 22  1  0  0  0  0
 10  3  1  0  0  0  0
 10 21  2  0  0  0  0
 11  8  1  0  0  0  0
 11  5  2  0  0  0  0
 12 27  1  0  0  0  0
 12  4  1  0  0  0  0
 13 18  2  0  0  0  0
 15 23  1  0  0  0  0
 16  2  1  0  0  0  0
 17  3  1  0  0  0  0
 18 25  1  0  0  0  0
 19 26  1  0  0  0  0
 20 17  2  0  0  0  0
 22 20  1  6  0  0  0
 22 10  1  0  0  0  0
 23 14  1  0  0  0  0
 26 17  1  0  0  0  0
 26 25  2  0  0  0  0
 27 24  1  1  0  0  0
 27  7  1  0  0  0  0
 28 11  1  0  0  0  0
 30 29  1  0  0  0  0
 30 28  1  0  0  0  0
M  END
>  <MODEL>
8

>  <REMARK>
 VINA RESULT:      -4.7      3.259      5.945
  Name = 
  2 active torsions:
  status: ('A' for Active; 'I' for Inactive)
    1  A    between atoms: C_11  and  O_28
    2  A    between atoms: O_28  and  C_30
                            x       y       z     vdW  Elec       q    Type
                         _______ _______ _______ _____ _____    ______ ____

>  <TORSDO>
F 2

$$$$
=
 OpenBabel11122412403D

 30 35  0  0  1  0  0  0  0  0999 V2000
  161.7530  207.4330  151.4430 C   0  0  0  0  0  0  0  0  0  0  0  0
  161.8500  209.9030  150.9670 C   0  0  0  0  0  0  0  0  0  0  0  0
  161.9880  206.5780  147.3350 N   0  0  0  0  0  2  0  0  0  0  0  0
  161.7150  206.1130  150.9440 C   0  0  0  0  0  0  0  0  0  0  0  0
  161.7860  207.6190  152.8630 N   0  0  0  0  0  0  0  0  0  0  0  0
  159.4500  205.0610  153.5060 Cl  0  0  0  0  0  0  0  0  0  0  0  0
  160.3930  203.4400  150.4470 N   0  0  1  0  0  0  0  0  0  0  0  0
  161.2060  205.2780  153.2710 C   0  0  2  0  0  3  0  0  0  0  0  0
  160.7520  203.7000  149.0370 C   0  0  2  0  0  3  0  0  0  0  0  0
  162.0170  205.1560  147.4140 C   0  0  0  0  0  0  0  0  0  0  0  0
  161.5920  206.6590  153.7210 C   0  0  0  0  0  0  0  0  0  0  0  0
  161.5600  205.0150  151.8720 N   0  0  0  0  0  0  0  0  0  0  0  0
  161.9240  210.9230  150.0180 C   0  0  0  0  0  3  0  0  0  0  0  0
  160.9520  202.3630  148.3620 C   0  0  0  0  0  2  0  0  0  0  0  0
  159.9720  202.0430  150.5190 C   0  0  0  0  0  2  0  0  0  0  0  0
  161.7840  210.3290  152.3960 C   0  0  0  0  0  1  0  0  0  0  0  0
  161.8800  206.9790  148.6910 C   0  0  0  0  0  0  0  0  0  0  0  0
  161.9760  210.6150  148.6620 C   0  0  0  0  0  3  0  0  0  0  0  0
  161.8280  208.5450  150.5470 C   0  0  0  0  0  0  0  0  0  0  0  0
  161.8150  205.9150  149.5620 C   0  0  0  0  0  0  0  0  0  0  0  0
  162.1330  204.4280  146.3930 O   0  0  0  0  0  0  0  0  0  0  0  0
  161.9560  204.6280  148.8180 C   0  0  1  0  0  3  0  0  0  0  0  0
  160.0470  201.4420  149.1300 C   0  0  0  0  0  2  0  0  0  0  0  0
  162.7070  203.1310  151.0110 O   0  0  0  0  0  1  0  0  0  0  0  0
  161.9560  209.3210  148.2570 N   0  0  0  0  0  0  0  0  0  0  0  0
  161.8810  208.2940  149.1460 C   0  0  0  0  0  0  0  0  0  0  0  0
  161.4680  203.6200  151.4410 C   0  0  2  0  0  3  0  0  0  0  0  0
  161.6840  206.9080  155.0910 O   0  0  0  0  0  0  0  0  0  0  0  0
  159.7140  207.3280  156.3900 C   0  0  0  0  0  1  0  0  0  0  0  0
  160.9360  207.9320  155.7290 C   0  0  0  0  0  2  0  0  0  0  0  0
  1  5  1  0  0  0  0
  2 16  1  0  0  0  0
  3 10  1  0  0  0  0
  3 17  1  0  0  0  0
  4  1  1  0  0  0  0
  4 12  1  0  0  0  0
  5 11  2  0  0  0  0
  7 15  1  6  0  0  0
  7 27  1  0  0  0  0
  8  6  1  6  0  0  0
  8 11  1  0  0  0  0
  9 14  1  1  0  0  0
  9  7  1  0  0  0  0
 11 28  1  0  0  0  0
 12  8  1  0  0  0  0
 13  2  2  0  0  0  0
 14 23  1  0  0  0  0
 17 26  2  0  0  0  0
 17 20  1  0  0  0  0
 18 13  1  0  0  0  0
 19  2  1  0  0  0  0
 19  1  2  0  0  0  0
 20  4  2  0  0  0  0
 21 10  2  0  0  0  0
 22 10  1  6  0  0  0
 22  9  1  0  0  0  0
 22 20  1  0  0  0  0
 23 15  1  0  0  0  0
 25 18  2  0  0  0  0
 25 26  1  0  0  0  0
 26 19  1  0  0  0  0
 27 24  1  6  0  0  0
 27 12  1  0  0  0  0
 28 30  1  0  0  0  0
 30 29  1  0  0  0  0
M  END
>  <MODEL>
9

>  <REMARK>
 VINA RESULT:      -4.6      2.850      7.230
  Name = 
  2 active torsions:
  status: ('A' for Active; 'I' for Inactive)
    1  A    between atoms: C_11  and  O_28
    2  A    between atoms: O_28  and  C_30
                            x       y       z     vdW  Elec       q    Type
                         _______ _______ _______ _____ _____    ______ ____

>  <TORSDO>
F 2

$$$$
