=
 OpenBabel11122414253D

 34 41  0  0  1  0  0  0  0  0999 V2000
  160.5550  208.5030  154.1060 C   0  0  0  0  0  0  0  0  0  0  0  0
  161.4390  206.0930  153.9920 C   0  0  0  0  0  3  0  0  0  0  0  0
  158.3030  213.4950  151.2930 C   0  0  0  0  0  0  0  0  0  0  0  0
  159.7920  210.8060  154.0330 C   0  0  0  0  0  0  0  0  0  0  0  0
  159.9010  211.9980  151.9160 C   0  0  0  0  0  0  0  0  0  0  0  0
  160.5090  214.4530  151.2660 C   0  0  0  0  0  1  0  0  0  0  0  0
  158.8880  213.1880  149.9500 O   0  0  0  0  0  0  0  0  0  0  0  0
  157.5870  213.6380  153.5750 C   0  0  0  0  0  2  0  0  0  0  0  0
  161.4240  207.4270  152.0430 C   0  0  0  0  0  0  0  0  0  0  0  0
  160.6510  206.3690  149.3850 C   0  0  0  0  0  2  0  0  0  0  0  0
  160.4220  210.8910  151.3210 N   0  0  0  0  0  0  0  0  0  0  0  0
  159.0350  213.2410  153.9780 C   0  0  0  0  0  2  0  0  0  0  0  0
  161.2200  208.5490  151.3150 C   0  0  0  0  0  0  0  0  0  0  0  0
  162.0670  205.2860  152.8470 C   0  0  0  0  0  3  0  0  0  0  0  0
  159.5730  211.9860  153.3020 C   0  0  0  0  0  0  0  0  0  0  0  0
  157.3480  213.7340  152.1260 N   0  0  0  0  0  0  0  0  0  0  0  0
  161.0760  205.4520  150.5390 C   0  0  2  0  0  3  0  0  0  0  0  0
  160.3310  209.6810  153.3810 C   0  0  0  0  0  0  0  0  0  0  0  0
  159.6330  213.2260  151.0980 C   0  0  2  0  0  0  0  0  0  0  0  0
  160.6490  209.7400  152.0080 C   0  0  0  0  0  0  0  0  0  0  0  0
  159.7320  209.5200  156.0850 C   0  0  0  0  0  3  0  0  0  0  0  0
  161.7350  207.3830  149.0440 C   0  0  0  0  0  2  0  0  0  0  0  0
  159.4920  210.7170  155.4000 C   0  0  0  0  0  3  0  0  0  0  0  0
  161.5740  208.6780  149.8460 C   0  0  0  0  0  2  0  0  0  0  0  0
  161.9900  206.1370  151.5680 C   0  0  1  0  0  3  0  0  0  0  0  0
  160.2530  208.4460  155.4310 N   0  0  0  0  0  0  0  0  0  0  0  0
  161.1070  207.3770  153.4190 N   0  0  0  0  0  0  0  0  0  0  0  0
  161.7200  204.3250  150.0200 O   0  0  0  0  0  0  0  0  0  0  0  0
  160.8150  203.7840  149.1000 C   0  0  0  0  0  2  0  0  0  0  0  0
  160.4530  201.7590  146.2630 N   0  0  0  0  0  2  0  0  0  0  0  0
  161.4990  203.8610  146.6940 C   0  0  0  0  0  2  0  0  0  0  0  0
  161.5450  203.0630  147.9720 C   0  0  2  0  0  3  0  0  0  0  0  0
  161.1890  202.8410  145.6280 C   0  0  0  0  0  2  0  0  0  0  0  0
  160.8940  201.7300  147.6510 C   0  0  0  0  0  2  0  0  0  0  0  0
  1 26  1  0  0  0  0
  3 16  2  0  0  0  0
  4 23  2  0  0  0  0
  5 15  2  0  0  0  0
  7 19  1  0  0  0  0
  7  3  1  0  0  0  0
  8 12  1  0  0  0  0
  9 27  1  0  0  0  0
 10 17  1  0  0  0  0
 11  5  1  0  0  0  0
 11 20  2  0  0  0  0
 13 20  1  0  0  0  0
 13  9  2  0  0  0  0
 14  2  2  0  0  0  0
 15 12  1  0  0  0  0
 15  4  1  0  0  0  0
 16  8  1  0  0  0  0
 17 28  1  6  0  0  0
 17 25  1  0  0  0  0
 18  4  1  0  0  0  0
 18  1  2  0  0  0  0
 19  6  1  1  0  0  0
 19  3  1  0  0  0  0
 19  5  1  0  0  0  0
 20 18  1  0  0  0  0
 22 10  1  0  0  0  0
 22 24  1  0  0  0  0
 23 21  1  0  0  0  0
 24 13  1  0  0  0  0
 25  9  1  0  0  0  0
 25 14  1  1  0  0  0
 26 21  2  0  0  0  0
 27  2  1  0  0  0  0
 27  1  1  0  0  0  0
 29 28  1  0  0  0  0
 30 34  1  0  0  0  0
 31 32  1  0  0  0  0
 32 29  1  1  0  0  0
 33 30  1  0  0  0  0
 33 31  1  0  0  0  0
 34 32  1  0  0  0  0
M  END
>  <MODEL>
1

>  <REMARK>
 VINA RESULT:      -8.4      0.000      0.000
  Name = 
  3 active torsions:
  status: ('A' for Active; 'I' for Inactive)
    1  A    between atoms: C_17  and  O_28
    2  A    between atoms: O_28  and  C_29
    3  A    between atoms: C_29  and  C_32
                            x       y       z     vdW  Elec       q    Type
                         _______ _______ _______ _____ _____    ______ ____

>  <TORSDO>
F 3

$$$$
=
 OpenBabel11122414253D

 34 41  0  0  1  0  0  0  0  0999 V2000
  160.9870  209.2070  152.1750 C   0  0  0  0  0  0  0  0  0  0  0  0
  161.2030  206.7660  152.9510 C   0  0  0  0  0  3  0  0  0  0  0  0
  160.5010  213.3350  147.6350 C   0  0  0  0  0  0  0  0  0  0  0  0
  160.8810  211.4600  151.2810 C   0  0  0  0  0  0  0  0  0  0  0  0
  161.5560  211.8260  148.9730 C   0  0  0  0  0  0  0  0  0  0  0  0
  162.8700  213.7330  147.7670 C   0  0  0  0  0  1  0  0  0  0  0  0
  161.1390  212.4800  146.5840 O   0  0  0  0  0  0  0  0  0  0  0  0
  159.5830  214.3810  149.5850 C   0  0  0  0  0  2  0  0  0  0  0  0
  161.7780  207.3450  150.7340 C   0  0  0  0  0  0  0  0  0  0  0  0
  161.0740  205.6540  148.4050 C   0  0  0  0  0  2  0  0  0  0  0  0
  161.8300  210.4990  148.8450 N   0  0  0  0  0  0  0  0  0  0  0  0
  160.8130  213.8400  150.3660 C   0  0  0  0  0  2  0  0  0  0  0  0
  161.9690  208.1760  149.6840 C   0  0  0  0  0  0  0  0  0  0  0  0
  161.7260  205.5090  152.2400 C   0  0  0  0  0  3  0  0  0  0  0  0
  161.0730  212.3470  150.2080 C   0  0  0  0  0  0  0  0  0  0  0  0
  159.5530  214.0380  148.1540 N   0  0  0  0  0  0  0  0  0  0  0  0
  161.0980  205.1050  149.8370 C   0  0  2  0  0  3  0  0  0  0  0  0
  161.1740  210.0950  151.1070 C   0  0  0  0  0  0  0  0  0  0  0  0
  161.7250  212.7390  147.7960 C   0  0  2  0  0  0  0  0  0  0  0  0
  161.6580  209.6230  149.8700 C   0  0  0  0  0  0  0  0  0  0  0  0
  160.2350  210.9760  153.5640 C   0  0  0  0  0  3  0  0  0  0  0  0
  162.4220  206.2380  148.0040 C   0  0  0  0  0  2  0  0  0  0  0  0
  160.4070  211.8980  152.5260 C   0  0  0  0  0  3  0  0  0  0  0  0
  162.5180  207.7290  148.3420 C   0  0  0  0  0  2  0  0  0  0  0  0
  162.0320  205.8810  150.7800 C   0  0  1  0  0  3  0  0  0  0  0  0
  160.5250  209.6610  153.3720 N   0  0  0  0  0  0  0  0  0  0  0  0
  161.2970  207.8260  151.9730 N   0  0  0  0  0  0  0  0  0  0  0  0
  161.4760  203.7590  149.8100 O   0  0  0  0  0  0  0  0  0  0  0  0
  160.3420  203.0580  150.2370 C   0  0  0  0  0  2  0  0  0  0  0  0
  161.0650  201.4610  147.2020 N   0  0  0  0  0  2  0  0  0  0  0  0
  161.3000  200.8660  149.5020 C   0  0  0  0  0  2  0  0  0  0  0  0
  160.1250  201.8050  149.3970 C   0  0  2  0  0  3  0  0  0  0  0  0
  161.5410  200.4080  148.0860 C   0  0  0  0  0  2  0  0  0  0  0  0
  159.9950  202.1400  147.9220 C   0  0  0  0  0  2  0  0  0  0  0  0
  1 26  1  0  0  0  0
  3 19  1  0  0  0  0
  3 16  2  0  0  0  0
  4 23  2  0  0  0  0
  5 15  2  0  0  0  0
  7  3  1  0  0  0  0
  7 19  1  0  0  0  0
  8 12  1  0  0  0  0
  9 25  1  0  0  0  0
  9 27  1  0  0  0  0
 10 17  1  0  0  0  0
 11  5  1  0  0  0  0
 11 20  2  0  0  0  0
 13 20  1  0  0  0  0
 13  9  2  0  0  0  0
 14  2  2  0  0  0  0
 15 12  1  0  0  0  0
 15  4  1  0  0  0  0
 16  8  1  0  0  0  0
 17 28  1  6  0  0  0
 17 25  1  0  0  0  0
 18  4  1  0  0  0  0
 18  1  2  0  0  0  0
 19  6  1  6  0  0  0
 19  5  1  0  0  0  0
 20 18  1  0  0  0  0
 22 24  1  0  0  0  0
 22 10  1  0  0  0  0
 23 21  1  0  0  0  0
 24 13  1  0  0  0  0
 25 14  1  1  0  0  0
 26 21  2  0  0  0  0
 27  1  1  0  0  0  0
 27  2  1  0  0  0  0
 28 29  1  0  0  0  0
 30 34  1  0  0  0  0
 30 33  1  0  0  0  0
 32 31  1  0  0  0  0
 32 29  1  1  0  0  0
 33 31  1  0  0  0  0
 34 32  1  0  0  0  0
M  END
>  <MODEL>
2

>  <REMARK>
 VINA RESULT:      -7.8      2.105      2.806
  Name = 
  3 active torsions:
  status: ('A' for Active; 'I' for Inactive)
    1  A    between atoms: C_17  and  O_28
    2  A    between atoms: O_28  and  C_29
    3  A    between atoms: C_29  and  C_32
                            x       y       z     vdW  Elec       q    Type
                         _______ _______ _______ _____ _____    ______ ____

>  <TORSDO>
F 3

$$$$
=
 OpenBabel11122414253D

 34 41  0  0  1  0  0  0  0  0999 V2000
  160.8830  207.7730  153.9550 C   0  0  0  0  0  0  0  0  0  0  0  0
  162.2610  206.0930  152.5820 C   0  0  0  0  0  3  0  0  0  0  0  0
  157.5580  212.9450  154.2710 C   0  0  0  0  0  0  0  0  0  0  0  0
  159.6440  209.4990  155.1270 C   0  0  0  0  0  0  0  0  0  0  0  0
  159.4520  211.6940  154.0970 C   0  0  0  0  0  0  0  0  0  0  0  0
  159.5080  214.1300  155.0360 C   0  0  0  0  0  1  0  0  0  0  0  0
  158.1680  213.5900  153.0660 O   0  0  0  0  0  0  0  0  0  0  0  0
  156.8750  211.6000  156.1320 C   0  0  0  0  0  2  0  0  0  0  0  0
  161.9220  208.2800  151.7560 C   0  0  0  0  0  0  0  0  0  0  0  0
  161.3400  208.8420  148.9050 C   0  0  0  0  0  2  0  0  0  0  0  0
  160.1870  211.2590  153.0370 N   0  0  0  0  0  0  0  0  0  0  0  0
  158.3820  211.3200  156.3910 C   0  0  0  0  0  2  0  0  0  0  0  0
  161.4670  209.5540  151.7820 C   0  0  0  0  0  0  0  0  0  0  0  0
  163.0250  206.2360  151.2580 C   0  0  0  0  0  3  0  0  0  0  0  0
  159.1620  210.8180  155.1820 C   0  0  0  0  0  0  0  0  0  0  0  0
  156.5920  212.4730  154.9820 N   0  0  0  0  0  0  0  0  0  0  0  0
  161.9750  207.5230  149.3660 C   0  0  2  0  0  3  0  0  0  0  0  0
  160.3980  209.0870  154.0130 C   0  0  0  0  0  0  0  0  0  0  0  0
  158.9110  213.0920  154.1040 C   0  0  2  0  0  0  0  0  0  0  0  0
  160.6690  209.9890  152.9640 C   0  0  0  0  0  0  0  0  0  0  0  0
  159.9020  207.2780  156.0560 C   0  0  0  0  0  3  0  0  0  0  0  0
  162.1750  210.0450  149.3240 C   0  0  0  0  0  2  0  0  0  0  0  0
  159.3980  208.5790  156.1560 C   0  0  0  0  0  3  0  0  0  0  0  0
  161.7560  210.5750  150.6980 C   0  0  0  0  0  2  0  0  0  0  0  0
  162.7410  207.6390  150.6950 C   0  0  1  0  0  3  0  0  0  0  0  0
  160.6280  206.9020  154.9680 N   0  0  0  0  0  0  0  0  0  0  0  0
  161.6500  207.3820  152.8130 N   0  0  0  0  0  0  0  0  0  0  0  0
  162.8350  207.0510  148.3710 O   0  0  0  0  0  0  0  0  0  0  0  0
  161.9940  206.6530  147.3260 C   0  0  0  0  0  2  0  0  0  0  0  0
  161.1800  203.3260  146.5880 N   0  0  0  0  0  2  0  0  0  0  0  0
  161.9360  205.1880  145.2990 C   0  0  0  0  0  2  0  0  0  0  0  0
  162.4800  205.3540  146.6950 C   0  0  2  0  0  3  0  0  0  0  0  0
  161.5100  203.7420  145.2340 C   0  0  0  0  0  2  0  0  0  0  0  0
  161.9990  204.1440  147.4730 C   0  0  0  0  0  2  0  0  0  0  0  0
  1 18  2  0  0  0  0
  1 26  1  0  0  0  0
  2 27  1  0  0  0  0
  3 16  2  0  0  0  0
  4 15  1  0  0  0  0
  4 23  2  0  0  0  0
  5 19  1  0  0  0  0
  5 15  2  0  0  0  0
  7 19  1  0  0  0  0
  7  3  1  0  0  0  0
  8 12  1  0  0  0  0
  9 13  2  0  0  0  0
  9 27  1  0  0  0  0
 10 22  1  0  0  0  0
 10 17  1  0  0  0  0
 11  5  1  0  0  0  0
 13 20  1  0  0  0  0
 14  2  2  0  0  0  0
 15 12  1  0  0  0  0
 16  8  1  0  0  0  0
 17 28  1  6  0  0  0
 17 25  1  0  0  0  0
 18  4  1  0  0  0  0
 19  3  1  0  0  0  0
 19  6  1  1  0  0  0
 20 11  2  0  0  0  0
 20 18  1  0  0  0  0
 21 23  1  0  0  0  0
 22 24  1  0  0  0  0
 24 13  1  0  0  0  0
 25 14  1  1  0  0  0
 25  9  1  0  0  0  0
 26 21  2  0  0  0  0
 27  1  1  0  0  0  0
 29 28  1  0  0  0  0
 30 34  1  0  0  0  0
 31 32  1  0  0  0  0
 32 29  1  1  0  0  0
 32 34  1  0  0  0  0
 33 31  1  0  0  0  0
 33 30  1  0  0  0  0
M  END
>  <MODEL>
3

>  <REMARK>
 VINA RESULT:      -7.6      1.822      2.387
  Name = 
  3 active torsions:
  status: ('A' for Active; 'I' for Inactive)
    1  A    between atoms: C_17  and  O_28
    2  A    between atoms: O_28  and  C_29
    3  A    between atoms: C_29  and  C_32
                            x       y       z     vdW  Elec       q    Type
                         _______ _______ _______ _____ _____    ______ ____

>  <TORSDO>
F 3

$$$$
=
 OpenBabel11122414253D

 34 41  0  0  1  0  0  0  0  0999 V2000
  160.7490  209.3300  152.8800 C   0  0  0  0  0  0  0  0  0  0  0  0
  161.2480  206.8890  153.5110 C   0  0  0  0  0  3  0  0  0  0  0  0
  159.6580  213.6110  148.5930 C   0  0  0  0  0  0  0  0  0  0  0  0
  160.3750  211.6020  152.1150 C   0  0  0  0  0  0  0  0  0  0  0  0
  160.9160  212.1550  149.8080 C   0  0  0  0  0  0  0  0  0  0  0  0
  161.9770  214.2480  148.6640 C   0  0  0  0  0  1  0  0  0  0  0  0
  160.3380  212.8830  147.4750 O   0  0  0  0  0  0  0  0  0  0  0  0
  158.7150  214.4530  150.6280 C   0  0  0  0  0  2  0  0  0  0  0  0
  161.6700  207.6370  151.3110 C   0  0  0  0  0  0  0  0  0  0  0  0
  161.0500  206.0030  148.9180 C   0  0  0  0  0  2  0  0  0  0  0  0
  161.3200  210.8720  149.5980 N   0  0  0  0  0  0  0  0  0  0  0  0
  160.0260  214.0050  151.3350 C   0  0  0  0  0  2  0  0  0  0  0  0
  161.7320  208.5370  150.3020 C   0  0  0  0  0  0  0  0  0  0  0  0
  161.8680  205.7320  152.7150 C   0  0  0  0  0  3  0  0  0  0  0  0
  160.4320  212.5580  151.0860 C   0  0  0  0  0  0  0  0  0  0  0  0
  158.6640  214.1820  149.1830 N   0  0  0  0  0  0  0  0  0  0  0  0
  161.1890  205.3870  150.3170 C   0  0  2  0  0  3  0  0  0  0  0  0
  160.8010  210.2860  151.8560 C   0  0  0  0  0  0  0  0  0  0  0  0
  160.9420  213.1390  148.6780 C   0  0  2  0  0  0  0  0  0  0  0  0
  161.2810  209.9310  150.5790 C   0  0  0  0  0  0  0  0  0  0  0  0
  159.8760  210.9370  154.3890 C   0  0  0  0  0  3  0  0  0  0  0  0
  162.3140  206.7460  148.5040 C   0  0  0  0  0  2  0  0  0  0  0  0
  159.9090  211.9230  153.3970 C   0  0  0  0  0  3  0  0  0  0  0  0
  162.2690  208.2190  148.9200 C   0  0  0  0  0  2  0  0  0  0  0  0
  162.0750  206.2080  151.2680 C   0  0  1  0  0  3  0  0  0  0  0  0
  160.2920  209.6710  154.1140 N   0  0  0  0  0  0  0  0  0  0  0  0
  161.1920  208.0010  152.5910 N   0  0  0  0  0  0  0  0  0  0  0  0
  161.7020  204.0920  150.2020 O   0  0  0  0  0  0  0  0  0  0  0  0
  160.7860  203.4110  149.3920 C   0  0  0  0  0  2  0  0  0  0  0  0
  160.3600  201.5550  146.4510 N   0  0  0  0  0  2  0  0  0  0  0  0
  161.5500  203.5470  147.0130 C   0  0  0  0  0  2  0  0  0  0  0  0
  161.4940  202.6890  148.2520 C   0  0  2  0  0  3  0  0  0  0  0  0
  161.1960  202.6050  145.8900 C   0  0  0  0  0  2  0  0  0  0  0  0
  160.7530  201.4280  147.8480 C   0  0  0  0  0  2  0  0  0  0  0  0
  1 26  1  0  0  0  0
  3 19  1  0  0  0  0
  3 16  2  0  0  0  0
  4 23  2  0  0  0  0
  5 15  2  0  0  0  0
  7  3  1  0  0  0  0
  7 19  1  0  0  0  0
  8 12  1  0  0  0  0
  9 27  1  0  0  0  0
 10 17  1  0  0  0  0
 11  5  1  0  0  0  0
 11 20  2  0  0  0  0
 13 20  1  0  0  0  0
 13  9  2  0  0  0  0
 14  2  2  0  0  0  0
 15 12  1  0  0  0  0
 15  4  1  0  0  0  0
 16  8  1  0  0  0  0
 17 28  1  6  0  0  0
 17 25  1  0  0  0  0
 18  4  1  0  0  0  0
 18  1  2  0  0  0  0
 19  6  1  1  0  0  0
 19  5  1  0  0  0  0
 20 18  1  0  0  0  0
 22 10  1  0  0  0  0
 22 24  1  0  0  0  0
 23 21  1  0  0  0  0
 24 13  1  0  0  0  0
 25  9  1  0  0  0  0
 25 14  1  1  0  0  0
 26 21  2  0  0  0  0
 27  1  1  0  0  0  0
 27  2  1  0  0  0  0
 29 28  1  0  0  0  0
 30 34  1  0  0  0  0
 31 32  1  0  0  0  0
 32 29  1  1  0  0  0
 33 30  1  0  0  0  0
 33 31  1  0  0  0  0
 34 32  1  0  0  0  0
M  END
>  <MODEL>
4

>  <REMARK>
 VINA RESULT:      -7.6      1.405      1.828
  Name = 
  3 active torsions:
  status: ('A' for Active; 'I' for Inactive)
    1  A    between atoms: C_17  and  O_28
    2  A    between atoms: O_28  and  C_29
    3  A    between atoms: C_29  and  C_32
                            x       y       z     vdW  Elec       q    Type
                         _______ _______ _______ _____ _____    ______ ____

>  <TORSDO>
F 3

$$$$
=
 OpenBabel11122414253D

 34 41  0  0  1  0  0  0  0  0999 V2000
  161.7210  207.2970  148.4940 C   0  0  0  0  0  0  0  0  0  0  0  0
  161.9560  209.8400  148.7890 C   0  0  0  0  0  3  0  0  0  0  0  0
  160.0450  201.8050  150.7150 C   0  0  0  0  0  0  0  0  0  0  0  0
  161.5260  204.8800  148.4100 C   0  0  0  0  0  0  0  0  0  0  0  0
  161.3550  203.6550  150.5050 C   0  0  0  0  0  0  0  0  0  0  0  0
  162.3290  201.3820  151.3410 C   0  0  0  0  0  1  0  0  0  0  0  0
  160.1710  202.1820  152.1580 O   0  0  0  0  0  0  0  0  0  0  0  0
  160.0040  201.5980  148.3280 C   0  0  0  0  0  2  0  0  0  0  0  0
  161.7460  208.4560  150.6920 C   0  0  0  0  0  0  0  0  0  0  0  0
  160.0810  209.1920  153.0300 C   0  0  0  0  0  2  0  0  0  0  0  0
  161.4290  204.8270  151.1940 N   0  0  0  0  0  0  0  0  0  0  0  0
  161.3720  202.3360  148.3130 C   0  0  0  0  0  2  0  0  0  0  0  0
  161.6270  207.2870  151.3620 C   0  0  0  0  0  0  0  0  0  0  0  0
  162.0570  210.7200  150.0430 C   0  0  0  0  0  3  0  0  0  0  0  0
  161.4060  203.6510  149.0820 C   0  0  0  0  0  0  0  0  0  0  0  0
  159.4250  201.3880  149.6650 N   0  0  0  0  0  0  0  0  0  0  0  0
  160.5660  210.2320  152.0100 C   0  0  2  0  0  3  0  0  0  0  0  0
  161.5980  206.0690  149.1590 C   0  0  0  0  0  0  0  0  0  0  0  0
  161.1780  202.3650  151.2480 C   0  0  2  0  0  0  0  0  0  0  0  0
  161.5520  206.0270  150.5670 C   0  0  0  0  0  0  0  0  0  0  0  0
  161.7040  206.2030  146.3900 C   0  0  0  0  0  3  0  0  0  0  0  0
  161.2450  208.4420  153.6650 C   0  0  0  0  0  2  0  0  0  0  0  0
  161.5810  204.9560  147.0120 C   0  0  0  0  0  3  0  0  0  0  0  0
  161.6060  207.1810  152.8750 C   0  0  0  0  0  2  0  0  0  0  0  0
  161.8510  209.8200  151.2720 C   0  0  1  0  0  3  0  0  0  0  0  0
  161.7710  207.3400  147.1360 N   0  0  0  0  0  0  0  0  0  0  0  0
  161.7960  208.4900  149.2800 N   0  0  0  0  0  0  0  0  0  0  0  0
  160.7710  211.4530  152.6580 O   0  0  0  0  0  0  0  0  0  0  0  0
  159.5640  212.1470  152.5100 C   0  0  0  0  0  2  0  0  0  0  0  0
  157.8930  211.0730  155.3960 N   0  0  0  0  0  2  0  0  0  0  0  0
  159.9500  212.2100  154.9810 C   0  0  0  0  0  2  0  0  0  0  0  0
  159.0040  212.5670  153.8640 C   0  0  2  0  0  3  0  0  0  0  0  0
  159.0610  211.6360  156.0550 C   0  0  0  0  0  2  0  0  0  0  0  0
  157.7050  211.8460  154.1760 C   0  0  0  0  0  2  0  0  0  0  0  0
  1 18  1  0  0  0  0
  1 27  1  0  0  0  0
  2 27  1  0  0  0  0
  2 14  2  0  0  0  0
  3 19  1  0  0  0  0
  3  7  1  0  0  0  0
  4 15  2  0  0  0  0
  4 18  1  0  0  0  0
  5 11  2  0  0  0  0
  5 19  1  0  0  0  0
  8 16  1  0  0  0  0
  9 25  1  0  0  0  0
  9 13  2  0  0  0  0
 10 22  1  0  0  0  0
 12  8  1  0  0  0  0
 12 15  1  0  0  0  0
 13 24  1  0  0  0  0
 15  5  1  0  0  0  0
 16  3  2  0  0  0  0
 17 28  1  1  0  0  0
 17 10  1  0  0  0  0
 18 20  2  0  0  0  0
 19  6  1  1  0  0  0
 19  7  1  0  0  0  0
 20 11  1  0  0  0  0
 20 13  1  0  0  0  0
 21 23  2  0  0  0  0
 21 26  1  0  0  0  0
 23  4  1  0  0  0  0
 24 22  1  0  0  0  0
 25 14  1  6  0  0  0
 25 17  1  0  0  0  0
 26  1  2  0  0  0  0
 27  9  1  0  0  0  0
 29 28  1  0  0  0  0
 30 33  1  0  0  0  0
 31 33  1  0  0  0  0
 32 29  1  6  0  0  0
 32 34  1  0  0  0  0
 32 31  1  0  0  0  0
 34 30  1  0  0  0  0
M  END
>  <MODEL>
5

>  <REMARK>
 VINA RESULT:      -7.5      2.233      9.136
  Name = 
  3 active torsions:
  status: ('A' for Active; 'I' for Inactive)
    1  A    between atoms: C_17  and  O_28
    2  A    between atoms: O_28  and  C_29
    3  A    between atoms: C_29  and  C_32
                            x       y       z     vdW  Elec       q    Type
                         _______ _______ _______ _____ _____    ______ ____

>  <TORSDO>
F 3

$$$$
=
 OpenBabel11122414253D

 34 41  0  0  1  0  0  0  0  0999 V2000
  160.9320  205.1930  151.8320 C   0  0  0  0  0  0  0  0  0  0  0  0
  160.8320  206.4370  154.0790 C   0  0  0  0  0  3  0  0  0  0  0  0
  162.3980  205.0960  145.8540 C   0  0  0  0  0  0  0  0  0  0  0  0
  161.0050  204.1930  149.6220 C   0  0  0  0  0  0  0  0  0  0  0  0
  161.1760  205.6600  147.6890 C   0  0  0  0  0  0  0  0  0  0  0  0
  160.1150  205.6190  145.3040 C   0  0  0  0  0  1  0  0  0  0  0  0
  162.3320  206.5780  145.6580 O   0  0  0  0  0  0  0  0  0  0  0  0
  162.3600  202.8090  146.5660 C   0  0  0  0  0  2  0  0  0  0  0  0
  161.0280  207.6640  152.0710 C   0  0  0  0  0  0  0  0  0  0  0  0
  162.7940  210.0290  151.8060 C   0  0  0  0  0  2  0  0  0  0  0  0
  161.1790  206.7430  148.5140 N   0  0  0  0  0  0  0  0  0  0  0  0
  161.0300  203.1350  147.3020 C   0  0  0  0  0  2  0  0  0  0  0  0
  161.1080  207.8370  150.7310 C   0  0  0  0  0  0  0  0  0  0  0  0
  160.8100  207.9330  154.4200 C   0  0  0  0  0  3  0  0  0  0  0  0
  161.0840  204.3440  148.2280 C   0  0  0  0  0  0  0  0  0  0  0  0
  162.9670  203.9390  145.8450 N   0  0  0  0  0  0  0  0  0  0  0  0
  162.3320  209.5010  153.1710 C   0  0  2  0  0  3  0  0  0  0  0  0
  161.0140  205.3380  150.4410 C   0  0  0  0  0  0  0  0  0  0  0  0
  161.3100  205.8510  146.2080 C   0  0  2  0  0  0  0  0  0  0  0  0
  161.0980  206.6230  149.8660 C   0  0  0  0  0  0  0  0  0  0  0  0
  160.8350  202.8330  151.6190 C   0  0  0  0  0  3  0  0  0  0  0  0
  161.6130  210.3860  150.9120 C   0  0  0  0  0  2  0  0  0  0  0  0
  160.9140  202.9310  150.2250 C   0  0  0  0  0  3  0  0  0  0  0  0
  161.1670  209.1950  150.0580 C   0  0  0  0  0  2  0  0  0  0  0  0
  161.0080  208.7210  153.1150 C   0  0  1  0  0  3  0  0  0  0  0  0
  160.8450  203.9550  152.3890 N   0  0  0  0  0  0  0  0  0  0  0  0
  160.9390  206.3730  152.6400 N   0  0  0  0  0  0  0  0  0  0  0  0
  162.2060  210.5710  154.0620 O   0  0  0  0  0  0  0  0  0  0  0  0
  160.9950  211.1840  153.7210 C   0  0  0  0  0  2  0  0  0  0  0  0
  158.5820  210.6620  156.2070 N   0  0  0  0  0  2  0  0  0  0  0  0
  160.9040  211.2150  156.2210 C   0  0  0  0  0  2  0  0  0  0  0  0
  160.3150  211.7740  154.9510 C   0  0  2  0  0  3  0  0  0  0  0  0
  159.7080  210.9220  157.0910 C   0  0  0  0  0  2  0  0  0  0  0  0
  158.8390  211.4230  154.9910 C   0  0  0  0  0  2  0  0  0  0  0  0
  1 26  1  0  0  0  0
  1 27  1  0  0  0  0
  2 14  2  0  0  0  0
  3 19  1  0  0  0  0
  4 23  2  0  0  0  0
  4 18  1  0  0  0  0
  5 15  2  0  0  0  0
  5 11  1  0  0  0  0
  7  3  1  0  0  0  0
  7 19  1  0  0  0  0
  8 12  1  0  0  0  0
  9 27  1  0  0  0  0
  9 25  1  0  0  0  0
 10 17  1  0  0  0  0
 11 20  2  0  0  0  0
 12 15  1  0  0  0  0
 13  9  2  0  0  0  0
 15  4  1  0  0  0  0
 16  3  2  0  0  0  0
 16  8  1  0  0  0  0
 17 28  1  1  0  0  0
 18  1  2  0  0  0  0
 19  6  1  6  0  0  0
 19  5  1  0  0  0  0
 20 18  1  0  0  0  0
 20 13  1  0  0  0  0
 21 26  2  0  0  0  0
 22 10  1  0  0  0  0
 23 21  1  0  0  0  0
 24 13  1  0  0  0  0
 24 22  1  0  0  0  0
 25 17  1  0  0  0  0
 25 14  1  1  0  0  0
 27  2  1  0  0  0  0
 29 28  1  0  0  0  0
 30 33  1  0  0  0  0
 31 33  1  0  0  0  0
 32 29  1  6  0  0  0
 32 34  1  0  0  0  0
 32 31  1  0  0  0  0
 34 30  1  0  0  0  0
M  END
>  <MODEL>
6

>  <REMARK>
 VINA RESULT:      -7.4      2.566      8.392
  Name = 
  3 active torsions:
  status: ('A' for Active; 'I' for Inactive)
    1  A    between atoms: C_17  and  O_28
    2  A    between atoms: O_28  and  C_29
    3  A    between atoms: C_29  and  C_32
                            x       y       z     vdW  Elec       q    Type
                         _______ _______ _______ _____ _____    ______ ____

>  <TORSDO>
F 3

$$$$
=
 OpenBabel11122414253D

 34 41  0  0  1  0  0  0  0  0999 V2000
  161.4240  208.4440  150.9200 C   0  0  0  0  0  0  0  0  0  0  0  0
  161.2930  210.7060  152.1340 C   0  0  0  0  0  3  0  0  0  0  0  0
  160.3500  202.3830  150.8070 C   0  0  0  0  0  0  0  0  0  0  0  0
  161.5620  206.2240  149.9500 C   0  0  0  0  0  0  0  0  0  0  0  0
  161.4100  204.2990  151.4290 C   0  0  0  0  0  0  0  0  0  0  0  0
  162.6200  201.9870  151.4970 C   0  0  0  0  0  1  0  0  0  0  0  0
  160.3220  202.2070  152.2940 O   0  0  0  0  0  0  0  0  0  0  0  0
  160.5040  203.0740  148.5190 C   0  0  0  0  0  2  0  0  0  0  0  0
  161.1380  208.7010  153.3740 C   0  0  0  0  0  0  0  0  0  0  0  0
  159.2290  208.3480  155.6130 C   0  0  0  0  0  2  0  0  0  0  0  0
  161.2780  205.1330  152.4970 N   0  0  0  0  0  0  0  0  0  0  0  0
  161.7590  203.8960  148.9270 C   0  0  0  0  0  2  0  0  0  0  0  0
  161.1310  207.3610  153.5610 C   0  0  0  0  0  0  0  0  0  0  0  0
  161.1870  211.0630  153.6230 C   0  0  0  0  0  3  0  0  0  0  0  0
  161.5610  204.8290  150.1150 C   0  0  0  0  0  0  0  0  0  0  0  0
  159.8660  202.3260  149.6140 N   0  0  0  0  0  0  0  0  0  0  0  0
  159.6400  209.7340  155.0990 C   0  0  2  0  0  3  0  0  0  0  0  0
  161.4200  207.0520  151.0790 C   0  0  0  0  0  0  0  0  0  0  0  0
  161.3570  202.8150  151.6320 C   0  0  2  0  0  0  0  0  0  0  0  0
  161.2810  206.4860  152.3630 C   0  0  0  0  0  0  0  0  0  0  0  0
  161.7020  208.2130  148.5760 C   0  0  0  0  0  3  0  0  0  0  0  0
  160.4360  207.5360  156.0650 C   0  0  0  0  0  2  0  0  0  0  0  0
  161.7040  206.8190  148.6880 C   0  0  0  0  0  3  0  0  0  0  0  0
  161.0180  206.7000  154.9210 C   0  0  0  0  0  2  0  0  0  0  0  0
  161.0170  209.7550  154.4140 C   0  0  1  0  0  3  0  0  0  0  0  0
  161.5630  208.9930  149.6830 N   0  0  0  0  0  0  0  0  0  0  0  0
  161.2820  209.2620  152.0840 N   0  0  0  0  0  0  0  0  0  0  0  0
  159.6330  210.6420  156.1610 O   0  0  0  0  0  0  0  0  0  0  0  0
  158.3070  211.0820  156.2500 C   0  0  0  0  0  2  0  0  0  0  0  0
  155.7520  212.8260  154.6050 N   0  0  0  0  0  2  0  0  0  0  0  0
  158.1210  213.0830  154.7600 C   0  0  0  0  0  2  0  0  0  0  0  0
  157.8150  211.6150  154.9100 C   0  0  2  0  0  3  0  0  0  0  0  0
  156.8590  213.6700  154.1800 C   0  0  0  0  0  2  0  0  0  0  0  0
  156.3080  211.4910  154.7820 C   0  0  0  0  0  2  0  0  0  0  0  0
  1 18  1  0  0  0  0
  1 27  1  0  0  0  0
  2 14  2  0  0  0  0
  3 19  1  0  0  0  0
  3  7  1  0  0  0  0
  4 15  2  0  0  0  0
  4 18  1  0  0  0  0
  5 19  1  0  0  0  0
  5 11  2  0  0  0  0
  8 12  1  0  0  0  0
  8 16  1  0  0  0  0
  9 13  2  0  0  0  0
  9 25  1  0  0  0  0
 10 22  1  0  0  0  0
 12 15  1  0  0  0  0
 13 24  1  0  0  0  0
 15  5  1  0  0  0  0
 16  3  2  0  0  0  0
 17 10  1  0  0  0  0
 17 28  1  1  0  0  0
 18 20  2  0  0  0  0
 19  6  1  6  0  0  0
 19  7  1  0  0  0  0
 20 11  1  0  0  0  0
 20 13  1  0  0  0  0
 21 23  2  0  0  0  0
 21 26  1  0  0  0  0
 23  4  1  0  0  0  0
 24 22  1  0  0  0  0
 25 14  1  6  0  0  0
 25 17  1  0  0  0  0
 26  1  2  0  0  0  0
 27  2  1  0  0  0  0
 27  9  1  0  0  0  0
 28 29  1  0  0  0  0
 30 34  1  0  0  0  0
 31 32  1  0  0  0  0
 32 29  1  1  0  0  0
 33 30  1  0  0  0  0
 33 31  1  0  0  0  0
 34 32  1  0  0  0  0
M  END
>  <MODEL>
7

>  <REMARK>
 VINA RESULT:      -7.2      2.322      8.880
  Name = 
  3 active torsions:
  status: ('A' for Active; 'I' for Inactive)
    1  A    between atoms: C_17  and  O_28
    2  A    between atoms: O_28  and  C_29
    3  A    between atoms: C_29  and  C_32
                            x       y       z     vdW  Elec       q    Type
                         _______ _______ _______ _____ _____    ______ ____

>  <TORSDO>
F 3

$$$$
=
 OpenBabel11122414253D

 34 41  0  0  1  0  0  0  0  0999 V2000
  161.5650  207.8590  150.3310 C   0  0  0  0  0  0  0  0  0  0  0  0
  161.5280  206.2970  148.2900 C   0  0  0  0  0  3  0  0  0  0  0  0
  161.8320  208.6570  156.4290 C   0  0  0  0  0  0  0  0  0  0  0  0
  161.5110  209.1900  152.3590 C   0  0  0  0  0  0  0  0  0  0  0  0
  160.8690  208.1090  154.4410 C   0  0  0  0  0  0  0  0  0  0  0  0
  159.4360  208.8630  156.4890 C   0  0  0  0  0  1  0  0  0  0  0  0
  161.2940  207.3060  156.7820 O   0  0  0  0  0  0  0  0  0  0  0  0
  162.6100  210.7030  155.4560 C   0  0  0  0  0  2  0  0  0  0  0  0
  160.9670  205.4490  150.4220 C   0  0  0  0  0  0  0  0  0  0  0  0
  161.8680  202.7930  151.3770 C   0  0  0  0  0  2  0  0  0  0  0  0
  160.7070  206.9320  153.7780 N   0  0  0  0  0  0  0  0  0  0  0  0
  161.4080  210.6100  154.4750 C   0  0  0  0  0  2  0  0  0  0  0  0
  160.7360  205.5090  151.7540 C   0  0  0  0  0  0  0  0  0  0  0  0
  161.1290  204.8230  148.1370 C   0  0  0  0  0  3  0  0  0  0  0  0
  161.2750  209.2810  153.7410 C   0  0  0  0  0  0  0  0  0  0  0  0
  162.7060  209.6050  156.4310 N   0  0  0  0  0  0  0  0  0  0  0  0
  161.8510  203.1650  149.8880 C   0  0  2  0  0  3  0  0  0  0  0  0
  161.3340  207.9540  151.7100 C   0  0  0  0  0  0  0  0  0  0  0  0
  160.6570  208.1630  155.9240 C   0  0  2  0  0  0  0  0  0  0  0  0
  160.9230  206.8200  152.4400 C   0  0  0  0  0  0  0  0  0  0  0  0
  162.1330  210.1590  150.2280 C   0  0  0  0  0  3  0  0  0  0  0  0
  160.4870  202.9290  152.0060 C   0  0  0  0  0  2  0  0  0  0  0  0
  161.9140  210.3000  151.6030 C   0  0  0  0  0  3  0  0  0  0  0  0
  160.2620  204.3300  152.5820 C   0  0  0  0  0  2  0  0  0  0  0  0
  160.8320  204.2630  149.5380 C   0  0  1  0  0  3  0  0  0  0  0  0
  161.9570  208.9530  149.6240 N   0  0  0  0  0  0  0  0  0  0  0  0
  161.3750  206.5920  149.6960 N   0  0  0  0  0  0  0  0  0  0  0  0
  161.5850  202.0220  149.1290 O   0  0  0  0  0  0  0  0  0  0  0  0
  160.7420  202.4590  148.1010 C   0  0  0  0  0  2  0  0  0  0  0  0
  160.4560  199.8440  145.7860 N   0  0  0  0  0  2  0  0  0  0  0  0
  160.1870  202.2140  145.6740 C   0  0  0  0  0  2  0  0  0  0  0  0
  161.2030  201.9250  146.7500 C   0  0  2  0  0  3  0  0  0  0  0  0
  160.1030  200.9310  144.8860 C   0  0  0  0  0  2  0  0  0  0  0  0
  161.3620  200.4160  146.7740 C   0  0  0  0  0  2  0  0  0  0  0  0
  1 18  1  0  0  0  0
  2 27  1  0  0  0  0
  3 16  2  0  0  0  0
  3  7  1  0  0  0  0
  4 15  1  0  0  0  0
  5 19  1  0  0  0  0
  8 16  1  0  0  0  0
  9 13  2  0  0  0  0
 10 22  1  0  0  0  0
 11  5  1  0  0  0  0
 12  8  1  0  0  0  0
 13 20  1  0  0  0  0
 13 24  1  0  0  0  0
 14  2  2  0  0  0  0
 15  5  2  0  0  0  0
 15 12  1  0  0  0  0
 17 28  1  6  0  0  0
 17 10  1  0  0  0  0
 18  4  2  0  0  0  0
 18 20  1  0  0  0  0
 19  3  1  0  0  0  0
 19  6  1  1  0  0  0
 19  7  1  0  0  0  0
 20 11  2  0  0  0  0
 21 23  2  0  0  0  0
 22 24  1  0  0  0  0
 23  4  1  0  0  0  0
 25 14  1  6  0  0  0
 25 17  1  0  0  0  0
 25  9  1  0  0  0  0
 26 21  1  0  0  0  0
 26  1  2  0  0  0  0
 27  1  1  0  0  0  0
 27  9  1  0  0  0  0
 29 28  1  0  0  0  0
 30 34  1  0  0  0  0
 31 32  1  0  0  0  0
 32 34  1  0  0  0  0
 32 29  1  1  0  0  0
 33 31  1  0  0  0  0
 33 30  1  0  0  0  0
M  END
>  <MODEL>
8

>  <REMARK>
 VINA RESULT:      -6.2      2.977      4.769
  Name = 
  3 active torsions:
  status: ('A' for Active; 'I' for Inactive)
    1  A    between atoms: C_17  and  O_28
    2  A    between atoms: O_28  and  C_29
    3  A    between atoms: C_29  and  C_32
                            x       y       z     vdW  Elec       q    Type
                         _______ _______ _______ _____ _____    ______ ____

>  <TORSDO>
F 3

$$$$
=
 OpenBabel11122414253D

 34 41  0  0  1  0  0  0  0  0999 V2000
  161.7560  207.5210  149.5710 C   0  0  0  0  0  0  0  0  0  0  0  0
  161.9560  209.8530  150.6330 C   0  0  0  0  0  3  0  0  0  0  0  0
  159.9020  201.6600  149.8870 C   0  0  0  0  0  0  0  0  0  0  0  0
  161.5770  205.2450  148.7490 C   0  0  0  0  0  0  0  0  0  0  0  0
  161.2200  203.4550  150.3560 C   0  0  0  0  0  0  0  0  0  0  0  0
  162.1210  201.0130  150.5540 C   0  0  0  0  0  1  0  0  0  0  0  0
  159.8950  201.5840  151.3820 O   0  0  0  0  0  0  0  0  0  0  0  0
  160.0770  202.1770  147.5540 C   0  0  0  0  0  2  0  0  0  0  0  0
  161.5780  207.9700  152.0080 C   0  0  0  0  0  0  0  0  0  0  0  0
  159.7070  208.0140  154.3040 C   0  0  0  0  0  2  0  0  0  0  0  0
  161.2280  204.3650  151.3690 N   0  0  0  0  0  0  0  0  0  0  0  0
  161.4390  202.8510  147.8800 C   0  0  0  0  0  2  0  0  0  0  0  0
  161.4030  206.6570  152.2840 C   0  0  0  0  0  0  0  0  0  0  0  0
  161.9410  210.3150  152.0970 C   0  0  0  0  0  3  0  0  0  0  0  0
  161.4000  203.8750  149.0080 C   0  0  0  0  0  0  0  0  0  0  0  0
  159.3800  201.5900  148.7100 N   0  0  0  0  0  0  0  0  0  0  0  0
  160.2790  209.2980  153.6900 C   0  0  2  0  0  3  0  0  0  0  0  0
  161.5770  206.1540  149.8230 C   0  0  0  0  0  0  0  0  0  0  0  0
  160.9800  202.0060  150.6590 C   0  0  2  0  0  0  0  0  0  0  0  0
  161.4030  205.6950  151.1440 C   0  0  0  0  0  0  0  0  0  0  0  0
  161.9330  207.1070  147.2420 C   0  0  0  0  0  3  0  0  0  0  0  0
  160.8100  207.0800  154.7840 C   0  0  0  0  0  2  0  0  0  0  0  0
  161.7580  205.7340  147.4480 C   0  0  0  0  0  3  0  0  0  0  0  0
  161.2450  206.1040  153.6870 C   0  0  0  0  0  2  0  0  0  0  0  0
  161.6260  209.0940  152.9770 C   0  0  1  0  0  3  0  0  0  0  0  0
  161.9290  207.9670  148.2970 N   0  0  0  0  0  0  0  0  0  0  0  0
  161.7560  208.4230  150.6810 N   0  0  0  0  0  0  0  0  0  0  0  0
  160.4200  210.2650  154.6890 O   0  0  0  0  0  0  0  0  0  0  0  0
  160.1890  209.5810  155.8880 C   0  0  0  0  0  2  0  0  0  0  0  0
  163.3460  210.9440  156.5610 N   0  0  0  0  0  2  0  0  0  0  0  0
  161.1090  211.5460  157.1340 C   0  0  0  0  0  2  0  0  0  0  0  0
  161.1470  210.0470  156.9780 C   0  0  2  0  0  3  0  0  0  0  0  0
  162.5570  211.9460  157.2600 C   0  0  0  0  0  2  0  0  0  0  0  0
  162.5860  209.7040  156.6380 C   0  0  0  0  0  2  0  0  0  0  0  0
  1 18  1  0  0  0  0
  1 27  1  0  0  0  0
  2 27  1  0  0  0  0
  2 14  2  0  0  0  0
  3 19  1  0  0  0  0
  3  7  1  0  0  0  0
  4 15  2  0  0  0  0
  4 18  1  0  0  0  0
  5 19  1  0  0  0  0
  5 11  2  0  0  0  0
  8 12  1  0  0  0  0
  8 16  1  0  0  0  0
  9 13  2  0  0  0  0
  9 25  1  0  0  0  0
 10 22  1  0  0  0  0
 12 15  1  0  0  0  0
 13 24  1  0  0  0  0
 15  5  1  0  0  0  0
 16  3  2  0  0  0  0
 17 10  1  0  0  0  0
 17 28  1  1  0  0  0
 18 20  2  0  0  0  0
 19  6  1  6  0  0  0
 19  7  1  0  0  0  0
 20 11  1  0  0  0  0
 20 13  1  0  0  0  0
 21 23  2  0  0  0  0
 21 26  1  0  0  0  0
 23  4  1  0  0  0  0
 24 22  1  0  0  0  0
 25 14  1  6  0  0  0
 25 17  1  0  0  0  0
 26  1  2  0  0  0  0
 27  9  1  0  0  0  0
 28 29  1  0  0  0  0
 30 34  1  0  0  0  0
 30 33  1  0  0  0  0
 31 33  1  0  0  0  0
 32 29  1  6  0  0  0
 32 31  1  0  0  0  0
 34 32  1  0  0  0  0
M  END
>  <MODEL>
9

>  <REMARK>
 VINA RESULT:      -5.6      2.862      9.145
  Name = 
  3 active torsions:
  status: ('A' for Active; 'I' for Inactive)
    1  A    between atoms: C_17  and  O_28
    2  A    between atoms: O_28  and  C_29
    3  A    between atoms: C_29  and  C_32
                            x       y       z     vdW  Elec       q    Type
                         _______ _______ _______ _____ _____    ______ ____

>  <TORSDO>
F 3

$$$$
