=
 OpenBabel11122412473D

 32 37  0  0  1  0  0  0  0  0999 V2000
  159.0240  210.6450  155.9610 C   0  0  0  0  0  2  0  0  0  0  0  0
  161.7600  207.7050  152.7460 C   0  0  1  0  0  3  0  0  0  0  0  0
  161.9750  211.2970  149.2870 C   0  0  0  0  0  3  0  0  0  0  0  0
  162.0240  210.3400  148.2720 C   0  0  0  0  0  3  0  0  0  0  0  0
  161.2410  205.3340  151.8960 C   0  0  0  0  0  0  0  0  0  0  0  0
  161.1900  204.4330  150.7460 C   0  0  0  0  0  0  0  0  0  0  0  0
  161.2260  208.6210  155.0110 C   0  0  1  0  0  3  0  0  0  0  0  0
  162.1800  210.0850  153.4040 C   0  0  0  0  0  2  0  0  0  0  0  0
  161.1640  203.8390  148.7200 C   0  0  0  0  0  0  0  0  0  0  0  0
  161.5240  210.9690  155.4760 C   0  0  0  0  0  2  0  0  0  0  0  0
  161.9340  210.8950  150.6240 C   0  0  0  0  0  3  0  0  0  0  0  0
  161.8920  209.1180  152.3440 N   0  0  0  0  0  0  0  0  0  0  0  0
  161.9360  209.5320  150.9610 C   0  0  0  0  0  0  0  0  0  0  0  0
  162.0460  207.1170  150.2980 C   0  0  2  0  0  3  0  0  0  0  0  0
  160.9250  202.7350  149.4630 N   0  0  0  0  0  0  0  0  0  0  0  0
  158.9790  209.1230  156.1780 C   0  0  0  0  0  2  0  0  0  0  0  0
  161.1720  209.9830  154.4530 N   0  0  2  0  0  0  0  0  0  0  0  0
  160.9370  203.1100  150.7420 N   0  0  0  0  0  0  0  0  0  0  0  0
  160.3530  208.4440  156.2630 C   0  0  0  0  0  2  0  0  0  0  0  0
  160.3430  211.2960  156.4080 C   0  0  1  0  0  3  0  0  0  0  0  0
  162.0270  208.9820  148.5930 C   0  0  0  0  0  3  0  0  0  0  0  0
  161.9610  208.5690  149.9330 C   0  0  0  0  0  0  0  0  0  0  0  0
  161.6230  206.2370  149.2000 N   0  0  0  0  0  2  0  0  0  0  0  0
  160.8110  207.6120  153.9450 C   0  0  0  0  0  2  0  0  0  0  0  0
  161.1950  204.8820  153.0710 O   0  0  0  0  0  0  0  0  0  0  0  0
  161.2420  203.8560  147.2330 C   0  0  0  0  0  1  0  0  0  0  0  0
  161.2460  206.8250  151.5920 C   0  0  2  0  0  3  0  0  0  0  0  0
  161.3340  204.9030  149.5100 N   0  0  0  0  0  0  0  0  0  0  0  0
  160.1850  212.8050  156.4960 C   0  0  0  0  0  2  0  0  0  0  0  0
  159.1270  213.2820  155.5600 C   0  0  0  0  0  0  0  0  0  0  0  0
  157.8980  213.6970  156.0550 O   0  0  0  0  0  1  0  0  0  0  0  0
  159.3580  213.3370  154.3240 O   0  0  0  0  0  0  0  0  0  0  0  0
  1 16  1  0  0  0  0
  1 20  1  0  0  0  0
  2 24  1  1  0  0  0
  3 11  1  0  0  0  0
  4 21  1  0  0  0  0
  4  3  2  0  0  0  0
  5 25  2  0  0  0  0
  6  5  1  0  0  0  0
  7 24  1  6  0  0  0
  7 19  1  0  0  0  0
  9 15  2  0  0  0  0
  9 28  1  0  0  0  0
 10 20  1  0  0  0  0
 11 13  2  0  0  0  0
 12  2  1  0  0  0  0
 12  8  1  0  0  0  0
 13 12  1  0  0  0  0
 14 23  1  6  0  0  0
 14 27  1  0  0  0  0
 15 18  1  0  0  0  0
 16 19  1  0  0  0  0
 17  8  1  6  0  0  0
 17  7  1  0  0  0  0
 17 10  1  0  0  0  0
 18  6  2  0  0  0  0
 20 29  1  6  0  0  0
 21 22  2  0  0  0  0
 22 14  1  0  0  0  0
 22 13  1  0  0  0  0
 23 28  1  0  0  0  0
 26  9  1  0  0  0  0
 27  5  1  1  0  0  0
 27  2  1  0  0  0  0
 28  6  1  0  0  0  0
 30 31  1  0  0  0  0
 30 29  1  0  0  0  0
 32 30  2  0  0  0  0
M  END
>  <MODEL>
1

>  <REMARK>
 VINA RESULT:      -8.7      0.000      0.000
  Name = 
  2 active torsions:
  status: ('A' for Active; 'I' for Inactive)
    1  A    between atoms: C_20  and  C_29
    2  A    between atoms: C_29  and  C_30
                            x       y       z     vdW  Elec       q    Type
                         _______ _______ _______ _____ _____    ______ ____

>  <TORSDO>
F 2

$$$$
=
 OpenBabel11122412473D

 32 37  0  0  1  0  0  0  0  0999 V2000
  159.0620  209.2370  156.0400 C   0  0  0  0  0  2  0  0  0  0  0  0
  161.7990  206.9460  152.3360 C   0  0  1  0  0  3  0  0  0  0  0  0
  161.9350  211.0930  149.5610 C   0  0  0  0  0  3  0  0  0  0  0  0
  161.9850  210.3310  148.3930 C   0  0  0  0  0  3  0  0  0  0  0  0
  161.3000  204.7550  151.0860 C   0  0  0  0  0  0  0  0  0  0  0  0
  161.2470  204.0700  149.7950 C   0  0  0  0  0  0  0  0  0  0  0  0
  161.2780  207.4420  154.7310 C   0  0  1  0  0  3  0  0  0  0  0  0
  162.1980  209.1790  153.3990 C   0  0  0  0  0  2  0  0  0  0  0  0
  161.2080  203.8410  147.6970 C   0  0  0  0  0  0  0  0  0  0  0  0
  161.5520  209.6750  155.5990 C   0  0  0  0  0  2  0  0  0  0  0  0
  161.9130  210.4620  150.8070 C   0  0  0  0  0  3  0  0  0  0  0  0
  161.9100  208.4090  152.1880 N   0  0  0  0  0  0  0  0  0  0  0  0
  161.9350  209.0610  150.8990 C   0  0  0  0  0  0  0  0  0  0  0  0
  162.0670  206.8020  149.8210 C   0  0  2  0  0  3  0  0  0  0  0  0
  160.9900  202.6200  148.2360 N   0  0  0  0  0  0  0  0  0  0  0  0
  159.0370  207.7010  155.9860 C   0  0  0  0  0  2  0  0  0  0  0  0
  161.2010  208.8800  154.4220 N   0  0  2  0  0  0  0  0  0  0  0  0
  161.0110  202.7640  149.5600 N   0  0  0  0  0  0  0  0  0  0  0  0
  160.4190  207.0350  155.9390 C   0  0  0  0  0  2  0  0  0  0  0  0
  160.3770  209.8170  156.5840 C   0  0  1  0  0  3  0  0  0  0  0  0
  162.0080  208.9370  148.4710 C   0  0  0  0  0  3  0  0  0  0  0  0
  161.9610  208.2940  149.7170 C   0  0  0  0  0  0  0  0  0  0  0  0
  161.6440  206.1240  148.5880 N   0  0  0  0  0  2  0  0  0  0  0  0
  160.8640  206.6310  153.5070 C   0  0  0  0  0  2  0  0  0  0  0  0
  161.2720  204.1030  152.1630 O   0  0  0  0  0  0  0  0  0  0  0  0
  161.2710  204.1210  146.2360 C   0  0  0  0  0  1  0  0  0  0  0  0
  161.2840  206.2760  151.0490 C   0  0  2  0  0  3  0  0  0  0  0  0
  161.3740  204.7510  148.6610 N   0  0  0  0  0  0  0  0  0  0  0  0
  160.2020  211.2850  156.9380 C   0  0  0  0  0  2  0  0  0  0  0  0
  159.4450  212.0000  155.8710 C   0  0  0  0  0  0  0  0  0  0  0  0
  158.0810  212.2160  156.0140 O   0  0  0  0  0  1  0  0  0  0  0  0
  160.0470  212.4340  154.8550 O   0  0  0  0  0  0  0  0  0  0  0  0
  1 20  1  0  0  0  0
  2 24  1  1  0  0  0
  3 11  1  0  0  0  0
  4 21  1  0  0  0  0
  4  3  2  0  0  0  0
  5 25  2  0  0  0  0
  6  5  1  0  0  0  0
  7 24  1  6  0  0  0
  7 19  1  0  0  0  0
  9 15  2  0  0  0  0
  9 28  1  0  0  0  0
 10 20  1  0  0  0  0
 11 13  2  0  0  0  0
 12  2  1  0  0  0  0
 12  8  1  0  0  0  0
 13 12  1  0  0  0  0
 14 23  1  6  0  0  0
 14 27  1  0  0  0  0
 15 18  1  0  0  0  0
 16  1  1  0  0  0  0
 17  8  1  6  0  0  0
 17  7  1  0  0  0  0
 17 10  1  0  0  0  0
 18  6  2  0  0  0  0
 19 16  1  0  0  0  0
 20 29  1  6  0  0  0
 21 22  2  0  0  0  0
 22 14  1  0  0  0  0
 22 13  1  0  0  0  0
 23 28  1  0  0  0  0
 26  9  1  0  0  0  0
 27  5  1  1  0  0  0
 27  2  1  0  0  0  0
 28  6  1  0  0  0  0
 30 31  1  0  0  0  0
 30 29  1  0  0  0  0
 32 30  2  0  0  0  0
M  END
>  <MODEL>
2

>  <REMARK>
 VINA RESULT:      -8.5      0.921      1.054
  Name = 
  2 active torsions:
  status: ('A' for Active; 'I' for Inactive)
    1  A    between atoms: C_20  and  C_29
    2  A    between atoms: C_29  and  C_30
                            x       y       z     vdW  Elec       q    Type
                         _______ _______ _______ _____ _____    ______ ____

>  <TORSDO>
F 2

$$$$
=
 OpenBabel11122412473D

 32 37  0  0  1  0  0  0  0  0999 V2000
  160.1940  204.4260  149.9640 C   0  0  0  0  0  2  0  0  0  0  0  0
  161.3200  208.8410  152.3510 C   0  0  1  0  0  3  0  0  0  0  0  0
  160.0920  206.9960  156.8240 C   0  0  0  0  0  3  0  0  0  0  0  0
  159.7070  208.2650  157.2600 C   0  0  0  0  0  3  0  0  0  0  0  0
  160.4800  211.2140  151.8280 C   0  0  0  0  0  0  0  0  0  0  0  0
  159.9480  212.4670  152.3620 C   0  0  0  0  0  0  0  0  0  0  0  0
  161.7860  207.0310  150.6900 C   0  0  1  0  0  3  0  0  0  0  0  0
  161.9910  206.5170  153.0000 C   0  0  0  0  0  2  0  0  0  0  0  0
  159.0750  213.7910  153.7570 C   0  0  0  0  0  0  0  0  0  0  0  0
  162.2650  204.7870  151.4370 C   0  0  0  0  0  2  0  0  0  0  0  0
  160.6110  206.8280  155.5380 C   0  0  0  0  0  3  0  0  0  0  0  0
  161.2810  207.7490  153.3420 N   0  0  0  0  0  0  0  0  0  0  0  0
  160.7460  207.9250  154.6720 C   0  0  0  0  0  0  0  0  0  0  0  0
  160.5550  210.3820  154.2110 C   0  0  2  0  0  3  0  0  0  0  0  0
  159.1620  214.4510  152.5800 N   0  0  0  0  0  0  0  0  0  0  0  0
  160.2350  205.7040  149.1110 C   0  0  0  0  0  2  0  0  0  0  0  0
  161.5120  206.0100  151.7170 N   0  0  2  0  0  0  0  0  0  0  0  0
  159.7100  213.6150  151.6980 N   0  0  0  0  0  0  0  0  0  0  0  0
  161.5150  206.5380  149.2600 C   0  0  0  0  0  2  0  0  0  0  0  0
  161.5830  203.9090  150.3730 C   0  0  1  0  0  3  0  0  0  0  0  0
  159.8370  209.3650  156.4100 C   0  0  0  0  0  3  0  0  0  0  0  0
  160.3340  209.2000  155.1070 C   0  0  0  0  0  0  0  0  0  0  0  0
  159.7080  211.5260  154.5730 N   0  0  0  0  0  2  0  0  0  0  0  0
  160.9590  208.2800  150.9730 C   0  0  0  0  0  2  0  0  0  0  0  0
  160.9270  211.1540  150.6520 O   0  0  0  0  0  0  0  0  0  0  0  0
  158.5260  214.3710  155.0120 C   0  0  0  0  0  1  0  0  0  0  0  0
  160.3670  209.9900  152.7240 C   0  0  2  0  0  3  0  0  0  0  0  0
  159.5670  212.5540  153.6320 N   0  0  0  0  0  0  0  0  0  0  0  0
  161.4840  202.4850  150.8940 C   0  0  0  0  0  2  0  0  0  0  0  0
  160.9030  201.5810  149.8610 C   0  0  0  0  0  0  0  0  0  0  0  0
  161.5640  201.3900  148.6550 O   0  0  0  0  0  0  0  0  0  0  0  0
  159.8290  200.9690  150.0930 O   0  0  0  0  0  1  0  0  0  0  0  0
  1 20  1  0  0  0  0
  2 24  1  6  0  0  0
  2 27  1  0  0  0  0
  2 12  1  0  0  0  0
  3  4  1  0  0  0  0
  5  6  1  0  0  0  0
  6 28  1  0  0  0  0
  7 19  1  6  0  0  0
  7 24  1  0  0  0  0
  7 17  1  0  0  0  0
  8 12  1  0  0  0  0
  9 26  1  0  0  0  0
 11  3  2  0  0  0  0
 12 13  1  0  0  0  0
 13 22  2  0  0  0  0
 13 11  1  0  0  0  0
 14 23  1  1  0  0  0
 14 22  1  0  0  0  0
 15  9  2  0  0  0  0
 16 19  1  0  0  0  0
 16  1  1  0  0  0  0
 17 10  1  6  0  0  0
 17  8  1  0  0  0  0
 18  6  2  0  0  0  0
 18 15  1  0  0  0  0
 20 29  1  1  0  0  0
 20 10  1  0  0  0  0
 21  4  2  0  0  0  0
 22 21  1  0  0  0  0
 25  5  2  0  0  0  0
 27  5  1  6  0  0  0
 27 14  1  0  0  0  0
 28  9  1  0  0  0  0
 28 23  1  0  0  0  0
 30 32  1  0  0  0  0
 30 29  1  0  0  0  0
 31 30  2  0  0  0  0
M  END
>  <MODEL>
3

>  <REMARK>
 VINA RESULT:      -7.3      2.595      8.551
  Name = 
  2 active torsions:
  status: ('A' for Active; 'I' for Inactive)
    1  A    between atoms: C_20  and  C_29
    2  A    between atoms: C_29  and  C_30
                            x       y       z     vdW  Elec       q    Type
                         _______ _______ _______ _____ _____    ______ ____

>  <TORSDO>
F 2

$$$$
=
 OpenBabel11122412473D

 32 37  0  0  1  0  0  0  0  0999 V2000
  159.2950  202.9450  144.9080 C   0  0  0  0  0  2  0  0  0  0  0  0
  161.9670  205.6980  148.3340 C   0  0  1  0  0  3  0  0  0  0  0  0
  160.4770  202.8280  152.1370 C   0  0  0  0  0  3  0  0  0  0  0  0
  160.5620  203.9130  153.0110 C   0  0  0  0  0  3  0  0  0  0  0  0
  161.9300  208.2370  148.7400 C   0  0  0  0  0  0  0  0  0  0  0  0
  161.8780  209.3150  149.7250 C   0  0  0  0  0  0  0  0  0  0  0  0
  161.7020  204.5420  146.1320 C   0  0  1  0  0  3  0  0  0  0  0  0
  161.8680  203.2070  148.0890 C   0  0  0  0  0  2  0  0  0  0  0  0
  161.5810  210.2510  151.5950 C   0  0  0  0  0  0  0  0  0  0  0  0
  161.4550  202.1440  146.0390 C   0  0  0  0  0  2  0  0  0  0  0  0
  160.8290  202.9840  150.7940 C   0  0  0  0  0  3  0  0  0  0  0  0
  161.6290  204.3870  148.9210 N   0  0  0  0  0  0  0  0  0  0  0  0
  161.2670  204.2280  150.3090 C   0  0  0  0  0  0  0  0  0  0  0  0
  161.8730  206.6300  150.6880 C   0  0  2  0  0  3  0  0  0  0  0  0
  161.8090  211.2300  150.6910 N   0  0  0  0  0  0  0  0  0  0  0  0
  159.7040  204.3720  144.5080 C   0  0  0  0  0  2  0  0  0  0  0  0
  161.1690  203.3500  146.8160 N   0  0  2  0  0  0  0  0  0  0  0  0
  161.9920  210.6400  149.5090 N   0  0  0  0  0  0  0  0  0  0  0  0
  161.1940  204.6900  144.6890 C   0  0  0  0  0  2  0  0  0  0  0  0
  160.4560  201.9380  144.8860 C   0  0  1  0  0  3  0  0  0  0  0  0
  160.9960  205.1550  152.5420 C   0  0  0  0  0  3  0  0  0  0  0  0
  161.3290  205.3260  151.1890 C   0  0  0  0  0  0  0  0  0  0  0  0
  161.4770  207.7650  151.5330 N   0  0  0  0  0  2  0  0  0  0  0  0
  161.3550  205.7920  146.9340 C   0  0  0  0  0  2  0  0  0  0  0  0
  162.2580  208.4700  147.5460 O   0  0  0  0  0  0  0  0  0  0  0  0
  161.3350  210.4810  153.0450 C   0  0  0  0  0  1  0  0  0  0  0  0
  161.4730  206.8640  149.2100 C   0  0  2  0  0  3  0  0  0  0  0  0
  161.6260  209.0530  151.0040 N   0  0  0  0  0  0  0  0  0  0  0  0
  159.9240  200.5160  144.9400 C   0  0  0  0  0  2  0  0  0  0  0  0
  160.8670  199.6240  145.6740 C   0  0  0  0  0  0  0  0  0  0  0  0
  161.2060  199.9060  146.9900 O   0  0  0  0  0  1  0  0  0  0  0  0
  161.3330  198.6000  145.1100 O   0  0  0  0  0  0  0  0  0  0  0  0
  2 24  1  6  0  0  0
  2 12  1  0  0  0  0
  2 27  1  0  0  0  0
  3  4  1  0  0  0  0
  5  6  1  0  0  0  0
  6 28  1  0  0  0  0
  7 19  1  6  0  0  0
  7 17  1  0  0  0  0
  7 24  1  0  0  0  0
  8 12  1  0  0  0  0
  9 26  1  0  0  0  0
 11  3  2  0  0  0  0
 12 13  1  0  0  0  0
 13 11  1  0  0  0  0
 13 22  2  0  0  0  0
 14 22  1  1  0  0  0
 14 23  1  0  0  0  0
 15  9  2  0  0  0  0
 16 19  1  0  0  0  0
 16  1  1  0  0  0  0
 17 10  1  6  0  0  0
 17  8  1  0  0  0  0
 18  6  2  0  0  0  0
 18 15  1  0  0  0  0
 20  1  1  0  0  0  0
 20 29  1  1  0  0  0
 20 10  1  0  0  0  0
 21  4  2  0  0  0  0
 22 21  1  0  0  0  0
 25  5  2  0  0  0  0
 27  5  1  6  0  0  0
 27 14  1  0  0  0  0
 28 23  1  0  0  0  0
 28  9  1  0  0  0  0
 29 30  1  0  0  0  0
 30 31  1  0  0  0  0
 32 30  2  0  0  0  0
M  END
>  <MODEL>
4

>  <REMARK>
 VINA RESULT:      -5.8      3.583      9.827
  Name = 
  2 active torsions:
  status: ('A' for Active; 'I' for Inactive)
    1  A    between atoms: C_20  and  C_29
    2  A    between atoms: C_29  and  C_30
                            x       y       z     vdW  Elec       q    Type
                         _______ _______ _______ _____ _____    ______ ____

>  <TORSDO>
F 2

$$$$
