=
 OpenBabel11122414333D

 34 40  0  0  1  0  0  0  0  0999 V2000
  161.0220  205.1790  152.2570 C   0  0  0  0  0  0  0  0  0  0  0  0
  160.9400  206.3740  154.5350 C   0  0  0  0  0  2  0  0  0  0  0  0
  162.3740  204.9610  145.7980 C   0  0  2  0  0  3  0  0  0  0  0  0
  161.1610  204.2060  150.0150 C   0  0  0  0  0  0  0  0  0  0  0  0
  161.5130  205.6780  148.1050 C   0  0  0  0  0  0  0  0  0  0  0  0
  160.3930  206.3340  146.0950 O   0  0  0  0  0  1  0  0  0  0  0  0
  162.9920  205.6140  144.5780 C   0  0  0  0  0  1  0  0  0  0  0  0
  160.6020  203.2570  146.4820 C   0  0  0  0  0  2  0  0  0  0  0  0
  161.1320  207.5850  152.5050 C   0  0  0  0  0  0  0  0  0  0  0  0
  161.1020  210.6870  152.3120 C   0  0  0  0  0  3  0  0  0  0  0  0
  161.4940  206.7390  148.9540 N   0  0  0  0  0  0  0  0  0  0  0  0
  161.4010  203.1240  147.7660 C   0  0  0  0  0  2  0  0  0  0  0  0
  161.3160  207.7660  151.1180 C   0  0  0  0  0  0  0  0  0  0  0  0
  161.2340  207.8400  154.8630 C   0  0  0  0  0  2  0  0  0  0  0  0
  161.3260  204.3660  148.6230 C   0  0  0  0  0  0  0  0  0  0  0  0
  161.4760  203.8020  145.3550 C   0  0  0  0  0  2  0  0  0  0  0  0
  161.7950  209.8740  153.3650 C   0  0  2  0  0  3  0  0  0  0  0  0
  161.1580  205.3290  150.8590 C   0  0  2  0  0  3  0  0  0  0  0  0
  161.6400  206.0080  146.6380 C   0  0  2  0  0  3  0  0  0  0  0  0
  161.3220  206.6170  150.2960 C   0  0  0  0  0  0  0  0  0  0  0  0
  160.8610  202.6820  151.9180 C   0  0  0  0  0  3  0  0  0  0  0  0
  161.0480  210.3030  151.0330 C   0  0  0  0  0  3  0  0  0  0  0  0
  160.9870  202.8620  150.6030 C   0  0  0  0  0  3  0  0  0  0  0  0
  161.7520  209.0810  150.5180 C   0  0  0  0  0  2  0  0  0  0  0  0
  160.9550  208.6140  153.5710 C   0  0  1  0  0  3  0  0  0  0  0  0
  160.9020  203.8190  152.9010 C   0  0  0  0  0  3  0  0  0  0  0  0
  161.0240  206.3280  153.0530 C   0  0  0  0  0  0  0  0  0  0  0  0
  161.8700  210.7000  154.6430 C   0  0  0  0  0  2  0  0  0  0  0  0
  160.6600  211.6130  154.7530 C   0  0  0  0  0  2  0  0  0  0  0  0
  158.2070  212.8090  156.3430 O   0  0  0  0  0  0  0  0  0  0  0  0
  158.5950  210.6160  155.6430 C   0  0  0  0  0  2  0  0  0  0  0  0
  159.8750  211.2920  156.0130 C   0  0  2  0  0  3  0  0  0  0  0  0
  157.5720  211.5700  156.1860 C   0  0  0  0  0  2  0  0  0  0  0  0
  159.4930  212.5230  156.6930 N   0  0  0  0  0  2  0  0  0  0  0  0
  1 26  1  0  0  0  0
  1 27  2  0  0  0  0
  2 14  1  0  0  0  0
  3  7  1  6  0  0  0
  3 19  1  0  0  0  0
  4 23  2  0  0  0  0
  5 15  2  0  0  0  0
  5 11  1  0  0  0  0
  8 12  1  0  0  0  0
  9 27  1  0  0  0  0
  9 25  1  0  0  0  0
 10 17  1  0  0  0  0
 11 20  2  0  0  0  0
 12 15  1  0  0  0  0
 13  9  2  0  0  0  0
 15  4  1  0  0  0  0
 16  3  1  0  0  0  0
 16  8  1  0  0  0  0
 17 25  1  0  0  0  0
 17 28  1  1  0  0  0
 18  4  1  1  0  0  0
 18  1  1  0  0  0  0
 19  6  1  6  0  0  0
 19  5  1  0  0  0  0
 20 18  1  0  0  0  0
 20 13  1  0  0  0  0
 21 26  2  0  0  0  0
 22 10  2  0  0  0  0
 23 21  1  0  0  0  0
 24 22  1  0  0  0  0
 24 13  1  0  0  0  0
 25 14  1  1  0  0  0
 27  2  1  0  0  0  0
 28 29  1  0  0  0  0
 30 34  1  0  0  0  0
 31 32  1  0  0  0  0
 31 33  1  0  0  0  0
 32 29  1  6  0  0  0
 32 34  1  0  0  0  0
 33 30  1  0  0  0  0
M  END
>  <MODEL>
1

>  <REMARK>
 VINA RESULT:     -10.3      0.000      0.000
  Name = 
  3 active torsions:
  status: ('A' for Active; 'I' for Inactive)
    1  A    between atoms: C_17  and  C_28
    2  A    between atoms: C_28  and  C_29
    3  A    between atoms: C_29  and  C_32
                            x       y       z     vdW  Elec       q    Type
                         _______ _______ _______ _____ _____    ______ ____

>  <TORSDO>
F 3

$$$$
=
 OpenBabel11122414333D

 34 40  0  0  1  0  0  0  0  0999 V2000
  161.6150  207.5090  149.4970 C   0  0  0  0  0  0  0  0  0  0  0  0
  161.6710  205.7080  147.6600 C   0  0  0  0  0  2  0  0  0  0  0  0
  161.8280  209.4580  155.8030 C   0  0  2  0  0  3  0  0  0  0  0  0
  161.5710  209.0820  151.3730 C   0  0  0  0  0  0  0  0  0  0  0  0
  161.2480  208.2230  153.6320 C   0  0  0  0  0  0  0  0  0  0  0  0
  159.6760  208.3990  155.4260 O   0  0  0  0  0  1  0  0  0  0  0  0
  162.0630  209.1160  157.2610 C   0  0  0  0  0  1  0  0  0  0  0  0
  160.6270  211.1370  154.3030 C   0  0  0  0  0  2  0  0  0  0  0  0
  161.2310  205.1570  149.9250 C   0  0  0  0  0  0  0  0  0  0  0  0
  160.4800  202.3080  150.9150 C   0  0  0  0  0  3  0  0  0  0  0  0
  161.1430  206.9720  153.1110 N   0  0  0  0  0  0  0  0  0  0  0  0
  161.6480  210.7420  153.2500 C   0  0  0  0  0  2  0  0  0  0  0  0
  161.1240  205.3790  151.3140 C   0  0  0  0  0  0  0  0  0  0  0  0
  161.6850  204.1850  147.8070 C   0  0  0  0  0  2  0  0  0  0  0  0
  161.4500  209.3280  152.7570 C   0  0  0  0  0  0  0  0  0  0  0  0
  161.1460  210.8260  155.7040 C   0  0  0  0  0  2  0  0  0  0  0  0
  161.5100  202.6400  149.8750 C   0  0  2  0  0  3  0  0  0  0  0  0
  161.4670  207.7710  150.8780 C   0  0  0  0  0  0  0  0  0  0  0  0
  161.0390  208.3390  155.1210 C   0  0  2  0  0  3  0  0  0  0  0  0
  161.2410  206.7070  151.7820 C   0  0  0  0  0  0  0  0  0  0  0  0
  161.9550  209.9820  149.1210 C   0  0  0  0  0  3  0  0  0  0  0  0
  160.2900  203.0660  151.9990 C   0  0  0  0  0  3  0  0  0  0  0  0
  161.8050  210.1930  150.4280 C   0  0  0  0  0  3  0  0  0  0  0  0
  161.1460  204.2560  152.3220 C   0  0  0  0  0  2  0  0  0  0  0  0
  161.0190  203.8960  149.1560 C   0  0  1  0  0  3  0  0  0  0  0  0
  161.9140  208.6090  148.5090 C   0  0  0  0  0  2  0  0  0  0  0  0
  161.5020  206.1880  149.0550 C   0  0  0  0  0  0  0  0  0  0  0  0
  161.6220  201.4630  148.9140 C   0  0  0  0  0  2  0  0  0  0  0  0
  160.5260  201.5340  147.8630 C   0  0  0  0  0  2  0  0  0  0  0  0
  160.2390  199.5660  145.4090 O   0  0  0  0  0  0  0  0  0  0  0  0
  160.1580  201.8990  145.4590 C   0  0  0  0  0  2  0  0  0  0  0  0
  161.1210  201.3770  146.4740 C   0  0  2  0  0  3  0  0  0  0  0  0
  159.8880  200.6780  144.6310 C   0  0  0  0  0  2  0  0  0  0  0  0
  161.3030  199.9650  146.1630 N   0  0  0  0  0  2  0  0  0  0  0  0
  1 18  1  0  0  0  0
  2 14  1  0  0  0  0
  2 27  1  0  0  0  0
  3  7  1  1  0  0  0
  4 15  1  0  0  0  0
  5 19  1  0  0  0  0
  8 16  1  0  0  0  0
  9 13  2  0  0  0  0
 10 22  2  0  0  0  0
 11  5  1  0  0  0  0
 12  8  1  0  0  0  0
 13 20  1  0  0  0  0
 13 24  1  0  0  0  0
 15 12  1  0  0  0  0
 15  5  2  0  0  0  0
 16  3  1  0  0  0  0
 17 28  1  6  0  0  0
 17 10  1  0  0  0  0
 18  4  2  0  0  0  0
 18 20  1  0  0  0  0
 19  6  1  6  0  0  0
 19  3  1  0  0  0  0
 20 11  2  0  0  0  0
 21 23  2  0  0  0  0
 22 24  1  0  0  0  0
 23  4  1  0  0  0  0
 25 14  1  6  0  0  0
 25 17  1  0  0  0  0
 25  9  1  0  0  0  0
 26 21  1  0  0  0  0
 26  1  1  0  0  0  0
 27  1  2  0  0  0  0
 27  9  1  0  0  0  0
 29 28  1  0  0  0  0
 30 34  1  0  0  0  0
 31 32  1  0  0  0  0
 32 29  1  1  0  0  0
 33 30  1  0  0  0  0
 33 31  1  0  0  0  0
 34 32  1  0  0  0  0
M  END
>  <MODEL>
2

>  <REMARK>
 VINA RESULT:      -9.5      2.426      9.410
  Name = 
  3 active torsions:
  status: ('A' for Active; 'I' for Inactive)
    1  A    between atoms: C_17  and  C_28
    2  A    between atoms: C_28  and  C_29
    3  A    between atoms: C_29  and  C_32
                            x       y       z     vdW  Elec       q    Type
                         _______ _______ _______ _____ _____    ______ ____

>  <TORSDO>
F 3

$$$$
=
 OpenBabel11122414333D

 34 40  0  0  1  0  0  0  0  0999 V2000
  161.6380  208.1500  150.1340 C   0  0  0  0  0  0  0  0  0  0  0  0
  161.7440  210.3870  151.4020 C   0  0  0  0  0  2  0  0  0  0  0  0
  159.9620  201.7840  149.6060 C   0  0  2  0  0  3  0  0  0  0  0  0
  161.4580  205.9460  149.0830 C   0  0  0  0  0  0  0  0  0  0  0  0
  160.8830  204.0200  150.4620 C   0  0  0  0  0  0  0  0  0  0  0  0
  161.8360  201.9330  151.1430 O   0  0  0  0  0  1  0  0  0  0  0  0
  159.2260  200.5850  150.1690 C   0  0  0  0  0  1  0  0  0  0  0  0
  161.9020  202.4130  148.0720 C   0  0  0  0  0  2  0  0  0  0  0  0
  161.3440  208.3390  152.5300 C   0  0  0  0  0  0  0  0  0  0  0  0
  161.1080  208.0610  155.6160 C   0  0  0  0  0  3  0  0  0  0  0  0
  160.8620  204.8370  151.5470 N   0  0  0  0  0  0  0  0  0  0  0  0
  161.1870  203.7440  147.9160 C   0  0  0  0  0  2  0  0  0  0  0  0
  161.0710  206.9600  152.6520 C   0  0  0  0  0  0  0  0  0  0  0  0
  161.3490  210.6910  152.8490 C   0  0  0  0  0  2  0  0  0  0  0  0
  161.2060  204.5620  149.1860 C   0  0  0  0  0  0  0  0  0  0  0  0
  160.9270  201.3240  148.5100 C   0  0  0  0  0  2  0  0  0  0  0  0
  160.5430  209.1730  154.7830 C   0  0  2  0  0  3  0  0  0  0  0  0
  161.4140  206.7580  150.2290 C   0  0  0  0  0  0  0  0  0  0  0  0
  160.6520  202.5540  150.7340 C   0  0  2  0  0  3  0  0  0  0  0  0
  161.1150  206.1710  151.4810 C   0  0  0  0  0  0  0  0  0  0  0  0
  161.9850  207.8690  147.6490 C   0  0  0  0  0  3  0  0  0  0  0  0
  161.1250  206.7920  155.1980 C   0  0  0  0  0  3  0  0  0  0  0  0
  161.7740  206.5590  147.7770 C   0  0  0  0  0  3  0  0  0  0  0  0
  160.4960  206.3510  153.9080 C   0  0  0  0  0  2  0  0  0  0  0  0
  161.4930  209.3650  153.6020 C   0  0  1  0  0  3  0  0  0  0  0  0
  161.9040  208.8220  148.8090 C   0  0  0  0  0  2  0  0  0  0  0  0
  161.5840  208.9140  151.3030 C   0  0  0  0  0  0  0  0  0  0  0  0
  160.4690  210.4310  155.6410 C   0  0  0  0  0  2  0  0  0  0  0  0
  159.0380  210.6850  156.0840 C   0  0  0  0  0  2  0  0  0  0  0  0
  156.4280  212.3840  155.5590 O   0  0  0  0  0  0  0  0  0  0  0  0
  158.5130  212.5050  154.5150 C   0  0  0  0  0  2  0  0  0  0  0  0
  158.1870  211.0970  154.8960 C   0  0  2  0  0  3  0  0  0  0  0  0
  157.1930  213.1900  154.7050 C   0  0  0  0  0  2  0  0  0  0  0  0
  156.7770  211.1000  155.2640 N   0  0  0  0  0  2  0  0  0  0  0  0
  1 18  1  0  0  0  0
  1 27  2  0  0  0  0
  2 14  1  0  0  0  0
  3  7  1  1  0  0  0
  3 19  1  0  0  0  0
  4 15  1  0  0  0  0
  4 18  2  0  0  0  0
  5 19  1  0  0  0  0
  5 11  1  0  0  0  0
  8 16  1  0  0  0  0
  9 13  2  0  0  0  0
  9 25  1  0  0  0  0
 12  8  1  0  0  0  0
 12 15  1  0  0  0  0
 13 24  1  0  0  0  0
 15  5  2  0  0  0  0
 16  3  1  0  0  0  0
 17 10  1  0  0  0  0
 17 28  1  1  0  0  0
 18 20  1  0  0  0  0
 19  6  1  6  0  0  0
 20 11  2  0  0  0  0
 20 13  1  0  0  0  0
 21 23  2  0  0  0  0
 21 26  1  0  0  0  0
 22 10  2  0  0  0  0
 23  4  1  0  0  0  0
 24 22  1  0  0  0  0
 25 14  1  6  0  0  0
 25 17  1  0  0  0  0
 26  1  1  0  0  0  0
 27  2  1  0  0  0  0
 27  9  1  0  0  0  0
 28 29  1  0  0  0  0
 31 33  1  0  0  0  0
 31 32  1  0  0  0  0
 32 34  1  0  0  0  0
 32 29  1  1  0  0  0
 33 30  1  0  0  0  0
 34 30  1  0  0  0  0
M  END
>  <MODEL>
3

>  <REMARK>
 VINA RESULT:      -9.0      1.964      3.895
  Name = 
  3 active torsions:
  status: ('A' for Active; 'I' for Inactive)
    1  A    between atoms: C_17  and  C_28
    2  A    between atoms: C_28  and  C_29
    3  A    between atoms: C_29  and  C_32
                            x       y       z     vdW  Elec       q    Type
                         _______ _______ _______ _____ _____    ______ ____

>  <TORSDO>
F 3

$$$$
=
 OpenBabel11122414333D

 34 40  0  0  1  0  0  0  0  0999 V2000
  160.7140  207.4090  154.0570 C   0  0  0  0  0  0  0  0  0  0  0  0
  161.5690  205.1450  153.1810 C   0  0  0  0  0  2  0  0  0  0  0  0
  158.1360  213.4280  153.2040 C   0  0  2  0  0  3  0  0  0  0  0  0
  159.8750  209.6150  154.7080 C   0  0  0  0  0  0  0  0  0  0  0  0
  159.5920  211.3270  152.9970 C   0  0  0  0  0  0  0  0  0  0  0  0
  160.4420  213.4950  152.4480 O   0  0  0  0  0  1  0  0  0  0  0  0
  157.5040  214.4510  152.2810 C   0  0  0  0  0  1  0  0  0  0  0  0
  159.4500  213.2290  155.3820 C   0  0  0  0  0  2  0  0  0  0  0  0
  161.3390  207.0220  151.7500 C   0  0  0  0  0  0  0  0  0  0  0  0
  162.2070  207.0600  148.7660 C   0  0  0  0  0  3  0  0  0  0  0  0
  160.0740  210.4500  152.0780 N   0  0  0  0  0  0  0  0  0  0  0  0
  158.9100  211.8110  155.4360 C   0  0  0  0  0  2  0  0  0  0  0  0
  160.9500  208.3260  151.3770 C   0  0  0  0  0  0  0  0  0  0  0  0
  161.7700  204.6880  151.7350 C   0  0  0  0  0  2  0  0  0  0  0  0
  159.4970  210.9290  154.3600 C   0  0  0  0  0  0  0  0  0  0  0  0
  158.5660  214.1120  154.5050 C   0  0  0  0  0  2  0  0  0  0  0  0
  161.5300  205.9240  149.4750 C   0  0  2  0  0  3  0  0  0  0  0  0
  160.3590  208.7360  153.7250 C   0  0  0  0  0  0  0  0  0  0  0  0
  159.2840  212.7140  152.4880 C   0  0  2  0  0  3  0  0  0  0  0  0
  160.4600  209.1840  152.3870 C   0  0  0  0  0  0  0  0  0  0  0  0
  160.0930  207.9020  156.4540 C   0  0  0  0  0  3  0  0  0  0  0  0
  161.9020  208.3380  149.0090 C   0  0  0  0  0  3  0  0  0  0  0  0
  159.7720  209.1470  156.1060 C   0  0  0  0  0  3  0  0  0  0  0  0
  160.7960  208.7500  149.9360 C   0  0  0  0  0  2  0  0  0  0  0  0
  162.0020  205.9680  150.9270 C   0  0  1  0  0  3  0  0  0  0  0  0
  160.5670  206.8770  155.4610 C   0  0  0  0  0  3  0  0  0  0  0  0
  161.1900  206.5740  153.0430 C   0  0  1  0  0  3  0  0  0  0  0  0
  161.9400  204.6200  148.8020 C   0  0  0  0  0  2  0  0  0  0  0  0
  161.0470  204.3410  147.6040 C   0  0  0  0  0  2  0  0  0  0  0  0
  160.5720  204.0600  144.4950 O   0  0  0  0  0  0  0  0  0  0  0  0
  162.0010  205.4960  145.6540 C   0  0  0  0  0  2  0  0  0  0  0  0
  161.8880  204.1800  146.3500 C   0  0  2  0  0  3  0  0  0  0  0  0
  161.3680  205.2000  144.3270 C   0  0  0  0  0  2  0  0  0  0  0  0
  161.2220  203.2870  145.4100 N   0  0  0  0  0  2  0  0  0  0  0  0
  1 26  2  0  0  0  0
  3  7  1  6  0  0  0
  3 16  1  0  0  0  0
  4 23  1  0  0  0  0
  5 15  1  0  0  0  0
  8 12  1  0  0  0  0
  9 27  1  0  0  0  0
 10 22  2  0  0  0  0
 10 17  1  0  0  0  0
 11 20  1  0  0  0  0
 11  5  2  0  0  0  0
 13  9  2  0  0  0  0
 13 20  1  0  0  0  0
 14  2  1  0  0  0  0
 15  4  2  0  0  0  0
 15 12  1  0  0  0  0
 16  8  1  0  0  0  0
 17 28  1  6  0  0  0
 17 25  1  0  0  0  0
 18  1  1  0  0  0  0
 18  4  1  0  0  0  0
 19  6  1  1  0  0  0
 19  5  1  0  0  0  0
 19  3  1  0  0  0  0
 20 18  2  0  0  0  0
 22 24  1  0  0  0  0
 23 21  2  0  0  0  0
 24 13  1  0  0  0  0
 25 14  1  1  0  0  0
 25  9  1  0  0  0  0
 26 21  1  0  0  0  0
 27  2  1  6  0  0  0
 27  1  1  0  0  0  0
 29 28  1  0  0  0  0
 30 34  1  0  0  0  0
 31 32  1  0  0  0  0
 32 29  1  1  0  0  0
 33 30  1  0  0  0  0
 33 31  1  0  0  0  0
 34 32  1  0  0  0  0
M  END
>  <MODEL>
4

>  <REMARK>
 VINA RESULT:      -7.6      2.287      8.751
  Name = 
  3 active torsions:
  status: ('A' for Active; 'I' for Inactive)
    1  A    between atoms: C_17  and  C_28
    2  A    between atoms: C_28  and  C_29
    3  A    between atoms: C_29  and  C_32
                            x       y       z     vdW  Elec       q    Type
                         _______ _______ _______ _____ _____    ______ ____

>  <TORSDO>
F 3

$$$$
