=
 OpenBabel11122412433D

 30 35  0  0  1  0  0  0  0  0999 V2000
  160.6660  205.7420  149.7860 C   0  0  0  0  0  0  0  0  0  0  0  0
  160.7890  203.3040  149.5960 C   0  0  0  0  0  0  0  0  0  0  0  0
  161.3120  205.5170  153.9540 N   0  0  0  0  0  0  0  0  0  0  0  0
  160.6280  207.0460  150.5810 C   0  0  2  0  0  3  0  0  0  0  0  0
  160.5720  205.9370  148.3090 C   0  0  0  0  0  2  0  0  0  0  0  0
  162.9460  208.7030  148.2410 O   0  0  0  0  0  0  0  0  0  0  0  0
  160.6090  209.7410  151.7420 C   0  0  1  0  0  3  0  0  0  0  0  0
  162.0790  207.9000  148.6830 C   0  0  0  0  0  0  0  0  0  0  0  0
  160.9380  209.0420  152.9690 N   0  0  0  0  0  0  0  0  0  0  0  0
  161.2910  206.7830  154.2420 C   0  0  0  0  0  0  0  0  0  0  0  0
  161.6750  206.7810  147.8760 N   0  0  0  0  0  0  0  0  0  0  0  0
  161.4940  208.0950  149.9940 N   0  0  0  0  0  0  0  0  0  0  0  0
  160.9410  202.0590  150.2100 C   0  0  0  0  0  3  0  0  0  0  0  0
  161.0330  209.9210  154.1150 C   0  0  0  0  0  2  0  0  0  0  0  0
  160.6330  211.2220  152.0920 C   0  0  0  0  0  2  0  0  0  0  0  0
  160.5980  203.3060  148.2530 F   0  0  0  0  0  0  0  0  0  0  0  0
  161.0980  205.4630  152.5460 C   0  0  0  0  0  0  0  0  0  0  0  0
  161.1310  201.9600  151.5840 C   0  0  0  0  0  3  0  0  0  0  0  0
  160.8160  204.5010  150.3650 C   0  0  0  0  0  0  0  0  0  0  0  0
  160.9640  206.7850  152.0160 C   0  0  0  0  0  0  0  0  0  0  0  0
  161.4750  207.2850  155.6310 C   0  0  0  0  0  1  0  0  0  0  0  0
  161.0590  207.6120  153.0440 C   0  0  0  0  0  0  0  0  0  0  0  0
  160.6370  211.2990  153.6120 C   0  0  0  0  0  2  0  0  0  0  0  0
  162.5090  210.1880  150.3500 O   0  0  0  0  0  0  0  0  0  0  0  0
  161.1730  203.1110  152.3630 C   0  0  0  0  0  3  0  0  0  0  0  0
  161.0230  204.3740  151.7770 C   0  0  0  0  0  0  0  0  0  0  0  0
  161.5840  209.3830  150.6500 C   0  0  0  0  0  0  0  0  0  0  0  0
  162.2920  206.5310  146.5790 C   0  0  0  0  0  2  0  0  0  0  0  0
  162.0350  204.3710  145.3550 C   0  0  0  0  0  1  0  0  0  0  0  0
  162.7610  205.0880  146.4780 C   0  0  0  0  0  2  0  0  0  0  0  0
  1 19  2  0  0  0  0
  2 13  2  0  0  0  0
  2 19  1  0  0  0  0
  3 10  2  0  0  0  0
  4  1  1  6  0  0  0
  4 20  1  0  0  0  0
  5  1  1  0  0  0  0
  6  8  2  0  0  0  0
  7 15  1  1  0  0  0
  7  9  1  0  0  0  0
  8 12  1  0  0  0  0
  9 22  1  0  0  0  0
  9 14  1  0  0  0  0
 10 21  1  0  0  0  0
 11  5  1  0  0  0  0
 11  8  1  0  0  0  0
 12  4  1  0  0  0  0
 12 27  1  0  0  0  0
 13 18  1  0  0  0  0
 15 23  1  0  0  0  0
 16  2  1  0  0  0  0
 17  3  1  0  0  0  0
 18 25  2  0  0  0  0
 19 26  1  0  0  0  0
 20 17  1  0  0  0  0
 20 22  2  0  0  0  0
 22 10  1  0  0  0  0
 23 14  1  0  0  0  0
 24 27  2  0  0  0  0
 26 25  1  0  0  0  0
 26 17  2  0  0  0  0
 27  7  1  0  0  0  0
 28 11  1  0  0  0  0
 29 30  1  0  0  0  0
 30 28  1  0  0  0  0
M  END
>  <MODEL>
1

>  <REMARK>
 VINA RESULT:      -9.8      0.000      0.000
  Name = 
  2 active torsions:
  status: ('A' for Active; 'I' for Inactive)
    1  A    between atoms: N_11  and  C_28
    2  A    between atoms: C_28  and  C_30
                            x       y       z     vdW  Elec       q    Type
                         _______ _______ _______ _____ _____    ______ ____

>  <TORSDO>
F 2

$$$$
=
 OpenBabel11122412433D

 30 35  0  0  1  0  0  0  0  0999 V2000
  160.8780  208.0100  151.0650 C   0  0  0  0  0  0  0  0  0  0  0  0
  161.4460  210.3760  150.7980 C   0  0  0  0  0  0  0  0  0  0  0  0
  162.4310  207.1340  147.2370 N   0  0  0  0  0  0  0  0  0  0  0  0
  160.7490  206.5740  150.5590 C   0  0  2  0  0  3  0  0  0  0  0  0
  160.4330  208.1890  152.4790 C   0  0  0  0  0  2  0  0  0  0  0  0
  162.1310  205.1970  153.6890 O   0  0  0  0  0  0  0  0  0  0  0  0
  160.4360  203.7130  149.9840 C   0  0  1  0  0  3  0  0  0  0  0  0
  161.5580  205.9910  152.8930 C   0  0  0  0  0  0  0  0  0  0  0  0
  161.1540  204.0420  148.7670 N   0  0  0  0  0  0  0  0  0  0  0  0
  162.2180  205.8540  147.2080 C   0  0  0  0  0  0  0  0  0  0  0  0
  161.2250  207.3170  153.3350 N   0  0  0  0  0  0  0  0  0  0  0  0
  161.2400  205.5780  151.5410 N   0  0  0  0  0  0  0  0  0  0  0  0
  161.9730  211.4010  150.0110 C   0  0  0  0  0  3  0  0  0  0  0  0
  161.3120  202.9110  147.8790 C   0  0  0  0  0  2  0  0  0  0  0  0
  160.2360  202.2050  149.9490 C   0  0  0  0  0  2  0  0  0  0  0  0
  160.9750  210.7230  152.0230 F   0  0  0  0  0  0  0  0  0  0  0  0
  161.9370  207.5540  148.5070 C   0  0  0  0  0  0  0  0  0  0  0  0
  162.4690  211.1400  148.7380 C   0  0  0  0  0  3  0  0  0  0  0  0
  161.3950  209.0390  150.3120 C   0  0  0  0  0  0  0  0  0  0  0  0
  161.4300  206.4320  149.2340 C   0  0  0  0  0  0  0  0  0  0  0  0
  162.5910  205.0130  146.0370 C   0  0  0  0  0  1  0  0  0  0  0  0
  161.5740  205.3780  148.4470 C   0  0  0  0  0  0  0  0  0  0  0  0
  160.5490  201.7680  148.5260 C   0  0  0  0  0  2  0  0  0  0  0  0
  161.8640  203.3340  151.8710 O   0  0  0  0  0  0  0  0  0  0  0  0
  162.4440  209.8430  148.2370 C   0  0  0  0  0  3  0  0  0  0  0  0
  161.9210  208.7930  149.0020 C   0  0  0  0  0  0  0  0  0  0  0  0
  161.2060  204.1730  151.1950 C   0  0  0  0  0  0  0  0  0  0  0  0
  161.5870  207.7750  154.6710 C   0  0  0  0  0  2  0  0  0  0  0  0
  159.6950  207.2660  156.2170 C   0  0  0  0  0  1  0  0  0  0  0  0
  160.3740  208.3430  155.3910 C   0  0  0  0  0  2  0  0  0  0  0  0
  1  5  1  0  0  0  0
  2 16  1  0  0  0  0
  3 17  1  0  0  0  0
  4 20  1  6  0  0  0
  4  1  1  0  0  0  0
  4 12  1  0  0  0  0
  5 11  1  0  0  0  0
  7 15  1  1  0  0  0
  7 27  1  0  0  0  0
  8 11  1  0  0  0  0
  8  6  2  0  0  0  0
  9  7  1  0  0  0  0
 10  3  2  0  0  0  0
 10 22  1  0  0  0  0
 11 28  1  0  0  0  0
 12  8  1  0  0  0  0
 13  2  2  0  0  0  0
 14 23  1  0  0  0  0
 14  9  1  0  0  0  0
 17 26  2  0  0  0  0
 17 20  1  0  0  0  0
 18 13  1  0  0  0  0
 19  2  1  0  0  0  0
 19  1  2  0  0  0  0
 21 10  1  0  0  0  0
 22  9  1  0  0  0  0
 22 20  2  0  0  0  0
 23 15  1  0  0  0  0
 25 18  2  0  0  0  0
 25 26  1  0  0  0  0
 26 19  1  0  0  0  0
 27 12  1  0  0  0  0
 27 24  2  0  0  0  0
 28 30  1  0  0  0  0
 30 29  1  0  0  0  0
M  END
>  <MODEL>
2

>  <REMARK>
 VINA RESULT:      -7.5      2.633      7.187
  Name = 
  2 active torsions:
  status: ('A' for Active; 'I' for Inactive)
    1  A    between atoms: N_11  and  C_28
    2  A    between atoms: C_28  and  C_30
                            x       y       z     vdW  Elec       q    Type
                         _______ _______ _______ _____ _____    ______ ____

>  <TORSDO>
F 2

$$$$
=
 OpenBabel11122412433D

 30 35  0  0  1  0  0  0  0  0999 V2000
  160.9410  204.6540  148.7920 C   0  0  0  0  0  0  0  0  0  0  0  0
  161.0310  202.2270  148.4780 C   0  0  0  0  0  0  0  0  0  0  0  0
  161.2200  204.1920  152.9810 N   0  0  0  0  0  0  0  0  0  0  0  0
  160.8620  205.9150  149.6510 C   0  0  2  0  0  3  0  0  0  0  0  0
  160.9800  204.9300  147.3250 C   0  0  0  0  0  2  0  0  0  0  0  0
  163.4070  207.6350  147.6110 O   0  0  0  0  0  0  0  0  0  0  0  0
  160.7970  208.5440  150.9530 C   0  0  1  0  0  3  0  0  0  0  0  0
  162.4880  206.8320  147.9330 C   0  0  0  0  0  0  0  0  0  0  0  0
  161.0040  207.7730  152.1630 N   0  0  0  0  0  0  0  0  0  0  0  0
  161.2000  205.4410  153.3350 C   0  0  0  0  0  0  0  0  0  0  0  0
  162.1330  205.7680  147.0350 N   0  0  0  0  0  0  0  0  0  0  0  0
  161.7970  206.9710  149.1990 N   0  0  0  0  0  0  0  0  0  0  0  0
  161.1040  200.9480  149.0340 C   0  0  0  0  0  3  0  0  0  0  0  0
  161.0180  208.5870  153.3600 C   0  0  0  0  0  2  0  0  0  0  0  0
  160.8210  210.0030  151.3850 C   0  0  0  0  0  2  0  0  0  0  0  0
  160.9560  202.3060  147.1260 F   0  0  0  0  0  0  0  0  0  0  0  0
  161.1280  204.2180  151.5580 C   0  0  0  0  0  0  0  0  0  0  0  0
  161.1720  200.7710  150.4110 C   0  0  0  0  0  3  0  0  0  0  0  0
  161.0160  203.3810  149.3120 C   0  0  0  0  0  0  0  0  0  0  0  0
  161.0670  205.5690  151.0930 C   0  0  0  0  0  0  0  0  0  0  0  0
  161.2740  205.8630  154.7610 C   0  0  0  0  0  1  0  0  0  0  0  0
  161.0900  206.3380  152.1690 C   0  0  0  0  0  0  0  0  0  0  0  0
  160.6960  209.9990  152.9020 C   0  0  0  0  0  2  0  0  0  0  0  0
  162.8190  209.0170  149.7550 O   0  0  0  0  0  0  0  0  0  0  0  0
  161.1710  201.8790  151.2530 C   0  0  0  0  0  3  0  0  0  0  0  0
  161.0980  203.1740  150.7270 C   0  0  0  0  0  0  0  0  0  0  0  0
  161.8550  208.2200  149.9300 C   0  0  0  0  0  0  0  0  0  0  0  0
  162.8540  205.5720  145.7830 C   0  0  0  0  0  2  0  0  0  0  0  0
  160.9110  205.7130  144.2220 C   0  0  0  0  0  1  0  0  0  0  0  0
  161.9970  204.8130  144.7830 C   0  0  0  0  0  2  0  0  0  0  0  0
  1 19  2  0  0  0  0
  2 13  2  0  0  0  0
  2 19  1  0  0  0  0
  3 10  2  0  0  0  0
  4  1  1  6  0  0  0
  4 20  1  0  0  0  0
  5  1  1  0  0  0  0
  6  8  2  0  0  0  0
  7 15  1  1  0  0  0
  7  9  1  0  0  0  0
  8 12  1  0  0  0  0
  9 22  1  0  0  0  0
  9 14  1  0  0  0  0
 10 21  1  0  0  0  0
 11  5  1  0  0  0  0
 11  8  1  0  0  0  0
 12  4  1  0  0  0  0
 12 27  1  0  0  0  0
 13 18  1  0  0  0  0
 15 23  1  0  0  0  0
 16  2  1  0  0  0  0
 17  3  1  0  0  0  0
 18 25  2  0  0  0  0
 19 26  1  0  0  0  0
 20 17  1  0  0  0  0
 20 22  2  0  0  0  0
 22 10  1  0  0  0  0
 23 14  1  0  0  0  0
 24 27  2  0  0  0  0
 26 25  1  0  0  0  0
 26 17  2  0  0  0  0
 27  7  1  0  0  0  0
 28 11  1  0  0  0  0
 29 30  1  0  0  0  0
 30 28  1  0  0  0  0
M  END
>  <MODEL>
3

>  <REMARK>
 VINA RESULT:      -7.1      1.219      1.549
  Name = 
  2 active torsions:
  status: ('A' for Active; 'I' for Inactive)
    1  A    between atoms: N_11  and  C_28
    2  A    between atoms: C_28  and  C_30
                            x       y       z     vdW  Elec       q    Type
                         _______ _______ _______ _____ _____    ______ ____

>  <TORSDO>
F 2

$$$$
