=
 OpenBabel11122414283D

 34 41  0  0  1  0  0  0  0  0999 V2000
  160.9880  204.8600  152.1410 C   0  0  0  0  0  0  0  0  0  0  0  0
  160.9550  206.2610  154.3120 C   0  0  0  0  0  3  0  0  0  0  0  0
  162.0760  204.3610  145.8100 C   0  0  2  0  0  3  0  0  0  0  0  0
  161.1240  203.7300  149.9730 C   0  0  0  0  0  0  0  0  0  0  0  0
  161.0860  205.0650  147.9270 C   0  0  0  0  0  0  0  0  0  0  0  0
  161.4650  206.3960  145.6980 C   0  0  0  0  0  2  0  0  0  0  0  0
  162.3690  205.4990  144.8580 C   0  0  0  0  0  2  0  0  0  0  0  0
  160.6980  202.3650  146.4080 C   0  0  0  0  0  2  0  0  0  0  0  0
  160.7660  207.3290  152.2240 C   0  0  0  0  0  0  0  0  0  0  0  0
  162.7310  209.3490  151.8790 C   0  0  0  0  0  2  0  0  0  0  0  0
  160.9510  206.2260  148.6920 C   0  0  0  0  0  3  0  0  0  0  0  0
  161.3800  202.4810  147.7880 C   0  0  0  0  0  2  0  0  0  0  0  0
  160.8010  207.4230  150.8870 C   0  0  0  0  0  0  0  0  0  0  0  0
  161.0040  207.7830  154.5380 C   0  0  0  0  0  3  0  0  0  0  0  0
  161.1460  203.7860  148.5610 C   0  0  0  0  0  0  0  0  0  0  0  0
  161.4780  203.0730  145.2790 C   0  0  0  0  0  2  0  0  0  0  0  0
  161.6990  209.5160  152.9120 N   0  0  0  0  0  0  0  0  0  0  0  0
  161.0090  204.9200  150.7310 C   0  0  0  0  0  0  0  0  0  0  0  0
  160.9730  205.1640  146.4370 C   0  0  1  0  0  3  0  0  0  0  0  0
  160.9240  206.1740  150.0850 C   0  0  0  0  0  0  0  0  0  0  0  0
  161.2000  202.4510  152.0480 C   0  0  0  0  0  3  0  0  0  0  0  0
  162.1510  209.5110  150.4670 C   0  0  0  0  0  2  0  0  0  0  0  0
  161.2190  202.5020  150.6510 C   0  0  0  0  0  3  0  0  0  0  0  0
  160.8200  208.7810  150.2430 C   0  0  0  0  0  2  0  0  0  0  0  0
  160.7140  208.4610  153.1900 C   0  0  1  0  0  3  0  0  0  0  0  0
  161.0850  203.6260  152.7930 C   0  0  0  0  0  3  0  0  0  0  0  0
  160.8680  206.0830  152.8770 N   0  0  0  0  0  0  0  0  0  0  0  0
  161.5690  210.7310  153.6090 N   0  0  0  0  0  0  0  0  0  0  0  0
  160.4520  211.1150  154.1390 C   0  0  0  0  0  3  0  0  0  0  0  0
  158.5410  213.6370  155.7240 O   0  0  0  0  0  0  0  0  0  0  0  0
  160.2930  212.1780  156.3500 C   0  0  0  0  0  2  0  0  0  0  0  0
  160.3700  212.4110  154.8690 C   0  0  2  0  0  3  0  0  0  0  0  0
  158.9590  212.7690  156.7430 C   0  0  0  0  0  2  0  0  0  0  0  0
  159.0640  213.0950  154.5420 C   0  0  0  0  0  2  0  0  0  0  0  0
  1 26  1  0  0  0  0
  1 27  1  0  0  0  0
  2 14  2  0  0  0  0
  3  7  1  6  0  0  0
  3 19  1  0  0  0  0
  4 23  2  0  0  0  0
  4 18  1  0  0  0  0
  5 15  2  0  0  0  0
  5 11  1  0  0  0  0
  7  6  1  0  0  0  0
  8 12  1  0  0  0  0
  9 27  1  0  0  0  0
  9 25  1  0  0  0  0
 10 17  1  0  0  0  0
 11 20  2  0  0  0  0
 12 15  1  0  0  0  0
 13  9  2  0  0  0  0
 15  4  1  0  0  0  0
 16  3  1  0  0  0  0
 16  8  1  0  0  0  0
 17 25  1  0  0  0  0
 17 28  1  0  0  0  0
 18  1  2  0  0  0  0
 19  6  1  1  0  0  0
 19  5  1  0  0  0  0
 20 18  1  0  0  0  0
 20 13  1  0  0  0  0
 21 26  2  0  0  0  0
 22 10  1  0  0  0  0
 23 21  1  0  0  0  0
 24 22  1  0  0  0  0
 24 13  1  0  0  0  0
 25 14  1  1  0  0  0
 27  2  1  0  0  0  0
 28 29  2  0  0  0  0
 30 33  1  0  0  0  0
 31 33  1  0  0  0  0
 32 29  1  6  0  0  0
 32 31  1  0  0  0  0
 34 32  1  0  0  0  0
 34 30  1  0  0  0  0
M  END
>  <MODEL>
1

>  <REMARK>
 VINA RESULT:      -8.8      0.000      0.000
  Name = 
  2 active torsions:
  status: ('A' for Active; 'I' for Inactive)
    1  A    between atoms: N_17  and  N_28
    2  A    between atoms: C_29  and  C_32
                            x       y       z     vdW  Elec       q    Type
                         _______ _______ _______ _____ _____    ______ ____

>  <TORSDO>
F 2

$$$$
=
 OpenBabel11122414283D

 34 41  0  0  1  0  0  0  0  0999 V2000
  160.6990  206.9870  154.0840 C   0  0  0  0  0  0  0  0  0  0  0  0
  161.3120  204.6290  153.2220 C   0  0  0  0  0  3  0  0  0  0  0  0
  158.8720  213.0630  152.9620 C   0  0  2  0  0  3  0  0  0  0  0  0
  160.0570  209.2770  154.6650 C   0  0  0  0  0  0  0  0  0  0  0  0
  160.2220  211.0300  152.9700 C   0  0  0  0  0  0  0  0  0  0  0  0
  159.9660  212.8970  151.1450 C   0  0  0  0  0  2  0  0  0  0  0  0
  158.7820  213.7380  151.6120 C   0  0  0  0  0  2  0  0  0  0  0  0
  159.7510  213.0530  155.3010 C   0  0  0  0  0  2  0  0  0  0  0  0
  161.5490  206.4930  151.8070 C   0  0  0  0  0  0  0  0  0  0  0  0
  160.1390  206.1640  149.3650 C   0  0  0  0  0  2  0  0  0  0  0  0
  160.7260  210.0960  152.0610 C   0  0  0  0  0  3  0  0  0  0  0  0
  159.2680  211.5880  155.3280 C   0  0  0  0  0  2  0  0  0  0  0  0
  161.4020  207.7700  151.4250 C   0  0  0  0  0  0  0  0  0  0  0  0
  161.6750  204.1270  151.8130 C   0  0  0  0  0  3  0  0  0  0  0  0
  159.9040  210.6350  154.3060 C   0  0  0  0  0  0  0  0  0  0  0  0
  159.0640  213.9030  154.2100 C   0  0  0  0  0  2  0  0  0  0  0  0
  161.2800  205.2870  149.6620 N   0  0  0  0  0  0  0  0  0  0  0  0
  160.5490  208.3430  153.7220 C   0  0  0  0  0  0  0  0  0  0  0  0
  160.2020  212.4760  152.5850 C   0  0  1  0  0  3  0  0  0  0  0  0
  160.8830  208.7560  152.4120 C   0  0  0  0  0  0  0  0  0  0  0  0
  159.8730  207.4810  156.3040 C   0  0  0  0  0  3  0  0  0  0  0  0
  160.5910  207.5950  149.0440 C   0  0  0  0  0  2  0  0  0  0  0  0
  159.7230  208.8260  155.9540 C   0  0  0  0  0  3  0  0  0  0  0  0
  161.6630  208.1470  149.9940 C   0  0  0  0  0  2  0  0  0  0  0  0
  161.9870  205.3580  150.9490 C   0  0  1  0  0  3  0  0  0  0  0  0
  160.3590  206.5620  155.3720 C   0  0  0  0  0  3  0  0  0  0  0  0
  161.2020  206.0690  153.1060 N   0  0  0  0  0  0  0  0  0  0  0  0
  161.7860  204.4100  148.6860 N   0  0  0  0  0  0  0  0  0  0  0  0
  161.0750  203.4630  148.1630 C   0  0  0  0  0  3  0  0  0  0  0  0
  160.8370  200.6190  146.0700 O   0  0  0  0  0  0  0  0  0  0  0  0
  161.1660  202.9400  145.7620 C   0  0  0  0  0  2  0  0  0  0  0  0
  161.6590  202.5640  147.1290 C   0  0  2  0  0  3  0  0  0  0  0  0
  160.4260  201.7100  145.2910 C   0  0  0  0  0  2  0  0  0  0  0  0
  161.1400  201.1590  147.3270 C   0  0  0  0  0  2  0  0  0  0  0  0
  1 26  1  0  0  0  0
  3  7  1  6  0  0  0
  3 16  1  0  0  0  0
  4 23  2  0  0  0  0
  5 15  2  0  0  0  0
  6  7  1  0  0  0  0
  8 12  1  0  0  0  0
  9 27  1  0  0  0  0
 10 17  1  0  0  0  0
 11 20  2  0  0  0  0
 11  5  1  0  0  0  0
 13  9  2  0  0  0  0
 13 20  1  0  0  0  0
 14  2  2  0  0  0  0
 15  4  1  0  0  0  0
 15 12  1  0  0  0  0
 16  8  1  0  0  0  0
 17 25  1  0  0  0  0
 18  1  2  0  0  0  0
 18  4  1  0  0  0  0
 19  6  1  6  0  0  0
 19  3  1  0  0  0  0
 19  5  1  0  0  0  0
 20 18  1  0  0  0  0
 22 10  1  0  0  0  0
 22 24  1  0  0  0  0
 23 21  1  0  0  0  0
 24 13  1  0  0  0  0
 25  9  1  0  0  0  0
 25 14  1  1  0  0  0
 26 21  2  0  0  0  0
 27  2  1  0  0  0  0
 27  1  1  0  0  0  0
 28 17  1  0  0  0  0
 29 28  2  0  0  0  0
 30 34  1  0  0  0  0
 31 32  1  0  0  0  0
 32 34  1  0  0  0  0
 32 29  1  1  0  0  0
 33 31  1  0  0  0  0
 33 30  1  0  0  0  0
M  END
>  <MODEL>
2

>  <REMARK>
 VINA RESULT:      -8.5      3.305      8.928
  Name = 
  2 active torsions:
  status: ('A' for Active; 'I' for Inactive)
    1  A    between atoms: N_17  and  N_28
    2  A    between atoms: C_29  and  C_32
                            x       y       z     vdW  Elec       q    Type
                         _______ _______ _______ _____ _____    ______ ____

>  <TORSDO>
F 2

$$$$
=
 OpenBabel11122414283D

 34 41  0  0  1  0  0  0  0  0999 V2000
  161.6870  207.6540  149.1640 C   0  0  0  0  0  0  0  0  0  0  0  0
  161.8650  209.9450  150.3460 C   0  0  0  0  0  3  0  0  0  0  0  0
  160.2710  201.3700  149.3080 C   0  0  2  0  0  3  0  0  0  0  0  0
  161.4130  205.3970  148.2540 C   0  0  0  0  0  0  0  0  0  0  0  0
  161.3840  203.4900  149.7810 C   0  0  0  0  0  0  0  0  0  0  0  0
  160.9280  201.4220  151.3310 C   0  0  0  0  0  2  0  0  0  0  0  0
  159.9610  200.5480  150.5390 C   0  0  0  0  0  2  0  0  0  0  0  0
  161.6260  201.7000  147.2340 C   0  0  0  0  0  2  0  0  0  0  0  0
  161.9760  207.9630  151.6080 C   0  0  0  0  0  0  0  0  0  0  0  0
  160.0500  207.9170  153.6930 C   0  0  0  0  0  2  0  0  0  0  0  0
  161.5870  204.3560  150.8590 C   0  0  0  0  0  3  0  0  0  0  0  0
  161.0170  203.1180  147.2300 C   0  0  0  0  0  2  0  0  0  0  0  0
  161.8780  206.6450  151.8320 C   0  0  0  0  0  0  0  0  0  0  0  0
  161.8660  210.3190  151.8390 C   0  0  0  0  0  3  0  0  0  0  0  0
  161.3220  204.0010  148.4480 C   0  0  0  0  0  0  0  0  0  0  0  0
  160.8090  200.6860  148.0660 C   0  0  0  0  0  2  0  0  0  0  0  0
  161.1360  208.9060  153.7360 N   0  0  0  0  0  0  0  0  0  0  0  0
  161.5970  206.2590  149.3620 C   0  0  0  0  0  0  0  0  0  0  0  0
  161.4240  202.0130  150.0230 C   0  0  1  0  0  3  0  0  0  0  0  0
  161.6820  205.7340  150.6710 C   0  0  0  0  0  0  0  0  0  0  0  0
  161.4080  207.3400  146.7810 C   0  0  0  0  0  3  0  0  0  0  0  0
  160.5620  206.4990  153.9790 C   0  0  0  0  0  2  0  0  0  0  0  0
  161.3210  205.9580  146.9680 C   0  0  0  0  0  3  0  0  0  0  0  0
  161.8610  206.1360  153.2470 C   0  0  0  0  0  2  0  0  0  0  0  0
  162.1060  209.0290  152.6390 C   0  0  1  0  0  3  0  0  0  0  0  0
  161.5910  208.1880  147.8750 C   0  0  0  0  0  3  0  0  0  0  0  0
  161.8750  208.4970  150.3070 N   0  0  0  0  0  0  0  0  0  0  0  0
  161.3320  209.7090  154.8750 N   0  0  0  0  0  0  0  0  0  0  0  0
  160.4960  209.7330  155.8630 C   0  0  0  0  0  3  0  0  0  0  0  0
  161.6850  212.7600  157.2610 O   0  0  0  0  0  0  0  0  0  0  0  0
  159.6350  211.5820  157.2360 C   0  0  0  0  0  2  0  0  0  0  0  0
  160.7530  210.5990  157.0480 C   0  0  2  0  0  3  0  0  0  0  0  0
  160.3040  212.9280  157.0870 C   0  0  0  0  0  2  0  0  0  0  0  0
  161.9600  211.4700  156.7860 C   0  0  0  0  0  2  0  0  0  0  0  0
  1 18  1  0  0  0  0
  1 27  1  0  0  0  0
  2 14  2  0  0  0  0
  3 16  1  6  0  0  0
  3 19  1  0  0  0  0
  3  7  1  0  0  0  0
  4 15  2  0  0  0  0
  4 18  1  0  0  0  0
  5 19  1  0  0  0  0
  5 11  2  0  0  0  0
  7  6  1  0  0  0  0
  8 16  1  0  0  0  0
  9 13  2  0  0  0  0
  9 25  1  0  0  0  0
 10 17  1  0  0  0  0
 10 22  1  0  0  0  0
 12  8  1  0  0  0  0
 12 15  1  0  0  0  0
 13 24  1  0  0  0  0
 15  5  1  0  0  0  0
 17 28  1  0  0  0  0
 18 20  2  0  0  0  0
 19  6  1  1  0  0  0
 20 11  1  0  0  0  0
 20 13  1  0  0  0  0
 21 23  2  0  0  0  0
 21 26  1  0  0  0  0
 23  4  1  0  0  0  0
 24 22  1  0  0  0  0
 25 14  1  6  0  0  0
 25 17  1  0  0  0  0
 26  1  2  0  0  0  0
 27  2  1  0  0  0  0
 27  9  1  0  0  0  0
 28 29  2  0  0  0  0
 32 29  1  6  0  0  0
 32 31  1  0  0  0  0
 33 31  1  0  0  0  0
 33 30  1  0  0  0  0
 34 32  1  0  0  0  0
 34 30  1  0  0  0  0
M  END
>  <MODEL>
3

>  <REMARK>
 VINA RESULT:      -7.0      1.621      3.902
  Name = 
  2 active torsions:
  status: ('A' for Active; 'I' for Inactive)
    1  A    between atoms: N_17  and  N_28
    2  A    between atoms: C_29  and  C_32
                            x       y       z     vdW  Elec       q    Type
                         _______ _______ _______ _____ _____    ______ ____

>  <TORSDO>
F 2

$$$$
=
 OpenBabel11122414283D

 34 41  0  0  1  0  0  0  0  0999 V2000
  161.0680  203.9440  151.3260 C   0  0  0  0  0  0  0  0  0  0  0  0
  161.3040  205.2380  153.5500 C   0  0  0  0  0  3  0  0  0  0  0  0
  161.4430  203.7360  144.8970 C   0  0  2  0  0  3  0  0  0  0  0  0
  160.9400  202.9190  149.1050 C   0  0  0  0  0  0  0  0  0  0  0  0
  160.7070  204.3530  147.1410 C   0  0  0  0  0  0  0  0  0  0  0  0
  160.8690  205.7850  144.9480 C   0  0  0  0  0  2  0  0  0  0  0  0
  161.6550  204.9140  143.9720 C   0  0  0  0  0  2  0  0  0  0  0  0
  160.0950  201.7370  145.5500 C   0  0  0  0  0  2  0  0  0  0  0  0
  160.9110  206.4090  151.5480 C   0  0  0  0  0  0  0  0  0  0  0  0
  162.8710  208.4100  151.0830 C   0  0  0  0  0  2  0  0  0  0  0  0
  160.6830  205.4770  147.9700 C   0  0  0  0  0  3  0  0  0  0  0  0
  160.9260  201.7740  146.8490 C   0  0  0  0  0  2  0  0  0  0  0  0
  160.8010  206.5670  150.2210 C   0  0  0  0  0  0  0  0  0  0  0  0
  161.4110  206.7450  153.8400 C   0  0  0  0  0  3  0  0  0  0  0  0
  160.8080  203.0440  147.7040 C   0  0  0  0  0  0  0  0  0  0  0  0
  160.7620  202.4860  144.3750 C   0  0  0  0  0  2  0  0  0  0  0  0
  161.9620  208.5430  152.2300 N   0  0  0  0  0  0  0  0  0  0  0  0
  160.9350  204.0720  149.9260 C   0  0  0  0  0  0  0  0  0  0  0  0
  160.4340  204.5270  145.6790 C   0  0  1  0  0  3  0  0  0  0  0  0
  160.8080  205.3580  149.3530 C   0  0  0  0  0  0  0  0  0  0  0  0
  161.2140  201.5390  151.0970 C   0  0  0  0  0  3  0  0  0  0  0  0
  162.1430  208.6500  149.7530 C   0  0  0  0  0  2  0  0  0  0  0  0
  161.0810  201.6580  149.7110 C   0  0  0  0  0  3  0  0  0  0  0  0
  160.7790  207.9550  149.6430 C   0  0  0  0  0  2  0  0  0  0  0  0
  160.9900  207.4930  152.5660 C   0  0  1  0  0  3  0  0  0  0  0  0
  161.2080  202.6780  151.9050 C   0  0  0  0  0  3  0  0  0  0  0  0
  161.0560  205.1310  152.1270 N   0  0  0  0  0  0  0  0  0  0  0  0
  161.9370  209.7250  152.9930 N   0  0  0  0  0  0  0  0  0  0  0  0
  161.4300  209.7760  154.1830 C   0  0  0  0  0  3  0  0  0  0  0  0
  160.6230  211.6170  157.0960 O   0  0  0  0  0  0  0  0  0  0  0  0
  162.5940  211.0990  155.8980 C   0  0  0  0  0  2  0  0  0  0  0  0
  161.4320  211.0540  154.9500 C   0  0  2  0  0  3  0  0  0  0  0  0
  161.9490  211.1920  157.2610 C   0  0  0  0  0  2  0  0  0  0  0  0
  160.2240  211.1030  155.8550 C   0  0  0  0  0  2  0  0  0  0  0  0
  1 26  1  0  0  0  0
  1 27  1  0  0  0  0
  2 14  2  0  0  0  0
  3  7  1  6  0  0  0
  3 19  1  0  0  0  0
  4 23  2  0  0  0  0
  4 18  1  0  0  0  0
  5 15  2  0  0  0  0
  5 11  1  0  0  0  0
  7  6  1  0  0  0  0
  8 12  1  0  0  0  0
  9 27  1  0  0  0  0
  9 25  1  0  0  0  0
 10 17  1  0  0  0  0
 11 20  2  0  0  0  0
 12 15  1  0  0  0  0
 13  9  2  0  0  0  0
 15  4  1  0  0  0  0
 16  3  1  0  0  0  0
 16  8  1  0  0  0  0
 17 25  1  0  0  0  0
 17 28  1  0  0  0  0
 18  1  2  0  0  0  0
 19  6  1  6  0  0  0
 19  5  1  0  0  0  0
 20 18  1  0  0  0  0
 20 13  1  0  0  0  0
 21 26  2  0  0  0  0
 22 10  1  0  0  0  0
 23 21  1  0  0  0  0
 24 22  1  0  0  0  0
 24 13  1  0  0  0  0
 25 14  1  1  0  0  0
 27  2  1  0  0  0  0
 28 29  2  0  0  0  0
 30 33  1  0  0  0  0
 31 33  1  0  0  0  0
 32 29  1  1  0  0  0
 32 34  1  0  0  0  0
 32 31  1  0  0  0  0
 34 30  1  0  0  0  0
M  END
>  <MODEL>
4

>  <REMARK>
 VINA RESULT:      -6.9      1.291      1.554
  Name = 
  2 active torsions:
  status: ('A' for Active; 'I' for Inactive)
    1  A    between atoms: N_17  and  N_28
    2  A    between atoms: C_29  and  C_32
                            x       y       z     vdW  Elec       q    Type
                         _______ _______ _______ _____ _____    ______ ____

>  <TORSDO>
F 2

$$$$
=
 OpenBabel11122414283D

 34 41  0  0  1  0  0  0  0  0999 V2000
  161.6070  208.0710  149.8220 C   0  0  0  0  0  0  0  0  0  0  0  0
  161.6290  206.4730  147.7910 C   0  0  0  0  0  3  0  0  0  0  0  0
  161.6030  209.0380  156.1920 C   0  0  2  0  0  3  0  0  0  0  0  0
  161.6170  209.3840  151.8890 C   0  0  0  0  0  0  0  0  0  0  0  0
  160.8760  208.3380  153.9700 C   0  0  0  0  0  0  0  0  0  0  0  0
  160.5000  207.2220  156.3150 C   0  0  0  0  0  2  0  0  0  0  0  0
  161.4280  207.9810  157.2590 C   0  0  0  0  0  2  0  0  0  0  0  0
  160.8930  211.2130  155.1880 C   0  0  0  0  0  2  0  0  0  0  0  0
  160.8030  205.7250  149.8640 C   0  0  0  0  0  0  0  0  0  0  0  0
  162.1130  203.3640  150.7430 C   0  0  0  0  0  2  0  0  0  0  0  0
  160.6030  207.1570  153.2740 C   0  0  0  0  0  3  0  0  0  0  0  0
  161.7660  210.7850  153.9900 C   0  0  0  0  0  2  0  0  0  0  0  0
  160.5680  205.7810  151.1820 C   0  0  0  0  0  0  0  0  0  0  0  0
  161.3430  204.9640  147.6850 C   0  0  0  0  0  3  0  0  0  0  0  0
  161.3650  209.4870  153.2760 C   0  0  0  0  0  0  0  0  0  0  0  0
  161.2540  210.4810  156.5000 C   0  0  0  0  0  2  0  0  0  0  0  0
  161.2790  203.3190  149.5330 N   0  0  0  0  0  0  0  0  0  0  0  0
  161.3530  208.1720  151.2070 C   0  0  0  0  0  0  0  0  0  0  0  0
  160.4710  208.4400  155.4070 C   0  0  1  0  0  3  0  0  0  0  0  0
  160.8450  207.0530  151.9050 C   0  0  0  0  0  0  0  0  0  0  0  0
  162.3840  210.3620  149.7920 C   0  0  0  0  0  3  0  0  0  0  0  0
  161.2620  203.5030  152.0130 C   0  0  0  0  0  2  0  0  0  0  0  0
  162.1330  210.4700  151.1630 C   0  0  0  0  0  3  0  0  0  0  0  0
  160.1340  204.5380  151.9080 C   0  0  0  0  0  2  0  0  0  0  0  0
  160.6520  204.5310  148.9870 C   0  0  1  0  0  3  0  0  0  0  0  0
  162.1220  209.1670  149.1210 C   0  0  0  0  0  3  0  0  0  0  0  0
  161.3260  206.8310  149.1620 N   0  0  0  0  0  0  0  0  0  0  0  0
  160.9840  202.0930  148.9090 N   0  0  0  0  0  0  0  0  0  0  0  0
  160.4700  202.0200  147.7240 C   0  0  0  0  0  3  0  0  0  0  0  0
  160.8290  199.7240  145.0530 O   0  0  0  0  0  0  0  0  0  0  0  0
  161.3030  199.7330  147.3690 C   0  0  0  0  0  2  0  0  0  0  0  0
  160.1810  200.6940  147.1070 C   0  0  2  0  0  3  0  0  0  0  0  0
  161.8140  199.3860  145.9910 C   0  0  0  0  0  2  0  0  0  0  0  0
  160.1630  200.8290  145.6030 C   0  0  0  0  0  2  0  0  0  0  0  0
  1 18  1  0  0  0  0
  2 27  1  0  0  0  0
  3 16  1  1  0  0  0
  3  7  1  0  0  0  0
  4 15  1  0  0  0  0
  5 19  1  0  0  0  0
  6  7  1  0  0  0  0
  8 16  1  0  0  0  0
  9 13  2  0  0  0  0
 10 22  1  0  0  0  0
 11  5  1  0  0  0  0
 12  8  1  0  0  0  0
 13 20  1  0  0  0  0
 13 24  1  0  0  0  0
 14  2  2  0  0  0  0
 15  5  2  0  0  0  0
 15 12  1  0  0  0  0
 17 10  1  0  0  0  0
 18  4  2  0  0  0  0
 18 20  1  0  0  0  0
 19  3  1  0  0  0  0
 19  6  1  1  0  0  0
 20 11  2  0  0  0  0
 21 23  2  0  0  0  0
 23  4  1  0  0  0  0
 24 22  1  0  0  0  0
 25 14  1  6  0  0  0
 25 17  1  0  0  0  0
 25  9  1  0  0  0  0
 26 21  1  0  0  0  0
 26  1  2  0  0  0  0
 27  1  1  0  0  0  0
 27  9  1  0  0  0  0
 28 17  1  0  0  0  0
 29 28  2  0  0  0  0
 30 34  1  0  0  0  0
 30 33  1  0  0  0  0
 32 31  1  0  0  0  0
 32 29  1  1  0  0  0
 33 31  1  0  0  0  0
 34 32  1  0  0  0  0
M  END
>  <MODEL>
5

>  <REMARK>
 VINA RESULT:      -6.6      3.650      9.575
  Name = 
  2 active torsions:
  status: ('A' for Active; 'I' for Inactive)
    1  A    between atoms: N_17  and  N_28
    2  A    between atoms: C_29  and  C_32
                            x       y       z     vdW  Elec       q    Type
                         _______ _______ _______ _____ _____    ______ ____

>  <TORSDO>
F 2

$$$$
=
 OpenBabel11122414283D

 34 41  0  0  1  0  0  0  0  0999 V2000
  161.1180  210.5330  151.6540 C   0  0  0  0  0  0  0  0  0  0  0  0
  162.3230  210.5150  149.3680 C   0  0  0  0  0  3  0  0  0  0  0  0
  156.3700  212.6340  155.4680 C   0  0  2  0  0  3  0  0  0  0  0  0
  159.8000  210.6900  153.7120 C   0  0  0  0  0  0  0  0  0  0  0  0
  158.3660  212.6370  154.0650 C   0  0  0  0  0  0  0  0  0  0  0  0
  156.4980  214.4530  154.3710 C   0  0  0  0  0  2  0  0  0  0  0  0
  155.3960  213.7480  155.1570 C   0  0  0  0  0  2  0  0  0  0  0  0
  158.0660  211.6350  157.0060 C   0  0  0  0  0  2  0  0  0  0  0  0
  161.0130  212.3680  149.9880 C   0  0  0  0  0  0  0  0  0  0  0  0
  159.0230  212.9620  148.0530 C   0  0  0  0  0  2  0  0  0  0  0  0
  158.7970  213.1700  152.8460 C   0  0  0  0  0  3  0  0  0  0  0  0
  158.3960  210.7100  155.8160 C   0  0  0  0  0  2  0  0  0  0  0  0
  160.1340  213.0540  150.7320 C   0  0  0  0  0  0  0  0  0  0  0  0
  162.2260  211.4670  148.1630 C   0  0  0  0  0  3  0  0  0  0  0  0
  158.8880  211.3920  154.5320 C   0  0  0  0  0  0  0  0  0  0  0  0
  156.6640  212.2770  156.9120 C   0  0  0  0  0  2  0  0  0  0  0  0
  160.4420  213.1200  147.7010 N   0  0  0  0  0  0  0  0  0  0  0  0
  160.2080  211.2370  152.4710 C   0  0  0  0  0  0  0  0  0  0  0  0
  157.5030  213.4750  154.9550 C   0  0  1  0  0  3  0  0  0  0  0  0
  159.7000  212.4830  152.0370 C   0  0  0  0  0  0  0  0  0  0  0  0
  161.2160  208.7510  153.2880 C   0  0  0  0  0  3  0  0  0  0  0  0
  158.5580  214.0480  149.0320 C   0  0  0  0  0  2  0  0  0  0  0  0
  160.3170  209.4430  154.1040 C   0  0  0  0  0  3  0  0  0  0  0  0
  159.5340  214.3200  150.1850 C   0  0  0  0  0  2  0  0  0  0  0  0
  161.5110  212.7410  148.6360 C   0  0  1  0  0  3  0  0  0  0  0  0
  161.6170  209.2930  152.0650 C   0  0  0  0  0  3  0  0  0  0  0  0
  161.5110  211.1160  150.4060 N   0  0  0  0  0  0  0  0  0  0  0  0
  160.8180  213.7210  146.4860 N   0  0  0  0  0  0  0  0  0  0  0  0
  160.6640  213.1360  145.3410 C   0  0  0  0  0  3  0  0  0  0  0  0
  163.0930  213.7950  142.8520 O   0  0  0  0  0  0  0  0  0  0  0  0
  160.9020  212.9080  142.9050 C   0  0  0  0  0  2  0  0  0  0  0  0
  161.0770  213.8200  144.0830 C   0  0  2  0  0  3  0  0  0  0  0  0
  162.3000  212.7510  142.3550 C   0  0  0  0  0  2  0  0  0  0  0  0
  162.5630  214.0870  144.1170 C   0  0  0  0  0  2  0  0  0  0  0  0
  1 26  2  0  0  0  0
  1 18  1  0  0  0  0
  2 27  1  0  0  0  0
  3  7  1  1  0  0  0
  3 16  1  0  0  0  0
  4 23  1  0  0  0  0
  4 15  1  0  0  0  0
  5 15  2  0  0  0  0
  5 19  1  0  0  0  0
  6  7  1  0  0  0  0
  9 27  1  0  0  0  0
  9 13  2  0  0  0  0
 10 22  1  0  0  0  0
 11  5  1  0  0  0  0
 12  8  1  0  0  0  0
 13 20  1  0  0  0  0
 14  2  2  0  0  0  0
 15 12  1  0  0  0  0
 16  8  1  0  0  0  0
 17 10  1  0  0  0  0
 17 25  1  0  0  0  0
 18  4  2  0  0  0  0
 19  6  1  6  0  0  0
 19  3  1  0  0  0  0
 20 18  1  0  0  0  0
 20 11  2  0  0  0  0
 21 23  2  0  0  0  0
 22 24  1  0  0  0  0
 24 13  1  0  0  0  0
 25 14  1  6  0  0  0
 25  9  1  0  0  0  0
 26 21  1  0  0  0  0
 27  1  1  0  0  0  0
 28 17  1  0  0  0  0
 29 28  2  0  0  0  0
 30 34  1  0  0  0  0
 31 32  1  0  0  0  0
 32 34  1  0  0  0  0
 32 29  1  1  0  0  0
 33 30  1  0  0  0  0
 33 31  1  0  0  0  0
M  END
>  <MODEL>
6

>  <REMARK>
 VINA RESULT:      -6.1      5.306      9.808
  Name = 
  2 active torsions:
  status: ('A' for Active; 'I' for Inactive)
    1  A    between atoms: N_17  and  N_28
    2  A    between atoms: C_29  and  C_32
                            x       y       z     vdW  Elec       q    Type
                         _______ _______ _______ _____ _____    ______ ____

>  <TORSDO>
F 2

$$$$
