=
 OpenBabel11122412343D

 30 35  0  0  1  0  0  0  0  0999 V2000
  161.1190  204.9700  148.5570 C   0  0  1  0  0  3  0  0  0  0  0  0
  161.1910  202.5250  147.8400 C   0  0  0  0  0  0  0  0  0  0  0  0
  161.3320  203.8050  152.4890 C   0  0  0  0  0  2  0  0  0  0  0  0
  161.4070  205.8430  149.7900 C   0  0  1  0  0  3  0  0  0  0  0  0
  162.0850  205.2300  147.5590 O   0  0  0  0  0  0  0  0  0  0  0  0
  161.8170  208.8690  147.5910 O   0  0  0  0  0  1  0  0  0  0  0  0
  160.4860  208.5320  151.4660 C   0  0  1  0  0  3  0  0  0  0  0  0
  162.1010  207.5990  148.1010 C   0  0  2  0  0  3  0  0  0  0  0  0
  160.3920  207.4750  152.5700 C   0  0  2  0  0  3  0  0  0  0  0  0
  161.4100  205.1670  153.0420 C   0  0  0  0  0  0  0  0  0  0  0  0
  161.8710  206.5240  147.0300 C   0  0  2  0  0  3  0  0  0  0  0  0
  161.2720  207.3210  149.3580 C   0  0  2  0  0  3  0  0  0  0  0  0
  161.0640  201.1640  148.1270 C   0  0  0  0  0  3  0  0  0  0  0  0
  161.1250  208.0790  153.7510 C   0  0  0  0  0  2  0  0  0  0  0  0
  160.6540  209.8660  152.1770 C   0  0  0  0  0  2  0  0  0  0  0  0
  161.4430  202.9010  146.5260 O   0  0  0  0  0  1  0  0  0  0  0  0
  160.4190  204.0110  151.2860 C   0  0  1  0  0  3  0  0  0  0  0  0
  160.7620  200.7410  149.4180 C   0  0  0  0  0  3  0  0  0  0  0  0
  161.0500  203.4900  148.8680 C   0  0  0  0  0  0  0  0  0  0  0  0
  160.4470  205.5170  150.9400 C   0  0  1  0  0  3  0  0  0  0  0  0
  161.8790  205.4150  154.1840 O   0  0  0  0  0  0  0  0  0  0  0  0
  160.9170  206.1680  152.1570 N   0  0  0  0  0  0  0  0  0  0  0  0
  160.8640  209.5650  153.6520 C   0  0  0  0  0  2  0  0  0  0  0  0
  163.0070  208.1190  151.0710 C   0  0  0  0  0  1  0  0  0  0  0  0
  160.5720  201.6820  150.4280 C   0  0  0  0  0  3  0  0  0  0  0  0
  160.7080  203.0510  150.1660 C   0  0  0  0  0  0  0  0  0  0  0  0
  161.6260  208.3360  150.4530 C   0  0  2  0  0  3  0  0  0  0  0  0
  160.5270  206.6590  146.3060 C   0  0  0  0  0  2  0  0  0  0  0  0
  161.8510  205.7790  144.5540 F   0  0  0  0  0  0  0  0  0  0  0  0
  160.5500  205.8750  145.0100 C   0  0  0  0  0  2  0  0  0  0  0  0
  1  5  1  6  0  0  0
  1 19  1  0  0  0  0
  1  4  1  0  0  0  0
  2 13  2  0  0  0  0
  2 19  1  0  0  0  0
  3 10  1  0  0  0  0
  4 20  1  0  0  0  0
  6  8  1  0  0  0  0
  7 15  1  0  0  0  0
  7  9  1  0  0  0  0
  8 12  1  0  0  0  0
  9 14  1  0  0  0  0
 10 21  2  0  0  0  0
 11  5  1  0  0  0  0
 11  8  1  0  0  0  0
 12  4  1  0  0  0  0
 12 27  1  0  0  0  0
 13 18  1  0  0  0  0
 15 23  1  0  0  0  0
 16  2  1  0  0  0  0
 17  3  1  0  0  0  0
 18 25  2  0  0  0  0
 19 26  2  0  0  0  0
 20 17  1  0  0  0  0
 20 22  1  0  0  0  0
 22  9  1  0  0  0  0
 22 10  1  0  0  0  0
 23 14  1  0  0  0  0
 26 25  1  0  0  0  0
 26 17  1  0  0  0  0
 27 24  1  0  0  0  0
 27  7  1  0  0  0  0
 28 11  1  0  0  0  0
 29 30  1  0  0  0  0
 30 28  1  0  0  0  0
M  END
>  <MODEL>
1

>  <REMARK>
 VINA RESULT:      -8.0      0.000      0.000
  Name = 
  2 active torsions:
  status: ('A' for Active; 'I' for Inactive)
    1  A    between atoms: C_11  and  C_28
    2  A    between atoms: C_28  and  C_30
                            x       y       z     vdW  Elec       q    Type
                         _______ _______ _______ _____ _____    ______ ____

>  <TORSDO>
F 2

$$$$
=
 OpenBabel11122412343D

 30 35  0  0  1  0  0  0  0  0999 V2000
  161.3050  206.1820  149.9220 C   0  0  1  0  0  3  0  0  0  0  0  0
  161.5130  203.6530  149.6860 C   0  0  0  0  0  0  0  0  0  0  0  0
  161.3690  205.7890  154.0090 C   0  0  0  0  0  2  0  0  0  0  0  0
  161.4950  207.2850  150.9780 C   0  0  1  0  0  3  0  0  0  0  0  0
  162.3070  206.2980  148.9330 O   0  0  0  0  0  0  0  0  0  0  0  0
  161.8890  209.8600  148.2630 O   0  0  0  0  0  1  0  0  0  0  0  0
  160.3820  210.1910  152.0730 C   0  0  1  0  0  3  0  0  0  0  0  0
  162.1990  208.7250  149.0160 C   0  0  2  0  0  3  0  0  0  0  0  0
  160.2770  209.3570  153.3530 C   0  0  2  0  0  3  0  0  0  0  0  0
  161.3640  207.2320  154.2960 C   0  0  0  0  0  0  0  0  0  0  0  0
  162.0670  207.4580  148.1600 C   0  0  2  0  0  3  0  0  0  0  0  0
  161.3210  208.6460  150.2680 C   0  0  2  0  0  3  0  0  0  0  0  0
  161.4270  202.3650  150.2200 C   0  0  0  0  0  3  0  0  0  0  0  0
  160.9250  210.2070  154.4270 C   0  0  0  0  0  2  0  0  0  0  0  0
  160.4600  211.6420  152.5240 C   0  0  0  0  0  2  0  0  0  0  0  0
  161.8130  203.7870  148.3350 O   0  0  0  0  0  1  0  0  0  0  0  0
  160.5090  205.7190  152.7520 C   0  0  1  0  0  3  0  0  0  0  0  0
  161.0790  202.1780  151.5540 C   0  0  0  0  0  3  0  0  0  0  0  0
  161.2810  204.7850  150.5040 C   0  0  0  0  0  0  0  0  0  0  0  0
  160.4930  207.1330  152.1280 C   0  0  1  0  0  3  0  0  0  0  0  0
  161.7650  207.7130  155.3880 O   0  0  0  0  0  0  0  0  0  0  0  0
  160.8740  208.0230  153.2180 N   0  0  0  0  0  0  0  0  0  0  0  0
  160.6090  211.6340  154.0370 C   0  0  0  0  0  2  0  0  0  0  0  0
  162.9340  209.8370  151.8670 C   0  0  0  0  0  1  0  0  0  0  0  0
  160.8010  203.2810  152.3580 C   0  0  0  0  0  3  0  0  0  0  0  0
  160.8930  204.5810  151.8470 C   0  0  0  0  0  0  0  0  0  0  0  0
  161.5780  209.8650  151.1630 C   0  0  2  0  0  3  0  0  0  0  0  0
  160.7560  207.3870  147.3690 C   0  0  0  0  0  2  0  0  0  0  0  0
  159.9860  206.6010  145.2740 F   0  0  0  0  0  0  0  0  0  0  0  0
  160.8350  206.2950  146.3210 C   0  0  0  0  0  2  0  0  0  0  0  0
  1  5  1  6  0  0  0
  1 19  1  0  0  0  0
  1  4  1  0  0  0  0
  2 13  2  0  0  0  0
  2 19  1  0  0  0  0
  3 10  1  0  0  0  0
  4 20  1  0  0  0  0
  6  8  1  0  0  0  0
  7 15  1  0  0  0  0
  7  9  1  0  0  0  0
  8 12  1  0  0  0  0
  9 14  1  0  0  0  0
 10 21  2  0  0  0  0
 11  5  1  0  0  0  0
 11  8  1  0  0  0  0
 12  4  1  0  0  0  0
 12 27  1  0  0  0  0
 13 18  1  0  0  0  0
 15 23  1  0  0  0  0
 16  2  1  0  0  0  0
 17  3  1  0  0  0  0
 18 25  2  0  0  0  0
 19 26  2  0  0  0  0
 20 17  1  0  0  0  0
 20 22  1  0  0  0  0
 22  9  1  0  0  0  0
 22 10  1  0  0  0  0
 23 14  1  0  0  0  0
 26 25  1  0  0  0  0
 26 17  1  0  0  0  0
 27 24  1  0  0  0  0
 27  7  1  0  0  0  0
 28 11  1  0  0  0  0
 29 30  1  0  0  0  0
 30 28  1  0  0  0  0
M  END
>  <MODEL>
2

>  <REMARK>
 VINA RESULT:      -7.0      1.440      2.027
  Name = 
  2 active torsions:
  status: ('A' for Active; 'I' for Inactive)
    1  A    between atoms: C_11  and  C_28
    2  A    between atoms: C_28  and  C_30
                            x       y       z     vdW  Elec       q    Type
                         _______ _______ _______ _____ _____    ______ ____

>  <TORSDO>
F 2

$$$$
=
 OpenBabel11122412343D

 30 35  0  0  1  0  0  0  0  0999 V2000
  161.3730  207.6580  151.4230 C   0  0  1  0  0  3  0  0  0  0  0  0
  161.9850  210.0820  150.9250 C   0  0  0  0  0  0  0  0  0  0  0  0
  162.2730  206.6530  147.5440 C   0  0  0  0  0  2  0  0  0  0  0  0
  161.5560  206.2520  150.8260 C   0  0  1  0  0  3  0  0  0  0  0  0
  162.1340  207.7710  152.6080 O   0  0  0  0  0  0  0  0  0  0  0  0
  160.9620  204.7060  154.2050 O   0  0  0  0  0  1  0  0  0  0  0  0
  160.1630  203.2870  150.4300 C   0  0  1  0  0  3  0  0  0  0  0  0
  161.6080  205.4830  153.2390 C   0  0  2  0  0  3  0  0  0  0  0  0
  160.4520  203.6520  148.9710 C   0  0  2  0  0  3  0  0  0  0  0  0
  162.0630  205.2060  147.7150 C   0  0  0  0  0  0  0  0  0  0  0  0
  161.5480  206.9700  153.6160 C   0  0  2  0  0  3  0  0  0  0  0  0
  161.0090  205.2340  151.8520 C   0  0  2  0  0  3  0  0  0  0  0  0
  162.2350  211.1170  150.0230 C   0  0  0  0  0  3  0  0  0  0  0  0
  161.1260  202.4250  148.3890 C   0  0  0  0  0  2  0  0  0  0  0  0
  160.0620  201.7700  150.4700 C   0  0  0  0  0  2  0  0  0  0  0  0
  161.9980  210.3750  152.2840 O   0  0  0  0  0  1  0  0  0  0  0  0
  161.2200  207.2320  148.4820 C   0  0  1  0  0  3  0  0  0  0  0  0
  162.1830  210.8850  148.6510 C   0  0  0  0  0  3  0  0  0  0  0  0
  161.7110  208.7740  150.4570 C   0  0  0  0  0  0  0  0  0  0  0  0
  160.8320  206.1200  149.4810 C   0  0  1  0  0  3  0  0  0  0  0  0
  162.5680  204.3460  146.9460 O   0  0  0  0  0  0  0  0  0  0  0  0
  161.2440  204.8800  148.8340 N   0  0  0  0  0  0  0  0  0  0  0  0
  160.4910  201.2550  149.1060 C   0  0  0  0  0  2  0  0  0  0  0  0
  162.6530  203.4070  151.1150 C   0  0  0  0  0  1  0  0  0  0  0  0
  161.8660  209.6140  148.1770 C   0  0  0  0  0  3  0  0  0  0  0  0
  161.6260  208.5580  149.0640 C   0  0  0  0  0  0  0  0  0  0  0  0
  161.2060  203.7650  151.4550 C   0  0  2  0  0  3  0  0  0  0  0  0
  160.1460  207.4440  154.0150 C   0  0  0  0  0  2  0  0  0  0  0  0
  159.3610  206.9900  156.2010 F   0  0  0  0  0  0  0  0  0  0  0  0
  160.1340  207.8720  155.4690 C   0  0  0  0  0  2  0  0  0  0  0  0
  1 19  1  6  0  0  0
  1  5  1  0  0  0  0
  2 16  1  0  0  0  0
  3 10  1  0  0  0  0
  3 17  1  0  0  0  0
  4  1  1  0  0  0  0
  4 12  1  0  0  0  0
  5 11  1  0  0  0  0
  7 15  1  0  0  0  0
  7 27  1  0  0  0  0
  8 11  1  0  0  0  0
  8  6  1  0  0  0  0
  9  7  1  0  0  0  0
 10 22  1  0  0  0  0
 11 28  1  0  0  0  0
 12  8  1  0  0  0  0
 13  2  2  0  0  0  0
 14  9  1  0  0  0  0
 14 23  1  0  0  0  0
 17 26  1  0  0  0  0
 17 20  1  0  0  0  0
 18 13  1  0  0  0  0
 19  2  1  0  0  0  0
 20  4  1  0  0  0  0
 21 10  2  0  0  0  0
 22  9  1  0  0  0  0
 22 20  1  0  0  0  0
 23 15  1  0  0  0  0
 24 27  1  0  0  0  0
 25 18  2  0  0  0  0
 25 26  1  0  0  0  0
 26 19  2  0  0  0  0
 27 12  1  0  0  0  0
 28 30  1  0  0  0  0
 30 29  1  0  0  0  0
M  END
>  <MODEL>
3

>  <REMARK>
 VINA RESULT:      -6.5      2.827      7.030
  Name = 
  2 active torsions:
  status: ('A' for Active; 'I' for Inactive)
    1  A    between atoms: C_11  and  C_28
    2  A    between atoms: C_28  and  C_30
                            x       y       z     vdW  Elec       q    Type
                         _______ _______ _______ _____ _____    ______ ____

>  <TORSDO>
F 2

$$$$
=
 OpenBabel11122412343D

 30 35  0  0  1  0  0  0  0  0999 V2000
  161.2260  203.6950  147.9940 C   0  0  1  0  0  3  0  0  0  0  0  0
  160.9190  201.2430  148.6160 C   0  0  0  0  0  0  0  0  0  0  0  0
  161.6420  204.6330  151.9710 C   0  0  0  0  0  2  0  0  0  0  0  0
  161.7350  205.0110  148.6100 C   0  0  1  0  0  3  0  0  0  0  0  0
  162.1230  203.2670  146.9890 O   0  0  0  0  0  0  0  0  0  0  0  0
  162.3300  206.4270  145.1750 O   0  0  0  0  0  1  0  0  0  0  0  0
  161.3220  208.2830  148.7020 C   0  0  1  0  0  3  0  0  0  0  0  0
  162.4940  205.5550  146.2550 C   0  0  2  0  0  3  0  0  0  0  0  0
  161.1930  207.9480  150.1900 C   0  0  2  0  0  3  0  0  0  0  0  0
  161.9450  206.0570  151.7550 C   0  0  0  0  0  0  0  0  0  0  0  0
  162.0310  204.1400  145.8800 C   0  0  2  0  0  3  0  0  0  0  0  0
  161.7520  206.0750  147.4900 C   0  0  2  0  0  3  0  0  0  0  0  0
  160.6440  200.2460  149.5540 C   0  0  0  0  0  3  0  0  0  0  0  0
  162.1010  208.9370  150.8930 C   0  0  0  0  0  2  0  0  0  0  0  0
  161.7240  209.7490  148.6360 C   0  0  0  0  0  2  0  0  0  0  0  0
  161.0970  200.8680  147.2890 O   0  0  0  0  0  1  0  0  0  0  0  0
  160.6580  204.3510  150.8410 C   0  0  1  0  0  3  0  0  0  0  0  0
  160.4080  200.5780  150.8850 C   0  0  0  0  0  3  0  0  0  0  0  0
  160.9960  202.6000  149.0130 C   0  0  0  0  0  0  0  0  0  0  0  0
  160.8480  205.4570  149.7790 C   0  0  1  0  0  3  0  0  0  0  0  0
  162.5420  206.7660  152.6070 O   0  0  0  0  0  0  0  0  0  0  0  0
  161.5060  206.5460  150.4910 N   0  0  0  0  0  0  0  0  0  0  0  0
  162.0260  210.1960  150.0570 C   0  0  0  0  0  2  0  0  0  0  0  0
  163.7230  207.3390  148.5390 C   0  0  0  0  0  1  0  0  0  0  0  0
  160.4320  201.9140  151.2810 C   0  0  0  0  0  3  0  0  0  0  0  0
  160.7190  202.9280  150.3590 C   0  0  0  0  0  0  0  0  0  0  0  0
  162.3310  207.4310  147.9130 C   0  0  2  0  0  3  0  0  0  0  0  0
  160.6550  204.1040  145.2050 C   0  0  0  0  0  2  0  0  0  0  0  0
  159.1060  202.6710  144.1360 F   0  0  0  0  0  0  0  0  0  0  0  0
  160.2670  202.6750  144.8860 C   0  0  0  0  0  2  0  0  0  0  0  0
  1  5  1  6  0  0  0
  1  4  1  0  0  0  0
  1 19  1  0  0  0  0
  2 19  2  0  0  0  0
  2 13  1  0  0  0  0
  4 20  1  0  0  0  0
  6  8  1  0  0  0  0
  7  9  1  0  0  0  0
  8 12  1  0  0  0  0
  9 22  1  0  0  0  0
  9 14  1  0  0  0  0
 10  3  1  0  0  0  0
 10 21  2  0  0  0  0
 11  8  1  0  0  0  0
 11  5  1  0  0  0  0
 12 27  1  0  0  0  0
 12  4  1  0  0  0  0
 13 18  2  0  0  0  0
 15  7  1  0  0  0  0
 15 23  1  0  0  0  0
 16  2  1  0  0  0  0
 17  3  1  0  0  0  0
 18 25  1  0  0  0  0
 19 26  1  0  0  0  0
 20 22  1  0  0  0  0
 20 17  1  0  0  0  0
 22 10  1  0  0  0  0
 23 14  1  0  0  0  0
 26 17  1  0  0  0  0
 26 25  2  0  0  0  0
 27 24  1  0  0  0  0
 27  7  1  0  0  0  0
 28 11  1  0  0  0  0
 29 30  1  0  0  0  0
 30 28  1  0  0  0  0
M  END
>  <MODEL>
4

>  <REMARK>
 VINA RESULT:      -5.6      1.748      2.396
  Name = 
  2 active torsions:
  status: ('A' for Active; 'I' for Inactive)
    1  A    between atoms: C_11  and  C_28
    2  A    between atoms: C_28  and  C_30
                            x       y       z     vdW  Elec       q    Type
                         _______ _______ _______ _____ _____    ______ ____

>  <TORSDO>
F 2

$$$$
=
 OpenBabel11122412343D

 30 35  0  0  1  0  0  0  0  0999 V2000
  161.4900  208.0410  149.2490 C   0  0  1  0  0  3  0  0  0  0  0  0
  161.8350  206.0570  147.6860 C   0  0  0  0  0  0  0  0  0  0  0  0
  161.4790  205.4840  152.4620 C   0  0  0  0  0  2  0  0  0  0  0  0
  161.5990  208.3940  150.7420 C   0  0  1  0  0  3  0  0  0  0  0  0
  162.5090  208.7080  148.5310 O   0  0  0  0  0  0  0  0  0  0  0  0
  161.9230  212.0440  149.8870 O   0  0  0  0  0  1  0  0  0  0  0  0
  160.3110  210.1970  153.1870 C   0  0  1  0  0  3  0  0  0  0  0  0
  162.2740  210.6920  149.9150 C   0  0  2  0  0  3  0  0  0  0  0  0
  160.2190  208.7980  153.8010 C   0  0  2  0  0  3  0  0  0  0  0  0
  161.3920  206.5360  153.4880 C   0  0  0  0  0  0  0  0  0  0  0  0
  162.2270  210.0940  148.5030 C   0  0  2  0  0  3  0  0  0  0  0  0
  161.3710  209.9170  150.8800 C   0  0  2  0  0  3  0  0  0  0  0  0
  161.8030  204.6850  147.4290 C   0  0  0  0  0  3  0  0  0  0  0  0
  160.7960  208.9440  155.1940 C   0  0  0  0  0  2  0  0  0  0  0  0
  160.3030  211.1690  154.3580 C   0  0  0  0  0  2  0  0  0  0  0  0
  162.1600  206.9160  146.6420 O   0  0  0  0  0  1  0  0  0  0  0  0
  160.6540  206.0850  151.3300 C   0  0  1  0  0  3  0  0  0  0  0  0
  161.4330  203.7900  148.4290 C   0  0  0  0  0  3  0  0  0  0  0  0
  161.5250  206.5520  148.9760 C   0  0  0  0  0  0  0  0  0  0  0  0
  160.5780  207.6090  151.5760 C   0  0  1  0  0  3  0  0  0  0  0  0
  161.7420  206.3560  154.6840 O   0  0  0  0  0  0  0  0  0  0  0  0
  160.8880  207.7720  152.9910 N   0  0  0  0  0  0  0  0  0  0  0  0
  160.4160  210.3420  155.6280 C   0  0  0  0  0  2  0  0  0  0  0  0
  162.8820  210.0910  152.9450 C   0  0  0  0  0  1  0  0  0  0  0  0
  161.0800  204.2670  149.6890 C   0  0  0  0  0  3  0  0  0  0  0  0
  161.1170  205.6370  149.9720 C   0  0  0  0  0  0  0  0  0  0  0  0
  161.5440  210.4570  152.3050 C   0  0  2  0  0  3  0  0  0  0  0  0
  160.9410  210.4260  147.7390 C   0  0  0  0  0  2  0  0  0  0  0  0
  159.9050  212.5410  147.5110 F   0  0  0  0  0  0  0  0  0  0  0  0
  161.0270  211.8200  147.1500 C   0  0  0  0  0  2  0  0  0  0  0  0
  1  5  1  6  0  0  0
  1  4  1  0  0  0  0
  2 19  1  0  0  0  0
  3 10  1  0  0  0  0
  4 12  1  0  0  0  0
  4 20  1  0  0  0  0
  6  8  1  0  0  0  0
  7  9  1  0  0  0  0
  7 15  1  0  0  0  0
  8 12  1  0  0  0  0
  9 14  1  0  0  0  0
 10 21  2  0  0  0  0
 11  5  1  0  0  0  0
 11  8  1  0  0  0  0
 12 27  1  0  0  0  0
 13  2  2  0  0  0  0
 13 18  1  0  0  0  0
 14 23  1  0  0  0  0
 15 23  1  0  0  0  0
 16  2  1  0  0  0  0
 17 20  1  0  0  0  0
 17  3  1  0  0  0  0
 18 25  2  0  0  0  0
 19  1  1  0  0  0  0
 19 26  2  0  0  0  0
 20 22  1  0  0  0  0
 22 10  1  0  0  0  0
 22  9  1  0  0  0  0
 25 26  1  0  0  0  0
 26 17  1  0  0  0  0
 27 24  1  0  0  0  0
 27  7  1  0  0  0  0
 28 11  1  0  0  0  0
 30 29  1  0  0  0  0
 30 28  1  0  0  0  0
M  END
>  <MODEL>
5

>  <REMARK>
 VINA RESULT:      -5.4      2.279      3.330
  Name = 
  2 active torsions:
  status: ('A' for Active; 'I' for Inactive)
    1  A    between atoms: C_11  and  C_28
    2  A    between atoms: C_28  and  C_30
                            x       y       z     vdW  Elec       q    Type
                         _______ _______ _______ _____ _____    ______ ____

>  <TORSDO>
F 2

$$$$
