=
 OpenBabel11122414213D

 34 40  0  0  1  0  0  0  0  0999 V2000
  160.8800  205.0720  151.9070 C   0  0  0  0  0  0  0  0  0  0  0  0
  160.6260  205.9040  154.2930 C   0  0  0  0  0  2  0  0  0  0  0  0
  160.6680  205.5120  145.8830 C   0  0  1  0  0  3  0  0  0  0  0  0
  161.5630  204.3860  149.6830 C   0  0  0  0  0  0  0  0  0  0  0  0
  162.1350  206.1020  147.9080 C   0  0  1  0  0  3  0  0  0  0  0  0
  159.7930  206.7140  147.7480 O   0  0  0  0  0  1  0  0  0  0  0  0
  160.0910  206.2330  144.6810 C   0  0  0  0  0  1  0  0  0  0  0  0
  161.7360  203.5890  146.1920 C   0  0  0  0  0  2  0  0  0  0  0  0
  160.5810  207.5140  152.4820 C   0  0  2  0  0  3  0  0  0  0  0  0
  162.0140  210.3440  153.1320 C   0  0  0  0  0  2  0  0  0  0  0  0
  162.3890  207.0620  149.0760 C   0  0  0  0  0  2  0  0  0  0  0  0
  162.5440  203.6590  147.4840 C   0  0  0  0  0  2  0  0  0  0  0  0
  161.6090  207.8020  151.3720 C   0  0  1  0  0  3  0  0  0  0  0  0
  160.5040  207.2840  154.9130 C   0  0  0  0  0  2  0  0  0  0  0  0
  162.0290  204.7090  148.3600 N   0  0  0  0  0  0  0  0  0  0  0  0
  161.8170  204.8070  145.5030 O   0  0  0  0  0  0  0  0  0  0  0  0
  162.0500  209.0640  153.9580 C   0  0  2  0  0  3  0  0  0  0  0  0
  161.2830  205.4120  150.6050 C   0  0  0  0  0  0  0  0  0  0  0  0
  160.9570  206.5190  147.0040 C   0  0  2  0  0  3  0  0  0  0  0  0
  161.3500  206.8640  150.1830 C   0  0  2  0  0  3  0  0  0  0  0  0
  161.0630  202.7370  151.3260 C   0  0  0  0  0  3  0  0  0  0  0  0
  162.4880  210.1090  151.7050 C   0  0  0  0  0  2  0  0  0  0  0  0
  161.4480  203.0840  150.0700 N   0  0  0  0  0  0  0  0  0  0  0  0
  161.5030  209.2540  150.9250 C   0  0  0  0  0  2  0  0  0  0  0  0
  160.7180  208.3080  153.7940 C   0  0  1  0  0  3  0  0  0  0  0  0
  160.7760  203.7250  152.2690 C   0  0  0  0  0  3  0  0  0  0  0  0
  160.6280  206.1130  152.8610 N   0  0  0  0  0  0  0  0  0  0  0  0
  162.2680  209.4260  155.3500 N   0  0  0  0  0  2  0  0  0  0  0  0
  162.2830  210.8780  155.4120 C   0  0  0  0  0  2  0  0  0  0  0  0
  159.0190  211.7910  156.3040 N   0  0  0  0  0  2  0  0  0  0  0  0
  160.5190  210.2150  157.0290 C   0  0  0  0  0  2  0  0  0  0  0  0
  161.3490  211.3590  156.5090 C   0  0  0  0  0  3  0  0  0  0  0  0
  159.1660  210.4120  156.5330 N   0  0  0  0  0  2  0  0  0  0  0  0
  160.3290  212.2920  155.9170 C   0  0  0  0  0  2  0  0  0  0  0  0
  1 26  1  0  0  0  0
  1 27  1  0  0  0  0
  2 14  1  0  0  0  0
  3  7  1  6  0  0  0
  3 19  1  0  0  0  0
  4 23  2  0  0  0  0
  4 18  1  0  0  0  0
  5 15  1  0  0  0  0
  5 11  1  1  0  0  0
  8 12  1  0  0  0  0
  9 27  1  1  0  0  0
  9 25  1  0  0  0  0
 10 17  1  0  0  0  0
 12 15  1  0  0  0  0
 13 24  1  6  0  0  0
 13  9  1  0  0  0  0
 15  4  1  0  0  0  0
 16  3  1  0  0  0  0
 16  8  1  0  0  0  0
 17 28  1  1  0  0  0
 18  1  2  0  0  0  0
 19  6  1  1  0  0  0
 19  5  1  0  0  0  0
 20 11  1  6  0  0  0
 20 18  1  0  0  0  0
 20 13  1  0  0  0  0
 21 26  2  0  0  0  0
 22 10  1  0  0  0  0
 23 21  1  0  0  0  0
 24 22  1  0  0  0  0
 25 17  1  0  0  0  0
 25 14  1  1  0  0  0
 27  2  1  0  0  0  0
 28 29  1  0  0  0  0
 29 32  1  0  0  0  0
 30 33  1  0  0  0  0
 32 31  1  0  0  0  0
 33 31  1  0  0  0  0
 34 30  1  0  0  0  0
 34 32  1  0  0  0  0
M  END
>  <MODEL>
1

>  <REMARK>
 VINA RESULT:      -5.6      0.000      0.000
  Name = 
  3 active torsions:
  status: ('A' for Active; 'I' for Inactive)
    1  A    between atoms: C_17  and  N_28
    2  A    between atoms: N_28  and  C_29
    3  A    between atoms: C_29  and  C_32
                            x       y       z     vdW  Elec       q    Type
                         _______ _______ _______ _____ _____    ______ ____

>  <TORSDO>
F 3

$$$$
=
 OpenBabel11122414213D

 34 40  0  0  1  0  0  0  0  0999 V2000
  161.7030  205.5360  147.6290 C   0  0  0  0  0  0  0  0  0  0  0  0
  162.2220  207.5150  149.1350 C   0  0  0  0  0  2  0  0  0  0  0  0
  161.4260  199.6840  146.1480 C   0  0  1  0  0  3  0  0  0  0  0  0
  160.7830  203.6900  146.3530 C   0  0  0  0  0  0  0  0  0  0  0  0
  160.1850  201.4990  147.4770 C   0  0  1  0  0  3  0  0  0  0  0  0
  162.5440  201.0150  147.7820 O   0  0  0  0  0  1  0  0  0  0  0  0
  161.9480  198.2830  146.4000 C   0  0  0  0  0  1  0  0  0  0  0  0
  160.2520  200.6500  144.5290 C   0  0  0  0  0  2  0  0  0  0  0  0
  162.2260  205.2870  150.0890 C   0  0  2  0  0  3  0  0  0  0  0  0
  161.0630  205.0860  153.1040 C   0  0  0  0  0  2  0  0  0  0  0  0
  160.1040  202.3140  148.7730 C   0  0  0  0  0  2  0  0  0  0  0  0
  159.5660  201.8990  145.0750 C   0  0  0  0  0  2  0  0  0  0  0  0
  161.1300  204.2050  150.1140 C   0  0  1  0  0  3  0  0  0  0  0  0
  162.4960  207.6560  150.6210 C   0  0  0  0  0  2  0  0  0  0  0  0
  160.2290  202.3630  146.2910 N   0  0  0  0  0  0  0  0  0  0  0  0
  160.2000  199.6160  145.4730 O   0  0  0  0  0  0  0  0  0  0  0  0
  161.0060  206.2770  152.1540 C   0  0  2  0  0  3  0  0  0  0  0  0
  161.2150  204.2200  147.5840 C   0  0  0  0  0  0  0  0  0  0  0  0
  161.3080  200.4410  147.4760 C   0  0  2  0  0  3  0  0  0  0  0  0
  161.2170  203.3630  148.8320 C   0  0  2  0  0  3  0  0  0  0  0  0
  161.3030  205.7400  145.2590 C   0  0  0  0  0  3  0  0  0  0  0  0
  160.4530  203.8390  152.4830 C   0  0  0  0  0  2  0  0  0  0  0  0
  160.8360  204.4640  145.2330 N   0  0  0  0  0  0  0  0  0  0  0  0
  161.3020  203.3150  151.3370 C   0  0  0  0  0  2  0  0  0  0  0  0
  162.2600  206.2840  151.2610 C   0  0  1  0  0  3  0  0  0  0  0  0
  161.7400  206.3010  146.4590 C   0  0  0  0  0  3  0  0  0  0  0  0
  162.1110  206.0940  148.8870 N   0  0  0  0  0  0  0  0  0  0  0  0
  160.9360  207.4920  152.9520 N   0  0  0  0  0  2  0  0  0  0  0  0
  160.9790  207.0870  154.3460 C   0  0  0  0  0  2  0  0  0  0  0  0
  162.1560  209.7680  156.2710 N   0  0  0  0  0  2  0  0  0  0  0  0
  160.7470  209.5540  154.4740 C   0  0  0  0  0  2  0  0  0  0  0  0
  160.6290  208.2630  155.2400 C   0  0  0  0  0  3  0  0  0  0  0  0
  161.9390  210.2310  154.9610 N   0  0  0  0  0  2  0  0  0  0  0  0
  161.6730  208.3970  156.3150 C   0  0  0  0  0  2  0  0  0  0  0  0
  1 27  1  0  0  0  0
  2 14  1  0  0  0  0
  3  7  1  1  0  0  0
  3 19  1  0  0  0  0
  4 18  2  0  0  0  0
  5 11  1  1  0  0  0
  8 12  1  0  0  0  0
  8 16  1  0  0  0  0
  9 27  1  6  0  0  0
  9 13  1  0  0  0  0
  9 25  1  0  0  0  0
 12 15  1  0  0  0  0
 13 24  1  1  0  0  0
 15  4  1  0  0  0  0
 15  5  1  0  0  0  0
 16  3  1  0  0  0  0
 17 28  1  1  0  0  0
 17 10  1  0  0  0  0
 18  1  1  0  0  0  0
 18 20  1  0  0  0  0
 19  5  1  0  0  0  0
 19  6  1  6  0  0  0
 20 11  1  6  0  0  0
 20 13  1  0  0  0  0
 21 26  1  0  0  0  0
 22 10  1  0  0  0  0
 23 21  2  0  0  0  0
 23  4  1  0  0  0  0
 24 22  1  0  0  0  0
 25 14  1  6  0  0  0
 25 17  1  0  0  0  0
 26  1  2  0  0  0  0
 27  2  1  0  0  0  0
 28 29  1  0  0  0  0
 29 32  1  0  0  0  0
 30 34  1  0  0  0  0
 31 33  1  0  0  0  0
 31 32  1  0  0  0  0
 32 34  1  0  0  0  0
 33 30  1  0  0  0  0
M  END
>  <MODEL>
2

>  <REMARK>
 VINA RESULT:      -5.5      2.413      4.849
  Name = 
  3 active torsions:
  status: ('A' for Active; 'I' for Inactive)
    1  A    between atoms: C_17  and  N_28
    2  A    between atoms: N_28  and  C_29
    3  A    between atoms: C_29  and  C_32
                            x       y       z     vdW  Elec       q    Type
                         _______ _______ _______ _____ _____    ______ ____

>  <TORSDO>
F 3

$$$$
=
 OpenBabel11122414213D

 34 40  0  0  1  0  0  0  0  0999 V2000
  160.7550  207.5290  154.1570 C   0  0  0  0  0  0  0  0  0  0  0  0
  161.8990  205.8300  152.6540 C   0  0  0  0  0  2  0  0  0  0  0  0
  159.6630  213.0420  156.3800 C   0  0  1  0  0  3  0  0  0  0  0  0
  159.3350  209.1460  155.2760 C   0  0  0  0  0  0  0  0  0  0  0  0
  159.1060  211.5100  154.3940 C   0  0  1  0  0  3  0  0  0  0  0  0
  161.3780  211.9900  155.0980 O   0  0  0  0  0  1  0  0  0  0  0  0
  160.1750  214.4530  156.5860 C   0  0  0  0  0  1  0  0  0  0  0  0
  158.0100  211.8350  157.2420 C   0  0  0  0  0  2  0  0  0  0  0  0
  162.1600  208.1890  152.1630 C   0  0  2  0  0  3  0  0  0  0  0  0
  162.2190  208.9330  149.0120 C   0  0  0  0  0  2  0  0  0  0  0  0
  159.5600  210.9340  153.0480 C   0  0  0  0  0  2  0  0  0  0  0  0
  157.6410  210.7140  156.2740 C   0  0  0  0  0  2  0  0  0  0  0  0
  161.1060  209.2820  151.9030 C   0  0  1  0  0  3  0  0  0  0  0  0
  162.7220  205.9430  151.3840 C   0  0  0  0  0  2  0  0  0  0  0  0
  158.7370  210.4540  155.3440 N   0  0  0  0  0  0  0  0  0  0  0  0
  158.2710  213.0170  156.5380 O   0  0  0  0  0  0  0  0  0  0  0  0
  161.8620  207.5980  149.6540 C   0  0  2  0  0  3  0  0  0  0  0  0
  160.2260  208.8280  154.2330 C   0  0  0  0  0  0  0  0  0  0  0  0
  160.0940  212.5280  155.0010 C   0  0  2  0  0  3  0  0  0  0  0  0
  160.6600  209.8880  153.2430 C   0  0  2  0  0  3  0  0  0  0  0  0
  159.4960  206.9270  156.1250 C   0  0  0  0  0  3  0  0  0  0  0  0
  161.3610  210.0670  149.5530 C   0  0  0  0  0  2  0  0  0  0  0  0
  158.9950  208.1890  156.1850 N   0  0  0  0  0  0  0  0  0  0  0  0
  161.6870  210.3670  151.0070 C   0  0  0  0  0  2  0  0  0  0  0  0
  162.6830  207.4100  150.9430 C   0  0  1  0  0  3  0  0  0  0  0  0
  160.3820  206.5730  155.1070 C   0  0  0  0  0  3  0  0  0  0  0  0
  161.6360  207.1890  153.0760 N   0  0  0  0  0  0  0  0  0  0  0  0
  162.1570  206.5400  148.6980 N   0  0  0  0  0  2  0  0  0  0  0  0
  161.6090  206.9610  147.4190 C   0  0  0  0  0  2  0  0  0  0  0  0
  160.8010  205.0730  144.5800 N   0  0  0  0  0  2  0  0  0  0  0  0
  161.5750  204.5900  146.6840 C   0  0  0  0  0  2  0  0  0  0  0  0
  160.7610  205.8490  146.8280 C   0  0  0  0  0  3  0  0  0  0  0  0
  161.8370  204.4130  145.2650 N   0  0  0  0  0  2  0  0  0  0  0  0
  160.4030  206.1990  145.4100 C   0  0  0  0  0  2  0  0  0  0  0  0
  1 18  2  0  0  0  0
  1 26  1  0  0  0  0
  2 27  1  0  0  0  0
  3 16  1  0  0  0  0
  3  7  1  6  0  0  0
  4 15  1  0  0  0  0
  4 23  2  0  0  0  0
  5 11  1  6  0  0  0
  5 19  1  0  0  0  0
  5 15  1  0  0  0  0
  9 27  1  1  0  0  0
 10 22  1  0  0  0  0
 10 17  1  0  0  0  0
 12  8  1  0  0  0  0
 13 24  1  6  0  0  0
 13  9  1  0  0  0  0
 13 20  1  0  0  0  0
 14  2  1  0  0  0  0
 15 12  1  0  0  0  0
 16  8  1  0  0  0  0
 17 28  1  6  0  0  0
 17 25  1  0  0  0  0
 18  4  1  0  0  0  0
 19  6  1  1  0  0  0
 19  3  1  0  0  0  0
 20 11  1  6  0  0  0
 20 18  1  0  0  0  0
 21 23  1  0  0  0  0
 22 24  1  0  0  0  0
 25 14  1  1  0  0  0
 25  9  1  0  0  0  0
 26 21  2  0  0  0  0
 27  1  1  0  0  0  0
 29 28  1  0  0  0  0
 30 33  1  0  0  0  0
 30 34  1  0  0  0  0
 31 32  1  0  0  0  0
 32 29  1  0  0  0  0
 33 31  1  0  0  0  0
 34 32  1  0  0  0  0
M  END
>  <MODEL>
3

>  <REMARK>
 VINA RESULT:      -5.3      3.139      8.687
  Name = 
  3 active torsions:
  status: ('A' for Active; 'I' for Inactive)
    1  A    between atoms: C_17  and  N_28
    2  A    between atoms: N_28  and  C_29
    3  A    between atoms: C_29  and  C_32
                            x       y       z     vdW  Elec       q    Type
                         _______ _______ _______ _____ _____    ______ ____

>  <TORSDO>
F 3

$$$$
=
 OpenBabel11122414213D

 34 40  0  0  1  0  0  0  0  0999 V2000
  161.7930  207.4900  148.8410 C   0  0  0  0  0  0  0  0  0  0  0  0
  162.0150  210.0210  148.8800 C   0  0  0  0  0  2  0  0  0  0  0  0
  162.0750  201.9140  151.1530 C   0  0  1  0  0  3  0  0  0  0  0  0
  161.1400  205.1550  148.8890 C   0  0  0  0  0  0  0  0  0  0  0  0
  160.5810  204.0030  151.0760 C   0  0  1  0  0  3  0  0  0  0  0  0
  162.9230  204.0730  151.7080 O   0  0  0  0  0  1  0  0  0  0  0  0
  162.6640  201.0070  152.2150 C   0  0  0  0  0  1  0  0  0  0  0  0
  161.0110  201.5890  149.2310 C   0  0  0  0  0  2  0  0  0  0  0  0
  162.0750  208.8080  150.9780 C   0  0  2  0  0  3  0  0  0  0  0  0
  160.6230  210.2970  153.4600 C   0  0  0  0  0  2  0  0  0  0  0  0
  160.3100  205.4100  151.6200 C   0  0  0  0  0  2  0  0  0  0  0  0
  160.1870  202.8270  148.8910 C   0  0  0  0  0  2  0  0  0  0  0  0
  161.0590  207.8320  151.6010 C   0  0  1  0  0  3  0  0  0  0  0  0
  162.1240  211.0440  149.9950 C   0  0  0  0  0  2  0  0  0  0  0  0
  160.6880  203.9950  149.6120 N   0  0  0  0  0  0  0  0  0  0  0  0
  160.9340  201.3170  150.6030 O   0  0  0  0  0  0  0  0  0  0  0  0
  160.5820  210.6780  151.9850 C   0  0  2  0  0  3  0  0  0  0  0  0
  161.4050  206.3570  149.5730 C   0  0  0  0  0  0  0  0  0  0  0  0
  161.7690  203.2900  151.7560 C   0  0  2  0  0  3  0  0  0  0  0  0
  161.3360  206.4120  151.0840 C   0  0  2  0  0  3  0  0  0  0  0  0
  161.6270  206.2030  146.8070 C   0  0  0  0  0  3  0  0  0  0  0  0
  160.1680  208.8630  153.6860 C   0  0  0  0  0  2  0  0  0  0  0  0
  161.2550  205.1150  147.5320 N   0  0  0  0  0  0  0  0  0  0  0  0
  161.1650  207.8660  153.1190 C   0  0  0  0  0  2  0  0  0  0  0  0
  161.9190  210.3010  151.3190 C   0  0  1  0  0  3  0  0  0  0  0  0
  161.8980  207.4120  147.4480 C   0  0  0  0  0  3  0  0  0  0  0  0
  162.0300  208.7270  149.5290 N   0  0  0  0  0  0  0  0  0  0  0  0
  160.3460  212.1110  151.8910 N   0  0  0  0  0  2  0  0  0  0  0  0
  158.9060  212.3030  151.8820 C   0  0  0  0  0  2  0  0  0  0  0  0
  159.3630  214.3750  149.0930 N   0  0  0  0  0  2  0  0  0  0  0  0
  157.5560  213.3880  150.1040 C   0  0  0  0  0  2  0  0  0  0  0  0
  158.5630  213.6160  151.2010 C   0  0  0  0  0  3  0  0  0  0  0  0
  158.2620  213.5370  148.8410 N   0  0  0  0  0  2  0  0  0  0  0  0
  159.7720  214.1240  150.4660 C   0  0  0  0  0  2  0  0  0  0  0  0
  1 27  1  0  0  0  0
  1 18  1  0  0  0  0
  2 27  1  0  0  0  0
  2 14  1  0  0  0  0
  3 19  1  0  0  0  0
  3  7  1  1  0  0  0
  4 18  2  0  0  0  0
  4 15  1  0  0  0  0
  5 11  1  1  0  0  0
  5 19  1  0  0  0  0
  8 16  1  0  0  0  0
  9 27  1  6  0  0  0
  9 25  1  0  0  0  0
  9 13  1  0  0  0  0
 10 22  1  0  0  0  0
 12  8  1  0  0  0  0
 12 15  1  0  0  0  0
 13 24  1  1  0  0  0
 15  5  1  0  0  0  0
 16  3  1  0  0  0  0
 17 28  1  1  0  0  0
 17 10  1  0  0  0  0
 18 20  1  0  0  0  0
 19  6  1  6  0  0  0
 20 13  1  0  0  0  0
 20 11  1  6  0  0  0
 21 26  1  0  0  0  0
 21 23  2  0  0  0  0
 23  4  1  0  0  0  0
 24 22  1  0  0  0  0
 25 14  1  6  0  0  0
 25 17  1  0  0  0  0
 26  1  2  0  0  0  0
 29 28  1  0  0  0  0
 30 34  1  0  0  0  0
 31 32  1  0  0  0  0
 32 29  1  0  0  0  0
 33 30  1  0  0  0  0
 33 31  1  0  0  0  0
 34 32  1  0  0  0  0
M  END
>  <MODEL>
4

>  <REMARK>
 VINA RESULT:      -5.1      3.326      5.060
  Name = 
  3 active torsions:
  status: ('A' for Active; 'I' for Inactive)
    1  A    between atoms: C_17  and  N_28
    2  A    between atoms: N_28  and  C_29
    3  A    between atoms: C_29  and  C_32
                            x       y       z     vdW  Elec       q    Type
                         _______ _______ _______ _____ _____    ______ ____

>  <TORSDO>
F 3

$$$$
=
 OpenBabel11122414213D

 34 40  0  0  1  0  0  0  0  0999 V2000
  161.5130  208.4530  150.1410 C   0  0  0  0  0  0  0  0  0  0  0  0
  161.3690  207.1990  147.9360 C   0  0  0  0  0  2  0  0  0  0  0  0
  160.2780  209.4850  155.9660 C   0  0  1  0  0  3  0  0  0  0  0  0
  162.0370  209.4160  152.3040 C   0  0  0  0  0  0  0  0  0  0  0  0
  161.7700  208.0650  154.4310 C   0  0  1  0  0  3  0  0  0  0  0  0
  159.3570  208.1760  154.1960 O   0  0  0  0  0  1  0  0  0  0  0  0
  159.3310  209.2470  157.1250 C   0  0  0  0  0  1  0  0  0  0  0  0
  161.9290  210.9140  155.5600 C   0  0  0  0  0  2  0  0  0  0  0  0
  160.5520  206.1250  149.9490 C   0  0  2  0  0  3  0  0  0  0  0  0
  161.1030  202.9390  150.1200 C   0  0  0  0  0  2  0  0  0  0  0  0
  161.8800  206.8300  153.5290 C   0  0  0  0  0  2  0  0  0  0  0  0
  162.8580  210.3280  154.5000 C   0  0  0  0  0  2  0  0  0  0  0  0
  161.2600  205.8270  151.2840 C   0  0  1  0  0  3  0  0  0  0  0  0
  160.9150  205.8020  147.5550 C   0  0  0  0  0  2  0  0  0  0  0  0
  162.1750  209.2900  153.7320 N   0  0  0  0  0  0  0  0  0  0  0  0
  161.5200  209.9140  156.4510 O   0  0  0  0  0  0  0  0  0  0  0  0
  161.6630  203.9340  149.1110 C   0  0  2  0  0  3  0  0  0  0  0  0
  161.5890  208.3240  151.5370 C   0  0  0  0  0  0  0  0  0  0  0  0
  160.4000  208.2080  155.1240 C   0  0  2  0  0  3  0  0  0  0  0  0
  161.1340  207.0470  152.2100 C   0  0  2  0  0  3  0  0  0  0  0  0
  162.3310  210.7150  150.3310 C   0  0  0  0  0  3  0  0  0  0  0  0
  161.4080  203.3550  151.5510 C   0  0  0  0  0  2  0  0  0  0  0  0
  162.3960  210.5730  151.6810 N   0  0  0  0  0  0  0  0  0  0  0  0
  160.6370  204.6040  151.9450 C   0  0  0  0  0  2  0  0  0  0  0  0
  160.6270  205.0450  148.8550 C   0  0  1  0  0  3  0  0  0  0  0  0
  161.8930  209.6560  149.5350 C   0  0  0  0  0  3  0  0  0  0  0  0
  161.0920  207.3320  149.3500 N   0  0  0  0  0  0  0  0  0  0  0  0
  161.9600  203.2160  147.8800 N   0  0  0  0  0  2  0  0  0  0  0  0
  160.8120  202.3730  147.5940 C   0  0  0  0  0  2  0  0  0  0  0  0
  159.2150  202.4930  144.4770 N   0  0  0  0  0  2  0  0  0  0  0  0
  161.2830  203.0920  145.2650 C   0  0  0  0  0  2  0  0  0  0  0  0
  160.8310  201.9490  146.1350 C   0  0  0  0  0  3  0  0  0  0  0  0
  160.1120  203.5730  144.5520 N   0  0  0  0  0  2  0  0  0  0  0  0
  159.4220  201.6950  145.6750 C   0  0  0  0  0  2  0  0  0  0  0  0
  1 18  1  0  0  0  0
  2 27  1  0  0  0  0
  3 16  1  0  0  0  0
  3  7  1  1  0  0  0
  4 15  1  0  0  0  0
  5 11  1  6  0  0  0
  5 19  1  0  0  0  0
  8 16  1  0  0  0  0
  9 27  1  6  0  0  0
  9 13  1  0  0  0  0
 10 22  1  0  0  0  0
 12  8  1  0  0  0  0
 13 24  1  1  0  0  0
 13 20  1  0  0  0  0
 14  2  1  0  0  0  0
 15  5  1  0  0  0  0
 15 12  1  0  0  0  0
 17 28  1  6  0  0  0
 17 10  1  0  0  0  0
 18 20  1  0  0  0  0
 18  4  2  0  0  0  0
 19  6  1  6  0  0  0
 19  3  1  0  0  0  0
 20 11  1  1  0  0  0
 21 23  2  0  0  0  0
 22 24  1  0  0  0  0
 23  4  1  0  0  0  0
 25 14  1  6  0  0  0
 25 17  1  0  0  0  0
 25  9  1  0  0  0  0
 26  1  2  0  0  0  0
 26 21  1  0  0  0  0
 27  1  1  0  0  0  0
 29 28  1  0  0  0  0
 30 33  1  0  0  0  0
 30 34  1  0  0  0  0
 31 32  1  0  0  0  0
 32 29  1  0  0  0  0
 33 31  1  0  0  0  0
 34 32  1  0  0  0  0
M  END
>  <MODEL>
5

>  <REMARK>
 VINA RESULT:      -5.0      2.738      8.946
  Name = 
  3 active torsions:
  status: ('A' for Active; 'I' for Inactive)
    1  A    between atoms: C_17  and  N_28
    2  A    between atoms: N_28  and  C_29
    3  A    between atoms: C_29  and  C_32
                            x       y       z     vdW  Elec       q    Type
                         _______ _______ _______ _____ _____    ______ ____

>  <TORSDO>
F 3

$$$$
=
 OpenBabel11122414213D

 34 40  0  0  1  0  0  0  0  0999 V2000
  161.7790  207.4850  148.8760 C   0  0  0  0  0  0  0  0  0  0  0  0
  161.9890  210.0160  148.9310 C   0  0  0  0  0  2  0  0  0  0  0  0
  162.0910  201.8960  151.1540 C   0  0  1  0  0  3  0  0  0  0  0  0
  161.1390  205.1460  148.9100 C   0  0  0  0  0  0  0  0  0  0  0  0
  160.5860  203.9770  151.0890 C   0  0  1  0  0  3  0  0  0  0  0  0
  162.9280  204.0560  151.7220 O   0  0  0  0  0  1  0  0  0  0  0  0
  162.6850  200.9860  152.2110 C   0  0  0  0  0  1  0  0  0  0  0  0
  161.0300  201.5770  149.2290 C   0  0  0  0  0  2  0  0  0  0  0  0
  162.0540  208.7920  151.0210 C   0  0  2  0  0  3  0  0  0  0  0  0
  160.5940  210.2560  153.5120 C   0  0  0  0  0  2  0  0  0  0  0  0
  160.3070  205.3800  151.6420 C   0  0  0  0  0  2  0  0  0  0  0  0
  160.1990  202.8140  148.8970 C   0  0  0  0  0  2  0  0  0  0  0  0
  161.0440  207.8060  151.6380 C   0  0  1  0  0  3  0  0  0  0  0  0
  162.0910  211.0340  150.0520 C   0  0  0  0  0  2  0  0  0  0  0  0
  160.6940  203.9790  149.6250 N   0  0  0  0  0  0  0  0  0  0  0  0
  160.9530  201.2960  150.5990 O   0  0  0  0  0  0  0  0  0  0  0  0
  160.5510  210.6460  152.0400 C   0  0  2  0  0  3  0  0  0  0  0  0
  161.3970  206.3450  149.6010 C   0  0  0  0  0  0  0  0  0  0  0  0
  161.7770  203.2670  151.7650 C   0  0  2  0  0  3  0  0  0  0  0  0
  161.3280  206.3900  151.1130 C   0  0  2  0  0  3  0  0  0  0  0  0
  161.6210  206.2090  146.8340 C   0  0  0  0  0  3  0  0  0  0  0  0
  160.1460  208.8190  153.7290 C   0  0  0  0  0  2  0  0  0  0  0  0
  161.2550  205.1150  147.5520 N   0  0  0  0  0  0  0  0  0  0  0  0
  161.1490  207.8310  153.1570 C   0  0  0  0  0  2  0  0  0  0  0  0
  161.8900  210.2810  151.3720 C   0  0  1  0  0  3  0  0  0  0  0  0
  161.8850  207.4160  147.4830 C   0  0  0  0  0  3  0  0  0  0  0  0
  162.0100  208.7190  149.5720 N   0  0  0  0  0  0  0  0  0  0  0  0
  160.3080  212.0790  151.9550 N   0  0  0  0  0  2  0  0  0  0  0  0
  158.8680  212.2660  151.9970 C   0  0  0  0  0  2  0  0  0  0  0  0
  156.3800  214.2760  153.4290 N   0  0  0  0  0  2  0  0  0  0  0  0
  157.7500  212.6020  154.1880 C   0  0  0  0  0  2  0  0  0  0  0  0
  158.5080  213.2750  153.0740 C   0  0  0  0  0  3  0  0  0  0  0  0
  156.3650  213.0300  154.0800 N   0  0  0  0  0  2  0  0  0  0  0  0
  157.5150  214.2590  152.5200 C   0  0  0  0  0  2  0  0  0  0  0  0
  1 27  1  0  0  0  0
  1 18  1  0  0  0  0
  2 27  1  0  0  0  0
  2 14  1  0  0  0  0
  3 19  1  0  0  0  0
  3  7  1  1  0  0  0
  4 18  2  0  0  0  0
  4 15  1  0  0  0  0
  5 11  1  1  0  0  0
  5 19  1  0  0  0  0
  8 16  1  0  0  0  0
  9 27  1  6  0  0  0
  9 25  1  0  0  0  0
  9 13  1  0  0  0  0
 10 22  1  0  0  0  0
 12  8  1  0  0  0  0
 12 15  1  0  0  0  0
 13 24  1  1  0  0  0
 15  5  1  0  0  0  0
 16  3  1  0  0  0  0
 17 28  1  1  0  0  0
 17 10  1  0  0  0  0
 18 20  1  0  0  0  0
 19  6  1  6  0  0  0
 20 13  1  0  0  0  0
 20 11  1  6  0  0  0
 21 26  1  0  0  0  0
 21 23  2  0  0  0  0
 23  4  1  0  0  0  0
 24 22  1  0  0  0  0
 25 14  1  6  0  0  0
 25 17  1  0  0  0  0
 26  1  2  0  0  0  0
 28 29  1  0  0  0  0
 29 32  1  0  0  0  0
 30 33  1  0  0  0  0
 32 31  1  0  0  0  0
 33 31  1  0  0  0  0
 34 32  1  0  0  0  0
 34 30  1  0  0  0  0
M  END
>  <MODEL>
6

>  <REMARK>
 VINA RESULT:      -5.0      2.728      4.566
  Name = 
  3 active torsions:
  status: ('A' for Active; 'I' for Inactive)
    1  A    between atoms: C_17  and  N_28
    2  A    between atoms: N_28  and  C_29
    3  A    between atoms: C_29  and  C_32
                            x       y       z     vdW  Elec       q    Type
                         _______ _______ _______ _____ _____    ______ ____

>  <TORSDO>
F 3

$$$$
=
 OpenBabel11122414213D

 34 40  0  0  1  0  0  0  0  0999 V2000
  161.8720  209.7350  149.9030 C   0  0  0  0  0  0  0  0  0  0  0  0
  161.8650  211.0980  147.7600 C   0  0  0  0  0  2  0  0  0  0  0  0
  161.8080  208.9080  155.8890 C   0  0  1  0  0  3  0  0  0  0  0  0
  161.4300  208.3960  151.8770 C   0  0  0  0  0  0  0  0  0  0  0  0
  160.2650  209.3940  153.8930 C   0  0  1  0  0  3  0  0  0  0  0  0
  162.2450  210.7070  154.3850 O   0  0  0  0  0  1  0  0  0  0  0  0
  162.0770  209.5040  157.2570 C   0  0  0  0  0  1  0  0  0  0  0  0
  161.4800  206.8540  155.1120 C   0  0  0  0  0  2  0  0  0  0  0  0
  161.3150  212.1990  149.8480 C   0  0  2  0  0  3  0  0  0  0  0  0
  159.0000  214.4530  149.6380 C   0  0  0  0  0  2  0  0  0  0  0  0
  159.7150  210.4420  152.9190 C   0  0  0  0  0  2  0  0  0  0  0  0
  160.7220  206.9260  153.7900 C   0  0  0  0  0  2  0  0  0  0  0  0
  160.2300  211.8780  150.8940 C   0  0  1  0  0  3  0  0  0  0  0  0
  161.5110  212.5390  147.4370 C   0  0  0  0  0  2  0  0  0  0  0  0
  160.8560  208.2510  153.1890 N   0  0  0  0  0  0  0  0  0  0  0  0
  160.9690  207.7940  156.0160 O   0  0  0  0  0  0  0  0  0  0  0  0
  159.4260  213.4450  148.5770 C   0  0  2  0  0  3  0  0  0  0  0  0
  161.3530  209.6310  151.2040 C   0  0  0  0  0  0  0  0  0  0  0  0
  161.2080  209.9760  154.9660 C   0  0  2  0  0  3  0  0  0  0  0  0
  160.7770  210.8480  151.8950 C   0  0  2  0  0  3  0  0  0  0  0  0
  162.5010  207.4080  149.9940 C   0  0  0  0  0  3  0  0  0  0  0  0
  158.6120  213.7710  150.9410 C   0  0  0  0  0  2  0  0  0  0  0  0
  161.9960  207.3250  151.2530 N   0  0  0  0  0  0  0  0  0  0  0  0
  159.8180  213.1490  151.6250 C   0  0  0  0  0  2  0  0  0  0  0  0
  160.9340  213.1640  148.7110 C   0  0  1  0  0  3  0  0  0  0  0  0
  162.4440  208.6130  149.2940 C   0  0  0  0  0  3  0  0  0  0  0  0
  161.7650  210.9800  149.1990 N   0  0  0  0  0  0  0  0  0  0  0  0
  159.1210  214.0060  147.2690 N   0  0  0  0  0  2  0  0  0  0  0  0
  158.2940  213.0340  146.5750 C   0  0  0  0  0  2  0  0  0  0  0  0
  160.3460  214.0880  143.9370 N   0  0  0  0  0  2  0  0  0  0  0  0
  159.3520  212.1080  144.5300 C   0  0  0  0  0  2  0  0  0  0  0  0
  158.4590  213.1910  145.0730 C   0  0  0  0  0  3  0  0  0  0  0  0
  160.6210  212.7330  144.1920 N   0  0  0  0  0  2  0  0  0  0  0  0
  159.2240  214.4530  144.7880 C   0  0  0  0  0  2  0  0  0  0  0  0
  1 18  1  0  0  0  0
  2 27  1  0  0  0  0
  3 16  1  0  0  0  0
  3  7  1  1  0  0  0
  4 15  1  0  0  0  0
  5 11  1  6  0  0  0
  5 19  1  0  0  0  0
  8 16  1  0  0  0  0
  9 27  1  6  0  0  0
  9 13  1  0  0  0  0
 10 22  1  0  0  0  0
 12  8  1  0  0  0  0
 13 24  1  1  0  0  0
 13 20  1  0  0  0  0
 14  2  1  0  0  0  0
 15 12  1  0  0  0  0
 15  5  1  0  0  0  0
 17 28  1  6  0  0  0
 17 25  1  0  0  0  0
 17 10  1  0  0  0  0
 18  4  2  0  0  0  0
 18 20  1  0  0  0  0
 19  6  1  6  0  0  0
 19  3  1  0  0  0  0
 20 11  1  1  0  0  0
 21 23  2  0  0  0  0
 22 24  1  0  0  0  0
 23  4  1  0  0  0  0
 25 14  1  6  0  0  0
 25  9  1  0  0  0  0
 26  1  2  0  0  0  0
 26 21  1  0  0  0  0
 27  1  1  0  0  0  0
 29 28  1  0  0  0  0
 30 33  1  0  0  0  0
 30 34  1  0  0  0  0
 31 32  1  0  0  0  0
 32 29  1  0  0  0  0
 33 31  1  0  0  0  0
 34 32  1  0  0  0  0
M  END
>  <MODEL>
7

>  <REMARK>
 VINA RESULT:      -4.8      5.065      8.329
  Name = 
  3 active torsions:
  status: ('A' for Active; 'I' for Inactive)
    1  A    between atoms: C_17  and  N_28
    2  A    between atoms: N_28  and  C_29
    3  A    between atoms: C_29  and  C_32
                            x       y       z     vdW  Elec       q    Type
                         _______ _______ _______ _____ _____    ______ ____

>  <TORSDO>
F 3

$$$$
=
 OpenBabel11122414213D

 34 40  0  0  1  0  0  0  0  0999 V2000
  158.2000  213.7990  148.8660 C   0  0  0  0  0  0  0  0  0  0  0  0
  157.5680  213.6520  151.3220 C   0  0  0  0  0  2  0  0  0  0  0  0
  162.0060  214.1060  144.1810 C   0  0  1  0  0  3  0  0  0  0  0  0
  158.7440  213.4890  146.5230 C   0  0  0  0  0  0  0  0  0  0  0  0
  160.9420  212.4410  145.8230 C   0  0  1  0  0  3  0  0  0  0  0  0
  162.1200  214.4370  146.5410 O   0  0  0  0  0  1  0  0  0  0  0  0
  163.4000  214.4530  143.6970 C   0  0  0  0  0  1  0  0  0  0  0  0
  160.0490  213.7480  143.1940 C   0  0  0  0  0  2  0  0  0  0  0  0
  159.8640  213.2200  150.6770 C   0  0  2  0  0  3  0  0  0  0  0  0
  161.3410  210.8790  152.3570 C   0  0  0  0  0  2  0  0  0  0  0  0
  160.9680  211.8240  147.2260 C   0  0  0  0  0  2  0  0  0  0  0  0
  159.1630  212.9100  144.1120 C   0  0  0  0  0  2  0  0  0  0  0  0
  160.4510  212.2040  149.6790 C   0  0  1  0  0  3  0  0  0  0  0  0
  158.3300  213.2670  152.5770 C   0  0  0  0  0  2  0  0  0  0  0  0
  159.6240  212.9970  145.4950 N   0  0  0  0  0  0  0  0  0  0  0  0
  161.3700  213.2850  143.2410 O   0  0  0  0  0  0  0  0  0  0  0  0
  159.8620  211.2480  152.3640 C   0  0  2  0  0  3  0  0  0  0  0  0
  159.0990  213.3610  147.8800 C   0  0  0  0  0  0  0  0  0  0  0  0
  162.0850  213.4420  145.5620 C   0  0  2  0  0  3  0  0  0  0  0  0
  160.4570  212.8190  148.2710 C   0  0  2  0  0  3  0  0  0  0  0  0
  156.6530  214.4520  147.1340 C   0  0  0  0  0  3  0  0  0  0  0  0
  161.8410  210.5760  150.9530 C   0  0  0  0  0  2  0  0  0  0  0  0
  157.5350  214.0250  146.1920 N   0  0  0  0  0  0  0  0  0  0  0  0
  161.8680  211.8260  150.0900 C   0  0  0  0  0  2  0  0  0  0  0  0
  159.7090  212.7640  152.1390 C   0  0  1  0  0  3  0  0  0  0  0  0
  156.9680  214.3420  148.4880 C   0  0  0  0  0  3  0  0  0  0  0  0
  158.5410  213.6400  150.2510 N   0  0  0  0  0  0  0  0  0  0  0  0
  159.3020  210.8600  153.6500 N   0  0  0  0  0  2  0  0  0  0  0  0
  160.3620  211.0040  154.6340 C   0  0  0  0  0  2  0  0  0  0  0  0
  161.4900  208.0220  156.0860 N   0  0  0  0  0  2  0  0  0  0  0  0
  161.2260  210.1810  156.8110 C   0  0  0  0  0  2  0  0  0  0  0  0
  160.1850  209.9800  155.7410 C   0  0  0  0  0  3  0  0  0  0  0  0
  162.1790  209.0900  156.6880 N   0  0  0  0  0  2  0  0  0  0  0  0
  160.4960  208.6110  155.2030 C   0  0  0  0  0  2  0  0  0  0  0  0
  1 27  1  0  0  0  0
  2 14  1  0  0  0  0
  3  7  1  6  0  0  0
  3 19  1  0  0  0  0
  4 18  1  0  0  0  0
  5 11  1  1  0  0  0
  8 16  1  0  0  0  0
  8 12  1  0  0  0  0
  9 27  1  6  0  0  0
  9 25  1  0  0  0  0
 10 17  1  0  0  0  0
 12 15  1  0  0  0  0
 13 24  1  1  0  0  0
 13  9  1  0  0  0  0
 15  5  1  0  0  0  0
 15  4  1  0  0  0  0
 16  3  1  0  0  0  0
 17 28  1  1  0  0  0
 18 20  1  0  0  0  0
 18  1  2  0  0  0  0
 19  5  1  0  0  0  0
 19  6  1  1  0  0  0
 20 11  1  6  0  0  0
 20 13  1  0  0  0  0
 21 26  2  0  0  0  0
 22 10  1  0  0  0  0
 23  4  2  0  0  0  0
 23 21  1  0  0  0  0
 24 22  1  0  0  0  0
 25 17  1  0  0  0  0
 25 14  1  6  0  0  0
 26  1  1  0  0  0  0
 27  2  1  0  0  0  0
 28 29  1  0  0  0  0
 29 32  1  0  0  0  0
 30 33  1  0  0  0  0
 32 31  1  0  0  0  0
 33 31  1  0  0  0  0
 34 32  1  0  0  0  0
 34 30  1  0  0  0  0
M  END
>  <MODEL>
8

>  <REMARK>
 VINA RESULT:      -4.3      5.668      7.422
  Name = 
  3 active torsions:
  status: ('A' for Active; 'I' for Inactive)
    1  A    between atoms: C_17  and  N_28
    2  A    between atoms: N_28  and  C_29
    3  A    between atoms: C_29  and  C_32
                            x       y       z     vdW  Elec       q    Type
                         _______ _______ _______ _____ _____    ______ ____

>  <TORSDO>
F 3

$$$$
=
 OpenBabel11122414213D

 34 40  0  0  1  0  0  0  0  0999 V2000
  161.0860  211.0700  151.5610 C   0  0  0  0  0  0  0  0  0  0  0  0
  162.0760  211.1910  149.2250 C   0  0  0  0  0  2  0  0  0  0  0  0
  158.2670  213.2270  156.4530 C   0  0  1  0  0  3  0  0  0  0  0  0
  159.7750  210.7800  153.5820 C   0  0  0  0  0  0  0  0  0  0  0  0
  157.8190  212.3060  154.0960 C   0  0  1  0  0  3  0  0  0  0  0  0
  159.3590  214.1290  154.5340 O   0  0  0  0  0  1  0  0  0  0  0  0
  157.8790  214.4500  157.2600 C   0  0  0  0  0  1  0  0  0  0  0  0
  158.3200  211.0420  156.8470 C   0  0  0  0  0  2  0  0  0  0  0  0
  160.6330  212.9870  149.9790 C   0  0  2  0  0  3  0  0  0  0  0  0
  158.6900  214.2270  147.7050 C   0  0  0  0  0  2  0  0  0  0  0  0
  157.7870  212.5890  152.5900 C   0  0  0  0  0  2  0  0  0  0  0  0
  158.2560  210.2850  155.5230 C   0  0  0  0  0  2  0  0  0  0  0  0
  159.1860  212.9550  150.5070 C   0  0  1  0  0  3  0  0  0  0  0  0
  161.9200  212.1650  148.0720 C   0  0  0  0  0  2  0  0  0  0  0  0
  158.6610  211.1470  154.4160 N   0  0  0  0  0  0  0  0  0  0  0  0
  157.4560  212.1440  156.8170 O   0  0  0  0  0  0  0  0  0  0  0  0
  159.5500  212.9710  147.6200 C   0  0  2  0  0  3  0  0  0  0  0  0
  160.0250  211.4800  152.3860 C   0  0  0  0  0  0  0  0  0  0  0  0
  158.1660  213.5400  154.9540 C   0  0  2  0  0  3  0  0  0  0  0  0
  159.2040  212.6990  152.0230 C   0  0  2  0  0  3  0  0  0  0  0  0
  161.5870  209.3040  153.1260 C   0  0  0  0  0  3  0  0  0  0  0  0
  157.7400  214.1820  148.8920 C   0  0  0  0  0  2  0  0  0  0  0  0
  160.5580  209.7150  153.9130 N   0  0  0  0  0  0  0  0  0  0  0  0
  158.4920  214.2770  150.2100 C   0  0  0  0  0  2  0  0  0  0  0  0
  160.8250  213.1640  148.4620 C   0  0  1  0  0  3  0  0  0  0  0  0
  161.8660  209.9700  151.9330 C   0  0  0  0  0  3  0  0  0  0  0  0
  161.3230  211.7570  150.3240 N   0  0  0  0  0  0  0  0  0  0  0  0
  159.8860  212.7430  146.2220 N   0  0  0  0  0  2  0  0  0  0  0  0
  159.2510  213.8020  145.4560 C   0  0  0  0  0  2  0  0  0  0  0  0
  161.6050  212.5790  143.1670 N   0  0  0  0  0  2  0  0  0  0  0  0
  159.4140  213.2430  143.0430 C   0  0  0  0  0  2  0  0  0  0  0  0
  160.0190  214.0410  144.1680 C   0  0  0  0  0  3  0  0  0  0  0  0
  160.3300  212.1520  142.7550 N   0  0  0  0  0  2  0  0  0  0  0  0
  161.4020  213.4660  144.3010 C   0  0  0  0  0  2  0  0  0  0  0  0
  1 26  2  0  0  0  0
  1 18  1  0  0  0  0
  2 27  1  0  0  0  0
  3 16  1  0  0  0  0
  3  7  1  1  0  0  0
  4 23  1  0  0  0  0
  4 15  1  0  0  0  0
  5 11  1  6  0  0  0
  5 15  1  0  0  0  0
  5 19  1  0  0  0  0
  9 27  1  6  0  0  0
  9 13  1  0  0  0  0
 10 22  1  0  0  0  0
 12  8  1  0  0  0  0
 13 24  1  1  0  0  0
 13 20  1  0  0  0  0
 14  2  1  0  0  0  0
 15 12  1  0  0  0  0
 16  8  1  0  0  0  0
 17 28  1  6  0  0  0
 17 10  1  0  0  0  0
 17 25  1  0  0  0  0
 18  4  2  0  0  0  0
 19  6  1  6  0  0  0
 19  3  1  0  0  0  0
 20 18  1  0  0  0  0
 20 11  1  6  0  0  0
 21 23  2  0  0  0  0
 22 24  1  0  0  0  0
 25 14  1  6  0  0  0
 25  9  1  0  0  0  0
 26 21  1  0  0  0  0
 27  1  1  0  0  0  0
 29 28  1  0  0  0  0
 30 34  1  0  0  0  0
 31 32  1  0  0  0  0
 32 34  1  0  0  0  0
 32 29  1  0  0  0  0
 33 31  1  0  0  0  0
 33 30  1  0  0  0  0
M  END
>  <MODEL>
9

>  <REMARK>
 VINA RESULT:      -4.2      5.581      9.845
  Name = 
  3 active torsions:
  status: ('A' for Active; 'I' for Inactive)
    1  A    between atoms: C_17  and  N_28
    2  A    between atoms: N_28  and  C_29
    3  A    between atoms: C_29  and  C_32
                            x       y       z     vdW  Elec       q    Type
                         _______ _______ _______ _____ _____    ______ ____

>  <TORSDO>
F 3

$$$$
