=
 OpenBabel11122413563D

 37 45  0  0  1  0  0  0  0  0999 V2000
  160.5190  210.3930  154.7610 C   0  0  2  0  0  3  0  0  0  0  0  0
  159.3180  213.1380  151.1500 C   0  0  0  0  0  0  0  0  0  0  0  0
  161.7770  209.9950  150.0950 C   0  0  0  0  0  0  0  0  0  0  0  0
  161.1010  210.4050  156.1820 C   0  0  1  0  0  0  0  0  0  0  0  0
  161.1790  206.7800  152.2440 C   0  0  0  0  0  2  0  0  0  0  0  0
  161.0400  212.2100  149.5490 C   0  0  0  0  0  0  0  0  0  0  0  0
  161.7400  209.0470  151.2670 C   0  0  2  0  0  3  0  0  0  0  0  0
  160.6360  208.0100  155.7220 C   0  0  2  0  0  3  0  0  0  0  0  0
  161.2530  211.1910  150.4580 C   0  0  0  0  0  0  0  0  0  0  0  0
  161.1120  207.6540  150.9780 C   0  0  1  0  0  3  0  0  0  0  0  0
  161.4660  212.0400  148.2650 N   0  0  0  0  0  0  0  0  0  0  0  0
  160.0100  209.4020  155.7400 C   0  0  2  0  0  3  0  0  0  0  0  0
  160.7550  211.2000  151.7650 N   0  0  0  0  0  0  0  0  0  0  0  0
  158.1170  212.3900  150.5950 C   0  0  0  0  0  1  0  0  0  0  0  0
  162.6910  208.4800  148.3270 C   0  0  0  0  0  2  0  0  0  0  0  0
  162.0460  210.8650  147.8650 C   0  0  0  0  0  3  0  0  0  0  0  0
  159.9590  212.3120  152.2880 C   0  0  0  0  0  2  0  0  0  0  0  0
  161.3300  207.6660  154.4090 C   0  0  1  0  0  3  0  0  0  0  0  0
  160.3900  207.3300  153.3360 N   0  0  0  0  0  2  0  0  0  0  0  0
  162.2110  209.8060  148.7800 C   0  0  0  0  0  0  0  0  0  0  0  0
  160.8910  209.8520  152.3110 C   0  0  2  0  0  3  0  0  0  0  0  0
  160.3200  213.4450  150.0090 C   0  0  0  0  0  2  0  0  0  0  0  0
  161.8430  206.8930  149.8340 C   0  0  2  0  0  3  0  0  0  0  0  0
  158.8320  214.4500  151.7270 C   0  0  0  0  0  1  0  0  0  0  0  0
  162.2250  208.6950  154.0380 O   0  0  0  0  0  0  0  0  0  0  0  0
  159.6180  206.9590  156.1210 C   0  0  0  0  0  1  0  0  0  0  0  0
  161.5320  209.8880  153.7070 C   0  0  2  0  0  3  0  0  0  0  0  0
  161.6260  207.5160  148.5360 N   0  0  0  0  0  2  0  0  0  0  0  0
  161.0670  211.8810  156.2940 C   0  0  0  0  0  2  0  0  0  0  0  0
  160.3470  211.1000  157.2600 N   0  0  0  0  0  2  0  0  0  0  0  0
  161.0580  204.7260  150.8760 C   0  0  0  0  0  3  0  0  0  0  0  0
  161.4450  205.4470  149.7370 C   0  0  0  0  0  0  0  0  0  0  0  0
  161.4600  204.8160  148.4890 C   0  0  0  0  0  3  0  0  0  0  0  0
  161.1110  202.8480  147.1370 O   0  0  0  0  0  1  0  0  0  0  0  0
  160.7090  202.7540  149.5150 C   0  0  0  0  0  3  0  0  0  0  0  0
  161.0930  203.4710  148.3770 C   0  0  0  0  0  0  0  0  0  0  0  0
  160.6910  203.3810  150.7630 C   0  0  0  0  0  3  0  0  0  0  0  0
  1 12  1  0  0  0  0
  1  4  1  0  0  0  0
  2 24  1  0  0  0  0
  2 17  1  0  0  0  0
  3  9  1  0  0  0  0
  3  7  1  0  0  0  0
  4 29  1  0  0  0  0
  4 30  1  0  0  0  0
  5 19  1  0  0  0  0
  6 22  1  0  0  0  0
  6  9  2  0  0  0  0
  7 21  1  0  0  0  0
  8 12  1  0  0  0  0
  8 26  1  0  0  0  0
  9 13  1  0  0  0  0
 10  7  1  0  0  0  0
 10  5  1  0  0  0  0
 11  6  1  0  0  0  0
 12  4  1  0  0  0  0
 13 17  1  0  0  0  0
 13 21  1  0  0  0  0
 14  2  1  0  0  0  0
 15 28  1  0  0  0  0
 15 20  1  0  0  0  0
 16 11  2  0  0  0  0
 16 20  1  0  0  0  0
 18  8  1  0  0  0  0
 19 18  1  0  0  0  0
 20  3  2  0  0  0  0
 21 27  1  0  0  0  0
 22  2  1  0  0  0  0
 23 10  1  0  0  0  0
 25 18  1  0  0  0  0
 27 25  1  0  0  0  0
 27  1  1  0  0  0  0
 28 23  1  0  0  0  0
 29 30  1  0  0  0  0
 32 23  1  0  0  0  0
 32 31  2  0  0  0  0
 33 32  1  0  0  0  0
 34 36  1  0  0  0  0
 35 37  2  0  0  0  0
 36 33  2  0  0  0  0
 36 35  1  0  0  0  0
 37 31  1  0  0  0  0
M  END
>  <MODEL>
1

>  <REMARK>
 VINA RESULT:      -8.1      0.000      0.000
  Name = 
  1 active torsions:
  status: ('A' for Active; 'I' for Inactive)
    1  A    between atoms: C_23  and  C_30
                            x       y       z     vdW  Elec       q    Type
                         _______ _______ _______ _____ _____    ______ ____

>  <TORSDO>
F 1

$$$$
=
 OpenBabel11122413563D

 37 45  0  0  1  0  0  0  0  0999 V2000
  160.4310  210.0770  154.6640 C   0  0  2  0  0  3  0  0  0  0  0  0
  158.7240  213.4090  151.8370 C   0  0  0  0  0  0  0  0  0  0  0  0
  161.5770  211.0220  150.0480 C   0  0  0  0  0  0  0  0  0  0  0  0
  161.0520  209.8280  156.0460 C   0  0  1  0  0  0  0  0  0  0  0  0
  161.5240  207.3280  151.3370 C   0  0  0  0  0  2  0  0  0  0  0  0
  160.5070  213.1670  150.0620 C   0  0  0  0  0  0  0  0  0  0  0  0
  161.7170  209.8220  150.9500 C   0  0  2  0  0  3  0  0  0  0  0  0
  160.9260  207.5760  155.0090 C   0  0  2  0  0  3  0  0  0  0  0  0
  160.8960  212.0010  150.6930 C   0  0  0  0  0  0  0  0  0  0  0  0
  161.2880  208.4640  150.3250 C   0  0  1  0  0  3  0  0  0  0  0  0
  160.9100  213.3820  148.7780 N   0  0  0  0  0  0  0  0  0  0  0  0
  160.1050  208.8120  155.3670 C   0  0  2  0  0  3  0  0  0  0  0  0
  160.4470  211.6160  151.9600 N   0  0  0  0  0  0  0  0  0  0  0  0
  157.6260  212.6490  151.1100 C   0  0  0  0  0  1  0  0  0  0  0  0
  162.6410  210.1380  147.9640 C   0  0  0  0  0  2  0  0  0  0  0  0
  161.6410  212.4400  148.1020 C   0  0  0  0  0  3  0  0  0  0  0  0
  159.5150  212.4350  152.7380 C   0  0  0  0  0  2  0  0  0  0  0  0
  161.6170  207.6710  153.6530 C   0  0  1  0  0  3  0  0  0  0  0  0
  160.7010  207.4700  152.5270 N   0  0  0  0  0  2  0  0  0  0  0  0
  161.9890  211.2260  148.7290 C   0  0  0  0  0  0  0  0  0  0  0  0
  160.7960  210.2110  152.1580 C   0  0  2  0  0  3  0  0  0  0  0  0
  159.6310  214.1310  150.8100 C   0  0  0  0  0  2  0  0  0  0  0  0
  162.0840  208.1230  149.0310 C   0  0  2  0  0  3  0  0  0  0  0  0
  158.0710  214.4530  152.7180 C   0  0  0  0  0  1  0  0  0  0  0  0
  162.3410  208.8810  153.5510 O   0  0  0  0  0  0  0  0  0  0  0  0
  160.0850  206.3190  155.1320 C   0  0  0  0  0  1  0  0  0  0  0  0
  161.4700  210.0010  153.5220 C   0  0  2  0  0  3  0  0  0  0  0  0
  161.7350  209.0040  147.9250 N   0  0  0  0  0  2  0  0  0  0  0  0
  160.8070  211.2100  156.5180 C   0  0  0  0  0  2  0  0  0  0  0  0
  160.2420  210.1180  157.2600 N   0  0  0  0  0  2  0  0  0  0  0  0
  161.0680  205.8210  149.2890 C   0  0  0  0  0  3  0  0  0  0  0  0
  161.8970  206.7020  148.5790 C   0  0  0  0  0  0  0  0  0  0  0  0
  162.5600  206.2560  147.4310 C   0  0  0  0  0  3  0  0  0  0  0  0
  163.0600  204.4980  145.8560 O   0  0  0  0  0  1  0  0  0  0  0  0
  161.5730  204.0610  147.7050 C   0  0  0  0  0  3  0  0  0  0  0  0
  162.4000  204.9380  146.9950 C   0  0  0  0  0  0  0  0  0  0  0  0
  160.9080  204.5030  148.8510 C   0  0  0  0  0  3  0  0  0  0  0  0
  1 12  1  0  0  0  0
  1  4  1  0  0  0  0
  2 24  1  0  0  0  0
  2 17  1  0  0  0  0
  3  9  1  0  0  0  0
  3  7  1  0  0  0  0
  4 29  1  0  0  0  0
  4 30  1  0  0  0  0
  5 19  1  0  0  0  0
  6  9  2  0  0  0  0
  6 22  1  0  0  0  0
  7 21  1  0  0  0  0
  8 26  1  0  0  0  0
  8 12  1  0  0  0  0
  9 13  1  0  0  0  0
 10  7  1  0  0  0  0
 10  5  1  0  0  0  0
 11  6  1  0  0  0  0
 12  4  1  0  0  0  0
 13 21  1  0  0  0  0
 13 17  1  0  0  0  0
 14  2  1  0  0  0  0
 15 20  1  0  0  0  0
 16 20  1  0  0  0  0
 16 11  2  0  0  0  0
 18  8  1  0  0  0  0
 19 18  1  0  0  0  0
 20  3  2  0  0  0  0
 21 27  1  0  0  0  0
 22  2  1  0  0  0  0
 23 10  1  0  0  0  0
 25 18  1  0  0  0  0
 27 25  1  0  0  0  0
 27  1  1  0  0  0  0
 28 15  1  0  0  0  0
 28 23  1  0  0  0  0
 29 30  1  0  0  0  0
 32 23  1  0  0  0  0
 32 31  2  0  0  0  0
 33 32  1  0  0  0  0
 34 36  1  0  0  0  0
 35 37  2  0  0  0  0
 36 33  2  0  0  0  0
 36 35  1  0  0  0  0
 37 31  1  0  0  0  0
M  END
>  <MODEL>
2

>  <REMARK>
 VINA RESULT:      -6.6      1.124      1.369
  Name = 
  1 active torsions:
  status: ('A' for Active; 'I' for Inactive)
    1  A    between atoms: C_23  and  C_30
                            x       y       z     vdW  Elec       q    Type
                         _______ _______ _______ _____ _____    ______ ____

>  <TORSDO>
F 1

$$$$
=
 OpenBabel11122413563D

 37 45  0  0  1  0  0  0  0  0999 V2000
  161.3640  211.8020  148.9040 C   0  0  2  0  0  3  0  0  0  0  0  0
  161.7240  207.1640  149.5120 C   0  0  0  0  0  0  0  0  0  0  0  0
  161.1890  209.2590  153.0280 C   0  0  0  0  0  0  0  0  0  0  0  0
  162.0360  213.0190  148.2510 C   0  0  1  0  0  0  0  0  0  0  0  0
  158.9660  212.4510  152.5980 C   0  0  0  0  0  2  0  0  0  0  0  0
  162.0570  207.2670  152.0160 C   0  0  0  0  0  0  0  0  0  0  0  0
  160.7270  210.6320  152.6100 C   0  0  2  0  0  3  0  0  0  0  0  0
  160.0090  213.9440  149.3450 C   0  0  2  0  0  3  0  0  0  0  0  0
  161.6810  208.5950  151.9540 C   0  0  0  0  0  0  0  0  0  0  0  0
  159.2870  211.0150  153.0550 C   0  0  1  0  0  3  0  0  0  0  0  0
  162.0260  206.6340  153.2230 N   0  0  0  0  0  0  0  0  0  0  0  0
  160.5000  212.8820  148.3660 C   0  0  2  0  0  3  0  0  0  0  0  0
  161.5570  209.3120  150.7600 N   0  0  0  0  0  0  0  0  0  0  0  0
  160.2610  206.7530  149.5300 C   0  0  0  0  0  1  0  0  0  0  0  0
  160.5170  209.2790  155.4380 C   0  0  0  0  0  2  0  0  0  0  0  0
  161.5810  207.2810  154.3450 C   0  0  0  0  0  3  0  0  0  0  0  0
  161.8250  208.7050  149.4540 C   0  0  0  0  0  2  0  0  0  0  0  0
  160.0470  213.4990  150.8030 C   0  0  1  0  0  3  0  0  0  0  0  0
  158.9590  212.5800  151.1500 N   0  0  0  0  0  2  0  0  0  0  0  0
  161.1450  208.6190  154.2700 C   0  0  0  0  0  0  0  0  0  0  0  0
  160.8410  210.5530  151.0480 C   0  0  2  0  0  3  0  0  0  0  0  0
  162.4520  206.5720  150.7450 C   0  0  0  0  0  2  0  0  0  0  0  0
  159.1000  210.9530  154.5990 C   0  0  2  0  0  3  0  0  0  0  0  0
  162.3590  206.5960  148.2610 C   0  0  0  0  0  1  0  0  0  0  0  0
  161.3190  212.9740  151.1270 O   0  0  0  0  0  0  0  0  0  0  0  0
  158.6380  214.4530  148.9410 C   0  0  0  0  0  1  0  0  0  0  0  0
  161.5670  211.7600  150.4360 C   0  0  2  0  0  3  0  0  0  0  0  0
  159.1380  209.5850  155.1000 N   0  0  0  0  0  2  0  0  0  0  0  0
  163.0260  212.2030  147.5110 C   0  0  0  0  0  2  0  0  0  0  0  0
  162.1500  213.0670  146.7690 N   0  0  0  0  0  2  0  0  0  0  0  0
  156.5750  211.0700  154.6940 C   0  0  0  0  0  3  0  0  0  0  0  0
  157.8230  211.5910  155.0670 C   0  0  0  0  0  0  0  0  0  0  0  0
  157.8840  212.7210  155.8890 C   0  0  0  0  0  3  0  0  0  0  0  0
  156.7720  214.4520  157.1490 O   0  0  0  0  0  1  0  0  0  0  0  0
  155.4640  212.8090  155.9600 C   0  0  0  0  0  3  0  0  0  0  0  0
  156.7070  213.3300  156.3350 C   0  0  0  0  0  0  0  0  0  0  0  0
  155.3990  211.6790  155.1400 C   0  0  0  0  0  3  0  0  0  0  0  0
  1 27  1  0  0  0  0
  2 14  1  0  0  0  0
  2 22  1  0  0  0  0
  3 20  1  0  0  0  0
  4 12  1  0  0  0  0
  4  1  1  0  0  0  0
  5 10  1  0  0  0  0
  6 11  2  0  0  0  0
  7  3  1  0  0  0  0
  7 10  1  0  0  0  0
  8 18  1  0  0  0  0
  9  6  1  0  0  0  0
  9  3  2  0  0  0  0
 10 23  1  0  0  0  0
 11 16  1  0  0  0  0
 12  1  1  0  0  0  0
 12  8  1  0  0  0  0
 13 21  1  0  0  0  0
 13  9  1  0  0  0  0
 17  2  1  0  0  0  0
 17 13  1  0  0  0  0
 18 25  1  0  0  0  0
 18 19  1  0  0  0  0
 19  5  1  0  0  0  0
 20 16  2  0  0  0  0
 20 15  1  0  0  0  0
 21  7  1  0  0  0  0
 22  6  1  0  0  0  0
 23 32  1  0  0  0  0
 23 28  1  0  0  0  0
 24  2  1  0  0  0  0
 26  8  1  0  0  0  0
 27 21  1  0  0  0  0
 27 25  1  0  0  0  0
 28 15  1  0  0  0  0
 29  4  1  0  0  0  0
 30 29  1  0  0  0  0
 30  4  1  0  0  0  0
 31 32  2  0  0  0  0
 31 37  1  0  0  0  0
 32 33  1  0  0  0  0
 33 36  2  0  0  0  0
 35 36  1  0  0  0  0
 36 34  1  0  0  0  0
 37 35  2  0  0  0  0
M  END
>  <MODEL>
3

>  <REMARK>
 VINA RESULT:      -5.8      2.743      7.966
  Name = 
  1 active torsions:
  status: ('A' for Active; 'I' for Inactive)
    1  A    between atoms: C_23  and  C_30
                            x       y       z     vdW  Elec       q    Type
                         _______ _______ _______ _____ _____    ______ ____

>  <TORSDO>
F 1

$$$$
