=
 OpenBabel11122412423D

 30 35  0  0  1  0  0  0  0  0999 V2000
  161.7800  206.7260  147.9570 C   0  0  2  0  0  3  0  0  0  0  0  0
  161.7870  205.8030  145.5840 C   0  0  2  0  0  3  0  0  0  0  0  0
  161.0350  202.8840  149.5660 O   0  0  0  0  0  0  0  0  0  0  0  0
  161.4540  206.4980  149.4550 C   0  0  2  0  0  3  0  0  0  0  0  0
  161.3100  208.1260  147.5630 C   0  0  0  0  0  2  0  0  0  0  0  0
  161.9370  209.7690  150.6630 O   0  0  0  0  0  0  0  0  0  0  0  0
  160.9740  206.7850  152.3170 C   0  0  1  0  0  3  0  0  0  0  0  0
  162.0690  208.8800  149.8340 C   0  0  0  0  0  0  0  0  0  0  0  0
  160.6810  205.2870  152.1670 C   0  0  2  0  0  3  0  0  0  0  0  0
  161.2320  203.1810  150.9040 C   0  0  0  0  0  0  0  0  0  0  0  0
  162.0660  209.1970  148.3560 C   0  0  2  0  0  3  0  0  0  0  0  0
  162.3490  207.4570  150.2580 C   0  0  1  0  0  3  0  0  0  0  0  0
  161.3500  204.6820  144.6730 C   0  0  0  0  0  3  0  0  0  0  0  0
  160.9120  204.7290  153.5440 C   0  0  0  0  0  2  0  0  0  0  0  0
  160.8740  207.1230  153.7350 N   0  0  0  0  0  2  0  0  0  0  0  0
  163.1710  205.8260  145.6300 F   0  0  0  0  0  0  0  0  0  0  0  0
  160.9370  204.1300  148.9090 C   0  0  1  0  0  3  0  0  0  0  0  0
  160.8970  203.5060  145.1360 C   0  0  0  0  0  3  0  0  0  0  0  0
  161.2110  205.6480  146.9990 C   0  0  1  0  0  3  0  0  0  0  0  0
  161.7480  205.0450  149.7960 C   0  0  2  0  0  3  0  0  0  0  0  0
  161.1820  202.3110  151.8120 O   0  0  0  0  0  0  0  0  0  0  0  0
  161.4740  204.5690  151.1550 N   0  0  0  0  0  0  0  0  0  0  0  0
  160.5910  205.8870  154.4560 C   0  0  0  0  0  2  0  0  0  0  0  0
  163.3730  206.4390  152.1930 O   0  0  0  0  0  1  0  0  0  0  0  0
  160.6810  203.2370  146.6040 C   0  0  0  0  0  2  0  0  0  0  0  0
  161.4600  204.2050  147.4930 C   0  0  2  0  0  3  0  0  0  0  0  0
  162.3240  207.2640  151.7790 C   0  0  2  0  0  3  0  0  0  0  0  0
  161.4690  210.5010  148.1040 N   0  0  0  0  0  2  0  0  0  0  0  0
  161.9360  212.8770  148.1930 C   0  0  0  0  0  1  0  0  0  0  0  0
  162.5330  211.4850  148.2050 C   0  0  0  0  0  2  0  0  0  0  0  0
  1  5  1  6  0  0  0
  1  4  1  0  0  0  0
  2 16  1  1  0  0  0
  2 19  1  0  0  0  0
  3 10  1  0  0  0  0
  4 20  1  0  0  0  0
  4 12  1  0  0  0  0
  5 11  1  0  0  0  0
  7 15  1  0  0  0  0
  8 12  1  0  0  0  0
  8  6  2  0  0  0  0
  9  7  1  0  0  0  0
  9 14  1  0  0  0  0
 10 22  1  0  0  0  0
 10 21  2  0  0  0  0
 11  8  1  0  0  0  0
 12 27  1  0  0  0  0
 13 18  2  0  0  0  0
 13  2  1  0  0  0  0
 14 23  1  0  0  0  0
 15 23  1  0  0  0  0
 17  3  1  0  0  0  0
 17 20  1  0  0  0  0
 18 25  1  0  0  0  0
 19 26  1  0  0  0  0
 19  1  1  0  0  0  0
 20 22  1  0  0  0  0
 22  9  1  0  0  0  0
 25 26  1  0  0  0  0
 26 17  1  0  0  0  0
 27 24  1  0  0  0  0
 27  7  1  0  0  0  0
 28 30  1  0  0  0  0
 28 11  1  0  0  0  0
 29 30  1  0  0  0  0
M  END
>  <MODEL>
1

>  <REMARK>
 VINA RESULT:      -6.9      0.000      0.000
  Name = 
  2 active torsions:
  status: ('A' for Active; 'I' for Inactive)
    1  A    between atoms: C_11  and  N_28
    2  A    between atoms: N_28  and  C_30
                            x       y       z     vdW  Elec       q    Type
                         _______ _______ _______ _____ _____    ______ ____

>  <TORSDO>
F 2

$$$$
=
 OpenBabel11122412423D

 30 35  0  0  1  0  0  0  0  0999 V2000
  161.8210  208.2070  149.3340 C   0  0  2  0  0  3  0  0  0  0  0  0
  162.1170  206.2690  147.7090 C   0  0  2  0  0  3  0  0  0  0  0  0
  160.9990  205.5510  152.5240 O   0  0  0  0  0  0  0  0  0  0  0  0
  161.3360  208.6960  150.7220 C   0  0  2  0  0  3  0  0  0  0  0  0
  161.3620  209.2100  148.2750 C   0  0  0  0  0  2  0  0  0  0  0  0
  161.5980  212.1740  150.2420 O   0  0  0  0  0  0  0  0  0  0  0  0
  160.5320  210.2740  153.0390 C   0  0  1  0  0  3  0  0  0  0  0  0
  161.8430  211.0100  149.9580 C   0  0  0  0  0  0  0  0  0  0  0  0
  160.2960  208.8680  153.6040 C   0  0  2  0  0  3  0  0  0  0  0  0
  161.0380  206.4640  153.5640 C   0  0  0  0  0  0  0  0  0  0  0  0
  161.9980  210.5840  148.5160 C   0  0  2  0  0  3  0  0  0  0  0  0
  162.1100  209.9860  151.0370 C   0  0  1  0  0  3  0  0  0  0  0  0
  161.8130  204.8200  147.4170 C   0  0  0  0  0  3  0  0  0  0  0  0
  160.3860  209.0520  155.0940 C   0  0  0  0  0  2  0  0  0  0  0  0
  160.2660  211.2380  154.1040 N   0  0  0  0  0  2  0  0  0  0  0  0
  163.4850  206.4160  147.8560 F   0  0  0  0  0  0  0  0  0  0  0  0
  160.9440  206.3220  151.3420 C   0  0  1  0  0  3  0  0  0  0  0  0
  161.3410  203.9760  148.3480 C   0  0  0  0  0  3  0  0  0  0  0  0
  161.3910  206.7630  148.9680 C   0  0  1  0  0  3  0  0  0  0  0  0
  161.6270  207.6080  151.7440 C   0  0  2  0  0  3  0  0  0  0  0  0
  160.9090  206.1290  154.7710 O   0  0  0  0  0  0  0  0  0  0  0  0
  161.2150  207.8170  153.1350 N   0  0  0  0  0  0  0  0  0  0  0  0
  159.9360  210.4770  155.3040 C   0  0  0  0  0  2  0  0  0  0  0  0
  162.9380  210.0940  153.3030 O   0  0  0  0  0  1  0  0  0  0  0  0
  160.9690  204.4220  149.7390 C   0  0  0  0  0  2  0  0  0  0  0  0
  161.6190  205.7530  150.1150 C   0  0  2  0  0  3  0  0  0  0  0  0
  161.9210  210.5400  152.4550 C   0  0  2  0  0  3  0  0  0  0  0  0
  161.4000  211.5600  147.6170 N   0  0  0  0  0  2  0  0  0  0  0  0
  161.8500  213.8940  147.1460 C   0  0  0  0  0  1  0  0  0  0  0  0
  162.4430  212.5050  147.2570 C   0  0  0  0  0  2  0  0  0  0  0  0
  1  5  1  6  0  0  0
  1  4  1  0  0  0  0
  2 16  1  1  0  0  0
  2 19  1  0  0  0  0
  3 10  1  0  0  0  0
  4 12  1  0  0  0  0
  4 20  1  0  0  0  0
  5 11  1  0  0  0  0
  7  9  1  0  0  0  0
  7 15  1  0  0  0  0
  8  6  2  0  0  0  0
  8 12  1  0  0  0  0
  9 14  1  0  0  0  0
 10 21  2  0  0  0  0
 11  8  1  0  0  0  0
 12 27  1  0  0  0  0
 13  2  1  0  0  0  0
 13 18  2  0  0  0  0
 14 23  1  0  0  0  0
 15 23  1  0  0  0  0
 17 20  1  0  0  0  0
 17  3  1  0  0  0  0
 18 25  1  0  0  0  0
 19  1  1  0  0  0  0
 19 26  1  0  0  0  0
 20 22  1  0  0  0  0
 22 10  1  0  0  0  0
 22  9  1  0  0  0  0
 25 26  1  0  0  0  0
 26 17  1  0  0  0  0
 27  7  1  0  0  0  0
 27 24  1  0  0  0  0
 28 11  1  0  0  0  0
 29 30  1  0  0  0  0
 30 28  1  0  0  0  0
M  END
>  <MODEL>
2

>  <REMARK>
 VINA RESULT:      -6.7      2.162      3.161
  Name = 
  2 active torsions:
  status: ('A' for Active; 'I' for Inactive)
    1  A    between atoms: C_11  and  N_28
    2  A    between atoms: N_28  and  C_30
                            x       y       z     vdW  Elec       q    Type
                         _______ _______ _______ _____ _____    ______ ____

>  <TORSDO>
F 2

$$$$
=
 OpenBabel11122412423D

 30 35  0  0  1  0  0  0  0  0999 V2000
  161.3560  208.6390  151.6360 C   0  0  2  0  0  3  0  0  0  0  0  0
  161.1140  209.4230  154.0480 C   0  0  2  0  0  3  0  0  0  0  0  0
  160.8440  204.5980  152.7840 O   0  0  0  0  0  0  0  0  0  0  0  0
  161.5640  207.4600  150.6530 C   0  0  2  0  0  3  0  0  0  0  0  0
  162.2430  209.8030  151.1980 C   0  0  0  0  0  2  0  0  0  0  0  0
  162.0890  209.2670  147.6770 O   0  0  0  0  0  0  0  0  0  0  0  0
  162.0490  205.7800  148.3180 C   0  0  1  0  0  3  0  0  0  0  0  0
  161.7070  209.1530  148.8330 C   0  0  0  0  0  0  0  0  0  0  0  0
  161.8680  204.6850  149.3770 C   0  0  2  0  0  3  0  0  0  0  0  0
  160.7200  204.0420  151.5220 C   0  0  0  0  0  0  0  0  0  0  0  0
  161.8390  210.3020  149.8060 C   0  0  2  0  0  3  0  0  0  0  0  0
  160.9920  207.9050  149.2960 C   0  0  1  0  0  3  0  0  0  0  0  0
  161.2020  209.0410  155.5050 C   0  0  0  0  0  3  0  0  0  0  0  0
  161.4470  203.4780  148.5850 C   0  0  0  0  0  2  0  0  0  0  0  0
  162.2190  205.1300  147.0210 N   0  0  0  0  0  2  0  0  0  0  0  0
  159.8040  209.7650  153.7550 F   0  0  0  0  0  0  0  0  0  0  0  0
  161.3350  205.9060  152.5770 C   0  0  1  0  0  3  0  0  0  0  0  0
  161.2600  207.7660  155.9180 C   0  0  0  0  0  3  0  0  0  0  0  0
  161.5840  208.2860  153.1290 C   0  0  1  0  0  3  0  0  0  0  0  0
  160.8280  206.2450  151.1950 C   0  0  2  0  0  3  0  0  0  0  0  0
  160.4800  202.8210  151.3340 O   0  0  0  0  0  0  0  0  0  0  0  0
  160.9140  204.9800  150.4590 N   0  0  0  0  0  0  0  0  0  0  0  0
  162.0910  203.6930  147.2380 C   0  0  0  0  0  2  0  0  0  0  0  0
  159.6630  206.2120  148.2000 O   0  0  0  0  0  1  0  0  0  0  0  0
  161.3520  206.6030  154.9630 C   0  0  0  0  0  2  0  0  0  0  0  0
  160.8910  206.9710  153.5540 C   0  0  2  0  0  3  0  0  0  0  0  0
  160.9240  206.8140  148.2200 C   0  0  2  0  0  3  0  0  0  0  0  0
  162.8140  211.2750  149.3360 N   0  0  0  0  0  2  0  0  0  0  0  0
  162.8030  212.7620  147.4230 C   0  0  0  0  0  1  0  0  0  0  0  0
  162.0740  212.3400  148.6820 C   0  0  0  0  0  2  0  0  0  0  0  0
  1  5  1  6  0  0  0
  1 19  1  0  0  0  0
  2 16  1  6  0  0  0
  2 13  1  0  0  0  0
  4 20  1  0  0  0  0
  4  1  1  0  0  0  0
  6  8  2  0  0  0  0
  7  9  1  0  0  0  0
  8 12  1  0  0  0  0
  8 11  1  0  0  0  0
  9 22  1  0  0  0  0
 10  3  1  0  0  0  0
 11  5  1  0  0  0  0
 12  4  1  0  0  0  0
 13 18  2  0  0  0  0
 14  9  1  0  0  0  0
 15 23  1  0  0  0  0
 15  7  1  0  0  0  0
 17  3  1  0  0  0  0
 17 26  1  0  0  0  0
 19 26  1  0  0  0  0
 19  2  1  0  0  0  0
 20 17  1  0  0  0  0
 21 10  2  0  0  0  0
 22 20  1  0  0  0  0
 22 10  1  0  0  0  0
 23 14  1  0  0  0  0
 24 27  1  0  0  0  0
 25 18  1  0  0  0  0
 26 25  1  0  0  0  0
 27  7  1  0  0  0  0
 27 12  1  0  0  0  0
 28 11  1  0  0  0  0
 29 30  1  0  0  0  0
 30 28  1  0  0  0  0
M  END
>  <MODEL>
3

>  <REMARK>
 VINA RESULT:      -6.6      2.590      5.557
  Name = 
  2 active torsions:
  status: ('A' for Active; 'I' for Inactive)
    1  A    between atoms: C_11  and  N_28
    2  A    between atoms: N_28  and  C_30
                            x       y       z     vdW  Elec       q    Type
                         _______ _______ _______ _____ _____    ______ ____

>  <TORSDO>
F 2

$$$$
=
 OpenBabel11122412423D

 30 35  0  0  1  0  0  0  0  0999 V2000
  161.3510  204.9600  148.9060 C   0  0  2  0  0  3  0  0  0  0  0  0
  161.2550  202.4640  148.4050 C   0  0  2  0  0  3  0  0  0  0  0  0
  160.9390  204.2530  153.0580 O   0  0  0  0  0  0  0  0  0  0  0  0
  161.1380  206.1030  149.9300 C   0  0  2  0  0  3  0  0  0  0  0  0
  160.7740  205.3950  147.5590 C   0  0  0  0  0  2  0  0  0  0  0  0
  161.5080  208.8760  147.7920 O   0  0  0  0  0  0  0  0  0  0  0  0
  160.8310  208.6770  151.2670 C   0  0  1  0  0  3  0  0  0  0  0  0
  161.6360  207.6950  148.0820 C   0  0  0  0  0  0  0  0  0  0  0  0
  160.6170  207.7480  152.4680 C   0  0  2  0  0  3  0  0  0  0  0  0
  161.2060  205.5340  153.5100 C   0  0  0  0  0  0  0  0  0  0  0  0
  161.5170  206.6240  147.0220 C   0  0  2  0  0  3  0  0  0  0  0  0
  162.0260  207.2750  149.4800 C   0  0  1  0  0  3  0  0  0  0  0  0
  160.8250  201.1030  148.8940 C   0  0  0  0  0  3  0  0  0  0  0  0
  160.9710  208.5990  153.6570 C   0  0  0  0  0  2  0  0  0  0  0  0
  160.8050  210.0540  151.7520 N   0  0  0  0  0  2  0  0  0  0  0  0
  162.6350  202.4830  148.2930 F   0  0  0  0  0  0  0  0  0  0  0  0
  160.7260  204.3770  151.6680 C   0  0  1  0  0  3  0  0  0  0  0  0
  160.4730  200.8670  150.1680 C   0  0  0  0  0  3  0  0  0  0  0  0
  160.7840  203.5840  149.3440 C   0  0  1  0  0  3  0  0  0  0  0  0
  161.5380  205.5980  151.3070 C   0  0  2  0  0  3  0  0  0  0  0  0
  161.2670  205.8280  154.7330 O   0  0  0  0  0  0  0  0  0  0  0  0
  161.3830  206.4890  152.4600 N   0  0  0  0  0  0  0  0  0  0  0  0
  160.6440  209.9990  153.2010 C   0  0  0  0  0  2  0  0  0  0  0  0
  163.2340  208.3280  151.2870 O   0  0  0  0  0  1  0  0  0  0  0  0
  160.3700  201.9610  151.2010 C   0  0  0  0  0  2  0  0  0  0  0  0
  161.1490  203.2130  150.7990 C   0  0  2  0  0  3  0  0  0  0  0  0
  162.1130  208.4510  150.4610 C   0  0  2  0  0  3  0  0  0  0  0  0
  160.8300  207.1310  145.8430 N   0  0  0  0  0  2  0  0  0  0  0  0
  161.2060  205.4530  144.1360 C   0  0  0  0  0  1  0  0  0  0  0  0
  160.2370  205.9880  145.1700 C   0  0  0  0  0  2  0  0  0  0  0  0
  1  5  1  6  0  0  0
  1 19  1  0  0  0  0
  1  4  1  0  0  0  0
  2 16  1  1  0  0  0
  2 13  1  0  0  0  0
  2 19  1  0  0  0  0
  3 10  1  0  0  0  0
  4 20  1  0  0  0  0
  6  8  2  0  0  0  0
  7 15  1  0  0  0  0
  7  9  1  0  0  0  0
  8 12  1  0  0  0  0
  9 14  1  0  0  0  0
 10 21  2  0  0  0  0
 11  5  1  0  0  0  0
 11  8  1  0  0  0  0
 12  4  1  0  0  0  0
 12 27  1  0  0  0  0
 13 18  2  0  0  0  0
 15 23  1  0  0  0  0
 17  3  1  0  0  0  0
 18 25  1  0  0  0  0
 19 26  1  0  0  0  0
 20 17  1  0  0  0  0
 20 22  1  0  0  0  0
 22  9  1  0  0  0  0
 22 10  1  0  0  0  0
 23 14  1  0  0  0  0
 26 25  1  0  0  0  0
 26 17  1  0  0  0  0
 27  7  1  0  0  0  0
 27 24  1  0  0  0  0
 28 11  1  0  0  0  0
 29 30  1  0  0  0  0
 30 28  1  0  0  0  0
M  END
>  <MODEL>
4

>  <REMARK>
 VINA RESULT:      -6.6      2.139      3.843
  Name = 
  2 active torsions:
  status: ('A' for Active; 'I' for Inactive)
    1  A    between atoms: C_11  and  N_28
    2  A    between atoms: N_28  and  C_30
                            x       y       z     vdW  Elec       q    Type
                         _______ _______ _______ _____ _____    ______ ____

>  <TORSDO>
F 2

$$$$
=
 OpenBabel11122412423D

 30 35  0  0  1  0  0  0  0  0999 V2000
  161.6110  208.0970  151.6030 C   0  0  2  0  0  3  0  0  0  0  0  0
  162.0580  210.5270  150.9860 C   0  0  2  0  0  3  0  0  0  0  0  0
  161.7660  206.9240  147.5400 O   0  0  0  0  0  0  0  0  0  0  0  0
  161.2320  206.6700  151.1320 C   0  0  2  0  0  3  0  0  0  0  0  0
  160.8260  208.4160  152.8740 C   0  0  0  0  0  2  0  0  0  0  0  0
  160.7400  205.1330  154.2610 O   0  0  0  0  0  0  0  0  0  0  0  0
  160.4560  203.8640  150.9620 C   0  0  1  0  0  3  0  0  0  0  0  0
  161.1680  206.0180  153.5330 C   0  0  0  0  0  0  0  0  0  0  0  0
  160.5790  204.1770  149.4660 C   0  0  2  0  0  3  0  0  0  0  0  0
  161.7650  205.5510  147.7240 C   0  0  0  0  0  0  0  0  0  0  0  0
  161.2060  207.4530  154.0050 C   0  0  2  0  0  3  0  0  0  0  0  0
  161.7740  205.6930  152.1880 C   0  0  1  0  0  3  0  0  0  0  0  0
  162.0080  211.5750  149.9020 C   0  0  0  0  0  3  0  0  0  0  0  0
  160.8320  202.8370  148.8310 C   0  0  0  0  0  2  0  0  0  0  0  0
  160.1530  202.4420  151.1020 N   0  0  0  0  0  2  0  0  0  0  0  0
  163.3790  210.3270  151.3520 F   0  0  0  0  0  0  0  0  0  0  0  0
  161.4010  207.4750  148.7880 C   0  0  1  0  0  3  0  0  0  0  0  0
  161.8410  211.2700  148.6060 C   0  0  0  0  0  3  0  0  0  0  0  0
  161.4270  209.2030  150.5320 C   0  0  1  0  0  3  0  0  0  0  0  0
  161.8670  206.4280  149.7710 C   0  0  2  0  0  3  0  0  0  0  0  0
  161.8690  204.7340  146.7710 O   0  0  0  0  0  0  0  0  0  0  0  0
  161.6140  205.1550  149.0900 N   0  0  0  0  0  0  0  0  0  0  0  0
  160.1440  201.8680  149.7610 C   0  0  0  0  0  2  0  0  0  0  0  0
  162.8640  203.7530  151.2480 O   0  0  0  0  0  1  0  0  0  0  0  0
  161.5810  209.8650  148.1260 C   0  0  0  0  0  2  0  0  0  0  0  0
  162.0020  208.8140  149.1520 C   0  0  2  0  0  3  0  0  0  0  0  0
  161.6740  204.2060  151.8240 C   0  0  2  0  0  3  0  0  0  0  0  0
  160.3120  207.6540  155.1360 N   0  0  0  0  0  2  0  0  0  0  0  0
  161.9550  208.7840  156.5130 C   0  0  0  0  0  1  0  0  0  0  0  0
  160.6630  208.9300  155.7360 C   0  0  0  0  0  2  0  0  0  0  0  0
  1  5  1  1  0  0  0
  2 16  1  6  0  0  0
  3 10  1  0  0  0  0
  3 17  1  0  0  0  0
  4  1  1  0  0  0  0
  4 12  1  0  0  0  0
  5 11  1  0  0  0  0
  7 15  1  0  0  0  0
  7 27  1  0  0  0  0
  8 11  1  0  0  0  0
  8  6  2  0  0  0  0
  9  7  1  0  0  0  0
 10 22  1  0  0  0  0
 11 28  1  0  0  0  0
 12  8  1  0  0  0  0
 13  2  1  0  0  0  0
 14  9  1  0  0  0  0
 14 23  1  0  0  0  0
 17 26  1  0  0  0  0
 17 20  1  0  0  0  0
 18 13  2  0  0  0  0
 19  2  1  0  0  0  0
 19  1  1  0  0  0  0
 20  4  1  0  0  0  0
 21 10  2  0  0  0  0
 22  9  1  0  0  0  0
 22 20  1  0  0  0  0
 23 15  1  0  0  0  0
 24 27  1  0  0  0  0
 25 18  1  0  0  0  0
 25 26  1  0  0  0  0
 26 19  1  0  0  0  0
 27 12  1  0  0  0  0
 28 30  1  0  0  0  0
 30 29  1  0  0  0  0
M  END
>  <MODEL>
5

>  <REMARK>
 VINA RESULT:      -6.4      2.469      5.558
  Name = 
  2 active torsions:
  status: ('A' for Active; 'I' for Inactive)
    1  A    between atoms: C_11  and  N_28
    2  A    between atoms: N_28  and  C_30
                            x       y       z     vdW  Elec       q    Type
                         _______ _______ _______ _____ _____    ______ ____

>  <TORSDO>
F 2

$$$$
=
 OpenBabel11122412423D

 30 35  0  0  1  0  0  0  0  0999 V2000
  161.6300  207.6060  151.5760 C   0  0  2  0  0  3  0  0  0  0  0  0
  161.9570  205.2220  150.7420 C   0  0  2  0  0  3  0  0  0  0  0  0
  160.3470  206.2220  155.3630 O   0  0  0  0  0  0  0  0  0  0  0  0
  161.0470  208.5520  152.6560 C   0  0  2  0  0  3  0  0  0  0  0  0
  161.3360  208.1980  150.1980 C   0  0  0  0  0  2  0  0  0  0  0  0
  161.5670  211.6490  151.0630 O   0  0  0  0  0  0  0  0  0  0  0  0
  160.1260  210.8470  154.2020 C   0  0  1  0  0  3  0  0  0  0  0  0
  161.7660  210.4510  151.2180 C   0  0  0  0  0  0  0  0  0  0  0  0
  159.7510  209.7250  155.1790 C   0  0  2  0  0  3  0  0  0  0  0  0
  160.3440  207.4340  156.0330 C   0  0  0  0  0  0  0  0  0  0  0  0
  162.0290  209.5550  150.0290 C   0  0  2  0  0  3  0  0  0  0  0  0
  161.8660  209.8520  152.6000 C   0  0  1  0  0  3  0  0  0  0  0  0
  161.5930  203.7690  150.9240 C   0  0  0  0  0  3  0  0  0  0  0  0
  159.7120  210.4060  156.5200 C   0  0  0  0  0  2  0  0  0  0  0  0
  159.8210  212.1230  154.8430 N   0  0  0  0  0  2  0  0  0  0  0  0
  163.3120  205.3750  150.9810 F   0  0  0  0  0  0  0  0  0  0  0  0
  160.4520  206.5440  153.9930 C   0  0  1  0  0  3  0  0  0  0  0  0
  160.9840  203.3060  152.0270 C   0  0  0  0  0  3  0  0  0  0  0  0
  161.1470  206.1360  151.6730 C   0  0  1  0  0  3  0  0  0  0  0  0
  161.1720  207.8720  154.0100 C   0  0  2  0  0  3  0  0  0  0  0  0
  160.0810  207.5360  157.2600 O   0  0  0  0  0  0  0  0  0  0  0  0
  160.6440  208.5540  155.1950 N   0  0  0  0  0  0  0  0  0  0  0  0
  159.3330  211.8270  156.1860 C   0  0  0  0  0  2  0  0  0  0  0  0
  162.4810  210.7050  154.7740 O   0  0  0  0  0  1  0  0  0  0  0  0
  160.5100  204.2110  153.1370 C   0  0  0  0  0  2  0  0  0  0  0  0
  161.2030  205.5730  153.1110 C   0  0  2  0  0  3  0  0  0  0  0  0
  161.5780  210.8610  153.7180 C   0  0  2  0  0  3  0  0  0  0  0  0
  161.5800  210.1800  148.7940 N   0  0  0  0  0  2  0  0  0  0  0  0
  161.9220  212.3220  147.7150 C   0  0  0  0  0  1  0  0  0  0  0  0
  162.5870  211.1590  148.4200 C   0  0  0  0  0  2  0  0  0  0  0  0
  1  5  1  6  0  0  0
  1 19  1  0  0  0  0
  1  4  1  0  0  0  0
  2 13  1  0  0  0  0
  2 16  1  1  0  0  0
  2 19  1  0  0  0  0
  3 10  1  0  0  0  0
  4 20  1  0  0  0  0
  6  8  2  0  0  0  0
  7 15  1  0  0  0  0
  7  9  1  0  0  0  0
  8 12  1  0  0  0  0
  9 22  1  0  0  0  0
  9 14  1  0  0  0  0
 10 21  2  0  0  0  0
 11  5  1  0  0  0  0
 11  8  1  0  0  0  0
 12  4  1  0  0  0  0
 12 27  1  0  0  0  0
 13 18  2  0  0  0  0
 15 23  1  0  0  0  0
 17 20  1  0  0  0  0
 17  3  1  0  0  0  0
 18 25  1  0  0  0  0
 19 26  1  0  0  0  0
 20 22  1  0  0  0  0
 22 10  1  0  0  0  0
 23 14  1  0  0  0  0
 26 25  1  0  0  0  0
 26 17  1  0  0  0  0
 27  7  1  0  0  0  0
 27 24  1  0  0  0  0
 28 11  1  0  0  0  0
 29 30  1  0  0  0  0
 30 28  1  0  0  0  0
M  END
>  <MODEL>
6

>  <REMARK>
 VINA RESULT:      -5.6      3.376      4.982
  Name = 
  2 active torsions:
  status: ('A' for Active; 'I' for Inactive)
    1  A    between atoms: C_11  and  N_28
    2  A    between atoms: N_28  and  C_30
                            x       y       z     vdW  Elec       q    Type
                         _______ _______ _______ _____ _____    ______ ____

>  <TORSDO>
F 2

$$$$
=
 OpenBabel11122412423D

 30 35  0  0  1  0  0  0  0  0999 V2000
  161.3480  205.9060  150.0180 C   0  0  2  0  0  3  0  0  0  0  0  0
  161.3210  203.3590  149.9920 C   0  0  2  0  0  3  0  0  0  0  0  0
  160.8780  205.9750  154.2230 O   0  0  0  0  0  0  0  0  0  0  0  0
  161.0890  207.2140  150.8070 C   0  0  2  0  0  3  0  0  0  0  0  0
  160.7860  206.0670  148.6060 C   0  0  0  0  0  2  0  0  0  0  0  0
  161.4310  209.5490  148.1940 O   0  0  0  0  0  0  0  0  0  0  0  0
  160.6960  209.9830  151.6360 C   0  0  1  0  0  3  0  0  0  0  0  0
  161.5820  208.4460  148.7020 C   0  0  0  0  0  0  0  0  0  0  0  0
  160.4830  209.2880  152.9870 C   0  0  2  0  0  3  0  0  0  0  0  0
  161.1060  207.3250  154.4320 C   0  0  0  0  0  0  0  0  0  0  0  0
  161.5090  207.1940  147.8590 C   0  0  2  0  0  3  0  0  0  0  0  0
  161.9570  208.3050  150.1580 C   0  0  1  0  0  3  0  0  0  0  0  0
  160.9160  202.1020  150.7200 C   0  0  0  0  0  3  0  0  0  0  0  0
  160.7950  210.3560  154.0000 C   0  0  0  0  0  2  0  0  0  0  0  0
  160.6290  211.4250  151.8550 N   0  0  0  0  0  2  0  0  0  0  0  0
  162.7020  203.3940  149.8960 F   0  0  0  0  0  0  0  0  0  0  0  0
  160.6870  205.8320  152.8320 C   0  0  1  0  0  3  0  0  0  0  0  0
  160.5460  202.0980  152.0110 C   0  0  0  0  0  3  0  0  0  0  0  0
  160.8060  204.6220  150.6980 C   0  0  1  0  0  3  0  0  0  0  0  0
  161.4760  206.9860  152.2600 C   0  0  2  0  0  3  0  0  0  0  0  0
  161.1370  207.8430  155.5790 O   0  0  0  0  0  0  0  0  0  0  0  0
  161.2780  208.0720  153.2240 N   0  0  0  0  0  0  0  0  0  0  0  0
  160.4420  211.6370  153.2860 C   0  0  0  0  0  2  0  0  0  0  0  0
  163.1060  209.7090  151.7530 O   0  0  0  0  0  1  0  0  0  0  0  0
  160.3980  203.3620  152.8200 C   0  0  0  0  0  2  0  0  0  0  0  0
  161.1530  204.5390  152.2020 C   0  0  2  0  0  3  0  0  0  0  0  0
  161.9980  209.6450  150.9030 C   0  0  2  0  0  3  0  0  0  0  0  0
  160.8310  207.4530  146.5970 N   0  0  0  0  0  2  0  0  0  0  0  0
  162.2370  205.7620  145.5800 C   0  0  0  0  0  1  0  0  0  0  0  0
  160.8150  206.2040  145.8560 C   0  0  0  0  0  2  0  0  0  0  0  0
  1  5  1  6  0  0  0
  1 19  1  0  0  0  0
  1  4  1  0  0  0  0
  2 16  1  1  0  0  0
  2 19  1  0  0  0  0
  2 13  1  0  0  0  0
  3 10  1  0  0  0  0
  4 20  1  0  0  0  0
  6  8  2  0  0  0  0
  7 15  1  0  0  0  0
  7  9  1  0  0  0  0
  8 12  1  0  0  0  0
  9 22  1  0  0  0  0
  9 14  1  0  0  0  0
 10 21  2  0  0  0  0
 11  5  1  0  0  0  0
 11  8  1  0  0  0  0
 12  4  1  0  0  0  0
 12 27  1  0  0  0  0
 13 18  2  0  0  0  0
 15 23  1  0  0  0  0
 17  3  1  0  0  0  0
 18 25  1  0  0  0  0
 19 26  1  0  0  0  0
 20 17  1  0  0  0  0
 20 22  1  0  0  0  0
 22 10  1  0  0  0  0
 23 14  1  0  0  0  0
 26 25  1  0  0  0  0
 26 17  1  0  0  0  0
 27  7  1  0  0  0  0
 27 24  1  0  0  0  0
 28 11  1  0  0  0  0
 29 30  1  0  0  0  0
 30 28  1  0  0  0  0
M  END
>  <MODEL>
7

>  <REMARK>
 VINA RESULT:      -5.5      2.494      4.602
  Name = 
  2 active torsions:
  status: ('A' for Active; 'I' for Inactive)
    1  A    between atoms: C_11  and  N_28
    2  A    between atoms: N_28  and  C_30
                            x       y       z     vdW  Elec       q    Type
                         _______ _______ _______ _____ _____    ______ ____

>  <TORSDO>
F 2

$$$$
=
 OpenBabel11122412423D

 30 35  0  0  1  0  0  0  0  0999 V2000
  160.3460  212.5930  151.3880 C   0  0  2  0  0  3  0  0  0  0  0  0
  160.6960  213.7920  149.1690 C   0  0  2  0  0  3  0  0  0  0  0  0
  162.2950  209.1240  149.9470 O   0  0  0  0  0  0  0  0  0  0  0  0
  160.3760  211.2620  152.1820 C   0  0  2  0  0  3  0  0  0  0  0  0
  159.0760  213.3560  151.7620 C   0  0  0  0  0  2  0  0  0  0  0  0
  158.8440  212.3270  155.1670 O   0  0  0  0  0  0  0  0  0  0  0  0
  160.0960  209.1590  154.1840 C   0  0  1  0  0  3  0  0  0  0  0  0
  159.4170  212.5190  154.1040 C   0  0  0  0  0  0  0  0  0  0  0  0
  160.7810  208.3530  153.0730 C   0  0  2  0  0  3  0  0  0  0  0  0
  162.3930  208.4330  151.1420 C   0  0  0  0  0  0  0  0  0  0  0  0
  159.0780  213.7200  153.2510 C   0  0  2  0  0  3  0  0  0  0  0  0
  160.5560  211.6300  153.6640 C   0  0  1  0  0  3  0  0  0  0  0  0
  160.9620  213.6420  147.6910 C   0  0  0  0  0  3  0  0  0  0  0  0
  161.4380  207.2120  153.8000 C   0  0  0  0  0  2  0  0  0  0  0  0
  159.9440  208.2870  155.3450 N   0  0  0  0  0  2  0  0  0  0  0  0
  161.7650  214.4530  149.7500 F   0  0  0  0  0  0  0  0  0  0  0  0
  161.3860  210.1770  150.1880 C   0  0  1  0  0  3  0  0  0  0  0  0
  161.3810  212.4910  147.1420 C   0  0  0  0  0  3  0  0  0  0  0  0
  160.4780  212.4340  149.8510 C   0  0  1  0  0  3  0  0  0  0  0  0
  161.5360  210.4220  151.6710 C   0  0  2  0  0  3  0  0  0  0  0  0
  162.9790  207.3240  151.2450 O   0  0  0  0  0  0  0  0  0  0  0  0
  161.7470  209.0870  152.2380 N   0  0  0  0  0  0  0  0  0  0  0  0
  160.5570  207.0070  155.0090 C   0  0  0  0  0  2  0  0  0  0  0  0
  162.1700  210.2520  154.8170 O   0  0  0  0  0  1  0  0  0  0  0  0
  161.5190  211.2140  147.9320 C   0  0  0  0  0  2  0  0  0  0  0  0
  161.6120  211.4690  149.4360 C   0  0  2  0  0  3  0  0  0  0  0  0
  160.8020  210.4490  154.6110 C   0  0  2  0  0  3  0  0  0  0  0  0
  157.7820  214.2710  153.6180 N   0  0  0  0  0  2  0  0  0  0  0  0
  155.4870  214.0700  152.8680 C   0  0  0  0  0  1  0  0  0  0  0  0
  156.9350  214.1940  152.4410 C   0  0  0  0  0  2  0  0  0  0  0  0
  1  5  1  6  0  0  0
  1  4  1  0  0  0  0
  2 16  1  1  0  0  0
  2 19  1  0  0  0  0
  3 17  1  0  0  0  0
  3 10  1  0  0  0  0
  4 12  1  0  0  0  0
  5 11  1  0  0  0  0
  7 27  1  0  0  0  0
  7 15  1  0  0  0  0
  8  6  2  0  0  0  0
  9 14  1  0  0  0  0
  9  7  1  0  0  0  0
 10 21  2  0  0  0  0
 10 22  1  0  0  0  0
 11 28  1  0  0  0  0
 11  8  1  0  0  0  0
 12  8  1  0  0  0  0
 12 27  1  0  0  0  0
 13  2  1  0  0  0  0
 14 23  1  0  0  0  0
 17 20  1  0  0  0  0
 18 13  2  0  0  0  0
 18 25  1  0  0  0  0
 19  1  1  0  0  0  0
 20  4  1  0  0  0  0
 20 22  1  0  0  0  0
 22  9  1  0  0  0  0
 23 15  1  0  0  0  0
 25 26  1  0  0  0  0
 26 19  1  0  0  0  0
 26 17  1  0  0  0  0
 27 24  1  0  0  0  0
 30 29  1  0  0  0  0
 30 28  1  0  0  0  0
M  END
>  <MODEL>
8

>  <REMARK>
 VINA RESULT:      -5.0      4.403      6.481
  Name = 
  2 active torsions:
  status: ('A' for Active; 'I' for Inactive)
    1  A    between atoms: C_11  and  N_28
    2  A    between atoms: N_28  and  C_30
                            x       y       z     vdW  Elec       q    Type
                         _______ _______ _______ _____ _____    ______ ____

>  <TORSDO>
F 2

$$$$
