=
 OpenBabel11122413303D

 31 35  0  0  1  0  0  0  0  0999 V2000
  161.9680  209.9540  156.4820 C   0  0  2  0  0  3  0  0  0  0  0  0
  162.0740  209.0760  152.7140 C   0  0  2  0  0  3  0  0  0  0  0  0
  161.6120  207.8560  151.9430 C   0  0  0  0  0  0  0  0  0  0  0  0
  161.0830  205.4860  151.8480 C   0  0  0  0  0  0  0  0  0  0  0  0
  161.5710  209.0880  154.1660 C   0  0  1  0  0  3  0  0  0  0  0  0
  160.5230  210.4350  156.5580 C   0  0  0  0  0  2  0  0  0  0  0  0
  161.4810  206.6100  152.5760 C   0  0  0  0  0  3  0  0  0  0  0  0
  160.2510  210.7510  152.0900 C   0  0  2  0  0  3  0  0  0  0  0  0
  162.7750  210.7810  157.2600 O   0  0  0  0  0  1  0  0  0  0  0  0
  161.5510  209.1690  149.8910 O   0  0  0  0  0  0  0  0  0  0  0  0
  160.9330  204.1750  152.5320 C   0  0  0  0  0  1  0  0  0  0  0  0
  159.8290  210.8260  153.5540 C   0  0  0  0  0  2  0  0  0  0  0  0
  161.7430  210.3980  151.9820 C   0  0  2  0  0  3  0  0  0  0  0  0
  162.4550  209.9810  155.0380 C   0  0  0  0  0  2  0  0  0  0  0  0
  160.8260  205.5940  150.4790 C   0  0  0  0  0  3  0  0  0  0  0  0
  160.0870  209.4920  154.2520 C   0  0  2  0  0  3  0  0  0  0  0  0
  159.6210  209.5400  155.7090 C   0  0  0  0  0  2  0  0  0  0  0  0
  162.1770  210.2870  150.5190 C   0  0  0  0  0  2  0  0  0  0  0  0
  161.3870  207.9490  150.5550 C   0  0  0  0  0  0  0  0  0  0  0  0
  160.9790  206.8230  149.8330 C   0  0  0  0  0  3  0  0  0  0  0  0
  157.8900  212.3180  152.4200 O   0  0  0  0  0  0  0  0  0  0  0  0
  158.7920  212.7720  151.6620 C   0  0  0  0  0  0  0  0  0  0  0  0
  159.9950  212.0330  151.4470 N   0  0  0  0  0  2  0  0  0  0  0  0
  157.5240  213.7640  148.2880 C   0  0  0  0  0  0  0  0  0  0  0  0
  157.1480  214.3830  150.6660 C   0  0  0  0  0  2  0  0  0  0  0  0
  160.7100  214.4530  149.8810 O   0  0  0  0  0  0  0  0  0  0  0  0
  157.0550  213.5440  147.1060 N   0  0  0  0  0  2  0  0  0  0  0  0
  156.6460  213.5550  149.4820 C   0  0  0  0  0  2  0  0  0  0  0  0
  159.4820  214.2110  149.7610 C   0  0  0  0  0  0  0  0  0  0  0  0
  158.6200  214.0970  150.9870 C   0  0  2  0  0  3  0  0  0  0  0  0
  158.9210  214.0180  148.4590 N   0  0  0  0  0  2  0  0  0  0  0  0
  1  6  1  0  0  0  0
  1  9  1  1  0  0  0
  2  3  1  6  0  0  0
  2  5  1  0  0  0  0
  3  7  1  0  0  0  0
  4 11  1  0  0  0  0
  4  7  2  0  0  0  0
  5 16  1  0  0  0  0
  5 14  1  1  0  0  0
  8 23  1  1  0  0  0
  8 12  1  0  0  0  0
 10 18  1  0  0  0  0
 10 19  1  0  0  0  0
 13 18  1  6  0  0  0
 13  8  1  0  0  0  0
 13  2  1  0  0  0  0
 14  1  1  0  0  0  0
 15  4  1  0  0  0  0
 16 12  1  1  0  0  0
 16 17  1  0  0  0  0
 17  6  1  0  0  0  0
 19  3  2  0  0  0  0
 20 15  2  0  0  0  0
 20 19  1  0  0  0  0
 22 21  2  0  0  0  0
 23 22  1  0  0  0  0
 24 31  1  0  0  0  0
 24 28  1  0  0  0  0
 25 30  1  0  0  0  0
 27 24  2  0  0  0  0
 28 25  1  0  0  0  0
 29 26  2  0  0  0  0
 29 30  1  0  0  0  0
 30 22  1  6  0  0  0
 31 29  1  0  0  0  0
M  END
>  <MODEL>
1

>  <REMARK>
 VINA RESULT:      -7.0      0.000      0.000
  Name = 
  2 active torsions:
  status: ('A' for Active; 'I' for Inactive)
    1  A    between atoms: C_5  and  C_30
    2  A    between atoms: C_10  and  N_16
                            x       y       z     vdW  Elec       q    Type
                         _______ _______ _______ _____ _____    ______ ____

>  <TORSDO>
F 2

$$$$
=
 OpenBabel11122413303D

 31 35  0  0  1  0  0  0  0  0999 V2000
  160.8840  205.5020  145.2760 C   0  0  2  0  0  3  0  0  0  0  0  0
  160.4760  205.8890  149.1060 C   0  0  2  0  0  3  0  0  0  0  0  0
  160.7930  204.9570  150.2590 C   0  0  0  0  0  0  0  0  0  0  0  0
  161.1300  202.7180  151.1420 C   0  0  0  0  0  0  0  0  0  0  0  0
  161.0670  205.4060  147.7720 C   0  0  1  0  0  3  0  0  0  0  0  0
  162.3640  205.8560  145.1740 C   0  0  0  0  0  2  0  0  0  0  0  0
  160.8660  203.5690  150.0660 C   0  0  0  0  0  3  0  0  0  0  0  0
  162.3810  207.5750  149.3190 C   0  0  2  0  0  3  0  0  0  0  0  0
  160.1940  206.0790  144.2120 O   0  0  0  0  0  1  0  0  0  0  0  0
  160.8280  206.8550  151.7880 O   0  0  0  0  0  0  0  0  0  0  0  0
  161.2200  201.2520  150.9230 C   0  0  0  0  0  1  0  0  0  0  0  0
  162.8980  207.1530  147.9470 C   0  0  0  0  0  2  0  0  0  0  0  0
  160.8620  207.3550  149.4070 C   0  0  2  0  0  3  0  0  0  0  0  0
  160.3110  206.0180  146.5920 C   0  0  0  0  0  2  0  0  0  0  0  0
  161.3090  203.2460  152.4230 C   0  0  0  0  0  3  0  0  0  0  0  0
  162.5810  205.6810  147.6870 C   0  0  2  0  0  3  0  0  0  0  0  0
  163.1390  205.2330  146.3340 C   0  0  0  0  0  2  0  0  0  0  0  0
  160.3310  207.7440  150.7880 C   0  0  0  0  0  2  0  0  0  0  0  0
  160.9380  205.4790  151.5600 C   0  0  0  0  0  0  0  0  0  0  0  0
  161.2120  204.6250  152.6320 C   0  0  0  0  0  3  0  0  0  0  0  0
  161.3090  209.7610  147.8330 O   0  0  0  0  0  0  0  0  0  0  0  0
  162.1150  210.0280  148.7670 C   0  0  0  0  0  0  0  0  0  0  0  0
  162.6950  208.9790  149.5430 N   0  0  0  0  0  2  0  0  0  0  0  0
  161.0530  213.3010  147.3040 C   0  0  0  0  0  0  0  0  0  0  0  0
  161.2450  212.2480  149.5470 C   0  0  0  0  0  2  0  0  0  0  0  0
  164.3700  211.8860  147.6990 O   0  0  0  0  0  0  0  0  0  0  0  0
  160.4110  214.0580  146.4790 N   0  0  0  0  0  2  0  0  0  0  0  0
  160.3070  212.5900  148.3890 C   0  0  0  0  0  2  0  0  0  0  0  0
  163.1550  212.1190  147.9250 C   0  0  0  0  0  0  0  0  0  0  0  0
  162.4690  211.4480  149.0810 C   0  0  2  0  0  3  0  0  0  0  0  0
  162.4300  212.9980  147.0610 N   0  0  0  0  0  2  0  0  0  0  0  0
  1  9  1  6  0  0  0
  1 14  1  0  0  0  0
  2 13  1  0  0  0  0
  2  3  1  1  0  0  0
  3 19  1  0  0  0  0
  4 15  2  0  0  0  0
  5 14  1  6  0  0  0
  5  2  1  0  0  0  0
  6  1  1  0  0  0  0
  6 17  1  0  0  0  0
  7  3  2  0  0  0  0
  7  4  1  0  0  0  0
  8 13  1  0  0  0  0
  8 23  1  6  0  0  0
 11  4  1  0  0  0  0
 12  8  1  0  0  0  0
 13 18  1  1  0  0  0
 15 20  1  0  0  0  0
 16 17  1  6  0  0  0
 16  5  1  0  0  0  0
 16 12  1  0  0  0  0
 18 10  1  0  0  0  0
 19 10  1  0  0  0  0
 19 20  2  0  0  0  0
 21 22  2  0  0  0  0
 22 23  1  0  0  0  0
 24 28  1  0  0  0  0
 26 29  2  0  0  0  0
 27 24  2  0  0  0  0
 28 25  1  0  0  0  0
 29 30  1  0  0  0  0
 30 22  1  6  0  0  0
 30 25  1  0  0  0  0
 31 24  1  0  0  0  0
 31 29  1  0  0  0  0
M  END
>  <MODEL>
2

>  <REMARK>
 VINA RESULT:      -6.2      3.806      6.427
  Name = 
  2 active torsions:
  status: ('A' for Active; 'I' for Inactive)
    1  A    between atoms: C_5  and  C_30
    2  A    between atoms: C_10  and  N_16
                            x       y       z     vdW  Elec       q    Type
                         _______ _______ _______ _____ _____    ______ ____

>  <TORSDO>
F 2

$$$$
=
 OpenBabel11122413303D

 31 35  0  0  1  0  0  0  0  0999 V2000
  161.3010  205.2840  144.7500 C   0  0  2  0  0  3  0  0  0  0  0  0
  160.4690  205.0350  148.5220 C   0  0  2  0  0  3  0  0  0  0  0  0
  160.7530  203.9620  149.5550 C   0  0  0  0  0  0  0  0  0  0  0  0
  161.2060  201.6460  150.1330 C   0  0  0  0  0  0  0  0  0  0  0  0
  161.2360  204.8140  147.2100 C   0  0  1  0  0  3  0  0  0  0  0  0
  162.7430  205.7630  144.8720 C   0  0  0  0  0  2  0  0  0  0  0  0
  160.9760  202.6310  149.1700 C   0  0  0  0  0  3  0  0  0  0  0  0
  162.1750  206.8090  149.1990 C   0  0  2  0  0  3  0  0  0  0  0  0
  160.6720  205.9640  143.7090 O   0  0  0  0  0  1  0  0  0  0  0  0
  160.4520  205.5940  151.3390 O   0  0  0  0  0  0  0  0  0  0  0  0
  161.4560  200.2430  149.7130 C   0  0  0  0  0  1  0  0  0  0  0  0
  162.8670  206.6480  147.8490 C   0  0  0  0  0  2  0  0  0  0  0  0
  160.6830  206.4620  149.0780 C   0  0  2  0  0  3  0  0  0  0  0  0
  160.5500  205.5420  146.0530 C   0  0  0  0  0  2  0  0  0  0  0  0
  161.2030  201.9790  151.4900 C   0  0  0  0  0  3  0  0  0  0  0  0
  162.7180  205.2150  147.3400 C   0  0  2  0  0  3  0  0  0  0  0  0
  163.4510  205.0290  146.0110 C   0  0  0  0  0  2  0  0  0  0  0  0
  159.9790  206.5880  150.4300 C   0  0  0  0  0  2  0  0  0  0  0  0
  160.7140  204.2840  150.9260 C   0  0  0  0  0  0  0  0  0  0  0  0
  160.9560  203.2970  151.8860 C   0  0  0  0  0  3  0  0  0  0  0  0
  162.3320  207.6220  151.9290 O   0  0  0  0  0  0  0  0  0  0  0  0
  162.4120  208.5200  151.0460 C   0  0  0  0  0  0  0  0  0  0  0  0
  162.3310  208.1820  149.6610 N   0  0  0  0  0  2  0  0  0  0  0  0
  160.0900  211.1260  152.3860 C   0  0  0  0  0  0  0  0  0  0  0  0
  162.3230  210.1770  152.9270 C   0  0  0  0  0  2  0  0  0  0  0  0
  162.1750  211.1590  149.4160 O   0  0  0  0  0  0  0  0  0  0  0  0
  158.9480  211.5830  152.7770 N   0  0  0  0  0  2  0  0  0  0  0  0
  160.8260  210.1440  153.2420 C   0  0  0  0  0  2  0  0  0  0  0  0
  161.7850  210.8760  150.5780 C   0  0  0  0  0  0  0  0  0  0  0  0
  162.6030  209.9530  151.4360 C   0  0  2  0  0  3  0  0  0  0  0  0
  160.5500  211.4120  151.0620 N   0  0  0  0  0  2  0  0  0  0  0  0
  1  9  1  6  0  0  0
  1  6  1  0  0  0  0
  1 14  1  0  0  0  0
  2 13  1  0  0  0  0
  2  3  1  1  0  0  0
  3 19  1  0  0  0  0
  4 15  2  0  0  0  0
  5 14  1  6  0  0  0
  5 16  1  0  0  0  0
  5  2  1  0  0  0  0
  6 17  1  0  0  0  0
  7  3  2  0  0  0  0
  7  4  1  0  0  0  0
  8 23  1  6  0  0  0
 11  4  1  0  0  0  0
 12  8  1  0  0  0  0
 13  8  1  0  0  0  0
 13 18  1  1  0  0  0
 15 20  1  0  0  0  0
 16 17  1  6  0  0  0
 16 12  1  0  0  0  0
 18 10  1  0  0  0  0
 19 10  1  0  0  0  0
 19 20  2  0  0  0  0
 22 21  2  0  0  0  0
 23 22  1  0  0  0  0
 24 27  2  0  0  0  0
 24 28  1  0  0  0  0
 25 28  1  0  0  0  0
 26 29  2  0  0  0  0
 29 31  1  0  0  0  0
 29 30  1  0  0  0  0
 30 22  1  6  0  0  0
 30 25  1  0  0  0  0
 31 24  1  0  0  0  0
M  END
>  <MODEL>
3

>  <REMARK>
 VINA RESULT:      -5.6      3.158      7.106
  Name = 
  2 active torsions:
  status: ('A' for Active; 'I' for Inactive)
    1  A    between atoms: C_5  and  C_30
    2  A    between atoms: C_10  and  N_16
                            x       y       z     vdW  Elec       q    Type
                         _______ _______ _______ _____ _____    ______ ____

>  <TORSDO>
F 2

$$$$
=
 OpenBabel11122413303D

 31 35  0  0  1  0  0  0  0  0999 V2000
  162.0480  213.9350  146.8810 C   0  0  2  0  0  3  0  0  0  0  0  0
  161.6980  211.8870  150.1470 C   0  0  2  0  0  3  0  0  0  0  0  0
  160.5660  211.7570  151.1460 C   0  0  0  0  0  0  0  0  0  0  0  0
  158.5750  212.6450  152.2200 C   0  0  0  0  0  0  0  0  0  0  0  0
  161.2730  212.6050  148.8570 C   0  0  1  0  0  3  0  0  0  0  0  0
  161.3110  212.9850  145.9430 C   0  0  0  0  0  2  0  0  0  0  0  0
  159.5970  212.7630  151.2740 C   0  0  0  0  0  3  0  0  0  0  0  0
  161.5240  209.6470  148.9350 C   0  0  2  0  0  3  0  0  0  0  0  0
  163.1660  214.4530  146.2320 O   0  0  0  0  0  1  0  0  0  0  0  0
  161.5030  209.6510  151.9390 O   0  0  0  0  0  0  0  0  0  0  0  0
  157.5470  213.7110  152.3360 C   0  0  0  0  0  1  0  0  0  0  0  0
  161.2000  210.3820  147.6380 C   0  0  0  0  0  2  0  0  0  0  0  0
  162.3840  210.5330  149.8500 C   0  0  2  0  0  3  0  0  0  0  0  0
  162.4880  213.1940  148.1390 C   0  0  0  0  0  2  0  0  0  0  0  0
  158.5210  211.5260  153.0540 C   0  0  0  0  0  3  0  0  0  0  0  0
  160.4540  211.6820  147.9340 C   0  0  2  0  0  3  0  0  0  0  0  0
  160.0790  212.4030  146.6380 C   0  0  0  0  0  2  0  0  0  0  0  0
  162.6920  209.8230  151.1690 C   0  0  0  0  0  2  0  0  0  0  0  0
  160.5260  210.6480  152.0170 C   0  0  0  0  0  0  0  0  0  0  0  0
  159.4960  210.5300  152.9540 C   0  0  0  0  0  3  0  0  0  0  0  0
  160.3200  207.0730  148.6780 O   0  0  0  0  0  0  0  0  0  0  0  0
  161.5680  207.1560  148.5030 C   0  0  0  0  0  0  0  0  0  0  0  0
  162.2340  208.4130  148.6260 N   0  0  0  0  0  2  0  0  0  0  0  0
  161.1980  204.5390  145.8570 C   0  0  0  0  0  0  0  0  0  0  0  0
  162.9690  206.0400  146.7460 C   0  0  0  0  0  2  0  0  0  0  0  0
  161.3740  204.2040  149.4660 O   0  0  0  0  0  0  0  0  0  0  0  0
  160.6230  203.9660  144.8550 N   0  0  0  0  0  2  0  0  0  0  0  0
  161.9170  205.8360  145.6540 C   0  0  0  0  0  2  0  0  0  0  0  0
  161.5630  204.6800  148.3170 C   0  0  0  0  0  0  0  0  0  0  0  0
  162.3670  205.9390  148.1530 C   0  0  2  0  0  3  0  0  0  0  0  0
  160.9850  204.0350  147.1790 N   0  0  0  0  0  2  0  0  0  0  0  0
  1  9  1  6  0  0  0
  1 14  1  0  0  0  0
  2  3  1  1  0  0  0
  3  7  2  0  0  0  0
  3 19  1  0  0  0  0
  4 11  1  0  0  0  0
  4 15  2  0  0  0  0
  5 14  1  6  0  0  0
  5  2  1  0  0  0  0
  6 17  1  0  0  0  0
  6  1  1  0  0  0  0
  7  4  1  0  0  0  0
  8 23  1  6  0  0  0
  8 13  1  0  0  0  0
 10 19  1  0  0  0  0
 12 16  1  0  0  0  0
 12  8  1  0  0  0  0
 13  2  1  0  0  0  0
 13 18  1  1  0  0  0
 16 17  1  6  0  0  0
 16  5  1  0  0  0  0
 18 10  1  0  0  0  0
 19 20  2  0  0  0  0
 20 15  1  0  0  0  0
 22 23  1  0  0  0  0
 22 21  2  0  0  0  0
 24 31  1  0  0  0  0
 25 30  1  0  0  0  0
 27 24  2  0  0  0  0
 28 24  1  0  0  0  0
 28 25  1  0  0  0  0
 29 26  2  0  0  0  0
 30 29  1  0  0  0  0
 30 22  1  6  0  0  0
 31 29  1  0  0  0  0
M  END
>  <MODEL>
4

>  <REMARK>
 VINA RESULT:      -4.1      3.785      7.890
  Name = 
  2 active torsions:
  status: ('A' for Active; 'I' for Inactive)
    1  A    between atoms: C_5  and  C_30
    2  A    between atoms: C_10  and  N_16
                            x       y       z     vdW  Elec       q    Type
                         _______ _______ _______ _____ _____    ______ ____

>  <TORSDO>
F 2

$$$$
