=
 OpenBabel11122413373D

 37 42  0  0  1  0  0  0  0  0999 V2000
  160.5950  208.1160  156.1300 C   0  0  0  0  0  0  0  0  0  0  0  0
  159.9240  210.6980  152.9550 C   0  0  0  0  0  0  0  0  0  0  0  0
  162.8510  211.0790  151.9660 C   0  0  0  0  0  1  0  0  0  0  0  0
  159.7870  210.3950  155.3070 C   0  0  0  0  0  0  0  0  0  0  0  0
  160.5620  209.9770  151.8070 C   0  0  1  0  0  3  0  0  0  0  0  0
  160.0740  209.9380  154.0420 C   0  0  0  0  0  0  0  0  0  0  0  0
  161.6220  210.8470  151.1010 C   0  0  1  0  0  3  0  0  0  0  0  0
  159.2880  211.6600  155.4200 N   0  0  0  0  0  0  0  0  0  0  0  0
  160.7660  208.7630  153.7500 N   0  0  0  0  0  0  0  0  0  0  0  0
  159.3290  207.2880  155.9950 C   0  0  0  0  0  1  0  0  0  0  0  0
  159.4090  212.9480  151.9120 C   0  0  0  0  0  2  0  0  0  0  0  0
  159.1070  212.4340  154.3350 N   0  0  0  0  0  0  0  0  0  0  0  0
  161.4170  208.0150  154.8220 C   0  0  0  0  0  2  0  0  0  0  0  0
  159.4270  211.9950  153.0770 C   0  0  0  0  0  0  0  0  0  0  0  0
  161.1560  208.7340  152.3910 N   0  0  1  0  0  0  0  0  0  0  0  0
  160.2190  209.5780  156.4950 C   0  0  0  0  0  2  0  0  0  0  0  0
  161.0770  212.2030  150.6060 C   0  0  2  0  0  3  0  0  0  0  0  0
  161.4190  207.5380  157.2610 C   0  0  0  0  0  1  0  0  0  0  0  0
  159.6760  212.2900  150.6980 O   0  0  0  0  0  0  0  0  0  0  0  0
  160.9750  207.2210  150.3470 C   0  0  0  0  0  2  0  0  0  0  0  0
  160.4700  205.8480  149.9100 C   0  0  2  0  0  3  0  0  0  0  0  0
  162.2520  205.0050  151.6410 C   0  0  2  0  0  3  0  0  0  0  0  0
  161.2920  204.6800  150.4810 C   0  0  0  0  0  2  0  0  0  0  0  0
  161.6000  205.4550  152.8920 N   0  0  0  0  0  0  0  0  0  0  0  0
  162.5050  206.0280  153.7230 O   0  0  0  0  0  1  0  0  0  0  0  0
  160.4330  206.3430  152.7690 C   0  0  0  0  0  2  0  0  0  0  0  0
  163.4620  205.8290  151.2050 C   0  0  0  0  0  1  0  0  0  0  0  0
  160.5630  207.5260  151.7950 C   0  0  1  0  0  3  0  0  0  0  0  0
  161.4940  204.8400  147.9440 N   0  0  0  0  0  1  0  0  0  0  0  0
  160.4570  205.7520  148.3950 C   0  0  0  0  0  2  0  0  0  0  0  0
  162.7080  211.9050  148.7070 C   0  0  0  0  0  3  0  0  0  0  0  0
  161.5290  212.4750  149.2080 C   0  0  0  0  0  0  0  0  0  0  0  0
  160.7750  213.3310  148.3980 C   0  0  0  0  0  3  0  0  0  0  0  0
  160.4580  214.4380  146.3100 F   0  0  0  0  0  0  0  0  0  0  0  0
  162.3660  213.0380  146.5950 C   0  0  0  0  0  3  0  0  0  0  0  0
  161.1920  213.6110  147.0920 C   0  0  0  0  0  0  0  0  0  0  0  0
  163.1240  212.1840  147.4020 C   0  0  0  0  0  3  0  0  0  0  0  0
  1 16  1  0  0  0  0
  1 18  1  0  0  0  0
  2 14  2  0  0  0  0
  2  6  1  0  0  0  0
  4  8  1  0  0  0  0
  4 16  1  0  0  0  0
  5 15  1  0  0  0  0
  5  2  1  1  0  0  0
  6  4  2  0  0  0  0
  7  5  1  0  0  0  0
  7  3  1  1  0  0  0
  9  6  1  0  0  0  0
  9 13  1  0  0  0  0
 10  1  1  0  0  0  0
 11 14  1  0  0  0  0
 12  8  2  0  0  0  0
 13  1  1  0  0  0  0
 14 12  1  0  0  0  0
 15  9  1  1  0  0  0
 17 32  1  6  0  0  0
 17 19  1  0  0  0  0
 17  7  1  0  0  0  0
 19 11  1  0  0  0  0
 21 30  1  6  0  0  0
 21 20  1  0  0  0  0
 21 23  1  0  0  0  0
 22 27  1  6  0  0  0
 22 24  1  0  0  0  0
 23 22  1  0  0  0  0
 24 25  1  0  0  0  0
 26 24  1  0  0  0  0
 28 20  1  6  0  0  0
 28 15  1  0  0  0  0
 28 26  1  0  0  0  0
 29 30  1  0  0  0  0
 31 32  1  0  0  0  0
 33 32  2  0  0  0  0
 34 36  1  0  0  0  0
 35 36  2  0  0  0  0
 35 37  1  0  0  0  0
 36 33  1  0  0  0  0
 37 31  2  0  0  0  0
M  END
>  <MODEL>
1

>  <REMARK>
 VINA RESULT:      -3.0      0.000      0.000
  Name = 
  3 active torsions:
  status: ('A' for Active; 'I' for Inactive)
    1  A    between atoms: C_4  and  C_37
    2  A    between atoms: N_21  and  C_27
    3  A    between atoms: C_23  and  C_30
                            x       y       z     vdW  Elec       q    Type
                         _______ _______ _______ _____ _____    ______ ____

>  <TORSDO>
F 3

$$$$
=
 OpenBabel11122413373D

 37 42  0  0  1  0  0  0  0  0999 V2000
  159.9310  210.3620  154.2670 C   0  0  0  0  0  0  0  0  0  0  0  0
  161.7610  207.4970  151.8920 C   0  0  0  0  0  0  0  0  0  0  0  0
  159.5130  207.0550  149.7850 C   0  0  0  0  0  1  0  0  0  0  0  0
  160.9040  208.0110  154.0470 C   0  0  0  0  0  0  0  0  0  0  0  0
  161.7030  208.1170  150.5290 C   0  0  1  0  0  3  0  0  0  0  0  0
  161.2010  208.3540  152.7490 C   0  0  0  0  0  0  0  0  0  0  0  0
  161.0020  207.1960  149.5100 C   0  0  1  0  0  3  0  0  0  0  0  0
  161.2480  206.7570  154.4600 N   0  0  0  0  0  0  0  0  0  0  0  0
  160.7530  209.5040  152.0990 N   0  0  0  0  0  0  0  0  0  0  0  0
  161.1730  211.1640  154.6190 C   0  0  0  0  0  1  0  0  0  0  0  0
  162.5630  205.1580  151.3470 C   0  0  0  0  0  2  0  0  0  0  0  0
  161.8350  205.8860  153.6200 N   0  0  0  0  0  0  0  0  0  0  0  0
  159.7450  210.3520  152.7300 C   0  0  0  0  0  2  0  0  0  0  0  0
  162.0980  206.2120  152.3150 C   0  0  0  0  0  0  0  0  0  0  0  0
  160.9770  209.4130  150.7060 N   0  0  1  0  0  0  0  0  0  0  0  0
  160.0490  208.9370  154.8700 C   0  0  0  0  0  2  0  0  0  0  0  0
  161.6410  205.7960  149.4010 C   0  0  2  0  0  3  0  0  0  0  0  0
  158.7350  211.0480  154.8910 C   0  0  0  0  0  1  0  0  0  0  0  0
  162.8660  205.7050  150.0880 O   0  0  0  0  0  0  0  0  0  0  0  0
  162.1180  210.7040  148.8260 C   0  0  0  0  0  2  0  0  0  0  0  0
  162.8200  212.0270  148.5320 C   0  0  2  0  0  3  0  0  0  0  0  0
  160.4850  213.0320  149.1790 C   0  0  2  0  0  3  0  0  0  0  0  0
  161.8760  213.2410  148.5520 C   0  0  0  0  0  2  0  0  0  0  0  0
  160.4850  212.7220  150.6270 N   0  0  0  0  0  0  0  0  0  0  0  0
  159.2820  212.2320  151.0110 O   0  0  0  0  0  1  0  0  0  0  0  0
  161.5470  211.8370  151.1330 C   0  0  0  0  0  2  0  0  0  0  0  0
  159.5680  212.1560  148.3270 C   0  0  0  0  0  1  0  0  0  0  0  0
  161.8220  210.5560  150.3260 C   0  0  1  0  0  3  0  0  0  0  0  0
  162.9410  212.9410  146.2780 N   0  0  0  0  0  1  0  0  0  0  0  0
  163.5170  211.9630  147.1850 C   0  0  0  0  0  2  0  0  0  0  0  0
  162.2430  206.3320  147.0130 C   0  0  0  0  0  3  0  0  0  0  0  0
  161.8110  205.4020  147.9700 C   0  0  0  0  0  0  0  0  0  0  0  0
  161.5100  204.0930  147.5780 C   0  0  0  0  0  3  0  0  0  0  0  0
  161.3580  202.4420  145.8650 F   0  0  0  0  0  0  0  0  0  0  0  0
  162.0820  204.6390  145.2890 C   0  0  0  0  0  3  0  0  0  0  0  0
  161.6470  203.7110  146.2390 C   0  0  0  0  0  0  0  0  0  0  0  0
  162.3800  205.9500  145.6750 C   0  0  0  0  0  3  0  0  0  0  0  0
  1 10  1  0  0  0  0
  1 16  1  0  0  0  0
  1 18  1  0  0  0  0
  2 14  2  0  0  0  0
  2  6  1  0  0  0  0
  4  8  1  0  0  0  0
  4 16  1  0  0  0  0
  5 15  1  0  0  0  0
  5  2  1  1  0  0  0
  6  4  2  0  0  0  0
  7  3  1  1  0  0  0
  7  5  1  0  0  0  0
  9 13  1  0  0  0  0
  9  6  1  0  0  0  0
 11 14  1  0  0  0  0
 12  8  2  0  0  0  0
 13  1  1  0  0  0  0
 14 12  1  0  0  0  0
 15  9  1  1  0  0  0
 17 32  1  6  0  0  0
 17  7  1  0  0  0  0
 17 19  1  0  0  0  0
 19 11  1  0  0  0  0
 21 30  1  6  0  0  0
 21 23  1  0  0  0  0
 21 20  1  0  0  0  0
 22 27  1  6  0  0  0
 22 24  1  0  0  0  0
 23 22  1  0  0  0  0
 24 25  1  0  0  0  0
 24 26  1  0  0  0  0
 28 20  1  6  0  0  0
 28 15  1  0  0  0  0
 28 26  1  0  0  0  0
 29 30  1  0  0  0  0
 31 32  1  0  0  0  0
 33 32  2  0  0  0  0
 34 36  1  0  0  0  0
 35 37  1  0  0  0  0
 35 36  2  0  0  0  0
 36 33  1  0  0  0  0
 37 31  2  0  0  0  0
M  END
>  <MODEL>
2

>  <REMARK>
 VINA RESULT:      -1.8      2.924      6.447
  Name = 
  3 active torsions:
  status: ('A' for Active; 'I' for Inactive)
    1  A    between atoms: C_4  and  C_37
    2  A    between atoms: N_21  and  C_27
    3  A    between atoms: C_23  and  C_30
                            x       y       z     vdW  Elec       q    Type
                         _______ _______ _______ _____ _____    ______ ____

>  <TORSDO>
F 3

$$$$
=
 OpenBabel11122413373D

 37 42  0  0  1  0  0  0  0  0999 V2000
  158.5710  213.3020  156.2980 C   0  0  0  0  0  0  0  0  0  0  0  0
  160.9160  210.4190  154.4570 C   0  0  0  0  0  0  0  0  0  0  0  0
  158.7040  208.8430  152.9360 C   0  0  0  0  0  1  0  0  0  0  0  0
  160.1480  211.3050  156.5220 C   0  0  0  0  0  0  0  0  0  0  0  0
  160.5600  210.5840  153.0110 C   0  0  1  0  0  3  0  0  0  0  0  0
  160.2160  211.3210  155.1490 C   0  0  0  0  0  0  0  0  0  0  0  0
  160.0600  209.2640  152.3900 C   0  0  1  0  0  3  0  0  0  0  0  0
  160.8700  210.3510  157.1780 N   0  0  0  0  0  0  0  0  0  0  0  0
  159.4030  212.0850  154.3130 N   0  0  0  0  0  0  0  0  0  0  0  0
  159.5610  214.4530  156.2240 C   0  0  0  0  0  1  0  0  0  0  0  0
  162.2960  208.2970  154.3980 C   0  0  0  0  0  2  0  0  0  0  0  0
  161.6010  209.4480  156.5000 N   0  0  0  0  0  0  0  0  0  0  0  0
  158.2570  212.8020  154.8670 C   0  0  0  0  0  2  0  0  0  0  0  0
  161.6410  209.4370  155.1310 C   0  0  0  0  0  0  0  0  0  0  0  0
  159.5150  211.6530  152.9710 N   0  0  1  0  0  0  0  0  0  0  0  0
  159.1440  212.1880  157.2150 C   0  0  0  0  0  2  0  0  0  0  0  0
  161.0580  208.0960  152.5350 C   0  0  2  0  0  3  0  0  0  0  0  0
  157.2910  213.8200  156.9170 C   0  0  0  0  0  1  0  0  0  0  0  0
  162.3160  208.5130  153.0090 O   0  0  0  0  0  0  0  0  0  0  0  0
  160.4480  212.5000  150.7550 C   0  0  0  0  0  2  0  0  0  0  0  0
  160.6850  213.7840  149.9640 C   0  0  2  0  0  3  0  0  0  0  0  0
  158.0720  213.9620  150.0980 C   0  0  2  0  0  3  0  0  0  0  0  0
  159.3900  214.4500  149.4700 C   0  0  0  0  0  2  0  0  0  0  0  0
  157.9250  214.2300  151.5460 N   0  0  0  0  0  0  0  0  0  0  0  0
  156.9190  213.4880  152.0710 O   0  0  0  0  0  1  0  0  0  0  0  0
  159.1210  214.0800  152.3900 C   0  0  0  0  0  2  0  0  0  0  0  0
  157.6830  212.5520  149.6540 C   0  0  0  0  0  1  0  0  0  0  0  0
  159.9620  212.8090  152.1790 C   0  0  1  0  0  3  0  0  0  0  0  0
  161.9090  212.0930  148.7090 N   0  0  0  0  0  1  0  0  0  0  0  0
  161.5870  213.5090  148.7750 C   0  0  0  0  0  2  0  0  0  0  0  0
  160.8670  206.0010  151.1460 C   0  0  0  0  0  3  0  0  0  0  0  0
  161.2020  207.3590  151.2430 C   0  0  0  0  0  0  0  0  0  0  0  0
  161.7000  208.0320  150.1220 C   0  0  0  0  0  3  0  0  0  0  0  0
  162.3390  208.0090  147.8250 F   0  0  0  0  0  0  0  0  0  0  0  0
  161.5200  206.0010  148.8140 C   0  0  0  0  0  3  0  0  0  0  0  0
  161.8580  207.3540  148.9090 C   0  0  0  0  0  0  0  0  0  0  0  0
  161.0250  205.3240  149.9330 C   0  0  0  0  0  3  0  0  0  0  0  0
  1 18  1  0  0  0  0
  1 16  1  0  0  0  0
  2 14  2  0  0  0  0
  2  6  1  0  0  0  0
  4  8  1  0  0  0  0
  4 16  1  0  0  0  0
  5  2  1  1  0  0  0
  6  4  2  0  0  0  0
  7 17  1  0  0  0  0
  7  3  1  1  0  0  0
  7  5  1  0  0  0  0
  9 13  1  0  0  0  0
  9  6  1  0  0  0  0
 10  1  1  0  0  0  0
 11 14  1  0  0  0  0
 12  8  2  0  0  0  0
 13  1  1  0  0  0  0
 14 12  1  0  0  0  0
 15  5  1  0  0  0  0
 15  9  1  1  0  0  0
 17 32  1  6  0  0  0
 17 19  1  0  0  0  0
 19 11  1  0  0  0  0
 21 30  1  6  0  0  0
 21 20  1  0  0  0  0
 22 27  1  1  0  0  0
 22 24  1  0  0  0  0
 23 21  1  0  0  0  0
 23 22  1  0  0  0  0
 24 25  1  0  0  0  0
 24 26  1  0  0  0  0
 28 20  1  6  0  0  0
 28 26  1  0  0  0  0
 28 15  1  0  0  0  0
 29 30  1  0  0  0  0
 31 32  1  0  0  0  0
 33 32  2  0  0  0  0
 34 36  1  0  0  0  0
 35 36  2  0  0  0  0
 35 37  1  0  0  0  0
 36 33  1  0  0  0  0
 37 31  2  0  0  0  0
M  END
>  <MODEL>
3

>  <REMARK>
 VINA RESULT:      -0.6      2.603      6.241
  Name = 
  3 active torsions:
  status: ('A' for Active; 'I' for Inactive)
    1  A    between atoms: C_4  and  C_37
    2  A    between atoms: N_21  and  C_27
    3  A    between atoms: C_23  and  C_30
                            x       y       z     vdW  Elec       q    Type
                         _______ _______ _______ _____ _____    ______ ____

>  <TORSDO>
F 3

$$$$
