=
 OpenBabel11122413163D

 31 35  0  0  1  0  0  0  0  0999 V2000
  161.7940  207.0990  147.3650 C   0  0  0  0  0  0  0  0  0  0  0  0
  161.2440  205.3240  150.6400 C   0  0  0  0  0  0  0  0  0  0  0  0
  161.0860  203.9380  150.3500 C   0  0  0  0  0  0  0  0  0  0  0  0
  161.5850  209.7390  153.5100 O   0  0  0  0  0  0  0  0  0  0  0  0
  161.3610  208.7630  154.2720 C   0  0  0  0  0  0  0  0  0  0  0  0
  160.9820  202.0470  148.8070 C   0  0  0  0  0  0  0  0  0  0  0  0
  161.4730  206.3410  149.6650 C   0  0  0  0  0  0  0  0  0  0  0  0
  161.9280  208.4150  147.8050 C   0  0  0  0  0  3  0  0  0  0  0  0
  161.1420  203.4140  149.0460 C   0  0  0  0  0  3  0  0  0  0  0  0
  161.3120  207.0610  152.3650 C   0  0  0  0  0  0  0  0  0  0  0  0
  161.8820  206.8130  146.0450 F   0  0  0  0  0  0  0  0  0  0  0  0
  160.8040  203.4940  152.6890 N   0  0  0  0  0  0  0  0  0  0  0  0
  161.0550  201.4330  147.1710 Cl  0  0  0  0  0  0  0  0  0  0  0  0
  161.5270  207.9980  151.4080 N   0  0  0  0  0  0  0  0  0  0  0  0
  161.1660  205.7150  152.0030 C   0  0  0  0  0  0  0  0  0  0  0  0
  161.2290  207.4350  153.7470 N   0  0  0  0  0  2  0  0  0  0  0  0
  161.5690  206.0750  148.2880 C   0  0  0  0  0  3  0  0  0  0  0  0
  160.7630  201.1730  149.8720 C   0  0  0  0  0  3  0  0  0  0  0  0
  161.6120  207.6850  150.0940 C   0  0  0  0  0  0  0  0  0  0  0  0
  161.8370  208.7070  149.1660 C   0  0  0  0  0  3  0  0  0  0  0  0
  160.9500  204.7860  152.9700 N   0  0  0  0  0  0  0  0  0  0  0  0
  160.8640  203.0350  151.4180 C   0  0  0  0  0  0  0  0  0  0  0  0
  160.7050  201.6680  151.1750 C   0  0  0  0  0  3  0  0  0  0  0  0
  159.4100  211.1630  156.3570 C   0  0  1  0  0  3  0  0  0  0  0  0
  159.8000  208.8160  156.2320 C   0  0  0  0  0  2  0  0  0  0  0  0
  163.1670  210.6710  155.6890 C   0  0  0  0  0  1  0  0  0  0  0  0
  158.4550  212.2780  155.9880 C   0  0  0  0  0  1  0  0  0  0  0  0
  158.9450  209.9090  155.7650 N   0  0  0  0  0  2  0  0  0  0  0  0
  161.7690  210.3780  156.2060 C   0  0  2  0  0  3  0  0  0  0  0  0
  161.2430  209.0050  155.7500 C   0  0  2  0  0  3  0  0  0  0  0  0
  160.8060  211.5040  155.8410 C   0  0  0  0  0  2  0  0  0  0  0  0
  1  8  2  0  0  0  0
  1 17  1  0  0  0  0
  2 15  1  0  0  0  0
  3  2  2  0  0  0  0
  3 22  1  0  0  0  0
  4  5  2  0  0  0  0
  6  9  2  0  0  0  0
  6 18  1  0  0  0  0
  7 19  1  0  0  0  0
  7  2  1  0  0  0  0
  8 20  1  0  0  0  0
  9  3  1  0  0  0  0
 10 16  1  0  0  0  0
 11  1  1  0  0  0  0
 12 21  1  0  0  0  0
 13  6  1  0  0  0  0
 14 10  2  0  0  0  0
 15 10  1  0  0  0  0
 15 21  2  0  0  0  0
 16  5  1  0  0  0  0
 17  7  2  0  0  0  0
 18 23  2  0  0  0  0
 19 14  1  0  0  0  0
 20 19  2  0  0  0  0
 22 12  2  0  0  0  0
 23 22  1  0  0  0  0
 24 27  1  6  0  0  0
 28 25  1  0  0  0  0
 28 24  1  0  0  0  0
 29 26  1  6  0  0  0
 30  5  1  6  0  0  0
 30 29  1  0  0  0  0
 30 25  1  0  0  0  0
 31 29  1  0  0  0  0
 31 24  1  0  0  0  0
M  END
>  <MODEL>
1

>  <REMARK>
 VINA RESULT:      -9.9      0.000      0.000
  Name = 
  1 active torsions:
  status: ('A' for Active; 'I' for Inactive)
    1  A    between atoms: C_5  and  C_30
                            x       y       z     vdW  Elec       q    Type
                         _______ _______ _______ _____ _____    ______ ____

>  <TORSDO>
F 1

$$$$
=
 OpenBabel11122413163D

 31 35  0  0  1  0  0  0  0  0999 V2000
  161.8410  206.8070  147.1530 C   0  0  0  0  0  0  0  0  0  0  0  0
  161.3040  205.7390  150.7230 C   0  0  0  0  0  0  0  0  0  0  0  0
  161.1490  204.3220  150.7240 C   0  0  0  0  0  0  0  0  0  0  0  0
  161.6400  210.6490  152.6280 O   0  0  0  0  0  0  0  0  0  0  0  0
  161.4200  209.8480  153.5750 C   0  0  0  0  0  0  0  0  0  0  0  0
  161.0470  202.1560  149.6000 C   0  0  0  0  0  0  0  0  0  0  0  0
  161.5280  206.5350  149.5600 C   0  0  0  0  0  0  0  0  0  0  0  0
  161.9730  208.1860  147.3140 C   0  0  0  0  0  3  0  0  0  0  0  0
  161.2030  203.5420  149.5540 C   0  0  0  0  0  3  0  0  0  0  0  0
  161.3710  207.7920  152.0560 C   0  0  0  0  0  0  0  0  0  0  0  0
  161.9270  206.2570  145.9190 F   0  0  0  0  0  0  0  0  0  0  0  0
  160.8740  204.3660  153.1050 N   0  0  0  0  0  0  0  0  0  0  0  0
  161.1180  201.2190  148.1240 Cl  0  0  0  0  0  0  0  0  0  0  0  0
  161.5820  208.5140  150.9270 N   0  0  0  0  0  0  0  0  0  0  0  0
  161.2280  206.4000  151.9770 C   0  0  0  0  0  0  0  0  0  0  0  0
  161.2900  208.4400  153.3320 N   0  0  0  0  0  2  0  0  0  0  0  0
  161.6220  205.9930  148.2670 C   0  0  0  0  0  3  0  0  0  0  0  0
  160.8320  201.5180  150.8220 C   0  0  0  0  0  3  0  0  0  0  0  0
  161.6640  207.9390  149.7040 C   0  0  0  0  0  0  0  0  0  0  0  0
  161.8840  208.7500  148.5870 C   0  0  0  0  0  3  0  0  0  0  0  0
  161.0170  205.6880  153.1150 N   0  0  0  0  0  0  0  0  0  0  0  0
  160.9320  203.6560  151.9540 C   0  0  0  0  0  0  0  0  0  0  0  0
  160.7760  202.2680  151.9970 C   0  0  0  0  0  3  0  0  0  0  0  0
  160.5210  208.3440  156.8680 C   0  0  1  0  0  3  0  0  0  0  0  0
  162.2630  209.6690  155.9270 C   0  0  0  0  0  2  0  0  0  0  0  0
  158.8540  210.9720  154.6060 C   0  0  0  0  0  1  0  0  0  0  0  0
  160.1110  206.9410  157.2600 C   0  0  0  0  0  1  0  0  0  0  0  0
  161.8140  208.3000  156.1870 N   0  0  0  0  0  2  0  0  0  0  0  0
  159.8760  210.3530  155.5430 C   0  0  2  0  0  3  0  0  0  0  0  0
  161.3040  210.3880  154.9720 C   0  0  2  0  0  3  0  0  0  0  0  0
  159.4600  208.9410  155.9460 C   0  0  0  0  0  2  0  0  0  0  0  0
  1  8  2  0  0  0  0
  1 17  1  0  0  0  0
  2  3  2  0  0  0  0
  2 15  1  0  0  0  0
  3 22  1  0  0  0  0
  4  5  2  0  0  0  0
  6 18  1  0  0  0  0
  7 19  1  0  0  0  0
  7  2  1  0  0  0  0
  8 20  1  0  0  0  0
  9  6  2  0  0  0  0
  9  3  1  0  0  0  0
 10 16  1  0  0  0  0
 11  1  1  0  0  0  0
 12 21  1  0  0  0  0
 13  6  1  0  0  0  0
 14 10  2  0  0  0  0
 15 10  1  0  0  0  0
 15 21  2  0  0  0  0
 16  5  1  0  0  0  0
 17  7  2  0  0  0  0
 18 23  2  0  0  0  0
 19 14  1  0  0  0  0
 20 19  2  0  0  0  0
 22 23  1  0  0  0  0
 22 12  2  0  0  0  0
 24 27  1  6  0  0  0
 25 28  1  0  0  0  0
 28 24  1  0  0  0  0
 29 26  1  6  0  0  0
 29 31  1  0  0  0  0
 30  5  1  6  0  0  0
 30 29  1  0  0  0  0
 30 25  1  0  0  0  0
 31 24  1  0  0  0  0
M  END
>  <MODEL>
2

>  <REMARK>
 VINA RESULT:      -9.6      1.074      1.878
  Name = 
  1 active torsions:
  status: ('A' for Active; 'I' for Inactive)
    1  A    between atoms: C_5  and  C_30
                            x       y       z     vdW  Elec       q    Type
                         _______ _______ _______ _____ _____    ______ ____

>  <TORSDO>
F 1

$$$$
=
 OpenBabel11122413163D

 31 35  0  0  1  0  0  0  0  0999 V2000
  161.1830  204.5980  152.3270 C   0  0  0  0  0  0  0  0  0  0  0  0
  161.3990  205.8260  148.7740 C   0  0  0  0  0  0  0  0  0  0  0  0
  161.3410  204.6820  147.9250 C   0  0  0  0  0  0  0  0  0  0  0  0
  161.7160  210.9070  150.1620 O   0  0  0  0  0  0  0  0  0  0  0  0
  161.7730  210.8130  148.9080 C   0  0  0  0  0  0  0  0  0  0  0  0
  161.1690  202.2760  147.5450 C   0  0  0  0  0  0  0  0  0  0  0  0
  161.3470  205.7880  150.2000 C   0  0  0  0  0  0  0  0  0  0  0  0
  161.2510  205.8050  153.0210 C   0  0  0  0  0  3  0  0  0  0  0  0
  161.2230  203.3680  148.4130 C   0  0  0  0  0  3  0  0  0  0  0  0
  161.5810  208.2630  148.9160 C   0  0  0  0  0  0  0  0  0  0  0  0
  161.0700  203.4310  153.0050 F   0  0  0  0  0  0  0  0  0  0  0  0
  161.5160  206.1120  146.0080 N   0  0  0  0  0  0  0  0  0  0  0  0
  161.0230  200.6550  148.1890 Cl  0  0  0  0  0  0  0  0  0  0  0  0
  161.5290  208.1860  150.2690 N   0  0  0  0  0  0  0  0  0  0  0  0
  161.5180  207.0940  148.1470 C   0  0  0  0  0  0  0  0  0  0  0  0
  161.7020  209.5340  148.2620 N   0  0  0  0  0  2  0  0  0  0  0  0
  161.2300  204.5920  150.9310 C   0  0  0  0  0  3  0  0  0  0  0  0
  161.2320  202.4760  146.1660 C   0  0  0  0  0  3  0  0  0  0  0  0
  161.4160  207.0050  150.9220 C   0  0  0  0  0  0  0  0  0  0  0  0
  161.3670  207.0060  152.3200 C   0  0  0  0  0  3  0  0  0  0  0  0
  161.5720  207.1850  146.7920 N   0  0  0  0  0  0  0  0  0  0  0  0
  161.4030  204.8650  146.5230 C   0  0  0  0  0  0  0  0  0  0  0  0
  161.3480  203.7690  145.6570 C   0  0  0  0  0  3  0  0  0  0  0  0
  159.8230  213.9850  148.6880 C   0  0  1  0  0  3  0  0  0  0  0  0
  162.0850  213.2970  148.9840 C   0  0  0  0  0  2  0  0  0  0  0  0
  160.4570  211.0830  146.2430 C   0  0  0  0  0  1  0  0  0  0  0  0
  158.5720  214.4530  149.3990 C   0  0  0  0  0  1  0  0  0  0  0  0
  160.8380  213.6250  149.6770 N   0  0  0  0  0  2  0  0  0  0  0  0
  160.7480  212.2990  147.1040 C   0  0  2  0  0  3  0  0  0  0  0  0
  161.9070  212.0660  148.0890 C   0  0  2  0  0  3  0  0  0  0  0  0
  159.4860  212.7770  147.8160 C   0  0  0  0  0  2  0  0  0  0  0  0
  1 11  1  0  0  0  0
  1  8  1  0  0  0  0
  2  7  1  0  0  0  0
  3  9  1  0  0  0  0
  3  2  2  0  0  0  0
  5  4  2  0  0  0  0
  6 13  1  0  0  0  0
  6  9  2  0  0  0  0
  7 19  2  0  0  0  0
  7 17  1  0  0  0  0
 10 14  2  0  0  0  0
 12 22  2  0  0  0  0
 12 21  1  0  0  0  0
 14 19  1  0  0  0  0
 15  2  1  0  0  0  0
 15 10  1  0  0  0  0
 16  5  1  0  0  0  0
 16 10  1  0  0  0  0
 17  1  2  0  0  0  0
 18  6  1  0  0  0  0
 19 20  1  0  0  0  0
 20  8  2  0  0  0  0
 21 15  2  0  0  0  0
 22  3  1  0  0  0  0
 23 18  2  0  0  0  0
 23 22  1  0  0  0  0
 24 27  1  1  0  0  0
 24 28  1  0  0  0  0
 25 28  1  0  0  0  0
 29 26  1  1  0  0  0
 29 31  1  0  0  0  0
 29 30  1  0  0  0  0
 30  5  1  1  0  0  0
 30 25  1  0  0  0  0
 31 24  1  0  0  0  0
M  END
>  <MODEL>
3

>  <REMARK>
 VINA RESULT:      -9.3      3.683      5.734
  Name = 
  1 active torsions:
  status: ('A' for Active; 'I' for Inactive)
    1  A    between atoms: C_5  and  C_30
                            x       y       z     vdW  Elec       q    Type
                         _______ _______ _______ _____ _____    ______ ____

>  <TORSDO>
F 1

$$$$
=
 OpenBabel11122413163D

 31 35  0  0  1  0  0  0  0  0999 V2000
  161.0560  204.5690  152.5710 C   0  0  0  0  0  0  0  0  0  0  0  0
  161.4060  206.2220  149.2060 C   0  0  0  0  0  0  0  0  0  0  0  0
  161.3990  205.1900  148.2230 C   0  0  0  0  0  0  0  0  0  0  0  0
  161.5960  211.0990  151.2120 O   0  0  0  0  0  0  0  0  0  0  0  0
  161.7070  211.1580  149.9590 C   0  0  0  0  0  0  0  0  0  0  0  0
  161.2750  202.8460  147.5460 C   0  0  0  0  0  0  0  0  0  0  0  0
  161.2950  206.0100  150.6130 C   0  0  0  0  0  0  0  0  0  0  0  0
  161.0790  205.6830  153.4080 C   0  0  0  0  0  3  0  0  0  0  0  0
  161.2780  203.8250  148.5420 C   0  0  0  0  0  3  0  0  0  0  0  0
  161.5490  208.6250  149.6500 C   0  0  0  0  0  0  0  0  0  0  0  0
  160.9310  203.3280  153.0960 F   0  0  0  0  0  0  0  0  0  0  0  0
  161.6360  206.8430  146.5030 N   0  0  0  0  0  0  0  0  0  0  0  0
  161.1250  201.1580  147.9820 Cl  0  0  0  0  0  0  0  0  0  0  0  0
  161.4410  208.3830  150.9800 N   0  0  0  0  0  0  0  0  0  0  0  0
  161.5340  207.5580  148.7420 C   0  0  0  0  0  0  0  0  0  0  0  0
  161.6800  209.9670  149.1610 N   0  0  0  0  0  2  0  0  0  0  0  0
  161.1630  204.7340  151.1870 C   0  0  0  0  0  3  0  0  0  0  0  0
  161.3940  203.2130  146.2060 C   0  0  0  0  0  3  0  0  0  0  0  0
  161.3160  207.1310  151.4800 C   0  0  0  0  0  0  0  0  0  0  0  0
  161.2090  206.9610  152.8640 C   0  0  0  0  0  3  0  0  0  0  0  0
  161.6440  207.8140  147.4120 N   0  0  0  0  0  0  0  0  0  0  0  0
  161.5180  205.5420  146.8570 C   0  0  0  0  0  0  0  0  0  0  0  0
  161.5150  204.5600  145.8630 C   0  0  0  0  0  3  0  0  0  0  0  0
  159.9160  212.9140  147.1980 C   0  0  1  0  0  3  0  0  0  0  0  0
  160.5800  213.3370  149.4470 C   0  0  0  0  0  2  0  0  0  0  0  0
  163.4920  211.5540  147.6000 C   0  0  0  0  0  1  0  0  0  0  0  0
  158.7670  212.4900  146.3080 C   0  0  0  0  0  1  0  0  0  0  0  0
  159.5120  212.8040  148.5990 N   0  0  0  0  0  2  0  0  0  0  0  0
  162.2790  212.4390  147.8270 C   0  0  2  0  0  3  0  0  0  0  0  0
  161.8580  212.5030  149.3060 C   0  0  2  0  0  3  0  0  0  0  0  0
  161.1220  212.0170  146.9260 C   0  0  0  0  0  2  0  0  0  0  0  0
  1 11  1  0  0  0  0
  1  8  1  0  0  0  0
  2  7  1  0  0  0  0
  3  9  1  0  0  0  0
  3  2  2  0  0  0  0
  5  4  2  0  0  0  0
  6 13  1  0  0  0  0
  6  9  2  0  0  0  0
  7 17  1  0  0  0  0
  7 19  2  0  0  0  0
 10 14  2  0  0  0  0
 12 22  2  0  0  0  0
 12 21  1  0  0  0  0
 14 19  1  0  0  0  0
 15  2  1  0  0  0  0
 15 10  1  0  0  0  0
 16 10  1  0  0  0  0
 16  5  1  0  0  0  0
 17  1  2  0  0  0  0
 18  6  1  0  0  0  0
 19 20  1  0  0  0  0
 20  8  2  0  0  0  0
 21 15  2  0  0  0  0
 22  3  1  0  0  0  0
 23 18  2  0  0  0  0
 23 22  1  0  0  0  0
 24 27  1  6  0  0  0
 24 28  1  0  0  0  0
 28 25  1  0  0  0  0
 29 26  1  1  0  0  0
 29 30  1  0  0  0  0
 30 25  1  0  0  0  0
 30  5  1  6  0  0  0
 31 24  1  0  0  0  0
 31 29  1  0  0  0  0
M  END
>  <MODEL>
4

>  <REMARK>
 VINA RESULT:      -9.0      3.506      5.736
  Name = 
  1 active torsions:
  status: ('A' for Active; 'I' for Inactive)
    1  A    between atoms: C_5  and  C_30
                            x       y       z     vdW  Elec       q    Type
                         _______ _______ _______ _____ _____    ______ ____

>  <TORSDO>
F 1

$$$$
=
 OpenBabel11122413163D

 31 35  0  0  1  0  0  0  0  0999 V2000
  160.8200  207.2030  154.2120 C   0  0  0  0  0  0  0  0  0  0  0  0
  161.2870  207.6660  150.5050 C   0  0  0  0  0  0  0  0  0  0  0  0
  161.3340  206.3680  149.9170 C   0  0  0  0  0  0  0  0  0  0  0  0
  161.3340  212.9350  150.7970 O   0  0  0  0  0  0  0  0  0  0  0  0
  161.4960  212.5820  149.6000 C   0  0  0  0  0  0  0  0  0  0  0  0
  161.2670  203.9300  150.0470 C   0  0  0  0  0  0  0  0  0  0  0  0
  161.1210  207.9260  151.8980 C   0  0  0  0  0  0  0  0  0  0  0  0
  160.7940  208.5310  154.6360 C   0  0  0  0  0  3  0  0  0  0  0  0
  161.2160  205.1820  150.6640 C   0  0  0  0  0  3  0  0  0  0  0  0
  161.3820  210.0850  150.1370 C   0  0  0  0  0  0  0  0  0  0  0  0
  160.6880  206.2010  155.1130 F   0  0  0  0  0  0  0  0  0  0  0  0
  161.6210  207.3700  147.7580 N   0  0  0  0  0  0  0  0  0  0  0  0
  161.1190  202.4760  151.0090 Cl  0  0  0  0  0  0  0  0  0  0  0  0
  161.2220  210.2910  151.4680 N   0  0  0  0  0  0  0  0  0  0  0  0
  161.4180  208.7780  149.6320 C   0  0  0  0  0  0  0  0  0  0  0  0
  161.5170  211.1940  149.2380 N   0  0  0  0  0  2  0  0  0  0  0  0
  160.9810  206.9070  152.8560 C   0  0  0  0  0  3  0  0  0  0  0  0
  161.4360  203.8390  148.6660 C   0  0  0  0  0  3  0  0  0  0  0  0
  161.0920  209.2700  152.3480 C   0  0  0  0  0  0  0  0  0  0  0  0
  160.9300  209.5620  153.7060 C   0  0  0  0  0  3  0  0  0  0  0  0
  161.5790  208.5860  148.2960 N   0  0  0  0  0  0  0  0  0  0  0  0
  161.5040  206.2550  148.5170 C   0  0  0  0  0  0  0  0  0  0  0  0
  161.5540  205.0010  147.9020 C   0  0  0  0  0  3  0  0  0  0  0  0
  159.8460  213.2450  146.3200 C   0  0  1  0  0  3  0  0  0  0  0  0
  160.3530  214.4160  148.3320 C   0  0  0  0  0  2  0  0  0  0  0  0
  163.4210  212.2540  147.3420 C   0  0  0  0  0  1  0  0  0  0  0  0
  158.7680  212.5010  145.5620 C   0  0  0  0  0  1  0  0  0  0  0  0
  159.3550  213.5870  147.6540 N   0  0  0  0  0  2  0  0  0  0  0  0
  162.1740  213.1090  147.1960 C   0  0  2  0  0  3  0  0  0  0  0  0
  161.6570  213.6400  148.5450 C   0  0  2  0  0  3  0  0  0  0  0  0
  161.0890  212.3630  146.4260 C   0  0  0  0  0  2  0  0  0  0  0  0
  1  8  1  0  0  0  0
  1 11  1  0  0  0  0
  2  7  1  0  0  0  0
  3  2  1  0  0  0  0
  3  9  1  0  0  0  0
  5  4  2  0  0  0  0
  6  9  2  0  0  0  0
  6 13  1  0  0  0  0
  7 19  2  0  0  0  0
  7 17  1  0  0  0  0
 10 14  2  0  0  0  0
 12 21  2  0  0  0  0
 12 22  1  0  0  0  0
 14 19  1  0  0  0  0
 15 10  1  0  0  0  0
 15  2  2  0  0  0  0
 16  5  1  0  0  0  0
 16 10  1  0  0  0  0
 17  1  2  0  0  0  0
 18  6  1  0  0  0  0
 19 20  1  0  0  0  0
 20  8  2  0  0  0  0
 21 15  1  0  0  0  0
 22  3  2  0  0  0  0
 23 22  1  0  0  0  0
 23 18  2  0  0  0  0
 24 27  1  6  0  0  0
 24 31  1  0  0  0  0
 24 28  1  0  0  0  0
 25 30  1  0  0  0  0
 28 25  1  0  0  0  0
 29 26  1  1  0  0  0
 29 30  1  0  0  0  0
 30  5  1  1  0  0  0
 31 29  1  0  0  0  0
M  END
>  <MODEL>
5

>  <REMARK>
 VINA RESULT:      -8.0      3.690      6.325
  Name = 
  1 active torsions:
  status: ('A' for Active; 'I' for Inactive)
    1  A    between atoms: C_5  and  C_30
                            x       y       z     vdW  Elec       q    Type
                         _______ _______ _______ _____ _____    ______ ____

>  <TORSDO>
F 1

$$$$
=
 OpenBabel11122413163D

 31 35  0  0  1  0  0  0  0  0999 V2000
  162.0460  207.0330  147.4880 C   0  0  0  0  0  0  0  0  0  0  0  0
  161.1090  205.3560  150.7260 C   0  0  0  0  0  0  0  0  0  0  0  0
  161.0480  203.9540  150.4760 C   0  0  0  0  0  0  0  0  0  0  0  0
  160.8730  209.8830  153.4280 O   0  0  0  0  0  0  0  0  0  0  0  0
  160.5810  208.9250  154.1910 C   0  0  0  0  0  0  0  0  0  0  0  0
  161.2350  202.0060  149.0140 C   0  0  0  0  0  0  0  0  0  0  0  0
  161.4340  206.3450  149.7510 C   0  0  0  0  0  0  0  0  0  0  0  0
  162.0660  208.3690  147.8870 C   0  0  0  0  0  3  0  0  0  0  0  0
  161.3060  203.3860  149.2150 C   0  0  0  0  0  3  0  0  0  0  0  0
  160.8670  207.1550  152.3690 C   0  0  0  0  0  0  0  0  0  0  0  0
  162.3300  206.7030  146.2060 F   0  0  0  0  0  0  0  0  0  0  0  0
  160.4560  203.5830  152.7700 N   0  0  0  0  0  0  0  0  0  0  0  0
  161.5610  201.3360  147.4310 Cl  0  0  0  0  0  0  0  0  0  0  0  0
  161.1790  208.0660  151.4130 N   0  0  0  0  0  0  0  0  0  0  0  0
  160.8260  205.7920  152.0470 C   0  0  0  0  0  0  0  0  0  0  0  0
  160.5760  207.5740  153.7090 N   0  0  0  0  0  2  0  0  0  0  0  0
  161.7330  206.0340  148.4130 C   0  0  0  0  0  3  0  0  0  0  0  0
  160.9020  201.1620  150.0740 C   0  0  0  0  0  3  0  0  0  0  0  0
  161.4590  207.7090  150.1380 C   0  0  0  0  0  0  0  0  0  0  0  0
  161.7730  208.7060  149.2080 C   0  0  0  0  0  3  0  0  0  0  0  0
  160.5110  204.8900  153.0140 N   0  0  0  0  0  0  0  0  0  0  0  0
  160.7120  203.0810  151.5390 C   0  0  0  0  0  0  0  0  0  0  0  0
  160.6420  201.7000  151.3350 C   0  0  0  0  0  3  0  0  0  0  0  0
  162.4330  210.5120  157.0130 C   0  0  1  0  0  3  0  0  0  0  0  0
  160.3250  210.7170  155.9230 C   0  0  0  0  0  2  0  0  0  0  0  0
  161.1430  206.9470  156.3550 C   0  0  0  0  0  1  0  0  0  0  0  0
  163.8330  211.0780  157.1120 C   0  0  0  0  0  1  0  0  0  0  0  0
  161.7150  211.1780  155.9280 N   0  0  0  0  0  2  0  0  0  0  0  0
  161.1040  208.4380  156.6420 C   0  0  2  0  0  3  0  0  0  0  0  0
  160.2470  209.2160  155.6270 C   0  0  2  0  0  3  0  0  0  0  0  0
  162.5140  209.0100  156.7480 C   0  0  0  0  0  2  0  0  0  0  0  0
  1  8  2  0  0  0  0
  1 17  1  0  0  0  0
  2 15  1  0  0  0  0
  3  2  2  0  0  0  0
  3 22  1  0  0  0  0
  4  5  2  0  0  0  0
  6  9  2  0  0  0  0
  6 18  1  0  0  0  0
  7 19  1  0  0  0  0
  7  2  1  0  0  0  0
  8 20  1  0  0  0  0
  9  3  1  0  0  0  0
 10 16  1  0  0  0  0
 11  1  1  0  0  0  0
 12 21  1  0  0  0  0
 13  6  1  0  0  0  0
 14 10  2  0  0  0  0
 15 10  1  0  0  0  0
 15 21  2  0  0  0  0
 16  5  1  0  0  0  0
 17  7  2  0  0  0  0
 18 23  2  0  0  0  0
 19 14  1  0  0  0  0
 20 19  2  0  0  0  0
 22 12  2  0  0  0  0
 23 22  1  0  0  0  0
 24 27  1  6  0  0  0
 25 28  1  0  0  0  0
 28 24  1  0  0  0  0
 29 26  1  6  0  0  0
 29 31  1  0  0  0  0
 30  5  1  6  0  0  0
 30 25  1  0  0  0  0
 30 29  1  0  0  0  0
 31 24  1  0  0  0  0
M  END
>  <MODEL>
6

>  <REMARK>
 VINA RESULT:      -7.9      0.925      1.725
  Name = 
  1 active torsions:
  status: ('A' for Active; 'I' for Inactive)
    1  A    between atoms: C_5  and  C_30
                            x       y       z     vdW  Elec       q    Type
                         _______ _______ _______ _____ _____    ______ ____

>  <TORSDO>
F 1

$$$$
=
 OpenBabel11122413163D

 31 35  0  0  1  0  0  0  0  0999 V2000
  161.5730  205.7370  151.7630 C   0  0  0  0  0  0  0  0  0  0  0  0
  160.9830  209.2890  152.8650 C   0  0  0  0  0  0  0  0  0  0  0  0
  160.6700  209.2550  154.2550 C   0  0  0  0  0  0  0  0  0  0  0  0
  161.9040  211.3140  148.0800 O   0  0  0  0  0  0  0  0  0  0  0  0
  161.6120  212.2440  148.8780 C   0  0  0  0  0  0  0  0  0  0  0  0
  160.3040  208.0780  156.3640 C   0  0  0  0  0  0  0  0  0  0  0  0
  161.2740  208.1420  152.0660 C   0  0  0  0  0  0  0  0  0  0  0  0
  161.8610  205.9310  150.4130 C   0  0  0  0  0  3  0  0  0  0  0  0
  160.6150  208.0650  155.0030 C   0  0  0  0  0  3  0  0  0  0  0  0
  161.3050  210.6730  150.8720 C   0  0  0  0  0  0  0  0  0  0  0  0
  161.5740  204.4870  152.2830 F   0  0  0  0  0  0  0  0  0  0  0  0
  160.4440  211.6420  154.2490 N   0  0  0  0  0  0  0  0  0  0  0  0
  160.2430  206.5760  157.2600 Cl  0  0  0  0  0  0  0  0  0  0  0  0
  161.5750  209.5600  150.1450 N   0  0  0  0  0  0  0  0  0  0  0  0
  161.0050  210.5610  152.2360 C   0  0  0  0  0  0  0  0  0  0  0  0
  161.3210  211.9670  150.2550 N   0  0  0  0  0  2  0  0  0  0  0  0
  161.2830  206.8330  152.5790 C   0  0  0  0  0  3  0  0  0  0  0  0
  160.0420  209.2860  157.0080 C   0  0  0  0  0  3  0  0  0  0  0  0
  161.5700  208.3210  150.6920 C   0  0  0  0  0  0  0  0  0  0  0  0
  161.8600  207.2200  149.8790 C   0  0  0  0  0  3  0  0  0  0  0  0
  160.7350  211.6840  152.9520 N   0  0  0  0  0  0  0  0  0  0  0  0
  160.4020  210.4720  154.9270 C   0  0  0  0  0  0  0  0  0  0  0  0
  160.0910  210.4820  156.2900 C   0  0  0  0  0  3  0  0  0  0  0  0
  159.1450  214.2450  146.9230 C   0  0  1  0  0  3  0  0  0  0  0  0
  160.3930  214.4320  148.9440 C   0  0  0  0  0  2  0  0  0  0  0  0
  162.6940  212.9550  146.1880 C   0  0  0  0  0  1  0  0  0  0  0  0
  157.7970  213.8910  146.3320 C   0  0  0  0  0  1  0  0  0  0  0  0
  159.1340  213.9670  148.3590 N   0  0  0  0  0  2  0  0  0  0  0  0
  161.5890  213.7720  146.8340 C   0  0  2  0  0  3  0  0  0  0  0  0
  161.5840  213.6570  148.3690 C   0  0  2  0  0  3  0  0  0  0  0  0
  160.2300  213.4210  146.2340 C   0  0  0  0  0  2  0  0  0  0  0  0
  1 11  1  0  0  0  0
  1 17  1  0  0  0  0
  2  3  1  0  0  0  0
  3 22  2  0  0  0  0
  3  9  1  0  0  0  0
  4  5  2  0  0  0  0
  5 16  1  0  0  0  0
  6 18  1  0  0  0  0
  6 13  1  0  0  0  0
  7 17  2  0  0  0  0
  7  2  1  0  0  0  0
  8  1  2  0  0  0  0
  9  6  2  0  0  0  0
 10 15  1  0  0  0  0
 12 22  1  0  0  0  0
 14 19  1  0  0  0  0
 14 10  2  0  0  0  0
 15  2  2  0  0  0  0
 15 21  1  0  0  0  0
 16 10  1  0  0  0  0
 19  7  1  0  0  0  0
 20  8  1  0  0  0  0
 20 19  2  0  0  0  0
 21 12  2  0  0  0  0
 22 23  1  0  0  0  0
 23 18  2  0  0  0  0
 24 27  1  6  0  0  0
 24 28  1  0  0  0  0
 28 25  1  0  0  0  0
 29 26  1  6  0  0  0
 29 30  1  0  0  0  0
 30  5  1  6  0  0  0
 30 25  1  0  0  0  0
 31 29  1  0  0  0  0
 31 24  1  0  0  0  0
M  END
>  <MODEL>
7

>  <REMARK>
 VINA RESULT:      -7.5      4.306      7.467
  Name = 
  1 active torsions:
  status: ('A' for Active; 'I' for Inactive)
    1  A    between atoms: C_5  and  C_30
                            x       y       z     vdW  Elec       q    Type
                         _______ _______ _______ _____ _____    ______ ____

>  <TORSDO>
F 1

$$$$
=
 OpenBabel11122413163D

 31 35  0  0  1  0  0  0  0  0999 V2000
  161.1200  203.2990  151.0650 C   0  0  0  0  0  0  0  0  0  0  0  0
  161.4340  207.0400  151.3620 C   0  0  0  0  0  0  0  0  0  0  0  0
  161.7350  207.5450  150.0630 C   0  0  0  0  0  0  0  0  0  0  0  0
  160.4130  207.0820  156.5390 O   0  0  0  0  0  0  0  0  0  0  0  0
  160.6270  208.2590  156.1460 C   0  0  0  0  0  0  0  0  0  0  0  0
  162.1670  207.2590  147.6770 C   0  0  0  0  0  0  0  0  0  0  0  0
  161.2360  205.6610  151.6760 C   0  0  0  0  0  0  0  0  0  0  0  0
  160.8300  202.9600  152.3860 C   0  0  0  0  0  3  0  0  0  0  0  0
  161.8710  206.7220  148.9310 C   0  0  0  0  0  3  0  0  0  0  0  0
  161.0300  207.5620  153.7190 C   0  0  0  0  0  0  0  0  0  0  0  0
  161.2060  202.3340  150.1200 F   0  0  0  0  0  0  0  0  0  0  0  0
  161.7840  209.7700  150.9550 N   0  0  0  0  0  0  0  0  0  0  0  0
  162.3310  206.2040  146.2910 Cl  0  0  0  0  0  0  0  0  0  0  0  0
  160.8500  206.2430  153.9780 N   0  0  0  0  0  0  0  0  0  0  0  0
  161.3240  207.9840  152.4160 C   0  0  0  0  0  0  0  0  0  0  0  0
  160.9250  208.5330  154.7700 N   0  0  0  0  0  2  0  0  0  0  0  0
  161.3200  204.6370  150.7170 C   0  0  0  0  0  3  0  0  0  0  0  0
  162.3330  208.6360  147.5280 C   0  0  0  0  0  3  0  0  0  0  0  0
  160.9410  205.2970  153.0140 C   0  0  0  0  0  0  0  0  0  0  0  0
  160.7420  203.9560  153.3580 C   0  0  0  0  0  3  0  0  0  0  0  0
  161.5030  209.3090  152.1700 N   0  0  0  0  0  0  0  0  0  0  0  0
  161.9070  208.9400  149.8930 C   0  0  0  0  0  0  0  0  0  0  0  0
  162.2020  209.4740  148.6360 C   0  0  0  0  0  3  0  0  0  0  0  0
  159.7910  211.8860  155.9050 C   0  0  1  0  0  3  0  0  0  0  0  0
  159.1500  209.9890  157.1960 C   0  0  0  0  0  2  0  0  0  0  0  0
  163.0070  209.9540  156.7590 C   0  0  0  0  0  1  0  0  0  0  0  0
  159.4200  212.7620  154.7280 C   0  0  0  0  0  1  0  0  0  0  0  0
  158.8650  210.7580  155.9830 N   0  0  0  0  0  2  0  0  0  0  0  0
  161.5950  210.4940  156.9100 C   0  0  2  0  0  3  0  0  0  0  0  0
  160.5560  209.3820  157.1420 C   0  0  2  0  0  3  0  0  0  0  0  0
  161.2220  211.3820  155.7280 C   0  0  0  0  0  2  0  0  0  0  0  0
  1  8  1  0  0  0  0
  2  7  1  0  0  0  0
  2 15  1  0  0  0  0
  3  2  2  0  0  0  0
  5  4  2  0  0  0  0
  6  9  2  0  0  0  0
  7 19  2  0  0  0  0
  8 20  2  0  0  0  0
  9  3  1  0  0  0  0
 10 14  2  0  0  0  0
 10 16  1  0  0  0  0
 11  1  1  0  0  0  0
 12 21  1  0  0  0  0
 13  6  1  0  0  0  0
 15 10  1  0  0  0  0
 16  5  1  0  0  0  0
 17  1  2  0  0  0  0
 17  7  1  0  0  0  0
 18  6  1  0  0  0  0
 18 23  2  0  0  0  0
 19 20  1  0  0  0  0
 19 14  1  0  0  0  0
 21 15  2  0  0  0  0
 22  3  1  0  0  0  0
 22 12  2  0  0  0  0
 23 22  1  0  0  0  0
 24 27  1  6  0  0  0
 24 28  1  0  0  0  0
 28 25  1  0  0  0  0
 29 26  1  6  0  0  0
 29 30  1  0  0  0  0
 30  5  1  6  0  0  0
 30 25  1  0  0  0  0
 31 24  1  0  0  0  0
 31 29  1  0  0  0  0
M  END
>  <MODEL>
8

>  <REMARK>
 VINA RESULT:      -7.1      2.057      4.251
  Name = 
  1 active torsions:
  status: ('A' for Active; 'I' for Inactive)
    1  A    between atoms: C_5  and  C_30
                            x       y       z     vdW  Elec       q    Type
                         _______ _______ _______ _____ _____    ______ ____

>  <TORSDO>
F 1

$$$$
