=
 OpenBabel11122412353D

 30 35  0  0  1  0  0  0  0  0999 V2000
  161.3650  204.8930  147.9100 C   0  0  1  0  0  3  0  0  0  0  0  0
  161.5220  202.9130  146.3250 C   0  0  2  0  0  3  0  0  0  0  0  0
  161.2620  202.4940  150.7490 N   0  0  0  0  0  2  0  0  0  0  0  0
  161.4300  205.3940  149.3700 C   0  0  1  0  0  3  0  0  0  0  0  0
  162.3310  205.5440  147.1190 O   0  0  0  0  0  0  0  0  0  0  0  0
  161.3430  208.9320  148.0140 O   0  0  0  0  0  1  0  0  0  0  0  0
  160.8690  207.1150  151.8920 C   0  0  1  0  0  3  0  0  0  0  0  0
  161.8860  207.6580  148.2040 C   0  0  2  0  0  3  0  0  0  0  0  0
  161.4760  205.8020  152.3170 C   0  0  1  0  0  3  0  0  0  0  0  0
  161.4800  203.3250  151.9260 C   0  0  2  0  0  3  0  0  0  0  0  0
  161.8920  206.8660  146.8960 C   0  0  2  0  0  3  0  0  0  0  0  0
  161.1800  206.9320  149.3640 C   0  0  2  0  0  3  0  0  0  0  0  0
  161.4080  201.3960  146.2070 C   0  0  0  0  0  2  0  0  0  0  0  0
  161.3680  205.8370  153.8140 C   0  0  0  0  0  2  0  0  0  0  0  0
  160.9950  208.0180  152.9560 O   0  0  0  0  0  0  0  0  0  0  0  0
  162.7180  203.3070  145.7230 O   0  0  0  0  0  1  0  0  0  0  0  0
  160.2320  203.1790  149.9770 C   0  0  1  0  0  3  0  0  0  0  0  0
  160.1290  200.9060  146.8670 C   0  0  0  0  0  2  0  0  0  0  0  0
  161.4870  203.3700  147.8000 C   0  0  2  0  0  3  0  0  0  0  0  0
  160.3580  204.6750  150.2520 C   0  0  1  0  0  3  0  0  0  0  0  0
  161.0150  202.6590  153.0610 O   0  0  0  0  0  1  0  0  0  0  0  0
  160.7070  204.6210  151.7390 C   0  0  2  0  0  3  0  0  0  0  0  0
  160.8770  207.2370  154.1150 C   0  0  0  0  0  2  0  0  0  0  0  0
  162.9810  207.6240  150.8400 O   0  0  0  0  0  1  0  0  0  0  0  0
  160.1520  201.2750  148.3410 C   0  0  0  0  0  2  0  0  0  0  0  0
  160.2550  202.7910  148.5010 C   0  0  1  0  0  3  0  0  0  0  0  0
  161.5910  207.6440  150.6620 C   0  0  2  0  0  3  0  0  0  0  0  0
  160.5730  206.9460  146.1160 C   0  0  0  0  0  2  0  0  0  0  0  0
  159.7630  205.1460  144.8090 F   0  0  0  0  0  0  0  0  0  0  0  0
  160.6860  206.1740  144.8160 C   0  0  0  0  0  2  0  0  0  0  0  0
  1  5  1  6  0  0  0
  1  4  1  0  0  0  0
  2 16  1  1  0  0  0
  2 19  1  0  0  0  0
  3 10  1  0  0  0  0
  4 20  1  0  0  0  0
  6  8  1  0  0  0  0
  7  9  1  0  0  0  0
  7 15  1  0  0  0  0
  8 12  1  0  0  0  0
  9 14  1  0  0  0  0
 10 21  1  0  0  0  0
 11  5  1  0  0  0  0
 11  8  1  0  0  0  0
 12  4  1  0  0  0  0
 12 27  1  0  0  0  0
 13  2  1  0  0  0  0
 13 18  1  0  0  0  0
 14 23  1  0  0  0  0
 15 23  1  0  0  0  0
 17 20  1  0  0  0  0
 17  3  1  0  0  0  0
 18 25  1  0  0  0  0
 19  1  1  0  0  0  0
 19 26  1  0  0  0  0
 20 22  1  0  0  0  0
 22 10  1  0  0  0  0
 22  9  1  0  0  0  0
 25 26  1  0  0  0  0
 26 17  1  0  0  0  0
 27 24  1  0  0  0  0
 27  7  1  0  0  0  0
 28 11  1  0  0  0  0
 29 30  1  0  0  0  0
 30 28  1  0  0  0  0
M  END
>  <MODEL>
1

>  <REMARK>
 VINA RESULT:      -6.5      0.000      0.000
  Name = 
  2 active torsions:
  status: ('A' for Active; 'I' for Inactive)
    1  A    between atoms: C_11  and  C_28
    2  A    between atoms: C_28  and  C_30
                            x       y       z     vdW  Elec       q    Type
                         _______ _______ _______ _____ _____    ______ ____

>  <TORSDO>
F 2

$$$$
=
 OpenBabel11122412353D

 30 35  0  0  1  0  0  0  0  0999 V2000
  161.1130  203.4730  147.8440 C   0  0  1  0  0  3  0  0  0  0  0  0
  160.9850  203.6140  145.3100 C   0  0  2  0  0  3  0  0  0  0  0  0
  161.2670  207.1860  147.9520 N   0  0  0  0  0  2  0  0  0  0  0  0
  161.0450  204.2270  149.1910 C   0  0  1  0  0  3  0  0  0  0  0  0
  160.1330  202.4620  147.7910 O   0  0  0  0  0  0  0  0  0  0  0  0
  161.0650  200.8550  150.9220 O   0  0  0  0  0  1  0  0  0  0  0  0
  161.5840  204.9500  152.1600 C   0  0  1  0  0  3  0  0  0  0  0  0
  160.5450  201.8540  150.0940 C   0  0  2  0  0  3  0  0  0  0  0  0
  161.0020  206.1510  151.4600 C   0  0  1  0  0  3  0  0  0  0  0  0
  161.0390  207.5120  149.3540 C   0  0  2  0  0  3  0  0  0  0  0  0
  160.5480  201.4090  148.6310 C   0  0  2  0  0  3  0  0  0  0  0  0
  161.2670  203.1930  150.3350 C   0  0  2  0  0  3  0  0  0  0  0  0
  161.1250  204.5360  144.1020 C   0  0  0  0  0  2  0  0  0  0  0  0
  161.1140  207.2400  152.4860 C   0  0  0  0  0  2  0  0  0  0  0  0
  161.4460  205.1420  153.5420 O   0  0  0  0  0  0  0  0  0  0  0  0
  159.7800  202.9190  145.1890 O   0  0  0  0  0  1  0  0  0  0  0  0
  162.2830  206.1390  147.9580 C   0  0  1  0  0  3  0  0  0  0  0  0
  162.4140  205.3370  144.1920 C   0  0  0  0  0  2  0  0  0  0  0  0
  161.0170  204.4070  146.6350 C   0  0  2  0  0  3  0  0  0  0  0  0
  162.1320  205.3480  149.2550 C   0  0  1  0  0  3  0  0  0  0  0  0
  161.5190  208.7940  149.6200 O   0  0  0  0  0  1  0  0  0  0  0  0
  161.7880  206.4960  150.2030 C   0  0  2  0  0  3  0  0  0  0  0  0
  161.5810  206.5250  153.7350 C   0  0  0  0  0  2  0  0  0  0  0  0
  159.4600  203.8560  151.8150 O   0  0  0  0  0  1  0  0  0  0  0  0
  162.3890  206.1890  145.4490 C   0  0  0  0  0  2  0  0  0  0  0  0
  162.2610  205.2980  146.6850 C   0  0  1  0  0  3  0  0  0  0  0  0
  160.8490  203.6900  151.7260 C   0  0  2  0  0  3  0  0  0  0  0  0
  161.8630  200.7550  148.1850 C   0  0  0  0  0  2  0  0  0  0  0  0
  161.1320  200.3380  145.9720 F   0  0  0  0  0  0  0  0  0  0  0  0
  161.5940  199.7150  147.1150 C   0  0  0  0  0  2  0  0  0  0  0  0
  1  5  1  1  0  0  0
  1  4  1  0  0  0  0
  2 16  1  6  0  0  0
  2 19  1  0  0  0  0
  3 17  1  0  0  0  0
  3 10  1  0  0  0  0
  4 20  1  0  0  0  0
  4 12  1  0  0  0  0
  5 11  1  0  0  0  0
  7 15  1  0  0  0  0
  8 12  1  0  0  0  0
  8  6  1  0  0  0  0
  9  7  1  0  0  0  0
  9 14  1  0  0  0  0
 10 21  1  0  0  0  0
 10 22  1  0  0  0  0
 11  8  1  0  0  0  0
 12 27  1  0  0  0  0
 13 18  1  0  0  0  0
 13  2  1  0  0  0  0
 14 23  1  0  0  0  0
 15 23  1  0  0  0  0
 17 20  1  0  0  0  0
 18 25  1  0  0  0  0
 19 26  1  0  0  0  0
 19  1  1  0  0  0  0
 20 22  1  0  0  0  0
 22  9  1  0  0  0  0
 25 26  1  0  0  0  0
 26 17  1  0  0  0  0
 27 24  1  0  0  0  0
 27  7  1  0  0  0  0
 28 11  1  0  0  0  0
 29 30  1  0  0  0  0
 30 28  1  0  0  0  0
M  END
>  <MODEL>
2

>  <REMARK>
 VINA RESULT:      -6.3      2.130      4.501
  Name = 
  2 active torsions:
  status: ('A' for Active; 'I' for Inactive)
    1  A    between atoms: C_11  and  C_28
    2  A    between atoms: C_28  and  C_30
                            x       y       z     vdW  Elec       q    Type
                         _______ _______ _______ _____ _____    ______ ____

>  <TORSDO>
F 2

$$$$
=
 OpenBabel11122412353D

 30 35  0  0  1  0  0  0  0  0999 V2000
  161.6420  207.6260  151.1600 C   0  0  1  0  0  3  0  0  0  0  0  0
  162.3580  210.0320  150.7650 C   0  0  2  0  0  3  0  0  0  0  0  0
  162.2170  206.9580  147.5480 N   0  0  0  0  0  2  0  0  0  0  0  0
  161.5580  206.1880  150.6000 C   0  0  1  0  0  3  0  0  0  0  0  0
  162.3850  207.6500  152.3560 O   0  0  0  0  0  0  0  0  0  0  0  0
  160.4750  205.0540  154.0500 O   0  0  0  0  0  1  0  0  0  0  0  0
  160.5260  203.3020  150.1140 C   0  0  1  0  0  3  0  0  0  0  0  0
  161.3570  205.5960  153.1110 C   0  0  2  0  0  3  0  0  0  0  0  0
  161.4790  203.6760  149.0080 C   0  0  1  0  0  3  0  0  0  0  0  0
  162.1870  205.5050  147.4450 C   0  0  2  0  0  3  0  0  0  0  0  0
  161.5910  207.0840  153.3750 C   0  0  2  0  0  3  0  0  0  0  0  0
  160.8830  205.2890  151.6780 C   0  0  2  0  0  3  0  0  0  0  0  0
  162.6790  211.0810  149.7050 C   0  0  0  0  0  2  0  0  0  0  0  0
  161.3630  202.5300  148.0450 C   0  0  0  0  0  2  0  0  0  0  0  0
  160.3890  201.9070  150.1170 O   0  0  0  0  0  0  0  0  0  0  0  0
  163.3940  210.0270  151.7000 O   0  0  0  0  0  1  0  0  0  0  0  0
  161.0360  207.3160  148.3270 C   0  0  1  0  0  3  0  0  0  0  0  0
  161.5900  211.1150  148.6450 C   0  0  0  0  0  2  0  0  0  0  0  0
  162.1910  208.6290  150.1420 C   0  0  2  0  0  3  0  0  0  0  0  0
  160.7320  206.1570  149.2730 C   0  0  1  0  0  3  0  0  0  0  0  0
  161.9270  205.1350  146.1250 O   0  0  0  0  0  1  0  0  0  0  0  0
  161.0790  204.9900  148.3500 C   0  0  2  0  0  3  0  0  0  0  0  0
  160.4940  201.5260  148.7710 C   0  0  0  0  0  2  0  0  0  0  0  0
  162.4100  203.4010  151.6200 O   0  0  0  0  0  1  0  0  0  0  0  0
  161.5040  209.7570  147.9690 C   0  0  0  0  0  2  0  0  0  0  0  0
  161.1720  208.6780  149.0000 C   0  0  1  0  0  3  0  0  0  0  0  0
  161.0720  203.7820  151.4510 C   0  0  2  0  0  3  0  0  0  0  0  0
  160.3040  207.8740  153.6530 C   0  0  0  0  0  2  0  0  0  0  0  0
  160.2900  210.2200  153.3340 F   0  0  0  0  0  0  0  0  0  0  0  0
  160.6410  209.2340  154.2350 C   0  0  0  0  0  2  0  0  0  0  0  0
  1  5  1  1  0  0  0
  2 16  1  1  0  0  0
  3 17  1  0  0  0  0
  4  1  1  0  0  0  0
  4 12  1  0  0  0  0
  5 11  1  0  0  0  0
  7 15  1  0  0  0  0
  7 27  1  0  0  0  0
  8 11  1  0  0  0  0
  8  6  1  0  0  0  0
  9  7  1  0  0  0  0
 10  3  1  0  0  0  0
 10 22  1  0  0  0  0
 11 28  1  0  0  0  0
 12  8  1  0  0  0  0
 13  2  1  0  0  0  0
 14 23  1  0  0  0  0
 14  9  1  0  0  0  0
 17 26  1  0  0  0  0
 17 20  1  0  0  0  0
 18 13  1  0  0  0  0
 19  2  1  0  0  0  0
 19  1  1  0  0  0  0
 20  4  1  0  0  0  0
 21 10  1  0  0  0  0
 22  9  1  0  0  0  0
 22 20  1  0  0  0  0
 23 15  1  0  0  0  0
 25 18  1  0  0  0  0
 25 26  1  0  0  0  0
 26 19  1  0  0  0  0
 27 24  1  0  0  0  0
 27 12  1  0  0  0  0
 28 30  1  0  0  0  0
 29 30  1  0  0  0  0
M  END
>  <MODEL>
3

>  <REMARK>
 VINA RESULT:      -5.8      2.698      6.625
  Name = 
  2 active torsions:
  status: ('A' for Active; 'I' for Inactive)
    1  A    between atoms: C_11  and  C_28
    2  A    between atoms: C_28  and  C_30
                            x       y       z     vdW  Elec       q    Type
                         _______ _______ _______ _____ _____    ______ ____

>  <TORSDO>
F 2

$$$$
=
 OpenBabel11122412353D

 30 35  0  0  1  0  0  0  0  0999 V2000
  161.2580  203.8310  148.0540 C   0  0  1  0  0  3  0  0  0  0  0  0
  161.1200  201.3260  148.4610 C   0  0  2  0  0  3  0  0  0  0  0  0
  161.6760  204.3100  151.7170 N   0  0  0  0  0  2  0  0  0  0  0  0
  161.5900  205.2230  148.6350 C   0  0  1  0  0  3  0  0  0  0  0  0
  162.0630  203.5570  146.9320 O   0  0  0  0  0  0  0  0  0  0  0  0
  161.2590  206.6140  145.1250 O   0  0  0  0  0  1  0  0  0  0  0  0
  161.5020  208.2930  149.0870 C   0  0  1  0  0  3  0  0  0  0  0  0
  161.8270  205.8250  146.1300 C   0  0  2  0  0  3  0  0  0  0  0  0
  162.1760  207.6410  150.2670 C   0  0  1  0  0  3  0  0  0  0  0  0
  162.1060  205.6960  151.8490 C   0  0  2  0  0  3  0  0  0  0  0  0
  161.5920  204.3390  145.8570 C   0  0  2  0  0  3  0  0  0  0  0  0
  161.3450  206.2820  147.5190 C   0  0  2  0  0  3  0  0  0  0  0  0
  160.9850  200.2390  149.5240 C   0  0  0  0  0  2  0  0  0  0  0  0
  162.3440  208.7720  151.2400 C   0  0  0  0  0  2  0  0  0  0  0  0
  161.8220  209.6570  149.1010 O   0  0  0  0  0  0  0  0  0  0  0  0
  162.1860  200.9870  147.6260 O   0  0  0  0  0  1  0  0  0  0  0  0
  160.5220  204.3460  150.8260 C   0  0  1  0  0  3  0  0  0  0  0  0
  159.8490  200.5680  150.4790 C   0  0  0  0  0  2  0  0  0  0  0  0
  161.3570  202.7130  149.0970 C   0  0  2  0  0  3  0  0  0  0  0  0
  160.6970  205.5320  149.8810 C   0  0  1  0  0  3  0  0  0  0  0  0
  161.8570  206.1430  153.1470 O   0  0  0  0  0  1  0  0  0  0  0  0
  161.3130  206.5330  150.8570 C   0  0  2  0  0  3  0  0  0  0  0  0
  161.9180  209.9960  150.4590 C   0  0  0  0  0  2  0  0  0  0  0  0
  163.3860  207.5770  147.7580 O   0  0  0  0  0  1  0  0  0  0  0  0
  160.1420  201.8870  151.1730 C   0  0  0  0  0  2  0  0  0  0  0  0
  160.2740  203.0060  150.1390 C   0  0  1  0  0  3  0  0  0  0  0  0
  161.9870  207.6500  147.7950 C   0  0  2  0  0  3  0  0  0  0  0  0
  160.1520  204.0040  145.4440 C   0  0  0  0  0  2  0  0  0  0  0  0
  159.7170  201.6840  145.6170 F   0  0  0  0  0  0  0  0  0  0  0  0
  160.1100  202.6670  144.7300 C   0  0  0  0  0  2  0  0  0  0  0  0
  1  5  1  6  0  0  0
  1  4  1  0  0  0  0
  1 19  1  0  0  0  0
  2 16  1  6  0  0  0
  2 19  1  0  0  0  0
  2 13  1  0  0  0  0
  3 10  1  0  0  0  0
  4 20  1  0  0  0  0
  6  8  1  0  0  0  0
  7 15  1  0  0  0  0
  7  9  1  0  0  0  0
  8 12  1  0  0  0  0
  9 22  1  0  0  0  0
  9 14  1  0  0  0  0
 10 21  1  0  0  0  0
 11  8  1  0  0  0  0
 11  5  1  0  0  0  0
 12 27  1  0  0  0  0
 12  4  1  0  0  0  0
 13 18  1  0  0  0  0
 15 23  1  0  0  0  0
 17  3  1  0  0  0  0
 18 25  1  0  0  0  0
 19 26  1  0  0  0  0
 20 17  1  0  0  0  0
 20 22  1  0  0  0  0
 22 10  1  0  0  0  0
 23 14  1  0  0  0  0
 24 27  1  0  0  0  0
 26 17  1  0  0  0  0
 26 25  1  0  0  0  0
 27  7  1  0  0  0  0
 28 11  1  0  0  0  0
 30 28  1  0  0  0  0
 30 29  1  0  0  0  0
M  END
>  <MODEL>
4

>  <REMARK>
 VINA RESULT:      -5.6      1.788      2.900
  Name = 
  2 active torsions:
  status: ('A' for Active; 'I' for Inactive)
    1  A    between atoms: C_11  and  C_28
    2  A    between atoms: C_28  and  C_30
                            x       y       z     vdW  Elec       q    Type
                         _______ _______ _______ _____ _____    ______ ____

>  <TORSDO>
F 2

$$$$
=
 OpenBabel11122412353D

 30 35  0  0  1  0  0  0  0  0999 V2000
  161.0350  208.7550  154.1300 C   0  0  1  0  0  3  0  0  0  0  0  0
  160.8490  210.6380  155.8270 C   0  0  2  0  0  3  0  0  0  0  0  0
  161.6100  211.3120  151.4930 N   0  0  0  0  0  2  0  0  0  0  0  0
  161.4250  208.3360  152.6950 C   0  0  1  0  0  3  0  0  0  0  0  0
  161.7870  208.0370  155.0790 O   0  0  0  0  0  0  0  0  0  0  0  0
  160.9910  204.7300  153.7800 O   0  0  0  0  0  1  0  0  0  0  0  0
  161.4340  206.7750  150.0130 C   0  0  1  0  0  3  0  0  0  0  0  0
  161.5780  205.9980  153.7960 C   0  0  2  0  0  3  0  0  0  0  0  0
  162.1370  208.0930  149.8160 C   0  0  1  0  0  3  0  0  0  0  0  0
  162.0800  210.5440  150.3480 C   0  0  2  0  0  3  0  0  0  0  0  0
  161.2940  206.7160  155.1160 C   0  0  2  0  0  3  0  0  0  0  0  0
  161.1630  206.8070  152.5520 C   0  0  2  0  0  3  0  0  0  0  0  0
  160.7290  212.1480  156.0080 C   0  0  0  0  0  2  0  0  0  0  0  0
  162.3730  208.1450  148.3350 C   0  0  0  0  0  2  0  0  0  0  0  0
  161.7900  205.9300  148.9520 O   0  0  0  0  0  0  0  0  0  0  0  0
  161.8720  210.1810  156.6600 O   0  0  0  0  0  1  0  0  0  0  0  0
  160.4230  210.6110  151.9680 C   0  0  1  0  0  3  0  0  0  0  0  0
  159.6400  212.7060  155.1050 C   0  0  0  0  0  2  0  0  0  0  0  0
  161.1460  210.2660  154.3580 C   0  0  2  0  0  3  0  0  0  0  0  0
  160.5910  209.1300  151.6390 C   0  0  1  0  0  3  0  0  0  0  0  0
  161.8950  211.2840  149.1790 O   0  0  0  0  0  1  0  0  0  0  0  0
  161.2710  209.2590  150.2760 C   0  0  2  0  0  3  0  0  0  0  0  0
  161.9480  206.7780  147.8460 C   0  0  0  0  0  2  0  0  0  0  0  0
  163.2440  206.1540  151.4840 O   0  0  0  0  0  1  0  0  0  0  0  0
  159.9940  212.4210  153.6560 C   0  0  0  0  0  2  0  0  0  0  0  0
  160.1130  210.9140  153.4320 C   0  0  1  0  0  3  0  0  0  0  0  0
  161.8510  206.1590  151.3410 C   0  0  2  0  0  3  0  0  0  0  0  0
  159.8310  206.6240  155.5700 C   0  0  0  0  0  2  0  0  0  0  0  0
  159.6970  208.2770  157.2600 F   0  0  0  0  0  0  0  0  0  0  0  0
  159.7250  206.9110  157.0560 C   0  0  0  0  0  2  0  0  0  0  0  0
  1 19  1  0  0  0  0
  1  5  1  1  0  0  0
  2 13  1  0  0  0  0
  2 16  1  1  0  0  0
  3 17  1  0  0  0  0
  4  1  1  0  0  0  0
  5 11  1  0  0  0  0
  6  8  1  0  0  0  0
  7 27  1  0  0  0  0
  8 11  1  0  0  0  0
  9  7  1  0  0  0  0
  9 22  1  0  0  0  0
 10  3  1  0  0  0  0
 11 28  1  0  0  0  0
 12  4  1  0  0  0  0
 12  8  1  0  0  0  0
 14  9  1  0  0  0  0
 15  7  1  0  0  0  0
 17 26  1  0  0  0  0
 18 13  1  0  0  0  0
 19  2  1  0  0  0  0
 20 17  1  0  0  0  0
 20  4  1  0  0  0  0
 21 10  1  0  0  0  0
 22 10  1  0  0  0  0
 22 20  1  0  0  0  0
 23 14  1  0  0  0  0
 23 15  1  0  0  0  0
 25 18  1  0  0  0  0
 26 25  1  0  0  0  0
 26 19  1  0  0  0  0
 27 24  1  0  0  0  0
 27 12  1  0  0  0  0
 28 30  1  0  0  0  0
 30 29  1  0  0  0  0
M  END
>  <MODEL>
5

>  <REMARK>
 VINA RESULT:      -4.8      4.074      8.625
  Name = 
  2 active torsions:
  status: ('A' for Active; 'I' for Inactive)
    1  A    between atoms: C_11  and  C_28
    2  A    between atoms: C_28  and  C_30
                            x       y       z     vdW  Elec       q    Type
                         _______ _______ _______ _____ _____    ______ ____

>  <TORSDO>
F 2

$$$$
=
 OpenBabel11122412353D

 30 35  0  0  1  0  0  0  0  0999 V2000
  159.5180  212.6880  150.9870 C   0  0  1  0  0  3  0  0  0  0  0  0
  161.2220  212.3860  149.1260 C   0  0  2  0  0  3  0  0  0  0  0  0
  161.7410  210.7120  153.2170 N   0  0  0  0  0  2  0  0  0  0  0  0
  159.2040  212.5500  152.4930 C   0  0  1  0  0  3  0  0  0  0  0  0
  159.3680  214.0240  150.5690 O   0  0  0  0  0  0  0  0  0  0  0  0
  155.9890  214.4530  151.8560 O   0  0  0  0  0  1  0  0  0  0  0  0
  157.5900  212.1260  155.1090 C   0  0  1  0  0  3  0  0  0  0  0  0
  157.3760  214.2870  151.9130 C   0  0  2  0  0  3  0  0  0  0  0  0
  159.0560  211.9290  155.3990 C   0  0  1  0  0  3  0  0  0  0  0  0
  161.1950  210.9320  154.5500 C   0  0  2  0  0  3  0  0  0  0  0  0
  157.9880  214.3100  150.5120 C   0  0  2  0  0  3  0  0  0  0  0  0
  157.7410  213.0310  152.7260 C   0  0  2  0  0  3  0  0  0  0  0  0
  162.4840  211.6420  148.6960 C   0  0  0  0  0  2  0  0  0  0  0  0
  159.0680  211.4260  156.8130 C   0  0  0  0  0  2  0  0  0  0  0  0
  156.9300  212.3340  156.3280 O   0  0  0  0  0  0  0  0  0  0  0  0
  161.4190  213.7470  148.8900 O   0  0  0  0  0  1  0  0  0  0  0  0
  160.5960  210.3680  152.3820 C   0  0  1  0  0  3  0  0  0  0  0  0
  162.3330  210.1510  148.9500 C   0  0  0  0  0  2  0  0  0  0  0  0
  160.8990  212.1390  150.6150 C   0  0  2  0  0  3  0  0  0  0  0  0
  159.3680  211.0670  152.9610 C   0  0  1  0  0  3  0  0  0  0  0  0
  161.6230  209.9150  155.4050 O   0  0  0  0  0  1  0  0  0  0  0  0
  159.6780  210.9140  154.4490 C   0  0  2  0  0  3  0  0  0  0  0  0
  157.6280  211.5520  157.2610 C   0  0  0  0  0  2  0  0  0  0  0  0
  158.1020  214.4430  154.6690 O   0  0  0  0  0  1  0  0  0  0  0  0
  162.1160  209.9140  150.4350 C   0  0  0  0  0  2  0  0  0  0  0  0
  160.8520  210.6360  150.9020 C   0  0  1  0  0  3  0  0  0  0  0  0
  157.4000  213.3270  154.1950 C   0  0  2  0  0  3  0  0  0  0  0  0
  157.2300  213.4530  149.4890 C   0  0  0  0  0  2  0  0  0  0  0  0
  158.4050  212.7240  147.5680 F   0  0  0  0  0  0  0  0  0  0  0  0
  157.6890  213.7870  148.0830 C   0  0  0  0  0  2  0  0  0  0  0  0
  1  5  1  1  0  0  0
  1  4  1  0  0  0  0
  2 16  1  1  0  0  0
  2 19  1  0  0  0  0
  3 10  1  0  0  0  0
  4 12  1  0  0  0  0
  4 20  1  0  0  0  0
  6  8  1  0  0  0  0
  7  9  1  0  0  0  0
  7 15  1  0  0  0  0
  8 12  1  0  0  0  0
  9 14  1  0  0  0  0
 10 21  1  0  0  0  0
 11  5  1  0  0  0  0
 11  8  1  0  0  0  0
 12 27  1  0  0  0  0
 13 18  1  0  0  0  0
 13  2  1  0  0  0  0
 14 23  1  0  0  0  0
 15 23  1  0  0  0  0
 17 20  1  0  0  0  0
 17  3  1  0  0  0  0
 18 25  1  0  0  0  0
 19 26  1  0  0  0  0
 19  1  1  0  0  0  0
 20 22  1  0  0  0  0
 22 10  1  0  0  0  0
 22  9  1  0  0  0  0
 25 26  1  0  0  0  0
 26 17  1  0  0  0  0
 27 24  1  0  0  0  0
 27  7  1  0  0  0  0
 28 11  1  0  0  0  0
 29 30  1  0  0  0  0
 30 28  1  0  0  0  0
M  END
>  <MODEL>
6

>  <REMARK>
 VINA RESULT:      -4.2      6.465      8.422
  Name = 
  2 active torsions:
  status: ('A' for Active; 'I' for Inactive)
    1  A    between atoms: C_11  and  C_28
    2  A    between atoms: C_28  and  C_30
                            x       y       z     vdW  Elec       q    Type
                         _______ _______ _______ _____ _____    ______ ____

>  <TORSDO>
F 2

$$$$
=
 OpenBabel11122412353D

 30 35  0  0  1  0  0  0  0  0999 V2000
  161.3550  204.7040  149.6110 C   0  0  1  0  0  3  0  0  0  0  0  0
  161.1810  203.4820  147.3900 C   0  0  2  0  0  3  0  0  0  0  0  0
  161.7060  207.8890  147.7260 N   0  0  0  0  0  2  0  0  0  0  0  0
  161.3550  206.0610  150.3480 C   0  0  1  0  0  3  0  0  0  0  0  0
  160.3230  203.8770  150.0940 O   0  0  0  0  0  0  0  0  0  0  0  0
  161.2350  204.1340  153.6090 O   0  0  0  0  0  1  0  0  0  0  0  0
  161.9950  208.2230  152.4820 C   0  0  1  0  0  3  0  0  0  0  0  0
  160.7510  204.5660  152.3720 C   0  0  2  0  0  3  0  0  0  0  0  0
  161.4610  208.8970  151.2440 C   0  0  1  0  0  3  0  0  0  0  0  0
  161.5260  208.9230  148.7370 C   0  0  2  0  0  3  0  0  0  0  0  0
  160.6990  203.4110  151.3710 C   0  0  2  0  0  3  0  0  0  0  0  0
  161.5470  205.7840  151.8690 C   0  0  2  0  0  3  0  0  0  0  0  0
  161.3440  203.6100  145.8780 C   0  0  0  0  0  2  0  0  0  0  0  0
  161.6520  210.3570  151.5330 C   0  0  0  0  0  2  0  0  0  0  0  0
  161.8960  209.1280  153.5470 O   0  0  0  0  0  0  0  0  0  0  0  0
  159.9390  202.8980  147.6450 O   0  0  0  0  0  1  0  0  0  0  0  0
  162.6660  206.9510  148.2990 C   0  0  1  0  0  3  0  0  0  0  0  0
  162.6750  204.2620  145.5400 C   0  0  0  0  0  2  0  0  0  0  0  0
  161.2830  204.8550  148.0890 C   0  0  2  0  0  3  0  0  0  0  0  0
  162.5010  206.9820  149.8160 C   0  0  1  0  0  3  0  0  0  0  0  0
  162.0780  210.1220  148.2840 O   0  0  0  0  0  1  0  0  0  0  0  0
  162.2380  208.4760  150.0030 C   0  0  2  0  0  3  0  0  0  0  0  0
  162.1080  210.3910  152.9750 C   0  0  0  0  0  2  0  0  0  0  0  0
  159.8090  207.2340  152.7510 O   0  0  0  0  0  1  0  0  0  0  0  0
  162.7220  205.6530  146.1500 C   0  0  0  0  0  2  0  0  0  0  0  0
  162.5730  205.5650  147.6690 C   0  0  1  0  0  3  0  0  0  0  0  0
  161.1850  206.9690  152.7770 C   0  0  2  0  0  3  0  0  0  0  0  0
  161.9690  202.5470  151.3540 C   0  0  0  0  0  2  0  0  0  0  0  0
  161.6160  201.0800  149.5310 F   0  0  0  0  0  0  0  0  0  0  0  0
  161.6360  201.1360  150.9110 C   0  0  0  0  0  2  0  0  0  0  0  0
  1  5  1  1  0  0  0
  1  4  1  0  0  0  0
  2 16  1  6  0  0  0
  2 19  1  0  0  0  0
  3 17  1  0  0  0  0
  3 10  1  0  0  0  0
  4 12  1  0  0  0  0
  5 11  1  0  0  0  0
  7 27  1  0  0  0  0
  7 15  1  0  0  0  0
  8  6  1  0  0  0  0
  9 14  1  0  0  0  0
  9  7  1  0  0  0  0
 10 22  1  0  0  0  0
 11  8  1  0  0  0  0
 12  8  1  0  0  0  0
 12 27  1  0  0  0  0
 13  2  1  0  0  0  0
 14 23  1  0  0  0  0
 17 20  1  0  0  0  0
 18 13  1  0  0  0  0
 18 25  1  0  0  0  0
 19  1  1  0  0  0  0
 20 22  1  0  0  0  0
 20  4  1  0  0  0  0
 21 10  1  0  0  0  0
 22  9  1  0  0  0  0
 23 15  1  0  0  0  0
 24 27  1  0  0  0  0
 25 26  1  0  0  0  0
 26 19  1  0  0  0  0
 26 17  1  0  0  0  0
 28 11  1  0  0  0  0
 29 30  1  0  0  0  0
 30 28  1  0  0  0  0
M  END
>  <MODEL>
7

>  <REMARK>
 VINA RESULT:      -4.2      2.426      4.721
  Name = 
  2 active torsions:
  status: ('A' for Active; 'I' for Inactive)
    1  A    between atoms: C_11  and  C_28
    2  A    between atoms: C_28  and  C_30
                            x       y       z     vdW  Elec       q    Type
                         _______ _______ _______ _____ _____    ______ ____

>  <TORSDO>
F 2

$$$$
=
 OpenBabel11122412353D

 30 35  0  0  1  0  0  0  0  0999 V2000
  161.5400  205.0120  150.2880 C   0  0  1  0  0  3  0  0  0  0  0  0
  162.4000  207.1730  151.3120 C   0  0  2  0  0  3  0  0  0  0  0  0
  162.0840  206.4970  146.9240 N   0  0  0  0  0  2  0  0  0  0  0  0
  161.3720  204.1590  149.0120 C   0  0  1  0  0  3  0  0  0  0  0  0
  162.2800  204.3120  151.2600 O   0  0  0  0  0  0  0  0  0  0  0  0
  160.2120  201.3150  151.2330 O   0  0  0  0  0  1  0  0  0  0  0  0
  160.1690  202.1230  147.0010 C   0  0  1  0  0  3  0  0  0  0  0  0
  161.1280  202.2500  150.7430 C   0  0  2  0  0  3  0  0  0  0  0  0
  161.1470  203.0120  146.2750 C   0  0  1  0  0  3  0  0  0  0  0  0
  161.9670  205.3670  146.0120 C   0  0  2  0  0  3  0  0  0  0  0  0
  161.4500  203.3080  151.8000 C   0  0  2  0  0  3  0  0  0  0  0  0
  160.6400  202.8400  149.4060 C   0  0  2  0  0  3  0  0  0  0  0  0
  162.7870  208.6220  151.0290 C   0  0  0  0  0  2  0  0  0  0  0  0
  160.9640  202.6280  144.8360 C   0  0  0  0  0  2  0  0  0  0  0  0
  159.9490  200.9850  146.2130 O   0  0  0  0  0  0  0  0  0  0  0  0
  163.4320  206.5830  152.0440 O   0  0  0  0  0  1  0  0  0  0  0  0
  160.9250  206.4060  147.8040 C   0  0  1  0  0  3  0  0  0  0  0  0
  161.7060  209.3110  150.2120 C   0  0  0  0  0  2  0  0  0  0  0  0
  162.1520  206.3880  150.0060 C   0  0  2  0  0  3  0  0  0  0  0  0
  160.5490  204.9320  147.9310 C   0  0  1  0  0  3  0  0  0  0  0  0
  161.6900  205.8300  144.7250 O   0  0  0  0  0  1  0  0  0  0  0  0
  160.8280  204.4850  146.4960 C   0  0  2  0  0  3  0  0  0  0  0  0
  160.0350  201.4350  144.8870 C   0  0  0  0  0  2  0  0  0  0  0  0
  162.0510  201.2480  148.2350 O   0  0  0  0  0  1  0  0  0  0  0  0
  161.5400  208.5880  148.8870 C   0  0  0  0  0  2  0  0  0  0  0  0
  161.1410  207.1320  149.1290 C   0  0  1  0  0  3  0  0  0  0  0  0
  160.7390  201.7250  148.3550 C   0  0  2  0  0  3  0  0  0  0  0  0
  160.2120  203.8620  152.5200 C   0  0  0  0  0  2  0  0  0  0  0  0
  160.4430  206.1120  153.2170 F   0  0  0  0  0  0  0  0  0  0  0  0
  160.6320  204.8070  153.6280 C   0  0  0  0  0  2  0  0  0  0  0  0
  1  5  1  1  0  0  0
  2 16  1  6  0  0  0
  3 17  1  0  0  0  0
  4 12  1  0  0  0  0
  4  1  1  0  0  0  0
  5 11  1  0  0  0  0
  7 27  1  0  0  0  0
  8  6  1  0  0  0  0
  8 11  1  0  0  0  0
  9 22  1  0  0  0  0
  9  7  1  0  0  0  0
 10 22  1  0  0  0  0
 10  3  1  0  0  0  0
 11 28  1  0  0  0  0
 12  8  1  0  0  0  0
 13  2  1  0  0  0  0
 14 23  1  0  0  0  0
 14  9  1  0  0  0  0
 15  7  1  0  0  0  0
 17 20  1  0  0  0  0
 17 26  1  0  0  0  0
 18 13  1  0  0  0  0
 19  1  1  0  0  0  0
 19  2  1  0  0  0  0
 20  4  1  0  0  0  0
 21 10  1  0  0  0  0
 22 20  1  0  0  0  0
 23 15  1  0  0  0  0
 24 27  1  0  0  0  0
 25 26  1  0  0  0  0
 25 18  1  0  0  0  0
 26 19  1  0  0  0  0
 27 12  1  0  0  0  0
 28 30  1  0  0  0  0
 29 30  1  0  0  0  0
M  END
>  <MODEL>
8

>  <REMARK>
 VINA RESULT:      -3.9      2.549      6.890
  Name = 
  2 active torsions:
  status: ('A' for Active; 'I' for Inactive)
    1  A    between atoms: C_11  and  C_28
    2  A    between atoms: C_28  and  C_30
                            x       y       z     vdW  Elec       q    Type
                         _______ _______ _______ _____ _____    ______ ____

>  <TORSDO>
F 2

$$$$
=
 OpenBabel11122412353D

 30 35  0  0  1  0  0  0  0  0999 V2000
  161.2790  208.0810  151.6790 C   0  0  1  0  0  3  0  0  0  0  0  0
  160.8100  209.1400  153.9410 C   0  0  2  0  0  3  0  0  0  0  0  0
  160.4560  204.7720  153.1600 N   0  0  0  0  0  2  0  0  0  0  0  0
  161.1780  206.8210  150.7900 C   0  0  1  0  0  3  0  0  0  0  0  0
  160.6030  209.1640  151.0840 O   0  0  0  0  0  0  0  0  0  0  0  0
  162.3030  208.9600  147.8700 O   0  0  0  0  0  1  0  0  0  0  0  0
  161.8650  204.7360  148.5970 C   0  0  1  0  0  3  0  0  0  0  0  0
  161.4390  208.5650  148.8960 C   0  0  2  0  0  3  0  0  0  0  0  0
  160.9040  204.1170  149.5800 C   0  0  1  0  0  3  0  0  0  0  0  0
  160.3230  203.8890  152.0090 C   0  0  2  0  0  3  0  0  0  0  0  0
  161.3820  209.6210  150.0000 C   0  0  2  0  0  3  0  0  0  0  0  0
  161.8050  207.1580  149.4040 C   0  0  2  0  0  3  0  0  0  0  0  0
  160.5520  208.8640  155.4190 C   0  0  0  0  0  2  0  0  0  0  0  0
  160.8480  202.6790  149.1540 C   0  0  0  0  0  2  0  0  0  0  0  0
  161.8500  203.9620  147.4280 O   0  0  0  0  0  0  0  0  0  0  0  0
  159.8270  210.0200  153.4850 O   0  0  0  0  0  1  0  0  0  0  0  0
  161.7050  205.4940  152.9510 C   0  0  1  0  0  3  0  0  0  0  0  0
  161.5840  207.8910  155.9660 C   0  0  0  0  0  2  0  0  0  0  0  0
  160.7920  207.8380  153.1100 C   0  0  2  0  0  3  0  0  0  0  0  0
  161.9290  205.6170  151.4460 C   0  0  1  0  0  3  0  0  0  0  0  0
  160.4740  202.5630  152.4150 O   0  0  0  0  0  1  0  0  0  0  0  0
  161.4120  204.2470  151.0100 C   0  0  2  0  0  3  0  0  0  0  0  0
  161.6370  202.6460  147.8630 C   0  0  0  0  0  2  0  0  0  0  0  0
  160.0810  206.2330  147.9640 O   0  0  0  0  0  1  0  0  0  0  0  0
  161.4880  206.5780  155.2070 C   0  0  0  0  0  2  0  0  0  0  0  0
  161.7520  206.8120  153.7190 C   0  0  1  0  0  3  0  0  0  0  0  0
  161.4420  206.1650  148.2890 C   0  0  2  0  0  3  0  0  0  0  0  0
  162.7580  210.1530  150.4210 C   0  0  0  0  0  2  0  0  0  0  0  0
  161.9250  211.8900  149.0460 F   0  0  0  0  0  0  0  0  0  0  0  0
  163.0600  211.4520  149.6990 C   0  0  0  0  0  2  0  0  0  0  0  0
  1  5  1  6  0  0  0
  1 19  1  0  0  0  0
  2 16  1  6  0  0  0
  2 13  1  0  0  0  0
  4 20  1  0  0  0  0
  4  1  1  0  0  0  0
  6  8  1  0  0  0  0
  7  9  1  0  0  0  0
  8 12  1  0  0  0  0
  8 11  1  0  0  0  0
  9 22  1  0  0  0  0
 10 21  1  0  0  0  0
 10  3  1  0  0  0  0
 11 28  1  0  0  0  0
 11  5  1  0  0  0  0
 12  4  1  0  0  0  0
 13 18  1  0  0  0  0
 14  9  1  0  0  0  0
 15 23  1  0  0  0  0
 15  7  1  0  0  0  0
 17  3  1  0  0  0  0
 17 26  1  0  0  0  0
 19 26  1  0  0  0  0
 19  2  1  0  0  0  0
 20 17  1  0  0  0  0
 22 20  1  0  0  0  0
 22 10  1  0  0  0  0
 23 14  1  0  0  0  0
 24 27  1  0  0  0  0
 25 18  1  0  0  0  0
 26 25  1  0  0  0  0
 27  7  1  0  0  0  0
 27 12  1  0  0  0  0
 29 30  1  0  0  0  0
 30 28  1  0  0  0  0
M  END
>  <MODEL>
9

>  <REMARK>
 VINA RESULT:      -3.9      2.310      6.133
  Name = 
  2 active torsions:
  status: ('A' for Active; 'I' for Inactive)
    1  A    between atoms: C_11  and  C_28
    2  A    between atoms: C_28  and  C_30
                            x       y       z     vdW  Elec       q    Type
                         _______ _______ _______ _____ _____    ______ ____

>  <TORSDO>
F 2

$$$$
