=
 OpenBabel11122413223D

 31 35  0  0  0  0  0  0  0  0999 V2000
  161.1870  201.2440  149.6700 C   0  0  0  0  0  0  0  0  0  0  0  0
  161.0950  204.9650  149.0990 C   0  0  0  0  0  0  0  0  0  0  0  0
  161.1250  205.1790  147.6900 C   0  0  0  0  0  0  0  0  0  0  0  0
  160.9340  206.1080  154.2320 O   0  0  0  0  0  0  0  0  0  0  0  0
  160.9200  207.1870  153.5830 C   0  0  0  0  0  0  0  0  0  0  0  0
  161.2050  204.3860  145.3810 C   0  0  0  0  0  0  0  0  0  0  0  0
  161.1160  203.6850  149.7310 C   0  0  0  0  0  0  0  0  0  0  0  0
  161.1540  201.1960  151.0630 C   0  0  0  0  0  3  0  0  0  0  0  0
  161.1780  204.1310  146.7540 C   0  0  0  0  0  3  0  0  0  0  0  0
  161.0110  205.9840  151.3250 C   0  0  0  0  0  0  0  0  0  0  0  0
  161.2380  200.0960  148.9530 F   0  0  0  0  0  0  0  0  0  0  0  0
  161.0480  207.5460  148.0630 N   0  0  0  0  0  0  0  0  0  0  0  0
  161.2570  203.3570  144.5030 F   0  0  0  0  0  0  0  0  0  0  0  0
  161.0320  204.7480  151.8870 N   0  0  0  0  0  0  0  0  0  0  0  0
  161.0420  206.1140  149.9300 C   0  0  0  0  0  0  0  0  0  0  0  0
  160.9560  207.1590  152.1480 N   0  0  0  0  0  2  0  0  0  0  0  0
  161.1680  202.4760  149.0130 C   0  0  0  0  0  3  0  0  0  0  0  0
  161.1790  205.7000  144.9160 C   0  0  0  0  0  3  0  0  0  0  0  0
  161.0820  203.6160  151.1470 C   0  0  0  0  0  0  0  0  0  0  0  0
  161.1020  202.3800  151.7990 C   0  0  0  0  0  3  0  0  0  0  0  0
  161.0200  207.3560  149.3790 N   0  0  0  0  0  0  0  0  0  0  0  0
  161.0990  206.5050  147.1990 C   0  0  0  0  0  0  0  0  0  0  0  0
  161.1270  206.7580  145.8240 C   0  0  0  0  0  3  0  0  0  0  0  0
  160.8110  211.0490  155.4710 C   0  0  0  0  0  0  0  0  0  0  0  0
  161.2280  209.6410  153.5540 C   0  0  0  0  0  3  0  0  0  0  0  0
  159.9870  207.3120  156.6710 Cl  0  0  0  0  0  0  0  0  0  0  0  0
  160.7850  212.3070  156.0570 O   0  0  0  0  0  1  0  0  0  0  0  0
  161.2020  210.9070  154.1410 C   0  0  0  0  0  3  0  0  0  0  0  0
  160.4670  208.6510  155.6360 C   0  0  0  0  0  0  0  0  0  0  0  0
  160.8640  208.4950  154.2820 C   0  0  0  0  0  0  0  0  0  0  0  0
  160.4460  209.9260  156.2130 C   0  0  0  0  0  3  0  0  0  0  0  0
  1  8  1  0  0  0  0
  2  7  1  0  0  0  0
  2 15  1  0  0  0  0
  3  2  2  0  0  0  0
  5  4  2  0  0  0  0
  5 30  1  0  0  0  0
  6  9  2  0  0  0  0
  7 19  2  0  0  0  0
  8 20  2  0  0  0  0
  9  3  1  0  0  0  0
 10 14  2  0  0  0  0
 10 16  1  0  0  0  0
 11  1  1  0  0  0  0
 12 21  1  0  0  0  0
 13  6  1  0  0  0  0
 15 10  1  0  0  0  0
 16  5  1  0  0  0  0
 17  1  2  0  0  0  0
 17  7  1  0  0  0  0
 18  6  1  0  0  0  0
 18 23  2  0  0  0  0
 19 20  1  0  0  0  0
 19 14  1  0  0  0  0
 21 15  2  0  0  0  0
 22  3  1  0  0  0  0
 22 12  2  0  0  0  0
 23 22  1  0  0  0  0
 24 27  1  0  0  0  0
 24 31  1  0  0  0  0
 25 28  1  0  0  0  0
 25 30  2  0  0  0  0
 28 24  2  0  0  0  0
 29 31  2  0  0  0  0
 29 26  1  0  0  0  0
 30 29  1  0  0  0  0
M  END
>  <MODEL>
1

>  <REMARK>
 VINA RESULT:     -11.0      0.000      0.000
  Name = 
  1 active torsions:
  status: ('A' for Active; 'I' for Inactive)
    1  A    between atoms: C_5  and  C_30
                            x       y       z     vdW  Elec       q    Type
                         _______ _______ _______ _____ _____    ______ ____

>  <TORSDO>
F 1

$$$$
=
 OpenBabel11122413223D

 31 35  0  0  0  0  0  0  0  0999 V2000
  161.2660  201.4210  150.0280 C   0  0  0  0  0  0  0  0  0  0  0  0
  161.1320  205.1250  149.3570 C   0  0  0  0  0  0  0  0  0  0  0  0
  161.1760  205.3020  147.9430 C   0  0  0  0  0  0  0  0  0  0  0  0
  160.8890  206.4000  154.4550 O   0  0  0  0  0  0  0  0  0  0  0  0
  160.8690  207.4610  153.7770 C   0  0  0  0  0  0  0  0  0  0  0  0
  161.2970  204.4490  145.6570 C   0  0  0  0  0  0  0  0  0  0  0  0
  161.1610  203.8620  150.0220 C   0  0  0  0  0  0  0  0  0  0  0  0
  161.2150  201.4090  151.4210 C   0  0  0  0  0  3  0  0  0  0  0  0
  161.2550  204.2300  147.0360 C   0  0  0  0  0  3  0  0  0  0  0  0
  161.0050  206.2000  151.5530 C   0  0  0  0  0  0  0  0  0  0  0  0
  161.3410  200.2560  149.3420 F   0  0  0  0  0  0  0  0  0  0  0  0
  161.0630  207.6760  148.2520 N   0  0  0  0  0  0  0  0  0  0  0  0
  161.3730  203.3980  144.8070 F   0  0  0  0  0  0  0  0  0  0  0  0
  161.0350  204.9810  152.1490 N   0  0  0  0  0  0  0  0  0  0  0  0
  161.0530  206.2940  150.1570 C   0  0  0  0  0  0  0  0  0  0  0  0
  160.9240  207.3960  152.3440 N   0  0  0  0  0  2  0  0  0  0  0  0
  161.2380  202.6350  149.3380 C   0  0  0  0  0  3  0  0  0  0  0  0
  161.2590  205.7500  145.1570 C   0  0  0  0  0  3  0  0  0  0  0  0
  161.1100  203.8300  151.4390 C   0  0  0  0  0  0  0  0  0  0  0  0
  161.1380  202.6110  152.1240 C   0  0  0  0  0  3  0  0  0  0  0  0
  161.0210  207.5210  149.5720 N   0  0  0  0  0  0  0  0  0  0  0  0
  161.1390  206.6140  147.4170 C   0  0  0  0  0  0  0  0  0  0  0  0
  161.1810  206.8300  146.0360 C   0  0  0  0  0  3  0  0  0  0  0  0
  160.5320  211.2360  155.8110 C   0  0  0  0  0  0  0  0  0  0  0  0
  160.0060  208.8880  155.6050 C   0  0  0  0  0  3  0  0  0  0  0  0
  162.4570  209.9770  152.5250 Cl  0  0  0  0  0  0  0  0  0  0  0  0
  160.4070  212.4420  156.4850 O   0  0  0  0  0  1  0  0  0  0  0  0
  159.8790  210.1000  156.2850 C   0  0  0  0  0  3  0  0  0  0  0  0
  161.4490  209.9500  153.9660 C   0  0  0  0  0  0  0  0  0  0  0  0
  160.7870  208.7870  154.4410 C   0  0  0  0  0  0  0  0  0  0  0  0
  161.3120  211.1590  154.6570 C   0  0  0  0  0  3  0  0  0  0  0  0
  1  8  1  0  0  0  0
  2  7  1  0  0  0  0
  2 15  1  0  0  0  0
  3  2  2  0  0  0  0
  5 30  1  0  0  0  0
  5  4  2  0  0  0  0
  6  9  2  0  0  0  0
  7 19  2  0  0  0  0
  8 20  2  0  0  0  0
  9  3  1  0  0  0  0
 10 14  2  0  0  0  0
 10 16  1  0  0  0  0
 11  1  1  0  0  0  0
 12 21  1  0  0  0  0
 13  6  1  0  0  0  0
 15 10  1  0  0  0  0
 16  5  1  0  0  0  0
 17  7  1  0  0  0  0
 17  1  2  0  0  0  0
 18  6  1  0  0  0  0
 18 23  2  0  0  0  0
 19 20  1  0  0  0  0
 19 14  1  0  0  0  0
 21 15  2  0  0  0  0
 22  3  1  0  0  0  0
 22 12  2  0  0  0  0
 23 22  1  0  0  0  0
 24 28  1  0  0  0  0
 24 27  1  0  0  0  0
 25 28  2  0  0  0  0
 26 29  1  0  0  0  0
 29 30  2  0  0  0  0
 29 31  1  0  0  0  0
 30 25  1  0  0  0  0
 31 24  2  0  0  0  0
M  END
>  <MODEL>
2

>  <REMARK>
 VINA RESULT:     -10.5      1.060      1.356
  Name = 
  1 active torsions:
  status: ('A' for Active; 'I' for Inactive)
    1  A    between atoms: C_5  and  C_30
                            x       y       z     vdW  Elec       q    Type
                         _______ _______ _______ _____ _____    ______ ____

>  <TORSDO>
F 1

$$$$
=
 OpenBabel11122413223D

 31 35  0  0  0  0  0  0  0  0999 V2000
  161.0360  207.4180  154.3590 C   0  0  0  0  0  0  0  0  0  0  0  0
  161.2730  207.0140  150.6220 C   0  0  0  0  0  0  0  0  0  0  0  0
  161.1830  205.6200  150.3390 C   0  0  0  0  0  0  0  0  0  0  0  0
  161.7460  212.1790  149.7370 O   0  0  0  0  0  0  0  0  0  0  0  0
  161.7790  211.5790  148.6300 C   0  0  0  0  0  0  0  0  0  0  0  0
  160.9500  203.2840  151.0160 C   0  0  0  0  0  0  0  0  0  0  0  0
  161.2240  207.5860  151.9290 C   0  0  0  0  0  0  0  0  0  0  0  0
  161.1380  208.8030  154.4760 C   0  0  0  0  0  3  0  0  0  0  0  0
  161.0340  204.6410  151.3380 C   0  0  0  0  0  3  0  0  0  0  0  0
  161.5180  209.2760  149.7170 C   0  0  0  0  0  0  0  0  0  0  0  0
  160.8960  206.6520  155.4670 F   0  0  0  0  0  0  0  0  0  0  0  0
  161.3900  206.0960  147.9990 N   0  0  0  0  0  0  0  0  0  0  0  0
  160.8060  202.3630  151.9980 F   0  0  0  0  0  0  0  0  0  0  0  0
  161.4670  209.7820  150.9760 N   0  0  0  0  0  0  0  0  0  0  0  0
  161.4230  207.8930  149.5180 C   0  0  0  0  0  0  0  0  0  0  0  0
  161.6680  210.1480  148.5870 N   0  0  0  0  0  2  0  0  0  0  0  0
  161.0790  206.8180  153.0980 C   0  0  0  0  0  3  0  0  0  0  0  0
  161.0130  202.8790  149.6830 C   0  0  0  0  0  3  0  0  0  0  0  0
  161.3260  208.9940  152.0670 C   0  0  0  0  0  0  0  0  0  0  0  0
  161.2820  209.5890  153.3320 C   0  0  0  0  0  3  0  0  0  0  0  0
  161.4740  207.3990  148.2530 N   0  0  0  0  0  0  0  0  0  0  0  0
  161.2460  205.1890  148.9930 C   0  0  0  0  0  0  0  0  0  0  0  0
  161.1620  203.8310  148.6740 C   0  0  0  0  0  3  0  0  0  0  0  0
  162.3760  213.7540  144.9670 C   0  0  0  0  0  0  0  0  0  0  0  0
  163.2320  212.5790  146.8960 C   0  0  0  0  0  3  0  0  0  0  0  0
  159.1520  212.5900  147.0490 Cl  0  0  0  0  0  0  0  0  0  0  0  0
  162.5960  214.4530  143.7890 O   0  0  0  0  0  1  0  0  0  0  0  0
  163.4560  213.2820  145.7110 C   0  0  0  0  0  3  0  0  0  0  0  0
  160.8350  212.8180  146.5950 C   0  0  0  0  0  0  0  0  0  0  0  0
  161.9290  212.3340  147.3600 C   0  0  0  0  0  0  0  0  0  0  0  0
  161.0730  213.5220  145.4090 C   0  0  0  0  0  3  0  0  0  0  0  0
  1  8  1  0  0  0  0
  1 11  1  0  0  0  0
  2  7  1  0  0  0  0
  3  2  1  0  0  0  0
  3  9  1  0  0  0  0
  5  4  2  0  0  0  0
  6  9  2  0  0  0  0
  6 13  1  0  0  0  0
  7 19  2  0  0  0  0
  7 17  1  0  0  0  0
 10 14  2  0  0  0  0
 12 21  2  0  0  0  0
 12 22  1  0  0  0  0
 14 19  1  0  0  0  0
 15 10  1  0  0  0  0
 15  2  2  0  0  0  0
 16  5  1  0  0  0  0
 16 10  1  0  0  0  0
 17  1  2  0  0  0  0
 18  6  1  0  0  0  0
 19 20  1  0  0  0  0
 20  8  2  0  0  0  0
 21 15  1  0  0  0  0
 22  3  2  0  0  0  0
 23 22  1  0  0  0  0
 23 18  2  0  0  0  0
 24 31  2  0  0  0  0
 24 28  1  0  0  0  0
 25 30  1  0  0  0  0
 27 24  1  0  0  0  0
 28 25  2  0  0  0  0
 29 26  1  0  0  0  0
 29 30  2  0  0  0  0
 30  5  1  0  0  0  0
 31 29  1  0  0  0  0
M  END
>  <MODEL>
3

>  <REMARK>
 VINA RESULT:     -10.3      4.915      7.039
  Name = 
  1 active torsions:
  status: ('A' for Active; 'I' for Inactive)
    1  A    between atoms: C_5  and  C_30
                            x       y       z     vdW  Elec       q    Type
                         _______ _______ _______ _____ _____    ______ ____

>  <TORSDO>
F 1

$$$$
=
 OpenBabel11122413223D

 31 35  0  0  0  0  0  0  0  0999 V2000
  161.6760  205.3570  145.9340 C   0  0  0  0  0  0  0  0  0  0  0  0
  161.1930  204.4780  149.5640 C   0  0  0  0  0  0  0  0  0  0  0  0
  161.1190  203.0580  149.6510 C   0  0  0  0  0  0  0  0  0  0  0  0
  161.2240  209.4950  151.1500 O   0  0  0  0  0  0  0  0  0  0  0  0
  161.0680  208.7580  152.1600 C   0  0  0  0  0  0  0  0  0  0  0  0
  161.1400  200.8240  148.6620 C   0  0  0  0  0  0  0  0  0  0  0  0
  161.3750  205.2140  148.3540 C   0  0  0  0  0  0  0  0  0  0  0  0
  161.7290  206.7480  146.0100 C   0  0  0  0  0  3  0  0  0  0  0  0
  161.2180  202.2130  148.5310 C   0  0  0  0  0  3  0  0  0  0  0  0
  161.1410  206.6100  150.7690 C   0  0  0  0  0  0  0  0  0  0  0  0
  161.7950  204.7380  144.7360 F   0  0  0  0  0  0  0  0  0  0  0  0
  160.8360  203.2310  152.0250 N   0  0  0  0  0  0  0  0  0  0  0  0
  161.2380  200.0350  147.5650 F   0  0  0  0  0  0  0  0  0  0  0  0
  161.3140  207.2730  149.5970 N   0  0  0  0  0  0  0  0  0  0  0  0
  161.0780  205.2110  150.7750 C   0  0  0  0  0  0  0  0  0  0  0  0
  161.0230  207.3320  152.0050 N   0  0  0  0  0  2  0  0  0  0  0  0
  161.5010  204.6000  147.0950 C   0  0  0  0  0  3  0  0  0  0  0  0
  160.9610  200.2520  149.9210 C   0  0  0  0  0  3  0  0  0  0  0  0
  161.4310  206.6300  148.4120 C   0  0  0  0  0  0  0  0  0  0  0  0
  161.6060  207.3820  147.2470 C   0  0  0  0  0  3  0  0  0  0  0  0
  160.9050  204.5580  151.9550 N   0  0  0  0  0  0  0  0  0  0  0  0
  160.9380  202.4580  150.9190 C   0  0  0  0  0  0  0  0  0  0  0  0
  160.8590  201.0680  151.0470 C   0  0  0  0  0  3  0  0  0  0  0  0
  160.6860  210.6080  156.0240 C   0  0  0  0  0  0  0  0  0  0  0  0
  161.0050  210.7440  153.6340 C   0  0  0  0  0  3  0  0  0  0  0  0
  160.6120  206.8220  154.7020 Cl  0  0  0  0  0  0  0  0  0  0  0  0
  160.5670  211.2290  157.2590 O   0  0  0  0  0  1  0  0  0  0  0  0
  160.8840  211.3710  154.8750 C   0  0  0  0  0  3  0  0  0  0  0  0
  160.7270  208.5770  154.6930 C   0  0  0  0  0  0  0  0  0  0  0  0
  160.9290  209.3460  153.5160 C   0  0  0  0  0  0  0  0  0  0  0  0
  160.6080  209.2180  155.9310 C   0  0  0  0  0  3  0  0  0  0  0  0
  1  8  2  0  0  0  0
  1 17  1  0  0  0  0
  2  3  2  0  0  0  0
  2 15  1  0  0  0  0
  3 22  1  0  0  0  0
  4  5  2  0  0  0  0
  5 30  1  0  0  0  0
  6 18  1  0  0  0  0
  7 19  1  0  0  0  0
  7  2  1  0  0  0  0
  8 20  1  0  0  0  0
  9  6  2  0  0  0  0
  9  3  1  0  0  0  0
 10 15  1  0  0  0  0
 10 16  1  0  0  0  0
 11  1  1  0  0  0  0
 13  6  1  0  0  0  0
 14 10  2  0  0  0  0
 15 21  2  0  0  0  0
 16  5  1  0  0  0  0
 17  7  2  0  0  0  0
 18 23  2  0  0  0  0
 19 14  1  0  0  0  0
 20 19  2  0  0  0  0
 21 12  1  0  0  0  0
 22 23  1  0  0  0  0
 22 12  2  0  0  0  0
 24 27  1  0  0  0  0
 25 28  1  0  0  0  0
 28 24  2  0  0  0  0
 29 26  1  0  0  0  0
 29 31  2  0  0  0  0
 30 25  2  0  0  0  0
 30 29  1  0  0  0  0
 31 24  1  0  0  0  0
M  END
>  <MODEL>
4

>  <REMARK>
 VINA RESULT:      -9.8      1.295      4.048
  Name = 
  1 active torsions:
  status: ('A' for Active; 'I' for Inactive)
    1  A    between atoms: C_5  and  C_30
                            x       y       z     vdW  Elec       q    Type
                         _______ _______ _______ _____ _____    ______ ____

>  <TORSDO>
F 1

$$$$
=
 OpenBabel11122413223D

 31 35  0  0  0  0  0  0  0  0999 V2000
  161.8580  211.0150  150.0780 C   0  0  0  0  0  0  0  0  0  0  0  0
  161.3380  207.5460  151.4510 C   0  0  0  0  0  0  0  0  0  0  0  0
  161.1930  207.6660  152.8640 C   0  0  0  0  0  0  0  0  0  0  0  0
  161.6190  205.2490  146.7260 O   0  0  0  0  0  0  0  0  0  0  0  0
  161.4290  204.3560  147.5930 C   0  0  0  0  0  0  0  0  0  0  0  0
  161.1020  208.9690  154.9280 C   0  0  0  0  0  0  0  0  0  0  0  0
  161.5520  208.6380  150.5570 C   0  0  0  0  0  0  0  0  0  0  0  0
  161.9800  210.7380  148.7180 C   0  0  0  0  0  3  0  0  0  0  0  0
  161.2480  208.8980  153.5400 C   0  0  0  0  0  3  0  0  0  0  0  0
  161.3930  206.0440  149.5170 C   0  0  0  0  0  0  0  0  0  0  0  0
  161.9440  212.2910  150.5210 F   0  0  0  0  0  0  0  0  0  0  0  0
  160.9240  205.2900  153.0240 N   0  0  0  0  0  0  0  0  0  0  0  0
  161.1590  210.1690  155.5530 F   0  0  0  0  0  0  0  0  0  0  0  0
  161.5970  207.1090  148.7000 N   0  0  0  0  0  0  0  0  0  0  0  0
  161.2610  206.2410  150.8980 C   0  0  0  0  0  0  0  0  0  0  0  0
  161.3120  204.7160  148.9780 N   0  0  0  0  0  2  0  0  0  0  0  0
  161.6460  209.9740  150.9860 C   0  0  0  0  0  3  0  0  0  0  0  0
  160.8960  207.8050  155.6680 C   0  0  0  0  0  3  0  0  0  0  0  0
  161.6790  208.3760  149.1690 C   0  0  0  0  0  0  0  0  0  0  0  0
  161.8910  209.4210  148.2650 C   0  0  0  0  0  3  0  0  0  0  0  0
  161.0570  205.1670  151.7060 N   0  0  0  0  0  0  0  0  0  0  0  0
  160.9830  206.4970  153.6320 C   0  0  0  0  0  0  0  0  0  0  0  0
  160.8370  206.5720  155.0200 C   0  0  0  0  0  3  0  0  0  0  0  0
  161.1640  200.1770  146.6130 C   0  0  0  0  0  0  0  0  0  0  0  0
  161.6450  201.9600  148.1690 C   0  0  0  0  0  3  0  0  0  0  0  0
  160.4720  203.5810  144.6090 Cl  0  0  0  0  0  0  0  0  0  0  0  0
  161.0880  198.8220  146.3220 O   0  0  0  0  0  1  0  0  0  0  0  0
  161.5690  200.5970  147.8790 C   0  0  0  0  0  3  0  0  0  0  0  0
  160.9090  202.4890  145.9170 C   0  0  0  0  0  0  0  0  0  0  0  0
  161.3200  202.9270  147.2030 C   0  0  0  0  0  0  0  0  0  0  0  0
  160.8370  201.1190  145.6380 C   0  0  0  0  0  3  0  0  0  0  0  0
  1 11  1  0  0  0  0
  1 17  1  0  0  0  0
  2  3  1  0  0  0  0
  3  9  2  0  0  0  0
  3 22  1  0  0  0  0
  4  5  2  0  0  0  0
  5 16  1  0  0  0  0
  6 13  1  0  0  0  0
  6 18  2  0  0  0  0
  7 17  2  0  0  0  0
  7  2  1  0  0  0  0
  8  1  2  0  0  0  0
  9  6  1  0  0  0  0
 10 15  1  0  0  0  0
 12 22  1  0  0  0  0
 14 19  1  0  0  0  0
 14 10  2  0  0  0  0
 15  2  2  0  0  0  0
 15 21  1  0  0  0  0
 16 10  1  0  0  0  0
 19  7  1  0  0  0  0
 20  8  1  0  0  0  0
 20 19  2  0  0  0  0
 21 12  2  0  0  0  0
 22 23  2  0  0  0  0
 23 18  1  0  0  0  0
 24 28  1  0  0  0  0
 26 29  1  0  0  0  0
 27 24  1  0  0  0  0
 28 25  2  0  0  0  0
 29 30  2  0  0  0  0
 30  5  1  0  0  0  0
 30 25  1  0  0  0  0
 31 29  1  0  0  0  0
 31 24  2  0  0  0  0
M  END
>  <MODEL>
5

>  <REMARK>
 VINA RESULT:      -8.8      4.789      9.176
  Name = 
  1 active torsions:
  status: ('A' for Active; 'I' for Inactive)
    1  A    between atoms: C_5  and  C_30
                            x       y       z     vdW  Elec       q    Type
                         _______ _______ _______ _____ _____    ______ ____

>  <TORSDO>
F 1

$$$$
=
 OpenBabel11122413223D

 31 35  0  0  0  0  0  0  0  0999 V2000
  161.7480  212.0900  149.5870 C   0  0  0  0  0  0  0  0  0  0  0  0
  161.3430  208.7530  151.2850 C   0  0  0  0  0  0  0  0  0  0  0  0
  161.2400  208.9990  152.6850 C   0  0  0  0  0  0  0  0  0  0  0  0
  161.5260  206.0380  146.7820 O   0  0  0  0  0  0  0  0  0  0  0  0
  161.3810  205.2250  147.7330 C   0  0  0  0  0  0  0  0  0  0  0  0
  161.1850  210.4840  154.6240 C   0  0  0  0  0  0  0  0  0  0  0  0
  161.5070  209.7620  150.2890 C   0  0  0  0  0  0  0  0  0  0  0  0
  161.8340  211.6920  148.2530 C   0  0  0  0  0  3  0  0  0  0  0  0
  161.2910  210.2880  153.2450 C   0  0  0  0  0  3  0  0  0  0  0  0
  161.3700  207.0810  149.4960 C   0  0  0  0  0  0  0  0  0  0  0  0
  161.8210  213.4030  149.9080 F   0  0  0  0  0  0  0  0  0  0  0  0
  161.0260  206.6430  153.0700 N   0  0  0  0  0  0  0  0  0  0  0  0
  161.2380  211.7370  155.1360 F   0  0  0  0  0  0  0  0  0  0  0  0
  161.5270  208.0700  148.5790 N   0  0  0  0  0  0  0  0  0  0  0  0
  161.2770  207.4020  150.8560 C   0  0  0  0  0  0  0  0  0  0  0  0
  161.3010  205.7080  149.0820 N   0  0  0  0  0  2  0  0  0  0  0  0
  161.5860  211.1330  150.5920 C   0  0  0  0  0  3  0  0  0  0  0  0
  161.0270  209.3890  155.4730 C   0  0  0  0  0  3  0  0  0  0  0  0
  161.5960  209.3760  148.9270 C   0  0  0  0  0  0  0  0  0  0  0  0
  161.7580  210.3380  147.9250 C   0  0  0  0  0  3  0  0  0  0  0  0
  161.1200  206.4030  151.7640 N   0  0  0  0  0  0  0  0  0  0  0  0
  161.0790  207.9010  153.5630 C   0  0  0  0  0  0  0  0  0  0  0  0
  160.9740  208.1010  154.9430 C   0  0  0  0  0  3  0  0  0  0  0  0
  161.1250  201.0270  146.8350 C   0  0  0  0  0  0  0  0  0  0  0  0
  161.3180  203.3310  146.1420 C   0  0  0  0  0  3  0  0  0  0  0  0
  161.1280  203.1800  150.2180 Cl  0  0  0  0  0  0  0  0  0  0  0  0
  161.0430  199.6780  146.5190 O   0  0  0  0  0  1  0  0  0  0  0  0
  161.2360  201.9750  145.8210 C   0  0  0  0  0  3  0  0  0  0  0  0
  161.1770  202.7900  148.5040 C   0  0  0  0  0  0  0  0  0  0  0  0
  161.2900  203.7650  147.4780 C   0  0  0  0  0  0  0  0  0  0  0  0
  161.0950  201.4340  148.1690 C   0  0  0  0  0  3  0  0  0  0  0  0
  1 11  1  0  0  0  0
  1 17  1  0  0  0  0
  2  3  1  0  0  0  0
  3  9  2  0  0  0  0
  3 22  1  0  0  0  0
  4  5  2  0  0  0  0
  5 16  1  0  0  0  0
  6 13  1  0  0  0  0
  6 18  2  0  0  0  0
  7 17  2  0  0  0  0
  7  2  1  0  0  0  0
  8  1  2  0  0  0  0
  9  6  1  0  0  0  0
 10 15  1  0  0  0  0
 12 22  1  0  0  0  0
 14 19  1  0  0  0  0
 14 10  2  0  0  0  0
 15  2  2  0  0  0  0
 15 21  1  0  0  0  0
 16 10  1  0  0  0  0
 19  7  1  0  0  0  0
 20  8  1  0  0  0  0
 20 19  2  0  0  0  0
 21 12  2  0  0  0  0
 22 23  2  0  0  0  0
 23 18  1  0  0  0  0
 24 31  1  0  0  0  0
 25 30  2  0  0  0  0
 27 24  1  0  0  0  0
 28 25  1  0  0  0  0
 28 24  2  0  0  0  0
 29 26  1  0  0  0  0
 30  5  1  0  0  0  0
 30 29  1  0  0  0  0
 31 29  2  0  0  0  0
M  END
>  <MODEL>
6

>  <REMARK>
 VINA RESULT:      -8.1      4.600      9.040
  Name = 
  1 active torsions:
  status: ('A' for Active; 'I' for Inactive)
    1  A    between atoms: C_5  and  C_30
                            x       y       z     vdW  Elec       q    Type
                         _______ _______ _______ _____ _____    ______ ____

>  <TORSDO>
F 1

$$$$
