=
 OpenBabel11122412443D

 30 35  0  0  1  0  0  0  0  0999 V2000
  161.3930  204.7100  148.7520 C   0  0  2  0  0  3  0  0  0  0  0  0
  161.0580  202.2020  148.3620 C   0  0  0  0  0  0  0  0  0  0  0  0
  160.6870  204.2690  152.5970 O   0  0  0  0  0  0  0  0  0  0  0  0
  161.1040  205.7270  149.8740 C   0  0  2  0  0  3  0  0  0  0  0  0
  160.5220  204.9470  147.6760 O   0  0  0  0  0  0  0  0  0  0  0  0
  160.9170  208.5220  147.3110 O   0  0  0  0  0  1  0  0  0  0  0  0
  162.5010  208.4210  151.0880 C   0  0  2  0  0  3  0  0  0  0  0  0
  160.5330  207.3140  147.9040 C   0  0  1  0  0  3  0  0  0  0  0  0
  161.4470  207.8140  152.0090 C   0  0  2  0  0  3  0  0  0  0  0  0
  160.7270  205.5820  153.0200 C   0  0  0  0  0  0  0  0  0  0  0  0
  160.9700  206.1230  147.0550 C   0  0  2  0  0  3  0  0  0  0  0  0
  161.0890  207.1860  149.3350 C   0  0  2  0  0  3  0  0  0  0  0  0
  160.9290  200.9360  148.8440 N   0  0  0  0  0  0  0  0  0  0  0  0
  161.4670  208.6550  153.2620 C   0  0  0  0  0  2  0  0  0  0  0  0
  162.4270  210.2270  151.2650 S   0  0  0  0  0  0  0  0  0  0  0  0
  161.0310  202.4020  146.9520 N   0  0  0  0  0  1  0  0  0  0  0  0
  161.7140  204.0560  151.6430 C   0  0  2  0  0  3  0  0  0  0  0  0
  160.9980  200.6600  150.1710 C   0  0  0  0  0  3  0  0  0  0  0  0
  161.2390  203.2850  149.2540 C   0  0  0  0  0  0  0  0  0  0  0  0
  162.0400  205.4510  151.0790 C   0  0  2  0  0  3  0  0  0  0  0  0
  159.9930  206.0340  153.9370 O   0  0  0  0  0  0  0  0  0  0  0  0
  161.7800  206.3510  152.3080 C   0  0  1  0  0  3  0  0  0  0  0  0
  161.4700  210.0990  152.8100 C   0  0  0  0  0  2  0  0  0  0  0  0
  163.4980  207.3620  149.1680 O   0  0  0  0  0  1  0  0  0  0  0  0
  161.2280  201.6830  151.0850 C   0  0  0  0  0  3  0  0  0  0  0  0
  161.3620  202.9980  150.6320 C   0  0  0  0  0  0  0  0  0  0  0  0
  162.3500  208.0200  149.6130 C   0  0  2  0  0  3  0  0  0  0  0  0
  160.3640  206.2190  145.6630 C   0  0  0  0  0  2  0  0  0  0  0  0
  162.5460  205.4270  145.1510 O   0  0  0  0  0  1  0  0  0  0  0  0
  161.2430  205.4970  144.6600 C   0  0  0  0  0  2  0  0  0  0  0  0
  1  5  1  6  0  0  0
  1 19  1  0  0  0  0
  1  4  1  0  0  0  0
  2 13  2  0  0  0  0
  2 19  1  0  0  0  0
  3 10  1  0  0  0  0
  4 20  1  0  0  0  0
  6  8  1  0  0  0  0
  7 15  1  0  0  0  0
  7  9  1  0  0  0  0
  8 12  1  0  0  0  0
  9 22  1  0  0  0  0
  9 14  1  0  0  0  0
 10 21  2  0  0  0  0
 11  5  1  0  0  0  0
 11  8  1  0  0  0  0
 12 27  1  0  0  0  0
 12  4  1  0  0  0  0
 13 18  1  0  0  0  0
 15 23  1  0  0  0  0
 16  2  1  0  0  0  0
 17  3  1  0  0  0  0
 18 25  2  0  0  0  0
 19 26  2  0  0  0  0
 20 17  1  0  0  0  0
 20 22  1  0  0  0  0
 22 10  1  0  0  0  0
 23 14  1  0  0  0  0
 24 27  1  0  0  0  0
 26 25  1  0  0  0  0
 26 17  1  0  0  0  0
 27  7  1  0  0  0  0
 28 11  1  0  0  0  0
 30 29  1  0  0  0  0
 30 28  1  0  0  0  0
M  END
>  <MODEL>
1

>  <REMARK>
 VINA RESULT:      -6.5      0.000      0.000
  Name = 
  2 active torsions:
  status: ('A' for Active; 'I' for Inactive)
    1  A    between atoms: C_11  and  C_28
    2  A    between atoms: C_28  and  C_30
                            x       y       z     vdW  Elec       q    Type
                         _______ _______ _______ _____ _____    ______ ____

>  <TORSDO>
F 2

$$$$
=
 OpenBabel11122412443D

 30 35  0  0  1  0  0  0  0  0999 V2000
  160.1460  212.2570  151.7950 C   0  0  2  0  0  3  0  0  0  0  0  0
  160.6100  213.2900  149.4980 C   0  0  0  0  0  0  0  0  0  0  0  0
  161.5090  208.7750  150.5720 O   0  0  0  0  0  0  0  0  0  0  0  0
  160.0590  210.8420  152.4000 C   0  0  2  0  0  3  0  0  0  0  0  0
  158.8580  212.8160  151.7350 O   0  0  0  0  0  0  0  0  0  0  0  0
  157.7050  212.1220  155.0900 O   0  0  0  0  0  1  0  0  0  0  0  0
  160.7660  209.4040  155.2480 C   0  0  2  0  0  3  0  0  0  0  0  0
  158.1090  211.8560  153.7770 C   0  0  1  0  0  3  0  0  0  0  0  0
  160.5590  208.4170  154.1020 C   0  0  2  0  0  3  0  0  0  0  0  0
  161.2580  207.9950  151.6820 C   0  0  0  0  0  0  0  0  0  0  0  0
  158.5050  213.1410  153.0540 C   0  0  2  0  0  3  0  0  0  0  0  0
  159.2660  210.8390  153.7370 C   0  0  2  0  0  3  0  0  0  0  0  0
  161.1900  213.2300  148.2690 N   0  0  0  0  0  0  0  0  0  0  0  0
  160.8480  207.0540  154.6810 C   0  0  0  0  0  2  0  0  0  0  0  0
  160.1290  208.6390  156.7670 S   0  0  0  0  0  0  0  0  0  0  0  0
  159.8640  214.4530  149.8450 N   0  0  0  0  0  1  0  0  0  0  0  0
  161.9780  210.0460  150.9930 C   0  0  2  0  0  3  0  0  0  0  0  0
  161.9580  212.1800  147.8850 C   0  0  0  0  0  3  0  0  0  0  0  0
  160.7720  212.2220  150.4120 C   0  0  0  0  0  0  0  0  0  0  0  0
  161.4730  210.2060  152.4390 C   0  0  2  0  0  3  0  0  0  0  0  0
  160.9220  206.7840  151.6110 O   0  0  0  0  0  0  0  0  0  0  0  0
  161.5010  208.7450  152.9420 C   0  0  1  0  0  3  0  0  0  0  0  0
  160.1140  206.9840  156.0030 C   0  0  0  0  0  2  0  0  0  0  0  0
  161.0730  211.7840  155.0430 O   0  0  0  0  0  1  0  0  0  0  0  0
  162.1930  211.1290  148.7670 C   0  0  0  0  0  3  0  0  0  0  0  0
  161.6130  211.1500  150.0370 C   0  0  0  0  0  0  0  0  0  0  0  0
  160.1100  210.7730  155.0210 C   0  0  2  0  0  3  0  0  0  0  0  0
  157.3380  214.1160  153.0360 C   0  0  0  0  0  2  0  0  0  0  0  0
  155.3720  214.2020  151.7020 O   0  0  0  0  0  1  0  0  0  0  0  0
  156.7650  214.2180  151.6360 C   0  0  0  0  0  2  0  0  0  0  0  0
  1 19  1  6  0  0  0
  1  4  1  0  0  0  0
  2 16  1  0  0  0  0
  2 19  1  0  0  0  0
  3 17  1  0  0  0  0
  3 10  1  0  0  0  0
  4 20  1  0  0  0  0
  4 12  1  0  0  0  0
  5  1  1  0  0  0  0
  5 11  1  0  0  0  0
  7 15  1  0  0  0  0
  8  6  1  0  0  0  0
  9 14  1  0  0  0  0
  9  7  1  0  0  0  0
 10 22  1  0  0  0  0
 11  8  1  0  0  0  0
 12  8  1  0  0  0  0
 12 27  1  0  0  0  0
 13  2  2  0  0  0  0
 14 23  1  0  0  0  0
 17 20  1  0  0  0  0
 18 13  1  0  0  0  0
 18 25  2  0  0  0  0
 20 22  1  0  0  0  0
 21 10  2  0  0  0  0
 22  9  1  0  0  0  0
 23 15  1  0  0  0  0
 25 26  1  0  0  0  0
 26 19  2  0  0  0  0
 26 17  1  0  0  0  0
 27 24  1  0  0  0  0
 27  7  1  0  0  0  0
 28 11  1  0  0  0  0
 30 29  1  0  0  0  0
 30 28  1  0  0  0  0
M  END
>  <MODEL>
2

>  <REMARK>
 VINA RESULT:      -6.5      5.157      8.187
  Name = 
  2 active torsions:
  status: ('A' for Active; 'I' for Inactive)
    1  A    between atoms: C_11  and  C_28
    2  A    between atoms: C_28  and  C_30
                            x       y       z     vdW  Elec       q    Type
                         _______ _______ _______ _____ _____    ______ ____

>  <TORSDO>
F 2

$$$$
=
 OpenBabel11122412443D

 30 35  0  0  1  0  0  0  0  0999 V2000
  161.2400  207.6980  150.8700 C   0  0  2  0  0  3  0  0  0  0  0  0
  161.2090  209.0440  153.0480 C   0  0  0  0  0  0  0  0  0  0  0  0
  161.4490  204.3260  152.8860 O   0  0  0  0  0  0  0  0  0  0  0  0
  161.5660  206.2540  150.4400 C   0  0  2  0  0  3  0  0  0  0  0  0
  162.2490  208.5590  150.4060 O   0  0  0  0  0  0  0  0  0  0  0  0
  162.4740  207.4800  146.9640 O   0  0  0  0  0  1  0  0  0  0  0  0
  160.4970  204.1160  148.2110 C   0  0  2  0  0  3  0  0  0  0  0  0
  162.5930  207.4060  148.3560 C   0  0  1  0  0  3  0  0  0  0  0  0
  161.3350  203.4780  149.3150 C   0  0  2  0  0  3  0  0  0  0  0  0
  161.5740  203.4160  151.8560 C   0  0  0  0  0  0  0  0  0  0  0  0
  162.0650  208.6750  149.0200 C   0  0  2  0  0  3  0  0  0  0  0  0
  161.8730  206.1650  148.9180 C   0  0  2  0  0  3  0  0  0  0  0  0
  161.0800  209.1040  154.4010 N   0  0  0  0  0  0  0  0  0  0  0  0
  161.3150  201.9950  149.0350 C   0  0  0  0  0  2  0  0  0  0  0  0
  160.8400  203.2310  146.6630 S   0  0  0  0  0  0  0  0  0  0  0  0
  161.4190  210.2560  152.3290 N   0  0  0  0  0  1  0  0  0  0  0  0
  160.5090  205.3220  152.5160 C   0  0  2  0  0  3  0  0  0  0  0  0
  160.8250  208.0010  155.1500 C   0  0  0  0  0  3  0  0  0  0  0  0
  161.1090  207.8020  152.3800 C   0  0  0  0  0  0  0  0  0  0  0  0
  160.4730  205.2930  150.9770 C   0  0  2  0  0  3  0  0  0  0  0  0
  162.2690  202.3700  151.9420 O   0  0  0  0  0  0  0  0  0  0  0  0
  160.7410  203.7990  150.6870 C   0  0  1  0  0  3  0  0  0  0  0  0
  161.5930  201.8320  147.5560 C   0  0  0  0  0  2  0  0  0  0  0  0
  159.5550  206.3330  148.2370 O   0  0  0  0  0  1  0  0  0  0  0  0
  160.6660  206.7630  154.5340 C   0  0  0  0  0  3  0  0  0  0  0  0
  160.7940  206.6580  153.1470 C   0  0  0  0  0  0  0  0  0  0  0  0
  160.7390  205.6220  148.0330 C   0  0  2  0  0  3  0  0  0  0  0  0
  162.8250  209.8910  148.5120 C   0  0  0  0  0  2  0  0  0  0  0  0
  162.7540  212.2620  148.3550 O   0  0  0  0  0  1  0  0  0  0  0  0
  162.0050  211.1470  148.7310 C   0  0  0  0  0  2  0  0  0  0  0  0
  1  5  1  1  0  0  0
  1 19  1  0  0  0  0
  2 13  1  0  0  0  0
  4  1  1  0  0  0  0
  4 20  1  0  0  0  0
  6  8  1  0  0  0  0
  7  9  1  0  0  0  0
  8 12  1  0  0  0  0
  8 11  1  0  0  0  0
  9 22  1  0  0  0  0
 10 21  2  0  0  0  0
 10  3  1  0  0  0  0
 11  5  1  0  0  0  0
 12  4  1  0  0  0  0
 13 18  2  0  0  0  0
 14  9  1  0  0  0  0
 15 23  1  0  0  0  0
 15  7  1  0  0  0  0
 16  2  1  0  0  0  0
 17  3  1  0  0  0  0
 17 26  1  0  0  0  0
 19  2  2  0  0  0  0
 19 26  1  0  0  0  0
 20 17  1  0  0  0  0
 22 20  1  0  0  0  0
 22 10  1  0  0  0  0
 23 14  1  0  0  0  0
 25 18  1  0  0  0  0
 26 25  2  0  0  0  0
 27  7  1  0  0  0  0
 27 24  1  0  0  0  0
 27 12  1  0  0  0  0
 28 30  1  0  0  0  0
 28 11  1  0  0  0  0
 29 30  1  0  0  0  0
M  END
>  <MODEL>
3

>  <REMARK>
 VINA RESULT:      -6.0      3.358      5.714
  Name = 
  2 active torsions:
  status: ('A' for Active; 'I' for Inactive)
    1  A    between atoms: C_11  and  C_28
    2  A    between atoms: C_28  and  C_30
                            x       y       z     vdW  Elec       q    Type
                         _______ _______ _______ _____ _____    ______ ____

>  <TORSDO>
F 2

$$$$
=
 OpenBabel11122412443D

 30 35  0  0  1  0  0  0  0  0999 V2000
  161.7010  207.7550  151.4290 C   0  0  2  0  0  3  0  0  0  0  0  0
  161.9620  210.2930  151.2120 C   0  0  0  0  0  0  0  0  0  0  0  0
  160.9800  207.4380  147.5750 O   0  0  0  0  0  0  0  0  0  0  0  0
  161.1480  206.5990  150.5710 C   0  0  2  0  0  3  0  0  0  0  0  0
  160.8370  207.9830  152.5130 O   0  0  0  0  0  0  0  0  0  0  0  0
  160.4170  204.6000  153.7150 O   0  0  0  0  0  1  0  0  0  0  0  0
  161.8490  203.4500  150.0530 C   0  0  2  0  0  3  0  0  0  0  0  0
  160.3000  205.6910  152.8470 C   0  0  1  0  0  3  0  0  0  0  0  0
  160.9300  204.0510  148.9940 C   0  0  2  0  0  3  0  0  0  0  0  0
  160.7040  206.0900  147.4730 C   0  0  0  0  0  0  0  0  0  0  0  0
  161.0260  206.9140  153.4020 C   0  0  2  0  0  3  0  0  0  0  0  0
  160.8190  205.3510  151.4380 C   0  0  2  0  0  3  0  0  0  0  0  0
  162.1090  211.4060  150.4440 N   0  0  0  0  0  0  0  0  0  0  0  0
  160.7140  202.9600  147.9740 C   0  0  0  0  0  2  0  0  0  0  0  0
  161.3580  201.7190  150.3030 S   0  0  0  0  0  0  0  0  0  0  0  0
  161.9400  210.4390  152.6290 N   0  0  0  0  0  1  0  0  0  0  0  0
  162.0620  207.6260  148.4720 C   0  0  2  0  0  3  0  0  0  0  0  0
  162.1930  211.3420  149.0910 C   0  0  0  0  0  3  0  0  0  0  0  0
  161.8590  209.0200  150.6040 C   0  0  0  0  0  0  0  0  0  0  0  0
  162.0800  206.3640  149.3540 C   0  0  2  0  0  3  0  0  0  0  0  0
  159.8540  205.6190  146.6730 O   0  0  0  0  0  0  0  0  0  0  0  0
  161.5780  205.2870  148.3660 C   0  0  1  0  0  3  0  0  0  0  0  0
  160.4020  201.7000  148.7520 C   0  0  0  0  0  2  0  0  0  0  0  0
  163.1290  204.6680  151.6900 O   0  0  0  0  0  1  0  0  0  0  0  0
  162.1510  210.1090  148.4480 C   0  0  0  0  0  3  0  0  0  0  0  0
  161.9970  208.9420  149.1990 C   0  0  0  0  0  0  0  0  0  0  0  0
  161.8460  204.2070  151.3890 C   0  0  2  0  0  3  0  0  0  0  0  0
  160.4640  207.2870  154.7650 C   0  0  0  0  0  2  0  0  0  0  0  0
  161.8540  208.0010  156.5570 O   0  0  0  0  0  1  0  0  0  0  0  0
  161.2650  208.4250  155.3660 C   0  0  0  0  0  2  0  0  0  0  0  0
  1 19  1  6  0  0  0
  1  5  1  0  0  0  0
  2 16  1  0  0  0  0
  3 17  1  0  0  0  0
  4  1  1  0  0  0  0
  4 12  1  0  0  0  0
  5 11  1  0  0  0  0
  7 15  1  0  0  0  0
  7 27  1  0  0  0  0
  8 11  1  0  0  0  0
  8  6  1  0  0  0  0
  9  7  1  0  0  0  0
 10  3  1  0  0  0  0
 10 22  1  0  0  0  0
 11 28  1  0  0  0  0
 12  8  1  0  0  0  0
 13  2  2  0  0  0  0
 14 23  1  0  0  0  0
 14  9  1  0  0  0  0
 17 26  1  0  0  0  0
 17 20  1  0  0  0  0
 18 13  1  0  0  0  0
 19  2  1  0  0  0  0
 20  4  1  0  0  0  0
 21 10  2  0  0  0  0
 22  9  1  0  0  0  0
 22 20  1  0  0  0  0
 23 15  1  0  0  0  0
 25 18  2  0  0  0  0
 25 26  1  0  0  0  0
 26 19  2  0  0  0  0
 27 12  1  0  0  0  0
 27 24  1  0  0  0  0
 28 30  1  0  0  0  0
 30 29  1  0  0  0  0
M  END
>  <MODEL>
4

>  <REMARK>
 VINA RESULT:      -4.7      3.383      7.186
  Name = 
  2 active torsions:
  status: ('A' for Active; 'I' for Inactive)
    1  A    between atoms: C_11  and  C_28
    2  A    between atoms: C_28  and  C_30
                            x       y       z     vdW  Elec       q    Type
                         _______ _______ _______ _____ _____    ______ ____

>  <TORSDO>
F 2

$$$$
=
 OpenBabel11122412443D

 30 35  0  0  1  0  0  0  0  0999 V2000
  160.9770  211.5930  151.2210 C   0  0  2  0  0  3  0  0  0  0  0  0
  161.1480  213.5220  149.5450 C   0  0  0  0  0  0  0  0  0  0  0  0
  161.5200  208.9650  148.3450 O   0  0  0  0  0  0  0  0  0  0  0  0
  160.7880  210.0640  151.1670 C   0  0  2  0  0  3  0  0  0  0  0  0
  159.8050  212.1890  151.7170 O   0  0  0  0  0  0  0  0  0  0  0  0
  159.2230  210.1240  154.6260 O   0  0  0  0  0  1  0  0  0  0  0  0
  161.7940  207.4630  152.8690 C   0  0  2  0  0  3  0  0  0  0  0  0
  159.3220  210.4550  153.2700 C   0  0  1  0  0  3  0  0  0  0  0  0
  161.2200  207.1100  151.5000 C   0  0  2  0  0  3  0  0  0  0  0  0
  161.3680  207.7840  149.0410 C   0  0  0  0  0  0  0  0  0  0  0  0
  159.7670  211.9040  153.0900 C   0  0  2  0  0  3  0  0  0  0  0  0
  160.2760  209.5040  152.5240 C   0  0  2  0  0  3  0  0  0  0  0  0
  161.4640  213.9900  148.3080 N   0  0  0  0  0  0  0  0  0  0  0  0
  161.3980  205.6180  151.3560 C   0  0  0  0  0  2  0  0  0  0  0  0
  161.3490  206.1320  154.0220 S   0  0  0  0  0  0  0  0  0  0  0  0
  160.6740  214.4430  150.5230 N   0  0  0  0  0  1  0  0  0  0  0  0
  162.2530  209.8830  149.1390 C   0  0  2  0  0  3  0  0  0  0  0  0
  161.9720  213.1840  147.3410 C   0  0  0  0  0  3  0  0  0  0  0  0
  161.3130  212.1500  149.8490 C   0  0  0  0  0  0  0  0  0  0  0  0
  162.0660  209.4030  150.5900 C   0  0  2  0  0  3  0  0  0  0  0  0
  160.8400  206.7550  148.5450 O   0  0  0  0  0  0  0  0  0  0  0  0
  161.9610  207.8730  150.4000 C   0  0  1  0  0  3  0  0  0  0  0  0
  160.9300  205.0020  152.6560 C   0  0  0  0  0  2  0  0  0  0  0  0
  162.4250  209.6590  153.6290 O   0  0  0  0  0  1  0  0  0  0  0  0
  162.2040  211.8380  147.6060 C   0  0  0  0  0  3  0  0  0  0  0  0
  161.8890  211.3170  148.8630 C   0  0  0  0  0  0  0  0  0  0  0  0
  161.3290  208.8210  153.4120 C   0  0  2  0  0  3  0  0  0  0  0  0
  158.7850  212.8460  153.7710 C   0  0  0  0  0  2  0  0  0  0  0  0
  159.1020  212.7570  156.1260 O   0  0  0  0  0  1  0  0  0  0  0  0
  159.4310  213.4860  154.9840 C   0  0  0  0  0  2  0  0  0  0  0  0
  1 19  1  6  0  0  0
  1  5  1  0  0  0  0
  2 19  1  0  0  0  0
  2 16  1  0  0  0  0
  3 10  1  0  0  0  0
  3 17  1  0  0  0  0
  4  1  1  0  0  0  0
  4 12  1  0  0  0  0
  5 11  1  0  0  0  0
  7 27  1  0  0  0  0
  7 15  1  0  0  0  0
  8  6  1  0  0  0  0
  9  7  1  0  0  0  0
 10 22  1  0  0  0  0
 11  8  1  0  0  0  0
 11 28  1  0  0  0  0
 12  8  1  0  0  0  0
 12 27  1  0  0  0  0
 13  2  2  0  0  0  0
 14  9  1  0  0  0  0
 14 23  1  0  0  0  0
 17 20  1  0  0  0  0
 18 25  2  0  0  0  0
 18 13  1  0  0  0  0
 20  4  1  0  0  0  0
 21 10  2  0  0  0  0
 22 20  1  0  0  0  0
 22  9  1  0  0  0  0
 23 15  1  0  0  0  0
 25 26  1  0  0  0  0
 26 17  1  0  0  0  0
 26 19  2  0  0  0  0
 27 24  1  0  0  0  0
 28 30  1  0  0  0  0
 30 29  1  0  0  0  0
M  END
>  <MODEL>
5

>  <REMARK>
 VINA RESULT:      -4.6      4.515      8.085
  Name = 
  2 active torsions:
  status: ('A' for Active; 'I' for Inactive)
    1  A    between atoms: C_11  and  C_28
    2  A    between atoms: C_28  and  C_30
                            x       y       z     vdW  Elec       q    Type
                         _______ _______ _______ _____ _____    ______ ____

>  <TORSDO>
F 2

$$$$
=
 OpenBabel11122412443D

 30 35  0  0  1  0  0  0  0  0999 V2000
  161.1820  208.9100  153.3840 C   0  0  2  0  0  3  0  0  0  0  0  0
  160.6040  208.2390  155.7870 C   0  0  0  0  0  0  0  0  0  0  0  0
  158.8000  212.0330  153.6200 O   0  0  0  0  0  0  0  0  0  0  0  0
  160.6200  209.8670  152.3130 C   0  0  2  0  0  3  0  0  0  0  0  0
  160.9270  207.5830  153.0010 O   0  0  0  0  0  0  0  0  0  0  0  0
  162.0780  207.6770  149.5760 O   0  0  0  0  0  1  0  0  0  0  0  0
  161.8070  211.7500  149.9210 C   0  0  2  0  0  3  0  0  0  0  0  0
  161.2640  207.9600  150.6780 C   0  0  1  0  0  3  0  0  0  0  0  0
  160.3660  212.0810  150.2990 C   0  0  2  0  0  3  0  0  0  0  0  0
  158.8880  212.5230  152.3340 C   0  0  0  0  0  0  0  0  0  0  0  0
  161.8050  207.3000  151.9440 C   0  0  2  0  0  3  0  0  0  0  0  0
  161.1050  209.4770  150.8880 C   0  0  2  0  0  3  0  0  0  0  0  0
  160.0520  208.5270  156.9970 N   0  0  0  0  0  0  0  0  0  0  0  0
  159.9880  213.2760  149.4580 C   0  0  0  0  0  2  0  0  0  0  0  0
  161.9900  212.0050  148.1320 S   0  0  0  0  0  0  0  0  0  0  0  0
  161.2320  206.9730  155.6080 N   0  0  0  0  0  1  0  0  0  0  0  0
  160.0840  211.6030  154.0430 C   0  0  2  0  0  3  0  0  0  0  0  0
  159.4840  209.7310  157.2600 C   0  0  0  0  0  3  0  0  0  0  0  0
  160.5700  209.1950  154.7450 C   0  0  0  0  0  0  0  0  0  0  0  0
  160.8690  211.3350  152.7470 C   0  0  2  0  0  3  0  0  0  0  0  0
  157.9210  213.0620  151.7350 O   0  0  0  0  0  0  0  0  0  0  0  0
  160.2650  212.3910  151.7930 C   0  0  1  0  0  3  0  0  0  0  0  0
  160.4480  212.9730  148.0480 C   0  0  0  0  0  2  0  0  0  0  0  0
  163.3330  210.3790  151.1830 O   0  0  0  0  0  1  0  0  0  0  0  0
  159.4720  210.7240  156.2860 C   0  0  0  0  0  3  0  0  0  0  0  0
  160.0250  210.4670  155.0290 C   0  0  0  0  0  0  0  0  0  0  0  0
  162.2460  210.3310  150.3090 C   0  0  2  0  0  3  0  0  0  0  0  0
  161.8960  205.7940  151.7550 C   0  0  0  0  0  2  0  0  0  0  0  0
  160.7560  203.8190  152.4290 O   0  0  0  0  0  1  0  0  0  0  0  0
  161.1510  205.0830  152.8670 C   0  0  0  0  0  2  0  0  0  0  0  0
  1  5  1  6  0  0  0
  1 19  1  0  0  0  0
  2 13  1  0  0  0  0
  3 17  1  0  0  0  0
  4 20  1  0  0  0  0
  4  1  1  0  0  0  0
  6  8  1  0  0  0  0
  7  9  1  0  0  0  0
  7 27  1  0  0  0  0
  8 12  1  0  0  0  0
  8 11  1  0  0  0  0
  9 22  1  0  0  0  0
 10  3  1  0  0  0  0
 11  5  1  0  0  0  0
 12  4  1  0  0  0  0
 13 18  2  0  0  0  0
 14  9  1  0  0  0  0
 15  7  1  0  0  0  0
 16  2  1  0  0  0  0
 17 26  1  0  0  0  0
 19 26  1  0  0  0  0
 19  2  2  0  0  0  0
 20 17  1  0  0  0  0
 21 10  2  0  0  0  0
 22 10  1  0  0  0  0
 22 20  1  0  0  0  0
 23 15  1  0  0  0  0
 23 14  1  0  0  0  0
 25 18  1  0  0  0  0
 26 25  2  0  0  0  0
 27 12  1  0  0  0  0
 27 24  1  0  0  0  0
 28 11  1  0  0  0  0
 28 30  1  0  0  0  0
 29 30  1  0  0  0  0
M  END
>  <MODEL>
6

>  <REMARK>
 VINA RESULT:      -4.5      4.078      7.002
  Name = 
  2 active torsions:
  status: ('A' for Active; 'I' for Inactive)
    1  A    between atoms: C_11  and  C_28
    2  A    between atoms: C_28  and  C_30
                            x       y       z     vdW  Elec       q    Type
                         _______ _______ _______ _____ _____    ______ ____

>  <TORSDO>
F 2

$$$$
=
 OpenBabel11122412443D

 30 35  0  0  1  0  0  0  0  0999 V2000
  161.6330  208.1560  151.4030 C   0  0  2  0  0  3  0  0  0  0  0  0
  161.7430  206.1070  149.8700 C   0  0  0  0  0  0  0  0  0  0  0  0
  160.0640  205.9890  154.2870 O   0  0  0  0  0  0  0  0  0  0  0  0
  160.9430  208.5400  152.7270 C   0  0  2  0  0  3  0  0  0  0  0  0
  161.0320  208.8580  150.3450 O   0  0  0  0  0  0  0  0  0  0  0  0
  161.0240  212.2000  151.7220 O   0  0  0  0  0  1  0  0  0  0  0  0
  161.6240  210.3780  155.3420 C   0  0  2  0  0  3  0  0  0  0  0  0
  160.6700  210.8530  151.5870 C   0  0  1  0  0  3  0  0  0  0  0  0
  160.4650  209.4100  155.5630 C   0  0  2  0  0  3  0  0  0  0  0  0
  159.8230  206.9590  155.2380 C   0  0  0  0  0  0  0  0  0  0  0  0
  161.4580  210.1900  150.4600 C   0  0  2  0  0  3  0  0  0  0  0  0
  160.8670  210.0830  152.9060 C   0  0  2  0  0  3  0  0  0  0  0  0
  161.6690  204.7620  149.6860 N   0  0  0  0  0  0  0  0  0  0  0  0
  160.0630  209.5780  157.0080 C   0  0  0  0  0  2  0  0  0  0  0  0
  161.2680  211.8980  156.2690 S   0  0  0  0  0  0  0  0  0  0  0  0
  162.0390  206.9350  148.7490 N   0  0  0  0  0  1  0  0  0  0  0  0
  161.3140  206.2440  153.6680 C   0  0  2  0  0  3  0  0  0  0  0  0
  161.4440  203.9050  150.7140 C   0  0  0  0  0  3  0  0  0  0  0  0
  161.5510  206.6590  151.1590 C   0  0  0  0  0  0  0  0  0  0  0  0
  161.5810  207.7430  153.8950 C   0  0  2  0  0  3  0  0  0  0  0  0
  158.8310  206.9340  156.0120 O   0  0  0  0  0  0  0  0  0  0  0  0
  160.9070  207.9750  155.2660 C   0  0  1  0  0  3  0  0  0  0  0  0
  159.9840  211.0680  157.2610 C   0  0  0  0  0  2  0  0  0  0  0  0
  163.1970  210.3270  153.5190 O   0  0  0  0  0  1  0  0  0  0  0  0
  161.3030  204.3940  152.0090 C   0  0  0  0  0  3  0  0  0  0  0  0
  161.3680  205.7700  152.2410 C   0  0  0  0  0  0  0  0  0  0  0  0
  161.8970  210.7010  153.8660 C   0  0  2  0  0  3  0  0  0  0  0  0
  161.2080  210.9130  149.1460 C   0  0  0  0  0  2  0  0  0  0  0  0
  162.3190  212.8460  148.3210 O   0  0  0  0  0  1  0  0  0  0  0  0
  162.5030  211.4960  148.6170 C   0  0  0  0  0  2  0  0  0  0  0  0
  1  5  1  6  0  0  0
  1  4  1  0  0  0  0
  2 19  1  0  0  0  0
  3 10  1  0  0  0  0
  4 12  1  0  0  0  0
  4 20  1  0  0  0  0
  5 11  1  0  0  0  0
  7  9  1  0  0  0  0
  7 15  1  0  0  0  0
  8  6  1  0  0  0  0
  8 12  1  0  0  0  0
  9 14  1  0  0  0  0
 10 22  1  0  0  0  0
 10 21  2  0  0  0  0
 11  8  1  0  0  0  0
 12 27  1  0  0  0  0
 13  2  2  0  0  0  0
 13 18  1  0  0  0  0
 14 23  1  0  0  0  0
 15 23  1  0  0  0  0
 16  2  1  0  0  0  0
 17 20  1  0  0  0  0
 17  3  1  0  0  0  0
 18 25  2  0  0  0  0
 19  1  1  0  0  0  0
 19 26  2  0  0  0  0
 20 22  1  0  0  0  0
 22  9  1  0  0  0  0
 24 27  1  0  0  0  0
 25 26  1  0  0  0  0
 26 17  1  0  0  0  0
 27  7  1  0  0  0  0
 28 11  1  0  0  0  0
 29 30  1  0  0  0  0
 30 28  1  0  0  0  0
M  END
>  <MODEL>
7

>  <REMARK>
 VINA RESULT:      -3.9      3.006      4.615
  Name = 
  2 active torsions:
  status: ('A' for Active; 'I' for Inactive)
    1  A    between atoms: C_11  and  C_28
    2  A    between atoms: C_28  and  C_30
                            x       y       z     vdW  Elec       q    Type
                         _______ _______ _______ _____ _____    ______ ____

>  <TORSDO>
F 2

$$$$
