=
 OpenBabel11122414293D

 34 40  0  0  1  0  0  0  0  0999 V2000
  161.1680  211.1180  151.0580 C   0  0  0  0  0  0  0  0  0  0  0  0
  161.8900  209.1470  149.7250 C   0  0  0  0  0  3  0  0  0  0  0  0
  156.5190  212.1530  154.4210 C   0  0  0  0  0  2  0  0  0  0  0  0
  159.9180  212.6540  152.4700 C   0  0  0  0  0  0  0  0  0  0  0  0
  159.5140  212.0600  154.8380 C   0  0  0  0  0  0  0  0  0  0  0  0
  157.7570  211.4390  156.5080 C   0  0  0  0  0  2  0  0  0  0  0  0
  156.4340  211.9590  155.9410 C   0  0  0  0  0  2  0  0  0  0  0  0
  157.4040  214.2570  154.6800 C   0  0  0  0  0  2  0  0  0  0  0  0
  162.2970  209.1480  152.0710 C   0  0  1  0  0  3  0  0  0  0  0  0
  160.7110  206.4680  152.7740 C   0  0  0  0  0  2  0  0  0  0  0  0
  160.1220  210.9280  154.6310 N   0  0  0  0  0  0  0  0  0  0  0  0
  158.7270  214.3130  153.9160 C   0  0  0  0  0  2  0  0  0  0  0  0
  161.3610  209.3110  153.1890 N   0  0  2  0  0  0  0  0  0  0  0  0
  162.0830  207.9190  150.0790 N   0  0  0  0  0  0  0  0  0  0  0  0
  159.3580  212.9990  153.7500 N   0  0  0  0  0  0  0  0  0  0  0  0
  156.4170  213.5040  154.0170 O   0  0  0  0  0  0  0  0  0  0  0  0
  162.1280  206.5690  152.2140 C   0  0  2  0  0  3  0  0  0  0  0  0
  160.6380  211.4530  152.3250 C   0  0  0  0  0  0  0  0  0  0  0  0
  158.8720  212.2850  156.0960 N   0  0  0  0  0  2  0  0  0  0  0  0
  160.7190  210.5920  153.3670 C   0  0  1  0  0  3  0  0  0  0  0  0
  160.1550  213.1110  150.1460 C   0  0  0  0  0  3  0  0  0  0  0  0
  160.5470  207.1780  154.1230 C   0  0  0  0  0  2  0  0  0  0  0  0
  159.7000  213.4460  151.3820 N   0  0  0  0  0  0  0  0  0  0  0  0
  161.4580  208.3920  154.3170 C   0  0  0  0  0  2  0  0  0  0  0  0
  162.2570  207.8200  151.4690 N   0  0  0  0  0  0  0  0  0  0  0  0
  160.8870  211.9380  149.9600 C   0  0  0  0  0  3  0  0  0  0  0  0
  161.8820  209.9930  150.9140 C   0  0  2  0  0  3  0  0  0  0  0  0
  162.4390  205.3710  151.3270 C   0  0  0  0  0  2  0  0  0  0  0  0
  161.5970  204.1760  151.7410 C   0  0  0  0  0  2  0  0  0  0  0  0
  161.3240  203.5270  148.4120 C   0  0  0  0  0  2  0  0  0  0  0  0
  160.7190  202.4430  150.4280 C   0  0  0  0  0  2  0  0  0  0  0  0
  160.6270  203.8710  150.7010 N   0  0  0  0  0  0  0  0  0  0  0  0
  160.7030  202.2630  148.9330 C   0  0  0  0  0  2  0  0  0  0  0  0
  161.0690  204.5590  149.4920 C   0  0  0  0  0  2  0  0  0  0  0  0
  1 18  1  0  0  0  0
  2 14  2  0  0  0  0
  3  7  1  0  0  0  0
  4 15  1  0  0  0  0
  5 19  1  0  0  0  0
  7  6  1  0  0  0  0
  9 25  1  6  0  0  0
  9 13  1  0  0  0  0
 10 22  1  0  0  0  0
 11  5  2  0  0  0  0
 12  8  1  0  0  0  0
 13 20  1  0  0  0  0
 13 24  1  1  0  0  0
 14 25  1  0  0  0  0
 15 12  1  0  0  0  0
 15  5  1  0  0  0  0
 16  3  1  0  0  0  0
 16  8  1  0  0  0  0
 17 28  1  6  0  0  0
 17 10  1  0  0  0  0
 18  4  2  0  0  0  0
 19  6  1  0  0  0  0
 20 18  1  6  0  0  0
 20 11  1  0  0  0  0
 21 23  2  0  0  0  0
 22 24  1  0  0  0  0
 23  4  1  0  0  0  0
 25 17  1  0  0  0  0
 26 21  1  0  0  0  0
 26  1  2  0  0  0  0
 27  2  1  6  0  0  0
 27  1  1  0  0  0  0
 27  9  1  0  0  0  0
 28 29  1  0  0  0  0
 30 33  1  0  0  0  0
 30 34  1  0  0  0  0
 31 32  1  0  0  0  0
 32 29  1  0  0  0  0
 33 31  1  0  0  0  0
 34 32  1  0  0  0  0
M  END
>  <MODEL>
1

>  <REMARK>
 VINA RESULT:      -7.5      0.000      0.000
  Name = 
  3 active torsions:
  status: ('A' for Active; 'I' for Inactive)
    1  A    between atoms: C_17  and  C_28
    2  A    between atoms: C_28  and  C_29
    3  A    between atoms: C_29  and  N_32
                            x       y       z     vdW  Elec       q    Type
                         _______ _______ _______ _____ _____    ______ ____

>  <TORSDO>
F 3

$$$$
=
 OpenBabel11122414293D

 34 40  0  0  1  0  0  0  0  0999 V2000
  160.8310  212.2890  150.3970 C   0  0  0  0  0  0  0  0  0  0  0  0
  161.5730  210.7780  148.5660 C   0  0  0  0  0  3  0  0  0  0  0  0
  156.4250  212.0490  154.2070 C   0  0  0  0  0  2  0  0  0  0  0  0
  159.6020  213.3120  152.2290 C   0  0  0  0  0  0  0  0  0  0  0  0
  159.4440  212.1210  154.3920 C   0  0  0  0  0  0  0  0  0  0  0  0
  157.8830  210.9550  155.9620 C   0  0  0  0  0  2  0  0  0  0  0  0
  156.4830  211.4800  155.6310 C   0  0  0  0  0  2  0  0  0  0  0  0
  157.1810  214.0940  154.9310 C   0  0  0  0  0  2  0  0  0  0  0  0
  162.1770  210.2370  150.8050 C   0  0  1  0  0  3  0  0  0  0  0  0
  160.8460  207.3380  150.9110 C   0  0  0  0  0  2  0  0  0  0  0  0
  160.1090  211.1330  153.8670 N   0  0  0  0  0  0  0  0  0  0  0  0
  158.4270  214.4530  154.1200 C   0  0  0  0  0  2  0  0  0  0  0  0
  161.3300  210.0370  151.9870 N   0  0  2  0  0  0  0  0  0  0  0  0
  161.8800  209.5230  148.5860 N   0  0  0  0  0  0  0  0  0  0  0  0
  159.1310  213.2820  153.5880 N   0  0  0  0  0  0  0  0  0  0  0  0
  156.1950  213.4420  154.1650 O   0  0  0  0  0  0  0  0  0  0  0  0
  162.1990  207.6970  150.3040 C   0  0  2  0  0  3  0  0  0  0  0  0
  160.3890  212.2530  151.7400 C   0  0  0  0  0  0  0  0  0  0  0  0
  158.8960  211.9720  155.7050 N   0  0  0  0  0  2  0  0  0  0  0  0
  160.6180  211.1730  152.5230 C   0  0  1  0  0  3  0  0  0  0  0  0
  159.6090  214.3470  150.0850 C   0  0  0  0  0  3  0  0  0  0  0  0
  160.7490  207.6770  152.4030 C   0  0  0  0  0  2  0  0  0  0  0  0
  159.2390  214.3250  151.3920 N   0  0  0  0  0  0  0  0  0  0  0  0
  161.5860  208.8800  152.8380 C   0  0  0  0  0  2  0  0  0  0  0  0
  162.1770  209.1000  149.8920 N   0  0  0  0  0  0  0  0  0  0  0  0
  160.4020  213.3250  149.5620 C   0  0  0  0  0  3  0  0  0  0  0  0
  161.6070  211.3010  149.9280 C   0  0  2  0  0  3  0  0  0  0  0  0
  162.5160  206.7880  149.1250 C   0  0  0  0  0  2  0  0  0  0  0  0
  161.5150  205.6470  149.0560 C   0  0  0  0  0  2  0  0  0  0  0  0
  162.6940  205.2910  145.8840 C   0  0  0  0  0  2  0  0  0  0  0  0
  161.3100  204.0500  147.3510 C   0  0  0  0  0  2  0  0  0  0  0  0
  161.0840  205.4520  147.6800 N   0  0  0  0  0  0  0  0  0  0  0  0
  161.9340  203.9990  145.9810 C   0  0  0  0  0  2  0  0  0  0  0  0
  161.9850  206.2310  146.8370 C   0  0  0  0  0  2  0  0  0  0  0  0
  1 18  1  0  0  0  0
  2 14  2  0  0  0  0
  3  7  1  0  0  0  0
  4 15  1  0  0  0  0
  5 19  1  0  0  0  0
  7  6  1  0  0  0  0
  9 25  1  6  0  0  0
  9 13  1  0  0  0  0
 10 22  1  0  0  0  0
 11  5  2  0  0  0  0
 12  8  1  0  0  0  0
 13 20  1  0  0  0  0
 13 24  1  1  0  0  0
 14 25  1  0  0  0  0
 15 12  1  0  0  0  0
 15  5  1  0  0  0  0
 16  3  1  0  0  0  0
 16  8  1  0  0  0  0
 17 28  1  6  0  0  0
 17 10  1  0  0  0  0
 18  4  2  0  0  0  0
 19  6  1  0  0  0  0
 20 18  1  6  0  0  0
 20 11  1  0  0  0  0
 21 23  2  0  0  0  0
 22 24  1  0  0  0  0
 23  4  1  0  0  0  0
 25 17  1  0  0  0  0
 26 21  1  0  0  0  0
 26  1  2  0  0  0  0
 27  2  1  6  0  0  0
 27  1  1  0  0  0  0
 27  9  1  0  0  0  0
 29 28  1  0  0  0  0
 30 33  1  0  0  0  0
 30 34  1  0  0  0  0
 31 32  1  0  0  0  0
 32 29  1  0  0  0  0
 33 31  1  0  0  0  0
 34 32  1  0  0  0  0
M  END
>  <MODEL>
2

>  <REMARK>
 VINA RESULT:      -7.1      1.527      1.906
  Name = 
  3 active torsions:
  status: ('A' for Active; 'I' for Inactive)
    1  A    between atoms: C_17  and  C_28
    2  A    between atoms: C_28  and  C_29
    3  A    between atoms: C_29  and  N_32
                            x       y       z     vdW  Elec       q    Type
                         _______ _______ _______ _____ _____    ______ ____

>  <TORSDO>
F 3

$$$$
=
 OpenBabel11122414293D

 34 40  0  0  1  0  0  0  0  0999 V2000
  161.8590  208.9910  150.4250 C   0  0  0  0  0  0  0  0  0  0  0  0
  161.3970  207.8840  148.2470 C   0  0  0  0  0  3  0  0  0  0  0  0
  159.0100  209.1010  155.5100 C   0  0  0  0  0  2  0  0  0  0  0  0
  161.7070  209.8060  152.7120 C   0  0  0  0  0  0  0  0  0  0  0  0
  161.7370  208.1810  154.5770 C   0  0  0  0  0  0  0  0  0  0  0  0
  160.3750  207.1750  156.4200 C   0  0  0  0  0  2  0  0  0  0  0  0
  159.2540  208.1760  156.7110 C   0  0  0  0  0  2  0  0  0  0  0  0
  160.6690  210.5320  156.2000 C   0  0  0  0  0  2  0  0  0  0  0  0
  162.3670  206.5940  149.9980 C   0  0  1  0  0  3  0  0  0  0  0  0
  160.1150  204.3370  150.1550 C   0  0  0  0  0  2  0  0  0  0  0  0
  161.7870  207.2170  153.7040 N   0  0  0  0  0  0  0  0  0  0  0  0
  161.6640  210.6940  155.0510 C   0  0  0  0  0  2  0  0  0  0  0  0
  161.8900  206.3520  151.3650 N   0  0  2  0  0  0  0  0  0  0  0  0
  161.1890  206.6400  147.9660 N   0  0  0  0  0  0  0  0  0  0  0  0
  161.6760  209.5530  154.1280 N   0  0  0  0  0  0  0  0  0  0  0  0
  159.3320  210.4530  155.7640 O   0  0  0  0  0  0  0  0  0  0  0  0
  161.2640  204.4110  149.1520 C   0  0  2  0  0  3  0  0  0  0  0  0
  161.8470  208.7300  151.8150 C   0  0  0  0  0  0  0  0  0  0  0  0
  161.5800  207.8570  155.9620 N   0  0  0  0  0  2  0  0  0  0  0  0
  161.8590  207.4620  152.2880 C   0  0  1  0  0  3  0  0  0  0  0  0
  161.4900  211.3300  150.8960 C   0  0  0  0  0  3  0  0  0  0  0  0
  160.5930  204.2690  151.6100 C   0  0  0  0  0  2  0  0  0  0  0  0
  161.5360  211.0690  152.2290 N   0  0  0  0  0  0  0  0  0  0  0  0
  161.9160  204.9880  151.8790 C   0  0  0  0  0  2  0  0  0  0  0  0
  161.6650  205.8080  148.9900 N   0  0  0  0  0  0  0  0  0  0  0  0
  161.6400  210.2960  149.9720 C   0  0  0  0  0  3  0  0  0  0  0  0
  162.0230  207.9790  149.5620 C   0  0  2  0  0  3  0  0  0  0  0  0
  160.8500  203.8050  147.8180 C   0  0  0  0  0  2  0  0  0  0  0  0
  162.0230  203.0770  147.1830 C   0  0  0  0  0  2  0  0  0  0  0  0
  160.7050  205.1530  144.8310 C   0  0  0  0  0  2  0  0  0  0  0  0
  162.8510  204.7300  145.7410 C   0  0  0  0  0  2  0  0  0  0  0  0
  162.1410  203.4570  145.7840 N   0  0  0  0  0  0  0  0  0  0  0  0
  162.1310  205.6190  144.7600 C   0  0  0  0  0  2  0  0  0  0  0  0
  160.7900  203.7140  145.2970 C   0  0  0  0  0  2  0  0  0  0  0  0
  1 18  1  0  0  0  0
  3 16  1  0  0  0  0
  3  7  1  0  0  0  0
  4 15  1  0  0  0  0
  5 19  1  0  0  0  0
  6  7  1  0  0  0  0
  9 25  1  6  0  0  0
  9 13  1  0  0  0  0
 10 22  1  0  0  0  0
 11  5  2  0  0  0  0
 12  8  1  0  0  0  0
 13 24  1  1  0  0  0
 13 20  1  0  0  0  0
 14  2  2  0  0  0  0
 14 25  1  0  0  0  0
 15  5  1  0  0  0  0
 15 12  1  0  0  0  0
 16  8  1  0  0  0  0
 17 28  1  6  0  0  0
 17 10  1  0  0  0  0
 18  4  2  0  0  0  0
 19  6  1  0  0  0  0
 20 18  1  6  0  0  0
 20 11  1  0  0  0  0
 21 23  2  0  0  0  0
 22 24  1  0  0  0  0
 23  4  1  0  0  0  0
 25 17  1  0  0  0  0
 26  1  2  0  0  0  0
 26 21  1  0  0  0  0
 27  2  1  1  0  0  0
 27  9  1  0  0  0  0
 27  1  1  0  0  0  0
 29 28  1  0  0  0  0
 30 34  1  0  0  0  0
 31 32  1  0  0  0  0
 32 29  1  0  0  0  0
 33 30  1  0  0  0  0
 33 31  1  0  0  0  0
 34 32  1  0  0  0  0
M  END
>  <MODEL>
3

>  <REMARK>
 VINA RESULT:      -5.8      2.500      4.008
  Name = 
  3 active torsions:
  status: ('A' for Active; 'I' for Inactive)
    1  A    between atoms: C_17  and  C_28
    2  A    between atoms: C_28  and  C_29
    3  A    between atoms: C_29  and  N_32
                            x       y       z     vdW  Elec       q    Type
                         _______ _______ _______ _____ _____    ______ ____

>  <TORSDO>
F 3

$$$$
=
 OpenBabel11122414293D

 34 40  0  0  1  0  0  0  0  0999 V2000
  162.0020  207.8370  149.6890 C   0  0  0  0  0  0  0  0  0  0  0  0
  161.3940  206.2740  147.8520 C   0  0  0  0  0  3  0  0  0  0  0  0
  159.2050  209.6100  154.4870 C   0  0  0  0  0  2  0  0  0  0  0  0
  161.9640  209.2250  151.6850 C   0  0  0  0  0  0  0  0  0  0  0  0
  161.7870  208.1440  153.9040 C   0  0  0  0  0  0  0  0  0  0  0  0
  160.3110  207.8270  155.9000 C   0  0  0  0  0  2  0  0  0  0  0  0
  159.3310  209.0030  155.8910 C   0  0  0  0  0  2  0  0  0  0  0  0
  161.0380  210.9500  154.8390 C   0  0  0  0  0  2  0  0  0  0  0  0
  162.1940  205.3670  149.9040 C   0  0  1  0  0  3  0  0  0  0  0  0
  159.6690  203.5290  150.5620 C   0  0  0  0  0  2  0  0  0  0  0  0
  161.7090  206.9910  153.3080 N   0  0  0  0  0  0  0  0  0  0  0  0
  162.0430  210.6830  153.7170 C   0  0  0  0  0  2  0  0  0  0  0  0
  161.6940  205.5470  151.2710 N   0  0  2  0  0  0  0  0  0  0  0  0
  161.0260  205.0360  147.8920 N   0  0  0  0  0  0  0  0  0  0  0  0
  161.9040  209.3520  153.1170 N   0  0  0  0  0  0  0  0  0  0  0  0
  159.7010  210.9300  154.3960 O   0  0  0  0  0  0  0  0  0  0  0  0
  160.8150  203.1960  149.6100 C   0  0  2  0  0  3  0  0  0  0  0  0
  161.9610  207.9460  151.0980 C   0  0  0  0  0  0  0  0  0  0  0  0
  161.5940  208.2100  155.3200 N   0  0  0  0  0  2  0  0  0  0  0  0
  161.8090  206.8520  151.8790 C   0  0  1  0  0  3  0  0  0  0  0  0
  161.9410  210.2460  149.5350 C   0  0  0  0  0  3  0  0  0  0  0  0
  160.1380  203.7780  152.0000 C   0  0  0  0  0  2  0  0  0  0  0  0
  161.9570  210.3330  150.8910 N   0  0  0  0  0  0  0  0  0  0  0  0
  161.5430  204.3690  152.1180 C   0  0  0  0  0  2  0  0  0  0  0  0
  161.3930  204.4430  149.1090 N   0  0  0  0  0  0  0  0  0  0  0  0
  161.9540  208.9980  148.9100 C   0  0  0  0  0  3  0  0  0  0  0  0
  162.0310  206.6240  149.1180 C   0  0  2  0  0  3  0  0  0  0  0  0
  160.3220  202.3250  148.4630 C   0  0  0  0  0  2  0  0  0  0  0  0
  161.3280  201.2250  148.1660 C   0  0  0  0  0  2  0  0  0  0  0  0
  160.1010  199.9330  145.2670 C   0  0  0  0  0  2  0  0  0  0  0  0
  160.6560  202.0840  146.0910 C   0  0  0  0  0  2  0  0  0  0  0  0
  161.5800  201.1600  146.7360 N   0  0  0  0  0  0  0  0  0  0  0  0
  160.0810  201.3860  144.8860 C   0  0  0  0  0  2  0  0  0  0  0  0
  161.2060  199.8190  146.2980 C   0  0  0  0  0  2  0  0  0  0  0  0
  1 18  1  0  0  0  0
  2 14  2  0  0  0  0
  3  7  1  0  0  0  0
  4 15  1  0  0  0  0
  5 19  1  0  0  0  0
  7  6  1  0  0  0  0
  9 25  1  6  0  0  0
  9 13  1  0  0  0  0
 10 22  1  0  0  0  0
 11  5  2  0  0  0  0
 12  8  1  0  0  0  0
 13 20  1  0  0  0  0
 13 24  1  1  0  0  0
 14 25  1  0  0  0  0
 15 12  1  0  0  0  0
 15  5  1  0  0  0  0
 16  3  1  0  0  0  0
 16  8  1  0  0  0  0
 17 28  1  6  0  0  0
 17 10  1  0  0  0  0
 18  4  2  0  0  0  0
 19  6  1  0  0  0  0
 20 18  1  6  0  0  0
 20 11  1  0  0  0  0
 21 23  2  0  0  0  0
 22 24  1  0  0  0  0
 23  4  1  0  0  0  0
 25 17  1  0  0  0  0
 26 21  1  0  0  0  0
 26  1  2  0  0  0  0
 27  2  1  1  0  0  0
 27  1  1  0  0  0  0
 27  9  1  0  0  0  0
 29 28  1  0  0  0  0
 30 34  1  0  0  0  0
 31 32  1  0  0  0  0
 32 29  1  0  0  0  0
 33 30  1  0  0  0  0
 33 31  1  0  0  0  0
 34 32  1  0  0  0  0
M  END
>  <MODEL>
4

>  <REMARK>
 VINA RESULT:      -5.7      2.622      4.309
  Name = 
  3 active torsions:
  status: ('A' for Active; 'I' for Inactive)
    1  A    between atoms: C_17  and  C_28
    2  A    between atoms: C_28  and  C_29
    3  A    between atoms: C_29  and  N_32
                            x       y       z     vdW  Elec       q    Type
                         _______ _______ _______ _____ _____    ______ ____

>  <TORSDO>
F 3

$$$$
=
 OpenBabel11122414293D

 34 40  0  0  1  0  0  0  0  0999 V2000
  161.7310  209.6800  150.5760 C   0  0  0  0  0  0  0  0  0  0  0  0
  162.0760  207.6240  149.2210 C   0  0  0  0  0  3  0  0  0  0  0  0
  157.3720  211.5010  153.9920 C   0  0  0  0  0  2  0  0  0  0  0  0
  160.7890  211.4010  152.0130 C   0  0  0  0  0  0  0  0  0  0  0  0
  160.3040  210.8670  154.3800 C   0  0  0  0  0  0  0  0  0  0  0  0
  158.4780  210.5560  156.0610 C   0  0  0  0  0  2  0  0  0  0  0  0
  157.2650  211.3110  155.5110 C   0  0  0  0  0  2  0  0  0  0  0  0
  158.6230  213.4090  154.2600 C   0  0  0  0  0  2  0  0  0  0  0  0
  162.4960  207.5290  151.5630 C   0  0  1  0  0  3  0  0  0  0  0  0
  160.4590  205.1710  152.2590 C   0  0  0  0  0  2  0  0  0  0  0  0
  160.6970  209.6460  154.1580 N   0  0  0  0  0  0  0  0  0  0  0  0
  159.9280  213.2340  153.4830 C   0  0  0  0  0  2  0  0  0  0  0  0
  161.6140  207.8470  152.6910 N   0  0  2  0  0  0  0  0  0  0  0  0
  162.0480  206.3780  149.5640 N   0  0  0  0  0  0  0  0  0  0  0  0
  160.3110  211.8300  153.3010 N   0  0  0  0  0  0  0  0  0  0  0  0
  157.5100  212.8520  153.6010 O   0  0  0  0  0  0  0  0  0  0  0  0
  161.8670  205.0210  151.6870 C   0  0  2  0  0  3  0  0  0  0  0  0
  161.2810  210.0920  151.8520 C   0  0  0  0  0  0  0  0  0  0  0  0
  159.7230  211.1920  155.6450 N   0  0  0  0  0  2  0  0  0  0  0  0
  161.2140  209.2210  152.8850 C   0  0  1  0  0  3  0  0  0  0  0  0
  161.0860  211.8310  149.6900 C   0  0  0  0  0  3  0  0  0  0  0  0
  160.4370  205.8860  153.6160 C   0  0  0  0  0  2  0  0  0  0  0  0
  160.7090  212.2300  150.9330 N   0  0  0  0  0  0  0  0  0  0  0  0
  161.5520  206.9150  153.8110 C   0  0  0  0  0  2  0  0  0  0  0  0
  162.2120  206.2360  150.9500 N   0  0  0  0  0  0  0  0  0  0  0  0
  161.5940  210.5470  149.4870 C   0  0  0  0  0  3  0  0  0  0  0  0
  162.2300  208.4460  150.4170 C   0  0  2  0  0  3  0  0  0  0  0  0
  161.9500  203.7960  150.7870 C   0  0  0  0  0  2  0  0  0  0  0  0
  160.8510  202.8070  151.1400 C   0  0  0  0  0  2  0  0  0  0  0  0
  161.4900  202.2680  147.8410 C   0  0  0  0  0  2  0  0  0  0  0  0
  160.8460  200.9540  149.7030 C   0  0  0  0  0  2  0  0  0  0  0  0
  160.2610  202.2710  149.9240 N   0  0  0  0  0  0  0  0  0  0  0  0
  161.1970  200.8510  148.2420 C   0  0  0  0  0  2  0  0  0  0  0  0
  160.7090  203.1180  148.8230 C   0  0  0  0  0  2  0  0  0  0  0  0
  1 18  1  0  0  0  0
  2 14  2  0  0  0  0
  3  7  1  0  0  0  0
  4 15  1  0  0  0  0
  5 19  1  0  0  0  0
  7  6  1  0  0  0  0
  9 25  1  6  0  0  0
  9 13  1  0  0  0  0
 10 22  1  0  0  0  0
 11  5  2  0  0  0  0
 12  8  1  0  0  0  0
 13 20  1  0  0  0  0
 13 24  1  1  0  0  0
 14 25  1  0  0  0  0
 15 12  1  0  0  0  0
 15  5  1  0  0  0  0
 16  3  1  0  0  0  0
 16  8  1  0  0  0  0
 17 28  1  6  0  0  0
 17 10  1  0  0  0  0
 18  4  2  0  0  0  0
 19  6  1  0  0  0  0
 20 18  1  6  0  0  0
 20 11  1  0  0  0  0
 21 23  2  0  0  0  0
 22 24  1  0  0  0  0
 23  4  1  0  0  0  0
 25 17  1  0  0  0  0
 26 21  1  0  0  0  0
 26  1  2  0  0  0  0
 27  2  1  6  0  0  0
 27  1  1  0  0  0  0
 27  9  1  0  0  0  0
 28 29  1  0  0  0  0
 30 33  1  0  0  0  0
 30 34  1  0  0  0  0
 31 32  1  0  0  0  0
 32 29  1  0  0  0  0
 33 31  1  0  0  0  0
 34 32  1  0  0  0  0
M  END
>  <MODEL>
5

>  <REMARK>
 VINA RESULT:      -5.6      1.251      1.560
  Name = 
  3 active torsions:
  status: ('A' for Active; 'I' for Inactive)
    1  A    between atoms: C_17  and  C_28
    2  A    between atoms: C_28  and  C_29
    3  A    between atoms: C_29  and  N_32
                            x       y       z     vdW  Elec       q    Type
                         _______ _______ _______ _____ _____    ______ ____

>  <TORSDO>
F 3

$$$$
=
 OpenBabel11122414293D

 34 40  0  0  1  0  0  0  0  0999 V2000
  161.2130  204.6850  150.8820 C   0  0  0  0  0  0  0  0  0  0  0  0
  160.7120  206.2710  152.7310 C   0  0  0  0  0  3  0  0  0  0  0  0
  159.6750  204.5220  145.2610 C   0  0  0  0  0  2  0  0  0  0  0  0
  161.2800  203.5440  148.7360 C   0  0  0  0  0  0  0  0  0  0  0  0
  162.2820  204.6950  146.7870 C   0  0  0  0  0  0  0  0  0  0  0  0
  161.7930  205.7120  144.5540 C   0  0  0  0  0  2  0  0  0  0  0  0
  160.4820  205.0780  144.0800 C   0  0  0  0  0  2  0  0  0  0  0  0
  160.8310  202.5380  145.1920 C   0  0  0  0  0  2  0  0  0  0  0  0
  162.4270  206.8350  151.1780 C   0  0  1  0  0  3  0  0  0  0  0  0
  161.2060  209.6150  150.1930 C   0  0  0  0  0  2  0  0  0  0  0  0
  162.4780  205.7400  147.5370 N   0  0  0  0  0  0  0  0  0  0  0  0
  161.4330  202.2900  146.5750 C   0  0  0  0  0  2  0  0  0  0  0  0
  162.3730  206.9530  149.7170 N   0  0  2  0  0  0  0  0  0  0  0  0
  160.9000  207.5470  152.8160 N   0  0  0  0  0  0  0  0  0  0  0  0
  161.6460  203.5210  147.3440 N   0  0  0  0  0  0  0  0  0  0  0  0
  159.5470  203.1150  145.2450 O   0  0  0  0  0  0  0  0  0  0  0  0
  162.0100  209.3730  151.4680 C   0  0  2  0  0  3  0  0  0  0  0  0
  161.5940  204.6700  149.5200 C   0  0  0  0  0  0  0  0  0  0  0  0
  162.5510  204.7840  145.3860 N   0  0  0  0  0  2  0  0  0  0  0  0
  162.1530  205.7560  148.9380 C   0  0  1  0  0  3  0  0  0  0  0  0
  160.1550  202.5370  150.5750 C   0  0  0  0  0  3  0  0  0  0  0  0
  161.9780  209.2530  148.9190 C   0  0  0  0  0  2  0  0  0  0  0  0
  160.5750  202.5140  149.2830 N   0  0  0  0  0  0  0  0  0  0  0  0
  162.9880  208.1170  149.0890 C   0  0  0  0  0  2  0  0  0  0  0  0
  161.8480  207.9780  151.8750 N   0  0  0  0  0  0  0  0  0  0  0  0
  160.4560  203.6260  151.3940 C   0  0  0  0  0  3  0  0  0  0  0  0
  161.5330  205.7380  151.6480 C   0  0  2  0  0  3  0  0  0  0  0  0
  161.5590  210.3190  152.5720 C   0  0  0  0  0  2  0  0  0  0  0  0
  160.4580  211.2350  152.0650 C   0  0  0  0  0  2  0  0  0  0  0  0
  158.0330  211.4540  154.4420 C   0  0  0  0  0  2  0  0  0  0  0  0
  160.4010  211.4580  154.3980 C   0  0  0  0  0  2  0  0  0  0  0  0
  159.9780  212.0780  153.1490 N   0  0  0  0  0  0  0  0  0  0  0  0
  159.2300  211.5010  155.3460 C   0  0  0  0  0  2  0  0  0  0  0  0
  158.5200  212.0170  153.1220 C   0  0  0  0  0  2  0  0  0  0  0  0
  1 26  1  0  0  0  0
  1 27  1  0  0  0  0
  2 14  2  0  0  0  0
  4 23  2  0  0  0  0
  4 18  1  0  0  0  0
  5 15  1  0  0  0  0
  5 11  2  0  0  0  0
  6 19  1  0  0  0  0
  7  6  1  0  0  0  0
  7  3  1  0  0  0  0
  8 16  1  0  0  0  0
  8 12  1  0  0  0  0
  9 27  1  0  0  0  0
  9 25  1  1  0  0  0
 10 17  1  0  0  0  0
 12 15  1  0  0  0  0
 13 24  1  6  0  0  0
 13  9  1  0  0  0  0
 15  4  1  0  0  0  0
 16  3  1  0  0  0  0
 17 25  1  0  0  0  0
 17 28  1  1  0  0  0
 18  1  2  0  0  0  0
 19  5  1  0  0  0  0
 20 11  1  6  0  0  0
 20 18  1  0  0  0  0
 20 13  1  0  0  0  0
 21 26  2  0  0  0  0
 22 24  1  0  0  0  0
 22 10  1  0  0  0  0
 23 21  1  0  0  0  0
 25 14  1  0  0  0  0
 27  2  1  6  0  0  0
 29 28  1  0  0  0  0
 29 32  1  0  0  0  0
 30 33  1  0  0  0  0
 31 33  1  0  0  0  0
 32 31  1  0  0  0  0
 34 32  1  0  0  0  0
 34 30  1  0  0  0  0
M  END
>  <MODEL>
6

>  <REMARK>
 VINA RESULT:      -5.5      3.256      9.376
  Name = 
  3 active torsions:
  status: ('A' for Active; 'I' for Inactive)
    1  A    between atoms: C_17  and  C_28
    2  A    between atoms: C_28  and  C_29
    3  A    between atoms: C_29  and  N_32
                            x       y       z     vdW  Elec       q    Type
                         _______ _______ _______ _____ _____    ______ ____

>  <TORSDO>
F 3

$$$$
=
 OpenBabel11122414293D

 34 40  0  0  1  0  0  0  0  0999 V2000
  161.1140  203.9990  151.0300 C   0  0  0  0  0  0  0  0  0  0  0  0
  160.4870  205.1330  153.1520 C   0  0  0  0  0  3  0  0  0  0  0  0
  159.7650  204.9910  145.4460 C   0  0  0  0  0  2  0  0  0  0  0  0
  161.2990  203.3480  148.6940 C   0  0  0  0  0  0  0  0  0  0  0  0
  162.3120  204.9240  147.0770 C   0  0  0  0  0  0  0  0  0  0  0  0
  161.8510  206.3780  145.0940 C   0  0  0  0  0  2  0  0  0  0  0  0
  160.5850  205.8160  144.4430 C   0  0  0  0  0  2  0  0  0  0  0  0
  161.0060  203.1100  145.0020 C   0  0  0  0  0  2  0  0  0  0  0  0
  162.2250  206.0760  151.8260 C   0  0  1  0  0  3  0  0  0  0  0  0
  160.9180  208.9580  151.4060 C   0  0  0  0  0  2  0  0  0  0  0  0
  162.4390  205.7890  148.0400 N   0  0  0  0  0  0  0  0  0  0  0  0
  161.5730  202.5920  146.3240 C   0  0  0  0  0  2  0  0  0  0  0  0
  162.2130  206.5020  150.4220 N   0  0  2  0  0  0  0  0  0  0  0  0
  160.6180  206.3670  153.5140 N   0  0  0  0  0  0  0  0  0  0  0  0
  161.7100  203.6370  147.3450 N   0  0  0  0  0  0  0  0  0  0  0  0
  159.6980  203.6170  145.1250 O   0  0  0  0  0  0  0  0  0  0  0  0
  161.6910  208.4770  152.6320 C   0  0  2  0  0  3  0  0  0  0  0  0
  161.5390  204.2890  149.7120 C   0  0  0  0  0  0  0  0  0  0  0  0
  162.6220  205.3210  145.7390 N   0  0  0  0  0  2  0  0  0  0  0  0
  162.0690  205.4940  149.3980 C   0  0  1  0  0  3  0  0  0  0  0  0
  160.1590  201.9310  150.2300 C   0  0  0  0  0  3  0  0  0  0  0  0
  161.7460  208.9050  150.1170 C   0  0  0  0  0  2  0  0  0  0  0  0
  160.6210  202.2000  148.9810 N   0  0  0  0  0  0  0  0  0  0  0  0
  162.7970  207.7950  150.0810 C   0  0  0  0  0  2  0  0  0  0  0  0
  161.5760  207.0220  152.7250 N   0  0  0  0  0  0  0  0  0  0  0  0
  160.3870  202.8280  151.2730 C   0  0  0  0  0  3  0  0  0  0  0  0
  161.3640  204.8740  152.0140 C   0  0  2  0  0  3  0  0  0  0  0  0
  161.1650  209.1480  153.8940 C   0  0  0  0  0  2  0  0  0  0  0  0
  160.5180  210.4800  153.5520 C   0  0  0  0  0  2  0  0  0  0  0  0
  159.8960  211.1030  156.8390 C   0  0  0  0  0  2  0  0  0  0  0  0
  161.8120  210.8730  155.4670 C   0  0  0  0  0  2  0  0  0  0  0  0
  160.7780  211.4410  154.6130 N   0  0  0  0  0  0  0  0  0  0  0  0
  161.3960  211.0970  156.8980 C   0  0  0  0  0  2  0  0  0  0  0  0
  159.5650  211.5210  155.4200 C   0  0  0  0  0  2  0  0  0  0  0  0
  1 26  1  0  0  0  0
  1 27  1  0  0  0  0
  2 14  2  0  0  0  0
  4 23  2  0  0  0  0
  4 18  1  0  0  0  0
  5 15  1  0  0  0  0
  5 11  2  0  0  0  0
  6 19  1  0  0  0  0
  7  6  1  0  0  0  0
  7  3  1  0  0  0  0
  8 16  1  0  0  0  0
  8 12  1  0  0  0  0
  9 27  1  0  0  0  0
  9 25  1  1  0  0  0
 10 17  1  0  0  0  0
 12 15  1  0  0  0  0
 13 24  1  6  0  0  0
 13  9  1  0  0  0  0
 15  4  1  0  0  0  0
 16  3  1  0  0  0  0
 17 25  1  0  0  0  0
 17 28  1  1  0  0  0
 18  1  2  0  0  0  0
 19  5  1  0  0  0  0
 20 11  1  6  0  0  0
 20 18  1  0  0  0  0
 20 13  1  0  0  0  0
 21 26  2  0  0  0  0
 22 10  1  0  0  0  0
 23 21  1  0  0  0  0
 24 22  1  0  0  0  0
 25 14  1  0  0  0  0
 27  2  1  6  0  0  0
 29 28  1  0  0  0  0
 29 32  1  0  0  0  0
 30 33  1  0  0  0  0
 31 33  1  0  0  0  0
 32 34  1  0  0  0  0
 32 31  1  0  0  0  0
 34 30  1  0  0  0  0
M  END
>  <MODEL>
7

>  <REMARK>
 VINA RESULT:      -5.2      3.281      9.348
  Name = 
  3 active torsions:
  status: ('A' for Active; 'I' for Inactive)
    1  A    between atoms: C_17  and  C_28
    2  A    between atoms: C_28  and  C_29
    3  A    between atoms: C_29  and  N_32
                            x       y       z     vdW  Elec       q    Type
                         _______ _______ _______ _____ _____    ______ ____

>  <TORSDO>
F 3

$$$$
