=
 OpenBabel11122413113D

 31 35  0  0  1  0  0  0  0  0999 V2000
  161.3240  207.8510  151.5840 C   0  0  0  0  0  0  0  0  0  0  0  0
  159.4840  210.5630  153.4390 C   0  0  2  0  0  3  0  0  0  0  0  0
  160.1380  210.9400  154.7540 C   0  0  0  0  0  0  0  0  0  0  0  0
  161.6390  210.4300  156.5960 C   0  0  0  0  0  0  0  0  0  0  0  0
  160.4340  209.8650  152.5080 C   0  0  0  0  0  0  0  0  0  0  0  0
  162.2080  208.5890  150.6800 C   0  0  0  0  0  3  0  0  0  0  0  0
  161.0630  210.0840  155.3720 C   0  0  0  0  0  3  0  0  0  0  0  0
  159.9050  212.6680  152.0480 C   0  0  2  0  0  3  0  0  0  0  0  0
  161.3260  206.5930  151.5840 O   0  0  0  0  0  0  0  0  0  0  0  0
  158.8060  212.9780  154.8390 O   0  0  0  0  0  0  0  0  0  0  0  0
  162.6290  209.5230  157.2340 C   0  0  0  0  0  1  0  0  0  0  0  0
  160.7220  211.8570  151.0450 C   0  0  0  0  0  2  0  0  0  0  0  0
  158.8450  211.7770  152.7260 C   0  0  2  0  0  3  0  0  0  0  0  0
  160.4340  208.5660  152.4470 N   0  0  0  0  0  0  0  0  0  0  0  0
  161.2880  211.6290  157.2210 C   0  0  0  0  0  3  0  0  0  0  0  0
  161.4360  210.7030  151.7380 C   0  0  2  0  0  3  0  0  0  0  0  0
  162.2410  209.9190  150.7360 C   0  0  0  0  0  3  0  0  0  0  0  0
  158.0080  212.5680  153.7320 C   0  0  0  0  0  2  0  0  0  0  0  0
  159.7600  212.1300  155.4100 C   0  0  0  0  0  0  0  0  0  0  0  0
  160.3480  212.4770  156.6290 C   0  0  0  0  0  3  0  0  0  0  0  0
  159.2700  213.7800  151.3510 N   0  0  0  0  0  2  0  0  0  0  0  0
  157.6090  212.8750  149.9960 O   0  0  0  0  0  1  0  0  0  0  0  0
  158.9350  213.3200  150.0100 C   0  0  1  0  0  3  0  0  0  0  0  0
  159.5280  213.2780  146.3320 N   0  0  0  0  0  0  0  0  0  0  0  0
  158.0160  214.3940  147.9180 C   0  0  0  0  0  2  0  0  0  0  0  0
  161.5490  214.4520  149.1640 O   0  0  0  0  0  1  0  0  0  0  0  0
  159.6610  212.0850  145.5160 C   0  0  0  0  0  1  0  0  0  0  0  0
  158.2270  213.1880  146.9950 C   0  0  0  0  0  2  0  0  0  0  0  0
  160.4820  214.4260  148.2660 C   0  0  2  0  0  3  0  0  0  0  0  0
  159.1200  214.4520  148.9830 C   0  0  2  0  0  3  0  0  0  0  0  0
  160.5820  213.2140  147.3430 C   0  0  0  0  0  2  0  0  0  0  0  0
  1 14  1  0  0  0  0
  2  5  1  6  0  0  0
  2  3  1  0  0  0  0
  3  7  2  0  0  0  0
  3 19  1  0  0  0  0
  4 15  2  0  0  0  0
  4 11  1  0  0  0  0
  6 17  2  0  0  0  0
  6  1  1  0  0  0  0
  7  4  1  0  0  0  0
  8 21  1  6  0  0  0
  8 13  1  0  0  0  0
  9  1  2  0  0  0  0
 10 19  1  0  0  0  0
 12 16  1  0  0  0  0
 12  8  1  0  0  0  0
 13  2  1  0  0  0  0
 13 18  1  1  0  0  0
 14  5  2  0  0  0  0
 16 17  1  6  0  0  0
 16  5  1  0  0  0  0
 18 10  1  0  0  0  0
 19 20  2  0  0  0  0
 20 15  1  0  0  0  0
 23 22  1  1  0  0  0
 23 21  1  0  0  0  0
 24 28  1  0  0  0  0
 24 31  1  0  0  0  0
 25 30  1  0  0  0  0
 27 24  1  0  0  0  0
 28 25  1  0  0  0  0
 29 30  1  0  0  0  0
 29 26  1  1  0  0  0
 30 23  1  1  0  0  0
 31 29  1  0  0  0  0
M  END
>  <MODEL>
1

>  <REMARK>
 VINA RESULT:      -5.6      0.000      0.000
  Name = 
  3 active torsions:
  status: ('A' for Active; 'I' for Inactive)
    1  A    between atoms: C_5  and  N_16
    2  A    between atoms: C_5  and  C_30
    3  A    between atoms: C_10  and  N_16
                            x       y       z     vdW  Elec       q    Type
                         _______ _______ _______ _____ _____    ______ ____

>  <TORSDO>
F 3

$$$$
=
 OpenBabel11122413113D

 31 35  0  0  1  0  0  0  0  0999 V2000
  161.0020  208.1290  156.2730 C   0  0  0  0  0  0  0  0  0  0  0  0
  161.9900  209.0360  152.7550 C   0  0  2  0  0  3  0  0  0  0  0  0
  161.5620  208.0060  151.7270 C   0  0  0  0  0  0  0  0  0  0  0  0
  160.8530  205.7530  151.1540 C   0  0  0  0  0  0  0  0  0  0  0  0
  161.2080  208.9270  154.0320 C   0  0  0  0  0  0  0  0  0  0  0  0
  159.7160  208.8040  156.4570 C   0  0  0  0  0  3  0  0  0  0  0  0
  161.2210  206.7000  152.1130 C   0  0  0  0  0  3  0  0  0  0  0  0
  160.4620  211.0000  152.1620 C   0  0  2  0  0  3  0  0  0  0  0  0
  161.4980  207.4490  157.2090 O   0  0  0  0  0  0  0  0  0  0  0  0
  161.9580  209.6140  149.9410 O   0  0  0  0  0  0  0  0  0  0  0  0
  160.4790  204.3770  151.5760 C   0  0  0  0  0  1  0  0  0  0  0  0
  159.8260  210.9390  153.5500 C   0  0  0  0  0  2  0  0  0  0  0  0
  161.9130  210.4810  152.2120 C   0  0  2  0  0  3  0  0  0  0  0  0
  161.7080  208.2710  155.0370 N   0  0  0  0  0  0  0  0  0  0  0  0
  160.8340  206.0970  149.8010 C   0  0  0  0  0  3  0  0  0  0  0  0
  159.8090  209.5090  154.0730 C   0  0  2  0  0  3  0  0  0  0  0  0
  159.1720  209.4670  155.4380 C   0  0  0  0  0  3  0  0  0  0  0  0
  162.5760  210.5370  150.8350 C   0  0  0  0  0  2  0  0  0  0  0  0
  161.5780  208.3350  150.3550 C   0  0  0  0  0  0  0  0  0  0  0  0
  161.1980  207.3860  149.4020 C   0  0  0  0  0  3  0  0  0  0  0  0
  160.4260  212.3770  151.6860 N   0  0  0  0  0  2  0  0  0  0  0  0
  158.1050  212.5320  151.7460 O   0  0  0  0  0  1  0  0  0  0  0  0
  159.2130  212.5340  150.8940 C   0  0  1  0  0  3  0  0  0  0  0  0
  157.9400  213.4150  147.5060 N   0  0  0  0  0  0  0  0  0  0  0  0
  157.8310  214.3310  149.7850 C   0  0  0  0  0  2  0  0  0  0  0  0
  161.3210  213.2690  148.9320 O   0  0  0  0  0  1  0  0  0  0  0  0
  157.2650  212.5060  146.5990 C   0  0  0  0  0  1  0  0  0  0  0  0
  157.1640  213.4230  148.7460 C   0  0  0  0  0  2  0  0  0  0  0  0
  160.0160  213.7300  148.7540 C   0  0  2  0  0  3  0  0  0  0  0  0
  159.2540  213.8440  150.0870 C   0  0  2  0  0  3  0  0  0  0  0  0
  159.2570  212.8410  147.7730 C   0  0  0  0  0  2  0  0  0  0  0  0
  1  6  1  0  0  0  0
  1  9  2  0  0  0  0
  2  3  1  6  0  0  0
  2  5  1  0  0  0  0
  3  7  1  0  0  0  0
  4 11  1  0  0  0  0
  4  7  2  0  0  0  0
  5 16  1  0  0  0  0
  5 14  2  0  0  0  0
  8 21  1  1  0  0  0
  8 13  1  0  0  0  0
  8 12  1  0  0  0  0
 10 19  1  0  0  0  0
 10 18  1  0  0  0  0
 13 18  1  6  0  0  0
 13  2  1  0  0  0  0
 14  1  1  0  0  0  0
 15  4  1  0  0  0  0
 16 12  1  1  0  0  0
 16 17  1  0  0  0  0
 17  6  2  0  0  0  0
 19  3  2  0  0  0  0
 20 15  2  0  0  0  0
 20 19  1  0  0  0  0
 23 21  1  0  0  0  0
 23 22  1  1  0  0  0
 24 31  1  0  0  0  0
 24 28  1  0  0  0  0
 25 30  1  0  0  0  0
 27 24  1  0  0  0  0
 28 25  1  0  0  0  0
 29 26  1  1  0  0  0
 29 30  1  0  0  0  0
 30 23  1  6  0  0  0
 31 29  1  0  0  0  0
M  END
>  <MODEL>
2

>  <REMARK>
 VINA RESULT:      -5.5      2.047      4.601
  Name = 
  3 active torsions:
  status: ('A' for Active; 'I' for Inactive)
    1  A    between atoms: C_5  and  N_16
    2  A    between atoms: C_5  and  C_30
    3  A    between atoms: C_10  and  N_16
                            x       y       z     vdW  Elec       q    Type
                         _______ _______ _______ _____ _____    ______ ____

>  <TORSDO>
F 3

$$$$
=
 OpenBabel11122413113D

 31 35  0  0  1  0  0  0  0  0999 V2000
  161.1980  210.0530  154.7680 C   0  0  0  0  0  0  0  0  0  0  0  0
  162.1510  210.2670  151.1320 C   0  0  2  0  0  3  0  0  0  0  0  0
  161.7480  209.0430  150.3320 C   0  0  0  0  0  0  0  0  0  0  0  0
  161.0960  206.7040  150.2240 C   0  0  0  0  0  0  0  0  0  0  0  0
  161.3760  210.3950  152.4110 C   0  0  0  0  0  0  0  0  0  0  0  0
  159.8940  210.7190  154.8240 C   0  0  0  0  0  3  0  0  0  0  0  0
  161.4410  207.8320  150.9720 C   0  0  0  0  0  3  0  0  0  0  0  0
  160.5710  212.0360  150.1730 C   0  0  2  0  0  3  0  0  0  0  0  0
  161.7140  209.5860  155.8160 O   0  0  0  0  0  0  0  0  0  0  0  0
  162.0960  210.2730  148.2590 O   0  0  0  0  0  0  0  0  0  0  0  0
  160.7590  205.4310  150.9130 C   0  0  0  0  0  1  0  0  0  0  0  0
  159.9410  212.2360  151.5490 C   0  0  0  0  0  2  0  0  0  0  0  0
  162.0350  211.5730  150.3130 C   0  0  2  0  0  3  0  0  0  0  0  0
  161.8960  209.9640  153.5220 N   0  0  0  0  0  0  0  0  0  0  0  0
  161.0640  206.7720  148.8300 C   0  0  0  0  0  3  0  0  0  0  0  0
  159.9620  210.9380  152.3460 C   0  0  2  0  0  3  0  0  0  0  0  0
  159.3310  211.1530  153.6970 C   0  0  0  0  0  3  0  0  0  0  0  0
  162.6920  211.3710  148.9470 C   0  0  0  0  0  2  0  0  0  0  0  0
  161.7510  209.0930  148.9230 C   0  0  0  0  0  0  0  0  0  0  0  0
  161.3930  207.9650  148.1800 C   0  0  0  0  0  3  0  0  0  0  0  0
  160.4970  213.2890  149.4330 N   0  0  0  0  0  2  0  0  0  0  0  0
  158.2990  212.9580  148.7450 O   0  0  0  0  0  1  0  0  0  0  0  0
  159.6170  213.0720  148.2930 C   0  0  1  0  0  3  0  0  0  0  0  0
  159.9460  213.1370  144.5820 N   0  0  0  0  0  0  0  0  0  0  0  0
  158.5530  214.2050  146.3040 C   0  0  0  0  0  2  0  0  0  0  0  0
  162.1650  214.2330  147.2960 O   0  0  0  0  0  1  0  0  0  0  0  0
  160.0210  211.9700  143.7240 C   0  0  0  0  0  1  0  0  0  0  0  0
  158.6970  213.0270  145.3340 C   0  0  0  0  0  2  0  0  0  0  0  0
  161.0360  214.2300  146.4760 C   0  0  2  0  0  3  0  0  0  0  0  0
  159.7290  214.2340  147.2890 C   0  0  2  0  0  3  0  0  0  0  0  0
  161.0700  213.0470  145.5130 C   0  0  0  0  0  2  0  0  0  0  0  0
  1  6  1  0  0  0  0
  1  9  2  0  0  0  0
  2  3  1  6  0  0  0
  2  5  1  0  0  0  0
  3  7  1  0  0  0  0
  4 11  1  0  0  0  0
  4  7  2  0  0  0  0
  5 14  2  0  0  0  0
  8 21  1  6  0  0  0
  8 13  1  0  0  0  0
  8 12  1  0  0  0  0
 10 19  1  0  0  0  0
 10 18  1  0  0  0  0
 13 18  1  6  0  0  0
 13  2  1  0  0  0  0
 14  1  1  0  0  0  0
 15  4  1  0  0  0  0
 16 12  1  1  0  0  0
 16  5  1  0  0  0  0
 16 17  1  0  0  0  0
 17  6  2  0  0  0  0
 19  3  2  0  0  0  0
 20 15  2  0  0  0  0
 20 19  1  0  0  0  0
 23 22  1  1  0  0  0
 23 21  1  0  0  0  0
 24 28  1  0  0  0  0
 24 31  1  0  0  0  0
 25 30  1  0  0  0  0
 27 24  1  0  0  0  0
 28 25  1  0  0  0  0
 29 30  1  0  0  0  0
 29 26  1  1  0  0  0
 30 23  1  1  0  0  0
 31 29  1  0  0  0  0
M  END
>  <MODEL>
3

>  <REMARK>
 VINA RESULT:      -5.5      1.982      4.697
  Name = 
  3 active torsions:
  status: ('A' for Active; 'I' for Inactive)
    1  A    between atoms: C_5  and  N_16
    2  A    between atoms: C_5  and  C_30
    3  A    between atoms: C_10  and  N_16
                            x       y       z     vdW  Elec       q    Type
                         _______ _______ _______ _____ _____    ______ ____

>  <TORSDO>
F 3

$$$$
=
 OpenBabel11122413113D

 31 35  0  0  1  0  0  0  0  0999 V2000
  162.0000  207.3350  137.8360 C   0  0  0  0  0  0  0  0  0  0  0  0
  160.7740  210.8910  137.6690 C   0  0  2  0  0  3  0  0  0  0  0  0
  159.2630  211.0070  137.7010 C   0  0  0  0  0  0  0  0  0  0  0  0
  157.0570  210.0290  137.4100 C   0  0  0  0  0  0  0  0  0  0  0  0
  161.2570  209.5740  138.2060 C   0  0  0  0  0  0  0  0  0  0  0  0
  162.2330  207.1150  139.2660 C   0  0  0  0  0  3  0  0  0  0  0  0
  158.4480  209.9030  137.4040 C   0  0  0  0  0  3  0  0  0  0  0  0
  161.4000  211.8760  139.9460 C   0  0  2  0  0  3  0  0  0  0  0  0
  162.2260  206.4120  137.0110 O   0  0  0  0  0  0  0  0  0  0  0  0
  159.4480  213.3820  138.2090 O   0  0  0  0  0  0  0  0  0  0  0  0
  156.2040  208.8490  137.1100 C   0  0  0  0  0  1  0  0  0  0  0  0
  162.0280  210.5480  140.3620 C   0  0  0  0  0  2  0  0  0  0  0  0
  161.4720  212.0510  138.4160 C   0  0  2  0  0  3  0  0  0  0  0  0
  161.5440  208.6120  137.3800 N   0  0  0  0  0  0  0  0  0  0  0  0
  156.4660  211.2600  137.7020 C   0  0  0  0  0  3  0  0  0  0  0  0
  161.3010  209.3800  139.7080 C   0  0  2  0  0  3  0  0  0  0  0  0
  161.9300  208.0790  140.1350 C   0  0  0  0  0  3  0  0  0  0  0  0
  160.8540  213.3780  137.9730 C   0  0  0  0  0  2  0  0  0  0  0  0
  158.6600  212.2560  137.9560 C   0  0  0  0  0  0  0  0  0  0  0  0
  157.2670  212.3730  137.9720 C   0  0  0  0  0  3  0  0  0  0  0  0
  162.1010  212.9610  140.6200 N   0  0  0  0  0  2  0  0  0  0  0  0
  159.9520  213.3910  141.4020 O   0  0  0  0  0  1  0  0  0  0  0  0
  161.2990  213.3510  141.7720 C   0  0  1  0  0  3  0  0  0  0  0  0
  160.1370  213.3950  145.3120 N   0  0  0  0  0  0  0  0  0  0  0  0
  160.1390  211.8280  143.4170 C   0  0  0  0  0  2  0  0  0  0  0  0
  163.4770  213.4860  143.7890 O   0  0  0  0  0  1  0  0  0  0  0  0
  159.3580  214.4530  145.9280 C   0  0  0  0  0  1  0  0  0  0  0  0
  159.3680  212.9260  144.1590 C   0  0  0  0  0  2  0  0  0  0  0  0
  162.2360  212.9550  144.1430 C   0  0  2  0  0  3  0  0  0  0  0  0
  161.4940  212.3590  142.9330 C   0  0  2  0  0  3  0  0  0  0  0  0
  161.3770  214.0080  144.8390 C   0  0  0  0  0  2  0  0  0  0  0  0
  1  6  1  0  0  0  0
  2  3  1  1  0  0  0
  2  5  1  0  0  0  0
  2 13  1  0  0  0  0
  3 19  1  0  0  0  0
  4 15  2  0  0  0  0
  5 16  1  0  0  0  0
  6 17  2  0  0  0  0
  7  4  1  0  0  0  0
  7  3  2  0  0  0  0
  8 12  1  0  0  0  0
  8 21  1  1  0  0  0
  9  1  2  0  0  0  0
 11  4  1  0  0  0  0
 13 18  1  1  0  0  0
 13  8  1  0  0  0  0
 14  1  1  0  0  0  0
 14  5  2  0  0  0  0
 15 20  1  0  0  0  0
 16 17  1  6  0  0  0
 16 12  1  0  0  0  0
 18 10  1  0  0  0  0
 19 20  2  0  0  0  0
 19 10  1  0  0  0  0
 21 23  1  0  0  0  0
 23 22  1  6  0  0  0
 24 27  1  0  0  0  0
 25 28  1  0  0  0  0
 28 24  1  0  0  0  0
 29 26  1  6  0  0  0
 29 31  1  0  0  0  0
 30 23  1  6  0  0  0
 30 25  1  0  0  0  0
 30 29  1  0  0  0  0
 31 24  1  0  0  0  0
M  END
>  <MODEL>
4

>  <REMARK>
 VINA RESULT:      -5.3      7.954     13.265
  Name = 
  3 active torsions:
  status: ('A' for Active; 'I' for Inactive)
    1  A    between atoms: C_5  and  N_16
    2  A    between atoms: C_5  and  C_30
    3  A    between atoms: C_10  and  N_16
                            x       y       z     vdW  Elec       q    Type
                         _______ _______ _______ _____ _____    ______ ____

>  <TORSDO>
F 3

$$$$
=
 OpenBabel11122413113D

 31 35  0  0  1  0  0  0  0  0999 V2000
  160.6090  206.3250  146.4540 C   0  0  0  0  0  0  0  0  0  0  0  0
  160.2940  205.0850  149.9950 C   0  0  2  0  0  3  0  0  0  0  0  0
  160.7300  203.6430  150.1670 C   0  0  0  0  0  0  0  0  0  0  0  0
  161.2090  201.4500  149.2360 C   0  0  0  0  0  0  0  0  0  0  0  0
  160.8530  205.7060  148.7470 C   0  0  0  0  0  0  0  0  0  0  0  0
  161.9310  206.9530  146.4230 C   0  0  0  0  0  3  0  0  0  0  0  0
  160.8310  202.7840  149.0620 C   0  0  0  0  0  3  0  0  0  0  0  0
  162.1430  206.3230  151.2580 C   0  0  2  0  0  3  0  0  0  0  0  0
  159.8900  206.3140  145.4210 O   0  0  0  0  0  0  0  0  0  0  0  0
  160.8280  203.9530  152.5820 O   0  0  0  0  0  0  0  0  0  0  0  0
  161.3270  200.5520  148.0570 C   0  0  0  0  0  1  0  0  0  0  0  0
  162.5480  207.0490  149.9780 C   0  0  0  0  0  2  0  0  0  0  0  0
  160.6450  205.9600  151.2210 C   0  0  2  0  0  3  0  0  0  0  0  0
  160.1230  205.7530  147.6720 N   0  0  0  0  0  0  0  0  0  0  0  0
  161.4780  200.9600  150.5160 C   0  0  0  0  0  3  0  0  0  0  0  0
  162.2950  206.1730  148.7570 C   0  0  2  0  0  3  0  0  0  0  0  0
  162.7060  206.9030  147.5050 C   0  0  0  0  0  3  0  0  0  0  0  0
  160.2120  205.2360  152.4960 C   0  0  0  0  0  2  0  0  0  0  0  0
  160.9660  203.1310  151.4600 C   0  0  0  0  0  0  0  0  0  0  0  0
  161.3550  201.7990  151.6260 C   0  0  0  0  0  3  0  0  0  0  0  0
  162.4350  207.1800  152.4000 N   0  0  0  0  0  2  0  0  0  0  0  0
  160.6250  208.2460  153.4000 O   0  0  0  0  0  1  0  0  0  0  0  0
  161.5290  208.3180  152.3360 C   0  0  1  0  0  3  0  0  0  0  0  0
  160.4400  211.8280  152.9470 N   0  0  0  0  0  0  0  0  0  0  0  0
  162.1620  210.2850  153.7850 C   0  0  0  0  0  2  0  0  0  0  0  0
  161.9560  210.1630  150.0460 O   0  0  0  0  0  1  0  0  0  0  0  0
  159.0730  212.2570  153.1730 C   0  0  0  0  0  1  0  0  0  0  0  0
  160.7410  210.8290  153.9720 C   0  0  0  0  0  2  0  0  0  0  0  0
  161.8750  210.6740  151.3420 C   0  0  2  0  0  3  0  0  0  0  0  0
  162.3100  209.6420  152.3990 C   0  0  2  0  0  3  0  0  0  0  0  0
  160.4670  211.1850  151.6350 C   0  0  0  0  0  2  0  0  0  0  0  0
  1 14  1  0  0  0  0
  2  5  1  6  0  0  0
  2  3  1  0  0  0  0
  2 13  1  0  0  0  0
  3 19  1  0  0  0  0
  4 15  2  0  0  0  0
  5 16  1  0  0  0  0
  6  1  1  0  0  0  0
  6 17  2  0  0  0  0
  7  4  1  0  0  0  0
  7  3  2  0  0  0  0
  8 21  1  1  0  0  0
  9  1  2  0  0  0  0
 11  4  1  0  0  0  0
 12  8  1  0  0  0  0
 13  8  1  0  0  0  0
 13 18  1  1  0  0  0
 14  5  2  0  0  0  0
 15 20  1  0  0  0  0
 16 17  1  6  0  0  0
 16 12  1  0  0  0  0
 18 10  1  0  0  0  0
 19 20  2  0  0  0  0
 19 10  1  0  0  0  0
 23 21  1  0  0  0  0
 23 22  1  1  0  0  0
 24 27  1  0  0  0  0
 24 28  1  0  0  0  0
 25 28  1  0  0  0  0
 29 26  1  6  0  0  0
 29 31  1  0  0  0  0
 29 30  1  0  0  0  0
 30 23  1  1  0  0  0
 30 25  1  0  0  0  0
 31 24  1  0  0  0  0
M  END
>  <MODEL>
5

>  <REMARK>
 VINA RESULT:      -4.9      4.052      7.737
  Name = 
  3 active torsions:
  status: ('A' for Active; 'I' for Inactive)
    1  A    between atoms: C_5  and  N_16
    2  A    between atoms: C_5  and  C_30
    3  A    between atoms: C_10  and  N_16
                            x       y       z     vdW  Elec       q    Type
                         _______ _______ _______ _____ _____    ______ ____

>  <TORSDO>
F 3

$$$$
=
 OpenBabel11122413113D

 31 35  0  0  1  0  0  0  0  0999 V2000
  160.6830  205.0660  145.3590 C   0  0  0  0  0  0  0  0  0  0  0  0
  160.4080  206.0930  148.9710 C   0  0  2  0  0  3  0  0  0  0  0  0
  160.7800  204.9870  149.9400 C   0  0  0  0  0  0  0  0  0  0  0  0
  161.1290  202.6320  150.4330 C   0  0  0  0  0  0  0  0  0  0  0  0
  160.9610  205.8570  147.5950 C   0  0  0  0  0  0  0  0  0  0  0  0
  162.0320  205.4900  144.9800 C   0  0  0  0  0  3  0  0  0  0  0  0
  160.8100  203.6450  149.5260 C   0  0  0  0  0  3  0  0  0  0  0  0
  162.3470  207.7270  149.3070 C   0  0  2  0  0  3  0  0  0  0  0  0
  159.9370  204.5050  144.5150 O   0  0  0  0  0  0  0  0  0  0  0  0
  160.9580  206.6150  151.7430 O   0  0  0  0  0  0  0  0  0  0  0  0
  161.1720  201.2170  149.9810 C   0  0  0  0  0  1  0  0  0  0  0  0
  162.7510  207.5670  147.8430 C   0  0  0  0  0  2  0  0  0  0  0  0
  160.8330  207.4900  149.4780 C   0  0  2  0  0  3  0  0  0  0  0  0
  160.2040  205.3210  146.6830 N   0  0  0  0  0  0  0  0  0  0  0  0
  161.4090  202.9480  151.7650 C   0  0  0  0  0  3  0  0  0  0  0  0
  162.4230  206.1660  147.3430 C   0  0  2  0  0  3  0  0  0  0  0  0
  162.8340  206.0250  145.9000 C   0  0  0  0  0  3  0  0  0  0  0  0
  160.4010  207.6500  150.9360 C   0  0  0  0  0  2  0  0  0  0  0  0
  161.0270  205.2930  151.2940 C   0  0  0  0  0  0  0  0  0  0  0  0
  161.3570  204.2760  152.1940 C   0  0  0  0  0  3  0  0  0  0  0  0
  162.7110  209.0650  149.7540 N   0  0  0  0  0  2  0  0  0  0  0  0
  161.0840  209.7480  148.2370 O   0  0  0  0  0  1  0  0  0  0  0  0
  162.3900  209.9890  148.6750 C   0  0  1  0  0  3  0  0  0  0  0  0
  161.0550  213.1860  147.3050 N   0  0  0  0  0  0  0  0  0  0  0  0
  161.1440  212.0340  149.4750 C   0  0  0  0  0  2  0  0  0  0  0  0
  164.4670  211.9020  147.7490 O   0  0  0  0  0  1  0  0  0  0  0  0
  160.2510  213.3150  146.1040 C   0  0  0  0  0  1  0  0  0  0  0  0
  160.3430  212.2650  148.1890 C   0  0  0  0  0  2  0  0  0  0  0  0
  163.2080  212.3730  148.1240 C   0  0  2  0  0  3  0  0  0  0  0  0
  162.5240  211.4480  149.1470 C   0  0  2  0  0  3  0  0  0  0  0  0
  162.3190  212.5740  146.9000 C   0  0  0  0  0  2  0  0  0  0  0  0
  1 14  1  0  0  0  0
  2  5  1  6  0  0  0
  2 13  1  0  0  0  0
  2  3  1  0  0  0  0
  3 19  1  0  0  0  0
  4 15  2  0  0  0  0
  6  1  1  0  0  0  0
  6 17  2  0  0  0  0
  7  3  2  0  0  0  0
  7  4  1  0  0  0  0
  8 13  1  0  0  0  0
  8 21  1  6  0  0  0
  9  1  2  0  0  0  0
 11  4  1  0  0  0  0
 12  8  1  0  0  0  0
 13 18  1  1  0  0  0
 14  5  2  0  0  0  0
 15 20  1  0  0  0  0
 16 17  1  6  0  0  0
 16  5  1  0  0  0  0
 16 12  1  0  0  0  0
 18 10  1  0  0  0  0
 19 10  1  0  0  0  0
 19 20  2  0  0  0  0
 23 22  1  1  0  0  0
 23 21  1  0  0  0  0
 24 28  1  0  0  0  0
 27 24  1  0  0  0  0
 28 25  1  0  0  0  0
 29 26  1  6  0  0  0
 29 30  1  0  0  0  0
 30 23  1  6  0  0  0
 30 25  1  0  0  0  0
 31 24  1  0  0  0  0
 31 29  1  0  0  0  0
M  END
>  <MODEL>
6

>  <REMARK>
 VINA RESULT:      -4.1      4.207      6.553
  Name = 
  3 active torsions:
  status: ('A' for Active; 'I' for Inactive)
    1  A    between atoms: C_5  and  N_16
    2  A    between atoms: C_5  and  C_30
    3  A    between atoms: C_10  and  N_16
                            x       y       z     vdW  Elec       q    Type
                         _______ _______ _______ _____ _____    ______ ____

>  <TORSDO>
F 3

$$$$
=
 OpenBabel11122413113D

 31 35  0  0  1  0  0  0  0  0999 V2000
  162.2770  213.6530  147.9290 C   0  0  0  0  0  0  0  0  0  0  0  0
  159.7620  214.3300  150.6490 C   0  0  2  0  0  3  0  0  0  0  0  0
  158.3250  214.2160  150.1790 C   0  0  0  0  0  0  0  0  0  0  0  0
  156.6760  214.1880  148.3940 C   0  0  0  0  0  0  0  0  0  0  0  0
  160.7190  213.6150  149.7380 C   0  0  0  0  0  0  0  0  0  0  0  0
  162.5730  212.2270  148.0780 C   0  0  0  0  0  3  0  0  0  0  0  0
  158.0060  214.2680  148.8130 C   0  0  0  0  0  3  0  0  0  0  0  0
  159.9480  212.2980  152.1920 C   0  0  2  0  0  3  0  0  0  0  0  0
  162.8460  214.3260  147.0310 O   0  0  0  0  0  0  0  0  0  0  0  0
  157.5690  214.1270  152.4930 O   0  0  0  0  0  0  0  0  0  0  0  0
  156.3510  214.2280  146.9440 C   0  0  0  0  0  1  0  0  0  0  0  0
  161.0440  211.7100  151.3060 C   0  0  0  0  0  2  0  0  0  0  0  0
  159.9510  213.8380  152.1020 C   0  0  2  0  0  3  0  0  0  0  0  0
  161.3610  214.2860  148.8270 N   0  0  0  0  0  0  0  0  0  0  0  0
  155.6510  214.0670  149.3350 C   0  0  0  0  0  3  0  0  0  0  0  0
  160.8310  212.1070  149.8510 C   0  0  2  0  0  3  0  0  0  0  0  0
  161.9160  211.5130  148.9910 C   0  0  0  0  0  3  0  0  0  0  0  0
  158.8660  214.4530  152.9860 C   0  0  0  0  0  2  0  0  0  0  0  0
  157.2820  214.1330  151.1250 C   0  0  0  0  0  0  0  0  0  0  0  0
  155.9540  214.0420  150.6990 C   0  0  0  0  0  3  0  0  0  0  0  0
  160.1690  211.8650  153.5660 N   0  0  0  0  0  2  0  0  0  0  0  0
  159.4870  209.9860  152.3750 O   0  0  0  0  0  1  0  0  0  0  0  0
  160.0070  210.4180  153.5990 C   0  0  1  0  0  3  0  0  0  0  0  0
  160.9740  207.6790  155.9330 N   0  0  0  0  0  0  0  0  0  0  0  0
  161.2590  208.2260  153.5520 C   0  0  0  0  0  2  0  0  0  0  0  0
  161.9450  211.2140  155.7070 O   0  0  0  0  0  1  0  0  0  0  0  0
  160.0810  207.0100  156.8590 C   0  0  0  0  0  1  0  0  0  0  0  0
  160.3980  207.5110  154.5990 C   0  0  0  0  0  2  0  0  0  0  0  0
  161.8500  209.8760  155.3210 C   0  0  2  0  0  3  0  0  0  0  0  0
  161.3540  209.7240  153.8720 C   0  0  2  0  0  3  0  0  0  0  0  0
  160.9550  209.0980  156.2820 C   0  0  0  0  0  2  0  0  0  0  0  0
  1  6  1  0  0  0  0
  1 14  1  0  0  0  0
  2  5  1  6  0  0  0
  2 13  1  0  0  0  0
  3  2  1  0  0  0  0
  3 19  1  0  0  0  0
  4  7  1  0  0  0  0
  4 15  2  0  0  0  0
  5 16  1  0  0  0  0
  6 17  2  0  0  0  0
  7  3  2  0  0  0  0
  8 21  1  1  0  0  0
  9  1  2  0  0  0  0
 10 18  1  0  0  0  0
 11  4  1  0  0  0  0
 12  8  1  0  0  0  0
 13  8  1  0  0  0  0
 13 18  1  1  0  0  0
 14  5  2  0  0  0  0
 15 20  1  0  0  0  0
 16 17  1  6  0  0  0
 16 12  1  0  0  0  0
 19 10  1  0  0  0  0
 20 19  2  0  0  0  0
 21 23  1  0  0  0  0
 23 22  1  6  0  0  0
 24 31  1  0  0  0  0
 24 27  1  0  0  0  0
 25 30  1  0  0  0  0
 25 28  1  0  0  0  0
 28 24  1  0  0  0  0
 29 26  1  1  0  0  0
 29 31  1  0  0  0  0
 30 23  1  1  0  0  0
 30 29  1  0  0  0  0
M  END
>  <MODEL>
7

>  <REMARK>
 VINA RESULT:      -3.7      2.298      7.217
  Name = 
  3 active torsions:
  status: ('A' for Active; 'I' for Inactive)
    1  A    between atoms: C_5  and  N_16
    2  A    between atoms: C_5  and  C_30
    3  A    between atoms: C_10  and  N_16
                            x       y       z     vdW  Elec       q    Type
                         _______ _______ _______ _____ _____    ______ ____

>  <TORSDO>
F 3

$$$$
=
 OpenBabel11122413113D

 31 36  0  0  1  0  0  0  0  0999 V2000
  160.6390  206.3420  146.3730 C   0  0  0  0  0  0  0  0  0  0  0  0
  160.2650  204.7470  149.7640 C   0  0  2  0  0  3  0  0  0  0  0  0
  160.7020  203.2960  149.7960 C   0  0  0  0  0  0  0  0  0  0  0  0
  161.2050  201.2090  148.6550 C   0  0  0  0  0  0  0  0  0  0  0  0
  160.8440  205.4930  148.5960 C   0  0  0  0  0  0  0  0  0  0  0  0
  161.9600  206.9710  146.4300 C   0  0  0  0  0  3  0  0  0  0  0  0
  160.8260  202.5530  148.6120 C   0  0  0  0  0  3  0  0  0  0  0  0
  162.0870  205.8520  151.1790 C   0  0  2  0  0  3  0  0  0  0  0  0
  159.9390  206.4340  145.3320 O   0  0  0  0  0  0  0  0  0  0  0  0
  160.7560  203.3590  152.2310 O   0  0  0  0  0  0  0  0  0  0  0  0
  161.3470  200.4360  147.3940 C   0  0  0  0  0  1  0  0  0  0  0  0
  162.5130  206.7060  149.9870 C   0  0  1  0  0  3  0  0  0  0  0  0
  160.5910  205.4930  151.0780 C   0  0  2  0  0  3  0  0  0  0  0  0
  160.1330  205.6480  147.5180 N   0  0  0  0  0  0  0  0  0  0  0  0
  161.4520  200.5920  149.8830 C   0  0  0  0  0  3  0  0  0  0  0  0
  162.2840  205.9580  148.6790 C   0  0  2  0  0  3  0  0  0  0  0  0
  162.7160  206.8120  147.5160 C   0  0  0  0  0  3  0  0  0  0  0  0
  160.1370  204.6420  152.2650 C   0  0  0  0  0  2  0  0  0  0  0  0
  160.9170  202.6550  151.0340 C   0  0  0  0  0  0  0  0  0  0  0  0
  161.3070  201.3130  151.0710 C   0  0  0  0  0  3  0  0  0  0  0  0
  162.3560  206.5890  152.4070 N   0  0  0  0  0  2  0  0  0  0  0  0
  161.8100  208.1930  150.8130 O   0  0  0  0  0  0  0  0  0  0  0  0
  161.9520  207.9700  152.1860 C   0  0  1  0  0  3  0  0  0  0  0  0
  161.1170  210.2430  155.0180 N   0  0  0  0  0  0  0  0  0  0  0  0
  160.2660  209.7580  152.7630 C   0  0  0  0  0  2  0  0  0  0  0  0
  160.9830  206.5930  154.6350 O   0  0  0  0  0  1  0  0  0  0  0  0
  162.0650  211.0760  155.7340 C   0  0  0  0  0  1  0  0  0  0  0  0
  161.2080  210.6220  153.6080 C   0  0  0  0  0  2  0  0  0  0  0  0
  160.6400  207.9260  154.4070 C   0  0  2  0  0  3  0  0  0  0  0  0
  160.6260  208.2740  152.9070 C   0  0  2  0  0  3  0  0  0  0  0  0
  161.5740  208.8630  155.1690 C   0  0  0  0  0  2  0  0  0  0  0  0
  1  6  1  0  0  0  0
  1 14  1  0  0  0  0
  2  5  1  6  0  0  0
  2  3  1  0  0  0  0
  2 13  1  0  0  0  0
  3 19  1  0  0  0  0
  4 15  2  0  0  0  0
  5 16  1  0  0  0  0
  6 17  2  0  0  0  0
  7  4  1  0  0  0  0
  7  3  2  0  0  0  0
  8 21  1  1  0  0  0
  9  1  2  0  0  0  0
 10 18  1  0  0  0  0
 11  4  1  0  0  0  0
 12 22  1  6  0  0  0
 12  8  1  0  0  0  0
 13  8  1  0  0  0  0
 13 18  1  1  0  0  0
 14  5  2  0  0  0  0
 15 20  1  0  0  0  0
 16 17  1  6  0  0  0
 16 12  1  0  0  0  0
 19 20  2  0  0  0  0
 19 10  1  0  0  0  0
 23 22  1  6  0  0  0
 23 21  1  0  0  0  0
 23 30  1  0  0  0  0
 24 31  1  0  0  0  0
 24 27  1  0  0  0  0
 25 28  1  0  0  0  0
 28 24  1  0  0  0  0
 29 26  1  6  0  0  0
 29 31  1  0  0  0  0
 30 25  1  1  0  0  0
 30 29  1  0  0  0  0
M  END
>  <MODEL>
8

>  <REMARK>
 VINA RESULT:      -3.6      4.323      8.576
  Name = 
  3 active torsions:
  status: ('A' for Active; 'I' for Inactive)
    1  A    between atoms: C_5  and  N_16
    2  A    between atoms: C_5  and  C_30
    3  A    between atoms: C_10  and  N_16
                            x       y       z     vdW  Elec       q    Type
                         _______ _______ _______ _____ _____    ______ ____

>  <TORSDO>
F 3

$$$$
=
 OpenBabel11122413113D

 31 35  0  0  1  0  0  0  0  0999 V2000
  162.2350  206.2590  147.3370 C   0  0  0  0  0  0  0  0  0  0  0  0
  162.5530  209.1350  149.7460 C   0  0  2  0  0  3  0  0  0  0  0  0
  161.8360  210.3880  149.2830 C   0  0  0  0  0  0  0  0  0  0  0  0
  160.8330  211.7240  147.5180 C   0  0  0  0  0  0  0  0  0  0  0  0
  162.0440  207.8990  149.0620 C   0  0  0  0  0  0  0  0  0  0  0  0
  161.0770  205.5150  147.8370 C   0  0  0  0  0  3  0  0  0  0  0  0
  161.4700  210.5540  147.9380 C   0  0  0  0  0  3  0  0  0  0  0  0
  161.1120  208.4410  151.7430 C   0  0  2  0  0  3  0  0  0  0  0  0
  162.8520  205.8560  146.3170 O   0  0  0  0  0  0  0  0  0  0  0  0
  161.9940  211.3170  151.5290 O   0  0  0  0  0  0  0  0  0  0  0  0
  160.4360  211.8830  146.0940 C   0  0  0  0  0  1  0  0  0  0  0  0
  160.7720  207.1210  151.0540 C   0  0  0  0  0  2  0  0  0  0  0  0
  162.4920  208.9500  151.2800 C   0  0  2  0  0  3  0  0  0  0  0  0
  162.6820  207.4270  148.0310 N   0  0  0  0  0  0  0  0  0  0  0  0
  160.5660  212.7440  148.4340 C   0  0  0  0  0  3  0  0  0  0  0  0
  160.7390  207.2950  149.5410 C   0  0  2  0  0  3  0  0  0  0  0  0
  160.3950  205.9860  148.8790 C   0  0  0  0  0  3  0  0  0  0  0  0
  162.8600  210.2700  151.9600 C   0  0  0  0  0  2  0  0  0  0  0  0
  161.5980  211.4380  150.1940 C   0  0  0  0  0  0  0  0  0  0  0  0
  160.9500  212.6010  149.7700 C   0  0  0  0  0  3  0  0  0  0  0  0
  161.0970  208.2380  153.1850 N   0  0  0  0  0  2  0  0  0  0  0  0
  159.5730  209.9720  152.8970 O   0  0  0  0  0  1  0  0  0  0  0  0
  160.5000  209.4220  153.7870 C   0  0  1  0  0  3  0  0  0  0  0  0
  160.1310  211.2990  156.9850 N   0  0  0  0  0  0  0  0  0  0  0  0
  158.6860  210.0720  155.4180 C   0  0  0  0  0  2  0  0  0  0  0  0
  161.8270  208.1570  156.1260 O   0  0  0  0  0  1  0  0  0  0  0  0
  160.6770  212.6150  157.2540 C   0  0  0  0  0  1  0  0  0  0  0  0
  159.2770  211.4320  155.8050 C   0  0  0  0  0  2  0  0  0  0  0  0
  160.7590  209.0320  156.3250 C   0  0  2  0  0  3  0  0  0  0  0  0
  159.8060  209.0680  155.1150 C   0  0  2  0  0  3  0  0  0  0  0  0
  161.2630  210.4340  156.6570 C   0  0  0  0  0  2  0  0  0  0  0  0
  1  6  1  0  0  0  0
  1 14  1  0  0  0  0
  2  5  1  6  0  0  0
  2 13  1  0  0  0  0
  3  2  1  0  0  0  0
  3 19  1  0  0  0  0
  4  7  1  0  0  0  0
  4 15  2  0  0  0  0
  5 16  1  0  0  0  0
  6 17  2  0  0  0  0
  7  3  2  0  0  0  0
  8 21  1  1  0  0  0
  9  1  2  0  0  0  0
 10 18  1  0  0  0  0
 11  4  1  0  0  0  0
 12  8  1  0  0  0  0
 13  8  1  0  0  0  0
 13 18  1  1  0  0  0
 14  5  2  0  0  0  0
 15 20  1  0  0  0  0
 16 17  1  6  0  0  0
 16 12  1  0  0  0  0
 19 10  1  0  0  0  0
 20 19  2  0  0  0  0
 21 23  1  0  0  0  0
 23 22  1  6  0  0  0
 24 27  1  0  0  0  0
 25 28  1  0  0  0  0
 28 24  1  0  0  0  0
 29 26  1  6  0  0  0
 29 31  1  0  0  0  0
 30 23  1  6  0  0  0
 30 25  1  0  0  0  0
 30 29  1  0  0  0  0
 31 24  1  0  0  0  0
M  END
>  <MODEL>
9

>  <REMARK>
 VINA RESULT:      -3.5      2.719      7.216
  Name = 
  3 active torsions:
  status: ('A' for Active; 'I' for Inactive)
    1  A    between atoms: C_5  and  N_16
    2  A    between atoms: C_5  and  C_30
    3  A    between atoms: C_10  and  N_16
                            x       y       z     vdW  Elec       q    Type
                         _______ _______ _______ _____ _____    ______ ____

>  <TORSDO>
F 3

$$$$
