=
 OpenBabel11122412513D

 32 37  0  0  1  0  0  0  0  0999 V2000
  161.5840  208.1710  150.8100 C   0  0  0  0  0  2  0  0  0  0  0  0
  161.4870  212.7450  147.5220 C   0  0  1  0  0  3  0  0  0  0  0  0
  157.2270  213.1680  150.0020 C   0  0  0  0  0  2  0  0  0  0  0  0
  156.5430  213.7490  148.7680 C   0  0  0  0  0  2  0  0  0  0  0  0
  161.6200  212.9580  144.9870 C   0  0  1  0  0  3  0  0  0  0  0  0
  160.8260  213.2810  143.7520 C   0  0  0  0  0  0  0  0  0  0  0  0
  162.1100  210.6250  148.6830 C   0  0  1  0  0  3  0  0  0  0  0  0
  161.4860  212.6970  149.9310 C   0  0  0  0  0  2  0  0  0  0  0  0
  159.0890  213.7970  142.4360 N   0  0  0  0  0  0  0  0  0  0  0  0
  162.0450  210.6220  151.2100 C   0  0  0  0  0  2  0  0  0  0  0  0
  158.7090  213.5300  149.9990 C   0  0  0  0  0  2  0  0  0  0  0  0
  160.8330  213.2700  148.7400 N   0  0  2  0  0  0  0  0  0  0  0  0
  159.3840  212.9820  148.7350 C   0  0  2  0  0  3  0  0  0  0  0  0
  159.3700  213.1550  146.2010 C   0  0  1  0  0  3  0  0  0  0  0  0
  160.2000  213.5180  141.5370 C   0  0  0  0  0  3  0  0  0  0  0  0
  161.1180  208.3490  149.3700 C   0  0  0  0  0  2  0  0  0  0  0  0
  161.4200  211.1680  149.9390 C   0  0  2  0  0  3  0  0  0  0  0  0
  161.3070  213.1460  142.4190 N   0  0  0  0  0  0  0  0  0  0  0  0
  162.1820  209.0950  148.5720 C   0  0  0  0  0  2  0  0  0  0  0  0
  161.2690  209.3950  151.6710 C   0  0  2  0  0  3  0  0  0  0  0  0
  157.2160  213.2320  147.5000 C   0  0  0  0  0  2  0  0  0  0  0  0
  158.7000  213.6080  147.5020 C   0  0  1  0  0  3  0  0  0  0  0  0
  158.7720  213.9100  145.0070 C   0  0  0  0  0  2  0  0  0  0  0  0
  161.4410  211.2080  147.4500 C   0  0  0  0  0  2  0  0  0  0  0  0
  162.9840  213.6210  144.9140 C   0  0  0  0  0  1  0  0  0  0  0  0
  157.8370  214.4190  142.0460 C   0  0  0  0  0  1  0  0  0  0  0  0
  160.8900  213.4030  146.2720 C   0  0  1  0  0  3  0  0  0  0  0  0
  159.5560  213.6270  143.7620 C   0  0  0  0  0  0  0  0  0  0  0  0
  161.6020  209.1150  153.0600 N   0  0  0  0  0  2  0  0  0  0  0  0
  160.8380  209.6280  154.1530 C   0  0  0  0  0  0  0  0  0  0  0  0
  159.8450  210.3750  153.9500 O   0  0  0  0  0  0  0  0  0  0  0  0
  161.2240  209.2790  155.5450 C   0  0  0  0  0  1  0  0  0  0  0  0
  1 20  1  0  0  0  0
  2 24  1  6  0  0  0
  2 12  1  0  0  0  0
  4  3  1  0  0  0  0
  5 25  1  6  0  0  0
  5 27  1  0  0  0  0
  6 28  2  0  0  0  0
  6  5  1  0  0  0  0
  7 24  1  6  0  0  0
  7 17  1  0  0  0  0
  9 28  1  0  0  0  0
 10 20  1  0  0  0  0
 11  3  1  0  0  0  0
 12  8  1  1  0  0  0
 13 12  1  0  0  0  0
 13 11  1  1  0  0  0
 14 23  1  6  0  0  0
 14 27  1  0  0  0  0
 14 22  1  0  0  0  0
 15 18  2  0  0  0  0
 15  9  1  0  0  0  0
 16  1  1  0  0  0  0
 17  8  1  1  0  0  0
 17 10  1  0  0  0  0
 18  6  1  0  0  0  0
 19  7  1  0  0  0  0
 19 16  1  0  0  0  0
 20 29  1  1  0  0  0
 21  4  1  0  0  0  0
 22 21  1  6  0  0  0
 22 13  1  0  0  0  0
 26  9  1  0  0  0  0
 27  2  1  0  0  0  0
 28 23  1  0  0  0  0
 29 30  1  0  0  0  0
 30 32  1  0  0  0  0
 31 30  2  0  0  0  0
M  END
>  <MODEL>
1

>  <REMARK>
 VINA RESULT:      -4.4      0.000      0.000
  Name = 
  1 active torsions:
  status: ('A' for Active; 'I' for Inactive)
    1  A    between atoms: C_20  and  N_29
                            x       y       z     vdW  Elec       q    Type
                         _______ _______ _______ _____ _____    ______ ____

>  <TORSDO>
F 1

$$$$
=
 OpenBabel11122412513D

 32 37  0  0  1  0  0  0  0  0999 V2000
  157.4450  213.1560  146.0250 C   0  0  0  0  0  2  0  0  0  0  0  0
  159.8350  213.2620  151.1260 C   0  0  1  0  0  3  0  0  0  0  0  0
  162.2680  209.5590  148.9260 C   0  0  0  0  0  2  0  0  0  0  0  0
  162.3290  208.7900  150.2420 C   0  0  0  0  0  2  0  0  0  0  0  0
  158.7960  213.0300  153.4400 C   0  0  1  0  0  3  0  0  0  0  0  0
  158.6580  212.1140  154.6240 C   0  0  0  0  0  0  0  0  0  0  0  0
  158.4330  213.7200  149.1120 C   0  0  1  0  0  3  0  0  0  0  0  0
  160.9280  213.6280  149.0100 C   0  0  0  0  0  2  0  0  0  0  0  0
  158.8490  210.2950  155.9170 N   0  0  0  0  0  0  0  0  0  0  0  0
  159.6350  214.0500  146.9120 C   0  0  0  0  0  2  0  0  0  0  0  0
  162.2620  211.0600  149.1950 C   0  0  0  0  0  2  0  0  0  0  0  0
  160.9960  212.8960  150.2880 N   0  0  2  0  0  0  0  0  0  0  0  0
  161.0540  211.4360  150.0630 C   0  0  2  0  0  3  0  0  0  0  0  0
  160.0130  211.0550  152.3480 C   0  0  1  0  0  3  0  0  0  0  0  0
  157.9510  211.1950  156.6270 C   0  0  0  0  0  3  0  0  0  0  0  0
  157.0180  212.5050  147.3350 C   0  0  0  0  0  2  0  0  0  0  0  0
  159.6360  213.3270  148.2460 C   0  0  2  0  0  3  0  0  0  0  0  0
  157.8140  212.3550  155.7440 N   0  0  0  0  0  0  0  0  0  0  0  0
  157.0560  213.5340  148.4580 C   0  0  0  0  0  2  0  0  0  0  0  0
  158.9660  213.1730  145.8620 C   0  0  2  0  0  3  0  0  0  0  0  0
  161.1470  209.1690  151.1290 C   0  0  0  0  0  2  0  0  0  0  0  0
  161.1550  210.6740  151.4010 C   0  0  1  0  0  3  0  0  0  0  0  0
  160.2230  210.4040  153.7210 C   0  0  0  0  0  2  0  0  0  0  0  0
  158.4940  212.9660  150.4290 C   0  0  0  0  0  2  0  0  0  0  0  0
  159.0400  214.4530  153.9120 C   0  0  0  0  0  1  0  0  0  0  0  0
  159.4630  209.1100  156.4870 C   0  0  0  0  0  1  0  0  0  0  0  0
  159.9360  212.5880  152.4990 C   0  0  1  0  0  3  0  0  0  0  0  0
  159.2280  210.9300  154.7090 C   0  0  0  0  0  0  0  0  0  0  0  0
  159.3090  213.6700  144.5370 N   0  0  0  0  0  2  0  0  0  0  0  0
  159.8560  212.8320  143.5180 C   0  0  0  0  0  0  0  0  0  0  0  0
  160.0860  211.6140  143.7410 O   0  0  0  0  0  0  0  0  0  0  0  0
  160.1590  213.4040  142.1810 C   0  0  0  0  0  1  0  0  0  0  0  0
  1 16  1  0  0  0  0
  2 24  1  6  0  0  0
  2 27  1  0  0  0  0
  3 11  1  0  0  0  0
  3  4  1  0  0  0  0
  4 21  1  0  0  0  0
  5 25  1  1  0  0  0
  5  6  1  0  0  0  0
  6 28  2  0  0  0  0
  6 18  1  0  0  0  0
  7 19  1  6  0  0  0
  7 24  1  0  0  0  0
  9 26  1  0  0  0  0
  9 15  1  0  0  0  0
 12  8  1  6  0  0  0
 12  2  1  0  0  0  0
 13 11  1  6  0  0  0
 13 12  1  0  0  0  0
 13 22  1  0  0  0  0
 14 27  1  0  0  0  0
 14 23  1  1  0  0  0
 16 19  1  0  0  0  0
 17 10  1  6  0  0  0
 17  8  1  0  0  0  0
 17  7  1  0  0  0  0
 18 15  2  0  0  0  0
 20 29  1  6  0  0  0
 20  1  1  0  0  0  0
 20 10  1  0  0  0  0
 22 21  1  6  0  0  0
 22 14  1  0  0  0  0
 23 28  1  0  0  0  0
 27  5  1  0  0  0  0
 28  9  1  0  0  0  0
 30 31  2  0  0  0  0
 30 29  1  0  0  0  0
 32 30  1  0  0  0  0
M  END
>  <MODEL>
2

>  <REMARK>
 VINA RESULT:      -4.3      2.831      8.845
  Name = 
  1 active torsions:
  status: ('A' for Active; 'I' for Inactive)
    1  A    between atoms: C_20  and  N_29
                            x       y       z     vdW  Elec       q    Type
                         _______ _______ _______ _____ _____    ______ ____

>  <TORSDO>
F 1

$$$$
=
 OpenBabel11122412513D

 32 37  0  0  1  0  0  0  0  0999 V2000
  160.9440  208.6530  152.4750 C   0  0  0  0  0  2  0  0  0  0  0  0
  161.4110  212.9490  148.8610 C   0  0  1  0  0  3  0  0  0  0  0  0
  156.6630  213.2540  150.2140 C   0  0  0  0  0  2  0  0  0  0  0  0
  156.2690  213.6900  148.8060 C   0  0  0  0  0  2  0  0  0  0  0  0
  162.1420  212.9800  146.4200 C   0  0  1  0  0  3  0  0  0  0  0  0
  161.6550  213.1520  145.0080 C   0  0  0  0  0  0  0  0  0  0  0  0
  161.8430  210.9710  150.3210 C   0  0  1  0  0  3  0  0  0  0  0  0
  160.8310  213.0810  151.1950 C   0  0  0  0  0  2  0  0  0  0  0  0
  160.2630  213.4440  143.2780 N   0  0  0  0  0  0  0  0  0  0  0  0
  161.1690  211.1540  152.7520 C   0  0  0  0  0  2  0  0  0  0  0  0
  158.0810  213.7180  150.5300 C   0  0  0  0  0  2  0  0  0  0  0  0
  160.4570  213.5160  149.8370 N   0  0  2  0  0  0  0  0  0  0  0  0
  159.0680  213.1260  149.5150 C   0  0  2  0  0  3  0  0  0  0  0  0
  159.6590  213.1080  147.0450 C   0  0  1  0  0  3  0  0  0  0  0  0
  161.5720  213.1770  142.6960 C   0  0  0  0  0  3  0  0  0  0  0  0
  160.8310  208.6880  150.9560 C   0  0  0  0  0  2  0  0  0  0  0  0
  160.8430  211.5560  151.3250 C   0  0  2  0  0  3  0  0  0  0  0  0
  162.4500  212.9530  143.8450 N   0  0  0  0  0  0  0  0  0  0  0  0
  162.0170  209.4460  150.3690 C   0  0  0  0  0  2  0  0  0  0  0  0
  160.3690  209.9130  153.1230 C   0  0  2  0  0  3  0  0  0  0  0  0
  157.2540  213.1290  147.7860 C   0  0  0  0  0  2  0  0  0  0  0  0
  158.6720  213.6080  148.1040 C   0  0  1  0  0  3  0  0  0  0  0  0
  159.3300  213.7260  145.6800 C   0  0  0  0  0  2  0  0  0  0  0  0
  161.4630  211.4110  148.9180 C   0  0  0  0  0  2  0  0  0  0  0  0
  163.4480  213.7310  146.6130 C   0  0  0  0  0  1  0  0  0  0  0  0
  159.1130  213.9450  142.5490 C   0  0  0  0  0  1  0  0  0  0  0  0
  161.1020  213.4670  147.4510 C   0  0  1  0  0  3  0  0  0  0  0  0
  160.4040  213.4070  144.6870 C   0  0  0  0  0  0  0  0  0  0  0  0
  160.3690  209.7620  154.5710 N   0  0  0  0  0  2  0  0  0  0  0  0
  159.5190  210.5270  155.4260 C   0  0  0  0  0  0  0  0  0  0  0  0
  158.7400  211.3940  154.9490 O   0  0  0  0  0  0  0  0  0  0  0  0
  159.5570  210.3010  156.8940 C   0  0  0  0  0  1  0  0  0  0  0  0
  1 20  1  0  0  0  0
  2 24  1  6  0  0  0
  2 12  1  0  0  0  0
  3 11  1  0  0  0  0
  4  3  1  0  0  0  0
  5 25  1  6  0  0  0
  5 27  1  0  0  0  0
  6  5  1  0  0  0  0
  7 24  1  6  0  0  0
  7 19  1  0  0  0  0
  7 17  1  0  0  0  0
  9 28  1  0  0  0  0
 10 20  1  0  0  0  0
 12  8  1  1  0  0  0
 13 12  1  0  0  0  0
 13 11  1  1  0  0  0
 14 23  1  6  0  0  0
 14 27  1  0  0  0  0
 14 22  1  0  0  0  0
 15  9  1  0  0  0  0
 15 18  2  0  0  0  0
 16  1  1  0  0  0  0
 17  8  1  1  0  0  0
 17 10  1  0  0  0  0
 18  6  1  0  0  0  0
 19 16  1  0  0  0  0
 20 29  1  1  0  0  0
 21  4  1  0  0  0  0
 22 21  1  6  0  0  0
 22 13  1  0  0  0  0
 26  9  1  0  0  0  0
 27  2  1  0  0  0  0
 28  6  2  0  0  0  0
 28 23  1  0  0  0  0
 29 30  1  0  0  0  0
 30 32  1  0  0  0  0
 31 30  2  0  0  0  0
M  END
>  <MODEL>
3

>  <REMARK>
 VINA RESULT:      -3.4      1.296      1.501
  Name = 
  1 active torsions:
  status: ('A' for Active; 'I' for Inactive)
    1  A    between atoms: C_20  and  N_29
                            x       y       z     vdW  Elec       q    Type
                         _______ _______ _______ _____ _____    ______ ____

>  <TORSDO>
F 1

$$$$
=
 OpenBabel11122412513D

 32 37  0  0  1  0  0  0  0  0999 V2000
  159.7230  213.5390  147.0470 C   0  0  0  0  0  2  0  0  0  0  0  0
  162.1630  210.6010  151.1880 C   0  0  1  0  0  3  0  0  0  0  0  0
  161.1070  207.0610  147.8980 C   0  0  0  0  0  2  0  0  0  0  0  0
  160.7930  206.0800  149.0230 C   0  0  0  0  0  2  0  0  0  0  0  0
  161.5510  210.4020  153.6530 C   0  0  1  0  0  3  0  0  0  0  0  0
  160.9770  209.4790  154.6920 C   0  0  0  0  0  0  0  0  0  0  0  0
  161.2120  212.4090  149.7540 C   0  0  1  0  0  3  0  0  0  0  0  0
  162.9310  210.8030  148.9140 C   0  0  0  0  0  2  0  0  0  0  0  0
  160.0370  207.6690  155.6170 N   0  0  0  0  0  0  0  0  0  0  0  0
  162.0220  212.5410  147.3630 C   0  0  0  0  0  2  0  0  0  0  0  0
  162.1620  208.0630  148.3540 C   0  0  0  0  0  2  0  0  0  0  0  0
  162.6430  209.8550  150.0060 N   0  0  2  0  0  0  0  0  0  0  0  0
  161.6600  208.8360  149.5810 C   0  0  2  0  0  3  0  0  0  0  0  0
  160.9410  208.5410  151.9990 C   0  0  1  0  0  3  0  0  0  0  0  0
  160.0950  208.6710  156.6730 C   0  0  0  0  0  3  0  0  0  0  0  0
  159.1380  212.9520  148.3250 C   0  0  0  0  0  2  0  0  0  0  0  0
  161.6990  211.6260  148.5300 C   0  0  2  0  0  3  0  0  0  0  0  0
  160.6760  209.8520  156.0330 N   0  0  0  0  0  0  0  0  0  0  0  0
  160.0110  213.3350  149.5160 C   0  0  0  0  0  2  0  0  0  0  0  0
  160.8090  212.6440  146.4490 C   0  0  2  0  0  3  0  0  0  0  0  0
  160.3140  206.8330  150.2600 C   0  0  0  0  0  2  0  0  0  0  0  0
  161.3820  207.8290  150.7170 C   0  0  1  0  0  3  0  0  0  0  0  0
  160.8220  207.5340  153.1500 C   0  0  0  0  0  2  0  0  0  0  0  0
  160.9080  211.4380  150.8830 C   0  0  0  0  0  2  0  0  0  0  0  0
  162.7580  211.1310  154.2180 C   0  0  0  0  0  1  0  0  0  0  0  0
  159.7430  206.2630  155.8180 C   0  0  0  0  0  1  0  0  0  0  0  0
  161.9500  209.6450  152.3690 C   0  0  1  0  0  3  0  0  0  0  0  0
  160.5900  208.2450  154.4480 C   0  0  0  0  0  0  0  0  0  0  0  0
  161.2270  213.1770  145.1600 N   0  0  0  0  0  2  0  0  0  0  0  0
  160.6920  212.7070  143.9220 C   0  0  0  0  0  0  0  0  0  0  0  0
  159.8410  211.7800  143.9000 O   0  0  0  0  0  0  0  0  0  0  0  0
  161.1500  213.3160  142.6460 C   0  0  0  0  0  1  0  0  0  0  0  0
  1 16  1  0  0  0  0
  2 24  1  6  0  0  0
  2 27  1  0  0  0  0
  3 11  1  0  0  0  0
  3  4  1  0  0  0  0
  4 21  1  0  0  0  0
  5 25  1  1  0  0  0
  5  6  1  0  0  0  0
  6 18  1  0  0  0  0
  7 19  1  6  0  0  0
  7 24  1  0  0  0  0
  9 26  1  0  0  0  0
  9 15  1  0  0  0  0
 12  8  1  6  0  0  0
 12  2  1  0  0  0  0
 13 11  1  6  0  0  0
 13 12  1  0  0  0  0
 13 22  1  0  0  0  0
 14 27  1  0  0  0  0
 14 23  1  1  0  0  0
 16 19  1  0  0  0  0
 17 10  1  6  0  0  0
 17  8  1  0  0  0  0
 17  7  1  0  0  0  0
 18 15  2  0  0  0  0
 20 29  1  6  0  0  0
 20  1  1  0  0  0  0
 20 10  1  0  0  0  0
 22 21  1  6  0  0  0
 22 14  1  0  0  0  0
 23 28  1  0  0  0  0
 27  5  1  0  0  0  0
 28  6  2  0  0  0  0
 28  9  1  0  0  0  0
 30 29  1  0  0  0  0
 31 30  2  0  0  0  0
 32 30  1  0  0  0  0
M  END
>  <MODEL>
4

>  <REMARK>
 VINA RESULT:      -3.4      2.557      9.011
  Name = 
  1 active torsions:
  status: ('A' for Active; 'I' for Inactive)
    1  A    between atoms: C_20  and  N_29
                            x       y       z     vdW  Elec       q    Type
                         _______ _______ _______ _____ _____    ______ ____

>  <TORSDO>
F 1

$$$$
