=
 OpenBabel11122413023D

 32 37  0  0  1  0  0  0  0  0999 V2000
  160.6950  209.9520  152.4090 C   0  0  1  0  0  3  0  0  0  0  0  0
  160.2550  208.4060  157.0340 C   0  0  0  0  0  3  0  0  0  0  0  0
  160.3050  207.0850  156.5850 C   0  0  0  0  0  3  0  0  0  0  0  0
  161.3980  208.4040  150.5290 C   0  0  2  0  0  3  0  0  0  0  0  0
  161.5000  206.9080  150.1880 C   0  0  2  0  0  3  0  0  0  0  0  0
  159.9510  212.0120  151.8880 C   0  0  2  0  0  3  0  0  0  0  0  0
  160.5680  211.5870  154.2760 O   0  0  0  0  0  0  0  0  0  0  0  0
  161.6710  204.6360  150.9050 C   0  0  2  0  0  3  0  0  0  0  0  0
  160.4800  209.4570  156.1420 C   0  0  0  0  0  3  0  0  0  0  0  0
  161.0550  210.3200  153.8450 C   0  0  1  0  0  3  0  0  0  0  0  0
  160.7470  209.1950  154.7920 C   0  0  0  0  0  0  0  0  0  0  0  0
  161.0610  207.5300  152.8730 C   0  0  2  0  0  3  0  0  0  0  0  0
  160.2220  204.8570  150.5140 C   0  0  0  0  0  2  0  0  0  0  0  0
  159.5980  212.1450  153.3970 C   0  0  2  0  0  3  0  0  0  0  0  0
  160.1260  206.2850  149.9990 C   0  0  0  0  0  2  0  0  0  0  0  0
  160.5900  206.8120  155.2450 C   0  0  0  0  0  3  0  0  0  0  0  0
  160.8430  207.8550  154.3410 C   0  0  0  0  0  0  0  0  0  0  0  0
  162.0820  206.4170  152.6720 C   0  0  0  0  0  2  0  0  0  0  0  0
  160.9700  211.0690  151.6140 O   0  0  0  0  0  0  0  0  0  0  0  0
  162.3750  209.1080  149.8280 O   0  0  0  0  0  1  0  0  0  0  0  0
  161.7650  203.7760  152.0020 O   0  0  0  0  0  1  0  0  0  0  0  0
  161.5100  208.7260  152.0240 C   0  0  2  0  0  3  0  0  0  0  0  0
  162.2530  206.0160  151.1870 C   0  0  2  0  0  3  0  0  0  0  0  0
  157.9810  211.5100  155.1750 C   0  0  0  0  0  2  0  0  0  0  0  0
  158.2180  211.5690  153.6800 C   0  0  1  0  0  3  0  0  0  0  0  0
  157.3660  212.6250  154.3540 C   0  0  1  0  0  3  0  0  0  0  0  0
  155.9050  212.3170  154.0950 C   0  0  0  0  0  2  0  0  0  0  0  0
  155.1090  213.5740  154.1280 C   0  0  0  0  0  0  0  0  0  0  0  0
  154.3900  213.8910  153.1450 O   0  0  0  0  0  0  0  0  0  0  0  0
  155.1290  214.3800  155.2590 O   0  0  0  0  0  1  0  0  0  0  0  0
  160.3620  213.3390  149.9510 O   0  0  0  0  0  1  0  0  0  0  0  0
  160.3530  213.3700  151.3450 C   0  0  0  0  0  2  0  0  0  0  0  0
  1 19  1  6  0  0  0
  1 10  1  0  0  0  0
  3  2  1  0  0  0  0
  4 20  1  6  0  0  0
  4 22  1  0  0  0  0
  5 15  1  1  0  0  0
  5  4  1  0  0  0  0
  5 23  1  0  0  0  0
  6 32  1  1  0  0  0
  6 14  1  0  0  0  0
  8 23  1  0  0  0  0
  8 21  1  1  0  0  0
  9  2  2  0  0  0  0
 10  7  1  1  0  0  0
 10 11  1  0  0  0  0
 11  9  1  0  0  0  0
 12 18  1  1  0  0  0
 12 17  1  0  0  0  0
 13  8  1  0  0  0  0
 14 25  1  0  0  0  0
 14  7  1  1  0  0  0
 15 13  1  0  0  0  0
 16  3  2  0  0  0  0
 17 11  2  0  0  0  0
 17 16  1  0  0  0  0
 19  6  1  0  0  0  0
 22  1  1  0  0  0  0
 22 12  1  0  0  0  0
 23 18  1  0  0  0  0
 25 26  1  0  0  0  0
 25 24  1  0  0  0  0
 26 24  1  0  0  0  0
 27 28  1  0  0  0  0
 27 26  1  0  0  0  0
 28 30  1  0  0  0  0
 29 28  2  0  0  0  0
 31 32  1  0  0  0  0
M  END
>  <MODEL>
1

>  <REMARK>
 VINA RESULT:      -7.5      0.000      0.000
  Name = 
  4 active torsions:
  status: ('A' for Active; 'I' for Inactive)
    1  A    between atoms: C_7  and  C_19
    2  A    between atoms: C_10  and  C_17
    3  A    between atoms: C_20  and  C_29
    4  A    between atoms: C_29  and  C_30
                            x       y       z     vdW  Elec       q    Type
                         _______ _______ _______ _____ _____    ______ ____

>  <TORSDO>
F 4

$$$$
=
 OpenBabel11122413023D

 32 37  0  0  1  0  0  0  0  0999 V2000
  160.8080  209.4490  152.6880 C   0  0  1  0  0  3  0  0  0  0  0  0
  161.7460  212.5150  148.9870 C   0  0  0  0  0  3  0  0  0  0  0  0
  160.7040  213.3380  149.4190 C   0  0  0  0  0  3  0  0  0  0  0  0
  159.3250  210.1000  154.6360 C   0  0  2  0  0  3  0  0  0  0  0  0
  158.2520  211.1280  155.0310 C   0  0  2  0  0  3  0  0  0  0  0  0
  161.4550  207.3010  152.4950 C   0  0  2  0  0  3  0  0  0  0  0  0
  162.6830  208.9940  151.1200 O   0  0  0  0  0  0  0  0  0  0  0  0
  157.2200  213.2580  154.7100 C   0  0  2  0  0  3  0  0  0  0  0  0
  162.1370  211.4180  149.7570 C   0  0  0  0  0  3  0  0  0  0  0  0
  161.9440  209.9880  151.8240 C   0  0  1  0  0  3  0  0  0  0  0  0
  161.4820  211.1290  150.9610 C   0  0  0  0  0  0  0  0  0  0  0  0
  159.6740  211.6690  152.6910 C   0  0  2  0  0  3  0  0  0  0  0  0
  156.3180  212.2380  154.0430 C   0  0  0  0  0  2  0  0  0  0  0  0
  162.0500  207.7200  151.1200 C   0  0  2  0  0  3  0  0  0  0  0  0
  156.9430  210.8750  154.3010 C   0  0  0  0  0  2  0  0  0  0  0  0
  160.0580  213.0710  150.6290 C   0  0  0  0  0  3  0  0  0  0  0  0
  160.4540  211.9870  151.4260 C   0  0  0  0  0  0  0  0  0  0  0  0
  159.4610  212.8990  153.5640 C   0  0  0  0  0  2  0  0  0  0  0  0
  161.3170  208.3680  153.4130 O   0  0  0  0  0  0  0  0  0  0  0  0
  160.0280  209.7030  155.7730 O   0  0  0  0  0  1  0  0  0  0  0  0
  157.2400  214.4530  153.9850 O   0  0  0  0  0  1  0  0  0  0  0  0
  160.3130  210.5850  153.5690 C   0  0  2  0  0  3  0  0  0  0  0  0
  158.5950  212.6100  154.8140 C   0  0  2  0  0  3  0  0  0  0  0  0
  161.5230  208.2640  148.7530 C   0  0  0  0  0  2  0  0  0  0  0  0
  160.9930  207.6430  150.0290 C   0  0  1  0  0  3  0  0  0  0  0  0
  161.4980  206.7570  148.9070 C   0  0  1  0  0  3  0  0  0  0  0  0
  160.3100  206.1890  148.1570 C   0  0  0  0  0  2  0  0  0  0  0  0
  160.7240  205.7900  146.7830 C   0  0  0  0  0  0  0  0  0  0  0  0
  161.7110  205.0270  146.6190 O   0  0  0  0  0  1  0  0  0  0  0  0
  159.9970  206.2270  145.6840 O   0  0  0  0  0  0  0  0  0  0  0  0
  161.5680  205.0450  153.2570 O   0  0  0  0  0  1  0  0  0  0  0  0
  162.3160  206.2120  153.1040 C   0  0  0  0  0  2  0  0  0  0  0  0
  1 19  1  1  0  0  0
  1 22  1  0  0  0  0
  2  3  2  0  0  0  0
  2  9  1  0  0  0  0
  3 16  1  0  0  0  0
  4  5  1  0  0  0  0
  4 20  1  1  0  0  0
  5 15  1  6  0  0  0
  6 32  1  1  0  0  0
  6 19  1  0  0  0  0
  7 10  1  0  0  0  0
  8 21  1  6  0  0  0
  8 23  1  0  0  0  0
  9 11  2  0  0  0  0
 10 11  1  6  0  0  0
 10  1  1  0  0  0  0
 11 17  1  0  0  0  0
 12 18  1  1  0  0  0
 12 22  1  0  0  0  0
 13 15  1  0  0  0  0
 13  8  1  0  0  0  0
 14  7  1  1  0  0  0
 14  6  1  0  0  0  0
 16 17  2  0  0  0  0
 17 12  1  0  0  0  0
 18 23  1  0  0  0  0
 22  4  1  0  0  0  0
 23  5  1  0  0  0  0
 24 26  1  0  0  0  0
 24 25  1  0  0  0  0
 25 14  1  0  0  0  0
 26 25  1  0  0  0  0
 27 26  1  0  0  0  0
 28 27  1  0  0  0  0
 29 28  1  0  0  0  0
 30 28  2  0  0  0  0
 32 31  1  0  0  0  0
M  END
>  <MODEL>
2

>  <REMARK>
 VINA RESULT:      -6.1      2.143      7.863
  Name = 
  4 active torsions:
  status: ('A' for Active; 'I' for Inactive)
    1  A    between atoms: C_7  and  C_19
    2  A    between atoms: C_10  and  C_17
    3  A    between atoms: C_20  and  C_29
    4  A    between atoms: C_29  and  C_30
                            x       y       z     vdW  Elec       q    Type
                         _______ _______ _______ _____ _____    ______ ____

>  <TORSDO>
F 4

$$$$
=
 OpenBabel11122413023D

 32 37  0  0  1  0  0  0  0  0999 V2000
  161.1910  209.3320  151.5670 C   0  0  1  0  0  3  0  0  0  0  0  0
  160.3020  208.8270  156.3550 C   0  0  0  0  0  3  0  0  0  0  0  0
  160.1560  207.4510  156.1720 C   0  0  0  0  0  3  0  0  0  0  0  0
  161.7130  207.3500  150.0750 C   0  0  2  0  0  3  0  0  0  0  0  0
  161.5860  205.8190  150.0340 C   0  0  2  0  0  3  0  0  0  0  0  0
  160.8150  211.3340  150.6080 C   0  0  2  0  0  3  0  0  0  0  0  0
  161.2490  211.3080  153.0730 O   0  0  0  0  0  0  0  0  0  0  0  0
  161.3530  203.7370  151.1820 C   0  0  2  0  0  3  0  0  0  0  0  0
  160.7350  209.6320  155.2990 C   0  0  0  0  0  3  0  0  0  0  0  0
  161.5420  209.9210  152.9290 C   0  0  1  0  0  3  0  0  0  0  0  0
  161.0140  209.0680  154.0480 C   0  0  0  0  0  0  0  0  0  0  0  0
  161.1370  207.0250  152.5110 C   0  0  2  0  0  3  0  0  0  0  0  0
  159.9780  204.0910  150.6490 C   0  0  0  0  0  2  0  0  0  0  0  0
  160.4220  211.8170  152.0330 C   0  0  2  0  0  3  0  0  0  0  0  0
  160.1380  205.3850  149.8650 C   0  0  0  0  0  2  0  0  0  0  0  0
  160.4520  206.8750  154.9340 C   0  0  0  0  0  3  0  0  0  0  0  0
  160.9100  207.6660  153.8700 C   0  0  0  0  0  0  0  0  0  0  0  0
  161.9700  205.7530  152.6020 C   0  0  0  0  0  2  0  0  0  0  0  0
  161.6770  210.2120  150.5970 O   0  0  0  0  0  0  0  0  0  0  0  0
  162.8220  207.7440  149.3270 O   0  0  0  0  0  1  0  0  0  0  0  0
  161.2580  203.1100  152.4270 O   0  0  0  0  0  1  0  0  0  0  0  0
  161.8110  207.9450  151.4850 C   0  0  2  0  0  3  0  0  0  0  0  0
  162.1390  205.0410  151.2390 C   0  0  2  0  0  3  0  0  0  0  0  0
  158.6640  211.7360  153.7880 C   0  0  0  0  0  2  0  0  0  0  0  0
  158.9560  211.5250  152.3170 C   0  0  1  0  0  3  0  0  0  0  0  0
  158.2740  212.7960  152.7800 C   0  0  1  0  0  3  0  0  0  0  0  0
  156.7910  212.6950  152.4830 C   0  0  0  0  0  2  0  0  0  0  0  0
  156.3490  213.8840  151.7040 C   0  0  0  0  0  0  0  0  0  0  0  0
  155.2210  214.3960  151.9230 O   0  0  0  0  0  1  0  0  0  0  0  0
  157.1960  214.4510  150.7610 O   0  0  0  0  0  0  0  0  0  0  0  0
  161.8150  212.0560  148.5690 O   0  0  0  0  0  1  0  0  0  0  0  0
  161.4560  212.4780  149.8480 C   0  0  0  0  0  2  0  0  0  0  0  0
  1 19  1  6  0  0  0
  1 10  1  0  0  0  0
  3  2  1  0  0  0  0
  4 20  1  6  0  0  0
  4 22  1  0  0  0  0
  5 15  1  1  0  0  0
  5  4  1  0  0  0  0
  5 23  1  0  0  0  0
  6 32  1  1  0  0  0
  6 14  1  0  0  0  0
  8 23  1  0  0  0  0
  8 21  1  1  0  0  0
  9  2  2  0  0  0  0
 10  7  1  6  0  0  0
 10 11  1  0  0  0  0
 11  9  1  0  0  0  0
 12 18  1  1  0  0  0
 12 17  1  0  0  0  0
 13  8  1  0  0  0  0
 14 25  1  0  0  0  0
 14  7  1  1  0  0  0
 15 13  1  0  0  0  0
 16  3  2  0  0  0  0
 17 11  2  0  0  0  0
 17 16  1  0  0  0  0
 19  6  1  0  0  0  0
 22  1  1  0  0  0  0
 22 12  1  0  0  0  0
 23 18  1  0  0  0  0
 25 26  1  0  0  0  0
 25 24  1  0  0  0  0
 26 24  1  0  0  0  0
 27 26  1  0  0  0  0
 28 29  1  0  0  0  0
 28 27  1  0  0  0  0
 30 28  2  0  0  0  0
 31 32  1  0  0  0  0
M  END
>  <MODEL>
3

>  <REMARK>
 VINA RESULT:      -5.7      1.369      1.604
  Name = 
  4 active torsions:
  status: ('A' for Active; 'I' for Inactive)
    1  A    between atoms: C_7  and  C_19
    2  A    between atoms: C_10  and  C_17
    3  A    between atoms: C_20  and  C_29
    4  A    between atoms: C_29  and  C_30
                            x       y       z     vdW  Elec       q    Type
                         _______ _______ _______ _____ _____    ______ ____

>  <TORSDO>
F 4

$$$$
=
 OpenBabel11122413023D

 32 37  0  0  1  0  0  0  0  0999 V2000
  159.9400  210.0850  153.7510 C   0  0  1  0  0  3  0  0  0  0  0  0
  160.8490  212.6820  149.7010 C   0  0  0  0  0  3  0  0  0  0  0  0
  159.6270  213.3390  149.8610 C   0  0  0  0  0  3  0  0  0  0  0  0
  158.1000  210.7180  155.3750 C   0  0  2  0  0  3  0  0  0  0  0  0
  156.8180  211.5630  155.4590 C   0  0  2  0  0  3  0  0  0  0  0  0
  160.9750  208.1040  154.0130 C   0  0  2  0  0  3  0  0  0  0  0  0
  162.0710  209.7780  152.5110 O   0  0  0  0  0  0  0  0  0  0  0  0
  155.4850  213.3740  154.6540 C   0  0  2  0  0  3  0  0  0  0  0  0
  161.3110  211.8120  150.6900 C   0  0  0  0  0  3  0  0  0  0  0  0
  161.0760  210.7010  152.9410 C   0  0  1  0  0  3  0  0  0  0  0  0
  160.5500  211.5850  151.8440 C   0  0  0  0  0  0  0  0  0  0  0  0
  158.4450  212.0140  153.2360 C   0  0  2  0  0  3  0  0  0  0  0  0
  154.8820  212.1070  154.0790 C   0  0  0  0  0  2  0  0  0  0  0  0
  161.6790  208.4190  152.6630 C   0  0  2  0  0  3  0  0  0  0  0  0
  155.6930  210.9490  154.6410 C   0  0  0  0  0  2  0  0  0  0  0  0
  158.8700  213.1360  151.0180 C   0  0  0  0  0  3  0  0  0  0  0  0
  159.3320  212.2840  152.0320 C   0  0  0  0  0  0  0  0  0  0  0  0
  157.8960  213.2950  153.8510 C   0  0  0  0  0  2  0  0  0  0  0  0
  160.5200  209.2490  154.7080 O   0  0  0  0  0  0  0  0  0  0  0  0
  158.6900  210.6440  156.6360 O   0  0  0  0  0  1  0  0  0  0  0  0
  155.3990  214.4260  153.7380 O   0  0  0  0  0  1  0  0  0  0  0  0
  159.1310  211.2220  154.3580 C   0  0  2  0  0  3  0  0  0  0  0  0
  156.9230  213.0330  155.0250 C   0  0  2  0  0  3  0  0  0  0  0  0
  161.5910  208.1340  150.1950 C   0  0  0  0  0  2  0  0  0  0  0  0
  160.8210  207.9710  151.4890 C   0  0  1  0  0  3  0  0  0  0  0  0
  161.4640  206.7660  150.8320 C   0  0  1  0  0  3  0  0  0  0  0  0
  160.3940  205.9680  150.1140 C   0  0  0  0  0  2  0  0  0  0  0  0
  161.0170  205.1250  149.0560 C   0  0  0  0  0  0  0  0  0  0  0  0
  161.3920  203.9540  149.3230 O   0  0  0  0  0  1  0  0  0  0  0  0
  161.1480  205.6160  147.7640 O   0  0  0  0  0  0  0  0  0  0  0  0
  161.9500  207.8670  156.1750 O   0  0  0  0  0  1  0  0  0  0  0  0
  161.9170  207.3100  154.8980 C   0  0  0  0  0  2  0  0  0  0  0  0
  1 22  1  0  0  0  0
  1 19  1  1  0  0  0
  2  3  2  0  0  0  0
  2  9  1  0  0  0  0
  3 16  1  0  0  0  0
  4  5  1  0  0  0  0
  4 20  1  1  0  0  0
  5 15  1  6  0  0  0
  6 19  1  0  0  0  0
  6 32  1  1  0  0  0
  7 10  1  0  0  0  0
  8 21  1  6  0  0  0
  8 23  1  0  0  0  0
  9 11  2  0  0  0  0
 10 11  1  6  0  0  0
 10  1  1  0  0  0  0
 11 17  1  0  0  0  0
 12 18  1  1  0  0  0
 12 22  1  0  0  0  0
 13 15  1  0  0  0  0
 13  8  1  0  0  0  0
 14  7  1  6  0  0  0
 14  6  1  0  0  0  0
 16 17  2  0  0  0  0
 17 12  1  0  0  0  0
 18 23  1  0  0  0  0
 22  4  1  0  0  0  0
 23  5  1  0  0  0  0
 24 26  1  0  0  0  0
 24 25  1  0  0  0  0
 25 14  1  0  0  0  0
 26 25  1  0  0  0  0
 27 26  1  0  0  0  0
 28 29  1  0  0  0  0
 28 27  1  0  0  0  0
 30 28  2  0  0  0  0
 32 31  1  0  0  0  0
M  END
>  <MODEL>
4

>  <REMARK>
 VINA RESULT:      -4.8      1.751      7.865
  Name = 
  4 active torsions:
  status: ('A' for Active; 'I' for Inactive)
    1  A    between atoms: C_7  and  C_19
    2  A    between atoms: C_10  and  C_17
    3  A    between atoms: C_20  and  C_29
    4  A    between atoms: C_29  and  C_30
                            x       y       z     vdW  Elec       q    Type
                         _______ _______ _______ _____ _____    ______ ____

>  <TORSDO>
F 4

$$$$
=
 OpenBabel11122413023D

 32 37  0  0  1  0  0  0  0  0999 V2000
  161.2900  212.6160  140.7140 C   0  0  1  0  0  3  0  0  0  0  0  0
  157.1890  213.6810  138.2610 C   0  0  0  0  0  3  0  0  0  0  0  0
  156.5000  213.7690  139.4720 C   0  0  0  0  0  3  0  0  0  0  0  0
  161.4910  212.9550  143.2180 C   0  0  2  0  0  3  0  0  0  0  0  0
  160.6220  213.1450  144.4720 C   0  0  2  0  0  3  0  0  0  0  0  0
  162.9270  211.5030  139.6410 C   0  0  2  0  0  3  0  0  0  0  0  0
  161.3200  212.8090  138.2370 O   0  0  0  0  0  0  0  0  0  0  0  0
  158.5500  213.7930  145.4660 C   0  0  2  0  0  3  0  0  0  0  0  0
  158.5750  213.5150  138.2540 C   0  0  0  0  0  3  0  0  0  0  0  0
  160.7810  213.3120  139.4560 C   0  0  1  0  0  3  0  0  0  0  0  0
  159.2820  213.4250  139.4600 C   0  0  0  0  0  0  0  0  0  0  0  0
  159.3150  213.3980  142.0190 C   0  0  2  0  0  3  0  0  0  0  0  0
  158.5500  212.2770  145.4210 C   0  0  0  0  0  2  0  0  0  0  0  0
  162.0020  211.5710  138.3930 C   0  0  2  0  0  3  0  0  0  0  0  0
  159.8960  211.8620  144.8450 C   0  0  0  0  0  2  0  0  0  0  0  0
  157.1990  213.7020  140.6800 C   0  0  0  0  0  3  0  0  0  0  0  0
  158.5940  213.5590  140.6910 C   0  0  0  0  0  0  0  0  0  0  0  0
  158.8980  214.4530  143.0360 C   0  0  0  0  0  2  0  0  0  0  0  0
  162.6790  212.5150  140.5990 O   0  0  0  0  0  0  0  0  0  0  0  0
  162.7130  213.6010  143.3970 O   0  0  0  0  0  1  0  0  0  0  0  0
  157.2670  214.2970  145.2360 O   0  0  0  0  0  1  0  0  0  0  0  0
  160.8450  213.4380  141.9140 C   0  0  2  0  0  3  0  0  0  0  0  0
  159.5580  214.2520  144.4200 C   0  0  2  0  0  3  0  0  0  0  0  0
  160.1650  210.4640  137.1360 C   0  0  0  0  0  2  0  0  0  0  0  0
  161.0190  210.4090  138.3850 C   0  0  1  0  0  3  0  0  0  0  0  0
  161.3300  209.5000  137.2130 C   0  0  1  0  0  3  0  0  0  0  0  0
  160.8180  208.1080  137.5210 C   0  0  0  0  0  2  0  0  0  0  0  0
  161.9540  207.2210  137.8940 C   0  0  0  0  0  0  0  0  0  0  0  0
  162.7580  206.8230  137.0110 O   0  0  0  0  0  0  0  0  0  0  0  0
  162.1520  206.8650  139.2210 O   0  0  0  0  0  1  0  0  0  0  0  0
  164.7220  212.8780  138.8880 O   0  0  0  0  0  1  0  0  0  0  0  0
  164.3750  211.5640  139.1980 C   0  0  0  0  0  2  0  0  0  0  0  0
  1 19  1  6  0  0  0
  1 22  1  0  0  0  0
  2  3  1  0  0  0  0
  3 16  2  0  0  0  0
  4 20  1  1  0  0  0
  4  5  1  0  0  0  0
  5 15  1  6  0  0  0
  6 32  1  6  0  0  0
  6 19  1  0  0  0  0
  8 21  1  6  0  0  0
  9  2  2  0  0  0  0
  9 11  1  0  0  0  0
 10  7  1  6  0  0  0
 10 11  1  0  0  0  0
 10  1  1  0  0  0  0
 11 17  2  0  0  0  0
 12 18  1  1  0  0  0
 13  8  1  0  0  0  0
 14  7  1  1  0  0  0
 14  6  1  0  0  0  0
 15 13  1  0  0  0  0
 16 17  1  0  0  0  0
 17 12  1  0  0  0  0
 18 23  1  0  0  0  0
 22 12  1  0  0  0  0
 22  4  1  0  0  0  0
 23  5  1  0  0  0  0
 23  8  1  0  0  0  0
 24 26  1  0  0  0  0
 24 25  1  0  0  0  0
 25 14  1  0  0  0  0
 26 27  1  0  0  0  0
 26 25  1  0  0  0  0
 27 28  1  0  0  0  0
 28 30  1  0  0  0  0
 29 28  2  0  0  0  0
 31 32  1  0  0  0  0
M  END
>  <MODEL>
5

>  <REMARK>
 VINA RESULT:      -4.8     10.726     14.577
  Name = 
  4 active torsions:
  status: ('A' for Active; 'I' for Inactive)
    1  A    between atoms: C_7  and  C_19
    2  A    between atoms: C_10  and  C_17
    3  A    between atoms: C_20  and  C_29
    4  A    between atoms: C_29  and  C_30
                            x       y       z     vdW  Elec       q    Type
                         _______ _______ _______ _____ _____    ______ ____

>  <TORSDO>
F 4

$$$$
