=
 OpenBabel11122412363D

 30 35  0  0  1  0  0  0  0  0999 V2000
  161.3240  205.9560  150.1250 C   0  0  0  0  0  0  0  0  0  0  0  0
  161.0250  203.4630  149.9580 C   0  0  0  0  0  0  0  0  0  0  0  0
  161.0570  205.7570  154.3220 N   0  0  0  0  0  2  0  0  0  0  0  0
  161.4040  207.1270  150.9430 C   0  0  0  0  0  0  0  0  0  0  0  0
  161.4470  206.1010  148.7370 C   0  0  0  0  0  3  0  0  0  0  0  0
  161.8430  209.7390  148.3280 O   0  0  0  0  0  1  0  0  0  0  0  0
  160.3490  209.8730  152.0160 C   0  0  1  0  0  3  0  0  0  0  0  0
  161.6800  208.4960  148.9340 C   0  0  0  0  0  0  0  0  0  0  0  0
  160.3290  209.0550  153.3130 C   0  0  2  0  0  3  0  0  0  0  0  0
  161.2510  207.1310  154.6290 C   0  0  0  0  0  0  0  0  0  0  0  0
  161.6310  207.3440  148.1430 C   0  0  0  0  0  0  0  0  0  0  0  0
  161.5610  208.4040  150.3310 C   0  0  0  0  0  0  0  0  0  0  0  0
  160.8290  202.2380  150.6010 C   0  0  0  0  0  3  0  0  0  0  0  0
  160.4140  209.9960  154.4230 N   0  0  0  0  0  2  0  0  0  0  0  0
  160.2020  211.3140  152.4410 C   0  0  0  0  0  2  0  0  0  0  0  0
  161.1150  203.4510  148.5710 O   0  0  0  0  0  1  0  0  0  0  0  0
  161.1100  205.7200  152.9040 C   0  0  0  0  0  0  0  0  0  0  0  0
  160.7260  202.1670  151.9870 C   0  0  0  0  0  3  0  0  0  0  0  0
  161.1230  204.6650  150.7150 C   0  0  0  0  0  0  0  0  0  0  0  0
  161.3020  206.9640  152.3390 C   0  0  0  0  0  0  0  0  0  0  0  0
  161.3090  207.5540  155.8130 O   0  0  0  0  0  0  0  0  0  0  0  0
  161.4320  207.9970  153.4180 C   0  0  1  0  0  3  0  0  0  0  0  0
  159.8780  211.2490  153.9140 C   0  0  0  0  0  2  0  0  0  0  0  0
  162.9230  209.9820  151.7570 C   0  0  0  0  0  1  0  0  0  0  0  0
  160.8180  203.3280  152.7490 C   0  0  0  0  0  3  0  0  0  0  0  0
  161.0130  204.5670  152.1310 C   0  0  0  0  0  0  0  0  0  0  0  0
  161.5750  209.6960  151.1050 C   0  0  2  0  0  3  0  0  0  0  0  0
  161.7400  207.4270  146.6530 C   0  0  0  0  0  2  0  0  0  0  0  0
  160.3760  205.9430  145.1750 C   0  0  0  0  0  1  0  0  0  0  0  0
  161.6330  206.0480  146.0170 C   0  0  0  0  0  2  0  0  0  0  0  0
  1 19  2  0  0  0  0
  1  4  1  0  0  0  0
  2 13  2  0  0  0  0
  2 19  1  0  0  0  0
  3 10  1  0  0  0  0
  4 20  2  0  0  0  0
  5  1  1  0  0  0  0
  6  8  1  0  0  0  0
  7 15  1  1  0  0  0
  7  9  1  0  0  0  0
  8 12  2  0  0  0  0
  9 22  1  0  0  0  0
  9 14  1  1  0  0  0
 10 21  2  0  0  0  0
 11  5  2  0  0  0  0
 11  8  1  0  0  0  0
 12  4  1  0  0  0  0
 12 27  1  0  0  0  0
 13 18  1  0  0  0  0
 15 23  1  0  0  0  0
 16  2  1  0  0  0  0
 17  3  1  0  0  0  0
 18 25  2  0  0  0  0
 19 26  1  0  0  0  0
 20 17  1  0  0  0  0
 22 20  1  6  0  0  0
 22 10  1  0  0  0  0
 23 14  1  0  0  0  0
 26 25  1  0  0  0  0
 26 17  2  0  0  0  0
 27 24  1  1  0  0  0
 27  7  1  0  0  0  0
 28 11  1  0  0  0  0
 29 30  1  0  0  0  0
 30 28  1  0  0  0  0
M  END
>  <MODEL>
1

>  <REMARK>
 VINA RESULT:      -8.2      0.000      0.000
  Name = 
  2 active torsions:
  status: ('A' for Active; 'I' for Inactive)
    1  A    between atoms: C_11  and  C_28
    2  A    between atoms: C_28  and  C_30
                            x       y       z     vdW  Elec       q    Type
                         _______ _______ _______ _____ _____    ______ ____

>  <TORSDO>
F 2

$$$$
=
 OpenBabel11122412363D

 30 35  0  0  1  0  0  0  0  0999 V2000
  161.4620  207.8770  151.4750 C   0  0  0  0  0  0  0  0  0  0  0  0
  161.5850  210.3280  150.9170 C   0  0  0  0  0  0  0  0  0  0  0  0
  162.2920  206.8710  147.4720 N   0  0  0  0  0  2  0  0  0  0  0  0
  161.5300  206.5170  151.0380 C   0  0  0  0  0  0  0  0  0  0  0  0
  161.2050  208.1300  152.8290 C   0  0  0  0  0  3  0  0  0  0  0  0
  160.8240  204.7490  154.2360 O   0  0  0  0  0  1  0  0  0  0  0  0
  160.3000  203.7030  150.4300 C   0  0  1  0  0  3  0  0  0  0  0  0
  161.0450  205.7710  153.3160 C   0  0  0  0  0  0  0  0  0  0  0  0
  160.7520  204.1050  149.0210 C   0  0  2  0  0  3  0  0  0  0  0  0
  162.3060  205.4550  147.5910 C   0  0  0  0  0  0  0  0  0  0  0  0
  161.0070  207.1020  153.7440 C   0  0  0  0  0  0  0  0  0  0  0  0
  161.2970  205.4650  151.9690 C   0  0  0  0  0  0  0  0  0  0  0  0
  161.7800  211.3260  149.9580 C   0  0  0  0  0  3  0  0  0  0  0  0
  160.9410  202.8770  148.2570 N   0  0  0  0  0  2  0  0  0  0  0  0
  160.0060  202.2240  150.3570 C   0  0  0  0  0  2  0  0  0  0  0  0
  161.3260  210.7340  152.2210 O   0  0  0  0  0  1  0  0  0  0  0  0
  161.9950  207.3140  148.7880 C   0  0  0  0  0  0  0  0  0  0  0  0
  162.0420  211.0000  148.6310 C   0  0  0  0  0  3  0  0  0  0  0  0
  161.6510  208.9530  150.5480 C   0  0  0  0  0  0  0  0  0  0  0  0
  161.8120  206.2760  149.6780 C   0  0  0  0  0  0  0  0  0  0  0  0
  162.5810  204.7020  146.6200 O   0  0  0  0  0  0  0  0  0  0  0  0
  162.0190  204.9660  148.9780 C   0  0  1  0  0  3  0  0  0  0  0  0
  160.0780  201.8900  148.8860 C   0  0  0  0  0  2  0  0  0  0  0  0
  162.6640  203.4060  151.4440 C   0  0  0  0  0  1  0  0  0  0  0  0
  162.1100  209.6640  148.2460 C   0  0  0  0  0  3  0  0  0  0  0  0
  161.9180  208.6460  149.1840 C   0  0  0  0  0  0  0  0  0  0  0  0
  161.2710  204.0080  151.5830 C   0  0  2  0  0  3  0  0  0  0  0  0
  160.7240  207.4470  155.1720 C   0  0  0  0  0  2  0  0  0  0  0  0
  162.0190  208.8790  156.7580 C   0  0  0  0  0  1  0  0  0  0  0  0
  161.1770  208.8630  155.4960 C   0  0  0  0  0  2  0  0  0  0  0  0
  1  5  2  0  0  0  0
  2 16  1  0  0  0  0
  3 10  1  0  0  0  0
  3 17  1  0  0  0  0
  4  1  1  0  0  0  0
  4 12  2  0  0  0  0
  5 11  1  0  0  0  0
  7 15  1  6  0  0  0
  7 27  1  0  0  0  0
  8 11  2  0  0  0  0
  8  6  1  0  0  0  0
  9 14  1  6  0  0  0
  9  7  1  0  0  0  0
 11 28  1  0  0  0  0
 12  8  1  0  0  0  0
 13  2  2  0  0  0  0
 14 23  1  0  0  0  0
 17 26  1  0  0  0  0
 17 20  2  0  0  0  0
 18 13  1  0  0  0  0
 19  2  1  0  0  0  0
 19  1  1  0  0  0  0
 20  4  1  0  0  0  0
 21 10  2  0  0  0  0
 22 10  1  6  0  0  0
 22  9  1  0  0  0  0
 22 20  1  0  0  0  0
 23 15  1  0  0  0  0
 25 18  2  0  0  0  0
 25 26  1  0  0  0  0
 26 19  2  0  0  0  0
 27 24  1  6  0  0  0
 27 12  1  0  0  0  0
 28 30  1  0  0  0  0
 30 29  1  0  0  0  0
M  END
>  <MODEL>
2

>  <REMARK>
 VINA RESULT:      -7.2      2.559      7.246
  Name = 
  2 active torsions:
  status: ('A' for Active; 'I' for Inactive)
    1  A    between atoms: C_11  and  C_28
    2  A    between atoms: C_28  and  C_30
                            x       y       z     vdW  Elec       q    Type
                         _______ _______ _______ _____ _____    ______ ____

>  <TORSDO>
F 2

$$$$
=
 OpenBabel11122412363D

 30 35  0  0  1  0  0  0  0  0999 V2000
  160.7940  209.7750  152.5060 C   0  0  0  0  0  0  0  0  0  0  0  0
  160.4190  212.2180  152.0310 C   0  0  0  0  0  0  0  0  0  0  0  0
  162.0530  209.1440  148.5390 N   0  0  0  0  0  2  0  0  0  0  0  0
  161.1780  208.4810  152.0340 C   0  0  0  0  0  0  0  0  0  0  0  0
  160.4100  209.9090  153.8470 C   0  0  0  0  0  3  0  0  0  0  0  0
  160.6830  206.4670  155.1240 O   0  0  0  0  0  1  0  0  0  0  0  0
  160.6200  205.4990  151.2630 C   0  0  1  0  0  3  0  0  0  0  0  0
  160.7320  207.5510  154.2520 C   0  0  0  0  0  0  0  0  0  0  0  0
  161.0560  206.0480  149.8990 C   0  0  2  0  0  3  0  0  0  0  0  0
  162.3640  207.7590  148.6160 C   0  0  0  0  0  0  0  0  0  0  0  0
  160.3840  208.8240  154.7160 C   0  0  0  0  0  0  0  0  0  0  0  0
  161.1230  207.3640  152.9160 C   0  0  0  0  0  0  0  0  0  0  0  0
  160.4510  213.2750  151.1170 C   0  0  0  0  0  3  0  0  0  0  0  0
  161.5480  204.9240  149.1130 N   0  0  0  0  0  2  0  0  0  0  0  0
  160.6550  203.9960  151.1260 C   0  0  0  0  0  2  0  0  0  0  0  0
  160.0040  212.5030  153.3260 O   0  0  0  0  0  1  0  0  0  0  0  0
  161.5920  209.4550  149.8450 C   0  0  0  0  0  0  0  0  0  0  0  0
  160.8550  213.0700  149.8010 C   0  0  0  0  0  3  0  0  0  0  0  0
  160.8010  210.9070  151.6270 C   0  0  0  0  0  0  0  0  0  0  0  0
  161.5850  208.3650  150.6890 C   0  0  0  0  0  0  0  0  0  0  0  0
  162.8500  207.1240  147.6440 O   0  0  0  0  0  0  0  0  0  0  0  0
  162.1080  207.1600  149.9660 C   0  0  1  0  0  3  0  0  0  0  0  0
  160.8830  203.7490  149.6530 C   0  0  0  0  0  2  0  0  0  0  0  0
  162.9290  205.6680  152.4210 C   0  0  0  0  0  1  0  0  0  0  0  0
  161.2310  211.7980  149.3820 C   0  0  0  0  0  3  0  0  0  0  0  0
  161.2070  210.7220  150.2750 C   0  0  0  0  0  0  0  0  0  0  0  0
  161.4330  205.9540  152.4860 C   0  0  2  0  0  3  0  0  0  0  0  0
  159.9500  209.0380  156.1310 C   0  0  0  0  0  2  0  0  0  0  0  0
  162.2090  209.3950  157.1390 C   0  0  0  0  0  1  0  0  0  0  0  0
  160.8630  210.0270  156.8420 C   0  0  0  0  0  2  0  0  0  0  0  0
  1  5  2  0  0  0  0
  2 16  1  0  0  0  0
  3 10  1  0  0  0  0
  3 17  1  0  0  0  0
  4  1  1  0  0  0  0
  4 12  2  0  0  0  0
  5 11  1  0  0  0  0
  7 15  1  6  0  0  0
  7 27  1  0  0  0  0
  8 11  2  0  0  0  0
  8  6  1  0  0  0  0
  9 14  1  6  0  0  0
  9 22  1  0  0  0  0
  9  7  1  0  0  0  0
 11 28  1  0  0  0  0
 12  8  1  0  0  0  0
 13  2  2  0  0  0  0
 14 23  1  0  0  0  0
 17 26  1  0  0  0  0
 17 20  2  0  0  0  0
 18 13  1  0  0  0  0
 19  2  1  0  0  0  0
 19  1  1  0  0  0  0
 20  4  1  0  0  0  0
 21 10  2  0  0  0  0
 22 10  1  6  0  0  0
 22 20  1  0  0  0  0
 23 15  1  0  0  0  0
 25 18  2  0  0  0  0
 25 26  1  0  0  0  0
 26 19  2  0  0  0  0
 27 24  1  6  0  0  0
 27 12  1  0  0  0  0
 28 30  1  0  0  0  0
 30 29  1  0  0  0  0
M  END
>  <MODEL>
3

>  <REMARK>
 VINA RESULT:      -7.1      2.480      7.417
  Name = 
  2 active torsions:
  status: ('A' for Active; 'I' for Inactive)
    1  A    between atoms: C_11  and  C_28
    2  A    between atoms: C_28  and  C_30
                            x       y       z     vdW  Elec       q    Type
                         _______ _______ _______ _____ _____    ______ ____

>  <TORSDO>
F 2

$$$$
=
 OpenBabel11122412363D

 30 35  0  0  1  0  0  0  0  0999 V2000
  161.6130  207.9310  149.7070 C   0  0  0  0  0  0  0  0  0  0  0  0
  161.5530  205.9810  148.1180 C   0  0  0  0  0  0  0  0  0  0  0  0
  161.0200  205.3490  152.9790 N   0  0  0  0  0  2  0  0  0  0  0  0
  161.5200  208.4220  151.0480 C   0  0  0  0  0  0  0  0  0  0  0  0
  161.8360  208.8520  148.6750 C   0  0  0  0  0  3  0  0  0  0  0  0
  161.9370  212.0720  150.4560 O   0  0  0  0  0  1  0  0  0  0  0  0
  160.1390  210.0230  153.3570 C   0  0  1  0  0  3  0  0  0  0  0  0
  161.8370  210.7030  150.2240 C   0  0  0  0  0  0  0  0  0  0  0  0
  160.0860  208.6080  153.9460 C   0  0  2  0  0  3  0  0  0  0  0  0
  161.0660  206.3020  154.0330 C   0  0  0  0  0  0  0  0  0  0  0  0
  161.9560  210.2150  148.9190 C   0  0  0  0  0  0  0  0  0  0  0  0
  161.6120  209.8220  151.2940 C   0  0  0  0  0  0  0  0  0  0  0  0
  161.4150  204.6040  147.9220 C   0  0  0  0  0  3  0  0  0  0  0  0
  159.9940  208.7420  155.3940 N   0  0  0  0  0  2  0  0  0  0  0  0
  159.8290  210.9530  154.5050 C   0  0  0  0  0  2  0  0  0  0  0  0
  161.7580  206.7710  146.9930 O   0  0  0  0  0  1  0  0  0  0  0  0
  161.1930  206.1360  151.8100 C   0  0  0  0  0  0  0  0  0  0  0  0
  161.2060  203.7470  148.9980 C   0  0  0  0  0  3  0  0  0  0  0  0
  161.4810  206.5320  149.4300 C   0  0  0  0  0  0  0  0  0  0  0  0
  161.3190  207.4830  152.0790 C   0  0  0  0  0  0  0  0  0  0  0  0
  160.9870  205.9690  155.2440 O   0  0  0  0  0  0  0  0  0  0  0  0
  161.2670  207.7110  153.5610 C   0  0  1  0  0  3  0  0  0  0  0  0
  159.3920  210.0440  155.6290 C   0  0  0  0  0  2  0  0  0  0  0  0
  162.7060  210.3280  153.5150 C   0  0  0  0  0  1  0  0  0  0  0  0
  161.1310  204.2610  150.2890 C   0  0  0  0  0  3  0  0  0  0  0  0
  161.2640  205.6350  150.5140 C   0  0  0  0  0  0  0  0  0  0  0  0
  161.4470  210.4340  152.6610 C   0  0  2  0  0  3  0  0  0  0  0  0
  162.1790  211.1420  147.7650 C   0  0  0  0  0  2  0  0  0  0  0  0
  161.0920  213.3250  147.2210 C   0  0  0  0  0  1  0  0  0  0  0  0
  160.8850  211.8280  147.3540 C   0  0  0  0  0  2  0  0  0  0  0  0
  1  4  1  0  0  0  0
  2 19  1  0  0  0  0
  3 10  1  0  0  0  0
  4 12  1  0  0  0  0
  4 20  2  0  0  0  0
  5 11  2  0  0  0  0
  5  1  1  0  0  0  0
  7  9  1  0  0  0  0
  7 15  1  1  0  0  0
  8  6  1  0  0  0  0
  8 12  2  0  0  0  0
  9 14  1  1  0  0  0
 10 21  2  0  0  0  0
 11  8  1  0  0  0  0
 12 27  1  0  0  0  0
 13  2  2  0  0  0  0
 13 18  1  0  0  0  0
 14 23  1  0  0  0  0
 15 23  1  0  0  0  0
 16  2  1  0  0  0  0
 17 20  1  0  0  0  0
 17  3  1  0  0  0  0
 18 25  2  0  0  0  0
 19  1  2  0  0  0  0
 19 26  1  0  0  0  0
 22 20  1  6  0  0  0
 22  9  1  0  0  0  0
 22 10  1  0  0  0  0
 25 26  1  0  0  0  0
 26 17  2  0  0  0  0
 27  7  1  0  0  0  0
 27 24  1  1  0  0  0
 28 11  1  0  0  0  0
 29 30  1  0  0  0  0
 30 28  1  0  0  0  0
M  END
>  <MODEL>
4

>  <REMARK>
 VINA RESULT:      -6.8      1.861      2.860
  Name = 
  2 active torsions:
  status: ('A' for Active; 'I' for Inactive)
    1  A    between atoms: C_11  and  C_28
    2  A    between atoms: C_28  and  C_30
                            x       y       z     vdW  Elec       q    Type
                         _______ _______ _______ _____ _____    ______ ____

>  <TORSDO>
F 2

$$$$
=
 OpenBabel11122412363D

 30 35  0  0  1  0  0  0  0  0999 V2000
  161.4650  207.6350  150.7590 C   0  0  0  0  0  0  0  0  0  0  0  0
  161.3980  205.4100  149.5860 C   0  0  0  0  0  0  0  0  0  0  0  0
  160.5810  205.7810  154.4340 N   0  0  0  0  0  2  0  0  0  0  0  0
  161.3250  208.3860  151.9690 C   0  0  0  0  0  0  0  0  0  0  0  0
  161.7850  208.3220  149.5810 C   0  0  0  0  0  3  0  0  0  0  0  0
  161.9440  211.8280  150.6950 O   0  0  0  0  0  1  0  0  0  0  0  0
  159.9010  210.4640  153.8280 C   0  0  1  0  0  3  0  0  0  0  0  0
  161.7920  210.4440  150.7320 C   0  0  0  0  0  0  0  0  0  0  0  0
  159.7500  209.1970  154.6800 C   0  0  2  0  0  3  0  0  0  0  0  0
  160.6150  206.9220  155.2800 C   0  0  0  0  0  0  0  0  0  0  0  0
  161.9560  209.7010  149.5580 C   0  0  0  0  0  0  0  0  0  0  0  0
  161.4700  209.8030  151.9390 C   0  0  0  0  0  0  0  0  0  0  0  0
  161.2060  204.0280  149.6570 C   0  0  0  0  0  3  0  0  0  0  0  0
  159.5890  209.6210  156.0660 N   0  0  0  0  0  2  0  0  0  0  0  0
  159.5750  211.6150  154.7490 C   0  0  0  0  0  2  0  0  0  0  0  0
  161.6980  205.9520  148.3420 O   0  0  0  0  0  1  0  0  0  0  0  0
  160.8520  206.3110  153.1460 C   0  0  0  0  0  0  0  0  0  0  0  0
  160.9010  203.4100  150.8670 C   0  0  0  0  0  3  0  0  0  0  0  0
  161.2830  206.2140  150.7560 C   0  0  0  0  0  0  0  0  0  0  0  0
  161.0260  207.6790  153.1510 C   0  0  0  0  0  0  0  0  0  0  0  0
  160.4580  206.8400  156.5260 O   0  0  0  0  0  0  0  0  0  0  0  0
  160.9070  208.2000  154.5530 C   0  0  1  0  0  3  0  0  0  0  0  0
  159.0370  210.9650  156.0020 C   0  0  0  0  0  2  0  0  0  0  0  0
  162.4670  210.7030  154.0790 C   0  0  0  0  0  1  0  0  0  0  0  0
  160.7820  204.1740  152.0240 C   0  0  0  0  0  3  0  0  0  0  0  0
  160.9670  205.5590  151.9800 C   0  0  0  0  0  0  0  0  0  0  0  0
  161.2620  210.6810  153.1460 C   0  0  2  0  0  3  0  0  0  0  0  0
  162.2830  210.3710  148.2610 C   0  0  0  0  0  2  0  0  0  0  0  0
  161.8520  212.6090  147.2360 C   0  0  0  0  0  1  0  0  0  0  0  0
  161.2200  211.3940  147.8870 C   0  0  0  0  0  2  0  0  0  0  0  0
  1  4  1  0  0  0  0
  2 13  2  0  0  0  0
  2 19  1  0  0  0  0
  3 10  1  0  0  0  0
  4 20  2  0  0  0  0
  5  1  1  0  0  0  0
  6  8  1  0  0  0  0
  7  9  1  0  0  0  0
  7 15  1  1  0  0  0
  8 12  2  0  0  0  0
  9 14  1  1  0  0  0
 10 21  2  0  0  0  0
 11  5  2  0  0  0  0
 11  8  1  0  0  0  0
 12  4  1  0  0  0  0
 12 27  1  0  0  0  0
 13 18  1  0  0  0  0
 15 23  1  0  0  0  0
 16  2  1  0  0  0  0
 17 20  1  0  0  0  0
 17  3  1  0  0  0  0
 18 25  2  0  0  0  0
 19  1  2  0  0  0  0
 19 26  1  0  0  0  0
 22 20  1  6  0  0  0
 22  9  1  0  0  0  0
 22 10  1  0  0  0  0
 23 14  1  0  0  0  0
 26 25  1  0  0  0  0
 26 17  2  0  0  0  0
 27  7  1  0  0  0  0
 27 24  1  1  0  0  0
 28 11  1  0  0  0  0
 29 30  1  0  0  0  0
 30 28  1  0  0  0  0
M  END
>  <MODEL>
5

>  <REMARK>
 VINA RESULT:      -6.6      1.744      2.556
  Name = 
  2 active torsions:
  status: ('A' for Active; 'I' for Inactive)
    1  A    between atoms: C_11  and  C_28
    2  A    between atoms: C_28  and  C_30
                            x       y       z     vdW  Elec       q    Type
                         _______ _______ _______ _____ _____    ______ ____

>  <TORSDO>
F 2

$$$$
=
 OpenBabel11122412363D

 30 35  0  0  1  0  0  0  0  0999 V2000
  161.4080  208.2860  151.3320 C   0  0  0  0  0  0  0  0  0  0  0  0
  161.3550  208.5930  153.8290 C   0  0  0  0  0  0  0  0  0  0  0  0
  160.5960  204.1780  151.7680 N   0  0  0  0  0  2  0  0  0  0  0  0
  161.3090  207.4130  150.2030 C   0  0  0  0  0  0  0  0  0  0  0  0
  161.6560  209.6460  151.1030 C   0  0  0  0  0  3  0  0  0  0  0  0
  161.9350  209.8220  147.4360 O   0  0  0  0  0  1  0  0  0  0  0  0
  162.4720  205.8880  147.7290 C   0  0  1  0  0  3  0  0  0  0  0  0
  161.7500  209.3040  148.7150 C   0  0  0  0  0  0  0  0  0  0  0  0
  162.0460  204.6980  148.5980 C   0  0  2  0  0  3  0  0  0  0  0  0
  160.5440  203.8090  150.3970 C   0  0  0  0  0  0  0  0  0  0  0  0
  161.8170  210.1580  149.8210 C   0  0  0  0  0  0  0  0  0  0  0  0
  161.5050  207.9320  148.8910 C   0  0  0  0  0  0  0  0  0  0  0  0
  161.1960  208.0300  155.0980 C   0  0  0  0  0  3  0  0  0  0  0  0
  161.8350  203.5630  147.7080 N   0  0  0  0  0  2  0  0  0  0  0  0
  162.7290  205.3170  146.3550 C   0  0  0  0  0  2  0  0  0  0  0  0
  161.6090  209.9580  153.7610 O   0  0  0  0  0  1  0  0  0  0  0  0
  160.8900  205.5670  151.7290 C   0  0  0  0  0  0  0  0  0  0  0  0
  160.9400  206.6700  155.2490 C   0  0  0  0  0  3  0  0  0  0  0  0
  161.2570  207.7800  152.6640 C   0  0  0  0  0  0  0  0  0  0  0  0
  161.0360  206.0520  150.4460 C   0  0  0  0  0  0  0  0  0  0  0  0
  160.2610  202.6400  150.0260 O   0  0  0  0  0  0  0  0  0  0  0  0
  160.8030  204.9480  149.4570 C   0  0  1  0  0  3  0  0  0  0  0  0
  162.6650  203.8200  146.5420 C   0  0  0  0  0  2  0  0  0  0  0  0
  160.0900  206.7370  147.1730 C   0  0  0  0  0  1  0  0  0  0  0  0
  160.8410  205.8550  154.1260 C   0  0  0  0  0  3  0  0  0  0  0  0
  160.9970  206.3920  152.8450 C   0  0  0  0  0  0  0  0  0  0  0  0
  161.4980  207.0740  147.6530 C   0  0  2  0  0  3  0  0  0  0  0  0
  162.0940  211.6180  149.6520 C   0  0  0  0  0  2  0  0  0  0  0  0
  160.7650  213.1360  148.1770 C   0  0  0  0  0  1  0  0  0  0  0  0
  160.8020  212.4100  149.5080 C   0  0  0  0  0  2  0  0  0  0  0  0
  1 19  1  0  0  0  0
  2 13  1  0  0  0  0
  4 20  1  0  0  0  0
  4  1  2  0  0  0  0
  5  1  1  0  0  0  0
  6  8  1  0  0  0  0
  7 15  1  6  0  0  0
  7  9  1  0  0  0  0
  8 12  2  0  0  0  0
  8 11  1  0  0  0  0
  9 14  1  6  0  0  0
  9 22  1  0  0  0  0
 10  3  1  0  0  0  0
 11  5  2  0  0  0  0
 12  4  1  0  0  0  0
 13 18  2  0  0  0  0
 15 23  1  0  0  0  0
 16  2  1  0  0  0  0
 17  3  1  0  0  0  0
 17 26  1  0  0  0  0
 19 26  1  0  0  0  0
 19  2  2  0  0  0  0
 20 17  2  0  0  0  0
 21 10  2  0  0  0  0
 22 10  1  1  0  0  0
 22 20  1  0  0  0  0
 23 14  1  0  0  0  0
 25 18  1  0  0  0  0
 26 25  2  0  0  0  0
 27 24  1  1  0  0  0
 27  7  1  0  0  0  0
 27 12  1  0  0  0  0
 28 11  1  0  0  0  0
 29 30  1  0  0  0  0
 30 28  1  0  0  0  0
M  END
>  <MODEL>
6

>  <REMARK>
 VINA RESULT:      -6.3      2.158      5.651
  Name = 
  2 active torsions:
  status: ('A' for Active; 'I' for Inactive)
    1  A    between atoms: C_11  and  C_28
    2  A    between atoms: C_28  and  C_30
                            x       y       z     vdW  Elec       q    Type
                         _______ _______ _______ _____ _____    ______ ____

>  <TORSDO>
F 2

$$$$
=
 OpenBabel11122412363D

 30 35  0  0  1  0  0  0  0  0999 V2000
  161.1480  209.0220  151.8640 C   0  0  0  0  0  0  0  0  0  0  0  0
  162.0490  209.0780  149.5140 C   0  0  0  0  0  0  0  0  0  0  0  0
  160.0690  213.0830  151.6000 N   0  0  0  0  0  2  0  0  0  0  0  0
  160.5400  209.7140  152.9580 C   0  0  0  0  0  0  0  0  0  0  0  0
  161.4560  207.6650  152.0210 C   0  0  0  0  0  3  0  0  0  0  0  0
  160.3930  206.9790  155.4780 O   0  0  0  0  0  1  0  0  0  0  0  0
  160.5280  210.9410  155.8390 C   0  0  1  0  0  3  0  0  0  0  0  0
  160.6290  207.6630  154.2880 C   0  0  0  0  0  0  0  0  0  0  0  0
  160.3100  212.2120  155.0070 C   0  0  2  0  0  3  0  0  0  0  0  0
  159.4750  213.2450  152.8820 C   0  0  0  0  0  0  0  0  0  0  0  0
  161.1970  206.9850  153.2050 C   0  0  0  0  0  0  0  0  0  0  0  0
  160.3030  209.0250  154.1820 C   0  0  0  0  0  0  0  0  0  0  0  0
  162.2990  209.8070  148.3490 C   0  0  0  0  0  3  0  0  0  0  0  0
  159.6540  213.1890  155.8680 N   0  0  0  0  0  2  0  0  0  0  0  0
  160.1940  211.3240  157.2600 C   0  0  0  0  0  2  0  0  0  0  0  0
  162.4210  207.7390  149.5260 O   0  0  0  0  0  1  0  0  0  0  0  0
  160.4910  211.7280  151.5970 C   0  0  0  0  0  0  0  0  0  0  0  0
  161.9560  211.1530  148.2600 C   0  0  0  0  0  3  0  0  0  0  0  0
  161.4360  209.7050  150.6370 C   0  0  0  0  0  0  0  0  0  0  0  0
  160.2150  211.0730  152.7790 C   0  0  0  0  0  0  0  0  0  0  0  0
  158.9390  214.3260  153.2420 O   0  0  0  0  0  0  0  0  0  0  0  0
  159.5070  212.0030  153.7200 C   0  0  1  0  0  3  0  0  0  0  0  0
  160.0250  212.8240  157.2260 C   0  0  0  0  0  2  0  0  0  0  0  0
  158.2260  209.8570  155.3570 C   0  0  0  0  0  1  0  0  0  0  0  0
  161.3570  211.7880  149.3440 C   0  0  0  0  0  3  0  0  0  0  0  0
  161.0970  211.0830  150.5230 C   0  0  0  0  0  0  0  0  0  0  0  0
  159.7410  209.6910  155.4110 C   0  0  2  0  0  3  0  0  0  0  0  0
  161.5640  205.5380  153.3070 C   0  0  0  0  0  2  0  0  0  0  0  0
  160.8740  203.5380  151.9760 C   0  0  0  0  0  1  0  0  0  0  0  0
  161.5840  204.8780  151.9360 C   0  0  0  0  0  2  0  0  0  0  0  0
  1  5  2  0  0  0  0
  1  4  1  0  0  0  0
  2 16  1  0  0  0  0
  2 19  1  0  0  0  0
  3 10  1  0  0  0  0
  4 12  2  0  0  0  0
  5 11  1  0  0  0  0
  7 15  1  1  0  0  0
  8  6  1  0  0  0  0
  9  7  1  0  0  0  0
  9 14  1  1  0  0  0
 10 21  2  0  0  0  0
 10 22  1  0  0  0  0
 11 28  1  0  0  0  0
 11  8  2  0  0  0  0
 12  8  1  0  0  0  0
 12 27  1  0  0  0  0
 13  2  2  0  0  0  0
 14 23  1  0  0  0  0
 17  3  1  0  0  0  0
 17 20  2  0  0  0  0
 18 13  1  0  0  0  0
 18 25  2  0  0  0  0
 19  1  1  0  0  0  0
 20  4  1  0  0  0  0
 22 20  1  6  0  0  0
 22  9  1  0  0  0  0
 23 15  1  0  0  0  0
 25 26  1  0  0  0  0
 26 19  2  0  0  0  0
 26 17  1  0  0  0  0
 27 24  1  6  0  0  0
 27  7  1  0  0  0  0
 30 29  1  0  0  0  0
 30 28  1  0  0  0  0
M  END
>  <MODEL>
7

>  <REMARK>
 VINA RESULT:      -6.1      2.600      5.920
  Name = 
  2 active torsions:
  status: ('A' for Active; 'I' for Inactive)
    1  A    between atoms: C_11  and  C_28
    2  A    between atoms: C_28  and  C_30
                            x       y       z     vdW  Elec       q    Type
                         _______ _______ _______ _____ _____    ______ ____

>  <TORSDO>
F 2

$$$$
=
 OpenBabel11122412363D

 30 35  0  0  1  0  0  0  0  0999 V2000
  160.7760  210.5520  151.7020 C   0  0  0  0  0  0  0  0  0  0  0  0
  161.9250  208.6700  150.4890 C   0  0  0  0  0  0  0  0  0  0  0  0
  160.4980  208.2050  155.1860 N   0  0  0  0  0  2  0  0  0  0  0  0
  160.1560  211.0420  152.8940 C   0  0  0  0  0  0  0  0  0  0  0  0
  160.8520  211.4030  150.5910 C   0  0  0  0  0  3  0  0  0  0  0  0
  159.1670  214.4530  151.7810 O   0  0  0  0  0  1  0  0  0  0  0  0
  157.7070  212.0260  154.5780 C   0  0  1  0  0  3  0  0  0  0  0  0
  159.7010  213.1670  151.7710 C   0  0  0  0  0  0  0  0  0  0  0  0
  158.0940  210.7760  155.3780 C   0  0  2  0  0  3  0  0  0  0  0  0
  159.8800  209.1500  156.0490 C   0  0  0  0  0  0  0  0  0  0  0  0
  160.3340  212.6930  150.6180 C   0  0  0  0  0  0  0  0  0  0  0  0
  159.5980  212.3530  152.9110 C   0  0  0  0  0  0  0  0  0  0  0  0
  162.4210  207.3640  150.5080 C   0  0  0  0  0  3  0  0  0  0  0  0
  157.5950  210.9550  156.7360 N   0  0  0  0  0  2  0  0  0  0  0  0
  156.7640  212.8010  155.4670 C   0  0  0  0  0  2  0  0  0  0  0  0
  162.0620  209.3900  149.3080 O   0  0  0  0  0  1  0  0  0  0  0  0
  160.6190  208.9040  153.9560 C   0  0  0  0  0  0  0  0  0  0  0  0
  162.3200  206.5780  151.6530 C   0  0  0  0  0  3  0  0  0  0  0  0
  161.3060  209.2220  151.6470 C   0  0  0  0  0  0  0  0  0  0  0  0
  160.1070  210.1840  154.0110 C   0  0  0  0  0  0  0  0  0  0  0  0
  159.6450  208.9000  157.2600 O   0  0  0  0  0  0  0  0  0  0  0  0
  159.5950  210.4670  155.3920 C   0  0  1  0  0  3  0  0  0  0  0  0
  156.4730  211.8720  156.6210 C   0  0  0  0  0  2  0  0  0  0  0  0
  159.7900  213.4410  155.1830 C   0  0  0  0  0  1  0  0  0  0  0  0
  161.7180  207.0940  152.7960 C   0  0  0  0  0  3  0  0  0  0  0  0
  161.2130  208.3980  152.8040 C   0  0  0  0  0  0  0  0  0  0  0  0
  158.8580  212.9220  154.0930 C   0  0  2  0  0  3  0  0  0  0  0  0
  160.4380  213.5410  149.3900 C   0  0  0  0  0  2  0  0  0  0  0  0
  162.3840  214.1220  147.9330 C   0  0  0  0  0  1  0  0  0  0  0  0
  161.4940  213.0010  148.4360 C   0  0  0  0  0  2  0  0  0  0  0  0
  1  4  1  0  0  0  0
  2 13  2  0  0  0  0
  2 19  1  0  0  0  0
  3 10  1  0  0  0  0
  4 12  1  0  0  0  0
  4 20  2  0  0  0  0
  5 11  2  0  0  0  0
  5  1  1  0  0  0  0
  7  9  1  0  0  0  0
  7 15  1  1  0  0  0
  8  6  1  0  0  0  0
  8 12  2  0  0  0  0
  9 22  1  0  0  0  0
  9 14  1  1  0  0  0
 10 21  2  0  0  0  0
 11  8  1  0  0  0  0
 12 27  1  0  0  0  0
 13 18  1  0  0  0  0
 15 23  1  0  0  0  0
 16  2  1  0  0  0  0
 17 20  1  0  0  0  0
 17  3  1  0  0  0  0
 18 25  2  0  0  0  0
 19  1  2  0  0  0  0
 19 26  1  0  0  0  0
 22 20  1  6  0  0  0
 22 10  1  0  0  0  0
 23 14  1  0  0  0  0
 25 26  1  0  0  0  0
 26 17  2  0  0  0  0
 27  7  1  0  0  0  0
 27 24  1  1  0  0  0
 28 11  1  0  0  0  0
 29 30  1  0  0  0  0
 30 28  1  0  0  0  0
M  END
>  <MODEL>
8

>  <REMARK>
 VINA RESULT:      -5.9      2.857      5.065
  Name = 
  2 active torsions:
  status: ('A' for Active; 'I' for Inactive)
    1  A    between atoms: C_11  and  C_28
    2  A    between atoms: C_28  and  C_30
                            x       y       z     vdW  Elec       q    Type
                         _______ _______ _______ _____ _____    ______ ____

>  <TORSDO>
F 2

$$$$
=
 OpenBabel11122412363D

 30 35  0  0  1  0  0  0  0  0999 V2000
  161.5270  207.8560  150.8960 C   0  0  0  0  0  0  0  0  0  0  0  0
  162.0190  208.6050  148.5440 C   0  0  0  0  0  0  0  0  0  0  0  0
  160.8230  211.8380  152.0710 N   0  0  0  0  0  2  0  0  0  0  0  0
  161.1830  208.1960  152.2420 C   0  0  0  0  0  0  0  0  0  0  0  0
  161.7210  206.5060  150.5780 C   0  0  0  0  0  3  0  0  0  0  0  0
  161.1940  204.8200  153.8090 O   0  0  0  0  0  1  0  0  0  0  0  0
  161.7780  208.4630  155.3050 C   0  0  1  0  0  3  0  0  0  0  0  0
  161.2920  205.8310  152.8560 C   0  0  0  0  0  0  0  0  0  0  0  0
  161.5490  209.9370  154.9490 C   0  0  2  0  0  3  0  0  0  0  0  0
  160.4730  211.6160  153.4300 C   0  0  0  0  0  0  0  0  0  0  0  0
  161.6000  205.5020  151.5320 C   0  0  0  0  0  0  0  0  0  0  0  0
  161.0890  207.1700  153.2260 C   0  0  0  0  0  0  0  0  0  0  0  0
  162.1390  209.6500  147.6250 C   0  0  0  0  0  3  0  0  0  0  0  0
  161.1480  210.6230  156.1710 N   0  0  0  0  0  2  0  0  0  0  0  0
  161.7280  208.3960  156.8120 C   0  0  0  0  0  2  0  0  0  0  0  0
  162.2540  207.3150  148.0830 O   0  0  0  0  0  1  0  0  0  0  0  0
  161.1040  210.5350  151.5810 C   0  0  0  0  0  0  0  0  0  0  0  0
  161.9200  210.9690  148.0100 C   0  0  0  0  0  3  0  0  0  0  0  0
  161.6680  208.8750  149.8990 C   0  0  0  0  0  0  0  0  0  0  0  0
  160.9670  209.5560  152.5440 C   0  0  0  0  0  0  0  0  0  0  0  0
  160.1150  212.5510  154.1930 O   0  0  0  0  0  0  0  0  0  0  0  0
  160.5240  210.1740  153.8360 C   0  0  1  0  0  3  0  0  0  0  0  0
  161.7040  209.8380  157.2610 C   0  0  0  0  0  2  0  0  0  0  0  0
  159.3330  207.6790  154.9700 C   0  0  0  0  0  1  0  0  0  0  0  0
  161.5790  211.2590  149.3270 C   0  0  0  0  0  3  0  0  0  0  0  0
  161.4530  210.2330  150.2680 C   0  0  0  0  0  0  0  0  0  0  0  0
  160.8110  207.4420  154.6820 C   0  0  2  0  0  3  0  0  0  0  0  0
  161.8350  204.0820  151.1240 C   0  0  0  0  0  2  0  0  0  0  0  0
  161.2640  203.6200  148.7350 C   0  0  0  0  0  1  0  0  0  0  0  0
  160.7570  203.5990  150.1650 C   0  0  0  0  0  2  0  0  0  0  0  0
  1  4  1  0  0  0  0
  2 19  1  0  0  0  0
  3 10  1  0  0  0  0
  4 20  1  0  0  0  0
  4 12  2  0  0  0  0
  5  1  2  0  0  0  0
  5 11  1  0  0  0  0
  7 15  1  1  0  0  0
  8 12  1  0  0  0  0
  8  6  1  0  0  0  0
  9  7  1  0  0  0  0
  9 14  1  1  0  0  0
 10 22  1  0  0  0  0
 10 21  2  0  0  0  0
 11  8  2  0  0  0  0
 12 27  1  0  0  0  0
 13 18  1  0  0  0  0
 13  2  2  0  0  0  0
 14 23  1  0  0  0  0
 15 23  1  0  0  0  0
 16  2  1  0  0  0  0
 17  3  1  0  0  0  0
 17 20  2  0  0  0  0
 18 25  2  0  0  0  0
 19 26  2  0  0  0  0
 19  1  1  0  0  0  0
 22 20  1  6  0  0  0
 22  9  1  0  0  0  0
 25 26  1  0  0  0  0
 26 17  1  0  0  0  0
 27 24  1  6  0  0  0
 27  7  1  0  0  0  0
 28 11  1  0  0  0  0
 29 30  1  0  0  0  0
 30 28  1  0  0  0  0
M  END
>  <MODEL>
9

>  <REMARK>
 VINA RESULT:      -5.7      2.118      5.069
  Name = 
  2 active torsions:
  status: ('A' for Active; 'I' for Inactive)
    1  A    between atoms: C_11  and  C_28
    2  A    between atoms: C_28  and  C_30
                            x       y       z     vdW  Elec       q    Type
                         _______ _______ _______ _____ _____    ______ ____

>  <TORSDO>
F 2

$$$$
