=
 OpenBabel11122414083D

 28 32  0  0  1  0  0  0  0  0999 V2000
  159.3310  212.6800  142.8030 C   0  0  0  0  0  0  0  0  0  0  0  0
  158.3000  210.3780  140.0790 O   0  0  0  0  0  0  0  0  0  0  0  0
  164.5840  213.5000  139.3510 O   0  0  0  0  0  0  0  0  0  0  0  0
  157.2320  214.4530  142.2490 C   0  0  0  0  0  3  0  0  0  0  0  0
  162.6210  214.4530  138.2950 C   0  0  2  0  0  3  0  0  0  0  0  0
  160.4780  211.7910  143.1660 C   0  0  0  0  0  2  0  0  0  0  0  0
  157.5230  211.1240  137.8660 O   0  0  0  0  0  0  0  0  0  0  0  0
  158.7120  211.0040  138.7770 S   0  0  0  0  0  0  0  0  0  0  0  0
  161.2080  210.6000  137.7350 C   0  0  0  0  0  0  0  0  0  0  0  0
  159.4110  212.6150  139.0480 C   0  0  2  0  0  3  0  0  0  0  0  0
  163.5340  213.8040  143.2920 O   0  0  0  0  0  0  0  0  0  0  0  0
  161.1520  213.8650  140.1750 C   0  0  2  0  0  3  0  0  0  0  0  0
  161.4370  211.8800  137.7960 N   0  0  0  0  0  0  0  0  0  0  0  0
  159.9260  210.0480  138.0210 N   0  0  0  0  0  2  0  0  0  0  0  0
  162.6910  212.9850  142.8440 C   0  0  0  0  0  0  0  0  0  0  0  0
  159.1550  213.1660  141.4910 C   0  0  0  0  0  0  0  0  0  0  0  0
  163.3490  213.7480  139.3730 C   0  0  0  0  0  0  0  0  0  0  0  0
  162.2830  209.7210  137.4290 N   0  0  0  0  0  1  0  0  0  0  0  0
  162.8740  212.4200  141.4740 C   0  0  0  0  0  2  0  0  0  0  0  0
  158.1060  214.0660  141.2310 C   0  0  0  0  0  3  0  0  0  0  0  0
  158.4530  213.0770  143.8180 C   0  0  0  0  0  3  0  0  0  0  0  0
  157.4030  213.9560  143.5410 C   0  0  0  0  0  3  0  0  0  0  0  0
  161.5840  212.5990  143.6620 N   0  0  0  0  0  2  0  0  0  0  0  0
  161.1460  214.1830  138.6680 C   0  0  2  0  0  3  0  0  0  0  0  0
  162.5070  213.4010  140.4580 N   0  0  0  0  0  0  0  0  0  0  0  0
  160.4640  212.9680  138.0100 C   0  0  2  0  0  3  0  0  0  0  0  0
  162.9620  213.9630  137.0310 O   0  0  0  0  0  1  0  0  0  0  0  0
  160.1070  212.7710  140.3920 C   0  0  1  0  0  3  0  0  0  0  0  0
  1  6  1  0  0  0  0
  1 21  1  0  0  0  0
  3 17  2  0  0  0  0
  4 22  1  0  0  0  0
  5 27  1  6  0  0  0
  5 24  1  0  0  0  0
  5 17  1  0  0  0  0
  6 23  1  0  0  0  0
  7  8  2  0  0  0  0
  8  2  2  0  0  0  0
  9 13  2  0  0  0  0
  9 14  1  0  0  0  0
 10  8  1  6  0  0  0
 10 28  1  0  0  0  0
 12 28  1  0  0  0  0
 12 25  1  6  0  0  0
 13 26  1  0  0  0  0
 14  8  1  0  0  0  0
 15 11  2  0  0  0  0
 15 23  1  0  0  0  0
 16  1  2  0  0  0  0
 17 25  1  0  0  0  0
 18  9  1  0  0  0  0
 19 15  1  0  0  0  0
 20 16  1  0  0  0  0
 20  4  2  0  0  0  0
 22 21  2  0  0  0  0
 24 12  1  0  0  0  0
 25 19  1  0  0  0  0
 26 24  1  0  0  0  0
 26 10  1  0  0  0  0
 28 16  1  0  0  0  0
M  END
>  <MODEL>
1

>  <REMARK>
 VINA RESULT:      -2.5      0.000      0.000
  Name = 
  0 active torsions:
  status: ('A' for Active; 'I' for Inactive)
                            x       y       z     vdW  Elec       q    Type
                         _______ _______ _______ _____ _____    ______ ____

>  <TORSDO>
F 0

$$$$
=
 OpenBabel11122414083D

 28 32  0  0  1  0  0  0  0  0999 V2000
  157.9280  213.2850  153.6500 C   0  0  0  0  0  0  0  0  0  0  0  0
  160.1480  212.2630  156.4440 O   0  0  0  0  0  0  0  0  0  0  0  0
  162.2960  210.5760  149.9410 O   0  0  0  0  0  0  0  0  0  0  0  0
  155.8680  211.5950  154.5230 C   0  0  0  0  0  3  0  0  0  0  0  0
  161.0850  208.9590  151.2800 C   0  0  2  0  0  3  0  0  0  0  0  0
  158.9730  214.2110  153.1140 C   0  0  0  0  0  2  0  0  0  0  0  0
  160.3610  209.9500  157.2590 O   0  0  0  0  0  0  0  0  0  0  0  0
  160.6710  210.8900  156.1290 S   0  0  0  0  0  0  0  0  0  0  0  0
  162.9330  210.5420  154.6310 C   0  0  0  0  0  0  0  0  0  0  0  0
  159.9430  210.2700  154.6310 C   0  0  2  0  0  3  0  0  0  0  0  0
  159.4630  213.5000  149.5560 O   0  0  0  0  0  0  0  0  0  0  0  0
  159.6160  210.6670  152.2650 C   0  0  2  0  0  3  0  0  0  0  0  0
  162.2400  209.8880  153.7440 N   0  0  0  0  0  0  0  0  0  0  0  0
  162.3710  210.9500  155.8760 N   0  0  0  0  0  2  0  0  0  0  0  0
  159.7040  213.5090  150.7900 C   0  0  0  0  0  0  0  0  0  0  0  0
  158.1950  211.9200  153.8830 C   0  0  0  0  0  0  0  0  0  0  0  0
  161.3990  210.3180  150.7880 C   0  0  0  0  0  0  0  0  0  0  0  0
  164.2720  210.9100  154.3270 N   0  0  0  0  0  1  0  0  0  0  0  0
  160.8670  212.7340  151.3160 C   0  0  0  0  0  2  0  0  0  0  0  0
  157.1480  211.0820  154.3060 C   0  0  0  0  0  3  0  0  0  0  0  0
  156.6410  213.7900  153.8660 C   0  0  0  0  0  3  0  0  0  0  0  0
  155.6160  212.9510  154.3060 C   0  0  0  0  0  3  0  0  0  0  0  0
  158.8700  214.2750  151.6630 N   0  0  0  0  0  2  0  0  0  0  0  0
  160.1880  209.2570  152.5040 C   0  0  2  0  0  3  0  0  0  0  0  0
  160.5610  211.3080  151.3560 N   0  0  0  0  0  0  0  0  0  0  0  0
  160.8790  209.3380  153.8790 C   0  0  2  0  0  3  0  0  0  0  0  0
  162.2390  208.2450  151.6110 O   0  0  0  0  0  1  0  0  0  0  0  0
  159.5680  211.3520  153.6290 C   0  0  1  0  0  3  0  0  0  0  0  0
  1 21  2  0  0  0  0
  1 16  1  0  0  0  0
  3 17  2  0  0  0  0
  5 27  1  1  0  0  0
  5 24  1  0  0  0  0
  6  1  1  0  0  0  0
  8  2  2  0  0  0  0
  8  7  2  0  0  0  0
  9 14  1  0  0  0  0
 10  8  1  1  0  0  0
 11 15  2  0  0  0  0
 12 25  1  6  0  0  0
 12 24  1  0  0  0  0
 12 28  1  0  0  0  0
 13 26  1  0  0  0  0
 13  9  2  0  0  0  0
 14  8  1  0  0  0  0
 15 19  1  0  0  0  0
 15 23  1  0  0  0  0
 16 20  2  0  0  0  0
 17  5  1  0  0  0  0
 17 25  1  0  0  0  0
 18  9  1  0  0  0  0
 19 25  1  0  0  0  0
 20  4  1  0  0  0  0
 21 22  1  0  0  0  0
 22  4  2  0  0  0  0
 23  6  1  0  0  0  0
 24 26  1  0  0  0  0
 26 10  1  0  0  0  0
 28 16  1  0  0  0  0
 28 10  1  0  0  0  0
M  END
>  <MODEL>
2

>  <REMARK>
 VINA RESULT:      -1.9     11.136     13.751
  Name = 
  0 active torsions:
  status: ('A' for Active; 'I' for Inactive)
                            x       y       z     vdW  Elec       q    Type
                         _______ _______ _______ _____ _____    ______ ____

>  <TORSDO>
F 0

$$$$
=
 OpenBabel11122414083D

 28 32  0  0  1  0  0  0  0  0999 V2000
  158.5650  213.6770  142.4990 C   0  0  0  0  0  0  0  0  0  0  0  0
  162.0920  214.4530  141.6390 O   0  0  0  0  0  0  0  0  0  0  0  0
  158.5430  210.4470  137.0450 O   0  0  0  0  0  0  0  0  0  0  0  0
  159.3250  212.2140  144.7660 C   0  0  0  0  0  3  0  0  0  0  0  0
  159.9480  209.4140  138.7290 C   0  0  2  0  0  3  0  0  0  0  0  0
  158.0720  214.4370  141.3090 C   0  0  0  0  0  2  0  0  0  0  0  0
  163.9420  212.8400  141.8230 O   0  0  0  0  0  0  0  0  0  0  0  0
  162.7020  213.2090  141.0590 S   0  0  0  0  0  0  0  0  0  0  0  0
  162.5120  212.6490  138.3890 C   0  0  0  0  0  0  0  0  0  0  0  0
  161.5490  211.8580  141.1190 C   0  0  2  0  0  3  0  0  0  0  0  0
  155.7760  212.3040  139.4160 O   0  0  0  0  0  0  0  0  0  0  0  0
  159.3600  211.0780  140.4400 C   0  0  2  0  0  3  0  0  0  0  0  0
  161.8740  211.5500  138.6680 N   0  0  0  0  0  0  0  0  0  0  0  0
  163.0950  213.4620  139.4040 N   0  0  0  0  0  2  0  0  0  0  0  0
  156.8390  212.9130  139.7030 C   0  0  0  0  0  0  0  0  0  0  0  0
  159.5120  212.6380  142.3760 C   0  0  0  0  0  0  0  0  0  0  0  0
  159.0120  210.4380  138.2150 C   0  0  0  0  0  0  0  0  0  0  0  0
  162.5830  213.0810  137.0360 N   0  0  0  0  0  1  0  0  0  0  0  0
  158.0600  212.6880  138.8720 C   0  0  0  0  0  2  0  0  0  0  0  0
  159.8720  211.9040  143.5200 C   0  0  0  0  0  3  0  0  0  0  0  0
  158.0180  213.9770  143.7520 C   0  0  0  0  0  3  0  0  0  0  0  0
  158.4010  213.2530  144.8830 C   0  0  0  0  0  3  0  0  0  0  0  0
  156.8520  213.8210  140.8070 N   0  0  0  0  0  2  0  0  0  0  0  0
  160.4450  210.0600  140.0430 C   0  0  2  0  0  3  0  0  0  0  0  0
  158.6730  211.4040  139.1930 N   0  0  0  0  0  0  0  0  0  0  0  0
  161.7490  210.8780  139.9750 C   0  0  2  0  0  3  0  0  0  0  0  0
  160.9810  209.1530  137.8250 O   0  0  0  0  0  1  0  0  0  0  0  0
  160.0900  212.2830  141.0310 C   0  0  1  0  0  3  0  0  0  0  0  0
  1 21  1  0  0  0  0
  3 17  2  0  0  0  0
  4 22  1  0  0  0  0
  5 27  1  6  0  0  0
  5 24  1  0  0  0  0
  6  1  1  0  0  0  0
  8  2  2  0  0  0  0
  8  7  2  0  0  0  0
  9 13  2  0  0  0  0
  9 14  1  0  0  0  0
 10  8  1  6  0  0  0
 11 15  2  0  0  0  0
 12 25  1  6  0  0  0
 12 28  1  0  0  0  0
 13 26  1  0  0  0  0
 14  8  1  0  0  0  0
 15 23  1  0  0  0  0
 16  1  2  0  0  0  0
 16 20  1  0  0  0  0
 17  5  1  0  0  0  0
 17 25  1  0  0  0  0
 18  9  1  0  0  0  0
 19 25  1  0  0  0  0
 19 15  1  0  0  0  0
 20  4  2  0  0  0  0
 21 22  2  0  0  0  0
 23  6  1  0  0  0  0
 24 12  1  0  0  0  0
 26 24  1  0  0  0  0
 26 10  1  0  0  0  0
 28 10  1  0  0  0  0
 28 16  1  0  0  0  0
M  END
>  <MODEL>
3

>  <REMARK>
 VINA RESULT:      -1.9      2.258      4.671
  Name = 
  0 active torsions:
  status: ('A' for Active; 'I' for Inactive)
                            x       y       z     vdW  Elec       q    Type
                         _______ _______ _______ _____ _____    ______ ____

>  <TORSDO>
F 0

$$$$
=
 OpenBabel11122414083D

 28 32  0  0  1  0  0  0  0  0999 V2000
  159.1820  211.9170  152.2150 C   0  0  0  0  0  0  0  0  0  0  0  0
  156.7660  212.3360  149.4280 O   0  0  0  0  0  0  0  0  0  0  0  0
  163.5870  212.0290  147.6580 O   0  0  0  0  0  0  0  0  0  0  0  0
  158.5170  214.4090  153.3130 C   0  0  0  0  0  3  0  0  0  0  0  0
  162.5010  214.1760  147.9510 C   0  0  2  0  0  3  0  0  0  0  0  0
  159.5990  210.5780  151.6980 C   0  0  0  0  0  2  0  0  0  0  0  0
  156.4100  214.4510  148.2200 O   0  0  0  0  0  0  0  0  0  0  0  0
  157.3630  213.3130  148.4540 S   0  0  0  0  0  0  0  0  0  0  0  0
  159.0320  212.4820  146.4540 C   0  0  0  0  0  0  0  0  0  0  0  0
  158.9030  213.9510  149.0680 C   0  0  2  0  0  3  0  0  0  0  0  0
  163.2500  210.4980  151.4360 O   0  0  0  0  0  0  0  0  0  0  0  0
  161.1300  213.3830  149.8300 C   0  0  2  0  0  3  0  0  0  0  0  0
  159.9820  213.2250  146.9430 N   0  0  0  0  0  0  0  0  0  0  0  0
  157.7010  212.5260  146.9630 N   0  0  0  0  0  2  0  0  0  0  0  0
  162.0520  210.5710  151.0590 C   0  0  0  0  0  0  0  0  0  0  0  0
  159.2240  213.0720  151.4060 C   0  0  0  0  0  0  0  0  0  0  0  0
  162.7510  212.7510  148.2630 C   0  0  0  0  0  0  0  0  0  0  0  0
  159.3420  211.5580  145.4180 N   0  0  0  0  0  1  0  0  0  0  0  0
  161.7510  210.8700  149.6280 C   0  0  0  0  0  2  0  0  0  0  0  0
  158.9020  214.3160  151.9740 C   0  0  0  0  0  3  0  0  0  0  0  0
  158.7990  212.0210  153.5570 C   0  0  0  0  0  3  0  0  0  0  0  0
  158.4620  213.2610  154.1030 C   0  0  0  0  0  3  0  0  0  0  0  0
  161.0040  210.3500  152.0060 N   0  0  0  0  0  2  0  0  0  0  0  0
  161.1920  214.4530  148.7250 C   0  0  2  0  0  3  0  0  0  0  0  0
  161.9590  212.2850  149.3410 N   0  0  0  0  0  0  0  0  0  0  0  0
  159.8700  214.2980  147.9490 C   0  0  2  0  0  3  0  0  0  0  0  0
  162.3790  214.3940  146.5770 O   0  0  0  0  0  1  0  0  0  0  0  0
  159.6610  212.9840  149.9660 C   0  0  1  0  0  3  0  0  0  0  0  0
  1 21  1  0  0  0  0
  3 17  2  0  0  0  0
  4 22  1  0  0  0  0
  5 27  1  6  0  0  0
  5 17  1  0  0  0  0
  5 24  1  0  0  0  0
  6 23  1  0  0  0  0
  6  1  1  0  0  0  0
  7  8  2  0  0  0  0
  8  2  2  0  0  0  0
  9 13  2  0  0  0  0
  9 14  1  0  0  0  0
 10  8  1  6  0  0  0
 10 28  1  0  0  0  0
 12 25  1  6  0  0  0
 12 28  1  0  0  0  0
 13 26  1  0  0  0  0
 14  8  1  0  0  0  0
 15 11  2  0  0  0  0
 15 23  1  0  0  0  0
 16 20  1  0  0  0  0
 16  1  2  0  0  0  0
 17 25  1  0  0  0  0
 18  9  1  0  0  0  0
 19 15  1  0  0  0  0
 20  4  2  0  0  0  0
 21 22  2  0  0  0  0
 24 12  1  0  0  0  0
 25 19  1  0  0  0  0
 26 24  1  0  0  0  0
 26 10  1  0  0  0  0
 28 16  1  0  0  0  0
M  END
>  <MODEL>
4

>  <REMARK>
 VINA RESULT:      -1.4      7.154      9.578
  Name = 
  0 active torsions:
  status: ('A' for Active; 'I' for Inactive)
                            x       y       z     vdW  Elec       q    Type
                         _______ _______ _______ _____ _____    ______ ____

>  <TORSDO>
F 0

$$$$
=
 OpenBabel11122414083D

 28 32  0  0  1  0  0  0  0  0999 V2000
  159.1380  212.9580  151.8760 C   0  0  0  0  0  0  0  0  0  0  0  0
  159.9510  214.4520  155.1750 O   0  0  0  0  0  0  0  0  0  0  0  0
  161.8730  207.7350  154.2040 O   0  0  0  0  0  0  0  0  0  0  0  0
  156.3810  213.1830  152.3300 C   0  0  0  0  0  3  0  0  0  0  0  0
  159.7770  208.2550  155.3050 C   0  0  2  0  0  3  0  0  0  0  0  0
  160.5890  212.8000  151.5520 C   0  0  0  0  0  2  0  0  0  0  0  0
  158.7360  213.9440  157.2540 O   0  0  0  0  0  0  0  0  0  0  0  0
  159.6870  213.4080  156.2230 S   0  0  0  0  0  0  0  0  0  0  0  0
  161.6070  211.5940  156.9320 C   0  0  0  0  0  0  0  0  0  0  0  0
  158.9980  211.9440  155.4900 C   0  0  2  0  0  3  0  0  0  0  0  0
  161.1920  209.3430  150.5050 O   0  0  0  0  0  0  0  0  0  0  0  0
  159.3330  210.1890  153.8550 C   0  0  2  0  0  3  0  0  0  0  0  0
  160.8280  210.6250  156.5490 N   0  0  0  0  0  0  0  0  0  0  0  0
  161.1610  212.9470  156.9790 N   0  0  0  0  0  2  0  0  0  0  0  0
  161.1920  210.3560  151.2510 C   0  0  0  0  0  0  0  0  0  0  0  0
  158.5770  212.4240  153.0550 C   0  0  0  0  0  0  0  0  0  0  0  0
  160.8550  208.4700  154.3150 C   0  0  0  0  0  0  0  0  0  0  0  0
  162.9600  211.3040  157.2610 N   0  0  0  0  0  1  0  0  0  0  0  0
  161.6420  210.2230  152.6690 C   0  0  0  0  0  2  0  0  0  0  0  0
  157.1910  212.5320  153.2620 C   0  0  0  0  0  3  0  0  0  0  0  0
  158.3170  213.6050  150.9440 C   0  0  0  0  0  3  0  0  0  0  0  0
  156.9440  213.7230  151.1730 C   0  0  0  0  0  3  0  0  0  0  0  0
  160.7780  211.6180  150.7220 N   0  0  0  0  0  2  0  0  0  0  0  0
  158.9990  209.5890  155.2330 C   0  0  2  0  0  3  0  0  0  0  0  0
  160.6100  209.5870  153.4800 N   0  0  0  0  0  0  0  0  0  0  0  0
  159.3850  210.6840  156.2460 C   0  0  2  0  0  3  0  0  0  0  0  0
  160.2860  207.9880  156.5790 O   0  0  0  0  0  1  0  0  0  0  0  0
  159.4420  211.7000  154.0550 C   0  0  1  0  0  3  0  0  0  0  0  0
  1 16  1  0  0  0  0
  2  8  2  0  0  0  0
  3 17  2  0  0  0  0
  4 20  1  0  0  0  0
  5 27  1  1  0  0  0
  6  1  1  0  0  0  0
  8 14  1  0  0  0  0
  8  7  2  0  0  0  0
  9 14  1  0  0  0  0
  9 18  1  0  0  0  0
 10  8  1  1  0  0  0
 10 26  1  0  0  0  0
 11 15  2  0  0  0  0
 12 25  1  1  0  0  0
 12 28  1  0  0  0  0
 12 24  1  0  0  0  0
 13  9  2  0  0  0  0
 15 19  1  0  0  0  0
 16 20  2  0  0  0  0
 16 28  1  0  0  0  0
 17  5  1  0  0  0  0
 19 25  1  0  0  0  0
 21 22  1  0  0  0  0
 21  1  2  0  0  0  0
 22  4  2  0  0  0  0
 23 15  1  0  0  0  0
 23  6  1  0  0  0  0
 24  5  1  0  0  0  0
 24 26  1  0  0  0  0
 25 17  1  0  0  0  0
 26 13  1  0  0  0  0
 28 10  1  0  0  0  0
M  END
>  <MODEL>
5

>  <REMARK>
 VINA RESULT:      -0.3     11.403     14.871
  Name = 
  0 active torsions:
  status: ('A' for Active; 'I' for Inactive)
                            x       y       z     vdW  Elec       q    Type
                         _______ _______ _______ _____ _____    ______ ____

>  <TORSDO>
F 0

$$$$
