=
 OpenBabel11122414163D

 34 42  0  0  1  0  0  0  0  0999 V2000
  160.8310  207.1330  154.1220 C   0  0  0  0  0  0  0  0  0  0  0  0
  161.2860  204.9160  152.9650 C   0  0  0  0  0  2  0  0  0  0  0  0
  159.0890  213.5620  153.9570 C   0  0  1  0  0  0  0  0  0  0  0  0
  160.0770  209.2500  154.9840 C   0  0  0  0  0  0  0  0  0  0  0  0
  159.4040  211.0060  153.3730 C   0  0  1  0  0  3  0  0  0  0  0  0
  158.9090  213.3410  152.0560 C   0  0  1  0  0  3  0  0  0  0  0  0
  158.8670  214.4530  152.8570 O   0  0  0  0  0  0  0  0  0  0  0  0
  159.1520  212.6930  156.2510 C   0  0  0  0  0  3  0  0  0  0  0  0
  161.9880  206.9620  151.8870 C   0  0  2  0  0  3  0  0  0  0  0  0
  161.1430  207.0200  148.7620 C   0  0  0  0  0  3  0  0  0  0  0  0
  160.4070  210.4940  152.3290 C   0  0  0  0  0  2  0  0  0  0  0  0
  158.8670  211.2730  155.8370 C   0  0  0  0  0  2  0  0  0  0  0  0
  161.2210  208.2350  151.4900 C   0  0  1  0  0  3  0  0  0  0  0  0
  161.9190  204.5540  151.6320 C   0  0  0  0  0  2  0  0  0  0  0  0
  159.8790  210.7330  154.8160 C   0  0  1  0  0  3  0  0  0  0  0  0
  159.2100  213.7270  155.4070 C   0  0  0  0  0  3  0  0  0  0  0  0
  160.8770  205.9700  149.8120 C   0  0  2  0  0  3  0  0  0  0  0  0
  160.6570  208.5130  153.9440 C   0  0  0  0  0  0  0  0  0  0  0  0
  159.1750  212.4660  153.1440 C   0  0  1  0  0  3  0  0  0  0  0  0
  161.1610  209.1980  152.6880 C   0  0  2  0  0  3  0  0  0  0  0  0
  159.8850  207.2760  156.2840 C   0  0  0  0  0  3  0  0  0  0  0  0
  161.5580  208.2780  148.9830 C   0  0  0  0  0  3  0  0  0  0  0  0
  159.7160  208.6150  156.1350 N   0  0  0  0  0  0  0  0  0  0  0  0
  161.9370  208.8790  150.3110 C   0  0  0  0  0  2  0  0  0  0  0  0
  162.0310  205.8530  150.8250 C   0  0  1  0  0  3  0  0  0  0  0  0
  160.4330  206.5420  155.2800 N   0  0  0  0  0  0  0  0  0  0  0  0
  161.4050  206.3530  153.0660 N   0  0  0  0  0  0  0  0  0  0  0  0
  160.6470  204.7470  149.1710 O   0  0  0  0  0  0  0  0  0  0  0  0
  161.1780  204.9100  147.8890 C   0  0  0  0  0  2  0  0  0  0  0  0
  160.2690  201.8880  147.2390 O   0  0  0  0  0  0  0  0  0  0  0  0
  161.4880  203.3480  146.0050 C   0  0  0  0  0  2  0  0  0  0  0  0
  161.8360  203.6190  147.4340 C   0  0  2  0  0  3  0  0  0  0  0  0
  160.8040  202.0650  145.9980 N   0  0  0  0  0  2  0  0  0  0  0  0
  161.1910  202.4580  148.1320 C   0  0  0  0  0  2  0  0  0  0  0  0
  1 26  1  0  0  0  0
  2 27  1  0  0  0  0
  3 16  1  1  0  0  0
  4 23  2  0  0  0  0
  5 11  1  6  0  0  0
  5 15  1  0  0  0  0
  6  7  1  6  0  0  0
  6 19  1  0  0  0  0
  6  3  1  0  0  0  0
  7  3  1  0  0  0  0
  9 27  1  1  0  0  0
 10 22  2  0  0  0  0
 10 17  1  0  0  0  0
 11 20  1  0  0  0  0
 12  8  1  0  0  0  0
 13 24  1  6  0  0  0
 13  9  1  0  0  0  0
 13 20  1  0  0  0  0
 14  2  1  0  0  0  0
 15  4  1  0  0  0  0
 15 12  1  1  0  0  0
 16  8  2  0  0  0  0
 17 28  1  6  0  0  0
 17 25  1  0  0  0  0
 18  1  2  0  0  0  0
 18  4  1  0  0  0  0
 19  5  1  0  0  0  0
 19  3  1  0  0  0  0
 20 18  1  0  0  0  0
 22 24  1  0  0  0  0
 23 21  1  0  0  0  0
 25 14  1  0  0  0  0
 25  9  1  0  0  0  0
 26 21  2  0  0  0  0
 27  1  1  0  0  0  0
 29 28  1  0  0  0  0
 30 34  1  0  0  0  0
 31 32  1  0  0  0  0
 32 29  1  0  0  0  0
 32 34  1  0  0  0  0
 33 31  1  0  0  0  0
 33 30  1  0  0  0  0
M  END
>  <MODEL>
1

>  <REMARK>
 VINA RESULT:     -10.1      0.000      0.000
  Name = 
  3 active torsions:
  status: ('A' for Active; 'I' for Inactive)
    1  A    between atoms: C_17  and  O_28
    2  A    between atoms: O_28  and  C_29
    3  A    between atoms: C_29  and  C_32
                            x       y       z     vdW  Elec       q    Type
                         _______ _______ _______ _____ _____    ______ ____

>  <TORSDO>
F 3

$$$$
=
 OpenBabel11122414163D

 34 42  0  0  1  0  0  0  0  0999 V2000
  161.7450  209.7090  151.2760 C   0  0  0  0  0  0  0  0  0  0  0  0
  161.2440  211.3560  153.1460 C   0  0  0  0  0  2  0  0  0  0  0  0
  161.2570  203.6550  148.5360 C   0  0  1  0  0  0  0  0  0  0  0  0
  161.8330  208.0470  149.5370 C   0  0  0  0  0  0  0  0  0  0  0  0
  160.8310  205.8260  149.9770 C   0  0  1  0  0  3  0  0  0  0  0  0
  160.2150  203.1720  150.0770 C   0  0  1  0  0  3  0  0  0  0  0  0
  160.7290  202.4260  149.0480 O   0  0  0  0  0  0  0  0  0  0  0  0
  162.1820  205.2960  146.9630 C   0  0  0  0  0  3  0  0  0  0  0  0
  161.7380  209.0590  153.7140 C   0  0  2  0  0  3  0  0  0  0  0  0
  159.6140  207.8730  155.8520 C   0  0  0  0  0  3  0  0  0  0  0  0
  161.1590  205.9260  151.4740 C   0  0  0  0  0  2  0  0  0  0  0  0
  161.5020  206.4690  147.6180 C   0  0  0  0  0  2  0  0  0  0  0  0
  161.1080  207.7290  153.2680 C   0  0  1  0  0  3  0  0  0  0  0  0
  161.1450  211.2120  154.6550 C   0  0  0  0  0  2  0  0  0  0  0  0
  161.8430  206.6040  149.1090 C   0  0  1  0  0  3  0  0  0  0  0  0
  162.0370  204.0270  147.3530 C   0  0  0  0  0  3  0  0  0  0  0  0
  159.6660  209.2310  155.1980 C   0  0  2  0  0  3  0  0  0  0  0  0
  161.7520  208.3580  150.9000 C   0  0  0  0  0  0  0  0  0  0  0  0
  160.7820  204.3820  149.5910 C   0  0  1  0  0  3  0  0  0  0  0  0
  161.7550  207.2650  151.9520 C   0  0  2  0  0  3  0  0  0  0  0  0
  161.9000  210.3580  149.0090 C   0  0  0  0  0  3  0  0  0  0  0  0
  160.2970  206.7800  155.4690 C   0  0  0  0  0  3  0  0  0  0  0  0
  161.9180  209.0560  148.6240 N   0  0  0  0  0  0  0  0  0  0  0  0
  161.3250  206.7020  154.3710 C   0  0  0  0  0  2  0  0  0  0  0  0
  161.1100  209.7090  154.9560 C   0  0  1  0  0  3  0  0  0  0  0  0
  161.8070  210.6790  150.3260 N   0  0  0  0  0  0  0  0  0  0  0  0
  161.6440  210.0530  152.6630 N   0  0  0  0  0  0  0  0  0  0  0  0
  158.9670  210.1390  156.0020 O   0  0  0  0  0  0  0  0  0  0  0  0
  157.8630  210.5200  155.2340 C   0  0  0  0  0  2  0  0  0  0  0  0
  156.7120  213.1140  153.7080 O   0  0  0  0  0  0  0  0  0  0  0  0
  155.9540  212.0490  155.5610 C   0  0  0  0  0  2  0  0  0  0  0  0
  157.4460  211.9350  155.5950 C   0  0  2  0  0  3  0  0  0  0  0  0
  155.6570  213.0690  154.5690 N   0  0  0  0  0  2  0  0  0  0  0  0
  157.8500  212.8700  154.4940 C   0  0  0  0  0  2  0  0  0  0  0  0
  1 27  1  0  0  0  0
  2 14  1  0  0  0  0
  3 16  1  6  0  0  0
  3  7  1  0  0  0  0
  3 19  1  0  0  0  0
  3  6  1  0  0  0  0
  4 18  2  0  0  0  0
  5 11  1  1  0  0  0
  6  7  1  1  0  0  0
  8 16  2  0  0  0  0
  8 12  1  0  0  0  0
  9 27  1  6  0  0  0
  9 25  1  0  0  0  0
 11 20  1  0  0  0  0
 13  9  1  0  0  0  0
 13 24  1  1  0  0  0
 14 25  1  0  0  0  0
 15 12  1  6  0  0  0
 15  4  1  0  0  0  0
 15  5  1  0  0  0  0
 17 10  1  0  0  0  0
 17 28  1  1  0  0  0
 18  1  1  0  0  0  0
 18 20  1  0  0  0  0
 19  5  1  0  0  0  0
 19  6  1  0  0  0  0
 20 13  1  0  0  0  0
 21 26  1  0  0  0  0
 22 10  2  0  0  0  0
 23 21  2  0  0  0  0
 23  4  1  0  0  0  0
 24 22  1  0  0  0  0
 25 17  1  0  0  0  0
 26  1  2  0  0  0  0
 27  2  1  0  0  0  0
 29 32  1  0  0  0  0
 29 28  1  0  0  0  0
 30 34  1  0  0  0  0
 30 33  1  0  0  0  0
 31 32  1  0  0  0  0
 33 31  1  0  0  0  0
 34 32  1  0  0  0  0
M  END
>  <MODEL>
2

>  <REMARK>
 VINA RESULT:      -9.7      2.389      8.839
  Name = 
  3 active torsions:
  status: ('A' for Active; 'I' for Inactive)
    1  A    between atoms: C_17  and  O_28
    2  A    between atoms: O_28  and  C_29
    3  A    between atoms: C_29  and  C_32
                            x       y       z     vdW  Elec       q    Type
                         _______ _______ _______ _____ _____    ______ ____

>  <TORSDO>
F 3

$$$$
=
 OpenBabel11122414163D

 34 42  0  0  1  0  0  0  0  0999 V2000
  161.8660  208.6840  150.4740 C   0  0  0  0  0  0  0  0  0  0  0  0
  161.5620  210.6200  152.0920 C   0  0  0  0  0  2  0  0  0  0  0  0
  160.8920  202.3310  148.7140 C   0  0  1  0  0  0  0  0  0  0  0  0
  161.7650  206.7780  149.0060 C   0  0  0  0  0  0  0  0  0  0  0  0
  160.6670  204.7160  149.8260 C   0  0  1  0  0  3  0  0  0  0  0  0
  159.9110  202.1510  150.3570 C   0  0  1  0  0  3  0  0  0  0  0  0
  160.3250  201.2280  149.4310 O   0  0  0  0  0  0  0  0  0  0  0  0
  161.8180  203.6580  146.8680 C   0  0  0  0  0  3  0  0  0  0  0  0
  161.9580  208.4070  152.9800 C   0  0  2  0  0  3  0  0  0  0  0  0
  159.8940  207.6900  155.3700 C   0  0  0  0  0  3  0  0  0  0  0  0
  161.0830  205.0170  151.2730 C   0  0  0  0  0  2  0  0  0  0  0  0
  161.2410  204.9550  147.3670 C   0  0  0  0  0  2  0  0  0  0  0  0
  161.2310  207.0670  152.7710 C   0  0  1  0  0  3  0  0  0  0  0  0
  161.5390  210.7090  153.6090 C   0  0  0  0  0  2  0  0  0  0  0  0
  161.6710  205.2890  148.8030 C   0  0  1  0  0  3  0  0  0  0  0  0
  161.6250  202.4720  147.4530 C   0  0  0  0  0  3  0  0  0  0  0  0
  159.9840  208.9300  154.5150 C   0  0  2  0  0  3  0  0  0  0  0  0
  161.7780  207.2940  150.3080 C   0  0  0  0  0  0  0  0  0  0  0  0
  160.5170  203.2370  149.6670 C   0  0  1  0  0  3  0  0  0  0  0  0
  161.7780  206.3720  151.5120 C   0  0  2  0  0  3  0  0  0  0  0  0
  161.9310  208.9760  148.1290 C   0  0  0  0  0  3  0  0  0  0  0  0
  160.4920  206.5120  155.1270 C   0  0  0  0  0  3  0  0  0  0  0  0
  161.8550  207.6310  147.9460 N   0  0  0  0  0  0  0  0  0  0  0  0
  161.4520  206.2050  154.0070 C   0  0  0  0  0  2  0  0  0  0  0  0
  161.4370  209.2730  154.1360 C   0  0  1  0  0  3  0  0  0  0  0  0
  161.9300  209.4940  149.3840 N   0  0  0  0  0  0  0  0  0  0  0  0
  161.8610  209.2370  151.7950 N   0  0  0  0  0  0  0  0  0  0  0  0
  159.3820  209.9890  155.2030 O   0  0  0  0  0  0  0  0  0  0  0  0
  159.9200  209.9320  156.4910 C   0  0  0  0  0  2  0  0  0  0  0  0
  160.0500  213.1170  156.0260 O   0  0  0  0  0  0  0  0  0  0  0  0
  158.3220  211.8010  156.6760 C   0  0  0  0  0  2  0  0  0  0  0  0
  159.5550  211.1890  157.2610 C   0  0  2  0  0  3  0  0  0  0  0  0
  158.7060  213.1360  156.2490 N   0  0  0  0  0  2  0  0  0  0  0  0
  160.5810  212.2510  156.9960 C   0  0  0  0  0  2  0  0  0  0  0  0
  1 27  1  0  0  0  0
  2 14  1  0  0  0  0
  3 16  1  6  0  0  0
  3  7  1  0  0  0  0
  3 19  1  0  0  0  0
  3  6  1  0  0  0  0
  4 18  2  0  0  0  0
  5 11  1  1  0  0  0
  6  7  1  1  0  0  0
  8 12  1  0  0  0  0
  8 16  2  0  0  0  0
  9 27  1  6  0  0  0
  9 25  1  0  0  0  0
 11 20  1  0  0  0  0
 13  9  1  0  0  0  0
 13 24  1  1  0  0  0
 14 25  1  0  0  0  0
 15 12  1  6  0  0  0
 15  4  1  0  0  0  0
 15  5  1  0  0  0  0
 17 28  1  1  0  0  0
 17 10  1  0  0  0  0
 18  1  1  0  0  0  0
 18 20  1  0  0  0  0
 19  5  1  0  0  0  0
 19  6  1  0  0  0  0
 20 13  1  0  0  0  0
 21 26  1  0  0  0  0
 22 10  2  0  0  0  0
 23 21  2  0  0  0  0
 23  4  1  0  0  0  0
 24 22  1  0  0  0  0
 25 17  1  0  0  0  0
 26  1  2  0  0  0  0
 27  2  1  0  0  0  0
 28 29  1  0  0  0  0
 29 32  1  0  0  0  0
 30 33  1  0  0  0  0
 30 34  1  0  0  0  0
 31 32  1  0  0  0  0
 33 31  1  0  0  0  0
 34 32  1  0  0  0  0
M  END
>  <MODEL>
3

>  <REMARK>
 VINA RESULT:      -8.8      2.365      9.209
  Name = 
  3 active torsions:
  status: ('A' for Active; 'I' for Inactive)
    1  A    between atoms: C_17  and  O_28
    2  A    between atoms: O_28  and  C_29
    3  A    between atoms: C_29  and  C_32
                            x       y       z     vdW  Elec       q    Type
                         _______ _______ _______ _____ _____    ______ ____

>  <TORSDO>
F 3

$$$$
=
 OpenBabel11122414163D

 34 42  0  0  1  0  0  0  0  0999 V2000
  161.7970  207.3930  148.4630 C   0  0  0  0  0  0  0  0  0  0  0  0
  161.7210  209.7990  149.2770 C   0  0  0  0  0  2  0  0  0  0  0  0
  160.7190  200.8800  149.3680 C   0  0  1  0  0  0  0  0  0  0  0  0
  161.5000  205.0860  147.8420 C   0  0  0  0  0  0  0  0  0  0  0  0
  160.6210  203.5130  149.5410 C   0  0  1  0  0  3  0  0  0  0  0  0
  160.0430  201.3550  151.1030 C   0  0  1  0  0  3  0  0  0  0  0  0
  160.3170  200.1410  150.5270 O   0  0  0  0  0  0  0  0  0  0  0  0
  161.2730  201.3970  147.0330 C   0  0  0  0  0  3  0  0  0  0  0  0
  162.3280  208.0570  150.8380 C   0  0  2  0  0  3  0  0  0  0  0  0
  160.7300  208.3480  153.6390 C   0  0  0  0  0  3  0  0  0  0  0  0
  161.2710  204.3110  150.6810 C   0  0  0  0  0  2  0  0  0  0  0  0
  160.7540  202.8080  147.1080 C   0  0  0  0  0  2  0  0  0  0  0  0
  161.6160  206.7620  151.2670 C   0  0  1  0  0  3  0  0  0  0  0  0
  161.9570  210.4420  150.6340 C   0  0  0  0  0  2  0  0  0  0  0  0
  161.4160  203.6320  148.2230 C   0  0  1  0  0  3  0  0  0  0  0  0
  161.2190  200.5190  148.0390 C   0  0  0  0  0  3  0  0  0  0  0  0
  160.6350  209.1810  152.3850 C   0  0  2  0  0  3  0  0  0  0  0  0
  161.7220  206.0440  148.8390 C   0  0  0  0  0  0  0  0  0  0  0  0
  160.4880  202.0860  149.9680 C   0  0  1  0  0  3  0  0  0  0  0  0
  161.9570  205.6320  150.2800 C   0  0  2  0  0  3  0  0  0  0  0  0
  161.4480  206.7970  146.2020 C   0  0  0  0  0  3  0  0  0  0  0  0
  161.3110  207.1410  153.7500 C   0  0  0  0  0  3  0  0  0  0  0  0
  161.3810  205.4850  146.5440 N   0  0  0  0  0  0  0  0  0  0  0  0
  162.0720  206.4080  152.6760 C   0  0  0  0  0  2  0  0  0  0  0  0
  161.9900  209.3060  151.6640 C   0  0  1  0  0  3  0  0  0  0  0  0
  161.6480  207.7420  147.1570 N   0  0  0  0  0  0  0  0  0  0  0  0
  162.0050  208.3940  149.4660 N   0  0  0  0  0  0  0  0  0  0  0  0
  160.1300  210.4410  152.7250 O   0  0  0  0  0  0  0  0  0  0  0  0
  160.7860  210.7820  153.9110 C   0  0  0  0  0  2  0  0  0  0  0  0
  158.1820  210.7410  155.8070 O   0  0  0  0  0  0  0  0  0  0  0  0
  160.2320  211.6450  156.1540 C   0  0  0  0  0  2  0  0  0  0  0  0
  159.9570  211.7860  154.6900 C   0  0  2  0  0  3  0  0  0  0  0  0
  158.9570  211.3180  156.7690 N   0  0  0  0  0  2  0  0  0  0  0  0
  158.5080  211.4040  154.6130 C   0  0  0  0  0  2  0  0  0  0  0  0
  1 18  1  0  0  0  0
  1 27  1  0  0  0  0
  2 27  1  0  0  0  0
  2 14  1  0  0  0  0
  3 16  1  6  0  0  0
  3 19  1  0  0  0  0
  3  7  1  0  0  0  0
  3  6  1  0  0  0  0
  4 15  1  0  0  0  0
  4 18  2  0  0  0  0
  5 19  1  0  0  0  0
  5 11  1  1  0  0  0
  6  7  1  1  0  0  0
  8 12  1  0  0  0  0
  8 16  2  0  0  0  0
  9 27  1  6  0  0  0
  9 13  1  0  0  0  0
  9 25  1  0  0  0  0
 10 22  2  0  0  0  0
 13 24  1  1  0  0  0
 14 25  1  0  0  0  0
 15 12  1  6  0  0  0
 15  5  1  0  0  0  0
 17 28  1  1  0  0  0
 17 10  1  0  0  0  0
 18 20  1  0  0  0  0
 19  6  1  0  0  0  0
 20 11  1  0  0  0  0
 20 13  1  0  0  0  0
 21 23  2  0  0  0  0
 21 26  1  0  0  0  0
 23  4  1  0  0  0  0
 24 22  1  0  0  0  0
 25 17  1  0  0  0  0
 26  1  2  0  0  0  0
 28 29  1  0  0  0  0
 29 32  1  0  0  0  0
 30 33  1  0  0  0  0
 31 33  1  0  0  0  0
 32 31  1  0  0  0  0
 34 32  1  0  0  0  0
 34 30  1  0  0  0  0
M  END
>  <MODEL>
4

>  <REMARK>
 VINA RESULT:      -7.8      2.331      9.389
  Name = 
  3 active torsions:
  status: ('A' for Active; 'I' for Inactive)
    1  A    between atoms: C_17  and  O_28
    2  A    between atoms: O_28  and  C_29
    3  A    between atoms: C_29  and  C_32
                            x       y       z     vdW  Elec       q    Type
                         _______ _______ _______ _____ _____    ______ ____

>  <TORSDO>
F 3

$$$$
