=
 OpenBabel11122413263D

 31 35  0  0  1  0  0  0  0  0999 V2000
  161.0960  204.3090  145.6430 C   0  0  0  0  0  0  0  0  0  0  0  0
  160.5380  205.9410  149.0380 C   0  0  2  0  0  3  0  0  0  0  0  0
  160.9150  204.9260  150.1090 C   0  0  0  0  0  0  0  0  0  0  0  0
  161.1900  202.6010  150.7840 C   0  0  0  0  0  0  0  0  0  0  0  0
  161.1220  205.6230  147.6830 C   0  0  0  0  0  0  0  0  0  0  0  0
  162.2110  205.0080  145.1740 C   0  0  0  0  0  3  0  0  0  0  0  0
  160.9280  203.5550  149.7990 C   0  0  0  0  0  3  0  0  0  0  0  0
  162.3520  207.6940  149.2700 C   0  0  2  0  0  3  0  0  0  0  0  0
  160.4910  203.2340  144.8150 C   0  0  0  0  0  1  0  0  0  0  0  0
  161.1280  206.7640  151.8650 C   0  0  0  0  0  2  0  0  0  0  0  0
  161.2150  201.2530  150.4550 O   0  0  0  0  0  1  0  0  0  0  0  0
  162.7810  207.3900  147.9410 O   0  0  0  0  0  0  0  0  0  0  0  0
  160.8550  207.3950  149.4440 C   0  0  2  0  0  3  0  0  0  0  0  0
  160.5520  204.6170  146.8930 C   0  0  0  0  0  3  0  0  0  0  0  0
  161.4220  203.0030  152.0990 C   0  0  0  0  0  3  0  0  0  0  0  0
  162.2360  206.3360  147.2010 C   0  0  0  0  0  0  0  0  0  0  0  0
  162.7760  206.0240  145.9500 C   0  0  0  0  0  3  0  0  0  0  0  0
  160.3820  207.6540  150.8750 C   0  0  0  0  0  2  0  0  0  0  0  0
  161.1130  205.3200  151.4540 C   0  0  0  0  0  0  0  0  0  0  0  0
  161.3850  204.3580  152.4310 C   0  0  0  0  0  3  0  0  0  0  0  0
  161.3300  209.9040  147.7940 O   0  0  0  0  0  0  0  0  0  0  0  0
  162.0740  210.1560  148.7820 C   0  0  0  0  0  0  0  0  0  0  0  0
  162.6250  209.0940  149.5600 N   0  0  0  0  0  2  0  0  0  0  0  0
  161.0910  213.5970  147.5140 N   0  0  0  0  0  0  0  0  0  0  0  0
  161.1530  212.3350  149.6170 C   0  0  0  0  0  2  0  0  0  0  0  0
  164.1670  211.5900  147.4960 O   0  0  0  0  0  1  0  0  0  0  0  0
  160.2720  213.9420  146.4920 O   0  0  0  0  0  1  0  0  0  0  0  0
  160.3010  212.7680  148.4220 C   0  0  0  0  0  2  0  0  0  0  0  0
  163.1260  212.3480  148.0370 C   0  0  2  0  0  3  0  0  0  0  0  0
  162.3990  211.5760  149.1510 C   0  0  2  0  0  3  0  0  0  0  0  0
  162.1530  212.7740  146.9400 C   0  0  0  0  0  2  0  0  0  0  0  0
  1 14  1  0  0  0  0
  2  5  1  6  0  0  0
  2 13  1  0  0  0  0
  2  3  1  0  0  0  0
  3 19  1  0  0  0  0
  4 15  2  0  0  0  0
  6  1  2  0  0  0  0
  6 17  1  0  0  0  0
  7  3  2  0  0  0  0
  7  4  1  0  0  0  0
  8 13  1  0  0  0  0
  8 23  1  6  0  0  0
  9  1  1  0  0  0  0
 11  4  1  0  0  0  0
 12  8  1  0  0  0  0
 13 18  1  1  0  0  0
 14  5  2  0  0  0  0
 15 20  1  0  0  0  0
 16  5  1  0  0  0  0
 16 12  1  0  0  0  0
 17 16  2  0  0  0  0
 18 10  1  0  0  0  0
 19 10  1  0  0  0  0
 19 20  2  0  0  0  0
 21 22  2  0  0  0  0
 22 23  1  0  0  0  0
 24 28  1  0  0  0  0
 27 24  1  0  0  0  0
 28 25  1  0  0  0  0
 29 26  1  6  0  0  0
 29 30  1  0  0  0  0
 30 22  1  6  0  0  0
 30 25  1  0  0  0  0
 31 24  1  0  0  0  0
 31 29  1  0  0  0  0
M  END
>  <MODEL>
1

>  <REMARK>
 VINA RESULT:      -7.7      0.000      0.000
  Name = 
  2 active torsions:
  status: ('A' for Active; 'I' for Inactive)
    1  A    between atoms: C_5  and  C_30
    2  A    between atoms: C_10  and  N_16
                            x       y       z     vdW  Elec       q    Type
                         _______ _______ _______ _____ _____    ______ ____

>  <TORSDO>
F 2

$$$$
=
 OpenBabel11122413263D

 31 35  0  0  1  0  0  0  0  0999 V2000
  160.9230  206.4710  146.6670 C   0  0  0  0  0  0  0  0  0  0  0  0
  160.3330  204.8980  150.0840 C   0  0  2  0  0  3  0  0  0  0  0  0
  160.7800  203.4440  150.0090 C   0  0  0  0  0  0  0  0  0  0  0  0
  161.1880  201.4460  148.6750 C   0  0  0  0  0  0  0  0  0  0  0  0
  160.9110  205.7570  148.9850 C   0  0  0  0  0  0  0  0  0  0  0  0
  161.9920  207.3310  146.9330 C   0  0  0  0  0  3  0  0  0  0  0  0
  160.8610  202.8010  148.7610 C   0  0  0  0  0  3  0  0  0  0  0  0
  162.0560  205.9300  151.6270 C   0  0  2  0  0  3  0  0  0  0  0  0
  160.3620  206.3860  145.2930 C   0  0  0  0  0  1  0  0  0  0  0  0
  160.9230  203.2910  152.5510 C   0  0  0  0  0  2  0  0  0  0  0  0
  161.2790  200.8330  147.4330 O   0  0  0  0  0  1  0  0  0  0  0  0
  162.4790  206.7710  150.5530 O   0  0  0  0  0  0  0  0  0  0  0  0
  160.5790  205.5360  151.4660 C   0  0  2  0  0  3  0  0  0  0  0  0
  160.3830  205.6880  147.6900 C   0  0  0  0  0  3  0  0  0  0  0  0
  161.4190  200.7090  149.8350 C   0  0  0  0  0  3  0  0  0  0  0  0
  161.9790  206.6350  149.2540 C   0  0  0  0  0  0  0  0  0  0  0  0
  162.5150  207.4160  148.2260 C   0  0  0  0  0  3  0  0  0  0  0  0
  160.1160  204.5860  152.5710 C   0  0  0  0  0  2  0  0  0  0  0  0
  160.9790  202.6770  151.1820 C   0  0  0  0  0  0  0  0  0  0  0  0
  161.3160  201.3240  151.0840 C   0  0  0  0  0  3  0  0  0  0  0  0
  160.5510  208.1710  152.5330 O   0  0  0  0  0  0  0  0  0  0  0  0
  161.4630  207.7370  153.2900 C   0  0  0  0  0  0  0  0  0  0  0  0
  162.2590  206.6210  152.8930 N   0  0  0  0  0  2  0  0  0  0  0  0
  159.4820  209.8620  155.7340 N   0  0  0  0  0  0  0  0  0  0  0  0
  160.8360  207.8160  155.7170 C   0  0  0  0  0  2  0  0  0  0  0  0
  162.3170  210.4440  153.4720 O   0  0  0  0  0  1  0  0  0  0  0  0
  158.2060  210.3060  155.6590 O   0  0  0  0  0  1  0  0  0  0  0  0
  159.4270  208.4050  155.6360 C   0  0  0  0  0  2  0  0  0  0  0  0
  161.6340  209.9250  154.5740 C   0  0  2  0  0  3  0  0  0  0  0  0
  161.7310  208.3900  154.6150 C   0  0  2  0  0  3  0  0  0  0  0  0
  160.1760  210.3810  154.5570 C   0  0  0  0  0  2  0  0  0  0  0  0
  1  6  2  0  0  0  0
  1 14  1  0  0  0  0
  2  5  1  6  0  0  0
  2 13  1  0  0  0  0
  3  2  1  0  0  0  0
  3 19  1  0  0  0  0
  4  7  1  0  0  0  0
  4 15  2  0  0  0  0
  5 16  1  0  0  0  0
  6 17  1  0  0  0  0
  7  3  2  0  0  0  0
  8 23  1  1  0  0  0
  9  1  1  0  0  0  0
 10 18  1  0  0  0  0
 11  4  1  0  0  0  0
 12  8  1  0  0  0  0
 13  8  1  0  0  0  0
 13 18  1  1  0  0  0
 14  5  2  0  0  0  0
 15 20  1  0  0  0  0
 16 12  1  0  0  0  0
 17 16  2  0  0  0  0
 19 10  1  0  0  0  0
 20 19  2  0  0  0  0
 21 22  2  0  0  0  0
 23 22  1  0  0  0  0
 27 24  1  0  0  0  0
 28 25  1  0  0  0  0
 28 24  1  0  0  0  0
 29 26  1  6  0  0  0
 29 30  1  0  0  0  0
 30 22  1  6  0  0  0
 30 25  1  0  0  0  0
 31 29  1  0  0  0  0
 31 24  1  0  0  0  0
M  END
>  <MODEL>
2

>  <REMARK>
 VINA RESULT:      -7.7      3.655      4.827
  Name = 
  2 active torsions:
  status: ('A' for Active; 'I' for Inactive)
    1  A    between atoms: C_5  and  C_30
    2  A    between atoms: C_10  and  N_16
                            x       y       z     vdW  Elec       q    Type
                         _______ _______ _______ _____ _____    ______ ____

>  <TORSDO>
F 2

$$$$
=
 OpenBabel11122413263D

 31 35  0  0  1  0  0  0  0  0999 V2000
  161.0580  204.9810  145.3870 C   0  0  0  0  0  0  0  0  0  0  0  0
  160.5090  205.1440  149.1520 C   0  0  2  0  0  3  0  0  0  0  0  0
  160.9120  203.7970  149.7390 C   0  0  0  0  0  0  0  0  0  0  0  0
  161.2290  201.3990  149.4490 C   0  0  0  0  0  0  0  0  0  0  0  0
  161.0840  205.3920  147.7780 C   0  0  0  0  0  0  0  0  0  0  0  0
  162.1570  205.8280  145.2250 C   0  0  0  0  0  3  0  0  0  0  0  0
  160.9430  202.6580  148.9160 C   0  0  0  0  0  3  0  0  0  0  0  0
  162.2990  206.6980  150.0450 C   0  0  2  0  0  3  0  0  0  0  0  0
  160.4610  204.3050  144.2060 C   0  0  0  0  0  1  0  0  0  0  0  0
  161.1150  204.8040  152.0730 C   0  0  0  0  0  2  0  0  0  0  0  0
  161.2710  200.2880  148.6180 O   0  0  0  0  0  1  0  0  0  0  0  0
  162.7190  206.9460  148.7030 O   0  0  0  0  0  0  0  0  0  0  0  0
  160.8080  206.3280  150.0930 C   0  0  2  0  0  3  0  0  0  0  0  0
  160.5210  204.7650  146.6590 C   0  0  0  0  0  3  0  0  0  0  0  0
  161.4690  201.2580  150.8150 C   0  0  0  0  0  3  0  0  0  0  0  0
  162.1830  206.2570  147.6100 C   0  0  0  0  0  0  0  0  0  0  0  0
  162.7150  206.4690  146.3360 C   0  0  0  0  0  3  0  0  0  0  0  0
  160.3460  205.9970  151.5130 C   0  0  0  0  0  2  0  0  0  0  0  0
  161.1180  203.6370  151.1300 C   0  0  0  0  0  0  0  0  0  0  0  0
  161.4140  202.3740  151.6510 C   0  0  0  0  0  3  0  0  0  0  0  0
  161.5440  209.3570  149.3620 O   0  0  0  0  0  0  0  0  0  0  0  0
  162.1410  209.1840  150.4600 C   0  0  0  0  0  0  0  0  0  0  0  0
  162.5540  207.8770  150.8600 N   0  0  0  0  0  2  0  0  0  0  0  0
  160.2170  211.1830  153.0510 N   0  0  0  0  0  0  0  0  0  0  0  0
  162.3330  209.9590  152.8380 C   0  0  0  0  0  2  0  0  0  0  0  0
  161.5360  211.8550  149.6890 O   0  0  0  0  0  1  0  0  0  0  0  0
  158.9370  211.0500  153.4710 O   0  0  0  0  0  1  0  0  0  0  0  0
  160.8700  209.8970  153.2830 C   0  0  0  0  0  2  0  0  0  0  0  0
  161.5770  211.5900  151.0600 C   0  0  2  0  0  3  0  0  0  0  0  0
  162.4360  210.3500  151.3600 C   0  0  2  0  0  3  0  0  0  0  0  0
  160.1620  211.4220  151.6100 C   0  0  0  0  0  2  0  0  0  0  0  0
  1 14  1  0  0  0  0
  2  5  1  6  0  0  0
  2  3  1  0  0  0  0
  2 13  1  0  0  0  0
  3 19  1  0  0  0  0
  4 15  2  0  0  0  0
  6  1  2  0  0  0  0
  6 17  1  0  0  0  0
  7  4  1  0  0  0  0
  7  3  2  0  0  0  0
  8 13  1  0  0  0  0
  8 23  1  1  0  0  0
  9  1  1  0  0  0  0
 11  4  1  0  0  0  0
 12  8  1  0  0  0  0
 13 18  1  1  0  0  0
 14  5  2  0  0  0  0
 15 20  1  0  0  0  0
 16  5  1  0  0  0  0
 16 12  1  0  0  0  0
 17 16  2  0  0  0  0
 18 10  1  0  0  0  0
 19 20  2  0  0  0  0
 19 10  1  0  0  0  0
 21 22  2  0  0  0  0
 22 23  1  0  0  0  0
 24 28  1  0  0  0  0
 24 27  1  0  0  0  0
 25 28  1  0  0  0  0
 29 26  1  6  0  0  0
 29 30  1  0  0  0  0
 29 31  1  0  0  0  0
 30 22  1  6  0  0  0
 30 25  1  0  0  0  0
 31 24  1  0  0  0  0
M  END
>  <MODEL>
3

>  <REMARK>
 VINA RESULT:      -6.4      2.146      2.846
  Name = 
  2 active torsions:
  status: ('A' for Active; 'I' for Inactive)
    1  A    between atoms: C_5  and  C_30
    2  A    between atoms: C_10  and  N_16
                            x       y       z     vdW  Elec       q    Type
                         _______ _______ _______ _____ _____    ______ ____

>  <TORSDO>
F 2

$$$$
=
 OpenBabel11122413263D

 31 35  0  0  1  0  0  0  0  0999 V2000
  160.8630  209.0120  154.8350 C   0  0  0  0  0  0  0  0  0  0  0  0
  162.1180  209.4320  151.2650 C   0  0  2  0  0  3  0  0  0  0  0  0
  161.6010  208.2540  150.4500 C   0  0  0  0  0  0  0  0  0  0  0  0
  160.8220  205.9470  150.3680 C   0  0  0  0  0  0  0  0  0  0  0  0
  161.3510  209.6520  152.5470 C   0  0  0  0  0  0  0  0  0  0  0  0
  159.9180  210.0370  154.9250 C   0  0  0  0  0  3  0  0  0  0  0  0
  161.2200  207.0680  151.1000 C   0  0  0  0  0  3  0  0  0  0  0  0
  160.8230  211.3850  150.3020 C   0  0  2  0  0  3  0  0  0  0  0  0
  161.1050  208.1200  156.0000 C   0  0  0  0  0  1  0  0  0  0  0  0
  162.0120  209.5050  148.2650 C   0  0  0  0  0  2  0  0  0  0  0  0
  160.4340  204.7900  151.0290 O   0  0  0  0  0  1  0  0  0  0  0  0
  160.2130  211.5780  151.5790 O   0  0  0  0  0  0  0  0  0  0  0  0
  162.2090  210.7380  150.4500 C   0  0  2  0  0  3  0  0  0  0  0  0
  161.5790  208.8220  153.6510 C   0  0  0  0  0  3  0  0  0  0  0  0
  160.8180  205.9900  148.9750 C   0  0  0  0  0  3  0  0  0  0  0  0
  160.4090  210.6940  152.6450 C   0  0  0  0  0  0  0  0  0  0  0  0
  159.6960  210.8800  153.8320 C   0  0  0  0  0  3  0  0  0  0  0  0
  162.8610  210.4650  149.0940 C   0  0  0  0  0  2  0  0  0  0  0  0
  161.6310  208.2740  149.0340 C   0  0  0  0  0  0  0  0  0  0  0  0
  161.2200  207.1500  148.3110 C   0  0  0  0  0  3  0  0  0  0  0  0
  160.0960  211.8660  147.5910 O   0  0  0  0  0  0  0  0  0  0  0  0
  160.5440  212.8400  148.2560 C   0  0  0  0  0  0  0  0  0  0  0  0
  160.9330  212.6660  149.6180 N   0  0  0  0  0  2  0  0  0  0  0  0
  161.1770  214.1680  144.7560 N   0  0  0  0  0  0  0  0  0  0  0  0
  159.5780  214.4530  146.5960 C   0  0  0  0  0  2  0  0  0  0  0  0
  163.0860  214.0620  147.8920 O   0  0  0  0  0  1  0  0  0  0  0  0
  161.3720  213.4960  143.5970 O   0  0  0  0  0  1  0  0  0  0  0  0
  159.8830  213.7350  145.2800 C   0  0  0  0  0  2  0  0  0  0  0  0
  162.0710  214.4490  147.0140 C   0  0  2  0  0  3  0  0  0  0  0  0
  160.6820  214.1960  147.6250 C   0  0  2  0  0  3  0  0  0  0  0  0
  162.2220  213.7260  145.6780 C   0  0  0  0  0  2  0  0  0  0  0  0
  1  6  1  0  0  0  0
  1  9  1  0  0  0  0
  2  3  1  6  0  0  0
  2  5  1  0  0  0  0
  3  7  1  0  0  0  0
  4 11  1  0  0  0  0
  4  7  2  0  0  0  0
  5 16  2  0  0  0  0
  5 14  1  0  0  0  0
  8 23  1  1  0  0  0
  8 13  1  0  0  0  0
  8 12  1  0  0  0  0
 10 19  1  0  0  0  0
 10 18  1  0  0  0  0
 12 16  1  0  0  0  0
 13 18  1  6  0  0  0
 13  2  1  0  0  0  0
 14  1  2  0  0  0  0
 15  4  1  0  0  0  0
 16 17  1  0  0  0  0
 17  6  2  0  0  0  0
 19  3  2  0  0  0  0
 20 15  2  0  0  0  0
 20 19  1  0  0  0  0
 21 22  2  0  0  0  0
 22 23  1  0  0  0  0
 24 28  1  0  0  0  0
 24 31  1  0  0  0  0
 25 30  1  0  0  0  0
 27 24  1  0  0  0  0
 28 25  1  0  0  0  0
 29 30  1  0  0  0  0
 29 26  1  1  0  0  0
 30 22  1  6  0  0  0
 31 29  1  0  0  0  0
M  END
>  <MODEL>
4

>  <REMARK>
 VINA RESULT:      -5.7      2.611      5.604
  Name = 
  2 active torsions:
  status: ('A' for Active; 'I' for Inactive)
    1  A    between atoms: C_5  and  C_30
    2  A    between atoms: C_10  and  N_16
                            x       y       z     vdW  Elec       q    Type
                         _______ _______ _______ _____ _____    ______ ____

>  <TORSDO>
F 2

$$$$
=
 OpenBabel11122413263D

 31 35  0  0  1  0  0  0  0  0999 V2000
  157.1240  214.1150  151.8990 C   0  0  0  0  0  0  0  0  0  0  0  0
  160.3790  213.6110  149.9880 C   0  0  2  0  0  3  0  0  0  0  0  0
  160.8680  212.1960  150.2680 C   0  0  0  0  0  0  0  0  0  0  0  0
  160.9200  210.2530  151.7370 C   0  0  0  0  0  0  0  0  0  0  0  0
  158.9130  213.8070  150.2890 C   0  0  0  0  0  0  0  0  0  0  0  0
  156.1890  214.1470  150.8610 C   0  0  0  0  0  3  0  0  0  0  0  0
  160.4230  211.5180  151.4160 C   0  0  0  0  0  3  0  0  0  0  0  0
  159.7350  213.5030  147.5410 C   0  0  2  0  0  3  0  0  0  0  0  0
  156.6740  214.2550  153.3090 C   0  0  0  0  0  1  0  0  0  0  0  0
  162.3930  212.2510  148.2240 C   0  0  0  0  0  2  0  0  0  0  0  0
  160.4570  209.5920  152.8660 O   0  0  0  0  0  1  0  0  0  0  0  0
  158.3840  213.7840  147.9100 O   0  0  0  0  0  0  0  0  0  0  0  0
  160.7160  214.0970  148.5640 C   0  0  2  0  0  3  0  0  0  0  0  0
  158.4820  213.9480  151.6140 C   0  0  0  0  0  3  0  0  0  0  0  0
  161.8840  209.6570  150.9250 C   0  0  0  0  0  3  0  0  0  0  0  0
  157.9700  213.8540  149.2440 C   0  0  0  0  0  0  0  0  0  0  0  0
  156.6140  214.0220  149.5350 C   0  0  0  0  0  3  0  0  0  0  0  0
  162.1690  213.7610  148.2260 C   0  0  0  0  0  2  0  0  0  0  0  0
  161.8750  211.5990  149.4730 C   0  0  0  0  0  0  0  0  0  0  0  0
  162.3580  210.3280  149.7960 C   0  0  0  0  0  3  0  0  0  0  0  0
  160.0810  211.9560  145.1760 O   0  0  0  0  0  0  0  0  0  0  0  0
  160.1550  213.2110  145.0670 C   0  0  0  0  0  0  0  0  0  0  0  0
  159.9980  214.0450  146.2150 N   0  0  0  0  0  2  0  0  0  0  0  0
  161.0370  211.9830  141.5850 N   0  0  0  0  0  0  0  0  0  0  0  0
  159.3820  213.4180  142.6900 C   0  0  0  0  0  2  0  0  0  0  0  0
  162.7920  213.8520  144.2150 O   0  0  0  0  0  1  0  0  0  0  0  0
  161.2340  210.7210  141.1360 O   0  0  0  0  0  1  0  0  0  0  0  0
  159.6930  212.0180  142.1590 C   0  0  0  0  0  2  0  0  0  0  0  0
  161.8470  213.6160  143.2130 C   0  0  2  0  0  3  0  0  0  0  0  0
  160.4180  213.8480  143.7330 C   0  0  2  0  0  3  0  0  0  0  0  0
  162.0050  212.2030  142.6570 C   0  0  0  0  0  2  0  0  0  0  0  0
  1  9  1  0  0  0  0
  2  3  1  6  0  0  0
  2  5  1  0  0  0  0
  3  7  1  0  0  0  0
  4 11  1  0  0  0  0
  5 14  2  0  0  0  0
  6  1  2  0  0  0  0
  7  4  2  0  0  0  0
  8 23  1  6  0  0  0
  8 12  1  0  0  0  0
  8 13  1  0  0  0  0
 10 18  1  0  0  0  0
 10 19  1  0  0  0  0
 12 16  1  0  0  0  0
 13 18  1  6  0  0  0
 13  2  1  0  0  0  0
 14  1  1  0  0  0  0
 15  4  1  0  0  0  0
 16 17  2  0  0  0  0
 16  5  1  0  0  0  0
 17  6  1  0  0  0  0
 19 20  1  0  0  0  0
 19  3  2  0  0  0  0
 20 15  2  0  0  0  0
 22 21  2  0  0  0  0
 22 23  1  0  0  0  0
 24 28  1  0  0  0  0
 24 31  1  0  0  0  0
 25 30  1  0  0  0  0
 27 24  1  0  0  0  0
 28 25  1  0  0  0  0
 29 30  1  0  0  0  0
 29 26  1  1  0  0  0
 30 22  1  1  0  0  0
 31 29  1  0  0  0  0
M  END
>  <MODEL>
5

>  <REMARK>
 VINA RESULT:      -5.6      4.980      7.912
  Name = 
  2 active torsions:
  status: ('A' for Active; 'I' for Inactive)
    1  A    between atoms: C_5  and  C_30
    2  A    between atoms: C_10  and  N_16
                            x       y       z     vdW  Elec       q    Type
                         _______ _______ _______ _____ _____    ______ ____

>  <TORSDO>
F 2

$$$$
=
 OpenBabel11122413263D

 31 35  0  0  1  0  0  0  0  0999 V2000
  161.8550  212.8420  148.0370 C   0  0  0  0  0  0  0  0  0  0  0  0
  159.5960  213.9440  150.8970 C   0  0  2  0  0  3  0  0  0  0  0  0
  158.1630  213.9430  150.3830 C   0  0  0  0  0  0  0  0  0  0  0  0
  156.6100  214.1130  148.5130 C   0  0  0  0  0  0  0  0  0  0  0  0
  160.5330  213.1140  150.0530 C   0  0  0  0  0  0  0  0  0  0  0  0
  162.2550  211.5740  148.4650 C   0  0  0  0  0  3  0  0  0  0  0  0
  157.9160  214.0280  149.0030 C   0  0  0  0  0  3  0  0  0  0  0  0
  159.5940  212.0270  152.5540 C   0  0  2  0  0  3  0  0  0  0  0  0
  162.3380  213.3730  146.7350 C   0  0  0  0  0  1  0  0  0  0  0  0
  157.2430  213.9060  152.7630 C   0  0  0  0  0  2  0  0  0  0  0  0
  156.3860  214.1790  147.1450 O   0  0  0  0  0  1  0  0  0  0  0  0
  160.5520  211.3520  151.7370 O   0  0  0  0  0  0  0  0  0  0  0  0
  159.7060  213.5510  152.3840 C   0  0  2  0  0  3  0  0  0  0  0  0
  160.9990  213.6110  148.8290 C   0  0  0  0  0  3  0  0  0  0  0  0
  155.5340  214.1330  149.3990 C   0  0  0  0  0  3  0  0  0  0  0  0
  160.9490  211.8420  150.4890 C   0  0  0  0  0  0  0  0  0  0  0  0
  161.8060  211.0770  149.6920 C   0  0  0  0  0  3  0  0  0  0  0  0
  158.6520  214.2970  153.2020 C   0  0  0  0  0  2  0  0  0  0  0  0
  157.0650  214.0050  151.2760 C   0  0  0  0  0  0  0  0  0  0  0  0
  155.7620  214.0780  150.7750 C   0  0  0  0  0  3  0  0  0  0  0  0
  157.6180  210.8800  154.2530 O   0  0  0  0  0  0  0  0  0  0  0  0
  158.7630  211.0790  154.7430 C   0  0  0  0  0  0  0  0  0  0  0  0
  159.7980  211.6570  153.9470 N   0  0  0  0  0  2  0  0  0  0  0  0
  161.8830  210.6740  156.8670 N   0  0  0  0  0  0  0  0  0  0  0  0
  159.7420  211.8710  156.9120 C   0  0  0  0  0  2  0  0  0  0  0  0
  159.3310  208.4020  155.5190 O   0  0  0  0  0  1  0  0  0  0  0  0
  163.1860  210.8160  156.5280 O   0  0  0  0  0  1  0  0  0  0  0  0
  161.2270  211.9410  156.5540 C   0  0  0  0  0  2  0  0  0  0  0  0
  159.8590  209.4150  156.3230 C   0  0  2  0  0  3  0  0  0  0  0  0
  159.0570  210.7190  156.1710 C   0  0  2  0  0  3  0  0  0  0  0  0
  161.3340  209.6380  155.9950 C   0  0  0  0  0  2  0  0  0  0  0  0
  1  6  2  0  0  0  0
  1 14  1  0  0  0  0
  2  5  1  6  0  0  0
  2 13  1  0  0  0  0
  3  2  1  0  0  0  0
  3 19  1  0  0  0  0
  4  7  1  0  0  0  0
  4 15  2  0  0  0  0
  5 16  1  0  0  0  0
  6 17  1  0  0  0  0
  7  3  2  0  0  0  0
  8 23  1  1  0  0  0
  9  1  1  0  0  0  0
 10 18  1  0  0  0  0
 11  4  1  0  0  0  0
 12  8  1  0  0  0  0
 13  8  1  0  0  0  0
 13 18  1  1  0  0  0
 14  5  2  0  0  0  0
 15 20  1  0  0  0  0
 16 12  1  0  0  0  0
 17 16  2  0  0  0  0
 19 10  1  0  0  0  0
 20 19  2  0  0  0  0
 21 22  2  0  0  0  0
 23 22  1  0  0  0  0
 27 24  1  0  0  0  0
 28 24  1  0  0  0  0
 28 25  1  0  0  0  0
 29 26  1  6  0  0  0
 30 22  1  6  0  0  0
 30 29  1  0  0  0  0
 30 25  1  0  0  0  0
 31 29  1  0  0  0  0
 31 24  1  0  0  0  0
M  END
>  <MODEL>
6

>  <REMARK>
 VINA RESULT:      -5.2      5.739      9.073
  Name = 
  2 active torsions:
  status: ('A' for Active; 'I' for Inactive)
    1  A    between atoms: C_5  and  C_30
    2  A    between atoms: C_10  and  N_16
                            x       y       z     vdW  Elec       q    Type
                         _______ _______ _______ _____ _____    ______ ____

>  <TORSDO>
F 2

$$$$
