=
 OpenBabel11122413223D

 31 35  0  0  0  0  0  0  0  0999 V2000
  161.1040  201.5650  150.0740 C   0  0  0  0  0  0  0  0  0  0  0  0
  161.1550  205.2620  149.3920 C   0  0  0  0  0  0  0  0  0  0  0  0
  161.2190  205.4050  147.9770 C   0  0  0  0  0  0  0  0  0  0  0  0
  160.9330  206.5680  154.4870 O   0  0  0  0  0  0  0  0  0  0  0  0
  160.9690  207.6270  153.8040 C   0  0  0  0  0  0  0  0  0  0  0  0
  161.3130  204.4850  145.7900 C   0  0  0  0  0  0  0  0  0  0  0  0
  161.1180  204.0060  150.0620 C   0  0  0  0  0  0  0  0  0  0  0  0
  161.0410  201.5620  151.4670 C   0  0  0  0  0  3  0  0  0  0  0  0
  161.2510  204.3330  147.1380 N   0  0  0  0  0  0  0  0  0  0  0  0
  161.0630  206.3590  151.5810 C   0  0  0  0  0  0  0  0  0  0  0  0
  161.1280  200.3660  149.3770 O   0  0  0  0  0  1  0  0  0  0  0  0
  161.2220  207.7980  148.2080 N   0  0  0  0  0  0  0  0  0  0  0  0
  161.3440  203.3390  144.9480 N   0  0  0  0  0  1  0  0  0  0  0  0
  161.0290  205.1420  152.1810 N   0  0  0  0  0  0  0  0  0  0  0  0
  161.1260  206.4430  150.1800 C   0  0  0  0  0  0  0  0  0  0  0  0
  161.0340  207.5590  152.3720 N   0  0  0  0  0  2  0  0  0  0  0  0
  161.1410  202.7770  149.3800 C   0  0  0  0  0  3  0  0  0  0  0  0
  161.3440  205.7270  145.2450 N   0  0  0  0  0  0  0  0  0  0  0  0
  161.0540  203.9840  151.4770 C   0  0  0  0  0  0  0  0  0  0  0  0
  161.0160  202.7690  152.1670 C   0  0  0  0  0  3  0  0  0  0  0  0
  161.1610  207.6970  149.5580 C   0  0  0  0  0  3  0  0  0  0  0  0
  161.2520  206.6990  147.4160 C   0  0  0  0  0  0  0  0  0  0  0  0
  161.3150  206.8330  146.0320 C   0  0  0  0  0  3  0  0  0  0  0  0
  160.8610  211.5040  155.6480 C   0  0  0  0  0  0  0  0  0  0  0  0
  160.4190  210.0480  153.7700 C   0  0  0  0  0  3  0  0  0  0  0  0
  161.9710  208.1040  156.5220 O   0  0  0  0  0  1  0  0  0  0  0  0
  160.8200  212.7330  156.2160 F   0  0  0  0  0  0  0  0  0  0  0  0
  160.3760  211.3150  154.3540 C   0  0  0  0  0  3  0  0  0  0  0  0
  161.4380  209.1510  155.7800 C   0  0  0  0  0  0  0  0  0  0  0  0
  160.9470  208.9510  154.4690 C   0  0  0  0  0  0  0  0  0  0  0  0
  161.3900  210.4240  156.3580 C   0  0  0  0  0  3  0  0  0  0  0  0
  1  8  1  0  0  0  0
  2  7  1  0  0  0  0
  2 15  1  0  0  0  0
  3  2  2  0  0  0  0
  5 30  1  0  0  0  0
  5  4  2  0  0  0  0
  6  9  2  0  0  0  0
  7 19  2  0  0  0  0
  8 20  2  0  0  0  0
  9  3  1  0  0  0  0
 10 14  2  0  0  0  0
 10 16  1  0  0  0  0
 11  1  1  0  0  0  0
 12 21  1  0  0  0  0
 13  6  1  0  0  0  0
 15 10  1  0  0  0  0
 16  5  1  0  0  0  0
 17  7  1  0  0  0  0
 17  1  2  0  0  0  0
 18  6  1  0  0  0  0
 18 23  2  0  0  0  0
 19 20  1  0  0  0  0
 19 14  1  0  0  0  0
 21 15  2  0  0  0  0
 22  3  1  0  0  0  0
 22 12  2  0  0  0  0
 23 22  1  0  0  0  0
 24 27  1  0  0  0  0
 24 31  1  0  0  0  0
 25 28  1  0  0  0  0
 25 30  2  0  0  0  0
 28 24  2  0  0  0  0
 29 31  2  0  0  0  0
 29 26  1  0  0  0  0
 30 29  1  0  0  0  0
M  END
>  <MODEL>
1

>  <REMARK>
 VINA RESULT:     -10.0      0.000      0.000
  Name = 
  1 active torsions:
  status: ('A' for Active; 'I' for Inactive)
    1  A    between atoms: C_5  and  C_30
                            x       y       z     vdW  Elec       q    Type
                         _______ _______ _______ _____ _____    ______ ____

>  <TORSDO>
F 1

$$$$
=
 OpenBabel11122413223D

 31 35  0  0  0  0  0  0  0  0999 V2000
  161.2140  205.3500  145.7490 C   0  0  0  0  0  0  0  0  0  0  0  0
  161.1350  204.3760  149.3790 C   0  0  0  0  0  0  0  0  0  0  0  0
  161.1320  202.9530  149.4100 C   0  0  0  0  0  0  0  0  0  0  0  0
  161.1080  209.3560  151.0840 O   0  0  0  0  0  0  0  0  0  0  0  0
  161.0860  208.5900  152.0860 C   0  0  0  0  0  0  0  0  0  0  0  0
  161.1510  200.8430  148.3190 C   0  0  0  0  0  0  0  0  0  0  0  0
  161.1620  205.1440  148.1810 C   0  0  0  0  0  0  0  0  0  0  0  0
  161.2140  206.7400  145.8560 C   0  0  0  0  0  3  0  0  0  0  0  0
  161.1550  202.2010  148.2750 N   0  0  0  0  0  0  0  0  0  0  0  0
  161.1110  206.4730  150.6460 C   0  0  0  0  0  0  0  0  0  0  0  0
  161.2400  204.7500  144.4980 O   0  0  0  0  0  1  0  0  0  0  0  0
  161.0810  202.9930  151.8130 N   0  0  0  0  0  0  0  0  0  0  0  0
  161.1750  200.0940  147.1110 N   0  0  0  0  0  1  0  0  0  0  0  0
  161.1380  207.1680  149.4810 N   0  0  0  0  0  0  0  0  0  0  0  0
  161.1090  205.0690  150.6190 C   0  0  0  0  0  0  0  0  0  0  0  0
  161.0860  207.1670  151.9050 N   0  0  0  0  0  2  0  0  0  0  0  0
  161.1880  204.5610  146.9010 C   0  0  0  0  0  3  0  0  0  0  0  0
  161.1250  200.2010  149.5150 N   0  0  0  0  0  0  0  0  0  0  0  0
  161.1620  206.5580  148.2710 C   0  0  0  0  0  0  0  0  0  0  0  0
  161.1890  207.3430  147.1150 C   0  0  0  0  0  3  0  0  0  0  0  0
  161.0830  204.3480  151.8190 C   0  0  0  0  0  3  0  0  0  0  0  0
  161.1040  202.2900  150.6550 C   0  0  0  0  0  0  0  0  0  0  0  0
  161.1010  200.8980  150.6790 C   0  0  0  0  0  3  0  0  0  0  0  0
  161.0330  210.3010  156.0250 C   0  0  0  0  0  0  0  0  0  0  0  0
  161.3980  210.4990  153.6440 C   0  0  0  0  0  3  0  0  0  0  0  0
  160.3550  207.0350  154.4670 O   0  0  0  0  0  1  0  0  0  0  0  0
  161.0220  210.8550  157.2610 F   0  0  0  0  0  0  0  0  0  0  0  0
  161.3860  211.0710  154.9170 C   0  0  0  0  0  3  0  0  0  0  0  0
  160.7020  208.3750  154.5870 C   0  0  0  0  0  0  0  0  0  0  0  0
  161.0570  209.1490  153.4580 C   0  0  0  0  0  0  0  0  0  0  0  0
  160.6930  208.9570  155.8590 C   0  0  0  0  0  3  0  0  0  0  0  0
  1  8  2  0  0  0  0
  1 17  1  0  0  0  0
  2  3  2  0  0  0  0
  2 15  1  0  0  0  0
  3 22  1  0  0  0  0
  4  5  2  0  0  0  0
  5 30  1  0  0  0  0
  6 18  1  0  0  0  0
  7 19  1  0  0  0  0
  7  2  1  0  0  0  0
  8 20  1  0  0  0  0
  9  6  2  0  0  0  0
  9  3  1  0  0  0  0
 10 16  1  0  0  0  0
 11  1  1  0  0  0  0
 12 21  1  0  0  0  0
 13  6  1  0  0  0  0
 14 10  2  0  0  0  0
 15 10  1  0  0  0  0
 15 21  2  0  0  0  0
 16  5  1  0  0  0  0
 17  7  2  0  0  0  0
 18 23  2  0  0  0  0
 19 14  1  0  0  0  0
 20 19  2  0  0  0  0
 22 23  1  0  0  0  0
 22 12  2  0  0  0  0
 24 27  1  0  0  0  0
 25 28  1  0  0  0  0
 26 29  1  0  0  0  0
 28 24  2  0  0  0  0
 29 31  2  0  0  0  0
 30 25  2  0  0  0  0
 30 29  1  0  0  0  0
 31 24  1  0  0  0  0
M  END
>  <MODEL>
2

>  <REMARK>
 VINA RESULT:      -9.1      2.112      4.060
  Name = 
  1 active torsions:
  status: ('A' for Active; 'I' for Inactive)
    1  A    between atoms: C_5  and  C_30
                            x       y       z     vdW  Elec       q    Type
                         _______ _______ _______ _____ _____    ______ ____

>  <TORSDO>
F 1

$$$$
=
 OpenBabel11122413223D

 31 35  0  0  0  0  0  0  0  0999 V2000
  161.0370  207.4330  154.1640 C   0  0  0  0  0  0  0  0  0  0  0  0
  161.2860  207.0130  150.4370 C   0  0  0  0  0  0  0  0  0  0  0  0
  161.2080  205.6150  150.1870 C   0  0  0  0  0  0  0  0  0  0  0  0
  161.7060  212.1810  149.5250 O   0  0  0  0  0  0  0  0  0  0  0  0
  161.7470  211.5760  148.4200 C   0  0  0  0  0  0  0  0  0  0  0  0
  161.0000  203.3700  150.9360 C   0  0  0  0  0  0  0  0  0  0  0  0
  161.2280  207.5930  151.7360 C   0  0  0  0  0  0  0  0  0  0  0  0
  161.1230  208.8200  154.2740 C   0  0  0  0  0  3  0  0  0  0  0  0
  161.0720  204.7030  151.1890 N   0  0  0  0  0  0  0  0  0  0  0  0
  161.5090  209.2720  149.5120 C   0  0  0  0  0  0  0  0  0  0  0  0
  160.8980  206.6540  155.3040 O   0  0  0  0  0  1  0  0  0  0  0  0
  161.4120  206.0130  147.8240 N   0  0  0  0  0  0  0  0  0  0  0  0
  160.8570  202.4510  152.0110 N   0  0  0  0  0  1  0  0  0  0  0  0
  161.4500  209.7840  150.7670 N   0  0  0  0  0  0  0  0  0  0  0  0
  161.4280  207.8830  149.3220 C   0  0  0  0  0  0  0  0  0  0  0  0
  161.6530  210.1440  148.3790 N   0  0  0  0  0  2  0  0  0  0  0  0
  161.0880  206.8260  152.9070 C   0  0  0  0  0  3  0  0  0  0  0  0
  161.0640  202.9150  149.6590 N   0  0  0  0  0  0  0  0  0  0  0  0
  161.3150  209.0010  151.8650 C   0  0  0  0  0  0  0  0  0  0  0  0
  161.2620  209.6020  153.1260 C   0  0  0  0  0  3  0  0  0  0  0  0
  161.4880  207.3510  148.0280 C   0  0  0  0  0  3  0  0  0  0  0  0
  161.2760  205.1470  148.8570 C   0  0  0  0  0  0  0  0  0  0  0  0
  161.2000  203.7770  148.6190 C   0  0  0  0  0  3  0  0  0  0  0  0
  162.2710  213.7640  144.7610 C   0  0  0  0  0  0  0  0  0  0  0  0
  163.1840  212.6350  146.6950 C   0  0  0  0  0  3  0  0  0  0  0  0
  159.4790  212.4900  146.7940 O   0  0  0  0  0  1  0  0  0  0  0  0
  162.4540  214.4530  143.6100 F   0  0  0  0  0  0  0  0  0  0  0  0
  163.3730  213.3460  145.5070 C   0  0  0  0  0  3  0  0  0  0  0  0
  160.7810  212.7610  146.3920 C   0  0  0  0  0  0  0  0  0  0  0  0
  161.8930  212.3320  147.1540 C   0  0  0  0  0  0  0  0  0  0  0  0
  160.9800  213.4710  145.2040 C   0  0  0  0  0  3  0  0  0  0  0  0
  1  8  1  0  0  0  0
  1 11  1  0  0  0  0
  2  7  1  0  0  0  0
  3  2  1  0  0  0  0
  3  9  1  0  0  0  0
  5  4  2  0  0  0  0
  6  9  2  0  0  0  0
  6 13  1  0  0  0  0
  7 19  2  0  0  0  0
  7 17  1  0  0  0  0
 10 14  2  0  0  0  0
 12 21  2  0  0  0  0
 12 22  1  0  0  0  0
 14 19  1  0  0  0  0
 15 10  1  0  0  0  0
 15  2  2  0  0  0  0
 16  5  1  0  0  0  0
 16 10  1  0  0  0  0
 17  1  2  0  0  0  0
 18  6  1  0  0  0  0
 19 20  1  0  0  0  0
 20  8  2  0  0  0  0
 21 15  1  0  0  0  0
 22  3  2  0  0  0  0
 23 22  1  0  0  0  0
 23 18  2  0  0  0  0
 24 31  2  0  0  0  0
 24 28  1  0  0  0  0
 25 30  1  0  0  0  0
 27 24  1  0  0  0  0
 28 25  2  0  0  0  0
 29 26  1  0  0  0  0
 29 30  2  0  0  0  0
 30  5  1  0  0  0  0
 31 29  1  0  0  0  0
M  END
>  <MODEL>
3

>  <REMARK>
 VINA RESULT:      -8.9      4.502      6.943
  Name = 
  1 active torsions:
  status: ('A' for Active; 'I' for Inactive)
    1  A    between atoms: C_5  and  C_30
                            x       y       z     vdW  Elec       q    Type
                         _______ _______ _______ _____ _____    ______ ____

>  <TORSDO>
F 1

$$$$
=
 OpenBabel11122413223D

 31 35  0  0  0  0  0  0  0  0999 V2000
  161.8370  210.6630  149.9930 C   0  0  0  0  0  0  0  0  0  0  0  0
  161.3570  207.2060  151.3910 C   0  0  0  0  0  0  0  0  0  0  0  0
  161.2360  207.3590  152.8010 C   0  0  0  0  0  0  0  0  0  0  0  0
  161.5770  204.8810  146.6730 O   0  0  0  0  0  0  0  0  0  0  0  0
  161.4040  203.9910  147.5490 C   0  0  0  0  0  0  0  0  0  0  0  0
  161.1840  208.7070  154.7550 C   0  0  0  0  0  0  0  0  0  0  0  0
  161.5520  208.2890  150.4880 C   0  0  0  0  0  0  0  0  0  0  0  0
  161.9400  210.3780  148.6320 C   0  0  0  0  0  3  0  0  0  0  0  0
  161.3000  208.5760  153.4080 N   0  0  0  0  0  0  0  0  0  0  0  0
  161.3900  205.6850  149.4700 C   0  0  0  0  0  0  0  0  0  0  0  0
  161.9250  211.9750  150.4370 O   0  0  0  0  0  1  0  0  0  0  0  0
  160.9750  204.9820  153.0490 N   0  0  0  0  0  0  0  0  0  0  0  0
  161.2550  209.9970  155.3510 N   0  0  0  0  0  1  0  0  0  0  0  0
  161.5750  206.7450  148.6430 N   0  0  0  0  0  0  0  0  0  0  0  0
  161.2780  205.8930  150.8540 C   0  0  0  0  0  0  0  0  0  0  0  0
  161.3080  204.3540  148.9350 N   0  0  0  0  0  2  0  0  0  0  0  0
  161.6450  209.6270  150.9110 C   0  0  0  0  0  3  0  0  0  0  0  0
  160.9990  207.6100  155.5330 N   0  0  0  0  0  0  0  0  0  0  0  0
  161.6590  208.0180  149.1010 C   0  0  0  0  0  0  0  0  0  0  0  0
  161.8500  209.0580  148.1880 C   0  0  0  0  0  3  0  0  0  0  0  0
  161.0850  204.8020  151.7100 C   0  0  0  0  0  3  0  0  0  0  0  0
  161.0450  206.2160  153.6040 C   0  0  0  0  0  0  0  0  0  0  0  0
  160.9280  206.3710  154.9830 C   0  0  0  0  0  3  0  0  0  0  0  0
  161.1300  199.8310  146.5180 C   0  0  0  0  0  0  0  0  0  0  0  0
  161.6260  201.5820  148.1090 C   0  0  0  0  0  3  0  0  0  0  0  0
  160.5440  203.0820  144.8930 O   0  0  0  0  0  1  0  0  0  0  0  0
  161.0490  198.5150  146.2090 F   0  0  0  0  0  0  0  0  0  0  0  0
  161.5430  200.2250  147.7910 C   0  0  0  0  0  3  0  0  0  0  0  0
  160.8820  202.1560  145.8730 C   0  0  0  0  0  0  0  0  0  0  0  0
  161.2990  202.5650  147.1610 C   0  0  0  0  0  0  0  0  0  0  0  0
  160.8010  200.7950  145.5630 C   0  0  0  0  0  3  0  0  0  0  0  0
  1 11  1  0  0  0  0
  1 17  1  0  0  0  0
  2  3  1  0  0  0  0
  3  9  1  0  0  0  0
  3 22  2  0  0  0  0
  4  5  2  0  0  0  0
  5 16  1  0  0  0  0
  6 13  1  0  0  0  0
  6 18  1  0  0  0  0
  7 17  2  0  0  0  0
  7  2  1  0  0  0  0
  8  1  2  0  0  0  0
  9  6  2  0  0  0  0
 10 15  1  0  0  0  0
 12 22  1  0  0  0  0
 14 19  1  0  0  0  0
 14 10  2  0  0  0  0
 15  2  2  0  0  0  0
 15 21  1  0  0  0  0
 16 10  1  0  0  0  0
 19  7  1  0  0  0  0
 20  8  1  0  0  0  0
 20 19  2  0  0  0  0
 21 12  2  0  0  0  0
 22 23  1  0  0  0  0
 23 18  2  0  0  0  0
 24 28  1  0  0  0  0
 26 29  1  0  0  0  0
 27 24  1  0  0  0  0
 28 25  2  0  0  0  0
 29 30  2  0  0  0  0
 30  5  1  0  0  0  0
 30 25  1  0  0  0  0
 31 29  1  0  0  0  0
 31 24  2  0  0  0  0
M  END
>  <MODEL>
4

>  <REMARK>
 VINA RESULT:      -8.8      4.184      9.224
  Name = 
  1 active torsions:
  status: ('A' for Active; 'I' for Inactive)
    1  A    between atoms: C_5  and  C_30
                            x       y       z     vdW  Elec       q    Type
                         _______ _______ _______ _____ _____    ______ ____

>  <TORSDO>
F 1

$$$$
=
 OpenBabel11122413223D

 31 35  0  0  0  0  0  0  0  0999 V2000
  160.6940  210.8470  154.3380 C   0  0  0  0  0  0  0  0  0  0  0  0
  161.2230  209.6190  150.8250 C   0  0  0  0  0  0  0  0  0  0  0  0
  161.3920  210.7790  150.0180 C   0  0  0  0  0  0  0  0  0  0  0  0
  160.8380  204.5410  152.1620 O   0  0  0  0  0  0  0  0  0  0  0  0
  161.0410  204.6130  150.9190 C   0  0  0  0  0  0  0  0  0  0  0  0
  161.5130  213.1360  149.7540 C   0  0  0  0  0  0  0  0  0  0  0  0
  160.9970  209.6540  152.2300 C   0  0  0  0  0  0  0  0  0  0  0  0
  160.5450  209.6370  155.0140 C   0  0  0  0  0  3  0  0  0  0  0  0
  161.3500  212.0370  150.5370 N   0  0  0  0  0  0  0  0  0  0  0  0
  161.1230  207.1730  150.9370 C   0  0  0  0  0  0  0  0  0  0  0  0
  160.6220  212.0450  155.0350 O   0  0  0  0  0  1  0  0  0  0  0  0
  161.6620  209.3980  148.0680 N   0  0  0  0  0  0  0  0  0  0  0  0
  161.4630  214.4330  150.3340 N   0  0  0  0  0  1  0  0  0  0  0  0
  160.9090  207.2500  152.2750 N   0  0  0  0  0  0  0  0  0  0  0  0
  161.2830  208.3500  150.1890 C   0  0  0  0  0  0  0  0  0  0  0  0
  161.1860  205.8930  150.2860 N   0  0  0  0  0  2  0  0  0  0  0  0
  160.9180  210.8540  152.9600 C   0  0  0  0  0  3  0  0  0  0  0  0
  161.7250  212.9970  148.4210 N   0  0  0  0  0  0  0  0  0  0  0  0
  160.8420  208.4340  152.9330 C   0  0  0  0  0  0  0  0  0  0  0  0
  160.6180  208.4330  154.3120 C   0  0  0  0  0  3  0  0  0  0  0  0
  161.5050  208.2740  148.8080 C   0  0  0  0  0  3  0  0  0  0  0  0
  161.6120  210.6290  148.6330 C   0  0  0  0  0  0  0  0  0  0  0  0
  161.7760  211.7670  147.8480 C   0  0  0  0  0  3  0  0  0  0  0  0
  161.3030  200.9880  148.6320 C   0  0  0  0  0  0  0  0  0  0  0  0
  161.1260  202.1380  150.7510 C   0  0  0  0  0  3  0  0  0  0  0  0
  161.2390  204.6120  147.9900 O   0  0  0  0  0  1  0  0  0  0  0  0
  161.3850  199.8350  147.9250 F   0  0  0  0  0  0  0  0  0  0  0  0
  161.2100  200.9490  150.0230 C   0  0  0  0  0  3  0  0  0  0  0  0
  161.2280  203.4120  148.6900 C   0  0  0  0  0  0  0  0  0  0  0  0
  161.1330  203.3820  150.1010 C   0  0  0  0  0  0  0  0  0  0  0  0
  161.3120  202.2170  147.9690 C   0  0  0  0  0  3  0  0  0  0  0  0
  1  8  1  0  0  0  0
  1 11  1  0  0  0  0
  2  7  1  0  0  0  0
  3  9  1  0  0  0  0
  3  2  2  0  0  0  0
  5  4  2  0  0  0  0
  6 13  1  0  0  0  0
  6  9  2  0  0  0  0
  7 19  2  0  0  0  0
  7 17  1  0  0  0  0
 10 14  2  0  0  0  0
 12 22  2  0  0  0  0
 12 21  1  0  0  0  0
 14 19  1  0  0  0  0
 15  2  1  0  0  0  0
 15 10  1  0  0  0  0
 16  5  1  0  0  0  0
 16 10  1  0  0  0  0
 17  1  2  0  0  0  0
 18  6  1  0  0  0  0
 19 20  1  0  0  0  0
 20  8  2  0  0  0  0
 21 15  2  0  0  0  0
 22  3  1  0  0  0  0
 23 18  2  0  0  0  0
 23 22  1  0  0  0  0
 24 28  1  0  0  0  0
 26 29  1  0  0  0  0
 27 24  1  0  0  0  0
 28 25  2  0  0  0  0
 29 30  2  0  0  0  0
 30 25  1  0  0  0  0
 30  5  1  0  0  0  0
 31 24  2  0  0  0  0
 31 29  1  0  0  0  0
M  END
>  <MODEL>
5

>  <REMARK>
 VINA RESULT:      -7.1      3.933      8.030
  Name = 
  1 active torsions:
  status: ('A' for Active; 'I' for Inactive)
    1  A    between atoms: C_5  and  C_30
                            x       y       z     vdW  Elec       q    Type
                         _______ _______ _______ _____ _____    ______ ____

>  <TORSDO>
F 1

$$$$
=
 OpenBabel11122413223D

 31 35  0  0  0  0  0  0  0  0999 V2000
  161.5350  212.1490  149.8220 C   0  0  0  0  0  0  0  0  0  0  0  0
  161.2380  208.7650  151.4310 C   0  0  0  0  0  0  0  0  0  0  0  0
  161.1340  208.9960  152.8320 C   0  0  0  0  0  0  0  0  0  0  0  0
  161.4860  206.1730  146.8560 O   0  0  0  0  0  0  0  0  0  0  0  0
  161.3690  205.3300  147.7870 C   0  0  0  0  0  0  0  0  0  0  0  0
  161.0520  210.4560  154.7040 C   0  0  0  0  0  0  0  0  0  0  0  0
  161.3680  209.7990  150.4620 C   0  0  0  0  0  0  0  0  0  0  0  0
  161.6270  211.7880  148.4790 C   0  0  0  0  0  3  0  0  0  0  0  0
  161.1520  210.2490  153.3640 N   0  0  0  0  0  0  0  0  0  0  0  0
  161.3090  207.1340  149.6040 C   0  0  0  0  0  0  0  0  0  0  0  0
  161.5700  213.4880  150.1860 O   0  0  0  0  0  1  0  0  0  0  0  0
  160.9870  206.6290  153.2250 N   0  0  0  0  0  0  0  0  0  0  0  0
  161.0740  211.7800  155.2210 N   0  0  0  0  0  1  0  0  0  0  0  0
  161.4310  208.1500  148.7120 N   0  0  0  0  0  0  0  0  0  0  0  0
  161.2110  207.4190  150.9750 C   0  0  0  0  0  0  0  0  0  0  0  0
  161.2790  205.7700  149.1500 N   0  0  0  0  0  2  0  0  0  0  0  0
  161.4060  211.1630  150.8040 C   0  0  0  0  0  3  0  0  0  0  0  0
  160.9320  209.4000  155.5490 N   0  0  0  0  0  0  0  0  0  0  0  0
  161.4630  209.4500  149.0920 C   0  0  0  0  0  0  0  0  0  0  0  0
  161.5910  210.4410  148.1150 C   0  0  0  0  0  3  0  0  0  0  0  0
  161.0830  206.3740  151.8980 C   0  0  0  0  0  3  0  0  0  0  0  0
  161.0090  207.8960  153.7060 C   0  0  0  0  0  0  0  0  0  0  0  0
  160.9090  208.1280  155.0740 C   0  0  0  0  0  3  0  0  0  0  0  0
  161.2290  201.1080  147.0150 C   0  0  0  0  0  0  0  0  0  0  0  0
  161.2210  202.9730  148.5530 C   0  0  0  0  0  3  0  0  0  0  0  0
  161.4810  204.2230  145.0700 O   0  0  0  0  0  1  0  0  0  0  0  0
  161.1840  199.7730  146.7890 F   0  0  0  0  0  0  0  0  0  0  0  0
  161.1740  201.5970  148.3200 C   0  0  0  0  0  3  0  0  0  0  0  0
  161.3800  203.3750  146.1660 C   0  0  0  0  0  0  0  0  0  0  0  0
  161.3230  203.8800  147.4860 C   0  0  0  0  0  0  0  0  0  0  0  0
  161.3320  201.9950  145.9420 C   0  0  0  0  0  3  0  0  0  0  0  0
  1 11  1  0  0  0  0
  1 17  1  0  0  0  0
  2  3  1  0  0  0  0
  3  9  1  0  0  0  0
  3 22  2  0  0  0  0
  4  5  2  0  0  0  0
  5 16  1  0  0  0  0
  6 13  1  0  0  0  0
  6 18  1  0  0  0  0
  7 17  2  0  0  0  0
  7  2  1  0  0  0  0
  8  1  2  0  0  0  0
  9  6  2  0  0  0  0
 10 15  1  0  0  0  0
 12 22  1  0  0  0  0
 14 19  1  0  0  0  0
 14 10  2  0  0  0  0
 15  2  2  0  0  0  0
 15 21  1  0  0  0  0
 16 10  1  0  0  0  0
 19  7  1  0  0  0  0
 20  8  1  0  0  0  0
 20 19  2  0  0  0  0
 21 12  2  0  0  0  0
 22 23  1  0  0  0  0
 23 18  2  0  0  0  0
 24 28  1  0  0  0  0
 26 29  1  0  0  0  0
 27 24  1  0  0  0  0
 28 25  2  0  0  0  0
 29 30  2  0  0  0  0
 30  5  1  0  0  0  0
 30 25  1  0  0  0  0
 31 29  1  0  0  0  0
 31 24  2  0  0  0  0
M  END
>  <MODEL>
6

>  <REMARK>
 VINA RESULT:      -7.1      4.225      9.212
  Name = 
  1 active torsions:
  status: ('A' for Active; 'I' for Inactive)
    1  A    between atoms: C_5  and  C_30
                            x       y       z     vdW  Elec       q    Type
                         _______ _______ _______ _____ _____    ______ ____

>  <TORSDO>
F 1

$$$$
