=
 OpenBabel11122414043D

 28 32  0  0  1  0  0  0  0  0999 V2000
  158.5150  212.1250  152.6510 C   0  0  0  0  0  0  0  0  0  0  0  0
  161.4240  209.8720  149.8120 O   0  0  0  0  0  0  0  0  0  0  0  0
  162.1990  210.5890  157.2610 O   0  0  0  0  0  0  0  0  0  0  0  0
  159.8970  213.2980  150.5130 C   0  0  0  0  0  3  0  0  0  0  0  0
  161.3830  208.8670  155.8170 C   0  0  0  0  0  0  0  0  0  0  0  0
  157.7740  211.6900  153.8750 C   0  0  0  0  0  2  0  0  0  0  0  0
  163.2360  209.9990  151.4900 O   0  0  0  0  0  0  0  0  0  0  0  0
  161.9590  209.3110  151.1000 S   0  0  0  0  0  0  0  0  0  0  0  0
  161.5900  206.6840  151.8740 C   0  0  0  0  0  0  0  0  0  0  0  0
  160.7480  209.4280  152.3850 C   0  0  1  0  0  3  0  0  0  0  0  0
  159.3420  214.4530  156.0000 C   0  0  0  0  0  1  0  0  0  0  0  0
  160.0540  210.3090  154.4670 N   0  0  1  0  0  0  0  0  0  0  0  0
  161.0710  207.0980  153.0000 N   0  0  0  0  0  0  0  0  0  0  0  0
  162.2100  207.5990  150.9480 N   0  0  0  0  0  2  0  0  0  0  0  0
  159.3200  213.1080  155.3080 C   0  0  1  0  0  3  0  0  0  0  0  0
  159.8680  211.7650  152.4100 C   0  0  0  0  0  0  0  0  0  0  0  0
  161.5110  210.2060  156.2770 C   0  0  0  0  0  0  0  0  0  0  0  0
  161.5030  205.2430  151.5200 C   0  0  0  0  0  1  0  0  0  0  0  0
  159.9230  212.0690  156.2370 C   0  0  0  0  0  2  0  0  0  0  0  0
  160.5390  212.3770  151.3410 C   0  0  0  0  0  3  0  0  0  0  0  0
  157.8810  213.0520  151.8140 C   0  0  0  0  0  3  0  0  0  0  0  0
  158.5630  213.6290  150.7450 C   0  0  0  0  0  3  0  0  0  0  0  0
  157.8740  212.7540  154.9670 C   0  0  0  0  0  2  0  0  0  0  0  0
  160.4490  208.8790  154.6610 C   0  0  1  0  0  3  0  0  0  0  0  0
  160.6670  211.0420  155.5130 N   0  0  0  0  0  0  0  0  0  0  0  0
  161.2190  208.4850  153.4280 C   0  0  2  0  0  3  0  0  0  0  0  0
  161.9430  207.8550  156.3140 O   0  0  0  0  0  0  0  0  0  0  0  0
  160.6510  210.7120  153.1780 C   0  0  2  0  0  3  0  0  0  0  0  0
  1  6  1  0  0  0  0
  2  8  2  0  0  0  0
  4 22  2  0  0  0  0
  4 20  1  0  0  0  0
  5 17  1  0  0  0  0
  5 27  2  0  0  0  0
  6 23  1  0  0  0  0
  8  7  2  0  0  0  0
  9 13  2  0  0  0  0
 10  8  1  6  0  0  0
 10 28  1  0  0  0  0
 10 26  1  0  0  0  0
 12 24  1  0  0  0  0
 12 25  1  1  0  0  0
 14  8  1  0  0  0  0
 14  9  1  0  0  0  0
 15 11  1  1  0  0  0
 15 19  1  0  0  0  0
 16  1  1  0  0  0  0
 17  3  2  0  0  0  0
 18  9  1  0  0  0  0
 20 16  2  0  0  0  0
 21  1  2  0  0  0  0
 22 21  1  0  0  0  0
 23 15  1  0  0  0  0
 24  5  1  1  0  0  0
 25 19  1  0  0  0  0
 25 17  1  0  0  0  0
 26 13  1  6  0  0  0
 26 24  1  0  0  0  0
 28 16  1  6  0  0  0
 28 12  1  0  0  0  0
M  END
>  <MODEL>
1

>  <REMARK>
 VINA RESULT:      -6.2      0.000      0.000
  Name = 
  0 active torsions:
  status: ('A' for Active; 'I' for Inactive)
                            x       y       z     vdW  Elec       q    Type
                         _______ _______ _______ _____ _____    ______ ____

>  <TORSDO>
F 0

$$$$
