=
 OpenBabel11122412583D

 32 37  0  0  1  0  0  0  0  0999 V2000
  161.8790  204.5650  151.6100 C   0  0  0  0  0  2  0  0  0  0  0  0
  160.3030  209.9590  152.8700 C   0  0  1  0  0  3  0  0  0  0  0  0
  161.2190  213.2290  149.2100 C   0  0  0  0  0  3  0  0  0  0  0  0
  160.4080  214.1610  149.8570 C   0  0  0  0  0  3  0  0  0  0  0  0
  159.4630  210.8750  155.1080 C   0  0  2  0  0  3  0  0  0  0  0  0
  158.2100  211.7080  155.4250 C   0  0  2  0  0  3  0  0  0  0  0  0
  161.5560  207.7170  152.6880 C   0  0  2  0  0  3  0  0  0  0  0  0
  161.0900  209.1470  150.6230 C   0  0  0  0  0  2  0  0  0  0  0  0
  156.8350  213.2440  154.2920 C   0  0  0  0  0  0  0  0  0  0  0  0
  161.5540  206.7270  150.3260 C   0  0  0  0  0  2  0  0  0  0  0  0
  161.4420  211.9770  149.7870 C   0  0  0  0  0  3  0  0  0  0  0  0
  161.1570  210.2950  151.6400 C   0  0  1  0  0  3  0  0  0  0  0  0
  160.8450  211.6380  151.0120 C   0  0  0  0  0  0  0  0  0  0  0  0
  159.3820  212.2590  152.9880 C   0  0  2  0  0  3  0  0  0  0  0  0
  156.1740  212.1410  154.2840 N   0  0  0  0  0  0  0  0  0  0  0  0
  162.4400  205.3850  152.7740 C   0  0  0  0  0  2  0  0  0  0  0  0
  160.9450  207.7600  151.2670 C   0  0  1  0  0  3  0  0  0  0  0  0
  156.9520  211.0550  154.8530 C   0  0  0  0  0  2  0  0  0  0  0  0
  161.4210  206.3530  153.3560 C   0  0  0  0  0  2  0  0  0  0  0  0
  160.9920  205.3460  150.6370 C   0  0  1  0  0  3  0  0  0  0  0  0
  159.8290  213.8480  151.0880 C   0  0  0  0  0  3  0  0  0  0  0  0
  160.0670  212.6040  151.6920 C   0  0  0  0  0  0  0  0  0  0  0  0
  159.2150  213.4250  153.8510 N   0  0  0  0  0  2  0  0  0  0  0  0
  160.9310  208.7720  153.6160 C   0  0  0  0  0  2  0  0  0  0  0  0
  160.4730  211.0360  156.2270 C   0  0  0  0  0  1  0  0  0  0  0  0
  156.2830  214.4530  153.7840 N   0  0  0  0  0  1  0  0  0  0  0  0
  160.1420  211.1880  153.7630 C   0  0  2  0  0  3  0  0  0  0  0  0
  158.1950  213.1550  154.8780 C   0  0  2  0  0  3  0  0  0  0  0  0
  160.8270  204.5400  149.3590 C   0  0  0  0  0  2  0  0  0  0  0  0
  161.4250  205.2730  148.1680 C   0  0  2  0  0  3  0  0  0  0  0  0
  160.4500  206.0620  147.5580 O   0  0  0  0  0  1  0  0  0  0  0  0
  161.9500  204.2630  147.1700 C   0  0  0  0  0  1  0  0  0  0  0  0
  1 16  1  0  0  0  0
  2 24  1  1  0  0  0
  2 27  1  0  0  0  0
  3 11  2  0  0  0  0
  3  4  1  0  0  0  0
  4 21  2  0  0  0  0
  5  6  1  0  0  0  0
  5 25  1  1  0  0  0
  6 18  1  6  0  0  0
  7 19  1  1  0  0  0
  7 24  1  0  0  0  0
  8 17  1  0  0  0  0
  9 28  1  0  0  0  0
 10 20  1  0  0  0  0
 11 13  1  0  0  0  0
 12  8  1  6  0  0  0
 12  2  1  0  0  0  0
 13 12  1  0  0  0  0
 13 22  2  0  0  0  0
 14 22  1  6  0  0  0
 14 27  1  0  0  0  0
 14 23  1  0  0  0  0
 15  9  2  0  0  0  0
 15 18  1  0  0  0  0
 16 19  1  0  0  0  0
 17 10  1  6  0  0  0
 17  7  1  0  0  0  0
 20 29  1  6  0  0  0
 20  1  1  0  0  0  0
 21 22  1  0  0  0  0
 23 28  1  0  0  0  0
 26  9  1  0  0  0  0
 27  5  1  0  0  0  0
 28  6  1  0  0  0  0
 30 29  1  0  0  0  0
 31 30  1  0  0  0  0
 32 30  1  0  0  0  0
M  END
>  <MODEL>
1

>  <REMARK>
 VINA RESULT:      -7.9      0.000      0.000
  Name = 
  2 active torsions:
  status: ('A' for Active; 'I' for Inactive)
    1  A    between atoms: C_20  and  C_29
    2  A    between atoms: C_29  and  C_30
                            x       y       z     vdW  Elec       q    Type
                         _______ _______ _______ _____ _____    ______ ____

>  <TORSDO>
F 2

$$$$
=
 OpenBabel11122412583D

 32 37  0  0  1  0  0  0  0  0999 V2000
  161.2180  202.8640  151.2180 C   0  0  0  0  0  2  0  0  0  0  0  0
  160.8480  208.5150  152.2640 C   0  0  1  0  0  3  0  0  0  0  0  0
  162.1430  211.3700  148.3770 C   0  0  0  0  0  3  0  0  0  0  0  0
  161.5820  212.4740  149.0180 C   0  0  0  0  0  3  0  0  0  0  0  0
  160.3680  209.6790  154.4930 C   0  0  2  0  0  3  0  0  0  0  0  0
  159.3330  210.7630  154.8370 C   0  0  2  0  0  3  0  0  0  0  0  0
  161.6100  206.0600  152.1330 C   0  0  2  0  0  3  0  0  0  0  0  0
  161.2970  207.4640  150.0230 C   0  0  0  0  0  2  0  0  0  0  0  0
  158.2180  212.4960  153.7040 C   0  0  0  0  0  0  0  0  0  0  0  0
  161.2440  204.9900  149.8360 C   0  0  0  0  0  2  0  0  0  0  0  0
  162.1490  210.1250  149.0090 C   0  0  0  0  0  3  0  0  0  0  0  0
  161.6640  208.6170  150.9670 C   0  0  1  0  0  3  0  0  0  0  0  0
  161.5850  209.9670  150.2840 C   0  0  0  0  0  0  0  0  0  0  0  0
  160.4170  210.9580  152.3070 C   0  0  2  0  0  3  0  0  0  0  0  0
  157.3500  211.5520  153.7980 N   0  0  0  0  0  0  0  0  0  0  0  0
  162.0130  203.6020  152.2980 C   0  0  0  0  0  2  0  0  0  0  0  0
  160.9220  206.1640  150.7520 C   0  0  1  0  0  3  0  0  0  0  0  0
  157.9330  210.3560  154.3790 C   0  0  0  0  0  2  0  0  0  0  0  0
  161.2520  204.7820  152.8850 C   0  0  0  0  0  2  0  0  0  0  0  0
  160.4390  203.7670  150.2580 C   0  0  1  0  0  3  0  0  0  0  0  0
  161.0400  212.3390  150.2970 C   0  0  0  0  0  3  0  0  0  0  0  0
  161.0650  211.1000  150.9540 C   0  0  0  0  0  0  0  0  0  0  0  0
  160.5490  212.1690  153.1110 N   0  0  0  0  0  2  0  0  0  0  0  0
  161.2760  207.2580  153.0360 C   0  0  0  0  0  2  0  0  0  0  0  0
  161.4660  209.6790  155.5390 C   0  0  0  0  0  1  0  0  0  0  0  0
  157.8860  213.7700  153.1620 N   0  0  0  0  0  1  0  0  0  0  0  0
  161.0000  209.7890  153.0940 C   0  0  2  0  0  3  0  0  0  0  0  0
  159.5700  212.1570  154.2110 C   0  0  2  0  0  3  0  0  0  0  0  0
  160.0270  202.9570  149.0390 C   0  0  0  0  0  2  0  0  0  0  0  0
  161.2430  202.4290  148.2950 C   0  0  2  0  0  3  0  0  0  0  0  0
  161.2390  202.9010  146.9820 O   0  0  0  0  0  1  0  0  0  0  0  0
  161.2060  200.9160  148.2840 C   0  0  0  0  0  1  0  0  0  0  0  0
  1 16  1  0  0  0  0
  2 24  1  1  0  0  0
  2 27  1  0  0  0  0
  3 11  2  0  0  0  0
  3  4  1  0  0  0  0
  4 21  2  0  0  0  0
  5  6  1  0  0  0  0
  5 25  1  1  0  0  0
  6 18  1  6  0  0  0
  7 19  1  1  0  0  0
  7 24  1  0  0  0  0
  8 17  1  0  0  0  0
  9 15  2  0  0  0  0
  9 28  1  0  0  0  0
 10 20  1  0  0  0  0
 11 13  1  0  0  0  0
 12  8  1  6  0  0  0
 12  2  1  0  0  0  0
 13 22  2  0  0  0  0
 13 12  1  0  0  0  0
 14 22  1  6  0  0  0
 14 27  1  0  0  0  0
 14 23  1  0  0  0  0
 15 18  1  0  0  0  0
 16 19  1  0  0  0  0
 17 10  1  6  0  0  0
 17  7  1  0  0  0  0
 20 29  1  6  0  0  0
 20  1  1  0  0  0  0
 21 22  1  0  0  0  0
 23 28  1  0  0  0  0
 26  9  1  0  0  0  0
 27  5  1  0  0  0  0
 28  6  1  0  0  0  0
 30 29  1  0  0  0  0
 31 30  1  0  0  0  0
 32 30  1  0  0  0  0
M  END
>  <MODEL>
2

>  <REMARK>
 VINA RESULT:      -7.8      1.551      2.000
  Name = 
  2 active torsions:
  status: ('A' for Active; 'I' for Inactive)
    1  A    between atoms: C_20  and  C_29
    2  A    between atoms: C_29  and  C_30
                            x       y       z     vdW  Elec       q    Type
                         _______ _______ _______ _____ _____    ______ ____

>  <TORSDO>
F 2

$$$$
=
 OpenBabel11122412583D

 32 37  0  0  1  0  0  0  0  0999 V2000
  161.5160  210.6160  151.9030 C   0  0  0  0  0  2  0  0  0  0  0  0
  161.5230  205.8210  148.7130 C   0  0  1  0  0  3  0  0  0  0  0  0
  160.7660  201.6490  151.3510 C   0  0  0  0  0  3  0  0  0  0  0  0
  160.5410  200.9540  150.1620 C   0  0  0  0  0  3  0  0  0  0  0  0
  162.1120  205.5760  146.2340 C   0  0  2  0  0  3  0  0  0  0  0  0
  161.3290  204.8990  145.0970 C   0  0  2  0  0  3  0  0  0  0  0  0
  162.2030  207.8880  150.0880 C   0  0  2  0  0  3  0  0  0  0  0  0
  160.8990  205.9640  151.1460 C   0  0  0  0  0  2  0  0  0  0  0  0
  159.7660  203.1550  144.8860 C   0  0  0  0  0  0  0  0  0  0  0  0
  160.8320  208.1960  152.2290 C   0  0  0  0  0  2  0  0  0  0  0  0
  161.1030  203.0040  151.3140 C   0  0  0  0  0  3  0  0  0  0  0  0
  161.6330  205.1350  150.0830 C   0  0  1  0  0  3  0  0  0  0  0  0
  161.2060  203.6820  150.0890 C   0  0  0  0  0  0  0  0  0  0  0  0
  161.0960  203.6690  147.5560 C   0  0  2  0  0  3  0  0  0  0  0  0
  159.0700  204.2330  144.8060 N   0  0  0  0  0  0  0  0  0  0  0  0
  162.7040  210.1280  151.0690 C   0  0  0  0  0  2  0  0  0  0  0  0
  160.9450  207.4780  150.8890 C   0  0  1  0  0  3  0  0  0  0  0  0
  159.8900  205.4090  145.0360 C   0  0  0  0  0  2  0  0  0  0  0  0
  162.2740  209.3860  149.8120 C   0  0  0  0  0  2  0  0  0  0  0  0
  160.3530  209.6250  152.0130 C   0  0  1  0  0  3  0  0  0  0  0  0
  160.6660  201.6080  148.9360 C   0  0  0  0  0  3  0  0  0  0  0  0
  161.0300  202.9620  148.8840 C   0  0  0  0  0  0  0  0  0  0  0  0
  161.5550  202.7890  146.4850 N   0  0  0  0  0  2  0  0  0  0  0  0
  162.2980  207.1470  148.7450 C   0  0  0  0  0  2  0  0  0  0  0  0
  163.5720  205.6970  145.8410 C   0  0  0  0  0  1  0  0  0  0  0  0
  159.1840  201.8690  144.7000 N   0  0  0  0  0  1  0  0  0  0  0  0
  162.0110  204.8870  147.6070 C   0  0  2  0  0  3  0  0  0  0  0  0
  161.2070  203.3590  145.1740 C   0  0  2  0  0  3  0  0  0  0  0  0
  159.4410  210.0560  153.1500 C   0  0  0  0  0  2  0  0  0  0  0  0
  160.2420  210.4100  154.3930 C   0  0  2  0  0  3  0  0  0  0  0  0
  160.0140  209.4620  155.3900 O   0  0  0  0  0  1  0  0  0  0  0  0
  159.8190  211.7750  154.8910 C   0  0  0  0  0  1  0  0  0  0  0  0
  1 20  1  0  0  0  0
  2 24  1  1  0  0  0
  2 12  1  0  0  0  0
  4  3  2  0  0  0  0
  5 25  1  6  0  0  0
  5 27  1  0  0  0  0
  6 18  1  1  0  0  0
  6 28  1  0  0  0  0
  6  5  1  0  0  0  0
  7 24  1  6  0  0  0
  7 17  1  0  0  0  0
  9 28  1  0  0  0  0
 11  3  1  0  0  0  0
 12 13  1  0  0  0  0
 12  8  1  1  0  0  0
 13 11  2  0  0  0  0
 14 23  1  6  0  0  0
 14 27  1  0  0  0  0
 14 22  1  0  0  0  0
 15  9  2  0  0  0  0
 15 18  1  0  0  0  0
 16  1  1  0  0  0  0
 17  8  1  1  0  0  0
 17 10  1  0  0  0  0
 19  7  1  0  0  0  0
 19 16  1  0  0  0  0
 20 10  1  0  0  0  0
 20 29  1  1  0  0  0
 21  4  1  0  0  0  0
 22 21  2  0  0  0  0
 22 13  1  0  0  0  0
 26  9  1  0  0  0  0
 27  2  1  0  0  0  0
 28 23  1  0  0  0  0
 29 30  1  0  0  0  0
 30 32  1  0  0  0  0
 30 31  1  0  0  0  0
M  END
>  <MODEL>
3

>  <REMARK>
 VINA RESULT:      -6.6      4.726      9.643
  Name = 
  2 active torsions:
  status: ('A' for Active; 'I' for Inactive)
    1  A    between atoms: C_20  and  C_29
    2  A    between atoms: C_29  and  C_30
                            x       y       z     vdW  Elec       q    Type
                         _______ _______ _______ _____ _____    ______ ____

>  <TORSDO>
F 2

$$$$
=
 OpenBabel11122412583D

 32 37  0  0  1  0  0  0  0  0999 V2000
  159.3120  214.0560  146.7820 C   0  0  0  0  0  2  0  0  0  0  0  0
  160.5940  212.4980  141.3880 C   0  0  1  0  0  3  0  0  0  0  0  0
  164.8710  214.4410  139.6960 C   0  0  0  0  0  3  0  0  0  0  0  0
  164.8410  213.5450  138.6270 C   0  0  0  0  0  3  0  0  0  0  0  0
  159.1420  211.1870  139.7370 C   0  0  2  0  0  3  0  0  0  0  0  0
  159.4780  209.9380  138.9050 C   0  0  2  0  0  3  0  0  0  0  0  0
  159.6100  213.6420  143.4740 C   0  0  2  0  0  3  0  0  0  0  0  0
  162.1070  213.7660  142.9490 C   0  0  0  0  0  2  0  0  0  0  0  0
  161.4020  208.9600  137.9720 C   0  0  0  0  0  0  0  0  0  0  0  0
  161.3500  214.1640  145.2780 C   0  0  0  0  0  2  0  0  0  0  0  0
  163.8310  214.4530  140.6270 C   0  0  0  0  0  3  0  0  0  0  0  0
  161.6120  213.6410  141.5000 C   0  0  1  0  0  3  0  0  0  0  0  0
  162.7540  213.5600  140.5080 C   0  0  0  0  0  0  0  0  0  0  0  0
  161.5770  211.6940  139.2570 C   0  0  2  0  0  3  0  0  0  0  0  0
  161.1570  208.2660  139.0260 N   0  0  0  0  0  0  0  0  0  0  0  0
  158.4410  214.3590  145.5590 C   0  0  0  0  0  2  0  0  0  0  0  0
  161.0450  213.3980  143.9970 C   0  0  1  0  0  3  0  0  0  0  0  0
  160.0500  208.8260  139.7820 C   0  0  0  0  0  2  0  0  0  0  0  0
  158.5330  213.2800  144.4910 C   0  0  0  0  0  2  0  0  0  0  0  0
  160.6910  213.4730  146.4650 C   0  0  1  0  0  3  0  0  0  0  0  0
  163.7640  212.6700  138.4800 C   0  0  0  0  0  3  0  0  0  0  0  0
  162.6990  212.6900  139.3940 C   0  0  0  0  0  0  0  0  0  0  0  0
  161.2840  211.3810  137.8610 N   0  0  0  0  0  2  0  0  0  0  0  0
  159.3280  212.8650  142.1770 C   0  0  0  0  0  2  0  0  0  0  0  0
  157.9550  211.9010  139.1210 C   0  0  0  0  0  1  0  0  0  0  0  0
  162.4460  208.6100  137.0690 N   0  0  0  0  0  1  0  0  0  0  0  0
  160.2970  212.1880  139.9220 C   0  0  2  0  0  3  0  0  0  0  0  0
  160.5130  210.1310  137.7720 C   0  0  2  0  0  3  0  0  0  0  0  0
  161.5720  213.5840  147.6990 C   0  0  0  0  0  2  0  0  0  0  0  0
  162.2480  212.2580  148.0100 C   0  0  2  0  0  3  0  0  0  0  0  0
  161.9570  211.8720  149.3190 O   0  0  0  0  0  1  0  0  0  0  0  0
  163.7460  212.4100  147.8540 C   0  0  0  0  0  1  0  0  0  0  0  0
  2 12  1  0  0  0  0
  2 24  1  1  0  0  0
  3 11  1  0  0  0  0
  4  3  2  0  0  0  0
  5 25  1  6  0  0  0
  5 27  1  0  0  0  0
  6  5  1  0  0  0  0
  6 18  1  1  0  0  0
  7 24  1  6  0  0  0
  7 17  1  0  0  0  0
  7 19  1  0  0  0  0
  9 15  2  0  0  0  0
 10 20  1  0  0  0  0
 12  8  1  1  0  0  0
 13 11  2  0  0  0  0
 13 12  1  0  0  0  0
 14 23  1  6  0  0  0
 14 22  1  0  0  0  0
 14 27  1  0  0  0  0
 15 18  1  0  0  0  0
 16  1  1  0  0  0  0
 17  8  1  6  0  0  0
 17 10  1  0  0  0  0
 19 16  1  0  0  0  0
 20  1  1  0  0  0  0
 20 29  1  1  0  0  0
 21  4  1  0  0  0  0
 21 22  2  0  0  0  0
 22 13  1  0  0  0  0
 26  9  1  0  0  0  0
 27  2  1  0  0  0  0
 28 23  1  0  0  0  0
 28  9  1  0  0  0  0
 28  6  1  0  0  0  0
 29 30  1  0  0  0  0
 30 31  1  0  0  0  0
 32 30  1  0  0  0  0
M  END
>  <MODEL>
4

>  <REMARK>
 VINA RESULT:      -5.0      9.150     12.803
  Name = 
  2 active torsions:
  status: ('A' for Active; 'I' for Inactive)
    1  A    between atoms: C_20  and  C_29
    2  A    between atoms: C_29  and  C_30
                            x       y       z     vdW  Elec       q    Type
                         _______ _______ _______ _____ _____    ______ ____

>  <TORSDO>
F 2

$$$$
