=
 OpenBabel11122412343D

 30 35  0  0  1  0  0  0  0  0999 V2000
  161.4320  206.4040  150.0960 C   0  0  1  0  0  3  0  0  0  0  0  0
  161.2370  203.8650  149.8880 C   0  0  0  0  0  0  0  0  0  0  0  0
  160.9100  206.0260  154.3900 C   0  0  0  0  0  2  0  0  0  0  0  0
  161.6560  207.5660  151.0980 C   0  0  1  0  0  3  0  0  0  0  0  0
  162.3830  206.4820  149.0610 O   0  0  0  0  0  0  0  0  0  0  0  0
  161.8970  210.1730  148.3750 C   0  0  0  0  0  1  0  0  0  0  0  0
  160.3560  210.3620  152.0540 C   0  0  1  0  0  3  0  0  0  0  0  0
  162.2100  208.9250  149.1990 C   0  0  2  0  0  3  0  0  0  0  0  0
  160.1490  209.5850  153.3540 C   0  0  2  0  0  3  0  0  0  0  0  0
  160.7690  207.4840  154.6140 C   0  0  0  0  0  0  0  0  0  0  0  0
  162.1180  207.6560  148.3170 C   0  0  2  0  0  3  0  0  0  0  0  0
  161.3490  208.8260  150.3980 N   0  0  2  0  0  0  0  0  0  0  0  0
  161.0680  202.6090  150.4720 C   0  0  0  0  0  3  0  0  0  0  0  0
  160.6370  210.5170  154.4460 C   0  0  0  0  0  2  0  0  0  0  0  0
  160.4010  211.8340  152.4320 C   0  0  0  0  0  2  0  0  0  0  0  0
  161.2870  203.9670  148.5030 O   0  0  0  0  0  1  0  0  0  0  0  0
  161.3930  206.0500  152.9610 C   0  0  2  0  0  3  0  0  0  0  0  0
  160.9920  202.4970  151.8600 C   0  0  0  0  0  3  0  0  0  0  0  0
  161.3460  205.0070  150.7010 C   0  0  0  0  0  0  0  0  0  0  0  0
  160.7830  207.2900  152.3310 C   0  0  1  0  0  3  0  0  0  0  0  0
  160.5760  207.9770  155.7570 O   0  0  0  0  0  0  0  0  0  0  0  0
  160.8060  208.2710  153.4150 N   0  0  0  0  0  0  0  0  0  0  0  0
  160.3160  211.9050  153.9450 C   0  0  0  0  0  2  0  0  0  0  0  0
  162.9200  209.9710  152.0290 C   0  0  0  0  0  1  0  0  0  0  0  0
  161.0700  203.6080  152.6400 N   0  0  0  0  0  0  0  0  0  0  0  0
  161.2120  204.8480  152.0970 C   0  0  0  0  0  0  0  0  0  0  0  0
  161.6010  210.0000  151.2460 C   0  0  2  0  0  3  0  0  0  0  0  0
  160.8110  207.5490  147.5240 C   0  0  0  0  0  2  0  0  0  0  0  0
  160.5040  206.3590  145.6930 C   0  0  0  0  0  1  0  0  0  0  0  0
  160.6330  206.2400  147.0760 O   0  0  0  0  0  0  0  0  0  0  0  0
  1  5  1  6  0  0  0
  1 19  1  0  0  0  0
  1  4  1  0  0  0  0
  2 13  2  0  0  0  0
  2 19  1  0  0  0  0
  3 10  1  0  0  0  0
  4 20  1  0  0  0  0
  6  8  1  0  0  0  0
  7 15  1  0  0  0  0
  7  9  1  0  0  0  0
  8 12  1  0  0  0  0
  9 22  1  0  0  0  0
  9 14  1  0  0  0  0
 10 21  2  0  0  0  0
 11  5  1  0  0  0  0
 11  8  1  0  0  0  0
 12  4  1  0  0  0  0
 12 27  1  0  0  0  0
 13 18  1  0  0  0  0
 15 23  1  0  0  0  0
 16  2  1  0  0  0  0
 17  3  1  0  0  0  0
 18 25  2  0  0  0  0
 19 26  2  0  0  0  0
 20 17  1  0  0  0  0
 20 22  1  0  0  0  0
 22 10  1  0  0  0  0
 23 14  1  0  0  0  0
 26 25  1  0  0  0  0
 26 17  1  0  0  0  0
 27 24  1  0  0  0  0
 27  7  1  0  0  0  0
 28 11  1  0  0  0  0
 29 30  1  0  0  0  0
 30 28  1  0  0  0  0
M  END
>  <MODEL>
1

>  <REMARK>
 VINA RESULT:      -7.7      0.000      0.000
  Name = 
  2 active torsions:
  status: ('A' for Active; 'I' for Inactive)
    1  A    between atoms: C_11  and  C_28
    2  A    between atoms: C_28  and  O_30
                            x       y       z     vdW  Elec       q    Type
                         _______ _______ _______ _____ _____    ______ ____

>  <TORSDO>
F 2

$$$$
=
 OpenBabel11122412343D

 30 35  0  0  1  0  0  0  0  0999 V2000
  161.1450  209.5600  151.7520 C   0  0  1  0  0  3  0  0  0  0  0  0
  161.1170  211.8770  150.6760 C   0  0  0  0  0  0  0  0  0  0  0  0
  162.1230  207.8480  147.8830 C   0  0  0  0  0  2  0  0  0  0  0  0
  161.5870  208.0880  151.5470 C   0  0  1  0  0  3  0  0  0  0  0  0
  161.6860  210.0530  152.9550 O   0  0  0  0  0  0  0  0  0  0  0  0
  160.6740  207.0810  155.0710 C   0  0  0  0  0  1  0  0  0  0  0  0
  160.4400  205.0720  151.6280 C   0  0  1  0  0  3  0  0  0  0  0  0
  161.3530  207.8220  153.9200 C   0  0  2  0  0  3  0  0  0  0  0  0
  160.7480  205.1330  150.1320 C   0  0  2  0  0  3  0  0  0  0  0  0
  161.9360  206.4470  148.3310 C   0  0  0  0  0  0  0  0  0  0  0  0
  161.0850  209.3440  154.0230 C   0  0  2  0  0  3  0  0  0  0  0  0
  160.9540  207.2790  152.6030 N   0  0  2  0  0  0  0  0  0  0  0  0
  161.2650  212.6980  149.5580 C   0  0  0  0  0  3  0  0  0  0  0  0
  161.4890  203.8440  149.8350 C   0  0  0  0  0  2  0  0  0  0  0  0
  160.4780  203.6030  152.0180 C   0  0  0  0  0  2  0  0  0  0  0  0
  160.6920  212.4370  151.8750 O   0  0  0  0  0  1  0  0  0  0  0  0
  162.0960  208.5330  149.2280 C   0  0  2  0  0  3  0  0  0  0  0  0
  161.6670  212.1420  148.3420 C   0  0  0  0  0  3  0  0  0  0  0  0
  161.3900  210.5020  150.5780 C   0  0  0  0  0  0  0  0  0  0  0  0
  161.2040  207.6840  150.1160 C   0  0  1  0  0  3  0  0  0  0  0  0
  162.0930  205.4650  147.5590 O   0  0  0  0  0  0  0  0  0  0  0  0
  161.5020  206.3170  149.6910 N   0  0  0  0  0  0  0  0  0  0  0  0
  160.8970  202.8280  150.7830 C   0  0  0  0  0  2  0  0  0  0  0  0
  162.8720  205.6410  152.3270 C   0  0  0  0  0  1  0  0  0  0  0  0
  161.9020  210.8070  148.2470 N   0  0  0  0  0  0  0  0  0  0  0  0
  161.7450  209.9800  149.3150 C   0  0  0  0  0  0  0  0  0  0  0  0
  161.3700  205.8710  152.5390 C   0  0  2  0  0  3  0  0  0  0  0  0
  159.6020  209.6990  154.1840 C   0  0  0  0  0  2  0  0  0  0  0  0
  159.5920  210.5030  156.2370 C   0  0  0  0  0  1  0  0  0  0  0  0
  159.4750  210.8880  154.9010 O   0  0  0  0  0  0  0  0  0  0  0  0
  1 19  1  6  0  0  0
  1  5  1  0  0  0  0
  2 16  1  0  0  0  0
  3 10  1  0  0  0  0
  3 17  1  0  0  0  0
  4  1  1  0  0  0  0
  4 12  1  0  0  0  0
  5 11  1  0  0  0  0
  7 15  1  0  0  0  0
  7 27  1  0  0  0  0
  8 11  1  0  0  0  0
  8  6  1  0  0  0  0
  9  7  1  0  0  0  0
 10 22  1  0  0  0  0
 11 28  1  0  0  0  0
 12  8  1  0  0  0  0
 13  2  2  0  0  0  0
 14  9  1  0  0  0  0
 14 23  1  0  0  0  0
 17 26  1  0  0  0  0
 17 20  1  0  0  0  0
 18 13  1  0  0  0  0
 19  2  1  0  0  0  0
 20  4  1  0  0  0  0
 21 10  2  0  0  0  0
 22 20  1  0  0  0  0
 22  9  1  0  0  0  0
 23 15  1  0  0  0  0
 24 27  1  0  0  0  0
 25 18  2  0  0  0  0
 25 26  1  0  0  0  0
 26 19  2  0  0  0  0
 27 12  1  0  0  0  0
 28 30  1  0  0  0  0
 30 29  1  0  0  0  0
M  END
>  <MODEL>
2

>  <REMARK>
 VINA RESULT:      -7.2      1.957      6.964
  Name = 
  2 active torsions:
  status: ('A' for Active; 'I' for Inactive)
    1  A    between atoms: C_11  and  C_28
    2  A    between atoms: C_28  and  O_30
                            x       y       z     vdW  Elec       q    Type
                         _______ _______ _______ _____ _____    ______ ____

>  <TORSDO>
F 2

$$$$
=
 OpenBabel11122412343D

 30 35  0  0  1  0  0  0  0  0999 V2000
  161.2260  205.0540  148.8870 C   0  0  1  0  0  3  0  0  0  0  0  0
  160.9010  202.5730  148.3710 C   0  0  0  0  0  0  0  0  0  0  0  0
  161.1910  204.1090  153.1250 C   0  0  0  0  0  2  0  0  0  0  0  0
  161.6150  206.0620  149.9990 C   0  0  1  0  0  3  0  0  0  0  0  0
  162.0540  205.2470  147.7640 O   0  0  0  0  0  0  0  0  0  0  0  0
  161.6490  209.0080  147.6350 C   0  0  0  0  0  1  0  0  0  0  0  0
  160.5550  208.7360  151.4650 C   0  0  1  0  0  3  0  0  0  0  0  0
  162.0010  207.6520  148.2430 C   0  0  2  0  0  3  0  0  0  0  0  0
  160.4680  207.7950  152.6670 C   0  0  2  0  0  3  0  0  0  0  0  0
  161.1400  205.5270  153.5550 C   0  0  0  0  0  0  0  0  0  0  0  0
  161.7550  206.5180  147.2180 C   0  0  2  0  0  3  0  0  0  0  0  0
  161.2820  207.4130  149.5140 N   0  0  2  0  0  0  0  0  0  0  0  0
  160.7480  201.2540  148.8000 C   0  0  0  0  0  3  0  0  0  0  0  0
  161.1190  208.5570  153.8050 C   0  0  0  0  0  2  0  0  0  0  0  0
  160.7060  210.1410  152.0260 C   0  0  0  0  0  2  0  0  0  0  0  0
  160.7940  202.8610  147.0160 O   0  0  0  0  0  1  0  0  0  0  0  0
  161.5060  204.3150  151.6640 C   0  0  2  0  0  3  0  0  0  0  0  0
  160.8290  200.9570  150.1610 C   0  0  0  0  0  3  0  0  0  0  0  0
  161.1520  203.5900  149.3090 C   0  0  0  0  0  0  0  0  0  0  0  0
  160.8800  205.6450  151.2810 C   0  0  1  0  0  3  0  0  0  0  0  0
  161.1020  205.8650  154.7670 O   0  0  0  0  0  0  0  0  0  0  0  0
  161.0710  206.4680  152.4740 N   0  0  0  0  0  0  0  0  0  0  0  0
  160.8000  210.0080  153.5340 C   0  0  0  0  0  2  0  0  0  0  0  0
  163.0800  208.2840  151.0790 C   0  0  0  0  0  1  0  0  0  0  0  0
  161.0440  201.9490  151.0650 N   0  0  0  0  0  0  0  0  0  0  0  0
  161.1750  203.2470  150.6770 C   0  0  0  0  0  0  0  0  0  0  0  0
  161.6810  208.4540  150.4720 C   0  0  2  0  0  3  0  0  0  0  0  0
  160.3600  206.5540  146.5820 C   0  0  0  0  0  2  0  0  0  0  0  0
  160.8390  205.3950  144.7680 C   0  0  0  0  0  1  0  0  0  0  0  0
  160.4730  206.6710  145.1980 O   0  0  0  0  0  0  0  0  0  0  0  0
  1  5  1  6  0  0  0
  1 19  1  0  0  0  0
  1  4  1  0  0  0  0
  2 13  2  0  0  0  0
  2 19  1  0  0  0  0
  3 10  1  0  0  0  0
  4 20  1  0  0  0  0
  6  8  1  0  0  0  0
  7 15  1  0  0  0  0
  7  9  1  0  0  0  0
  8 12  1  0  0  0  0
  9 14  1  0  0  0  0
 10 21  2  0  0  0  0
 11  5  1  0  0  0  0
 11  8  1  0  0  0  0
 12  4  1  0  0  0  0
 12 27  1  0  0  0  0
 13 18  1  0  0  0  0
 15 23  1  0  0  0  0
 16  2  1  0  0  0  0
 17  3  1  0  0  0  0
 18 25  2  0  0  0  0
 19 26  2  0  0  0  0
 20 17  1  0  0  0  0
 20 22  1  0  0  0  0
 22  9  1  0  0  0  0
 22 10  1  0  0  0  0
 23 14  1  0  0  0  0
 26 25  1  0  0  0  0
 26 17  1  0  0  0  0
 27 24  1  0  0  0  0
 27  7  1  0  0  0  0
 28 11  1  0  0  0  0
 29 30  1  0  0  0  0
 30 28  1  0  0  0  0
M  END
>  <MODEL>
3

>  <REMARK>
 VINA RESULT:      -6.4      1.455      1.945
  Name = 
  2 active torsions:
  status: ('A' for Active; 'I' for Inactive)
    1  A    between atoms: C_11  and  C_28
    2  A    between atoms: C_28  and  O_30
                            x       y       z     vdW  Elec       q    Type
                         _______ _______ _______ _____ _____    ______ ____

>  <TORSDO>
F 2

$$$$
=
 OpenBabel11122412343D

 30 35  0  0  1  0  0  0  0  0999 V2000
  161.3600  204.3930  147.5280 C   0  0  1  0  0  3  0  0  0  0  0  0
  161.0130  202.2460  146.1880 C   0  0  0  0  0  0  0  0  0  0  0  0
  161.1620  202.0630  151.1860 C   0  0  0  0  0  2  0  0  0  0  0  0
  161.7250  204.9520  148.9280 C   0  0  1  0  0  3  0  0  0  0  0  0
  162.2290  204.9340  146.5610 O   0  0  0  0  0  0  0  0  0  0  0  0
  161.8890  208.5250  147.7120 C   0  0  0  0  0  1  0  0  0  0  0  0
  160.6580  206.9940  151.1880 C   0  0  1  0  0  3  0  0  0  0  0  0
  162.1990  207.0330  147.8300 C   0  0  2  0  0  3  0  0  0  0  0  0
  160.5140  205.7030  151.9940 C   0  0  2  0  0  3  0  0  0  0  0  0
  161.1180  203.2510  152.0730 C   0  0  0  0  0  0  0  0  0  0  0  0
  161.9690  206.3230  146.4740 C   0  0  2  0  0  3  0  0  0  0  0  0
  161.4320  206.3960  148.9230 N   0  0  2  0  0  0  0  0  0  0  0  0
  160.8240  200.8640  146.1360 C   0  0  0  0  0  3  0  0  0  0  0  0
  161.1370  206.0130  153.3410 C   0  0  0  0  0  2  0  0  0  0  0  0
  160.8120  208.1200  152.1990 C   0  0  0  0  0  2  0  0  0  0  0  0
  160.9570  202.9810  145.0100 O   0  0  0  0  0  1  0  0  0  0  0  0
  161.5300  202.7460  149.8920 C   0  0  2  0  0  3  0  0  0  0  0  0
  160.8520  200.1190  147.3160 C   0  0  0  0  0  3  0  0  0  0  0  0
  161.2470  202.8760  147.4220 C   0  0  0  0  0  0  0  0  0  0  0  0
  160.9390  204.1420  149.9690 C   0  0  1  0  0  3  0  0  0  0  0  0
  161.0430  203.1570  153.3260 O   0  0  0  0  0  0  0  0  0  0  0  0
  161.1020  204.5050  151.3770 N   0  0  0  0  0  0  0  0  0  0  0  0
  160.8520  207.4790  153.5730 C   0  0  0  0  0  2  0  0  0  0  0  0
  163.1870  206.6320  150.7400 C   0  0  0  0  0  1  0  0  0  0  0  0
  161.0510  200.7380  148.5090 N   0  0  0  0  0  0  0  0  0  0  0  0
  161.2170  202.0860  148.5920 C   0  0  0  0  0  0  0  0  0  0  0  0
  161.8130  207.0370  150.1890 C   0  0  2  0  0  3  0  0  0  0  0  0
  160.5990  206.6110  145.8500 C   0  0  0  0  0  2  0  0  0  0  0  0
  161.4600  205.9880  143.9190 C   0  0  0  0  0  1  0  0  0  0  0  0
  160.3790  205.7580  144.7700 O   0  0  0  0  0  0  0  0  0  0  0  0
  1  5  1  6  0  0  0
  1  4  1  0  0  0  0
  2 19  1  0  0  0  0
  3 10  1  0  0  0  0
  4 20  1  0  0  0  0
  6  8  1  0  0  0  0
  7  9  1  0  0  0  0
  7 15  1  0  0  0  0
  8 12  1  0  0  0  0
  9 14  1  0  0  0  0
 10 21  2  0  0  0  0
 11  5  1  0  0  0  0
 11  8  1  0  0  0  0
 12  4  1  0  0  0  0
 12 27  1  0  0  0  0
 13  2  2  0  0  0  0
 13 18  1  0  0  0  0
 14 23  1  0  0  0  0
 15 23  1  0  0  0  0
 16  2  1  0  0  0  0
 17 20  1  0  0  0  0
 17  3  1  0  0  0  0
 18 25  2  0  0  0  0
 19  1  1  0  0  0  0
 19 26  2  0  0  0  0
 20 22  1  0  0  0  0
 22  9  1  0  0  0  0
 22 10  1  0  0  0  0
 25 26  1  0  0  0  0
 26 17  1  0  0  0  0
 27 24  1  0  0  0  0
 27  7  1  0  0  0  0
 28 11  1  0  0  0  0
 29 30  1  0  0  0  0
 30 28  1  0  0  0  0
M  END
>  <MODEL>
4

>  <REMARK>
 VINA RESULT:      -6.0      2.423      3.859
  Name = 
  2 active torsions:
  status: ('A' for Active; 'I' for Inactive)
    1  A    between atoms: C_11  and  C_28
    2  A    between atoms: C_28  and  O_30
                            x       y       z     vdW  Elec       q    Type
                         _______ _______ _______ _____ _____    ______ ____

>  <TORSDO>
F 2

$$$$
=
 OpenBabel11122412343D

 30 35  0  0  1  0  0  0  0  0999 V2000
  161.5040  208.2180  149.4700 C   0  0  1  0  0  3  0  0  0  0  0  0
  161.3940  206.1480  147.9770 C   0  0  0  0  0  0  0  0  0  0  0  0
  161.0200  205.6570  152.9430 C   0  0  0  0  0  2  0  0  0  0  0  0
  161.6950  208.7000  150.9320 C   0  0  1  0  0  3  0  0  0  0  0  0
  162.4470  208.8500  148.6370 O   0  0  0  0  0  0  0  0  0  0  0  0
  161.8340  212.3460  149.9530 C   0  0  0  0  0  1  0  0  0  0  0  0
  160.3080  210.5560  153.1790 C   0  0  1  0  0  3  0  0  0  0  0  0
  162.1930  210.8620  150.0160 C   0  0  2  0  0  3  0  0  0  0  0  0
  160.1340  209.2120  153.8880 C   0  0  2  0  0  3  0  0  0  0  0  0
  160.8310  206.7840  153.8880 C   0  0  0  0  0  0  0  0  0  0  0  0
  162.1390  210.2310  148.6040 C   0  0  2  0  0  3  0  0  0  0  0  0
  161.3420  210.1300  150.9800 N   0  0  2  0  0  0  0  0  0  0  0  0
  161.2710  204.7660  147.8240 C   0  0  0  0  0  3  0  0  0  0  0  0
  160.5970  209.4600  155.3100 C   0  0  0  0  0  2  0  0  0  0  0  0
  160.3050  211.6210  154.2650 C   0  0  0  0  0  2  0  0  0  0  0  0
  161.4320  206.9530  146.8450 O   0  0  0  0  0  1  0  0  0  0  0  0
  161.4930  206.4320  151.7390 C   0  0  2  0  0  3  0  0  0  0  0  0
  161.2060  203.9500  148.9550 C   0  0  0  0  0  3  0  0  0  0  0  0
  161.4690  206.7070  149.2650 C   0  0  0  0  0  0  0  0  0  0  0  0
  160.8390  207.7990  151.8330 C   0  0  1  0  0  3  0  0  0  0  0  0
  160.6280  206.6080  155.1180 O   0  0  0  0  0  0  0  0  0  0  0  0
  160.8360  208.0780  153.2690 N   0  0  0  0  0  0  0  0  0  0  0  0
  160.2270  210.8970  155.5950 C   0  0  0  0  0  2  0  0  0  0  0  0
  162.8830  210.3150  152.9880 C   0  0  0  0  0  1  0  0  0  0  0  0
  161.2510  204.5000  150.1970 N   0  0  0  0  0  0  0  0  0  0  0  0
  161.3480  205.8450  150.3760 C   0  0  0  0  0  0  0  0  0  0  0  0
  161.5590  210.7040  152.3160 C   0  0  2  0  0  3  0  0  0  0  0  0
  160.8310  210.5080  147.8530 C   0  0  0  0  0  2  0  0  0  0  0  0
  159.7640  212.2030  146.9320 C   0  0  0  0  0  1  0  0  0  0  0  0
  161.0070  211.5720  146.9700 O   0  0  0  0  0  0  0  0  0  0  0  0
  1  5  1  6  0  0  0
  1  4  1  0  0  0  0
  2 19  1  0  0  0  0
  3 10  1  0  0  0  0
  4 12  1  0  0  0  0
  4 20  1  0  0  0  0
  6  8  1  0  0  0  0
  7  9  1  0  0  0  0
  7 15  1  0  0  0  0
  8 12  1  0  0  0  0
  9 14  1  0  0  0  0
 10 21  2  0  0  0  0
 11  5  1  0  0  0  0
 11  8  1  0  0  0  0
 12 27  1  0  0  0  0
 13  2  2  0  0  0  0
 13 18  1  0  0  0  0
 14 23  1  0  0  0  0
 15 23  1  0  0  0  0
 16  2  1  0  0  0  0
 17 20  1  0  0  0  0
 17  3  1  0  0  0  0
 18 25  2  0  0  0  0
 19  1  1  0  0  0  0
 19 26  2  0  0  0  0
 20 22  1  0  0  0  0
 22 10  1  0  0  0  0
 22  9  1  0  0  0  0
 25 26  1  0  0  0  0
 26 17  1  0  0  0  0
 27 24  1  0  0  0  0
 27  7  1  0  0  0  0
 28 11  1  0  0  0  0
 29 30  1  0  0  0  0
 30 28  1  0  0  0  0
M  END
>  <MODEL>
5

>  <REMARK>
 VINA RESULT:      -5.2      1.751      2.481
  Name = 
  2 active torsions:
  status: ('A' for Active; 'I' for Inactive)
    1  A    between atoms: C_11  and  C_28
    2  A    between atoms: C_28  and  O_30
                            x       y       z     vdW  Elec       q    Type
                         _______ _______ _______ _____ _____    ______ ____

>  <TORSDO>
F 2

$$$$
=
 OpenBabel11122412343D

 30 35  0  0  1  0  0  0  0  0999 V2000
  159.8980  212.2070  152.2190 C   0  0  1  0  0  3  0  0  0  0  0  0
  159.9350  213.5100  150.0220 C   0  0  0  0  0  0  0  0  0  0  0  0
  162.3190  209.1230  150.3550 C   0  0  0  0  0  2  0  0  0  0  0  0
  160.5680  211.0460  153.0000 C   0  0  1  0  0  3  0  0  0  0  0  0
  159.9390  213.3830  152.9930 O   0  0  0  0  0  0  0  0  0  0  0  0
  158.6700  211.7840  156.1820 C   0  0  0  0  0  1  0  0  0  0  0  0
  159.8540  208.3240  154.5800 C   0  0  1  0  0  3  0  0  0  0  0  0
  159.5920  211.9870  154.9810 C   0  0  2  0  0  3  0  0  0  0  0  0
  160.6330  207.6920  153.4260 C   0  0  2  0  0  3  0  0  0  0  0  0
  162.1750  208.1710  151.4820 C   0  0  0  0  0  0  0  0  0  0  0  0
  159.1130  213.1860  154.1250 C   0  0  2  0  0  3  0  0  0  0  0  0
  159.7280  210.7540  154.1750 N   0  0  2  0  0  0  0  0  0  0  0  0
  160.3400  213.6370  148.6930 C   0  0  0  0  0  3  0  0  0  0  0  0
  161.5880  206.7190  154.0880 C   0  0  0  0  0  2  0  0  0  0  0  0
  159.9480  207.3530  155.7470 C   0  0  0  0  0  2  0  0  0  0  0  0
  159.0670  214.4530  150.5580 O   0  0  0  0  0  1  0  0  0  0  0  0
  161.7590  210.3590  151.0140 C   0  0  2  0  0  3  0  0  0  0  0  0
  161.1910  212.6810  148.1370 C   0  0  0  0  0  3  0  0  0  0  0  0
  160.3980  212.4320  150.7960 C   0  0  0  0  0  0  0  0  0  0  0  0
  160.7380  209.8710  152.0260 C   0  0  1  0  0  3  0  0  0  0  0  0
  162.7040  207.0280  151.4740 O   0  0  0  0  0  0  0  0  0  0  0  0
  161.3320  208.6390  152.5440 N   0  0  0  0  0  0  0  0  0  0  0  0
  160.8500  206.2160  155.3060 C   0  0  0  0  0  2  0  0  0  0  0  0
  161.8210  209.8570  155.2930 C   0  0  0  0  0  1  0  0  0  0  0  0
  161.6130  211.6260  148.8820 N   0  0  0  0  0  0  0  0  0  0  0  0
  161.2160  211.4650  150.1740 C   0  0  0  0  0  0  0  0  0  0  0  0
  160.3170  209.7100  155.0240 C   0  0  2  0  0  3  0  0  0  0  0  0
  157.6290  213.1190  153.7470 C   0  0  0  0  0  2  0  0  0  0  0  0
  155.9950  214.1000  152.6380 C   0  0  0  0  0  1  0  0  0  0  0  0
  157.2000  214.3640  153.2880 O   0  0  0  0  0  0  0  0  0  0  0  0
  1 19  1  6  0  0  0
  1  5  1  0  0  0  0
  1  4  1  0  0  0  0
  2 16  1  0  0  0  0
  2 19  1  0  0  0  0
  3 17  1  0  0  0  0
  3 10  1  0  0  0  0
  4 12  1  0  0  0  0
  5 11  1  0  0  0  0
  7 27  1  0  0  0  0
  7 15  1  0  0  0  0
  8  6  1  0  0  0  0
  9 14  1  0  0  0  0
  9  7  1  0  0  0  0
 10 22  1  0  0  0  0
 11  8  1  0  0  0  0
 12  8  1  0  0  0  0
 12 27  1  0  0  0  0
 13  2  2  0  0  0  0
 14 23  1  0  0  0  0
 17 20  1  0  0  0  0
 18 13  1  0  0  0  0
 18 25  2  0  0  0  0
 20 22  1  0  0  0  0
 20  4  1  0  0  0  0
 21 10  2  0  0  0  0
 22  9  1  0  0  0  0
 23 15  1  0  0  0  0
 25 26  1  0  0  0  0
 26 19  2  0  0  0  0
 26 17  1  0  0  0  0
 27 24  1  0  0  0  0
 28 11  1  0  0  0  0
 29 30  1  0  0  0  0
 30 28  1  0  0  0  0
M  END
>  <MODEL>
6

>  <REMARK>
 VINA RESULT:      -5.0      3.106      7.132
  Name = 
  2 active torsions:
  status: ('A' for Active; 'I' for Inactive)
    1  A    between atoms: C_11  and  C_28
    2  A    between atoms: C_28  and  O_30
                            x       y       z     vdW  Elec       q    Type
                         _______ _______ _______ _____ _____    ______ ____

>  <TORSDO>
F 2

$$$$
