=
 OpenBabel11122412333D

 30 35  0  0  1  0  0  0  0  0999 V2000
  161.5070  208.4320  151.5100 C   0  0  1  0  0  3  0  0  0  0  0  0
  160.7370  209.4600  153.7530 C   0  0  0  0  0  0  0  0  0  0  0  0
  161.4400  204.5820  153.1640 N   0  0  0  0  0  0  0  0  0  0  0  0
  161.3260  207.2010  150.5990 C   0  0  1  0  0  3  0  0  0  0  0  0
  161.0400  209.6360  150.7060 C   0  0  0  0  0  2  0  0  0  0  0  0
  163.2410  208.8500  147.8800 O   0  0  0  0  0  0  0  0  0  0  0  0
  162.2180  204.9120  148.4140 C   0  0  1  0  0  3  0  0  0  0  0  0
  162.4870  208.6740  148.8750 C   0  0  0  0  0  0  0  0  0  0  0  0
  161.5750  204.1140  149.5360 C   0  0  2  0  0  3  0  0  0  0  0  0
  161.5600  203.8810  152.0150 C   0  0  0  0  0  0  0  0  0  0  0  0
  161.9030  209.8110  149.5430 N   0  0  0  0  0  0  0  0  0  0  0  0
  162.2730  207.2670  149.3910 C   0  0  2  0  0  3  0  0  0  0  0  0
  160.0250  209.3240  155.0650 C   0  0  0  0  0  2  0  0  0  0  0  0
  160.2410  203.6300  149.0310 C   0  0  0  0  0  2  0  0  0  0  0  0
  161.7920  204.1240  147.1840 C   0  0  0  0  0  2  0  0  0  0  0  0
  161.3130  210.5000  153.4710 O   0  0  0  0  0  0  0  0  0  0  0  0
  161.3440  205.8560  152.7400 C   0  0  0  0  0  0  0  0  0  0  0  0
  160.4820  208.0490  155.7810 C   0  0  0  0  0  2  0  0  0  0  0  0
  160.7240  208.2670  152.8290 C   0  0  2  0  0  3  0  0  0  0  0  0
  161.4610  205.9160  151.3720 C   0  0  0  0  0  0  0  0  0  0  0  0
  161.6610  202.3930  151.9980 C   0  0  0  0  0  1  0  0  0  0  0  0
  161.5640  204.6530  150.9020 N   0  0  0  0  0  0  0  0  0  0  0  0
  160.4840  203.4100  147.5440 C   0  0  0  0  0  2  0  0  0  0  0  0
  160.2920  206.5910  147.9270 C   0  0  0  0  0  1  0  0  0  0  0  0
  160.3970  206.8280  154.8590 C   0  0  0  0  0  2  0  0  0  0  0  0
  161.2630  207.0640  153.6200 C   0  0  1  0  0  3  0  0  0  0  0  0
  161.7720  206.3760  148.2610 C   0  0  2  0  0  3  0  0  0  0  0  0
  162.2570  211.1700  149.1600 C   0  0  0  0  0  2  0  0  0  0  0  0
  162.0720  212.7260  147.2450 C   0  0  0  0  0  1  0  0  0  0  0  0
  161.3610  211.6470  148.0320 C   0  0  0  0  0  2  0  0  0  0  0  0
  1  5  1  6  0  0  0
  1 19  1  0  0  0  0
  2 13  1  0  0  0  0
  4 20  1  1  0  0  0
  4  1  1  0  0  0  0
  6  8  2  0  0  0  0
  7 15  1  6  0  0  0
  7  9  1  0  0  0  0
  8 11  1  0  0  0  0
  9 14  1  6  0  0  0
  9 22  1  0  0  0  0
 10  3  2  0  0  0  0
 11  5  1  0  0  0  0
 12  8  1  6  0  0  0
 12  4  1  0  0  0  0
 13 18  1  0  0  0  0
 15 23  1  0  0  0  0
 16  2  2  0  0  0  0
 17  3  1  0  0  0  0
 17 26  1  0  0  0  0
 19 26  1  0  0  0  0
 19  2  1  1  0  0  0
 20 17  2  0  0  0  0
 21 10  1  0  0  0  0
 22 20  1  0  0  0  0
 22 10  1  0  0  0  0
 23 14  1  0  0  0  0
 25 18  1  0  0  0  0
 26 25  1  1  0  0  0
 27 24  1  1  0  0  0
 27  7  1  0  0  0  0
 27 12  1  0  0  0  0
 28 11  1  0  0  0  0
 29 30  1  0  0  0  0
 30 28  1  0  0  0  0
M  END
>  <MODEL>
1

>  <REMARK>
 VINA RESULT:      -5.9      0.000      0.000
  Name = 
  2 active torsions:
  status: ('A' for Active; 'I' for Inactive)
    1  A    between atoms: N_11  and  C_28
    2  A    between atoms: C_28  and  C_30
                            x       y       z     vdW  Elec       q    Type
                         _______ _______ _______ _____ _____    ______ ____

>  <TORSDO>
F 2

$$$$
=
 OpenBabel11122412333D

 30 35  0  0  1  0  0  0  0  0999 V2000
  160.7720  209.1160  153.5940 C   0  0  1  0  0  3  0  0  0  0  0  0
  161.6970  207.0220  152.3950 C   0  0  0  0  0  0  0  0  0  0  0  0
  161.3450  211.4350  150.1500 N   0  0  0  0  0  0  0  0  0  0  0  0
  159.9290  210.3880  153.3670 C   0  0  1  0  0  3  0  0  0  0  0  0
  160.0370  208.2930  154.6400 C   0  0  0  0  0  2  0  0  0  0  0  0
  159.8760  211.0840  157.0130 O   0  0  0  0  0  0  0  0  0  0  0  0
  159.0000  213.5090  153.8210 C   0  0  1  0  0  3  0  0  0  0  0  0
  159.9010  210.4680  155.9130 C   0  0  0  0  0  0  0  0  0  0  0  0
  159.1220  213.3800  152.3110 C   0  0  2  0  0  3  0  0  0  0  0  0
  160.6420  212.5220  150.5350 C   0  0  0  0  0  0  0  0  0  0  0  0
  159.9920  209.0290  155.8990 N   0  0  0  0  0  0  0  0  0  0  0  0
  159.9090  211.2660  154.6270 C   0  0  2  0  0  3  0  0  0  0  0  0
  161.9570  206.2600  151.1310 C   0  0  0  0  0  2  0  0  0  0  0  0
  157.7250  213.3740  151.7500 C   0  0  0  0  0  2  0  0  0  0  0  0
  157.8150  214.4530  153.9600 C   0  0  0  0  0  2  0  0  0  0  0  0
  162.0750  206.5780  153.4690 O   0  0  0  0  0  0  0  0  0  0  0  0
  161.1430  210.5630  151.1550 C   0  0  0  0  0  0  0  0  0  0  0  0
  162.6210  207.1730  150.0960 C   0  0  0  0  0  2  0  0  0  0  0  0
  160.9780  208.3440  152.2750 C   0  0  2  0  0  3  0  0  0  0  0  0
  160.3800  211.1400  152.1430 C   0  0  0  0  0  0  0  0  0  0  0  0
  160.5500  213.7490  149.6920 C   0  0  0  0  0  1  0  0  0  0  0  0
  160.0290  212.3790  151.7350 N   0  0  0  0  0  0  0  0  0  0  0  0
  156.9550  214.2780  152.7020 C   0  0  0  0  0  2  0  0  0  0  0  0
  157.3890  211.5210  154.2880 C   0  0  0  0  0  1  0  0  0  0  0  0
  161.8460  208.4850  149.9250 C   0  0  0  0  0  2  0  0  0  0  0  0
  161.7620  209.2050  151.2710 C   0  0  1  0  0  3  0  0  0  0  0  0
  158.7170  212.2170  154.6050 C   0  0  2  0  0  3  0  0  0  0  0  0
  160.1700  208.2750  157.1320 C   0  0  0  0  0  2  0  0  0  0  0  0
  162.5400  208.9750  157.2600 C   0  0  0  0  0  1  0  0  0  0  0  0
  161.6020  207.7870  157.2450 C   0  0  0  0  0  2  0  0  0  0  0  0
  1  5  1  1  0  0  0
  2 16  2  0  0  0  0
  3 10  2  0  0  0  0
  3 17  1  0  0  0  0
  4 20  1  6  0  0  0
  4  1  1  0  0  0  0
  4 12  1  0  0  0  0
  5 11  1  0  0  0  0
  7 15  1  6  0  0  0
  7 27  1  0  0  0  0
  8  6  2  0  0  0  0
  9 14  1  6  0  0  0
  9  7  1  0  0  0  0
 10 22  1  0  0  0  0
 11  8  1  0  0  0  0
 11 28  1  0  0  0  0
 12  8  1  1  0  0  0
 13  2  1  0  0  0  0
 14 23  1  0  0  0  0
 17 26  1  0  0  0  0
 17 20  2  0  0  0  0
 18 13  1  0  0  0  0
 19  2  1  1  0  0  0
 19  1  1  0  0  0  0
 21 10  1  0  0  0  0
 22 20  1  0  0  0  0
 22  9  1  0  0  0  0
 23 15  1  0  0  0  0
 25 18  1  0  0  0  0
 26 25  1  6  0  0  0
 26 19  1  0  0  0  0
 27 24  1  6  0  0  0
 27 12  1  0  0  0  0
 28 30  1  0  0  0  0
 30 29  1  0  0  0  0
M  END
>  <MODEL>
2

>  <REMARK>
 VINA RESULT:      -5.5      3.081      7.975
  Name = 
  2 active torsions:
  status: ('A' for Active; 'I' for Inactive)
    1  A    between atoms: N_11  and  C_28
    2  A    between atoms: C_28  and  C_30
                            x       y       z     vdW  Elec       q    Type
                         _______ _______ _______ _____ _____    ______ ____

>  <TORSDO>
F 2

$$$$
=
 OpenBabel11122412333D

 30 35  0  0  1  0  0  0  0  0999 V2000
  161.3050  204.1210  148.5070 C   0  0  1  0  0  3  0  0  0  0  0  0
  160.7910  204.1100  145.9740 C   0  0  0  0  0  0  0  0  0  0  0  0
  162.1980  208.2140  148.3870 N   0  0  0  0  0  0  0  0  0  0  0  0
  161.1750  204.9800  149.7820 C   0  0  1  0  0  3  0  0  0  0  0  0
  160.5010  202.8540  148.7580 C   0  0  0  0  0  2  0  0  0  0  0  0
  162.2550  202.1250  151.8950 O   0  0  0  0  0  0  0  0  0  0  0  0
  162.0330  206.1350  152.7380 C   0  0  1  0  0  3  0  0  0  0  0  0
  161.7350  202.7910  150.9590 C   0  0  0  0  0  0  0  0  0  0  0  0
  161.7510  207.3870  151.9250 C   0  0  2  0  0  3  0  0  0  0  0  0
  162.2260  208.4410  149.7180 C   0  0  0  0  0  0  0  0  0  0  0  0
  161.0970  202.1080  149.8610 N   0  0  0  0  0  0  0  0  0  0  0  0
  161.8620  204.2990  150.9750 C   0  0  2  0  0  3  0  0  0  0  0  0
  160.3630  204.8370  144.7350 C   0  0  0  0  0  2  0  0  0  0  0  0
  160.4500  207.9590  152.4250 C   0  0  0  0  0  2  0  0  0  0  0  0
  161.5320  206.5370  154.1170 C   0  0  0  0  0  2  0  0  0  0  0  0
  161.1200  202.9350  145.9150 O   0  0  0  0  0  0  0  0  0  0  0  0
  161.8110  206.9280  148.3000 C   0  0  0  0  0  0  0  0  0  0  0  0
  161.1530  206.1410  144.5920 C   0  0  0  0  0  2  0  0  0  0  0  0
  160.8140  204.8920  147.2650 C   0  0  2  0  0  3  0  0  0  0  0  0
  161.6650  206.3850  149.5550 C   0  0  0  0  0  0  0  0  0  0  0  0
  162.5750  209.7720  150.2920 C   0  0  0  0  0  1  0  0  0  0  0  0
  161.8960  207.3580  150.4630 N   0  0  0  0  0  0  0  0  0  0  0  0
  160.4530  207.6050  153.9060 C   0  0  0  0  0  2  0  0  0  0  0  0
  159.7930  204.8680  152.3630 C   0  0  0  0  0  1  0  0  0  0  0  0
  161.1130  206.9660  145.8830 C   0  0  0  0  0  2  0  0  0  0  0  0
  161.6860  206.1380  147.0350 C   0  0  1  0  0  3  0  0  0  0  0  0
  161.3240  204.8460  152.2930 C   0  0  2  0  0  3  0  0  0  0  0  0
  161.1380  200.6560  149.7540 C   0  0  0  0  0  2  0  0  0  0  0  0
  161.1650  200.0080  147.3660 C   0  0  0  0  0  1  0  0  0  0  0  0
  162.0210  200.2410  148.5920 C   0  0  0  0  0  2  0  0  0  0  0  0
  1  5  1  1  0  0  0
  1  4  1  0  0  0  0
  3 10  2  0  0  0  0
  4 20  1  6  0  0  0
  4 12  1  0  0  0  0
  5 11  1  0  0  0  0
  7 15  1  1  0  0  0
  8  6  2  0  0  0  0
  9 14  1  6  0  0  0
  9  7  1  0  0  0  0
 10 21  1  0  0  0  0
 10 22  1  0  0  0  0
 11  8  1  0  0  0  0
 12  8  1  1  0  0  0
 12 27  1  0  0  0  0
 13  2  1  0  0  0  0
 14 23  1  0  0  0  0
 16  2  2  0  0  0  0
 17  3  1  0  0  0  0
 17 20  2  0  0  0  0
 18 13  1  0  0  0  0
 18 25  1  0  0  0  0
 19  2  1  6  0  0  0
 19  1  1  0  0  0  0
 20 22  1  0  0  0  0
 22  9  1  0  0  0  0
 23 15  1  0  0  0  0
 26 25  1  6  0  0  0
 26 19  1  0  0  0  0
 26 17  1  0  0  0  0
 27 24  1  6  0  0  0
 27  7  1  0  0  0  0
 28 11  1  0  0  0  0
 29 30  1  0  0  0  0
 30 28  1  0  0  0  0
M  END
>  <MODEL>
3

>  <REMARK>
 VINA RESULT:      -5.3      2.655      7.448
  Name = 
  2 active torsions:
  status: ('A' for Active; 'I' for Inactive)
    1  A    between atoms: N_11  and  C_28
    2  A    between atoms: C_28  and  C_30
                            x       y       z     vdW  Elec       q    Type
                         _______ _______ _______ _____ _____    ______ ____

>  <TORSDO>
F 2

$$$$
=
 OpenBabel11122412333D

 30 35  0  0  1  0  0  0  0  0999 V2000
  161.1910  208.4540  151.3220 C   0  0  1  0  0  3  0  0  0  0  0  0
  161.5050  206.3850  149.8060 C   0  0  0  0  0  0  0  0  0  0  0  0
  160.3050  206.0080  154.6070 N   0  0  0  0  0  0  0  0  0  0  0  0
  161.4240  208.9700  152.7580 C   0  0  1  0  0  3  0  0  0  0  0  0
  162.0080  209.3520  150.4040 C   0  0  0  0  0  2  0  0  0  0  0  0
  160.5030  212.4190  151.7370 O   0  0  0  0  0  0  0  0  0  0  0  0
  160.8030  210.7300  155.4640 C   0  0  1  0  0  3  0  0  0  0  0  0
  160.9500  211.2400  151.7020 C   0  0  0  0  0  0  0  0  0  0  0  0
  161.0250  209.3200  155.9880 C   0  0  2  0  0  3  0  0  0  0  0  0
  160.3830  206.9500  155.5720 C   0  0  0  0  0  0  0  0  0  0  0  0
  161.4980  210.7160  150.4760 N   0  0  0  0  0  0  0  0  0  0  0  0
  160.8300  210.3750  152.9390 C   0  0  2  0  0  3  0  0  0  0  0  0
  161.8380  204.9320  149.6470 C   0  0  0  0  0  2  0  0  0  0  0  0
  162.3630  209.3080  156.6800 C   0  0  0  0  0  2  0  0  0  0  0  0
  161.4120  211.5760  156.5730 C   0  0  0  0  0  2  0  0  0  0  0  0
  161.1690  207.0480  148.8360 O   0  0  0  0  0  0  0  0  0  0  0  0
  160.6800  206.6690  153.4970 C   0  0  0  0  0  0  0  0  0  0  0  0
  161.0430  204.0990  150.6570 C   0  0  0  0  0  2  0  0  0  0  0  0
  161.5860  206.9690  151.1950 C   0  0  2  0  0  3  0  0  0  0  0  0
  160.9220  207.9910  153.7850 C   0  0  0  0  0  0  0  0  0  0  0  0
  160.0840  206.6520  157.0020 C   0  0  0  0  0  1  0  0  0  0  0  0
  160.7660  208.1670  155.1160 N   0  0  0  0  0  0  0  0  0  0  0  0
  162.4750  210.7110  157.2600 C   0  0  0  0  0  2  0  0  0  0  0  0
  163.0030  211.0330  154.1110 C   0  0  0  0  0  1  0  0  0  0  0  0
  161.1870  204.6540  152.0790 C   0  0  0  0  0  2  0  0  0  0  0  0
  160.7040  206.1040  152.1110 C   0  0  1  0  0  3  0  0  0  0  0  0
  161.4710  211.0850  154.1260 C   0  0  2  0  0  3  0  0  0  0  0  0
  161.4440  211.4850  149.2400 C   0  0  0  0  0  2  0  0  0  0  0  0
  163.1300  212.6790  147.8780 C   0  0  0  0  0  1  0  0  0  0  0  0
  162.7470  211.3430  148.4770 C   0  0  0  0  0  2  0  0  0  0  0  0
  1  5  1  6  0  0  0
  1  4  1  0  0  0  0
  3 10  2  0  0  0  0
  4 12  1  0  0  0  0
  4 20  1  1  0  0  0
  5 11  1  0  0  0  0
  7  9  1  0  0  0  0
  7 15  1  1  0  0  0
  8  6  2  0  0  0  0
  9 14  1  6  0  0  0
 10 21  1  0  0  0  0
 11  8  1  0  0  0  0
 12  8  1  6  0  0  0
 12 27  1  0  0  0  0
 13  2  1  0  0  0  0
 13 18  1  0  0  0  0
 14 23  1  0  0  0  0
 15 23  1  0  0  0  0
 16  2  2  0  0  0  0
 17 20  2  0  0  0  0
 17  3  1  0  0  0  0
 18 25  1  0  0  0  0
 19  2  1  6  0  0  0
 19  1  1  0  0  0  0
 19 26  1  0  0  0  0
 20 22  1  0  0  0  0
 22 10  1  0  0  0  0
 22  9  1  0  0  0  0
 26 25  1  1  0  0  0
 26 17  1  0  0  0  0
 27 24  1  1  0  0  0
 27  7  1  0  0  0  0
 28 11  1  0  0  0  0
 29 30  1  0  0  0  0
 30 28  1  0  0  0  0
M  END
>  <MODEL>
4

>  <REMARK>
 VINA RESULT:      -5.1      1.875      5.920
  Name = 
  2 active torsions:
  status: ('A' for Active; 'I' for Inactive)
    1  A    between atoms: N_11  and  C_28
    2  A    between atoms: C_28  and  C_30
                            x       y       z     vdW  Elec       q    Type
                         _______ _______ _______ _____ _____    ______ ____

>  <TORSDO>
F 2

$$$$
=
 OpenBabel11122412333D

 30 35  0  0  1  0  0  0  0  0999 V2000
  160.8670  208.8820  153.4220 C   0  0  1  0  0  3  0  0  0  0  0  0
  161.2460  206.3320  153.2380 C   0  0  0  0  0  0  0  0  0  0  0  0
  162.2190  209.4440  149.4960 N   0  0  0  0  0  0  0  0  0  0  0  0
  160.4130  210.1170  152.6160 C   0  0  1  0  0  3  0  0  0  0  0  0
  159.8840  208.7340  154.5740 C   0  0  0  0  0  2  0  0  0  0  0  0
  160.3710  212.1930  155.6940 O   0  0  0  0  0  0  0  0  0  0  0  0
  160.3470  213.2840  151.7380 C   0  0  1  0  0  3  0  0  0  0  0  0
  160.2820  211.2030  154.9170 C   0  0  0  0  0  0  0  0  0  0  0  0
  160.5050  212.5430  150.4200 C   0  0  2  0  0  3  0  0  0  0  0  0
  161.8200  210.7250  149.3390 C   0  0  0  0  0  0  0  0  0  0  0  0
  159.9790  209.8980  155.4490 N   0  0  0  0  0  0  0  0  0  0  0  0
  160.5700  211.4010  153.4440 C   0  0  2  0  0  3  0  0  0  0  0  0
  161.3510  205.0940  152.3990 C   0  0  0  0  0  2  0  0  0  0  0  0
  159.1880  212.6370  149.6950 C   0  0  0  0  0  2  0  0  0  0  0  0
  159.4580  214.4520  151.3360 C   0  0  0  0  0  2  0  0  0  0  0  0
  161.4350  206.2760  154.4430 O   0  0  0  0  0  0  0  0  0  0  0  0
  161.7380  209.1150  150.7080 C   0  0  0  0  0  0  0  0  0  0  0  0
  162.2900  205.3410  151.2140 C   0  0  0  0  0  2  0  0  0  0  0  0
  160.9200  207.6250  152.5300 C   0  0  2  0  0  3  0  0  0  0  0  0
  161.1120  210.1950  151.2850 C   0  0  0  0  0  0  0  0  0  0  0  0
  162.1070  211.5020  148.1000 C   0  0  0  0  0  1  0  0  0  0  0  0
  161.1330  211.2150  150.3990 N   0  0  0  0  0  0  0  0  0  0  0  0
  158.6470  213.9960  150.1180 C   0  0  0  0  0  2  0  0  0  0  0  0
  158.2350  212.0750  152.6560 C   0  0  0  0  0  1  0  0  0  0  0  0
  161.9100  206.6180  150.4550 C   0  0  0  0  0  2  0  0  0  0  0  0
  161.9570  207.8110  151.4100 C   0  0  1  0  0  3  0  0  0  0  0  0
  159.6850  212.5120  152.8910 C   0  0  2  0  0  3  0  0  0  0  0  0
  159.8840  209.6760  156.8850 C   0  0  0  0  0  2  0  0  0  0  0  0
  162.0680  208.5650  157.2280 C   0  0  0  0  0  1  0  0  0  0  0  0
  160.5670  208.3740  157.2600 C   0  0  0  0  0  2  0  0  0  0  0  0
  1  5  1  1  0  0  0
  2 16  2  0  0  0  0
  3 17  1  0  0  0  0
  4 20  1  6  0  0  0
  4  1  1  0  0  0  0
  4 12  1  0  0  0  0
  5 11  1  0  0  0  0
  7 15  1  6  0  0  0
  7 27  1  0  0  0  0
  8 11  1  0  0  0  0
  8  6  2  0  0  0  0
  9 14  1  1  0  0  0
  9  7  1  0  0  0  0
 10  3  2  0  0  0  0
 10 22  1  0  0  0  0
 11 28  1  0  0  0  0
 12  8  1  1  0  0  0
 13  2  1  0  0  0  0
 14 23  1  0  0  0  0
 17 20  2  0  0  0  0
 17 26  1  0  0  0  0
 18 13  1  0  0  0  0
 19  2  1  1  0  0  0
 19  1  1  0  0  0  0
 21 10  1  0  0  0  0
 22  9  1  0  0  0  0
 22 20  1  0  0  0  0
 23 15  1  0  0  0  0
 25 18  1  0  0  0  0
 26 25  1  6  0  0  0
 26 19  1  0  0  0  0
 27 24  1  6  0  0  0
 27 12  1  0  0  0  0
 28 30  1  0  0  0  0
 29 30  1  0  0  0  0
M  END
>  <MODEL>
5

>  <REMARK>
 VINA RESULT:      -4.9      2.757      7.102
  Name = 
  2 active torsions:
  status: ('A' for Active; 'I' for Inactive)
    1  A    between atoms: N_11  and  C_28
    2  A    between atoms: C_28  and  C_30
                            x       y       z     vdW  Elec       q    Type
                         _______ _______ _______ _____ _____    ______ ____

>  <TORSDO>
F 2

$$$$
=
 OpenBabel11122412333D

 30 35  0  0  1  0  0  0  0  0999 V2000
  161.4220  206.1490  150.2170 C   0  0  1  0  0  3  0  0  0  0  0  0
  161.0940  204.8220  148.0240 C   0  0  0  0  0  0  0  0  0  0  0  0
  162.3570  209.6220  148.0650 N   0  0  0  0  0  0  0  0  0  0  0  0
  161.2070  207.5370  150.8550 C   0  0  1  0  0  3  0  0  0  0  0  0
  160.5910  205.1680  151.0300 C   0  0  0  0  0  2  0  0  0  0  0  0
  162.1070  206.2100  154.2040 O   0  0  0  0  0  0  0  0  0  0  0  0
  161.8590  210.0740  152.8430 C   0  0  1  0  0  3  0  0  0  0  0  0
  161.6620  206.2830  153.0260 C   0  0  0  0  0  0  0  0  0  0  0  0
  161.6460  210.7200  151.4840 C   0  0  2  0  0  3  0  0  0  0  0  0
  162.2890  210.5020  149.0870 C   0  0  0  0  0  0  0  0  0  0  0  0
  161.0990  205.1140  152.3970 N   0  0  0  0  0  0  0  0  0  0  0  0
  161.8000  207.5890  152.2710 C   0  0  2  0  0  3  0  0  0  0  0  0
  160.7620  204.7940  146.5620 C   0  0  0  0  0  2  0  0  0  0  0  0
  160.3180  211.4280  151.5300 C   0  0  0  0  0  2  0  0  0  0  0  0
  161.2620  211.1130  153.7810 C   0  0  0  0  0  2  0  0  0  0  0  0
  161.4160  203.7940  148.6010 O   0  0  0  0  0  0  0  0  0  0  0  0
  161.9660  208.4630  148.6270 C   0  0  0  0  0  0  0  0  0  0  0  0
  161.5720  205.8620  145.8200 C   0  0  0  0  0  2  0  0  0  0  0  0
  161.0290  206.1570  148.7260 C   0  0  2  0  0  3  0  0  0  0  0  0
  161.7250  208.6390  149.9690 C   0  0  0  0  0  0  0  0  0  0  0  0
  162.6080  211.9490  148.9140 C   0  0  0  0  0  1  0  0  0  0  0  0
  161.8970  209.9470  150.2600 N   0  0  0  0  0  0  0  0  0  0  0  0
  160.2100  211.8860  152.9780 C   0  0  0  0  0  2  0  0  0  0  0  0
  159.6410  208.7270  153.0250 C   0  0  0  0  0  1  0  0  0  0  0  0
  161.4450  207.2320  146.4960 C   0  0  0  0  0  2  0  0  0  0  0  0
  161.9260  207.1320  147.9450 C   0  0  1  0  0  3  0  0  0  0  0  0
  161.1730  208.7180  153.0800 C   0  0  2  0  0  3  0  0  0  0  0  0
  161.1350  203.8160  153.0560 C   0  0  0  0  0  2  0  0  0  0  0  0
  162.0110  202.0130  151.6060 C   0  0  0  0  0  1  0  0  0  0  0  0
  160.7590  202.7200  152.0770 C   0  0  0  0  0  2  0  0  0  0  0  0
  1  4  1  0  0  0  0
  1  5  1  1  0  0  0
  2 16  2  0  0  0  0
  3 17  1  0  0  0  0
  3 10  2  0  0  0  0
  4 20  1  6  0  0  0
  4 12  1  0  0  0  0
  5 11  1  0  0  0  0
  7 27  1  0  0  0  0
  7 15  1  1  0  0  0
  8  6  2  0  0  0  0
  9 14  1  1  0  0  0
  9  7  1  0  0  0  0
 10 22  1  0  0  0  0
 11  8  1  0  0  0  0
 11 28  1  0  0  0  0
 12  8  1  1  0  0  0
 12 27  1  0  0  0  0
 13  2  1  0  0  0  0
 14 23  1  0  0  0  0
 17 20  2  0  0  0  0
 18 25  1  0  0  0  0
 18 13  1  0  0  0  0
 19  2  1  6  0  0  0
 19  1  1  0  0  0  0
 20 22  1  0  0  0  0
 21 10  1  0  0  0  0
 22  9  1  0  0  0  0
 23 15  1  0  0  0  0
 26 25  1  6  0  0  0
 26 17  1  0  0  0  0
 26 19  1  0  0  0  0
 27 24  1  6  0  0  0
 29 30  1  0  0  0  0
 30 28  1  0  0  0  0
M  END
>  <MODEL>
6

>  <REMARK>
 VINA RESULT:      -4.4      1.862      7.235
  Name = 
  2 active torsions:
  status: ('A' for Active; 'I' for Inactive)
    1  A    between atoms: N_11  and  C_28
    2  A    between atoms: C_28  and  C_30
                            x       y       z     vdW  Elec       q    Type
                         _______ _______ _______ _____ _____    ______ ____

>  <TORSDO>
F 2

$$$$
=
 OpenBabel11122412333D

 30 35  0  0  1  0  0  0  0  0999 V2000
  161.2590  206.6910  151.0700 C   0  0  1  0  0  3  0  0  0  0  0  0
  162.0490  209.1500  150.9830 C   0  0  0  0  0  0  0  0  0  0  0  0
  160.9280  206.5690  146.8940 N   0  0  0  0  0  0  0  0  0  0  0  0
  161.3560  205.3430  150.3240 C   0  0  1  0  0  3  0  0  0  0  0  0
  161.8570  206.4630  152.4500 C   0  0  0  0  0  2  0  0  0  0  0  0
  159.6810  203.5910  153.1360 O   0  0  0  0  0  0  0  0  0  0  0  0
  160.3280  202.4070  149.2610 C   0  0  1  0  0  3  0  0  0  0  0  0
  160.3860  204.4120  152.4880 C   0  0  0  0  0  0  0  0  0  0  0  0
  160.8620  203.0830  148.0080 C   0  0  2  0  0  3  0  0  0  0  0  0
  160.7800  205.2330  146.7550 C   0  0  0  0  0  0  0  0  0  0  0  0
  161.0490  205.4910  153.1780 N   0  0  0  0  0  0  0  0  0  0  0  0
  160.4560  204.2860  150.9810 C   0  0  2  0  0  3  0  0  0  0  0  0
  162.7060  210.2750  150.2420 C   0  0  0  0  0  2  0  0  0  0  0  0
  162.1610  202.4070  147.6570 C   0  0  0  0  0  2  0  0  0  0  0  0
  160.7190  200.9560  149.0250 C   0  0  0  0  0  2  0  0  0  0  0  0
  161.5790  209.3370  152.0940 O   0  0  0  0  0  0  0  0  0  0  0  0
  161.1510  206.7200  148.2120 C   0  0  0  0  0  0  0  0  0  0  0  0
  162.1140  210.3930  148.8340 C   0  0  0  0  0  2  0  0  0  0  0  0
  161.9840  207.8090  150.2930 C   0  0  2  0  0  3  0  0  0  0  0  0
  161.0820  205.5050  148.8520 C   0  0  0  0  0  0  0  0  0  0  0  0
  160.5450  204.5930  145.4280 C   0  0  0  0  0  1  0  0  0  0  0  0
  160.8800  204.5490  147.9200 N   0  0  0  0  0  0  0  0  0  0  0  0
  161.9460  200.9680  148.1050 C   0  0  0  0  0  2  0  0  0  0  0  0
  162.4120  202.6520  150.7980 C   0  0  0  0  0  1  0  0  0  0  0  0
  162.1160  209.0410  148.1100 C   0  0  0  0  0  2  0  0  0  0  0  0
  161.3140  208.0260  148.9260 C   0  0  1  0  0  3  0  0  0  0  0  0
  160.9090  202.8800  150.6030 C   0  0  2  0  0  3  0  0  0  0  0  0
  160.8310  205.7190  154.5990 C   0  0  0  0  0  2  0  0  0  0  0  0
  159.7310  207.3280  156.1230 C   0  0  0  0  0  1  0  0  0  0  0  0
  160.5480  207.1870  154.8570 C   0  0  0  0  0  2  0  0  0  0  0  0
  1  5  1  1  0  0  0
  2 16  2  0  0  0  0
  3 17  1  0  0  0  0
  4 20  1  6  0  0  0
  4 12  1  0  0  0  0
  4  1  1  0  0  0  0
  5 11  1  0  0  0  0
  7 15  1  6  0  0  0
  7 27  1  0  0  0  0
  8  6  2  0  0  0  0
  8 11  1  0  0  0  0
  9 14  1  1  0  0  0
  9  7  1  0  0  0  0
 10  3  2  0  0  0  0
 10 22  1  0  0  0  0
 11 28  1  0  0  0  0
 12  8  1  1  0  0  0
 13  2  1  0  0  0  0
 14 23  1  0  0  0  0
 17 20  2  0  0  0  0
 17 26  1  0  0  0  0
 18 13  1  0  0  0  0
 19  2  1  1  0  0  0
 19  1  1  0  0  0  0
 21 10  1  0  0  0  0
 22  9  1  0  0  0  0
 22 20  1  0  0  0  0
 23 15  1  0  0  0  0
 25 18  1  0  0  0  0
 26 25  1  6  0  0  0
 26 19  1  0  0  0  0
 27 24  1  6  0  0  0
 27 12  1  0  0  0  0
 28 30  1  0  0  0  0
 30 29  1  0  0  0  0
M  END
>  <MODEL>
7

>  <REMARK>
 VINA RESULT:      -4.4      2.123      5.323
  Name = 
  2 active torsions:
  status: ('A' for Active; 'I' for Inactive)
    1  A    between atoms: N_11  and  C_28
    2  A    between atoms: C_28  and  C_30
                            x       y       z     vdW  Elec       q    Type
                         _______ _______ _______ _____ _____    ______ ____

>  <TORSDO>
F 2

$$$$
=
 OpenBabel11122412333D

 30 35  0  0  1  0  0  0  0  0999 V2000
  159.6800  212.2740  151.7290 C   0  0  1  0  0  3  0  0  0  0  0  0
  160.5810  213.4340  149.6030 C   0  0  0  0  0  0  0  0  0  0  0  0
  161.9250  208.8340  150.8970 N   0  0  0  0  0  0  0  0  0  0  0  0
  160.0850  211.3180  152.8710 C   0  0  1  0  0  3  0  0  0  0  0  0
  159.3010  213.5930  152.3860 C   0  0  0  0  0  2  0  0  0  0  0  0
  156.9030  212.0000  154.6580 O   0  0  0  0  0  0  0  0  0  0  0  0
  159.6460  208.9870  155.1470 C   0  0  1  0  0  3  0  0  0  0  0  0
  157.9270  212.1520  153.9370 C   0  0  0  0  0  0  0  0  0  0  0  0
  160.8850  208.5330  154.3940 C   0  0  2  0  0  3  0  0  0  0  0  0
  161.7710  208.2150  152.0880 C   0  0  0  0  0  0  0  0  0  0  0  0
  158.1340  213.3960  153.2380 N   0  0  0  0  0  0  0  0  0  0  0  0
  158.8800  210.9890  153.7640 C   0  0  2  0  0  3  0  0  0  0  0  0
  161.6500  213.5870  148.5630 C   0  0  0  0  0  2  0  0  0  0  0  0
  162.0660  208.7580  155.3010 C   0  0  0  0  0  2  0  0  0  0  0  0
  159.9670  208.5520  156.5690 C   0  0  0  0  0  2  0  0  0  0  0  0
  159.5550  214.0920  149.5300 O   0  0  0  0  0  0  0  0  0  0  0  0
  161.3200  210.0210  151.0850 C   0  0  0  0  0  0  0  0  0  0  0  0
  162.0410  212.2140  148.0060 C   0  0  0  0  0  2  0  0  0  0  0  0
  160.8240  212.4340  150.7070 C   0  0  2  0  0  3  0  0  0  0  0  0
  160.7700  210.0850  152.3430 C   0  0  0  0  0  0  0  0  0  0  0  0
  162.3270  206.8570  152.3560 C   0  0  0  0  0  1  0  0  0  0  0  0
  161.0850  208.9470  152.9990 N   0  0  0  0  0  0  0  0  0  0  0  0
  161.4940  208.5220  156.6920 C   0  0  0  0  0  2  0  0  0  0  0  0
  160.3920  211.3960  155.7830 C   0  0  0  0  0  1  0  0  0  0  0  0
  162.3570  211.2220  149.1320 C   0  0  0  0  0  2  0  0  0  0  0  0
  161.1370  211.0820  150.0440 C   0  0  1  0  0  3  0  0  0  0  0  0
  159.3390  210.4930  155.1310 C   0  0  2  0  0  3  0  0  0  0  0  0
  157.1240  214.4460  153.2580 C   0  0  0  0  0  2  0  0  0  0  0  0
  156.1740  214.1920  150.9880 C   0  0  0  0  0  1  0  0  0  0  0  0
  155.9040  214.0140  152.4660 C   0  0  0  0  0  2  0  0  0  0  0  0
  1  5  1  1  0  0  0
  1  4  1  0  0  0  0
  3 17  1  0  0  0  0
  3 10  2  0  0  0  0
  4 20  1  6  0  0  0
  4 12  1  0  0  0  0
  5 11  1  0  0  0  0
  7 15  1  1  0  0  0
  8  6  2  0  0  0  0
  9  7  1  0  0  0  0
  9 14  1  1  0  0  0
 10 21  1  0  0  0  0
 10 22  1  0  0  0  0
 11 28  1  0  0  0  0
 11  8  1  0  0  0  0
 12  8  1  1  0  0  0
 12 27  1  0  0  0  0
 13  2  1  0  0  0  0
 14 23  1  0  0  0  0
 15 23  1  0  0  0  0
 16  2  2  0  0  0  0
 17 20  2  0  0  0  0
 18 13  1  0  0  0  0
 18 25  1  0  0  0  0
 19  2  1  6  0  0  0
 19  1  1  0  0  0  0
 20 22  1  0  0  0  0
 22  9  1  0  0  0  0
 26 25  1  1  0  0  0
 26 19  1  0  0  0  0
 26 17  1  0  0  0  0
 27  7  1  0  0  0  0
 27 24  1  6  0  0  0
 29 30  1  0  0  0  0
 30 28  1  0  0  0  0
M  END
>  <MODEL>
8

>  <REMARK>
 VINA RESULT:      -4.3      3.398      6.977
  Name = 
  2 active torsions:
  status: ('A' for Active; 'I' for Inactive)
    1  A    between atoms: N_11  and  C_28
    2  A    between atoms: C_28  and  C_30
                            x       y       z     vdW  Elec       q    Type
                         _______ _______ _______ _____ _____    ______ ____

>  <TORSDO>
F 2

$$$$
=
 OpenBabel11122412333D

 30 35  0  0  1  0  0  0  0  0999 V2000
  160.0320  211.4790  152.8730 C   0  0  1  0  0  3  0  0  0  0  0  0
  158.3440  213.2200  153.7660 C   0  0  0  0  0  0  0  0  0  0  0  0
  159.8960  209.3750  156.4960 N   0  0  0  0  0  0  0  0  0  0  0  0
  160.3810  209.9760  152.9100 C   0  0  1  0  0  3  0  0  0  0  0  0
  159.7360  211.8160  151.4200 C   0  0  0  0  0  2  0  0  0  0  0  0
  162.9210  210.4330  150.2410 O   0  0  0  0  0  0  0  0  0  0  0  0
  162.3380  207.3350  152.8690 C   0  0  1  0  0  3  0  0  0  0  0  0
  161.8820  210.5780  150.9420 C   0  0  0  0  0  0  0  0  0  0  0  0
  161.4420  207.1060  154.0750 C   0  0  2  0  0  3  0  0  0  0  0  0
  160.5340  208.2560  156.0890 C   0  0  0  0  0  0  0  0  0  0  0  0
  160.9370  211.6170  150.6170 N   0  0  0  0  0  0  0  0  0  0  0  0
  161.6910  209.6980  152.1590 C   0  0  2  0  0  3  0  0  0  0  0  0
  157.2200  213.5810  154.6900 C   0  0  0  0  0  2  0  0  0  0  0  0
  160.4760  206.0090  153.7110 C   0  0  0  0  0  2  0  0  0  0  0  0
  162.5180  205.9200  152.3390 C   0  0  0  0  0  2  0  0  0  0  0  0
  158.8310  214.0650  153.0310 O   0  0  0  0  0  0  0  0  0  0  0  0
  159.7870  210.0980  155.3660 C   0  0  0  0  0  0  0  0  0  0  0  0
  157.5510  213.1370  156.1180 C   0  0  0  0  0  2  0  0  0  0  0  0
  158.8450  211.7960  153.8050 C   0  0  2  0  0  3  0  0  0  0  0  0
  160.3970  209.4470  154.3200 C   0  0  0  0  0  0  0  0  0  0  0  0
  160.8440  207.1330  157.0200 C   0  0  0  0  0  1  0  0  0  0  0  0
  160.8450  208.2540  154.7700 N   0  0  0  0  0  0  0  0  0  0  0  0
  161.2850  205.1200  152.7760 C   0  0  0  0  0  2  0  0  0  0  0  0
  160.5180  207.7170  151.0510 C   0  0  0  0  0  1  0  0  0  0  0  0
  157.9910  211.6690  156.1620 C   0  0  0  0  0  2  0  0  0  0  0  0
  159.2140  211.4760  155.2630 C   0  0  1  0  0  3  0  0  0  0  0  0
  161.7800  208.2310  151.7520 C   0  0  2  0  0  3  0  0  0  0  0  0
  161.2130  212.5790  149.5600 C   0  0  0  0  0  2  0  0  0  0  0  0
  159.8390  214.2300  148.3330 C   0  0  0  0  0  1  0  0  0  0  0  0
  160.3070  213.7880  149.7020 C   0  0  0  0  0  2  0  0  0  0  0  0
  1  5  1  6  0  0  0
  1  4  1  0  0  0  0
  1 19  1  0  0  0  0
  2 13  1  0  0  0  0
  4 20  1  1  0  0  0
  6  8  2  0  0  0  0
  7 15  1  6  0  0  0
  7  9  1  0  0  0  0
  9 14  1  6  0  0  0
  9 22  1  0  0  0  0
 10  3  2  0  0  0  0
 10 21  1  0  0  0  0
 11  8  1  0  0  0  0
 11  5  1  0  0  0  0
 12  8  1  6  0  0  0
 12  4  1  0  0  0  0
 13 18  1  0  0  0  0
 15 23  1  0  0  0  0
 16  2  2  0  0  0  0
 17  3  1  0  0  0  0
 18 25  1  0  0  0  0
 19  2  1  1  0  0  0
 19 26  1  0  0  0  0
 20 22  1  0  0  0  0
 20 17  2  0  0  0  0
 22 10  1  0  0  0  0
 23 14  1  0  0  0  0
 26 17  1  0  0  0  0
 26 25  1  1  0  0  0
 27 24  1  1  0  0  0
 27 12  1  0  0  0  0
 27  7  1  0  0  0  0
 28 30  1  0  0  0  0
 28 11  1  0  0  0  0
 29 30  1  0  0  0  0
M  END
>  <MODEL>
9

>  <REMARK>
 VINA RESULT:      -4.2      2.874      4.599
  Name = 
  2 active torsions:
  status: ('A' for Active; 'I' for Inactive)
    1  A    between atoms: N_11  and  C_28
    2  A    between atoms: C_28  and  C_30
                            x       y       z     vdW  Elec       q    Type
                         _______ _______ _______ _____ _____    ______ ____

>  <TORSDO>
F 2

$$$$
