=
 OpenBabel11122413423D

 37 44  0  0  1  0  0  0  0  0999 V2000
  160.9960  209.2000  154.7100 C   0  0  0  0  0  2  0  0  0  0  0  0
  161.4710  205.8320  151.6380 C   0  0  0  0  0  0  0  0  0  0  0  0
  161.3700  209.7620  150.2750 C   0  0  0  0  0  0  0  0  0  0  0  0
  160.4170  208.8800  156.0150 N   0  0  0  0  0  0  0  0  0  0  0  0
  160.1490  212.5500  152.5810 O   0  0  0  0  0  0  0  0  0  0  0  0
  161.7900  207.4470  149.7110 C   0  0  0  0  0  0  0  0  0  0  0  0
  160.8200  210.4230  151.3660 C   0  0  0  0  0  0  0  0  0  0  0  0
  160.1150  211.4170  156.2310 C   0  0  2  0  0  3  0  0  0  0  0  0
  161.2500  208.4240  150.5270 C   0  0  0  0  0  0  0  0  0  0  0  0
  160.9030  211.9470  151.5380 C   0  0  1  0  0  3  0  0  0  0  0  0
  162.4660  207.8600  148.5550 C   0  0  0  0  0  3  0  0  0  0  0  0
  159.6800  209.9940  156.6360 C   0  0  0  0  0  2  0  0  0  0  0  0
  160.6940  208.1840  151.7150 N   0  0  0  0  0  0  0  0  0  0  0  0
  162.8280  205.9910  152.3020 C   0  0  0  0  0  1  0  0  0  0  0  0
  162.2920  211.6400  148.7980 C   0  0  0  0  0  3  0  0  0  0  0  0
  162.6040  209.2380  148.2750 C   0  0  0  0  0  3  0  0  0  0  0  0
  160.4770  206.8420  152.2540 C   0  0  0  0  0  2  0  0  0  0  0  0
  159.5180  211.9700  154.9200 C   0  0  1  0  0  3  0  0  0  0  0  0
  160.4480  211.8400  153.7340 C   0  0  1  0  0  3  0  0  0  0  0  0
  162.0610  210.2190  149.1350 C   0  0  0  0  0  0  0  0  0  0  0  0
  160.4260  209.3890  152.2680 C   0  0  0  0  0  0  0  0  0  0  0  0
  161.6210  206.0060  150.1050 C   0  0  0  0  0  2  0  0  0  0  0  0
  160.5940  212.5930  150.2600 N   0  0  0  0  0  0  0  0  0  0  0  0
  160.9700  204.4310  151.9170 C   0  0  0  0  0  1  0  0  0  0  0  0
  159.2610  210.9010  153.8540 C   0  0  1  0  0  3  0  0  0  0  0  0
  161.5840  211.7380  156.4780 C   0  0  0  0  0  1  0  0  0  0  0  0
  159.9080  209.5290  153.6860 C   0  0  2  0  0  3  0  0  0  0  0  0
  161.6410  212.6980  149.2900 C   0  0  0  0  0  3  0  0  0  0  0  0
  158.3120  213.3290  150.8700 C   0  0  0  0  0  3  0  0  0  0  0  0
  159.2480  212.9620  149.8880 C   0  0  0  0  0  0  0  0  0  0  0  0
  158.8560  212.9890  148.5390 C   0  0  0  0  0  3  0  0  0  0  0  0
  157.0920  213.3840  146.4950 Cl  0  0  0  0  0  0  0  0  0  0  0  0
  156.6370  213.7190  149.1670 C   0  0  0  0  0  3  0  0  0  0  0  0
  157.5590  213.3620  148.1810 C   0  0  0  0  0  0  0  0  0  0  0  0
  157.0140  213.7030  150.5130 C   0  0  0  0  0  3  0  0  0  0  0  0
  161.4290  207.0520  157.2610 C   0  0  0  0  0  1  0  0  0  0  0  0
  161.5110  208.5240  156.9050 C   0  0  0  0  0  2  0  0  0  0  0  0
  1  4  1  0  0  0  0
  2 24  1  0  0  0  0
  2 17  1  0  0  0  0
  2 14  1  0  0  0  0
  3  9  1  0  0  0  0
  3  7  1  0  0  0  0
  4 12  1  0  0  0  0
  4 37  1  0  0  0  0
  5 19  1  0  0  0  0
  6 22  1  0  0  0  0
  6  9  2  0  0  0  0
  7 21  2  0  0  0  0
  8 26  1  6  0  0  0
  8 12  1  0  0  0  0
  9 13  1  0  0  0  0
 10  7  1  6  0  0  0
 10  5  1  0  0  0  0
 11  6  1  0  0  0  0
 13 17  1  0  0  0  0
 13 21  1  0  0  0  0
 15 20  1  0  0  0  0
 15 28  2  0  0  0  0
 16 11  2  0  0  0  0
 16 20  1  0  0  0  0
 18  8  1  0  0  0  0
 19 25  1  0  0  0  0
 19 18  1  0  0  0  0
 20  3  2  0  0  0  0
 21 27  1  0  0  0  0
 22  2  1  0  0  0  0
 23 10  1  0  0  0  0
 25 18  1  0  0  0  0
 27 25  1  0  0  0  0
 27  1  1  0  0  0  0
 28 23  1  0  0  0  0
 30 23  1  0  0  0  0
 30 29  2  0  0  0  0
 31 30  1  0  0  0  0
 32 34  1  0  0  0  0
 33 35  2  0  0  0  0
 34 31  2  0  0  0  0
 34 33  1  0  0  0  0
 35 29  1  0  0  0  0
 37 36  1  0  0  0  0
M  END
>  <MODEL>
1

>  <REMARK>
 VINA RESULT:      -4.5      0.000      0.000
  Name = 
  2 active torsions:
  status: ('A' for Active; 'I' for Inactive)
    1  A    between atoms: N_4  and  C_37
    2  A    between atoms: N_23  and  C_30
                            x       y       z     vdW  Elec       q    Type
                         _______ _______ _______ _____ _____    ______ ____

>  <TORSDO>
F 2

$$$$
