=
 OpenBabel11122413343D

 37 43  0  0  1  0  0  0  0  0999 V2000
  160.7580  208.9670  151.6380 C   0  0  0  0  0  2  0  0  0  0  0  0
  159.3100  212.0740  155.5650 C   0  0  0  0  0  0  0  0  0  0  0  0
  158.8010  212.5620  151.4390 C   0  0  0  0  0  0  0  0  0  0  0  0
  161.6210  207.7420  151.3350 C   0  0  2  0  0  3  0  0  0  0  0  0
  161.9050  212.5370  149.7630 O   0  0  0  0  0  0  0  0  0  0  0  0
  158.0820  213.1210  153.6750 C   0  0  0  0  0  0  0  0  0  0  0  0
  159.8740  211.7010  150.8340 C   0  0  1  0  0  3  0  0  0  0  0  0
  162.1820  209.0630  149.1380 C   0  0  2  0  0  3  0  0  0  0  0  0
  158.8890  212.4290  152.7960 C   0  0  0  0  0  0  0  0  0  0  0  0
  160.5720  212.1660  149.5400 C   0  0  1  0  0  3  0  0  0  0  0  0
  157.0780  213.9470  153.1520 C   0  0  0  0  0  3  0  0  0  0  0  0
  162.2810  207.7560  149.9420 C   0  0  0  0  0  2  0  0  0  0  0  0
  160.0040  211.6880  153.2250 N   0  0  0  0  0  0  0  0  0  0  0  0
  158.6320  210.7400  155.8190 C   0  0  0  0  0  1  0  0  0  0  0  0
  157.7420  213.7130  149.4080 C   0  0  0  0  0  2  0  0  0  0  0  0
  156.9470  214.0800  151.7530 C   0  0  0  0  0  3  0  0  0  0  0  0
  160.4950  211.8670  154.5900 C   0  0  0  0  0  2  0  0  0  0  0  0
  162.8830  210.2720  149.7860 C   0  0  1  0  0  3  0  0  0  0  0  0
  162.6840  211.6100  149.0490 C   0  0  0  0  0  2  0  0  0  0  0  0
  157.8090  213.3910  150.8740 C   0  0  0  0  0  0  0  0  0  0  0  0
  160.8310  211.4950  152.0400 C   0  0  1  0  0  3  0  0  0  0  0  0
  158.3410  213.0090  155.0470 O   0  0  0  0  0  0  0  0  0  0  0  0
  159.7960  213.1960  148.7170 C   0  0  2  0  0  3  0  0  0  0  0  0
  159.8450  212.5990  156.8800 C   0  0  0  0  0  1  0  0  0  0  0  0
  162.9460  210.3300  151.3220 C   0  0  0  0  0  2  0  0  0  0  0  0
  160.8560  209.3360  148.7950 O   0  0  0  0  0  1  0  0  0  0  0  0
  161.6030  210.1790  152.0510 C   0  0  2  0  0  3  0  0  0  0  0  0
  158.4550  212.7990  148.6240 O   0  0  0  0  0  0  0  0  0  0  0  0
  161.3540  214.3190  147.0780 C   0  0  0  0  0  3  0  0  0  0  0  0
  160.3830  213.3430  147.3480 C   0  0  0  0  0  0  0  0  0  0  0  0
  159.9330  212.5110  146.3160 C   0  0  0  0  0  3  0  0  0  0  0  0
  160.0180  211.8360  144.0320 F   0  0  0  0  0  0  0  0  0  0  0  0
  161.4250  213.6160  144.7630 C   0  0  0  0  0  3  0  0  0  0  0  0
  160.4550  212.6450  145.0270 C   0  0  0  0  0  0  0  0  0  0  0  0
  161.8740  214.4530  145.7880 C   0  0  0  0  0  3  0  0  0  0  0  0
  161.0940  205.7070  150.3110 C   0  0  0  0  0  1  0  0  0  0  0  0
  160.8240  206.5350  151.4730 N   0  0  0  0  0  2  0  0  0  0  0  0
  1 27  1  0  0  0  0
  2 14  1  0  0  0  0
  2 24  1  0  0  0  0
  3  9  1  0  0  0  0
  4 37  1  6  0  0  0
  4  1  1  0  0  0  0
  6 22  1  0  0  0  0
  7  3  1  1  0  0  0
  7 21  1  0  0  0  0
  8 26  1  1  0  0  0
  8 18  1  0  0  0  0
  8 12  1  0  0  0  0
  9 13  1  0  0  0  0
  9  6  2  0  0  0  0
 10  5  1  1  0  0  0
 10  7  1  0  0  0  0
 11  6  1  0  0  0  0
 12  4  1  0  0  0  0
 13 17  1  0  0  0  0
 15 20  1  0  0  0  0
 16 11  2  0  0  0  0
 17  2  1  0  0  0  0
 18 19  1  1  0  0  0
 18 25  1  0  0  0  0
 19  5  1  0  0  0  0
 20  3  2  0  0  0  0
 20 16  1  0  0  0  0
 21 27  1  0  0  0  0
 21 13  1  1  0  0  0
 22  2  1  0  0  0  0
 23 30  1  6  0  0  0
 23 10  1  0  0  0  0
 27 25  1  6  0  0  0
 28 23  1  0  0  0  0
 28 15  1  0  0  0  0
 29 30  1  0  0  0  0
 31 30  2  0  0  0  0
 32 34  1  0  0  0  0
 33 34  2  0  0  0  0
 33 35  1  0  0  0  0
 34 31  1  0  0  0  0
 35 29  2  0  0  0  0
 36 37  1  0  0  0  0
M  END
>  <MODEL>
1

>  <REMARK>
 VINA RESULT:      -1.2      0.000      0.000
  Name = 
  2 active torsions:
  status: ('A' for Active; 'I' for Inactive)
    1  A    between atoms: C_4  and  N_37
    2  A    between atoms: C_23  and  C_30
                            x       y       z     vdW  Elec       q    Type
                         _______ _______ _______ _____ _____    ______ ____

>  <TORSDO>
F 2

$$$$
=
 OpenBabel11122413343D

 37 43  0  0  1  0  0  0  0  0999 V2000
  160.6360  207.0730  151.0320 C   0  0  0  0  0  2  0  0  0  0  0  0
  160.7660  208.6030  156.0140 C   0  0  0  0  0  0  0  0  0  0  0  0
  159.9090  210.8060  152.5600 C   0  0  0  0  0  0  0  0  0  0  0  0
  161.0200  205.9010  150.1290 C   0  0  2  0  0  3  0  0  0  0  0  0
  162.6020  210.6990  150.2830 O   0  0  0  0  0  0  0  0  0  0  0  0
  159.6980  210.5810  154.9540 C   0  0  0  0  0  0  0  0  0  0  0  0
  160.5670  210.0250  151.4560 C   0  0  1  0  0  3  0  0  0  0  0  0
  161.6830  207.8110  148.4540 C   0  0  2  0  0  3  0  0  0  0  0  0
  160.1240  210.1250  153.7240 C   0  0  0  0  0  0  0  0  0  0  0  0
  161.2030  210.7840  150.2740 C   0  0  1  0  0  3  0  0  0  0  0  0
  158.9490  211.7640  155.0050 C   0  0  0  0  0  3  0  0  0  0  0  0
  161.4660  206.3100  148.7100 C   0  0  0  0  0  2  0  0  0  0  0  0
  160.9940  209.0280  153.5910 N   0  0  0  0  0  0  0  0  0  0  0  0
  159.7390  207.4860  155.9490 C   0  0  0  0  0  1  0  0  0  0  0  0
  159.0160  212.8920  151.3660 C   0  0  0  0  0  2  0  0  0  0  0  0
  158.6880  212.4730  153.8120 C   0  0  0  0  0  3  0  0  0  0  0  0
  161.6880  208.5210  154.7730 C   0  0  0  0  0  2  0  0  0  0  0  0
  162.8070  208.4500  149.2900 C   0  0  1  0  0  3  0  0  0  0  0  0
  162.9480  209.9760  149.1290 C   0  0  0  0  0  2  0  0  0  0  0  0
  159.1660  212.0040  152.5710 C   0  0  0  0  0  0  0  0  0  0  0  0
  161.5570  209.1300  152.2490 C   0  0  1  0  0  3  0  0  0  0  0  0
  160.0840  209.8710  156.0980 O   0  0  0  0  0  0  0  0  0  0  0  0
  160.6930  212.2120  150.0670 C   0  0  2  0  0  3  0  0  0  0  0  0
  161.6040  208.4110  157.2590 C   0  0  0  0  0  1  0  0  0  0  0  0
  163.0820  207.8730  150.6880 C   0  0  0  0  0  2  0  0  0  0  0  0
  160.4780  208.5110  148.5550 O   0  0  0  0  0  1  0  0  0  0  0  0
  161.8670  207.7750  151.6210 C   0  0  2  0  0  3  0  0  0  0  0  0
  159.2960  212.2230  150.1690 O   0  0  0  0  0  0  0  0  0  0  0  0
  162.0420  213.7940  148.6350 C   0  0  0  0  0  3  0  0  0  0  0  0
  161.1150  212.7470  148.7340 C   0  0  0  0  0  0  0  0  0  0  0  0
  160.5520  212.2080  147.5710 C   0  0  0  0  0  3  0  0  0  0  0  0
  160.3720  212.1810  145.1950 F   0  0  0  0  0  0  0  0  0  0  0  0
  161.8450  213.7490  146.2240 C   0  0  0  0  0  3  0  0  0  0  0  0
  160.9180  212.7070  146.3180 C   0  0  0  0  0  0  0  0  0  0  0  0
  162.4070  214.2920  147.3820 C   0  0  0  0  0  3  0  0  0  0  0  0
  160.4660  203.6320  150.0370 C   0  0  0  0  0  1  0  0  0  0  0  0
  159.9070  204.9730  150.0310 N   0  0  0  0  0  2  0  0  0  0  0  0
  1 27  1  0  0  0  0
  2 22  1  0  0  0  0
  2 24  1  0  0  0  0
  3 20  2  0  0  0  0
  3  9  1  0  0  0  0
  4 37  1  6  0  0  0
  4  1  1  0  0  0  0
  6 11  1  0  0  0  0
  6 22  1  0  0  0  0
  7 21  1  0  0  0  0
  7  3  1  1  0  0  0
  8 26  1  1  0  0  0
  8 12  1  0  0  0  0
  8 18  1  0  0  0  0
  9  6  2  0  0  0  0
 10  5  1  1  0  0  0
 10  7  1  0  0  0  0
 12  4  1  0  0  0  0
 13  9  1  0  0  0  0
 13 17  1  0  0  0  0
 14  2  1  0  0  0  0
 15 20  1  0  0  0  0
 16 11  2  0  0  0  0
 17  2  1  0  0  0  0
 18 19  1  1  0  0  0
 18 25  1  0  0  0  0
 19  5  1  0  0  0  0
 20 16  1  0  0  0  0
 21 13  1  1  0  0  0
 23 30  1  6  0  0  0
 23 28  1  0  0  0  0
 23 10  1  0  0  0  0
 27 25  1  6  0  0  0
 27 21  1  0  0  0  0
 28 15  1  0  0  0  0
 29 30  1  0  0  0  0
 31 30  2  0  0  0  0
 32 34  1  0  0  0  0
 33 34  2  0  0  0  0
 33 35  1  0  0  0  0
 34 31  1  0  0  0  0
 35 29  2  0  0  0  0
 37 36  1  0  0  0  0
M  END
>  <MODEL>
2

>  <REMARK>
 VINA RESULT:      -0.5      1.821      2.472
  Name = 
  2 active torsions:
  status: ('A' for Active; 'I' for Inactive)
    1  A    between atoms: C_4  and  N_37
    2  A    between atoms: C_23  and  C_30
                            x       y       z     vdW  Elec       q    Type
                         _______ _______ _______ _____ _____    ______ ____

>  <TORSDO>
F 2

$$$$
=
 OpenBabel11122413343D

 37 43  0  0  1  0  0  0  0  0999 V2000
  161.7920  210.3040  154.7720 C   0  0  0  0  0  2  0  0  0  0  0  0
  162.2400  209.2230  149.6920 C   0  0  0  0  0  0  0  0  0  0  0  0
  160.0790  212.2560  151.6020 C   0  0  0  0  0  0  0  0  0  0  0  0
  162.0960  209.7200  156.1520 C   0  0  2  0  0  3  0  0  0  0  0  0
  157.7420  210.9120  153.8770 O   0  0  0  0  0  0  0  0  0  0  0  0
  161.1480  211.4530  149.5920 C   0  0  0  0  0  0  0  0  0  0  0  0
  159.8680  211.7320  152.9950 C   0  0  1  0  0  3  0  0  0  0  0  0
  159.7780  210.7860  156.7710 C   0  0  2  0  0  3  0  0  0  0  0  0
  160.8090  211.3230  150.9230 C   0  0  0  0  0  0  0  0  0  0  0  0
  158.5480  212.0490  153.7260 C   0  0  1  0  0  3  0  0  0  0  0  0
  160.7860  212.6300  148.9230 C   0  0  0  0  0  3  0  0  0  0  0  0
  161.0660  210.0880  157.2390 C   0  0  0  0  0  2  0  0  0  0  0  0
  161.0080  210.1260  151.6340 N   0  0  0  0  0  0  0  0  0  0  0  0
  163.6530  209.4690  150.1900 C   0  0  0  0  0  1  0  0  0  0  0  0
  158.7580  214.4530  151.5830 C   0  0  0  0  0  2  0  0  0  0  0  0
  160.0560  213.6240  149.6100 C   0  0  0  0  0  3  0  0  0  0  0  0
  161.3220  208.9040  150.8970 C   0  0  0  0  0  2  0  0  0  0  0  0
  158.8950  209.9430  155.8310 C   0  0  1  0  0  3  0  0  0  0  0  0
  157.6670  210.6790  155.2620 C   0  0  0  0  0  2  0  0  0  0  0  0
  159.6890  213.4500  150.9610 C   0  0  0  0  0  0  0  0  0  0  0  0
  160.1490  210.2170  152.8090 C   0  0  1  0  0  3  0  0  0  0  0  0
  161.7860  210.3800  148.9580 O   0  0  0  0  0  0  0  0  0  0  0  0
  157.7780  213.2570  153.1870 C   0  0  2  0  0  3  0  0  0  0  0  0
  162.2610  208.0290  148.7630 C   0  0  0  0  0  1  0  0  0  0  0  0
  159.5910  208.9340  154.9030 C   0  0  0  0  0  2  0  0  0  0  0  0
  160.0600  212.0500  156.2480 O   0  0  0  0  0  1  0  0  0  0  0  0
  160.7190  209.4980  154.0280 C   0  0  2  0  0  3  0  0  0  0  0  0
  158.6720  214.3150  152.9730 O   0  0  0  0  0  0  0  0  0  0  0  0
  156.9700  213.8490  155.5050 C   0  0  0  0  0  3  0  0  0  0  0  0
  156.7020  213.6780  154.1380 C   0  0  0  0  0  0  0  0  0  0  0  0
  155.4030  213.8790  153.6560 C   0  0  0  0  0  3  0  0  0  0  0  0
  153.1250  214.4490  154.0610 F   0  0  0  0  0  0  0  0  0  0  0  0
  154.6520  214.4270  155.8920 C   0  0  0  0  0  3  0  0  0  0  0  0
  154.3810  214.2540  154.5310 C   0  0  0  0  0  0  0  0  0  0  0  0
  155.9460  214.2240  156.3780 C   0  0  0  0  0  3  0  0  0  0  0  0
  163.2800  211.4760  157.1430 C   0  0  0  0  0  1  0  0  0  0  0  0
  163.4170  210.1430  156.5830 N   0  0  0  0  0  2  0  0  0  0  0  0
  1  4  1  0  0  0  0
  2 14  1  0  0  0  0
  2 17  1  0  0  0  0
  4 37  1  1  0  0  0
  4 12  1  0  0  0  0
  5 19  1  0  0  0  0
  6  9  1  0  0  0  0
  7  3  1  6  0  0  0
  7 10  1  0  0  0  0
  8 26  1  6  0  0  0
  8 12  1  0  0  0  0
  9  3  2  0  0  0  0
  9 13  1  0  0  0  0
 10  5  1  6  0  0  0
 11  6  2  0  0  0  0
 11 16  1  0  0  0  0
 15 28  1  0  0  0  0
 16 20  2  0  0  0  0
 17 13  1  0  0  0  0
 18 25  1  6  0  0  0
 18  8  1  0  0  0  0
 19 18  1  0  0  0  0
 20 15  1  0  0  0  0
 20  3  1  0  0  0  0
 21 13  1  6  0  0  0
 21  7  1  0  0  0  0
 21 27  1  0  0  0  0
 22  6  1  0  0  0  0
 22  2  1  0  0  0  0
 23 10  1  0  0  0  0
 23 30  1  1  0  0  0
 24  2  1  0  0  0  0
 27  1  1  1  0  0  0
 27 25  1  0  0  0  0
 28 23  1  0  0  0  0
 29 35  1  0  0  0  0
 30 29  2  0  0  0  0
 31 30  1  0  0  0  0
 31 34  2  0  0  0  0
 32 34  1  0  0  0  0
 33 35  2  0  0  0  0
 34 33  1  0  0  0  0
 37 36  1  0  0  0  0
M  END
>  <MODEL>
3

>  <REMARK>
 VINA RESULT:       0.9      2.948      7.040
  Name = 
  2 active torsions:
  status: ('A' for Active; 'I' for Inactive)
    1  A    between atoms: C_4  and  N_37
    2  A    between atoms: C_23  and  C_30
                            x       y       z     vdW  Elec       q    Type
                         _______ _______ _______ _____ _____    ______ ____

>  <TORSDO>
F 2

$$$$
