=
 OpenBabel11122412423D

 30 35  0  0  1  0  0  0  0  0999 V2000
  161.2120  205.4490  149.4910 C   0  0  2  0  0  3  0  0  0  0  0  0
  160.8160  202.9370  149.4030 C   0  0  0  0  0  0  0  0  0  0  0  0
  161.4490  205.1840  153.6710 O   0  0  0  0  0  0  0  0  0  0  0  0
  161.0620  206.6680  150.3960 C   0  0  2  0  0  3  0  0  0  0  0  0
  160.6950  205.7670  148.2340 O   0  0  0  0  0  0  0  0  0  0  0  0
  163.2880  208.2290  148.1840 O   0  0  0  0  0  1  0  0  0  0  0  0
  160.5120  209.3040  151.5830 C   0  0  1  0  0  3  0  0  0  0  0  0
  161.9430  207.8740  148.3060 C   0  0  1  0  0  3  0  0  0  0  0  0
  160.6190  208.3400  152.7700 C   0  0  2  0  0  3  0  0  0  0  0  0
  161.7770  206.4890  153.9950 C   0  0  0  0  0  0  0  0  0  0  0  0
  161.7150  206.5090  147.6140 C   0  0  2  0  0  3  0  0  0  0  0  0
  161.5580  207.8760  149.7300 N   0  0  0  0  0  0  0  0  0  0  0  0
  160.9540  201.6730  150.1510 C   0  0  0  0  0  3  0  0  0  0  0  0
  160.5920  209.2470  153.9910 C   0  0  0  0  0  2  0  0  0  0  0  0
  160.5470  210.6920  152.1870 C   0  0  0  0  0  2  0  0  0  0  0  0
  160.8920  202.9140  148.1450 O   0  0  0  0  0  0  0  0  0  0  0  0
  161.3640  205.1140  152.2960 C   0  0  0  0  0  0  0  0  0  0  0  0
  160.8030  201.6220  151.4790 C   0  0  0  0  0  3  0  0  0  0  0  0
  160.5190  204.2280  150.1280 C   0  0  1  0  0  3  0  0  0  0  0  0
  161.8600  206.3690  151.6570 C   0  0  2  0  0  3  0  0  0  0  0  0
  161.9980  206.8560  155.1790 O   0  0  0  0  0  0  0  0  0  0  0  0
  161.8490  207.4060  152.8020 C   0  0  1  0  0  3  0  0  0  0  0  0
  160.1350  210.5640  153.5740 N   0  0  0  0  0  2  0  0  0  0  0  0
  162.1940  210.1000  150.0570 O   0  0  0  0  0  0  0  0  0  0  0  0
  160.4280  202.8270  152.2990 C   0  0  0  0  0  2  0  0  0  0  0  0
  160.8560  204.0830  151.6050 C   0  0  0  0  0  0  0  0  0  0  0  0
  161.4860  209.1260  150.4370 C   0  0  0  0  0  0  0  0  0  0  0  0
  161.3680  206.6940  146.1440 C   0  0  0  0  0  2  0  0  0  0  0  0
  163.0400  204.8570  145.9860 C   0  0  0  0  0  1  0  0  0  0  0  0
  161.8600  205.5250  145.3070 C   0  0  0  0  0  2  0  0  0  0  0  0
  1  5  1  6  0  0  0
  1 19  1  0  0  0  0
  1  4  1  0  0  0  0
  2 13  1  0  0  0  0
  3 10  1  0  0  0  0
  4 12  1  6  0  0  0
  4 20  1  0  0  0  0
  7 15  1  1  0  0  0
  7  9  1  0  0  0  0
  8  6  1  1  0  0  0
  8 12  1  0  0  0  0
  9 22  1  0  0  0  0
  9 14  1  1  0  0  0
 10 21  2  0  0  0  0
 11 28  1  6  0  0  0
 11  5  1  0  0  0  0
 11  8  1  0  0  0  0
 12 27  1  0  0  0  0
 13 18  2  0  0  0  0
 15 23  1  0  0  0  0
 16  2  2  0  0  0  0
 17  3  1  0  0  0  0
 18 25  1  0  0  0  0
 19  2  1  6  0  0  0
 19 26  1  0  0  0  0
 20 17  1  1  0  0  0
 20 22  1  0  0  0  0
 22 10  1  1  0  0  0
 23 14  1  0  0  0  0
 24 27  2  0  0  0  0
 26 17  2  0  0  0  0
 26 25  1  0  0  0  0
 27  7  1  0  0  0  0
 30 29  1  0  0  0  0
 30 28  1  0  0  0  0
M  END
>  <MODEL>
1

>  <REMARK>
 VINA RESULT:      -7.8      0.000      0.000
  Name = 
  2 active torsions:
  status: ('A' for Active; 'I' for Inactive)
    1  A    between atoms: C_11  and  C_28
    2  A    between atoms: C_28  and  C_30
                            x       y       z     vdW  Elec       q    Type
                         _______ _______ _______ _____ _____    ______ ____

>  <TORSDO>
F 2

$$$$
=
 OpenBabel11122412423D

 30 35  0  0  1  0  0  0  0  0999 V2000
  161.1740  210.6950  150.6300 C   0  0  2  0  0  3  0  0  0  0  0  0
  161.0830  212.3030  148.6600 C   0  0  0  0  0  0  0  0  0  0  0  0
  159.0250  213.4870  152.9050 O   0  0  0  0  0  0  0  0  0  0  0  0
  161.1270  210.6420  152.1540 C   0  0  2  0  0  3  0  0  0  0  0  0
  162.2540  209.9230  150.1960 O   0  0  0  0  0  0  0  0  0  0  0  0
  160.4850  207.2220  151.7320 O   0  0  0  0  0  1  0  0  0  0  0  0
  161.5680  210.1280  155.0170 C   0  0  1  0  0  3  0  0  0  0  0  0
  161.5340  208.1430  151.7170 C   0  0  1  0  0  3  0  0  0  0  0  0
  160.7550  211.4260  154.9600 C   0  0  2  0  0  3  0  0  0  0  0  0
  158.8400  212.7780  154.0790 C   0  0  0  0  0  0  0  0  0  0  0  0
  161.7880  208.6000  150.2610 C   0  0  2  0  0  3  0  0  0  0  0  0
  161.2250  209.2600  152.6310 N   0  0  0  0  0  0  0  0  0  0  0  0
  160.3840  213.4740  148.0980 C   0  0  0  0  0  3  0  0  0  0  0  0
  160.3980  211.7070  156.4120 C   0  0  0  0  0  2  0  0  0  0  0  0
  161.5280  209.6910  156.4670 C   0  0  0  0  0  2  0  0  0  0  0  0
  161.5820  211.4540  147.8730 O   0  0  0  0  0  0  0  0  0  0  0  0
  159.7090  212.6640  152.0350 C   0  0  0  0  0  0  0  0  0  0  0  0
  159.9050  214.4490  148.8790 C   0  0  0  0  0  3  0  0  0  0  0  0
  161.2590  212.1580  150.1530 C   0  0  1  0  0  3  0  0  0  0  0  0
  159.8040  211.2720  152.5650 C   0  0  2  0  0  3  0  0  0  0  0  0
  158.1810  213.2360  155.0500 O   0  0  0  0  0  0  0  0  0  0  0  0
  159.4910  211.4190  154.0710 C   0  0  1  0  0  3  0  0  0  0  0  0
  161.2340  210.8720  157.2610 N   0  0  0  0  0  2  0  0  0  0  0  0
  160.9450  207.8660  154.4850 O   0  0  0  0  0  0  0  0  0  0  0  0
  160.0880  214.4530  150.3730 C   0  0  0  0  0  2  0  0  0  0  0  0
  160.2680  213.0560  150.8820 C   0  0  0  0  0  0  0  0  0  0  0  0
  161.2050  209.0220  154.0490 C   0  0  0  0  0  0  0  0  0  0  0  0
  162.7900  207.6870  149.5700 C   0  0  0  0  0  2  0  0  0  0  0  0
  161.0010  206.5530  148.2640 C   0  0  0  0  0  1  0  0  0  0  0  0
  162.3190  207.2980  148.1780 C   0  0  0  0  0  2  0  0  0  0  0  0
  1  5  1  1  0  0  0
  1  4  1  0  0  0  0
  3 10  1  0  0  0  0
  4 20  1  0  0  0  0
  4 12  1  6  0  0  0
  5 11  1  0  0  0  0
  7 15  1  1  0  0  0
  8  6  1  6  0  0  0
  8 12  1  0  0  0  0
  9  7  1  0  0  0  0
  9 14  1  1  0  0  0
 10 21  2  0  0  0  0
 11 28  1  1  0  0  0
 11  8  1  0  0  0  0
 12 27  1  0  0  0  0
 13  2  1  0  0  0  0
 13 18  2  0  0  0  0
 14 23  1  0  0  0  0
 15 23  1  0  0  0  0
 16  2  2  0  0  0  0
 17  3  1  0  0  0  0
 18 25  1  0  0  0  0
 19  2  1  6  0  0  0
 19  1  1  0  0  0  0
 19 26  1  0  0  0  0
 20 17  1  1  0  0  0
 20 22  1  0  0  0  0
 22 10  1  6  0  0  0
 22  9  1  0  0  0  0
 25 26  1  0  0  0  0
 26 17  2  0  0  0  0
 27 24  2  0  0  0  0
 27  7  1  0  0  0  0
 30 29  1  0  0  0  0
 30 28  1  0  0  0  0
M  END
>  <MODEL>
2

>  <REMARK>
 VINA RESULT:      -5.8      3.017      6.663
  Name = 
  2 active torsions:
  status: ('A' for Active; 'I' for Inactive)
    1  A    between atoms: C_11  and  C_28
    2  A    between atoms: C_28  and  C_30
                            x       y       z     vdW  Elec       q    Type
                         _______ _______ _______ _____ _____    ______ ____

>  <TORSDO>
F 2

$$$$
=
 OpenBabel11122412423D

 30 35  0  0  1  0  0  0  0  0999 V2000
  161.4960  209.4570  151.2440 C   0  0  2  0  0  3  0  0  0  0  0  0
  161.9070  210.1860  148.8410 C   0  0  0  0  0  0  0  0  0  0  0  0
  159.5640  213.1150  151.9390 O   0  0  0  0  0  0  0  0  0  0  0  0
  161.2550  209.9980  152.6500 C   0  0  2  0  0  3  0  0  0  0  0  0
  162.4810  208.4710  151.3160 O   0  0  0  0  0  0  0  0  0  0  0  0
  160.1240  206.7650  153.3940 O   0  0  0  0  0  1  0  0  0  0  0  0
  161.2530  210.5800  155.5350 C   0  0  1  0  0  3  0  0  0  0  0  0
  161.3020  207.4960  153.2290 C   0  0  1  0  0  3  0  0  0  0  0  0
  160.6740  211.8340  154.8690 C   0  0  2  0  0  3  0  0  0  0  0  0
  159.1260  212.9340  153.2380 C   0  0  0  0  0  0  0  0  0  0  0  0
  161.8020  207.3300  151.7740 C   0  0  2  0  0  3  0  0  0  0  0  0
  161.0690  208.9030  153.6060 N   0  0  0  0  0  0  0  0  0  0  0  0
  161.4810  211.1170  147.7800 C   0  0  0  0  0  3  0  0  0  0  0  0
  160.1920  212.6860  156.0340 C   0  0  0  0  0  2  0  0  0  0  0  0
  160.9660  210.7400  157.0130 C   0  0  0  0  0  2  0  0  0  0  0  0
  162.3540  209.0530  148.5170 O   0  0  0  0  0  0  0  0  0  0  0  0
  160.2070  211.9550  151.5600 C   0  0  0  0  0  0  0  0  0  0  0  0
  161.0740  212.3610  148.0580 C   0  0  0  0  0  3  0  0  0  0  0  0
  161.8730  210.6080  150.2910 C   0  0  1  0  0  3  0  0  0  0  0  0
  160.0110  210.8710  152.5680 C   0  0  2  0  0  3  0  0  0  0  0  0
  158.4360  213.7960  153.8450 O   0  0  0  0  0  0  0  0  0  0  0  0
  159.5440  211.6170  153.8380 C   0  0  1  0  0  3  0  0  0  0  0  0
  160.7730  212.1590  157.2590 N   0  0  0  0  0  2  0  0  0  0  0  0
  160.3430  208.3640  155.7600 O   0  0  0  0  0  0  0  0  0  0  0  0
  161.0720  212.9200  149.4550 C   0  0  0  0  0  2  0  0  0  0  0  0
  160.9600  211.8140  150.4590 C   0  0  0  0  0  0  0  0  0  0  0  0
  160.8370  209.2310  154.9870 C   0  0  0  0  0  0  0  0  0  0  0  0
  162.7210  206.1230  151.6480 C   0  0  0  0  0  2  0  0  0  0  0  0
  161.0520  204.7410  150.4250 C   0  0  0  0  0  1  0  0  0  0  0  0
  161.9340  204.8230  151.6550 C   0  0  0  0  0  2  0  0  0  0  0  0
  1  5  1  1  0  0  0
  1  4  1  0  0  0  0
  3 10  1  0  0  0  0
  4 12  1  1  0  0  0
  5 11  1  0  0  0  0
  7 15  1  1  0  0  0
  8  6  1  6  0  0  0
  8 12  1  0  0  0  0
  9  7  1  0  0  0  0
  9 14  1  1  0  0  0
 10 21  2  0  0  0  0
 11 28  1  1  0  0  0
 11  8  1  0  0  0  0
 12 27  1  0  0  0  0
 13 18  2  0  0  0  0
 13  2  1  0  0  0  0
 14 23  1  0  0  0  0
 15 23  1  0  0  0  0
 16  2  2  0  0  0  0
 17  3  1  0  0  0  0
 18 25  1  0  0  0  0
 19  2  1  6  0  0  0
 19 26  1  0  0  0  0
 19  1  1  0  0  0  0
 20 17  1  6  0  0  0
 20  4  1  0  0  0  0
 20 22  1  0  0  0  0
 22 10  1  6  0  0  0
 22  9  1  0  0  0  0
 25 26  1  0  0  0  0
 26 17  2  0  0  0  0
 27  7  1  0  0  0  0
 27 24  2  0  0  0  0
 28 30  1  0  0  0  0
 29 30  1  0  0  0  0
M  END
>  <MODEL>
3

>  <REMARK>
 VINA RESULT:      -5.8      2.727      6.351
  Name = 
  2 active torsions:
  status: ('A' for Active; 'I' for Inactive)
    1  A    between atoms: C_11  and  C_28
    2  A    between atoms: C_28  and  C_30
                            x       y       z     vdW  Elec       q    Type
                         _______ _______ _______ _____ _____    ______ ____

>  <TORSDO>
F 2

$$$$
=
 OpenBabel11122412423D

 30 35  0  0  1  0  0  0  0  0999 V2000
  161.7260  208.0330  151.1810 C   0  0  2  0  0  3  0  0  0  0  0  0
  162.2380  208.7240  148.7870 C   0  0  0  0  0  0  0  0  0  0  0  0
  160.4710  211.9590  151.9610 O   0  0  0  0  0  0  0  0  0  0  0  0
  161.5950  208.5810  152.5990 C   0  0  2  0  0  3  0  0  0  0  0  0
  162.5240  206.8890  151.2240 O   0  0  0  0  0  0  0  0  0  0  0  0
  159.9220  205.5820  153.3000 O   0  0  0  0  0  1  0  0  0  0  0  0
  161.7200  209.0990  155.4930 C   0  0  1  0  0  3  0  0  0  0  0  0
  161.2090  206.0980  153.1340 C   0  0  1  0  0  3  0  0  0  0  0  0
  161.3630  210.4470  154.8560 C   0  0  2  0  0  3  0  0  0  0  0  0
  160.0180  211.8320  153.2630 C   0  0  0  0  0  0  0  0  0  0  0  0
  161.6600  205.8750  151.6710 C   0  0  2  0  0  3  0  0  0  0  0  0
  161.2290  207.5180  153.5380 N   0  0  0  0  0  0  0  0  0  0  0  0
  161.9730  209.7360  147.7470 C   0  0  0  0  0  3  0  0  0  0  0  0
  161.0480  211.3480  156.0410 C   0  0  0  0  0  2  0  0  0  0  0  0
  161.4780  209.2780  156.9770 C   0  0  0  0  0  2  0  0  0  0  0  0
  162.4770  207.5380  148.4370 O   0  0  0  0  0  0  0  0  0  0  0  0
  160.8980  210.7120  151.5550 C   0  0  0  0  0  0  0  0  0  0  0  0
  161.7920  211.0270  148.0510 C   0  0  0  0  0  3  0  0  0  0  0  0
  162.2910  209.1190  150.2440 C   0  0  1  0  0  3  0  0  0  0  0  0
  160.5230  209.6600  152.5460 C   0  0  2  0  0  3  0  0  0  0  0  0
  159.4950  212.7900  153.8930 O   0  0  0  0  0  0  0  0  0  0  0  0
  160.2040  210.4510  153.8350 C   0  0  1  0  0  3  0  0  0  0  0  0
  161.5380  210.7040  157.2510 N   0  0  0  0  0  2  0  0  0  0  0  0
  160.4380  207.0730  155.6910 O   0  0  0  0  0  0  0  0  0  0  0  0
  161.9000  211.5500  149.4580 C   0  0  0  0  0  2  0  0  0  0  0  0
  161.6040  210.4630  150.4440 C   0  0  0  0  0  0  0  0  0  0  0  0
  161.0700  207.8540  154.9270 C   0  0  0  0  0  0  0  0  0  0  0  0
  162.3520  204.5290  151.5130 C   0  0  0  0  0  2  0  0  0  0  0  0
  160.7970  203.0440  150.2600 C   0  0  0  0  0  1  0  0  0  0  0  0
  161.3640  203.3800  151.6260 C   0  0  0  0  0  2  0  0  0  0  0  0
  1  5  1  1  0  0  0
  1  4  1  0  0  0  0
  3 10  1  0  0  0  0
  4 12  1  1  0  0  0
  5 11  1  0  0  0  0
  7 15  1  1  0  0  0
  8  6  1  6  0  0  0
  8 12  1  0  0  0  0
  9  7  1  0  0  0  0
  9 14  1  1  0  0  0
 10 21  2  0  0  0  0
 11 28  1  1  0  0  0
 11  8  1  0  0  0  0
 12 27  1  0  0  0  0
 13 18  2  0  0  0  0
 13  2  1  0  0  0  0
 14 23  1  0  0  0  0
 15 23  1  0  0  0  0
 16  2  2  0  0  0  0
 17  3  1  0  0  0  0
 18 25  1  0  0  0  0
 19  2  1  6  0  0  0
 19 26  1  0  0  0  0
 19  1  1  0  0  0  0
 20 17  1  6  0  0  0
 20  4  1  0  0  0  0
 20 22  1  0  0  0  0
 22 10  1  6  0  0  0
 22  9  1  0  0  0  0
 25 26  1  0  0  0  0
 26 17  2  0  0  0  0
 27  7  1  0  0  0  0
 27 24  2  0  0  0  0
 28 30  1  0  0  0  0
 29 30  1  0  0  0  0
M  END
>  <MODEL>
4

>  <REMARK>
 VINA RESULT:      -5.3      2.334      5.645
  Name = 
  2 active torsions:
  status: ('A' for Active; 'I' for Inactive)
    1  A    between atoms: C_11  and  C_28
    2  A    between atoms: C_28  and  C_30
                            x       y       z     vdW  Elec       q    Type
                         _______ _______ _______ _____ _____    ______ ____

>  <TORSDO>
F 2

$$$$
=
 OpenBabel11122412423D

 30 35  0  0  1  0  0  0  0  0999 V2000
  160.8730  209.0100  153.1700 C   0  0  2  0  0  3  0  0  0  0  0  0
  161.1350  207.0740  154.8000 C   0  0  0  0  0  0  0  0  0  0  0  0
  159.5510  211.4040  156.3510 O   0  0  0  0  0  0  0  0  0  0  0  0
  160.1100  210.3130  152.9480 C   0  0  2  0  0  3  0  0  0  0  0  0
  160.8170  208.2620  151.9930 O   0  0  0  0  0  0  0  0  0  0  0  0
  162.5850  211.0260  150.5710 O   0  0  0  0  0  1  0  0  0  0  0  0
  158.5540  212.5770  151.8960 C   0  0  1  0  0  3  0  0  0  0  0  0
  161.4170  210.2780  150.7370 C   0  0  1  0  0  3  0  0  0  0  0  0
  158.4190  212.6680  153.4210 C   0  0  2  0  0  3  0  0  0  0  0  0
  159.4170  212.6260  155.7170 C   0  0  0  0  0  0  0  0  0  0  0  0
  161.7940  208.8390  151.1640 C   0  0  2  0  0  3  0  0  0  0  0  0
  160.5280  210.9560  151.7000 N   0  0  0  0  0  0  0  0  0  0  0  0
  161.2660  206.7140  156.2240 C   0  0  0  0  0  3  0  0  0  0  0  0
  157.7180  213.9970  153.6560 C   0  0  0  0  0  2  0  0  0  0  0  0
  158.0320  213.8970  151.3670 C   0  0  0  0  0  2  0  0  0  0  0  0
  161.6890  206.3470  153.9330 O   0  0  0  0  0  0  0  0  0  0  0  0
  160.0150  210.5060  155.4120 C   0  0  0  0  0  0  0  0  0  0  0  0
  160.6350  207.3990  157.1840 C   0  0  0  0  0  3  0  0  0  0  0  0
  160.2930  208.2560  154.3830 C   0  0  1  0  0  3  0  0  0  0  0  0
  160.4120  211.1980  154.1490 C   0  0  2  0  0  3  0  0  0  0  0  0
  159.0770  213.6720  156.3300 O   0  0  0  0  0  0  0  0  0  0  0  0
  159.7240  212.5780  154.2430 C   0  0  1  0  0  3  0  0  0  0  0  0
  157.1630  214.4530  152.3900 N   0  0  0  0  0  2  0  0  0  0  0  0
  160.4560  212.9400  150.4680 O   0  0  0  0  0  0  0  0  0  0  0  0
  159.7080  208.5460  156.8850 C   0  0  0  0  0  2  0  0  0  0  0  0
  160.0640  209.1760  155.5740 C   0  0  0  0  0  0  0  0  0  0  0  0
  159.9040  212.1960  151.3260 C   0  0  0  0  0  0  0  0  0  0  0  0
  162.0020  207.9460  149.9490 C   0  0  0  0  0  2  0  0  0  0  0  0
  160.4810  206.2390  148.9690 C   0  0  0  0  0  1  0  0  0  0  0  0
  161.3690  206.5800  150.1500 C   0  0  0  0  0  2  0  0  0  0  0  0
  1  5  1  6  0  0  0
  1 19  1  0  0  0  0
  2 13  1  0  0  0  0
  4 12  1  6  0  0  0
  4  1  1  0  0  0  0
  4 20  1  0  0  0  0
  7 15  1  6  0  0  0
  7  9  1  0  0  0  0
  8  6  1  1  0  0  0
  8 11  1  0  0  0  0
  8 12  1  0  0  0  0
  9 14  1  6  0  0  0
  9 22  1  0  0  0  0
 10 21  2  0  0  0  0
 10  3  1  0  0  0  0
 11 28  1  6  0  0  0
 11  5  1  0  0  0  0
 13 18  2  0  0  0  0
 15 23  1  0  0  0  0
 16  2  2  0  0  0  0
 17 26  2  0  0  0  0
 17  3  1  0  0  0  0
 19  2  1  1  0  0  0
 19 26  1  0  0  0  0
 20 22  1  0  0  0  0
 20 17  1  1  0  0  0
 22 10  1  1  0  0  0
 23 14  1  0  0  0  0
 24 27  2  0  0  0  0
 25 18  1  0  0  0  0
 26 25  1  0  0  0  0
 27 12  1  0  0  0  0
 27  7  1  0  0  0  0
 28 30  1  0  0  0  0
 29 30  1  0  0  0  0
M  END
>  <MODEL>
5

>  <REMARK>
 VINA RESULT:      -5.2      2.988      5.567
  Name = 
  2 active torsions:
  status: ('A' for Active; 'I' for Inactive)
    1  A    between atoms: C_11  and  C_28
    2  A    between atoms: C_28  and  C_30
                            x       y       z     vdW  Elec       q    Type
                         _______ _______ _______ _____ _____    ______ ____

>  <TORSDO>
F 2

$$$$
=
 OpenBabel11122412423D

 30 35  0  0  1  0  0  0  0  0999 V2000
  161.6000  207.8890  149.7370 C   0  0  2  0  0  3  0  0  0  0  0  0
  161.4660  206.1260  147.9070 C   0  0  0  0  0  0  0  0  0  0  0  0
  161.1060  204.8530  152.5880 O   0  0  0  0  0  0  0  0  0  0  0  0
  161.1760  208.1800  151.1730 C   0  0  2  0  0  3  0  0  0  0  0  0
  161.2910  209.0010  148.9530 O   0  0  0  0  0  0  0  0  0  0  0  0
  163.6060  210.7040  151.0800 O   0  0  0  0  0  1  0  0  0  0  0  0
  160.1760  209.3410  153.6850 C   0  0  1  0  0  3  0  0  0  0  0  0
  162.3010  210.4330  150.6650 C   0  0  1  0  0  3  0  0  0  0  0  0
  160.1570  207.8240  153.9050 C   0  0  2  0  0  3  0  0  0  0  0  0
  161.2450  205.5740  153.7610 C   0  0  0  0  0  0  0  0  0  0  0  0
  162.3300  209.9110  149.2090 C   0  0  2  0  0  3  0  0  0  0  0  0
  161.6670  209.4900  151.6070 N   0  0  0  0  0  0  0  0  0  0  0  0
  161.5850  204.6840  147.6190 C   0  0  0  0  0  3  0  0  0  0  0  0
  159.8250  207.6650  155.3810 C   0  0  0  0  0  2  0  0  0  0  0  0
  159.9700  209.9490  155.0560 C   0  0  0  0  0  2  0  0  0  0  0  0
  161.7680  206.9560  147.0090 O   0  0  0  0  0  0  0  0  0  0  0  0
  161.2760  205.7370  151.5440 C   0  0  0  0  0  0  0  0  0  0  0  0
  161.2030  203.7560  148.5020 C   0  0  0  0  0  3  0  0  0  0  0  0
  160.9220  206.5990  149.2340 C   0  0  1  0  0  3  0  0  0  0  0  0
  161.7580  207.0640  152.0280 C   0  0  2  0  0  3  0  0  0  0  0  0
  161.2140  205.0300  154.8970 O   0  0  0  0  0  0  0  0  0  0  0  0
  161.4440  207.0500  153.5410 C   0  0  1  0  0  3  0  0  0  0  0  0
  159.3290  208.9380  155.8800 N   0  0  0  0  0  2  0  0  0  0  0  0
  162.0210  210.8680  153.4600 O   0  0  0  0  0  0  0  0  0  0  0  0
  160.5750  204.1060  149.8250 C   0  0  0  0  0  2  0  0  0  0  0  0
  161.0000  205.4750  150.2580 C   0  0  0  0  0  0  0  0  0  0  0  0
  161.3520  209.9340  152.9380 C   0  0  0  0  0  0  0  0  0  0  0  0
  162.2380  211.0610  148.2150 C   0  0  0  0  0  2  0  0  0  0  0  0
  162.1290  213.5460  148.2600 C   0  0  0  0  0  1  0  0  0  0  0  0
  161.5440  212.2670  148.8260 C   0  0  0  0  0  2  0  0  0  0  0  0
  1  5  1  6  0  0  0
  1  4  1  0  0  0  0
  3 10  1  0  0  0  0
  4 12  1  1  0  0  0
  4 20  1  0  0  0  0
  5 11  1  0  0  0  0
  7  9  1  0  0  0  0
  7 15  1  1  0  0  0
  8  6  1  1  0  0  0
  8 12  1  0  0  0  0
  9 14  1  1  0  0  0
 10 21  2  0  0  0  0
 11 28  1  6  0  0  0
 11  8  1  0  0  0  0
 12 27  1  0  0  0  0
 13  2  1  0  0  0  0
 13 18  2  0  0  0  0
 14 23  1  0  0  0  0
 15 23  1  0  0  0  0
 16  2  2  0  0  0  0
 17  3  1  0  0  0  0
 18 25  1  0  0  0  0
 19  2  1  6  0  0  0
 19  1  1  0  0  0  0
 19 26  1  0  0  0  0
 20 17  1  6  0  0  0
 20 22  1  0  0  0  0
 22 10  1  6  0  0  0
 22  9  1  0  0  0  0
 25 26  1  0  0  0  0
 26 17  2  0  0  0  0
 27 24  2  0  0  0  0
 27  7  1  0  0  0  0
 28 30  1  0  0  0  0
 29 30  1  0  0  0  0
M  END
>  <MODEL>
6

>  <REMARK>
 VINA RESULT:      -5.2      1.978      3.500
  Name = 
  2 active torsions:
  status: ('A' for Active; 'I' for Inactive)
    1  A    between atoms: C_11  and  C_28
    2  A    between atoms: C_28  and  C_30
                            x       y       z     vdW  Elec       q    Type
                         _______ _______ _______ _____ _____    ______ ____

>  <TORSDO>
F 2

$$$$
=
 OpenBabel11122412423D

 30 35  0  0  1  0  0  0  0  0999 V2000
  161.3880  207.9670  151.3010 C   0  0  2  0  0  3  0  0  0  0  0  0
  161.4410  210.4490  150.7440 C   0  0  0  0  0  0  0  0  0  0  0  0
  162.5250  207.1380  147.3490 O   0  0  0  0  0  0  0  0  0  0  0  0
  161.2100  206.5880  150.6730 C   0  0  2  0  0  3  0  0  0  0  0  0
  160.5740  208.0430  152.4330 O   0  0  0  0  0  0  0  0  0  0  0  0
  162.6140  205.3670  153.6430 O   0  0  0  0  0  1  0  0  0  0  0  0
  160.4510  203.8290  149.9870 C   0  0  1  0  0  3  0  0  0  0  0  0
  161.4090  205.8460  153.1240 C   0  0  1  0  0  3  0  0  0  0  0  0
  160.9720  204.4410  148.6820 C   0  0  2  0  0  3  0  0  0  0  0  0
  162.6720  205.7630  147.4050 C   0  0  0  0  0  0  0  0  0  0  0  0
  161.2930  207.3590  153.4270 C   0  0  2  0  0  3  0  0  0  0  0  0
  161.3320  205.5340  151.6840 N   0  0  0  0  0  0  0  0  0  0  0  0
  161.9560  211.4560  149.7970 C   0  0  0  0  0  3  0  0  0  0  0  0
  161.0350  203.2670  147.7170 C   0  0  0  0  0  2  0  0  0  0  0  0
  160.3590  202.3400  149.7250 C   0  0  0  0  0  2  0  0  0  0  0  0
  161.2590  210.7790  151.9470 O   0  0  0  0  0  0  0  0  0  0  0  0
  162.1720  207.5620  148.6140 C   0  0  0  0  0  0  0  0  0  0  0  0
  162.0930  211.1900  148.4930 C   0  0  0  0  0  3  0  0  0  0  0  0
  161.0720  209.0650  150.2660 C   0  0  1  0  0  3  0  0  0  0  0  0
  162.2910  206.4560  149.6100 C   0  0  2  0  0  3  0  0  0  0  0  0
  163.0630  205.0850  146.4180 O   0  0  0  0  0  0  0  0  0  0  0  0
  162.3310  205.1740  148.7480 C   0  0  1  0  0  3  0  0  0  0  0  0
  160.2720  202.1650  148.2850 N   0  0  0  0  0  2  0  0  0  0  0  0
  161.6100  203.2380  152.0110 O   0  0  0  0  0  0  0  0  0  0  0  0
  161.6850  209.8730  147.8880 C   0  0  0  0  0  2  0  0  0  0  0  0
  161.7270  208.7890  148.9190 C   0  0  0  0  0  0  0  0  0  0  0  0
  161.1840  204.1660  151.2690 C   0  0  0  0  0  0  0  0  0  0  0  0
  160.6230  207.5960  154.7730 C   0  0  0  0  0  2  0  0  0  0  0  0
  161.5810  209.8080  155.3900 C   0  0  0  0  0  1  0  0  0  0  0  0
  160.3190  209.0690  154.9900 C   0  0  0  0  0  2  0  0  0  0  0  0
  1  5  1  1  0  0  0
  2 16  2  0  0  0  0
  3 10  1  0  0  0  0
  3 17  1  0  0  0  0
  4  1  1  0  0  0  0
  4 12  1  1  0  0  0
  5 11  1  0  0  0  0
  7 15  1  6  0  0  0
  7 27  1  0  0  0  0
  8 11  1  0  0  0  0
  8  6  1  6  0  0  0
  9 14  1  6  0  0  0
  9 22  1  0  0  0  0
  9  7  1  0  0  0  0
 11 28  1  1  0  0  0
 12  8  1  0  0  0  0
 13  2  1  0  0  0  0
 14 23  1  0  0  0  0
 17 26  2  0  0  0  0
 18 13  2  0  0  0  0
 19 26  1  6  0  0  0
 19  2  1  0  0  0  0
 19  1  1  0  0  0  0
 20 17  1  6  0  0  0
 20  4  1  0  0  0  0
 21 10  2  0  0  0  0
 22 10  1  6  0  0  0
 22 20  1  0  0  0  0
 23 15  1  0  0  0  0
 25 18  1  0  0  0  0
 25 26  1  0  0  0  0
 27 12  1  0  0  0  0
 27 24  2  0  0  0  0
 28 30  1  0  0  0  0
 30 29  1  0  0  0  0
M  END
>  <MODEL>
7

>  <REMARK>
 VINA RESULT:      -5.1      2.051      7.092
  Name = 
  2 active torsions:
  status: ('A' for Active; 'I' for Inactive)
    1  A    between atoms: C_11  and  C_28
    2  A    between atoms: C_28  and  C_30
                            x       y       z     vdW  Elec       q    Type
                         _______ _______ _______ _____ _____    ______ ____

>  <TORSDO>
F 2

$$$$
=
 OpenBabel11122412423D

 30 35  0  0  1  0  0  0  0  0999 V2000
  161.3630  207.4810  150.8940 C   0  0  2  0  0  3  0  0  0  0  0  0
  161.3920  205.1510  149.8730 C   0  0  0  0  0  0  0  0  0  0  0  0
  160.8400  205.7340  154.6710 O   0  0  0  0  0  0  0  0  0  0  0  0
  160.8540  208.2720  152.0950 C   0  0  2  0  0  3  0  0  0  0  0  0
  161.0520  208.1940  149.7350 O   0  0  0  0  0  0  0  0  0  0  0  0
  163.1870  210.7020  151.1260 O   0  0  0  0  0  1  0  0  0  0  0  0
  159.6820  210.2430  153.9390 C   0  0  1  0  0  3  0  0  0  0  0  0
  161.9170  210.2220  150.8030 C   0  0  1  0  0  3  0  0  0  0  0  0
  159.7100  208.9250  154.7210 C   0  0  2  0  0  3  0  0  0  0  0  0
  160.8900  206.8530  155.4840 C   0  0  0  0  0  0  0  0  0  0  0  0
  162.0410  209.1880  149.6580 C   0  0  2  0  0  3  0  0  0  0  0  0
  161.2720  209.6750  152.0120 N   0  0  0  0  0  0  0  0  0  0  0  0
  161.5810  203.7170  150.1610 C   0  0  0  0  0  3  0  0  0  0  0  0
  159.3090  209.3210  156.1340 C   0  0  0  0  0  2  0  0  0  0  0  0
  159.3820  211.3150  154.9660 C   0  0  0  0  0  2  0  0  0  0  0  0
  161.7080  205.5930  148.7360 O   0  0  0  0  0  0  0  0  0  0  0  0
  161.0300  206.1630  153.3740 C   0  0  0  0  0  0  0  0  0  0  0  0
  161.1900  203.1740  151.3200 C   0  0  0  0  0  3  0  0  0  0  0  0
  160.7620  206.0620  150.9000 C   0  0  1  0  0  3  0  0  0  0  0  0
  161.4340  207.6000  153.3310 C   0  0  2  0  0  3  0  0  0  0  0  0
  160.8210  206.7800  156.7390 O   0  0  0  0  0  0  0  0  0  0  0  0
  161.0430  208.1440  154.7230 C   0  0  1  0  0  3  0  0  0  0  0  0
  158.7380  210.6590  156.0920 N   0  0  0  0  0  2  0  0  0  0  0  0
  161.4760  211.6700  153.2090 O   0  0  0  0  0  0  0  0  0  0  0  0
  160.4820  203.9650  152.3870 C   0  0  0  0  0  2  0  0  0  0  0  0
  160.8310  205.4170  152.2780 C   0  0  0  0  0  0  0  0  0  0  0  0
  160.8710  210.5720  153.0610 C   0  0  0  0  0  0  0  0  0  0  0  0
  161.9560  209.8680  148.2990 C   0  0  0  0  0  2  0  0  0  0  0  0
  162.7670  212.1840  147.8860 C   0  0  0  0  0  1  0  0  0  0  0  0
  161.6300  211.3450  148.4360 C   0  0  0  0  0  2  0  0  0  0  0  0
  1  5  1  6  0  0  0
  1 19  1  0  0  0  0
  1  4  1  0  0  0  0
  2 13  1  0  0  0  0
  3 10  1  0  0  0  0
  4 12  1  6  0  0  0
  4 20  1  0  0  0  0
  7  9  1  0  0  0  0
  7 15  1  1  0  0  0
  8  6  1  1  0  0  0
  8 12  1  0  0  0  0
  9 22  1  0  0  0  0
  9 14  1  1  0  0  0
 10 21  2  0  0  0  0
 11 28  1  6  0  0  0
 11  5  1  0  0  0  0
 11  8  1  0  0  0  0
 12 27  1  0  0  0  0
 13 18  2  0  0  0  0
 15 23  1  0  0  0  0
 16  2  2  0  0  0  0
 17  3  1  0  0  0  0
 18 25  1  0  0  0  0
 19  2  1  6  0  0  0
 19 26  1  0  0  0  0
 20 17  1  1  0  0  0
 20 22  1  0  0  0  0
 22 10  1  1  0  0  0
 23 14  1  0  0  0  0
 26 25  1  0  0  0  0
 26 17  2  0  0  0  0
 27 24  2  0  0  0  0
 27  7  1  0  0  0  0
 28 30  1  0  0  0  0
 29 30  1  0  0  0  0
M  END
>  <MODEL>
8

>  <REMARK>
 VINA RESULT:      -5.0      2.027      3.107
  Name = 
  2 active torsions:
  status: ('A' for Active; 'I' for Inactive)
    1  A    between atoms: C_11  and  C_28
    2  A    between atoms: C_28  and  C_30
                            x       y       z     vdW  Elec       q    Type
                         _______ _______ _______ _____ _____    ______ ____

>  <TORSDO>
F 2

$$$$
=
 OpenBabel11122412423D

 30 35  0  0  1  0  0  0  0  0999 V2000
  161.4760  206.6900  150.7110 C   0  0  2  0  0  3  0  0  0  0  0  0
  161.5620  209.2330  150.7080 C   0  0  0  0  0  0  0  0  0  0  0  0
  162.5140  206.7310  146.6470 O   0  0  0  0  0  0  0  0  0  0  0  0
  161.2610  205.4840  149.8010 C   0  0  2  0  0  3  0  0  0  0  0  0
  160.6890  206.5260  151.8520 O   0  0  0  0  0  0  0  0  0  0  0  0
  162.7070  203.6250  152.3980 O   0  0  0  0  0  1  0  0  0  0  0  0
  160.4390  202.9510  148.5490 C   0  0  1  0  0  3  0  0  0  0  0  0
  161.5000  204.2210  152.0260 C   0  0  1  0  0  3  0  0  0  0  0  0
  160.9430  203.8270  147.3960 C   0  0  2  0  0  3  0  0  0  0  0  0
  162.6370  205.3760  146.3970 C   0  0  0  0  0  0  0  0  0  0  0  0
  161.4170  205.6330  152.6550 C   0  0  2  0  0  3  0  0  0  0  0  0
  161.3860  204.2330  150.5550 N   0  0  0  0  0  0  0  0  0  0  0  0
  162.0730  210.4160  149.9910 C   0  0  0  0  0  3  0  0  0  0  0  0
  160.9630  202.8920  146.1970 C   0  0  0  0  0  2  0  0  0  0  0  0
  160.3150  201.5570  147.9700 C   0  0  0  0  0  2  0  0  0  0  0  0
  161.4110  209.2940  151.9580 O   0  0  0  0  0  0  0  0  0  0  0  0
  162.1960  206.8720  147.9810 C   0  0  0  0  0  0  0  0  0  0  0  0
  162.1780  210.4390  148.6580 C   0  0  0  0  0  3  0  0  0  0  0  0
  161.1580  207.9920  149.9490 C   0  0  1  0  0  3  0  0  0  0  0  0
  162.3160  205.5740  148.7090 C   0  0  2  0  0  3  0  0  0  0  0  0
  162.9940  204.9250  145.2760 O   0  0  0  0  0  0  0  0  0  0  0  0
  162.3150  204.5110  147.5870 C   0  0  1  0  0  3  0  0  0  0  0  0
  160.1930  201.7020  146.5290 N   0  0  0  0  0  2  0  0  0  0  0  0
  161.6310  201.9180  150.3660 O   0  0  0  0  0  0  0  0  0  0  0  0
  161.7340  209.2920  147.7900 C   0  0  0  0  0  2  0  0  0  0  0  0
  161.7790  208.0080  148.5590 C   0  0  0  0  0  0  0  0  0  0  0  0
  161.2050  202.9910  149.8550 C   0  0  0  0  0  0  0  0  0  0  0  0
  160.7810  205.5780  154.0360 C   0  0  0  0  0  2  0  0  0  0  0  0
  159.8590  206.9180  155.9200 C   0  0  0  0  0  1  0  0  0  0  0  0
  160.7310  206.9540  154.6790 C   0  0  0  0  0  2  0  0  0  0  0  0
  1  5  1  1  0  0  0
  2 16  2  0  0  0  0
  3 17  1  0  0  0  0
  4 12  1  1  0  0  0
  4  1  1  0  0  0  0
  5 11  1  0  0  0  0
  7 15  1  6  0  0  0
  7 27  1  0  0  0  0
  8  6  1  6  0  0  0
  8 11  1  0  0  0  0
  9 14  1  6  0  0  0
  9 22  1  0  0  0  0
  9  7  1  0  0  0  0
 10  3  1  0  0  0  0
 11 28  1  1  0  0  0
 12  8  1  0  0  0  0
 13  2  1  0  0  0  0
 14 23  1  0  0  0  0
 17 26  2  0  0  0  0
 18 13  2  0  0  0  0
 19 26  1  6  0  0  0
 19  2  1  0  0  0  0
 19  1  1  0  0  0  0
 20 17  1  6  0  0  0
 20  4  1  0  0  0  0
 21 10  2  0  0  0  0
 22 10  1  6  0  0  0
 22 20  1  0  0  0  0
 23 15  1  0  0  0  0
 25 26  1  0  0  0  0
 25 18  1  0  0  0  0
 27 24  2  0  0  0  0
 27 12  1  0  0  0  0
 28 30  1  0  0  0  0
 30 29  1  0  0  0  0
M  END
>  <MODEL>
9

>  <REMARK>
 VINA RESULT:      -4.9      2.278      7.254
  Name = 
  2 active torsions:
  status: ('A' for Active; 'I' for Inactive)
    1  A    between atoms: C_11  and  C_28
    2  A    between atoms: C_28  and  C_30
                            x       y       z     vdW  Elec       q    Type
                         _______ _______ _______ _____ _____    ______ ____

>  <TORSDO>
F 2

$$$$
