=
 OpenBabel11122412383D

 30 35  0  0  1  0  0  0  0  0999 V2000
  160.9410  205.7690  149.9090 C   0  0  2  0  0  3  0  0  0  0  0  0
  161.0660  203.3080  149.7580 C   0  0  0  0  0  0  0  0  0  0  0  0
  161.0430  205.5880  154.1020 N   0  0  0  0  0  0  0  0  0  0  0  0
  160.6900  207.0310  150.7350 C   0  0  2  0  0  3  0  0  0  0  0  0
  161.0160  205.9270  148.4850 N   0  0  0  0  0  0  0  0  0  0  0  0
  161.8420  209.3450  148.1600 O   0  0  0  0  0  0  0  0  0  0  0  0
  160.4570  209.7840  151.8110 C   0  0  1  0  0  3  0  0  0  0  0  0
  161.5060  208.2660  148.7190 C   0  0  0  0  0  0  0  0  0  0  0  0
  160.2700  209.0150  153.1280 C   0  0  2  0  0  3  0  0  0  0  0  0
  160.9170  206.8530  154.3650 C   0  0  2  0  0  3  0  0  0  0  0  0
  161.2550  207.0670  147.9070 C   0  0  0  0  0  0  0  0  0  0  0  0
  161.3770  208.1900  150.1480 N   0  0  0  0  0  0  0  0  0  0  0  0
  161.1110  202.0800  150.4240 C   0  0  0  0  0  3  0  0  0  0  0  0
  160.7790  209.9530  154.2030 C   0  0  0  0  0  2  0  0  0  0  0  0
  160.5570  211.2560  152.1800 C   0  0  0  0  0  2  0  0  0  0  0  0
  161.0140  203.1750  148.0020 Cl  0  0  0  0  0  0  0  0  0  0  0  0
  161.1240  205.5350  152.6810 C   0  0  0  0  0  0  0  0  0  0  0  0
  161.1290  202.0130  151.8110 C   0  0  0  0  0  3  0  0  0  0  0  0
  161.0250  204.5310  150.5010 C   0  0  0  0  0  0  0  0  0  0  0  0
  161.0940  206.8220  152.1180 N   0  0  0  0  0  0  0  0  0  0  0  0
  160.7390  207.3450  155.7600 C   0  0  0  0  0  1  0  0  0  0  0  0
  160.9220  207.6980  153.1990 N   0  0  1  0  0  0  0  0  0  0  0  0
  160.4640  211.3390  153.6920 C   0  0  0  0  0  2  0  0  0  0  0  0
  162.9830  209.2810  151.6770 C   0  0  0  0  0  1  0  0  0  0  0  0
  161.1160  203.1820  152.5580 C   0  0  0  0  0  3  0  0  0  0  0  0
  161.0800  204.4320  151.9300 C   0  0  0  0  0  0  0  0  0  0  0  0
  161.6540  209.3880  150.9370 C   0  0  2  0  0  3  0  0  0  0  0  0
  161.3030  207.1620  146.5130 O   0  0  0  0  0  0  0  0  0  0  0  0
  161.4930  205.4200  144.8790 C   0  0  0  0  0  1  0  0  0  0  0  0
  160.5500  206.3040  145.6680 C   0  0  0  0  0  2  0  0  0  0  0  0
  1  5  1  6  0  0  0
  1 19  1  0  0  0  0
  1  4  1  0  0  0  0
  2 13  2  0  0  0  0
  2 19  1  0  0  0  0
  3 10  1  0  0  0  0
  4 12  1  6  0  0  0
  4 20  1  0  0  0  0
  6  8  2  0  0  0  0
  7 15  1  1  0  0  0
  7  9  1  0  0  0  0
  8 12  1  0  0  0  0
  9 22  1  0  0  0  0
  9 14  1  1  0  0  0
 10 21  1  6  0  0  0
 11  5  2  0  0  0  0
 11  8  1  0  0  0  0
 12 27  1  0  0  0  0
 13 18  1  0  0  0  0
 15 23  1  0  0  0  0
 16  2  1  0  0  0  0
 17  3  2  0  0  0  0
 18 25  2  0  0  0  0
 19 26  2  0  0  0  0
 20 17  1  0  0  0  0
 22 20  1  6  0  0  0
 22 10  1  0  0  0  0
 23 14  1  0  0  0  0
 26 25  1  0  0  0  0
 26 17  1  0  0  0  0
 27 24  1  1  0  0  0
 27  7  1  0  0  0  0
 28 11  1  0  0  0  0
 29 30  1  0  0  0  0
 30 28  1  0  0  0  0
M  END
>  <MODEL>
1

>  <REMARK>
 VINA RESULT:      -8.1      0.000      0.000
  Name = 
  2 active torsions:
  status: ('A' for Active; 'I' for Inactive)
    1  A    between atoms: C_11  and  O_28
    2  A    between atoms: O_28  and  C_30
                            x       y       z     vdW  Elec       q    Type
                         _______ _______ _______ _____ _____    ______ ____

>  <TORSDO>
F 2

$$$$
=
 OpenBabel11122412383D

 30 35  0  0  1  0  0  0  0  0999 V2000
  161.7730  208.3460  151.3440 C   0  0  2  0  0  3  0  0  0  0  0  0
  161.3910  208.8070  153.7380 C   0  0  0  0  0  0  0  0  0  0  0  0
  160.7920  204.3010  151.8930 N   0  0  0  0  0  0  0  0  0  0  0  0
  161.9960  207.3440  150.2100 C   0  0  2  0  0  3  0  0  0  0  0  0
  162.0100  209.7290  151.0460 N   0  0  0  0  0  0  0  0  0  0  0  0
  161.6790  209.8010  147.5310 O   0  0  0  0  0  0  0  0  0  0  0  0
  162.3280  205.9260  147.6270 C   0  0  1  0  0  3  0  0  0  0  0  0
  161.7640  209.3190  148.6940 C   0  0  0  0  0  0  0  0  0  0  0  0
  162.1490  204.6980  148.5320 C   0  0  2  0  0  3  0  0  0  0  0  0
  161.0100  203.8720  150.6880 C   0  0  2  0  0  3  0  0  0  0  0  0
  162.0320  210.2040  149.8360 C   0  0  0  0  0  0  0  0  0  0  0  0
  161.5870  207.9110  148.9170 N   0  0  0  0  0  0  0  0  0  0  0  0
  161.0660  208.3120  155.0040 C   0  0  0  0  0  3  0  0  0  0  0  0
  161.5440  203.6370  147.6350 C   0  0  0  0  0  2  0  0  0  0  0  0
  162.3290  205.4120  146.1960 C   0  0  0  0  0  2  0  0  0  0  0  0
  161.7860  210.5250  153.7160 Cl  0  0  0  0  0  0  0  0  0  0  0  0
  160.9990  205.7080  151.8030 C   0  0  0  0  0  0  0  0  0  0  0  0
  160.7550  206.9720  155.1950 C   0  0  0  0  0  3  0  0  0  0  0  0
  161.4230  207.9310  152.6070 C   0  0  0  0  0  0  0  0  0  0  0  0
  161.2950  206.0980  150.4870 N   0  0  0  0  0  0  0  0  0  0  0  0
  160.9550  202.4200  150.3560 C   0  0  0  0  0  1  0  0  0  0  0  0
  161.3440  204.9090  149.7470 N   0  0  1  0  0  0  0  0  0  0  0  0
  162.1190  203.9110  146.2660 C   0  0  0  0  0  2  0  0  0  0  0  0
  159.8420  206.6000  147.7580 C   0  0  0  0  0  1  0  0  0  0  0  0
  160.7530  206.1040  154.1130 C   0  0  0  0  0  3  0  0  0  0  0  0
  161.0650  206.5610  152.8280 C   0  0  0  0  0  0  0  0  0  0  0  0
  161.2980  207.0540  147.7700 C   0  0  2  0  0  3  0  0  0  0  0  0
  162.2830  211.5600  149.6070 O   0  0  0  0  0  0  0  0  0  0  0  0
  161.6260  213.4320  148.2630 C   0  0  0  0  0  1  0  0  0  0  0  0
  161.2390  212.4990  149.3910 C   0  0  0  0  0  2  0  0  0  0  0  0
  1  5  1  1  0  0  0
  1 19  1  0  0  0  0
  2 13  1  0  0  0  0
  4 12  1  6  0  0  0
  4 20  1  0  0  0  0
  4  1  1  0  0  0  0
  6  8  2  0  0  0  0
  7 15  1  6  0  0  0
  7 27  1  0  0  0  0
  7  9  1  0  0  0  0
  8 12  1  0  0  0  0
  8 11  1  0  0  0  0
  9 14  1  6  0  0  0
  9 22  1  0  0  0  0
 10 21  1  1  0  0  0
 10  3  1  0  0  0  0
 11  5  2  0  0  0  0
 13 18  2  0  0  0  0
 15 23  1  0  0  0  0
 16  2  1  0  0  0  0
 17  3  2  0  0  0  0
 17 26  1  0  0  0  0
 19 26  1  0  0  0  0
 19  2  2  0  0  0  0
 20 17  1  0  0  0  0
 22 20  1  1  0  0  0
 22 10  1  0  0  0  0
 23 14  1  0  0  0  0
 25 18  1  0  0  0  0
 26 25  2  0  0  0  0
 27 24  1  1  0  0  0
 27 12  1  0  0  0  0
 28 11  1  0  0  0  0
 29 30  1  0  0  0  0
 30 28  1  0  0  0  0
M  END
>  <MODEL>
2

>  <REMARK>
 VINA RESULT:      -7.6      2.457      5.700
  Name = 
  2 active torsions:
  status: ('A' for Active; 'I' for Inactive)
    1  A    between atoms: C_11  and  O_28
    2  A    between atoms: O_28  and  C_30
                            x       y       z     vdW  Elec       q    Type
                         _______ _______ _______ _____ _____    ______ ____

>  <TORSDO>
F 2

$$$$
=
 OpenBabel11122412383D

 30 35  0  0  1  0  0  0  0  0999 V2000
  161.0760  208.2710  151.4990 C   0  0  2  0  0  3  0  0  0  0  0  0
  161.5220  210.6210  150.8900 C   0  0  0  0  0  0  0  0  0  0  0  0
  162.1130  206.9970  147.6360 N   0  0  0  0  0  0  0  0  0  0  0  0
  160.8300  206.8210  151.0810 C   0  0  2  0  0  3  0  0  0  0  0  0
  160.8150  208.6060  152.8700 N   0  0  0  0  0  0  0  0  0  0  0  0
  161.0440  205.4610  154.4590 O   0  0  0  0  0  0  0  0  0  0  0  0
  160.4370  203.8870  150.9100 C   0  0  1  0  0  3  0  0  0  0  0  0
  160.9980  206.3020  153.5210 C   0  0  0  0  0  0  0  0  0  0  0  0
  160.6560  204.1680  149.4150 C   0  0  2  0  0  3  0  0  0  0  0  0
  161.8640  205.7300  147.7640 C   0  0  2  0  0  3  0  0  0  0  0  0
  160.7540  207.7200  153.8200 C   0  0  0  0  0  0  0  0  0  0  0  0
  161.1960  205.8920  152.1590 N   0  0  0  0  0  0  0  0  0  0  0  0
  161.8890  211.5410  149.9040 C   0  0  0  0  0  3  0  0  0  0  0  0
  161.2440  202.8880  148.8590 C   0  0  0  0  0  2  0  0  0  0  0  0
  160.4000  202.3750  151.0640 C   0  0  0  0  0  2  0  0  0  0  0  0
  161.1090  211.3520  152.4390 Cl  0  0  0  0  0  0  0  0  0  0  0  0
  161.8900  207.5290  148.9380 C   0  0  0  0  0  0  0  0  0  0  0  0
  162.2190  211.1280  148.6200 C   0  0  0  0  0  3  0  0  0  0  0  0
  161.4660  209.2230  150.5880 C   0  0  0  0  0  0  0  0  0  0  0  0
  161.5510  206.5170  149.8530 N   0  0  0  0  0  0  0  0  0  0  0  0
  161.9250  204.8020  146.6000 C   0  0  0  0  0  1  0  0  0  0  0  0
  161.4920  205.3370  149.0980 N   0  0  1  0  0  0  0  0  0  0  0  0
  160.6270  201.7850  149.6850 C   0  0  0  0  0  2  0  0  0  0  0  0
  162.9190  204.2420  151.5140 C   0  0  0  0  0  1  0  0  0  0  0  0
  162.1980  209.7770  148.3040 C   0  0  0  0  0  3  0  0  0  0  0  0
  161.8440  208.8230  149.2640 C   0  0  0  0  0  0  0  0  0  0  0  0
  161.4600  204.4810  151.8870 C   0  0  2  0  0  3  0  0  0  0  0  0
  160.4820  208.1050  155.1360 O   0  0  0  0  0  0  0  0  0  0  0  0
  161.9900  208.7070  156.8990 C   0  0  0  0  0  1  0  0  0  0  0  0
  161.1340  209.2060  155.7540 C   0  0  0  0  0  2  0  0  0  0  0  0
  1 19  1  6  0  0  0
  1  5  1  0  0  0  0
  2 16  1  0  0  0  0
  3 10  1  0  0  0  0
  3 17  2  0  0  0  0
  4 20  1  6  0  0  0
  4  1  1  0  0  0  0
  4 12  1  0  0  0  0
  5 11  2  0  0  0  0
  7 15  1  6  0  0  0
  7 27  1  0  0  0  0
  8 11  1  0  0  0  0
  8  6  2  0  0  0  0
  9 14  1  1  0  0  0
  9  7  1  0  0  0  0
 10 21  1  6  0  0  0
 10 22  1  0  0  0  0
 11 28  1  0  0  0  0
 12  8  1  0  0  0  0
 13  2  2  0  0  0  0
 14 23  1  0  0  0  0
 17 26  1  0  0  0  0
 17 20  1  0  0  0  0
 18 13  1  0  0  0  0
 19  2  1  0  0  0  0
 22  9  1  0  0  0  0
 22 20  1  6  0  0  0
 23 15  1  0  0  0  0
 25 18  2  0  0  0  0
 25 26  1  0  0  0  0
 26 19  2  0  0  0  0
 27 24  1  6  0  0  0
 27 12  1  0  0  0  0
 28 30  1  0  0  0  0
 30 29  1  0  0  0  0
M  END
>  <MODEL>
3

>  <REMARK>
 VINA RESULT:      -6.8      2.969      7.216
  Name = 
  2 active torsions:
  status: ('A' for Active; 'I' for Inactive)
    1  A    between atoms: C_11  and  O_28
    2  A    between atoms: O_28  and  C_30
                            x       y       z     vdW  Elec       q    Type
                         _______ _______ _______ _____ _____    ______ ____

>  <TORSDO>
F 2

$$$$
=
 OpenBabel11122412383D

 30 35  0  0  1  0  0  0  0  0999 V2000
  161.2110  207.6990  150.8410 C   0  0  2  0  0  3  0  0  0  0  0  0
  161.4830  205.4570  149.8440 C   0  0  0  0  0  0  0  0  0  0  0  0
  160.7110  206.0180  154.6560 N   0  0  0  0  0  0  0  0  0  0  0  0
  160.7790  208.5800  152.0140 C   0  0  2  0  0  3  0  0  0  0  0  0
  161.4840  208.3590  149.5970 N   0  0  0  0  0  0  0  0  0  0  0  0
  162.1730  211.6600  150.6450 O   0  0  0  0  0  0  0  0  0  0  0  0
  160.2510  210.7610  153.9520 C   0  0  1  0  0  3  0  0  0  0  0  0
  161.8140  210.4540  150.7230 C   0  0  0  0  0  0  0  0  0  0  0  0
  159.9140  209.5700  154.8620 C   0  0  2  0  0  3  0  0  0  0  0  0
  160.4840  207.1040  155.3300 C   0  0  2  0  0  3  0  0  0  0  0  0
  161.7460  209.6300  149.5080 C   0  0  0  0  0  0  0  0  0  0  0  0
  161.4830  209.8690  151.9920 N   0  0  0  0  0  0  0  0  0  0  0  0
  161.4920  204.0720  150.0250 C   0  0  0  0  0  3  0  0  0  0  0  0
  160.2130  210.0550  156.2660 C   0  0  0  0  0  2  0  0  0  0  0  0
  160.2210  212.0000  154.8330 C   0  0  0  0  0  2  0  0  0  0  0  0
  161.6930  205.9660  148.1690 Cl  0  0  0  0  0  0  0  0  0  0  0  0
  161.0010  206.4810  153.3400 C   0  0  0  0  0  0  0  0  0  0  0  0
  161.3130  203.5090  151.2820 C   0  0  0  0  0  3  0  0  0  0  0  0
  161.2710  206.3310  150.9580 C   0  0  0  0  0  0  0  0  0  0  0  0
  160.9870  207.8840  153.2770 N   0  0  0  0  0  0  0  0  0  0  0  0
  160.0810  207.0610  156.7640 C   0  0  0  0  0  1  0  0  0  0  0  0
  160.6150  208.3120  154.5580 N   0  0  1  0  0  0  0  0  0  0  0  0
  159.9050  211.5330  156.2410 C   0  0  0  0  0  2  0  0  0  0  0  0
  162.7920  210.3280  154.0380 C   0  0  0  0  0  1  0  0  0  0  0  0
  161.1310  204.3310  152.3860 C   0  0  0  0  0  3  0  0  0  0  0  0
  161.1230  205.7220  152.2480 C   0  0  0  0  0  0  0  0  0  0  0  0
  161.5810  210.7010  153.1900 C   0  0  2  0  0  3  0  0  0  0  0  0
  161.9910  210.2210  148.2650 O   0  0  0  0  0  0  0  0  0  0  0  0
  162.4840  212.4410  147.5100 C   0  0  0  0  0  1  0  0  0  0  0  0
  161.3980  211.4540  147.8820 C   0  0  0  0  0  2  0  0  0  0  0  0
  1  5  1  6  0  0  0
  1 19  1  0  0  0  0
  1  4  1  0  0  0  0
  2 13  2  0  0  0  0
  2 19  1  0  0  0  0
  3 10  1  0  0  0  0
  4 12  1  1  0  0  0
  4 20  1  0  0  0  0
  6  8  2  0  0  0  0
  7 15  1  1  0  0  0
  7  9  1  0  0  0  0
  8 12  1  0  0  0  0
  9 14  1  1  0  0  0
 10 21  1  6  0  0  0
 11  5  2  0  0  0  0
 11  8  1  0  0  0  0
 12 27  1  0  0  0  0
 13 18  1  0  0  0  0
 15 23  1  0  0  0  0
 16  2  1  0  0  0  0
 17  3  2  0  0  0  0
 18 25  2  0  0  0  0
 19 26  2  0  0  0  0
 20 17  1  0  0  0  0
 22 20  1  6  0  0  0
 22  9  1  0  0  0  0
 22 10  1  0  0  0  0
 23 14  1  0  0  0  0
 26 25  1  0  0  0  0
 26 17  1  0  0  0  0
 27  7  1  0  0  0  0
 27 24  1  1  0  0  0
 28 11  1  0  0  0  0
 29 30  1  0  0  0  0
 30 28  1  0  0  0  0
M  END
>  <MODEL>
4

>  <REMARK>
 VINA RESULT:      -6.7      1.903      2.782
  Name = 
  2 active torsions:
  status: ('A' for Active; 'I' for Inactive)
    1  A    between atoms: C_11  and  O_28
    2  A    between atoms: O_28  and  C_30
                            x       y       z     vdW  Elec       q    Type
                         _______ _______ _______ _____ _____    ______ ____

>  <TORSDO>
F 2

$$$$
