=
 OpenBabel11122413023D

 32 37  0  0  1  0  0  0  0  0999 V2000
  160.7780  209.8470  152.1990 C   0  0  1  0  0  3  0  0  0  0  0  0
  160.4310  208.2710  156.8280 C   0  0  0  0  0  3  0  0  0  0  0  0
  160.4670  206.9540  156.3700 C   0  0  0  0  0  3  0  0  0  0  0  0
  161.4700  208.3120  150.3030 C   0  0  2  0  0  3  0  0  0  0  0  0
  161.4850  206.8170  149.9370 C   0  0  2  0  0  3  0  0  0  0  0  0
  160.0450  211.9160  151.6970 C   0  0  2  0  0  3  0  0  0  0  0  0
  160.6750  211.4690  154.0790 O   0  0  0  0  0  0  0  0  0  0  0  0
  161.5000  204.5600  150.6790 N   0  0  0  0  0  0  0  0  0  0  0  0
  160.6350  209.3280  155.9370 C   0  0  0  0  0  3  0  0  0  0  0  0
  161.1570  210.2050  153.6330 C   0  0  1  0  0  3  0  0  0  0  0  0
  160.8670  209.0730  154.5790 C   0  0  0  0  0  0  0  0  0  0  0  0
  161.1270  207.4210  152.6430 C   0  0  2  0  0  3  0  0  0  0  0  0
  160.1100  204.8830  150.3800 C   0  0  0  0  0  2  0  0  0  0  0  0
  159.7020  212.0370  153.2100 C   0  0  2  0  0  3  0  0  0  0  0  0
  160.0810  206.2770  149.7730 C   0  0  0  0  0  2  0  0  0  0  0  0
  160.7180  206.6880  155.0210 C   0  0  0  0  0  3  0  0  0  0  0  0
  160.9500  207.7360  154.1190 C   0  0  0  0  0  0  0  0  0  0  0  0
  162.1300  206.3050  152.4010 C   0  0  0  0  0  2  0  0  0  0  0  0
  161.0510  210.9650  151.4070 O   0  0  0  0  0  0  0  0  0  0  0  0
  162.4940  208.9670  149.6190 O   0  0  0  0  0  1  0  0  0  0  0  0
  161.5360  203.6570  151.8260 C   0  0  0  0  0  1  0  0  0  0  0  0
  161.5810  208.6170  151.8010 C   0  0  2  0  0  3  0  0  0  0  0  0
  162.1660  205.8490  150.9160 C   0  0  2  0  0  3  0  0  0  0  0  0
  158.0780  211.4370  154.9950 C   0  0  0  0  0  2  0  0  0  0  0  0
  158.3220  211.4650  153.5000 C   0  0  1  0  0  3  0  0  0  0  0  0
  157.4660  212.5340  154.1490 C   0  0  1  0  0  3  0  0  0  0  0  0
  156.0070  212.2200  153.8890 C   0  0  0  0  0  2  0  0  0  0  0  0
  155.1840  213.4470  154.0720 C   0  0  0  0  0  0  0  0  0  0  0  0
  154.4580  213.8660  153.1330 O   0  0  0  0  0  0  0  0  0  0  0  0
  155.1870  214.1100  155.2930 O   0  0  0  0  0  1  0  0  0  0  0  0
  160.4550  213.2560  149.7700 O   0  0  0  0  0  1  0  0  0  0  0  0
  160.4550  213.2750  151.1650 C   0  0  0  0  0  2  0  0  0  0  0  0
  1 19  1  6  0  0  0
  1 10  1  0  0  0  0
  3  2  1  0  0  0  0
  4 20  1  6  0  0  0
  4 22  1  0  0  0  0
  5 15  1  1  0  0  0
  5  4  1  0  0  0  0
  5 23  1  0  0  0  0
  6 32  1  1  0  0  0
  6 14  1  0  0  0  0
  8 23  1  0  0  0  0
  8 21  1  0  0  0  0
  9  2  2  0  0  0  0
 10  7  1  1  0  0  0
 10 11  1  0  0  0  0
 11  9  1  0  0  0  0
 12 18  1  1  0  0  0
 12 17  1  0  0  0  0
 13  8  1  0  0  0  0
 14 25  1  0  0  0  0
 14  7  1  1  0  0  0
 15 13  1  0  0  0  0
 16  3  2  0  0  0  0
 17 11  2  0  0  0  0
 17 16  1  0  0  0  0
 19  6  1  0  0  0  0
 22  1  1  0  0  0  0
 22 12  1  0  0  0  0
 23 18  1  0  0  0  0
 25 26  1  0  0  0  0
 25 24  1  0  0  0  0
 26 24  1  0  0  0  0
 27 28  1  0  0  0  0
 27 26  1  0  0  0  0
 28 30  1  0  0  0  0
 29 28  2  0  0  0  0
 31 32  1  0  0  0  0
M  END
>  <MODEL>
1

>  <REMARK>
 VINA RESULT:      -6.8      0.000      0.000
  Name = 
  4 active torsions:
  status: ('A' for Active; 'I' for Inactive)
    1  A    between atoms: C_7  and  C_19
    2  A    between atoms: C_10  and  C_17
    3  A    between atoms: C_20  and  C_29
    4  A    between atoms: C_29  and  C_30
                            x       y       z     vdW  Elec       q    Type
                         _______ _______ _______ _____ _____    ______ ____

>  <TORSDO>
F 4

$$$$
=
 OpenBabel11122413023D

 32 37  0  0  1  0  0  0  0  0999 V2000
  160.8310  209.4550  152.6480 C   0  0  1  0  0  3  0  0  0  0  0  0
  161.8400  212.4870  148.9300 C   0  0  0  0  0  3  0  0  0  0  0  0
  160.8140  213.3310  149.3560 C   0  0  0  0  0  3  0  0  0  0  0  0
  159.3820  210.1610  154.6050 C   0  0  2  0  0  3  0  0  0  0  0  0
  158.2760  211.1730  154.9530 C   0  0  2  0  0  3  0  0  0  0  0  0
  161.4440  207.2950  152.4850 C   0  0  2  0  0  3  0  0  0  0  0  0
  162.6880  208.9480  151.0750 O   0  0  0  0  0  0  0  0  0  0  0  0
  157.2190  213.2480  154.4790 N   0  0  0  0  0  0  0  0  0  0  0  0
  162.2040  211.3830  149.7040 C   0  0  0  0  0  3  0  0  0  0  0  0
  161.9750  209.9640  151.7750 C   0  0  1  0  0  3  0  0  0  0  0  0
  161.5360  211.1100  150.9060 C   0  0  0  0  0  0  0  0  0  0  0  0
  159.7310  211.6890  152.6220 C   0  0  2  0  0  3  0  0  0  0  0  0
  156.4280  212.2230  153.8080 C   0  0  0  0  0  2  0  0  0  0  0  0
  162.0340  207.6850  151.1000 C   0  0  2  0  0  3  0  0  0  0  0  0
  156.9980  210.8690  154.2030 C   0  0  0  0  0  2  0  0  0  0  0  0
  160.1560  213.0800  150.5620 C   0  0  0  0  0  3  0  0  0  0  0  0
  160.5260  211.9910  151.3630 C   0  0  0  0  0  0  0  0  0  0  0  0
  159.5270  212.9190  153.4920 C   0  0  0  0  0  2  0  0  0  0  0  0
  161.3240  208.3770  153.3880 O   0  0  0  0  0  0  0  0  0  0  0  0
  160.0950  209.8380  155.7600 O   0  0  0  0  0  1  0  0  0  0  0  0
  157.2220  214.4530  153.6560 C   0  0  0  0  0  1  0  0  0  0  0  0
  160.3590  210.6140  153.5140 C   0  0  2  0  0  3  0  0  0  0  0  0
  158.5520  212.6580  154.6730 C   0  0  2  0  0  3  0  0  0  0  0  0
  161.5000  208.1980  148.7260 C   0  0  0  0  0  2  0  0  0  0  0  0
  160.9670  207.6100  150.0170 C   0  0  1  0  0  3  0  0  0  0  0  0
  161.4460  206.6960  148.9080 C   0  0  1  0  0  3  0  0  0  0  0  0
  160.2420  206.1380  148.1760 C   0  0  0  0  0  2  0  0  0  0  0  0
  160.6310  205.7290  146.7990 C   0  0  0  0  0  0  0  0  0  0  0  0
  160.0340  206.2170  145.8040 O   0  0  0  0  0  0  0  0  0  0  0  0
  161.6790  204.8380  146.6070 O   0  0  0  0  0  1  0  0  0  0  0  0
  161.5840  205.0050  153.1340 O   0  0  0  0  0  1  0  0  0  0  0  0
  162.2960  206.2040  153.1050 C   0  0  0  0  0  2  0  0  0  0  0  0
  1 19  1  1  0  0  0
  1 22  1  0  0  0  0
  2  3  2  0  0  0  0
  2  9  1  0  0  0  0
  3 16  1  0  0  0  0
  4  5  1  0  0  0  0
  4 20  1  1  0  0  0
  5 15  1  6  0  0  0
  6 32  1  1  0  0  0
  6 19  1  0  0  0  0
  7 10  1  0  0  0  0
  8 23  1  0  0  0  0
  9 11  2  0  0  0  0
 10 11  1  6  0  0  0
 10  1  1  0  0  0  0
 11 17  1  0  0  0  0
 12 18  1  1  0  0  0
 12 22  1  0  0  0  0
 13 15  1  0  0  0  0
 13  8  1  0  0  0  0
 14  7  1  1  0  0  0
 14  6  1  0  0  0  0
 16 17  2  0  0  0  0
 17 12  1  0  0  0  0
 18 23  1  0  0  0  0
 21  8  1  0  0  0  0
 22  4  1  0  0  0  0
 23  5  1  0  0  0  0
 24 26  1  0  0  0  0
 24 25  1  0  0  0  0
 25 14  1  0  0  0  0
 26 25  1  0  0  0  0
 27 26  1  0  0  0  0
 28 27  1  0  0  0  0
 29 28  2  0  0  0  0
 30 28  1  0  0  0  0
 32 31  1  0  0  0  0
M  END
>  <MODEL>
2

>  <REMARK>
 VINA RESULT:      -5.7      3.169      7.811
  Name = 
  4 active torsions:
  status: ('A' for Active; 'I' for Inactive)
    1  A    between atoms: C_7  and  C_19
    2  A    between atoms: C_10  and  C_17
    3  A    between atoms: C_20  and  C_29
    4  A    between atoms: C_29  and  C_30
                            x       y       z     vdW  Elec       q    Type
                         _______ _______ _______ _____ _____    ______ ____

>  <TORSDO>
F 4

$$$$
=
 OpenBabel11122413023D

 32 37  0  0  1  0  0  0  0  0999 V2000
  161.1800  209.4520  151.4410 C   0  0  1  0  0  3  0  0  0  0  0  0
  160.6280  208.5590  156.2290 C   0  0  0  0  0  3  0  0  0  0  0  0
  160.4920  207.1990  155.9480 C   0  0  0  0  0  3  0  0  0  0  0  0
  161.6660  207.6050  149.7740 C   0  0  2  0  0  3  0  0  0  0  0  0
  161.4860  206.0850  149.6070 C   0  0  2  0  0  3  0  0  0  0  0  0
  160.7220  211.5150  150.6610 C   0  0  2  0  0  3  0  0  0  0  0  0
  161.2880  211.3080  153.0910 O   0  0  0  0  0  0  0  0  0  0  0  0
  161.2060  203.9630  150.6370 N   0  0  0  0  0  0  0  0  0  0  0  0
  160.9680  209.4530  155.2120 C   0  0  0  0  0  3  0  0  0  0  0  0
  161.6020  209.9450  152.8220 C   0  0  1  0  0  3  0  0  0  0  0  0
  161.1650  208.9940  153.9030 C   0  0  0  0  0  0  0  0  0  0  0  0
  161.2090  207.0820  152.2040 C   0  0  2  0  0  3  0  0  0  0  0  0
  159.8700  204.4210  150.2740 C   0  0  0  0  0  2  0  0  0  0  0  0
  160.3980  211.8780  152.1380 C   0  0  2  0  0  3  0  0  0  0  0  0
  160.0240  205.7140  149.4900 C   0  0  0  0  0  2  0  0  0  0  0  0
  160.7060  206.7280  154.6500 C   0  0  0  0  0  3  0  0  0  0  0  0
  161.0740  207.6080  153.6230 C   0  0  0  0  0  0  0  0  0  0  0  0
  162.0580  205.8230  152.1280 C   0  0  0  0  0  2  0  0  0  0  0  0
  161.5970  210.4120  150.5150 O   0  0  0  0  0  0  0  0  0  0  0  0
  162.7670  208.0260  149.0280 O   0  0  0  0  0  1  0  0  0  0  0  0
  161.1240  203.2220  151.8930 C   0  0  0  0  0  1  0  0  0  0  0  0
  161.8150  208.0880  151.2210 C   0  0  2  0  0  3  0  0  0  0  0  0
  162.0340  205.1750  150.7160 C   0  0  2  0  0  3  0  0  0  0  0  0
  158.7190  211.6990  153.9630 C   0  0  0  0  0  2  0  0  0  0  0  0
  158.9550  211.5320  152.4760 C   0  0  1  0  0  3  0  0  0  0  0  0
  158.2550  212.7700  152.9990 C   0  0  1  0  0  3  0  0  0  0  0  0
  156.7660  212.6300  152.7610 C   0  0  0  0  0  2  0  0  0  0  0  0
  156.2840  213.7410  151.8950 C   0  0  0  0  0  0  0  0  0  0  0  0
  155.1090  214.1740  152.0200 O   0  0  0  0  0  1  0  0  0  0  0  0
  157.1430  214.3280  150.9750 O   0  0  0  0  0  0  0  0  0  0  0  0
  161.9380  212.3350  148.7810 O   0  0  0  0  0  1  0  0  0  0  0  0
  161.3070  212.7270  149.9620 C   0  0  0  0  0  2  0  0  0  0  0  0
  1 19  1  6  0  0  0
  1 10  1  0  0  0  0
  3  2  1  0  0  0  0
  4 20  1  6  0  0  0
  4 22  1  0  0  0  0
  5 15  1  1  0  0  0
  5  4  1  0  0  0  0
  5 23  1  0  0  0  0
  6 32  1  1  0  0  0
  6 14  1  0  0  0  0
  8 23  1  0  0  0  0
  8 21  1  0  0  0  0
  9  2  2  0  0  0  0
 10  7  1  1  0  0  0
 10 11  1  0  0  0  0
 11  9  1  0  0  0  0
 12 18  1  1  0  0  0
 12 17  1  0  0  0  0
 13  8  1  0  0  0  0
 14 25  1  0  0  0  0
 14  7  1  1  0  0  0
 15 13  1  0  0  0  0
 16  3  2  0  0  0  0
 17 11  2  0  0  0  0
 17 16  1  0  0  0  0
 19  6  1  0  0  0  0
 22  1  1  0  0  0  0
 22 12  1  0  0  0  0
 23 18  1  0  0  0  0
 25 26  1  0  0  0  0
 25 24  1  0  0  0  0
 26 24  1  0  0  0  0
 27 26  1  0  0  0  0
 28 29  1  0  0  0  0
 28 27  1  0  0  0  0
 30 28  2  0  0  0  0
 31 32  1  0  0  0  0
M  END
>  <MODEL>
3

>  <REMARK>
 VINA RESULT:      -5.2      1.211      1.371
  Name = 
  4 active torsions:
  status: ('A' for Active; 'I' for Inactive)
    1  A    between atoms: C_7  and  C_19
    2  A    between atoms: C_10  and  C_17
    3  A    between atoms: C_20  and  C_29
    4  A    between atoms: C_29  and  C_30
                            x       y       z     vdW  Elec       q    Type
                         _______ _______ _______ _____ _____    ______ ____

>  <TORSDO>
F 4

$$$$
=
 OpenBabel11122413023D

 32 37  0  0  1  0  0  0  0  0999 V2000
  159.8500  210.4030  153.9980 C   0  0  1  0  0  3  0  0  0  0  0  0
  160.8070  212.7600  149.8070 C   0  0  0  0  0  3  0  0  0  0  0  0
  159.5670  213.3940  149.8940 C   0  0  0  0  0  3  0  0  0  0  0  0
  157.9720  211.1160  155.5450 C   0  0  2  0  0  3  0  0  0  0  0  0
  156.6320  211.8730  155.5070 C   0  0  2  0  0  3  0  0  0  0  0  0
  160.9290  208.4750  154.4310 C   0  0  2  0  0  3  0  0  0  0  0  0
  162.0130  210.0590  152.8220 O   0  0  0  0  0  0  0  0  0  0  0  0
  155.2530  213.4790  154.4280 N   0  0  0  0  0  0  0  0  0  0  0  0
  161.2610  211.9630  150.8600 C   0  0  0  0  0  3  0  0  0  0  0  0
  160.9910  210.9880  153.1690 C   0  0  1  0  0  3  0  0  0  0  0  0
  160.4720  211.7870  152.0050 C   0  0  0  0  0  0  0  0  0  0  0  0
  158.3190  212.2420  153.3080 C   0  0  2  0  0  3  0  0  0  0  0  0
  154.8260  212.1760  153.9350 C   0  0  0  0  0  2  0  0  0  0  0  0
  161.6500  208.7060  153.0710 C   0  0  2  0  0  3  0  0  0  0  0  0
  155.5950  211.1160  154.7060 C   0  0  0  0  0  2  0  0  0  0  0  0
  158.7820  213.2410  151.0390 C   0  0  0  0  0  3  0  0  0  0  0  0
  159.2340  212.4650  152.1160 C   0  0  0  0  0  0  0  0  0  0  0  0
  157.7110  213.5350  153.8270 C   0  0  0  0  0  2  0  0  0  0  0  0
  160.4290  209.6560  155.0270 O   0  0  0  0  0  0  0  0  0  0  0  0
  158.5290  211.2240  156.8190 O   0  0  0  0  0  1  0  0  0  0  0  0
  155.1380  214.4530  153.3460 C   0  0  0  0  0  1  0  0  0  0  0  0
  159.0010  211.5620  154.4990 C   0  0  2  0  0  3  0  0  0  0  0  0
  156.6280  213.2890  154.9130 C   0  0  2  0  0  3  0  0  0  0  0  0
  161.5530  208.3670  150.6100 C   0  0  0  0  0  2  0  0  0  0  0  0
  160.8240  208.1490  151.9210 C   0  0  1  0  0  3  0  0  0  0  0  0
  161.5790  207.0060  151.2730 C   0  0  1  0  0  3  0  0  0  0  0  0
  160.5870  206.0880  150.5880 C   0  0  0  0  0  2  0  0  0  0  0  0
  161.1080  204.6930  150.5840 C   0  0  0  0  0  0  0  0  0  0  0  0
  161.8360  204.2890  151.5290 O   0  0  0  0  0  1  0  0  0  0  0  0
  160.7590  203.8240  149.5590 O   0  0  0  0  0  0  0  0  0  0  0  0
  161.8340  208.4070  156.6350 O   0  0  0  0  0  1  0  0  0  0  0  0
  161.8770  207.7800  155.3900 C   0  0  0  0  0  2  0  0  0  0  0  0
  1 22  1  0  0  0  0
  1 19  1  1  0  0  0
  2  3  2  0  0  0  0
  2  9  1  0  0  0  0
  3 16  1  0  0  0  0
  4 20  1  1  0  0  0
  5 15  1  6  0  0  0
  5  4  1  0  0  0  0
  6 19  1  0  0  0  0
  6 32  1  1  0  0  0
  7 10  1  0  0  0  0
  8 23  1  0  0  0  0
  9 11  2  0  0  0  0
 10 11  1  6  0  0  0
 10  1  1  0  0  0  0
 11 17  1  0  0  0  0
 12 18  1  1  0  0  0
 12 22  1  0  0  0  0
 13  8  1  0  0  0  0
 13 15  1  0  0  0  0
 14  7  1  6  0  0  0
 14  6  1  0  0  0  0
 16 17  2  0  0  0  0
 17 12  1  0  0  0  0
 18 23  1  0  0  0  0
 21  8  1  0  0  0  0
 22  4  1  0  0  0  0
 23  5  1  0  0  0  0
 24 26  1  0  0  0  0
 24 25  1  0  0  0  0
 25 14  1  0  0  0  0
 26 25  1  0  0  0  0
 27 26  1  0  0  0  0
 28 27  1  0  0  0  0
 28 29  1  0  0  0  0
 30 28  2  0  0  0  0
 32 31  1  0  0  0  0
M  END
>  <MODEL>
4

>  <REMARK>
 VINA RESULT:      -5.1      2.921      7.884
  Name = 
  4 active torsions:
  status: ('A' for Active; 'I' for Inactive)
    1  A    between atoms: C_7  and  C_19
    2  A    between atoms: C_10  and  C_17
    3  A    between atoms: C_20  and  C_29
    4  A    between atoms: C_29  and  C_30
                            x       y       z     vdW  Elec       q    Type
                         _______ _______ _______ _____ _____    ______ ____

>  <TORSDO>
F 4

$$$$
=
 OpenBabel11122413023D

 32 37  0  0  1  0  0  0  0  0999 V2000
  161.4320  209.4330  151.1470 C   0  0  1  0  0  3  0  0  0  0  0  0
  160.4450  209.0620  155.9350 C   0  0  0  0  0  3  0  0  0  0  0  0
  160.2200  207.6950  155.7700 C   0  0  0  0  0  3  0  0  0  0  0  0
  161.8910  207.3980  149.7050 C   0  0  2  0  0  3  0  0  0  0  0  0
  161.5990  205.8870  149.6660 C   0  0  2  0  0  3  0  0  0  0  0  0
  161.2070  211.4360  150.1430 C   0  0  2  0  0  3  0  0  0  0  0  0
  161.5670  211.4290  152.6210 O   0  0  0  0  0  0  0  0  0  0  0  0
  161.0680  203.9040  150.8610 N   0  0  0  0  0  0  0  0  0  0  0  0
  160.9340  209.8230  154.8710 C   0  0  0  0  0  3  0  0  0  0  0  0
  161.7870  210.0270  152.5070 C   0  0  1  0  0  3  0  0  0  0  0  0
  161.1920  209.2230  153.6310 C   0  0  0  0  0  0  0  0  0  0  0  0
  161.2080  207.1540  152.1260 C   0  0  2  0  0  3  0  0  0  0  0  0
  159.8060  204.4220  150.3470 C   0  0  0  0  0  2  0  0  0  0  0  0
  160.8020  211.9660  151.5490 C   0  0  2  0  0  3  0  0  0  0  0  0
  160.1250  205.6160  149.4610 C   0  0  0  0  0  2  0  0  0  0  0  0
  160.4930  207.0830  154.5440 C   0  0  0  0  0  3  0  0  0  0  0  0
  161.0090  207.8270  153.4740 C   0  0  0  0  0  0  0  0  0  0  0  0
  161.9530  205.8340  152.2390 C   0  0  0  0  0  2  0  0  0  0  0  0
  161.9960  210.2620  150.1740 O   0  0  0  0  0  0  0  0  0  0  0  0
  163.0760  207.6600  149.0190 O   0  0  0  0  0  1  0  0  0  0  0  0
  160.8290  203.2990  152.1690 C   0  0  0  0  0  1  0  0  0  0  0  0
  161.9680  208.0090  151.1090 C   0  0  2  0  0  3  0  0  0  0  0  0
  161.9850  205.0530  150.8960 C   0  0  2  0  0  3  0  0  0  0  0  0
  158.9140  212.4140  153.1040 C   0  0  0  0  0  2  0  0  0  0  0  0
  159.3130  211.7650  151.7940 C   0  0  1  0  0  3  0  0  0  0  0  0
  158.6210  213.1130  151.7930 C   0  0  1  0  0  3  0  0  0  0  0  0
  157.1640  212.9160  151.4270 C   0  0  0  0  0  2  0  0  0  0  0  0
  156.8730  213.5850  150.1290 C   0  0  0  0  0  0  0  0  0  0  0  0
  157.7710  213.6750  149.2510 O   0  0  0  0  0  0  0  0  0  0  0  0
  155.6000  214.0760  149.8700 O   0  0  0  0  0  1  0  0  0  0  0  0
  162.6640  211.9670  148.3330 O   0  0  0  0  0  1  0  0  0  0  0  0
  161.9410  212.5260  149.3870 C   0  0  0  0  0  2  0  0  0  0  0  0
  1 19  1  6  0  0  0
  1 10  1  0  0  0  0
  3  2  1  0  0  0  0
  4 20  1  1  0  0  0
  4 22  1  0  0  0  0
  5 15  1  1  0  0  0
  5  4  1  0  0  0  0
  5 23  1  0  0  0  0
  6 32  1  1  0  0  0
  6 19  1  0  0  0  0
  6 14  1  0  0  0  0
  8 23  1  0  0  0  0
  8 21  1  0  0  0  0
  9  2  2  0  0  0  0
 10  7  1  6  0  0  0
 10 11  1  0  0  0  0
 11  9  1  0  0  0  0
 12 18  1  1  0  0  0
 12 17  1  0  0  0  0
 13  8  1  0  0  0  0
 14 25  1  0  0  0  0
 14  7  1  1  0  0  0
 15 13  1  0  0  0  0
 16  3  2  0  0  0  0
 17 11  2  0  0  0  0
 17 16  1  0  0  0  0
 22  1  1  0  0  0  0
 22 12  1  0  0  0  0
 23 18  1  0  0  0  0
 25 24  1  0  0  0  0
 26 25  1  0  0  0  0
 26 24  1  0  0  0  0
 27 26  1  0  0  0  0
 28 27  1  0  0  0  0
 29 28  2  0  0  0  0
 30 28  1  0  0  0  0
 31 32  1  0  0  0  0
M  END
>  <MODEL>
5

>  <REMARK>
 VINA RESULT:      -4.9      1.775      2.130
  Name = 
  4 active torsions:
  status: ('A' for Active; 'I' for Inactive)
    1  A    between atoms: C_7  and  C_19
    2  A    between atoms: C_10  and  C_17
    3  A    between atoms: C_20  and  C_29
    4  A    between atoms: C_29  and  C_30
                            x       y       z     vdW  Elec       q    Type
                         _______ _______ _______ _____ _____    ______ ____

>  <TORSDO>
F 4

$$$$
