=
 OpenBabel11122414343D

 34 42  0  0  1  0  0  0  0  0999 V2000
  161.8900  209.5000  155.4220 C   0  0  1  0  0  3  0  0  0  0  0  0
  160.6010  207.2780  155.2440 C   0  0  0  0  0  2  0  0  0  0  0  0
  158.0720  214.0390  153.0200 C   0  0  1  0  0  3  0  0  0  0  0  0
  159.5500  210.4880  154.9910 C   0  0  1  0  0  3  0  0  0  0  0  0
  159.6460  212.2080  153.0560 C   0  0  2  0  0  3  0  0  0  0  0  0
  159.2260  213.3890  150.8220 C   0  0  0  0  0  2  0  0  0  0  0  0
  158.9240  214.4530  151.8410 C   0  0  2  0  0  3  0  0  0  0  0  0
  156.4290  212.5730  154.1020 C   0  0  0  0  0  2  0  0  0  0  0  0
  162.0430  207.8680  153.4280 C   0  0  2  0  0  3  0  0  0  0  0  0
  161.9340  206.4090  150.7980 C   0  0  0  0  0  2  0  0  0  0  0  0
  160.2340  211.0900  152.3140 N   0  0  0  0  0  2  0  0  0  0  0  0
  157.3600  211.3340  154.0230 C   0  0  0  0  0  2  0  0  0  0  0  0
  161.2770  208.9050  152.5660 C   0  0  1  0  0  3  0  0  0  0  0  0
  160.3790  206.3810  154.2950 C   0  0  0  0  0  2  0  0  0  0  0  0
  158.8520  211.6620  154.2970 C   0  0  1  0  0  3  0  0  0  0  0  0
  156.6270  213.6110  152.9740 C   0  0  0  0  0  2  0  0  0  0  0  0
  160.8570  206.1690  151.8430 C   0  0  2  0  0  3  0  0  0  0  0  0
  161.0350  210.4690  154.6070 C   0  0  2  0  0  3  0  0  0  0  0  0
  158.6760  212.9610  152.1580 C   0  0  1  0  0  0  0  0  0  0  0  0
  161.2520  210.3530  153.0850 C   0  0  2  0  0  3  0  0  0  0  0  0
  160.1530  209.5820  157.2610 C   0  0  0  0  0  2  0  0  0  0  0  0
  162.0200  207.8480  150.3690 C   0  0  0  0  0  3  0  0  0  0  0  0
  159.3970  210.6650  156.5020 C   0  0  0  0  0  2  0  0  0  0  0  0
  161.7770  208.9200  151.1400 C   0  0  0  0  0  3  0  0  0  0  0  0
  161.4270  206.4660  153.2340 C   0  0  1  0  0  3  0  0  0  0  0  0
  161.6420  209.6430  156.9280 C   0  0  0  0  0  2  0  0  0  0  0  0
  161.8390  208.0520  154.9310 C   0  0  1  0  0  3  0  0  0  0  0  0
  160.4440  204.8360  151.7780 O   0  0  0  0  0  0  0  0  0  0  0  0
  161.3000  204.2420  150.8470 C   0  0  0  0  0  2  0  0  0  0  0  0
  161.5100  202.2870  148.0980 O   0  0  0  0  0  0  0  0  0  0  0  0
  160.5050  202.0370  150.0640 C   0  0  0  0  0  3  0  0  0  0  0  0
  160.4910  203.5070  149.7930 C   0  0  2  0  0  3  0  0  0  0  0  0
  161.0940  201.4000  149.0710 C   0  0  0  0  0  3  0  0  0  0  0  0
  161.1900  203.6230  148.4420 C   0  0  0  0  0  2  0  0  0  0  0  0
  1 26  1  1  0  0  0
  3 16  1  6  0  0  0
  4 23  1  1  0  0  0
  5 11  1  6  0  0  0
  5 15  1  0  0  0  0
  6 19  1  0  0  0  0
  7  6  1  6  0  0  0
  7 19  1  0  0  0  0
  7  3  1  0  0  0  0
  9 27  1  0  0  0  0
 10 17  1  0  0  0  0
 11 20  1  0  0  0  0
 12  8  1  0  0  0  0
 12 15  1  0  0  0  0
 13 20  1  0  0  0  0
 13  9  1  0  0  0  0
 14  2  1  0  0  0  0
 15  4  1  0  0  0  0
 16  8  1  0  0  0  0
 17 25  1  0  0  0  0
 18  4  1  0  0  0  0
 18  1  1  0  0  0  0
 19  3  1  0  0  0  0
 19  5  1  0  0  0  0
 20 18  1  0  0  0  0
 22 10  1  0  0  0  0
 22 24  2  0  0  0  0
 23 21  1  0  0  0  0
 24 13  1  0  0  0  0
 25  9  1  0  0  0  0
 25 14  1  0  0  0  0
 26 21  1  0  0  0  0
 27  2  1  0  0  0  0
 27  1  1  0  0  0  0
 28 17  1  0  0  0  0
 29 28  1  0  0  0  0
 30 34  1  0  0  0  0
 30 33  1  0  0  0  0
 32 31  1  0  0  0  0
 32 29  1  0  0  0  0
 33 31  2  0  0  0  0
 34 32  1  0  0  0  0
M  END
>  <MODEL>
1

>  <REMARK>
 VINA RESULT:      -8.0      0.000      0.000
  Name = 
  3 active torsions:
  status: ('A' for Active; 'I' for Inactive)
    1  A    between atoms: C_17  and  O_28
    2  A    between atoms: O_28  and  C_29
    3  A    between atoms: C_29  and  C_32
                            x       y       z     vdW  Elec       q    Type
                         _______ _______ _______ _____ _____    ______ ____

>  <TORSDO>
F 3

$$$$
=
 OpenBabel11122414343D

 34 42  0  0  1  0  0  0  0  0999 V2000
  161.9450  208.6820  154.9530 C   0  0  1  0  0  3  0  0  0  0  0  0
  160.6980  206.6050  154.0820 C   0  0  0  0  0  2  0  0  0  0  0  0
  158.0020  213.6600  154.1660 C   0  0  1  0  0  3  0  0  0  0  0  0
  159.5800  209.7010  154.8820 C   0  0  1  0  0  3  0  0  0  0  0  0
  159.6120  211.9520  153.6000 C   0  0  2  0  0  3  0  0  0  0  0  0
  159.1340  213.7770  151.8670 C   0  0  0  0  0  2  0  0  0  0  0  0
  158.8270  214.4510  153.1760 C   0  0  2  0  0  3  0  0  0  0  0  0
  156.4050  211.8870  154.7340 C   0  0  0  0  0  2  0  0  0  0  0  0
  162.1000  207.7800  152.5400 C   0  0  2  0  0  3  0  0  0  0  0  0
  161.9790  207.2390  149.5810 C   0  0  0  0  0  2  0  0  0  0  0  0
  160.2100  211.1450  152.5330 N   0  0  0  0  0  2  0  0  0  0  0  0
  157.3590  210.7610  154.2540 C   0  0  0  0  0  2  0  0  0  0  0  0
  161.3000  209.0200  152.0620 C   0  0  1  0  0  3  0  0  0  0  0  0
  160.4790  206.0550  152.8980 C   0  0  0  0  0  2  0  0  0  0  0  0
  158.8480  211.0180  154.6060 C   0  0  1  0  0  3  0  0  0  0  0  0
  156.5660  213.2360  153.9970 C   0  0  0  0  0  2  0  0  0  0  0  0
  160.9230  206.6510  150.5040 C   0  0  2  0  0  3  0  0  0  0  0  0
  161.0590  209.8410  154.4990 C   0  0  2  0  0  3  0  0  0  0  0  0
  158.6140  212.9310  153.0000 C   0  0  1  0  0  0  0  0  0  0  0  0
  161.2540  210.2240  153.0180 C   0  0  2  0  0  3  0  0  0  0  0  0
  160.2360  208.1290  156.7350 C   0  0  0  0  0  2  0  0  0  0  0  0
  162.0300  208.7410  149.6360 C   0  0  0  0  0  3  0  0  0  0  0  0
  159.4460  209.3800  156.3710 C   0  0  0  0  0  2  0  0  0  0  0  0
  161.7780  209.5030  150.7130 C   0  0  0  0  0  3  0  0  0  0  0  0
  161.5080  206.5000  151.9120 C   0  0  1  0  0  3  0  0  0  0  0  0
  161.7180  208.3290  156.4270 C   0  0  0  0  0  2  0  0  0  0  0  0
  161.9150  207.4670  154.0240 C   0  0  1  0  0  3  0  0  0  0  0  0
  160.5360  205.4010  150.0170 O   0  0  0  0  0  0  0  0  0  0  0  0
  160.7460  205.4720  148.6380 C   0  0  0  0  0  2  0  0  0  0  0  0
  161.1810  202.6530  146.8240 O   0  0  0  0  0  0  0  0  0  0  0  0
  162.1660  204.6460  146.7920 C   0  0  0  0  0  3  0  0  0  0  0  0
  161.7600  204.4240  148.2130 C   0  0  2  0  0  3  0  0  0  0  0  0
  161.8120  203.6100  146.0550 C   0  0  0  0  0  3  0  0  0  0  0  0
  161.0910  203.0530  148.1800 C   0  0  0  0  0  2  0  0  0  0  0  0
  1 26  1  1  0  0  0
  3 16  1  6  0  0  0
  4 23  1  1  0  0  0
  5 11  1  6  0  0  0
  5 15  1  0  0  0  0
  6 19  1  0  0  0  0
  7  6  1  6  0  0  0
  7  3  1  0  0  0  0
  9 27  1  0  0  0  0
 10 22  1  0  0  0  0
 10 17  1  0  0  0  0
 11 20  1  0  0  0  0
 12 15  1  0  0  0  0
 12  8  1  0  0  0  0
 13  9  1  0  0  0  0
 13 20  1  0  0  0  0
 14  2  1  0  0  0  0
 15  4  1  0  0  0  0
 16  8  1  0  0  0  0
 17 25  1  0  0  0  0
 18  4  1  0  0  0  0
 18  1  1  0  0  0  0
 19  7  1  0  0  0  0
 19  5  1  0  0  0  0
 19  3  1  0  0  0  0
 20 18  1  0  0  0  0
 22 24  2  0  0  0  0
 23 21  1  0  0  0  0
 24 13  1  0  0  0  0
 25  9  1  0  0  0  0
 25 14  1  0  0  0  0
 26 21  1  0  0  0  0
 27  2  1  0  0  0  0
 27  1  1  0  0  0  0
 28 17  1  0  0  0  0
 29 28  1  0  0  0  0
 30 34  1  0  0  0  0
 31 32  1  0  0  0  0
 32 29  1  0  0  0  0
 33 31  2  0  0  0  0
 33 30  1  0  0  0  0
 34 32  1  0  0  0  0
M  END
>  <MODEL>
2

>  <REMARK>
 VINA RESULT:      -7.3      1.139      1.559
  Name = 
  3 active torsions:
  status: ('A' for Active; 'I' for Inactive)
    1  A    between atoms: C_17  and  O_28
    2  A    between atoms: O_28  and  C_29
    3  A    between atoms: C_29  and  C_32
                            x       y       z     vdW  Elec       q    Type
                         _______ _______ _______ _____ _____    ______ ____

>  <TORSDO>
F 3

$$$$
=
 OpenBabel11122414343D

 34 42  0  0  1  0  0  0  0  0999 V2000
  162.5290  210.0080  152.1410 C   0  0  1  0  0  3  0  0  0  0  0  0
  160.2330  211.1630  151.9900 C   0  0  0  0  0  2  0  0  0  0  0  0
  161.6850  203.9760  150.1770 C   0  0  1  0  0  3  0  0  0  0  0  0
  161.3560  208.2590  150.6570 C   0  0  1  0  0  3  0  0  0  0  0  0
  161.6640  205.8870  151.6530 C   0  0  2  0  0  3  0  0  0  0  0  0
  161.1720  203.5830  152.6600 C   0  0  0  0  0  2  0  0  0  0  0  0
  162.0300  203.2660  151.4660 C   0  0  2  0  0  3  0  0  0  0  0  0
  160.1240  205.1670  148.7050 C   0  0  0  0  0  2  0  0  0  0  0  0
  160.8240  210.1470  154.0740 C   0  0  2  0  0  3  0  0  0  0  0  0
  158.7830  209.7090  156.2420 C   0  0  0  0  0  2  0  0  0  0  0  0
  161.0820  206.4960  152.8520 N   0  0  0  0  0  2  0  0  0  0  0  0
  159.9760  206.3580  149.6900 C   0  0  0  0  0  2  0  0  0  0  0  0
  160.5740  208.6250  153.9170 C   0  0  1  0  0  3  0  0  0  0  0  0
  159.1480  211.2250  152.7470 C   0  0  0  0  0  2  0  0  0  0  0  0
  161.3040  206.7510  150.3910 C   0  0  1  0  0  3  0  0  0  0  0  0
  160.4230  203.8040  149.3700 C   0  0  0  0  0  2  0  0  0  0  0  0
  158.3350  210.1380  154.8550 C   0  0  2  0  0  3  0  0  0  0  0  0
  162.1970  208.5340  151.9100 C   0  0  2  0  0  3  0  0  0  0  0  0
  161.0890  204.4910  151.4600 C   0  0  1  0  0  0  0  0  0  0  0  0
  161.6470  207.8220  153.1620 C   0  0  2  0  0  3  0  0  0  0  0  0
  162.1530  210.4350  149.6750 C   0  0  0  0  0  2  0  0  0  0  0  0
  159.5360  208.4070  156.2350 C   0  0  0  0  0  3  0  0  0  0  0  0
  161.9800  208.9390  149.4390 C   0  0  0  0  0  2  0  0  0  0  0  0
  160.3370  207.9610  155.2530 C   0  0  0  0  0  3  0  0  0  0  0  0
  159.4760  210.8940  154.1660 C   0  0  1  0  0  3  0  0  0  0  0  0
  163.0670  210.6810  150.8730 C   0  0  0  0  0  2  0  0  0  0  0  0
  161.4150  210.8020  152.8260 C   0  0  1  0  0  3  0  0  0  0  0  0
  157.2200  210.9720  154.9710 O   0  0  0  0  0  0  0  0  0  0  0  0
  157.5690  211.9000  155.9550 C   0  0  0  0  0  2  0  0  0  0  0  0
  157.8060  214.4530  153.7530 O   0  0  0  0  0  0  0  0  0  0  0  0
  156.1160  213.1680  154.4100 C   0  0  0  0  0  3  0  0  0  0  0  0
  157.0230  213.2700  155.5930 C   0  0  2  0  0  3  0  0  0  0  0  0
  156.6110  213.8570  153.4000 C   0  0  0  0  0  3  0  0  0  0  0  0
  158.1600  214.1540  155.0910 C   0  0  0  0  0  2  0  0  0  0  0  0
  1 26  1  6  0  0  0
  1 27  1  0  0  0  0
  2 14  1  0  0  0  0
  2 27  1  0  0  0  0
  3 16  1  6  0  0  0
  3 19  1  0  0  0  0
  3  7  1  0  0  0  0
  4 23  1  6  0  0  0
  4 18  1  0  0  0  0
  5 11  1  1  0  0  0
  7  6  1  6  0  0  0
  8 16  1  0  0  0  0
  8 12  1  0  0  0  0
  9 25  1  0  0  0  0
 11 20  1  0  0  0  0
 12 15  1  0  0  0  0
 13  9  1  0  0  0  0
 13 24  1  0  0  0  0
 14 25  1  0  0  0  0
 15  4  1  0  0  0  0
 15  5  1  0  0  0  0
 17 28  1  0  0  0  0
 17 10  1  0  0  0  0
 18  1  1  0  0  0  0
 18 20  1  0  0  0  0
 19  7  1  0  0  0  0
 19  5  1  0  0  0  0
 19  6  1  0  0  0  0
 20 13  1  0  0  0  0
 21 26  1  0  0  0  0
 22 10  1  0  0  0  0
 23 21  1  0  0  0  0
 24 22  2  0  0  0  0
 25 17  1  0  0  0  0
 27  9  1  0  0  0  0
 28 29  1  0  0  0  0
 30 34  1  0  0  0  0
 31 32  1  0  0  0  0
 32 29  1  0  0  0  0
 33 30  1  0  0  0  0
 33 31  2  0  0  0  0
 34 32  1  0  0  0  0
M  END
>  <MODEL>
3

>  <REMARK>
 VINA RESULT:      -5.2      2.918      8.218
  Name = 
  3 active torsions:
  status: ('A' for Active; 'I' for Inactive)
    1  A    between atoms: C_17  and  O_28
    2  A    between atoms: O_28  and  C_29
    3  A    between atoms: C_29  and  C_32
                            x       y       z     vdW  Elec       q    Type
                         _______ _______ _______ _____ _____    ______ ____

>  <TORSDO>
F 3

$$$$
