=
 OpenBabel11122414193D

 34 40  0  0  1  0  0  0  0  0999 V2000
  161.9670  207.3260  149.3260 C   0  0  2  0  0  3  0  0  0  0  0  0
  162.3080  205.4240  147.7540 C   0  0  0  0  0  2  0  0  0  0  0  0
  161.3260  209.2400  155.7730 C   0  0  2  0  0  3  0  0  0  0  0  0
  161.6540  208.8380  151.3250 C   0  0  0  0  0  0  0  0  0  0  0  0
  161.1260  207.9320  153.5320 C   0  0  0  0  0  0  0  0  0  0  0  0
  160.2240  207.1230  155.5750 O   0  0  0  0  0  0  0  0  0  0  0  0
  161.4470  208.9560  157.2610 C   0  0  0  0  0  1  0  0  0  0  0  0
  160.2410  210.7920  154.0590 C   0  0  0  0  0  2  0  0  0  0  0  0
  160.7460  205.0150  149.5820 C   0  0  2  0  0  3  0  0  0  0  0  0
  160.5630  202.1220  150.5500 O   0  0  0  0  0  0  0  0  0  0  0  0
  161.0740  206.6550  152.9600 C   0  0  0  0  0  3  0  0  0  0  0  0
  161.4780  210.4560  153.2370 C   0  0  0  0  0  2  0  0  0  0  0  0
  161.3140  205.0410  151.0220 C   0  0  1  0  0  3  0  0  0  0  0  0
  161.7970  204.0140  147.5780 C   0  0  0  0  0  2  0  0  0  0  0  0
  161.4110  209.0470  152.6980 C   0  0  0  0  0  0  0  0  0  0  0  0
  160.4320  210.4560  155.5400 C   0  0  0  0  0  2  0  0  0  0  0  0
  161.4910  202.5090  149.5800 C   0  0  2  0  0  3  0  0  0  0  0  0
  161.5700  207.5410  150.7700 C   0  0  0  0  0  0  0  0  0  0  0  0
  160.8630  208.0420  154.9900 C   0  0  0  0  0  0  0  0  0  0  0  0
  161.2800  206.4430  151.5920 C   0  0  0  0  0  0  0  0  0  0  0  0
  162.0970  209.8280  149.1260 C   0  0  0  0  0  3  0  0  0  0  0  0
  161.0420  202.6510  151.7490 C   0  0  0  0  0  2  0  0  0  0  0  0
  162.0490  209.9650  150.4510 C   0  0  0  0  0  3  0  0  0  0  0  0
  160.5370  204.0720  151.9220 C   0  0  0  0  0  2  0  0  0  0  0  0
  160.9320  203.6990  148.7900 C   0  0  1  0  0  3  0  0  0  0  0  0
  161.6530  208.5560  148.4680 C   0  0  0  0  0  2  0  0  0  0  0  0
  161.3170  206.1050  148.6670 C   0  0  1  0  0  3  0  0  0  0  0  0
  161.7340  201.4280  148.7270 O   0  0  0  0  0  0  0  0  0  0  0  0
  160.6750  201.4510  147.8150 C   0  0  0  0  0  2  0  0  0  0  0  0
  160.6990  199.3390  144.9510 O   0  0  0  0  0  0  0  0  0  0  0  0
  160.2240  201.6140  145.3810 C   0  0  0  0  0  2  0  0  0  0  0  0
  161.1840  201.1230  146.4240 C   0  0  2  0  0  3  0  0  0  0  0  0
  159.7710  200.3540  144.6810 C   0  0  0  0  0  2  0  0  0  0  0  0
  161.1940  199.6250  146.2310 C   0  0  0  0  0  2  0  0  0  0  0  0
  1 26  1  6  0  0  0
  1 18  1  0  0  0  0
  2 27  1  0  0  0  0
  3  7  1  1  0  0  0
  4 15  1  0  0  0  0
  5 19  1  0  0  0  0
  8 16  1  0  0  0  0
  9 13  1  0  0  0  0
 10 22  1  0  0  0  0
 11  5  1  0  0  0  0
 12  8  1  0  0  0  0
 13 20  1  0  0  0  0
 13 24  1  0  0  0  0
 14  2  1  0  0  0  0
 14 25  1  0  0  0  0
 15 12  1  0  0  0  0
 15  5  2  0  0  0  0
 16  3  1  0  0  0  0
 17 10  1  0  0  0  0
 18  4  2  0  0  0  0
 18 20  1  0  0  0  0
 19  6  2  0  0  0  0
 19  3  1  0  0  0  0
 20 11  2  0  0  0  0
 21 23  2  0  0  0  0
 22 24  1  0  0  0  0
 23  4  1  0  0  0  0
 25 17  1  0  0  0  0
 25  9  1  0  0  0  0
 26 21  1  0  0  0  0
 27  1  1  0  0  0  0
 27  9  1  0  0  0  0
 28 17  1  0  0  0  0
 29 28  1  0  0  0  0
 30 34  1  0  0  0  0
 31 32  1  0  0  0  0
 32 29  1  0  0  0  0
 33 30  1  0  0  0  0
 33 31  1  0  0  0  0
 34 32  1  0  0  0  0
M  END
>  <MODEL>
1

>  <REMARK>
 VINA RESULT:     -10.8      0.000      0.000
  Name = 
  3 active torsions:
  status: ('A' for Active; 'I' for Inactive)
    1  A    between atoms: C_17  and  O_28
    2  A    between atoms: O_28  and  C_29
    3  A    between atoms: C_29  and  C_32
                            x       y       z     vdW  Elec       q    Type
                         _______ _______ _______ _____ _____    ______ ____

>  <TORSDO>
F 3

$$$$
=
 OpenBabel11122414193D

 34 40  0  0  1  0  0  0  0  0999 V2000
  161.2670  209.1660  150.8240 C   0  0  2  0  0  3  0  0  0  0  0  0
  161.0050  210.9320  152.5610 C   0  0  0  0  0  2  0  0  0  0  0  0
  160.3160  202.6710  149.2260 C   0  0  2  0  0  3  0  0  0  0  0  0
  161.2860  207.0370  149.4660 C   0  0  0  0  0  0  0  0  0  0  0  0
  160.8920  204.8620  150.5080 C   0  0  0  0  0  0  0  0  0  0  0  0
  160.9180  202.7240  151.5440 O   0  0  0  0  0  0  0  0  0  0  0  0
  159.6840  201.3160  149.4970 C   0  0  0  0  0  1  0  0  0  0  0  0
  162.1950  203.8450  147.9560 C   0  0  0  0  0  2  0  0  0  0  0  0
  161.7970  208.7690  153.3650 C   0  0  2  0  0  3  0  0  0  0  0  0
  161.0170  208.0520  156.2330 O   0  0  0  0  0  0  0  0  0  0  0  0
  160.8280  205.5040  151.7490 C   0  0  0  0  0  3  0  0  0  0  0  0
  161.2270  205.0210  147.9690 C   0  0  0  0  0  2  0  0  0  0  0  0
  160.8360  207.5630  153.2260 C   0  0  1  0  0  3  0  0  0  0  0  0
  161.2140  211.0740  154.0500 C   0  0  0  0  0  2  0  0  0  0  0  0
  161.1360  205.6390  149.3430 C   0  0  0  0  0  0  0  0  0  0  0  0
  161.4880  202.5220  148.2590 C   0  0  0  0  0  2  0  0  0  0  0  0
  160.5430  209.2140  155.6170 C   0  0  2  0  0  3  0  0  0  0  0  0
  161.2400  207.6550  150.7350 C   0  0  0  0  0  0  0  0  0  0  0  0
  160.7130  203.3870  150.4880 C   0  0  0  0  0  0  0  0  0  0  0  0
  161.0090  206.8860  151.8830 C   0  0  0  0  0  0  0  0  0  0  0  0
  161.7740  209.1710  148.3620 C   0  0  0  0  0  3  0  0  0  0  0  0
  160.3250  207.0040  155.6230 C   0  0  0  0  0  2  0  0  0  0  0  0
  161.4420  207.8840  148.2630 C   0  0  0  0  0  3  0  0  0  0  0  0
  161.0600  206.5650  154.3690 C   0  0  0  0  0  2  0  0  0  0  0  0
  161.5710  209.6950  154.5850 C   0  0  1  0  0  3  0  0  0  0  0  0
  162.0980  209.7810  149.6930 C   0  0  0  0  0  2  0  0  0  0  0  0
  161.7960  209.7100  152.1550 C   0  0  1  0  0  3  0  0  0  0  0  0
  160.3360  210.1930  156.5920 O   0  0  0  0  0  0  0  0  0  0  0  0
  158.9500  210.2430  156.7560 C   0  0  0  0  0  2  0  0  0  0  0  0
  156.4310  212.1610  155.1310 O   0  0  0  0  0  0  0  0  0  0  0  0
  157.4560  212.1590  157.2610 C   0  0  0  0  0  2  0  0  0  0  0  0
  158.4190  211.5780  156.2680 C   0  0  2  0  0  3  0  0  0  0  0  0
  156.1510  212.2300  156.5030 C   0  0  0  0  0  2  0  0  0  0  0  0
  157.5800  211.3650  155.0300 C   0  0  0  0  0  2  0  0  0  0  0  0
  1 26  1  6  0  0  0
  1 27  1  0  0  0  0
  2 14  1  0  0  0  0
  3  7  1  1  0  0  0
  3 19  1  0  0  0  0
  4 18  1  0  0  0  0
  5 11  2  0  0  0  0
  8 12  1  0  0  0  0
  8 16  1  0  0  0  0
  9 25  1  0  0  0  0
 11 20  1  0  0  0  0
 12 15  1  0  0  0  0
 13  9  1  0  0  0  0
 13 24  1  0  0  0  0
 14 25  1  0  0  0  0
 15  4  2  0  0  0  0
 15  5  1  0  0  0  0
 16  3  1  0  0  0  0
 17 10  1  0  0  0  0
 17 28  1  0  0  0  0
 18  1  1  0  0  0  0
 18 20  2  0  0  0  0
 19  5  1  0  0  0  0
 19  6  2  0  0  0  0
 20 13  1  0  0  0  0
 21 26  1  0  0  0  0
 22 10  1  0  0  0  0
 23 21  2  0  0  0  0
 23  4  1  0  0  0  0
 24 22  1  0  0  0  0
 25 17  1  0  0  0  0
 27  2  1  0  0  0  0
 27  9  1  0  0  0  0
 28 29  1  0  0  0  0
 30 33  1  0  0  0  0
 32 29  1  0  0  0  0
 32 31  1  0  0  0  0
 33 31  1  0  0  0  0
 34 30  1  0  0  0  0
 34 32  1  0  0  0  0
M  END
>  <MODEL>
2

>  <REMARK>
 VINA RESULT:     -10.7      2.066      8.888
  Name = 
  3 active torsions:
  status: ('A' for Active; 'I' for Inactive)
    1  A    between atoms: C_17  and  O_28
    2  A    between atoms: O_28  and  C_29
    3  A    between atoms: C_29  and  C_32
                            x       y       z     vdW  Elec       q    Type
                         _______ _______ _______ _____ _____    ______ ____

>  <TORSDO>
F 3

$$$$
=
 OpenBabel11122414193D

 34 40  0  0  1  0  0  0  0  0999 V2000
  161.2470  208.7510  150.3890 C   0  0  2  0  0  3  0  0  0  0  0  0
  161.0600  210.6590  151.9800 C   0  0  0  0  0  2  0  0  0  0  0  0
  160.2100  202.1510  149.3850 C   0  0  2  0  0  3  0  0  0  0  0  0
  161.2040  206.5140  149.2160 C   0  0  0  0  0  0  0  0  0  0  0  0
  160.8450  204.4380  150.4530 C   0  0  0  0  0  0  0  0  0  0  0  0
  160.9040  202.3950  151.6640 O   0  0  0  0  0  0  0  0  0  0  0  0
  159.5850  200.8280  149.7930 C   0  0  0  0  0  1  0  0  0  0  0  0
  162.0420  203.2010  147.9470 C   0  0  0  0  0  2  0  0  0  0  0  0
  161.8760  208.5660  152.9320 C   0  0  2  0  0  3  0  0  0  0  0  0
  161.2070  208.0990  155.8780 O   0  0  0  0  0  0  0  0  0  0  0  0
  160.8320  205.1830  151.6370 C   0  0  0  0  0  3  0  0  0  0  0  0
  161.0790  204.3800  147.8980 C   0  0  0  0  0  2  0  0  0  0  0  0
  160.9060  207.3590  152.9330 C   0  0  1  0  0  3  0  0  0  0  0  0
  161.3280  210.9250  153.4420 C   0  0  0  0  0  2  0  0  0  0  0  0
  161.0450  205.1130  149.2180 C   0  0  0  0  0  0  0  0  0  0  0  0
  161.3430  201.9130  148.3880 C   0  0  0  0  0  2  0  0  0  0  0  0
  160.7130  209.2070  155.1850 C   0  0  2  0  0  3  0  0  0  0  0  0
  161.2110  207.2380  150.4290 C   0  0  0  0  0  0  0  0  0  0  0  0
  160.6600  202.9680  150.5650 C   0  0  0  0  0  0  0  0  0  0  0  0
  161.0230  206.5700  151.6460 C   0  0  0  0  0  0  0  0  0  0  0  0
  161.6560  208.5450  147.9180 C   0  0  0  0  0  3  0  0  0  0  0  0
  160.4880  207.0080  155.3870 C   0  0  0  0  0  2  0  0  0  0  0  0
  161.3160  207.2560  147.9400 C   0  0  0  0  0  3  0  0  0  0  0  0
  161.1710  206.4590  154.1470 C   0  0  0  0  0  2  0  0  0  0  0  0
  161.7010  209.5930  154.0760 C   0  0  1  0  0  3  0  0  0  0  0  0
  162.0350  209.2620  149.1780 C   0  0  0  0  0  2  0  0  0  0  0  0
  161.8290  209.4020  151.6480 C   0  0  1  0  0  3  0  0  0  0  0  0
  160.5490  210.2670  156.0820 O   0  0  0  0  0  0  0  0  0  0  0  0
  159.2090  210.1960  156.4730 C   0  0  0  0  0  2  0  0  0  0  0  0
  159.2380  213.5430  155.2630 O   0  0  0  0  0  0  0  0  0  0  0  0
  157.7720  211.6950  155.1150 C   0  0  0  0  0  2  0  0  0  0  0  0
  158.5700  211.5700  156.3790 C   0  0  2  0  0  3  0  0  0  0  0  0
  158.4600  212.8070  154.3590 C   0  0  0  0  0  2  0  0  0  0  0  0
  159.6480  212.6170  156.2330 C   0  0  0  0  0  2  0  0  0  0  0  0
  1 26  1  6  0  0  0
  1 18  1  0  0  0  0
  1 27  1  0  0  0  0
  2 14  1  0  0  0  0
  3  7  1  1  0  0  0
  3 19  1  0  0  0  0
  4 15  2  0  0  0  0
  4 18  1  0  0  0  0
  5 19  1  0  0  0  0
  5 11  2  0  0  0  0
  8 16  1  0  0  0  0
  9 13  1  0  0  0  0
  9 25  1  0  0  0  0
 11 20  1  0  0  0  0
 12  8  1  0  0  0  0
 12 15  1  0  0  0  0
 13 24  1  0  0  0  0
 14 25  1  0  0  0  0
 15  5  1  0  0  0  0
 16  3  1  0  0  0  0
 17 10  1  0  0  0  0
 17 28  1  0  0  0  0
 18 20  2  0  0  0  0
 19  6  2  0  0  0  0
 20 13  1  0  0  0  0
 21 23  2  0  0  0  0
 21 26  1  0  0  0  0
 22 10  1  0  0  0  0
 23  4  1  0  0  0  0
 24 22  1  0  0  0  0
 25 17  1  0  0  0  0
 27  2  1  0  0  0  0
 27  9  1  0  0  0  0
 28 29  1  0  0  0  0
 30 34  1  0  0  0  0
 31 32  1  0  0  0  0
 32 29  1  0  0  0  0
 33 31  1  0  0  0  0
 33 30  1  0  0  0  0
 34 32  1  0  0  0  0
M  END
>  <MODEL>
3

>  <REMARK>
 VINA RESULT:     -10.6      2.032      8.819
  Name = 
  3 active torsions:
  status: ('A' for Active; 'I' for Inactive)
    1  A    between atoms: C_17  and  O_28
    2  A    between atoms: O_28  and  C_29
    3  A    between atoms: C_29  and  C_32
                            x       y       z     vdW  Elec       q    Type
                         _______ _______ _______ _____ _____    ______ ____

>  <TORSDO>
F 3

$$$$
=
 OpenBabel11122414193D

 34 40  0  0  1  0  0  0  0  0999 V2000
  161.2810  204.7910  152.2400 C   0  0  2  0  0  3  0  0  0  0  0  0
  161.5680  206.3320  154.1750 C   0  0  0  0  0  2  0  0  0  0  0  0
  161.9760  203.9530  145.5730 C   0  0  2  0  0  3  0  0  0  0  0  0
  161.2080  203.6740  149.9760 C   0  0  0  0  0  0  0  0  0  0  0  0
  161.4610  204.9630  147.9160 C   0  0  0  0  0  0  0  0  0  0  0  0
  161.2990  206.2250  145.9100 O   0  0  0  0  0  0  0  0  0  0  0  0
  162.5330  204.3950  144.2300 C   0  0  0  0  0  1  0  0  0  0  0  0
  160.1990  202.4900  146.6780 C   0  0  0  0  0  2  0  0  0  0  0  0
  160.6470  207.3370  152.1520 C   0  0  2  0  0  3  0  0  0  0  0  0
  161.2950  210.2940  151.7260 O   0  0  0  0  0  0  0  0  0  0  0  0
  161.5140  206.1280  148.6890 C   0  0  0  0  0  3  0  0  0  0  0  0
  161.2210  202.4110  147.8050 C   0  0  0  0  0  2  0  0  0  0  0  0
  161.5540  207.3690  150.8970 C   0  0  1  0  0  3  0  0  0  0  0  0
  161.3170  207.7870  154.4920 C   0  0  0  0  0  2  0  0  0  0  0  0
  161.2950  203.7120  148.5680 C   0  0  0  0  0  0  0  0  0  0  0  0
  160.8310  202.9630  145.3670 C   0  0  0  0  0  2  0  0  0  0  0  0
  161.8440  209.5730  152.7900 C   0  0  2  0  0  3  0  0  0  0  0  0
  161.2390  204.8680  150.7290 C   0  0  0  0  0  0  0  0  0  0  0  0
  161.5700  205.1130  146.4410 C   0  0  0  0  0  0  0  0  0  0  0  0
  161.3950  206.1020  150.0840 C   0  0  0  0  0  0  0  0  0  0  0  0
  160.8590  202.3250  151.9930 C   0  0  0  0  0  3  0  0  0  0  0  0
  161.9560  209.8300  150.5870 C   0  0  0  0  0  2  0  0  0  0  0  0
  161.1320  202.3800  150.6900 C   0  0  0  0  0  3  0  0  0  0  0  0
  161.2440  208.6050  150.0440 C   0  0  0  0  0  2  0  0  0  0  0  0
  160.8760  208.4550  153.1980 C   0  0  1  0  0  3  0  0  0  0  0  0
  160.5190  203.5670  152.7610 C   0  0  0  0  0  2  0  0  0  0  0  0
  160.7350  206.0320  152.9520 C   0  0  1  0  0  3  0  0  0  0  0  0
  162.0640  210.4430  153.8620 O   0  0  0  0  0  0  0  0  0  0  0  0
  160.8900  211.1940  153.9560 C   0  0  0  0  0  2  0  0  0  0  0  0
  159.7060  210.2810  157.1860 O   0  0  0  0  0  0  0  0  0  0  0  0
  161.7400  211.0780  156.2850 C   0  0  0  0  0  2  0  0  0  0  0  0
  160.6160  211.5440  155.4080 C   0  0  2  0  0  3  0  0  0  0  0  0
  161.0920  210.0690  157.2030 C   0  0  0  0  0  2  0  0  0  0  0  0
  159.4230  210.7580  155.8980 C   0  0  0  0  0  2  0  0  0  0  0  0
  1 26  1  1  0  0  0
  1 27  1  0  0  0  0
  2 14  1  0  0  0  0
  3  7  1  6  0  0  0
  3 19  1  0  0  0  0
  4 23  1  0  0  0  0
  4 18  1  0  0  0  0
  5 15  1  0  0  0  0
  5 11  2  0  0  0  0
  6 19  2  0  0  0  0
  8 12  1  0  0  0  0
  9 27  1  0  0  0  0
  9 25  1  0  0  0  0
 10 17  1  0  0  0  0
 11 20  1  0  0  0  0
 12 15  1  0  0  0  0
 13  9  1  0  0  0  0
 15  4  2  0  0  0  0
 16  3  1  0  0  0  0
 16  8  1  0  0  0  0
 17 25  1  0  0  0  0
 17 28  1  0  0  0  0
 18  1  1  0  0  0  0
 19  5  1  0  0  0  0
 20 18  2  0  0  0  0
 20 13  1  0  0  0  0
 21 26  1  0  0  0  0
 22 10  1  0  0  0  0
 23 21  2  0  0  0  0
 24 22  1  0  0  0  0
 24 13  1  0  0  0  0
 25 14  1  0  0  0  0
 27  2  1  0  0  0  0
 28 29  1  0  0  0  0
 29 32  1  0  0  0  0
 30 33  1  0  0  0  0
 31 33  1  0  0  0  0
 32 34  1  0  0  0  0
 32 31  1  0  0  0  0
 34 30  1  0  0  0  0
M  END
>  <MODEL>
4

>  <REMARK>
 VINA RESULT:     -10.5      2.309      9.365
  Name = 
  3 active torsions:
  status: ('A' for Active; 'I' for Inactive)
    1  A    between atoms: C_17  and  O_28
    2  A    between atoms: O_28  and  C_29
    3  A    between atoms: C_29  and  C_32
                            x       y       z     vdW  Elec       q    Type
                         _______ _______ _______ _____ _____    ______ ____

>  <TORSDO>
F 3

$$$$
=
 OpenBabel11122414193D

 34 40  0  0  1  0  0  0  0  0999 V2000
  160.5990  206.8350  154.4140 C   0  0  2  0  0  3  0  0  0  0  0  0
  161.1390  204.7640  153.1400 C   0  0  0  0  0  2  0  0  0  0  0  0
  158.6160  213.2830  154.0740 C   0  0  2  0  0  3  0  0  0  0  0  0
  159.9450  209.1520  155.1770 C   0  0  0  0  0  0  0  0  0  0  0  0
  159.7960  211.0130  153.6010 C   0  0  0  0  0  0  0  0  0  0  0  0
  160.0350  212.9040  152.1830 O   0  0  0  0  0  0  0  0  0  0  0  0
  158.0240  214.4520  153.3040 C   0  0  0  0  0  1  0  0  0  0  0  0
  159.9770  212.6670  156.1450 C   0  0  0  0  0  2  0  0  0  0  0  0
  162.0000  206.8400  152.1920 C   0  0  2  0  0  3  0  0  0  0  0  0
  162.2830  206.8940  149.1490 O   0  0  0  0  0  0  0  0  0  0  0  0
  160.2470  210.1540  152.5920 C   0  0  0  0  0  3  0  0  0  0  0  0
  159.1780  211.3720  156.0650 C   0  0  0  0  0  2  0  0  0  0  0  0
  160.9640  207.8880  151.7150 C   0  0  1  0  0  3  0  0  0  0  0  0
  161.8950  204.3870  151.8880 C   0  0  0  0  0  2  0  0  0  0  0  0
  159.6510  210.5080  154.9210 C   0  0  0  0  0  0  0  0  0  0  0  0
  159.3300  213.7870  155.3260 C   0  0  0  0  0  2  0  0  0  0  0  0
  161.7080  205.8040  149.8090 C   0  0  2  0  0  3  0  0  0  0  0  0
  160.4220  208.3140  154.1450 C   0  0  0  0  0  0  0  0  0  0  0  0
  159.5070  212.4210  153.2230 C   0  0  0  0  0  0  0  0  0  0  0  0
  160.5730  208.8160  152.8450 C   0  0  0  0  0  0  0  0  0  0  0  0
  160.1560  207.3560  156.8320 C   0  0  0  0  0  3  0  0  0  0  0  0
  161.3350  207.9150  149.2290 C   0  0  0  0  0  2  0  0  0  0  0  0
  159.7110  208.5720  156.5180 C   0  0  0  0  0  3  0  0  0  0  0  0
  161.5160  208.6840  150.5260 C   0  0  0  0  0  2  0  0  0  0  0  0
  162.3150  205.6840  151.2130 C   0  0  1  0  0  3  0  0  0  0  0  0
  160.9980  206.5730  155.8700 C   0  0  0  0  0  2  0  0  0  0  0  0
  161.6240  206.1460  153.5070 C   0  0  1  0  0  3  0  0  0  0  0  0
  161.9550  204.6440  149.0700 O   0  0  0  0  0  0  0  0  0  0  0  0
  161.1080  204.7410  147.9640 C   0  0  0  0  0  2  0  0  0  0  0  0
  161.2400  204.0450  144.4760 O   0  0  0  0  0  0  0  0  0  0  0  0
  161.9010  205.8280  145.8790 C   0  0  0  0  0  2  0  0  0  0  0  0
  161.9050  204.5620  146.6840 C   0  0  2  0  0  3  0  0  0  0  0  0
  161.2060  205.4410  144.5960 C   0  0  0  0  0  2  0  0  0  0  0  0
  161.2070  203.5630  145.7920 C   0  0  0  0  0  2  0  0  0  0  0  0
  1 26  1  1  0  0  0
  2 27  1  0  0  0  0
  3  7  1  6  0  0  0
  3 16  1  0  0  0  0
  4 23  1  0  0  0  0
  5 15  2  0  0  0  0
  6 19  2  0  0  0  0
  9 27  1  0  0  0  0
 10 22  1  0  0  0  0
 10 17  1  0  0  0  0
 11 20  2  0  0  0  0
 11  5  1  0  0  0  0
 12  8  1  0  0  0  0
 13  9  1  0  0  0  0
 13 20  1  0  0  0  0
 14  2  1  0  0  0  0
 15  4  1  0  0  0  0
 15 12  1  0  0  0  0
 16  8  1  0  0  0  0
 17 25  1  0  0  0  0
 18  1  1  0  0  0  0
 18  4  2  0  0  0  0
 19  5  1  0  0  0  0
 19  3  1  0  0  0  0
 20 18  1  0  0  0  0
 22 24  1  0  0  0  0
 23 21  2  0  0  0  0
 24 13  1  0  0  0  0
 25 14  1  0  0  0  0
 25  9  1  0  0  0  0
 26 21  1  0  0  0  0
 27  1  1  0  0  0  0
 28 17  1  0  0  0  0
 29 28  1  0  0  0  0
 30 33  1  0  0  0  0
 30 34  1  0  0  0  0
 31 32  1  0  0  0  0
 32 29  1  0  0  0  0
 33 31  1  0  0  0  0
 34 32  1  0  0  0  0
M  END
>  <MODEL>
5

>  <REMARK>
 VINA RESULT:     -10.2      2.483      4.805
  Name = 
  3 active torsions:
  status: ('A' for Active; 'I' for Inactive)
    1  A    between atoms: C_17  and  O_28
    2  A    between atoms: O_28  and  C_29
    3  A    between atoms: C_29  and  C_32
                            x       y       z     vdW  Elec       q    Type
                         _______ _______ _______ _____ _____    ______ ____

>  <TORSDO>
F 3

$$$$
=
 OpenBabel11122414193D

 34 40  0  0  1  0  0  0  0  0999 V2000
  160.6120  206.8910  154.3420 C   0  0  2  0  0  3  0  0  0  0  0  0
  161.1550  204.7710  153.1530 C   0  0  0  0  0  2  0  0  0  0  0  0
  158.6150  213.3170  153.7420 C   0  0  2  0  0  3  0  0  0  0  0  0
  159.9540  209.2360  155.0110 C   0  0  0  0  0  0  0  0  0  0  0  0
  159.8000  211.0310  153.3600 C   0  0  0  0  0  0  0  0  0  0  0  0
  160.0350  212.8630  151.8670 O   0  0  0  0  0  0  0  0  0  0  0  0
  158.0210  214.4520  152.9250 C   0  0  0  0  0  1  0  0  0  0  0  0
  159.9790  212.7870  155.8350 C   0  0  0  0  0  2  0  0  0  0  0  0
  162.0100  206.8090  152.1210 C   0  0  2  0  0  3  0  0  0  0  0  0
  162.2920  206.7390  149.0780 O   0  0  0  0  0  0  0  0  0  0  0  0
  160.2520  210.1320  152.3870 C   0  0  0  0  0  3  0  0  0  0  0  0
  159.1830  211.4890  155.8080 C   0  0  0  0  0  2  0  0  0  0  0  0
  160.9720  207.8340  151.6020 C   0  0  1  0  0  3  0  0  0  0  0  0
  161.9100  204.3450  151.9170 C   0  0  0  0  0  2  0  0  0  0  0  0
  159.6570  210.5800  154.7000 C   0  0  0  0  0  0  0  0  0  0  0  0
  159.3300  213.8720  154.9720 C   0  0  0  0  0  2  0  0  0  0  0  0
  161.7190  205.6760  149.7820 C   0  0  2  0  0  3  0  0  0  0  0  0
  160.4320  208.3570  154.0140 C   0  0  0  0  0  0  0  0  0  0  0  0
  159.5080  212.4220  152.9260 C   0  0  0  0  0  0  0  0  0  0  0  0
  160.5810  208.8060  152.6940 C   0  0  0  0  0  0  0  0  0  0  0  0
  160.1700  207.5100  156.7380 C   0  0  0  0  0  3  0  0  0  0  0  0
  161.3420  207.7610  149.1170 C   0  0  0  0  0  2  0  0  0  0  0  0
  159.7220  208.7110  156.3750 C   0  0  0  0  0  3  0  0  0  0  0  0
  161.5220  208.5820  150.3820 C   0  0  0  0  0  2  0  0  0  0  0  0
  162.3270  205.6140  151.1900 C   0  0  1  0  0  3  0  0  0  0  0  0
  161.0120  206.6890  155.8080 C   0  0  0  0  0  2  0  0  0  0  0  0
  161.6370  206.1680  153.4630 C   0  0  1  0  0  3  0  0  0  0  0  0
  161.9680  204.4870  149.0910 O   0  0  0  0  0  0  0  0  0  0  0  0
  160.8970  204.3630  148.2020 C   0  0  0  0  0  2  0  0  0  0  0  0
  161.3000  200.8330  148.4020 O   0  0  0  0  0  0  0  0  0  0  0  0
  160.2880  202.5050  149.7300 C   0  0  0  0  0  2  0  0  0  0  0  0
  160.3000  202.9720  148.3040 C   0  0  2  0  0  3  0  0  0  0  0  0
  161.1830  201.2890  149.7220 C   0  0  0  0  0  2  0  0  0  0  0  0
  161.2030  201.9830  147.6060 C   0  0  0  0  0  2  0  0  0  0  0  0
  1 26  1  1  0  0  0
  2 27  1  0  0  0  0
  3  7  1  6  0  0  0
  3 16  1  0  0  0  0
  4 23  1  0  0  0  0
  5 15  2  0  0  0  0
  6 19  2  0  0  0  0
  9 27  1  0  0  0  0
 10 22  1  0  0  0  0
 10 17  1  0  0  0  0
 11 20  2  0  0  0  0
 11  5  1  0  0  0  0
 12  8  1  0  0  0  0
 13  9  1  0  0  0  0
 13 20  1  0  0  0  0
 14  2  1  0  0  0  0
 15  4  1  0  0  0  0
 15 12  1  0  0  0  0
 16  8  1  0  0  0  0
 17 25  1  0  0  0  0
 18  1  1  0  0  0  0
 18  4  2  0  0  0  0
 19  5  1  0  0  0  0
 19  3  1  0  0  0  0
 20 18  1  0  0  0  0
 22 24  1  0  0  0  0
 23 21  2  0  0  0  0
 24 13  1  0  0  0  0
 25 14  1  0  0  0  0
 25  9  1  0  0  0  0
 26 21  1  0  0  0  0
 27  1  1  0  0  0  0
 28 17  1  0  0  0  0
 29 32  1  0  0  0  0
 29 28  1  0  0  0  0
 30 33  1  0  0  0  0
 32 31  1  0  0  0  0
 33 31  1  0  0  0  0
 34 32  1  0  0  0  0
 34 30  1  0  0  0  0
M  END
>  <MODEL>
6

>  <REMARK>
 VINA RESULT:      -9.5      2.249      4.702
  Name = 
  3 active torsions:
  status: ('A' for Active; 'I' for Inactive)
    1  A    between atoms: C_17  and  O_28
    2  A    between atoms: O_28  and  C_29
    3  A    between atoms: C_29  and  C_32
                            x       y       z     vdW  Elec       q    Type
                         _______ _______ _______ _____ _____    ______ ____

>  <TORSDO>
F 3

$$$$
=
 OpenBabel11122414193D

 34 40  0  0  1  0  0  0  0  0999 V2000
  161.4580  204.0130  150.9830 C   0  0  2  0  0  3  0  0  0  0  0  0
  161.9460  205.1170  153.1620 C   0  0  0  0  0  2  0  0  0  0  0  0
  161.2410  204.6910  144.2650 C   0  0  2  0  0  3  0  0  0  0  0  0
  161.1160  203.4100  148.5540 C   0  0  0  0  0  0  0  0  0  0  0  0
  161.0180  205.1290  146.8210 C   0  0  0  0  0  0  0  0  0  0  0  0
  160.5170  206.7800  145.1870 O   0  0  0  0  0  0  0  0  0  0  0  0
  161.5820  205.4540  142.9950 C   0  0  0  0  0  1  0  0  0  0  0  0
  159.7060  202.8940  145.2320 C   0  0  0  0  0  2  0  0  0  0  0  0
  160.7040  206.4640  151.5500 C   0  0  2  0  0  3  0  0  0  0  0  0
  161.1520  209.4830  151.7190 O   0  0  0  0  0  0  0  0  0  0  0  0
  161.1270  206.1010  147.8220 C   0  0  0  0  0  3  0  0  0  0  0  0
  160.8790  202.6510  146.1720 C   0  0  0  0  0  2  0  0  0  0  0  0
  161.4220  206.8340  150.2290 C   0  0  1  0  0  3  0  0  0  0  0  0
  161.6760  206.4460  153.8260 C   0  0  0  0  0  2  0  0  0  0  0  0
  161.0010  203.7580  147.1920 C   0  0  0  0  0  0  0  0  0  0  0  0
  160.1250  203.6860  143.9910 C   0  0  0  0  0  2  0  0  0  0  0  0
  161.8770  208.5930  152.5150 C   0  0  2  0  0  3  0  0  0  0  0  0
  161.2000  204.4120  149.5460 C   0  0  0  0  0  0  0  0  0  0  0  0
  160.9110  205.6020  145.4160 C   0  0  0  0  0  0  0  0  0  0  0  0
  161.2070  205.7650  149.1790 C   0  0  0  0  0  0  0  0  0  0  0  0
  161.1170  201.6350  150.2450 C   0  0  0  0  0  3  0  0  0  0  0  0
  161.6650  209.3270  150.4300 C   0  0  0  0  0  2  0  0  0  0  0  0
  161.2000  201.9910  148.9630 C   0  0  0  0  0  3  0  0  0  0  0  0
  160.9400  208.1980  149.7210 C   0  0  0  0  0  2  0  0  0  0  0  0
  161.0280  207.3430  152.7820 C   0  0  1  0  0  3  0  0  0  0  0  0
  160.8330  202.6520  151.3090 C   0  0  0  0  0  2  0  0  0  0  0  0
  160.9620  205.0270  152.0190 C   0  0  1  0  0  3  0  0  0  0  0  0
  162.2070  209.2240  153.7170 O   0  0  0  0  0  0  0  0  0  0  0  0
  161.0980  210.0190  154.0170 C   0  0  0  0  0  2  0  0  0  0  0  0
  159.7870  209.3690  157.2610 O   0  0  0  0  0  0  0  0  0  0  0  0
  161.9270  209.3460  156.2570 C   0  0  0  0  0  2  0  0  0  0  0  0
  161.0580  210.3120  155.5060 C   0  0  2  0  0  3  0  0  0  0  0  0
  160.9600  208.6080  157.1530 C   0  0  0  0  0  2  0  0  0  0  0  0
  159.6700  210.0390  156.0350 C   0  0  0  0  0  2  0  0  0  0  0  0
  1 26  1  1  0  0  0
  1 27  1  0  0  0  0
  2 14  1  0  0  0  0
  3  7  1  6  0  0  0
  3 19  1  0  0  0  0
  4 23  1  0  0  0  0
  4 18  1  0  0  0  0
  5 15  1  0  0  0  0
  5 11  2  0  0  0  0
  6 19  2  0  0  0  0
  8 12  1  0  0  0  0
  9 27  1  0  0  0  0
  9 25  1  0  0  0  0
 10 17  1  0  0  0  0
 11 20  1  0  0  0  0
 12 15  1  0  0  0  0
 13  9  1  0  0  0  0
 15  4  2  0  0  0  0
 16  3  1  0  0  0  0
 16  8  1  0  0  0  0
 17 25  1  0  0  0  0
 17 28  1  0  0  0  0
 18  1  1  0  0  0  0
 19  5  1  0  0  0  0
 20 18  2  0  0  0  0
 20 13  1  0  0  0  0
 21 26  1  0  0  0  0
 22 10  1  0  0  0  0
 23 21  2  0  0  0  0
 24 13  1  0  0  0  0
 24 22  1  0  0  0  0
 25 14  1  0  0  0  0
 27  2  1  0  0  0  0
 28 29  1  0  0  0  0
 29 32  1  0  0  0  0
 31 33  1  0  0  0  0
 32 34  1  0  0  0  0
 32 31  1  0  0  0  0
 33 30  1  0  0  0  0
 34 30  1  0  0  0  0
M  END
>  <MODEL>
7

>  <REMARK>
 VINA RESULT:      -8.9      2.452      9.267
  Name = 
  3 active torsions:
  status: ('A' for Active; 'I' for Inactive)
    1  A    between atoms: C_17  and  O_28
    2  A    between atoms: O_28  and  C_29
    3  A    between atoms: C_29  and  C_32
                            x       y       z     vdW  Elec       q    Type
                         _______ _______ _______ _____ _____    ______ ____

>  <TORSDO>
F 3

$$$$
=
 OpenBabel11122414193D

 34 40  0  0  1  0  0  0  0  0999 V2000
  162.0330  208.2920  149.0810 C   0  0  2  0  0  3  0  0  0  0  0  0
  162.2630  206.6150  147.2540 C   0  0  0  0  0  2  0  0  0  0  0  0
  161.7950  209.3350  155.7520 C   0  0  2  0  0  3  0  0  0  0  0  0
  161.8530  209.5260  151.2780 C   0  0  0  0  0  0  0  0  0  0  0  0
  161.4500  208.3350  153.3740 C   0  0  0  0  0  0  0  0  0  0  0  0
  160.6650  207.2640  155.3430 O   0  0  0  0  0  0  0  0  0  0  0  0
  162.0020  208.8560  157.1790 C   0  0  0  0  0  1  0  0  0  0  0  0
  160.6230  211.1010  154.3270 C   0  0  0  0  0  2  0  0  0  0  0  0
  160.8090  205.9690  149.1030 C   0  0  2  0  0  3  0  0  0  0  0  0
  160.6590  202.9730  149.6890 O   0  0  0  0  0  0  0  0  0  0  0  0
  161.3530  207.1460  152.6430 C   0  0  0  0  0  3  0  0  0  0  0  0
  161.8060  210.8760  153.3950 C   0  0  0  0  0  2  0  0  0  0  0  0
  161.4620  205.8030  150.4970 C   0  0  1  0  0  3  0  0  0  0  0  0
  161.7300  205.2420  146.9240 C   0  0  0  0  0  2  0  0  0  0  0  0
  161.6950  209.5510  152.6800 C   0  0  0  0  0  0  0  0  0  0  0  0
  160.9000  210.5720  155.7370 C   0  0  0  0  0  2  0  0  0  0  0  0
  161.5310  203.4840  148.7240 C   0  0  2  0  0  3  0  0  0  0  0  0
  161.7250  208.3140  150.5630 C   0  0  0  0  0  0  0  0  0  0  0  0
  161.2760  208.2510  154.8470 C   0  0  0  0  0  0  0  0  0  0  0  0
  161.4750  207.1170  151.2480 C   0  0  0  0  0  0  0  0  0  0  0  0
  162.1720  210.7980  149.2070 C   0  0  0  0  0  3  0  0  0  0  0  0
  161.2130  203.3370  150.9170 C   0  0  0  0  0  2  0  0  0  0  0  0
  162.2050  210.7580  150.5390 C   0  0  0  0  0  3  0  0  0  0  0  0
  160.7320  204.7240  151.3060 C   0  0  0  0  0  2  0  0  0  0  0  0
  160.9360  204.7690  148.1340 C   0  0  1  0  0  3  0  0  0  0  0  0
  161.6790  209.6260  148.4140 C   0  0  0  0  0  2  0  0  0  0  0  0
  161.3340  207.1700  148.3080 C   0  0  1  0  0  3  0  0  0  0  0  0
  161.7130  202.5260  147.7230 O   0  0  0  0  0  0  0  0  0  0  0  0
  160.4360  202.0080  147.4910 C   0  0  0  0  0  2  0  0  0  0  0  0
  158.9380  202.7750  144.3560 O   0  0  0  0  0  0  0  0  0  0  0  0
  161.1430  202.6080  145.1900 C   0  0  0  0  0  2  0  0  0  0  0  0
  160.2540  201.7220  146.0120 C   0  0  2  0  0  3  0  0  0  0  0  0
  160.1770  203.4290  144.3680 C   0  0  0  0  0  2  0  0  0  0  0  0
  158.8590  202.1150  145.5910 C   0  0  0  0  0  2  0  0  0  0  0  0
  1 26  1  6  0  0  0
  1 18  1  0  0  0  0
  2 27  1  0  0  0  0
  3  7  1  1  0  0  0
  4 15  1  0  0  0  0
  5 19  1  0  0  0  0
  8 16  1  0  0  0  0
  9 13  1  0  0  0  0
 10 22  1  0  0  0  0
 11  5  1  0  0  0  0
 12  8  1  0  0  0  0
 13 20  1  0  0  0  0
 13 24  1  0  0  0  0
 14  2  1  0  0  0  0
 14 25  1  0  0  0  0
 15  5  2  0  0  0  0
 15 12  1  0  0  0  0
 16  3  1  0  0  0  0
 17 10  1  0  0  0  0
 18 20  1  0  0  0  0
 18  4  2  0  0  0  0
 19  6  2  0  0  0  0
 19  3  1  0  0  0  0
 20 11  2  0  0  0  0
 21 23  2  0  0  0  0
 22 24  1  0  0  0  0
 23  4  1  0  0  0  0
 25 17  1  0  0  0  0
 25  9  1  0  0  0  0
 26 21  1  0  0  0  0
 27  1  1  0  0  0  0
 27  9  1  0  0  0  0
 28 17  1  0  0  0  0
 29 28  1  0  0  0  0
 30 33  1  0  0  0  0
 30 34  1  0  0  0  0
 31 32  1  0  0  0  0
 32 29  1  0  0  0  0
 33 31  1  0  0  0  0
 34 32  1  0  0  0  0
M  END
>  <MODEL>
8

>  <REMARK>
 VINA RESULT:      -8.8      1.174      1.385
  Name = 
  3 active torsions:
  status: ('A' for Active; 'I' for Inactive)
    1  A    between atoms: C_17  and  O_28
    2  A    between atoms: O_28  and  C_29
    3  A    between atoms: C_29  and  C_32
                            x       y       z     vdW  Elec       q    Type
                         _______ _______ _______ _____ _____    ______ ____

>  <TORSDO>
F 3

$$$$
=
 OpenBabel11122414193D

 34 40  0  0  1  0  0  0  0  0999 V2000
  161.6230  207.7760  148.7850 C   0  0  2  0  0  3  0  0  0  0  0  0
  161.6330  210.0720  149.7510 C   0  0  0  0  0  2  0  0  0  0  0  0
  159.9960  201.2890  149.7360 C   0  0  2  0  0  3  0  0  0  0  0  0
  161.3630  205.3090  148.3130 C   0  0  0  0  0  0  0  0  0  0  0  0
  160.8480  203.7220  150.0970 C   0  0  0  0  0  0  0  0  0  0  0  0
  160.7520  202.1210  151.8500 O   0  0  0  0  0  0  0  0  0  0  0  0
  159.2660  200.2020  150.5070 C   0  0  0  0  0  1  0  0  0  0  0  0
  161.8850  201.7090  148.0680 C   0  0  0  0  0  2  0  0  0  0  0  0
  162.2810  208.2820  151.2770 C   0  0  2  0  0  3  0  0  0  0  0  0
  161.6310  208.7520  154.2260 O   0  0  0  0  0  0  0  0  0  0  0  0
  160.9220  204.7760  151.0140 C   0  0  0  0  0  3  0  0  0  0  0  0
  161.0270  202.9040  147.6720 C   0  0  0  0  0  2  0  0  0  0  0  0
  161.2110  207.2190  151.6220 C   0  0  1  0  0  3  0  0  0  0  0  0
  161.9510  210.7270  151.0740 C   0  0  0  0  0  2  0  0  0  0  0  0
  161.0820  203.9880  148.7210 C   0  0  0  0  0  0  0  0  0  0  0  0
  161.0850  200.6710  148.8600 C   0  0  0  0  0  2  0  0  0  0  0  0
  161.2230  209.6510  153.2370 C   0  0  2  0  0  3  0  0  0  0  0  0
  161.4560  206.3500  149.2630 C   0  0  0  0  0  0  0  0  0  0  0  0
  160.5380  202.3700  150.6310 C   0  0  0  0  0  0  0  0  0  0  0  0
  161.2340  206.0840  150.6210 C   0  0  0  0  0  0  0  0  0  0  0  0
  161.9650  206.8260  146.4840 C   0  0  0  0  0  3  0  0  0  0  0  0
  160.8110  207.6340  154.0680 C   0  0  0  0  0  2  0  0  0  0  0  0
  161.5150  205.6360  146.8770 C   0  0  0  0  0  3  0  0  0  0  0  0
  161.4200  206.6910  153.0460 C   0  0  0  0  0  2  0  0  0  0  0  0
  162.2190  209.6090  152.0710 C   0  0  1  0  0  3  0  0  0  0  0  0
  162.4290  207.8420  147.4840 C   0  0  0  0  0  2  0  0  0  0  0  0
  162.2840  208.7100  149.8040 C   0  0  1  0  0  3  0  0  0  0  0  0
  161.1680  210.9350  153.7860 O   0  0  0  0  0  0  0  0  0  0  0  0
  161.4930  210.7600  155.1330 C   0  0  0  0  0  2  0  0  0  0  0  0
  158.3670  212.4220  155.4920 O   0  0  0  0  0  0  0  0  0  0  0  0
  159.3540  210.4550  156.3530 C   0  0  0  0  0  2  0  0  0  0  0  0
  160.4460  211.4240  156.0090 C   0  0  2  0  0  3  0  0  0  0  0  0
  158.1180  211.0640  155.7340 C   0  0  0  0  0  2  0  0  0  0  0  0
  159.7400  212.5010  155.2200 C   0  0  0  0  0  2  0  0  0  0  0  0
  1 26  1  6  0  0  0
  1 18  1  0  0  0  0
  1 27  1  0  0  0  0
  2 27  1  0  0  0  0
  2 14  1  0  0  0  0
  3  7  1  1  0  0  0
  3 19  1  0  0  0  0
  4 15  2  0  0  0  0
  4 18  1  0  0  0  0
  5 19  1  0  0  0  0
  5 11  2  0  0  0  0
  8 16  1  0  0  0  0
  9 13  1  0  0  0  0
  9 25  1  0  0  0  0
 12  8  1  0  0  0  0
 12 15  1  0  0  0  0
 13 24  1  0  0  0  0
 14 25  1  0  0  0  0
 15  5  1  0  0  0  0
 16  3  1  0  0  0  0
 17 28  1  0  0  0  0
 17 10  1  0  0  0  0
 18 20  2  0  0  0  0
 19  6  2  0  0  0  0
 20 11  1  0  0  0  0
 20 13  1  0  0  0  0
 21 23  2  0  0  0  0
 21 26  1  0  0  0  0
 22 10  1  0  0  0  0
 23  4  1  0  0  0  0
 24 22  1  0  0  0  0
 25 17  1  0  0  0  0
 27  9  1  0  0  0  0
 28 29  1  0  0  0  0
 29 32  1  0  0  0  0
 30 33  1  0  0  0  0
 32 31  1  0  0  0  0
 33 31  1  0  0  0  0
 34 30  1  0  0  0  0
 34 32  1  0  0  0  0
M  END
>  <MODEL>
9

>  <REMARK>
 VINA RESULT:      -8.3      2.067      8.708
  Name = 
  3 active torsions:
  status: ('A' for Active; 'I' for Inactive)
    1  A    between atoms: C_17  and  O_28
    2  A    between atoms: O_28  and  C_29
    3  A    between atoms: C_29  and  C_32
                            x       y       z     vdW  Elec       q    Type
                         _______ _______ _______ _____ _____    ______ ____

>  <TORSDO>
F 3

$$$$
